OC(CCCOC1=CC=C(Cl)C=C1Cl)=O
  MOE2011           2D

 15 15  0  0  0  0  0  0  0  0999 V2000
    0.0000    0.0000    0.0000 O   0  0  0  0  0  0  0  0  0  0  0  0
    1.2990    0.7500    0.0000 C   0  0  0  0  0  0  0  0  0  0  0  0
    2.5980    0.0000    0.0000 C   0  0  0  0  0  0  0  0  0  0  0  0
    3.8970    0.7500    0.0000 C   0  0  0  0  0  0  0  0  0  0  0  0
    5.1960    0.0000    0.0000 C   0  0  0  0  0  0  0  0  0  0  0  0
    6.4950    0.7490    0.0000 O   0  0  0  0  0  0  0  0  0  0  0  0
    7.7940   -0.0010    0.0000 C   0  0  0  0  0  0  0  0  0  0  0  0
    7.7940   -1.5010    0.0000 C   0  0  0  0  0  0  0  0  0  0  0  0
    9.0930   -2.2510    0.0000 C   0  0  0  0  0  0  0  0  0  0  0  0
   10.3920   -1.5010    0.0000 C   0  0  0  0  0  0  0  0  0  0  0  0
   11.6910   -2.2510    0.0000 Cl  0  0  0  0  0  0  0  0  0  0  0  0
   10.3920   -0.0010    0.0000 C   0  0  0  0  0  0  0  0  0  0  0  0
    9.0930    0.7490    0.0000 C   0  0  0  0  0  0  0  0  0  0  0  0
    9.0930    2.2490    0.0000 Cl  0  0  0  0  0  0  0  0  0  0  0  0
    1.2990    2.2500    0.0000 O   0  0  0  0  0  0  0  0  0  0  0  0
  1  2  1  0  0  0  0
  2  3  1  0  0  0  0
  2 15  2  0  0  0  0
  3  4  1  0  0  0  0
  4  5  1  0  0  0  0
  5  6  1  0  0  0  0
  6  7  1  0  0  0  0
  7  8  1  0  0  0  0
  7 13  2  0  0  0  0
  8  9  2  0  0  0  0
  9 10  1  0  0  0  0
 10 11  1  0  0  0  0
 10 12  2  0  0  0  0
 12 13  1  0  0  0  0
 13 14  1  0  0  0  0
M  END
>  <DSSTox_RID>
40326

>  <DSSTox_CID>
4035

>  <apol>
31.03393

>  <a_acc>
3

>  <a_acid>
0

>  <a_aro>
6

>  <a_base>
0

>  <a_count>
25

>  <a_don>
2

>  <a_heavy>
15

>  <a_hyd>
11

>  <a_IC>
42.902954

>  <a_ICM>
1.7161182

>  <a_nB>
0

>  <a_nBr>
0

>  <a_nC>
10

>  <a_nCl>
2

>  <a_nF>
0

>  <a_nH>
10

>  <a_nI>
0

>  <a_nN>
0

>  <a_nO>
3

>  <a_nP>
0

>  <a_nS>
0

>  <balabanJ>
2.113832

>  <BCUT_PEOE_0>
-2.4968998

>  <BCUT_PEOE_1>
-0.63007379

>  <BCUT_PEOE_2>
0.59349692

>  <BCUT_PEOE_3>
2.5242391

>  <BCUT_SLOGP_0>
-2.5055017

>  <BCUT_SLOGP_1>
-0.47577807

>  <BCUT_SLOGP_2>
0.93400317

>  <BCUT_SLOGP_3>
2.5512886

>  <BCUT_SMR_0>
-2.2752371

>  <BCUT_SMR_1>
-0.30406758

>  <BCUT_SMR_2>
0.93754965

>  <BCUT_SMR_3>
2.7427895

>  <bpol>
14.64607

>  <b_1rotN>
5

>  <b_1rotR>
0.33333334

>  <b_ar>
6

>  <b_count>
25

>  <b_double>
1

>  <b_heavy>
15

>  <b_rotN>
5

>  <b_rotR>
0.33333334

>  <b_single>
18

>  <b_triple>
0

>  <chi0>
11.259149

>  <chi0v>
9.3848686

>  <chi0v_C>
5.8533711

>  <chi0_C>
6.5520415

>  <chi1>
7.0922241

>  <chi1v>
5.1460109

>  <chi1v_C>
3.0915873

>  <chi1_C>
3.8745749

>  <chiral>
0

>  <chiral_u>
0

>  <density>
0.96410906

>  <diameter>
10

>  <FCharge>
0

>  <GCUT_PEOE_0>
-0.78544432

>  <GCUT_PEOE_1>
-0.40890375

>  <GCUT_PEOE_2>
0.067908905

>  <GCUT_PEOE_3>
2.20767

>  <GCUT_SLOGP_0>
-0.88927037

>  <GCUT_SLOGP_1>
-0.32176679

>  <GCUT_SLOGP_2>
0.2984271

>  <GCUT_SLOGP_3>
2.3447676

>  <GCUT_SMR_0>
-0.51814663

>  <GCUT_SMR_1>
-0.20144972

>  <GCUT_SMR_2>
0.32124698

>  <GCUT_SMR_3>
2.470227

>  <Kier1>
13.066667

>  <Kier2>
6.5540166

>  <Kier3>
5.04

>  <KierA1>
12.611464

>  <KierA2>
6.3087478

>  <KierA3>
4.8407946

>  <KierFlex>
5.3041697

>  <lip_acc>
3

>  <lip_don>
1

>  <lip_druglike>
1

>  <lip_violation>
0

>  <logP(o/w)>
3.1159999

>  <logS>
-2.9833701

>  <mr>
5.9926496

>  <mutagenic>
0

>  <nmol>
1

>  <opr_brigid>
6

>  <opr_leadlike>
1

>  <opr_nring>
1

>  <opr_nrot>
5

>  <opr_violation>
0

>  <PC+>
0

>  <PC->
0

>  <PEOE_PC+>
0.90281814

>  <PEOE_PC->
-0.90281814

>  <PEOE_RPC+>
0.33401117

>  <PEOE_RPC->
0.36499271

>  <PEOE_VSA+0>
63.233978

>  <PEOE_VSA+1>
9.0394926

>  <PEOE_VSA+2>
46.325489

>  <PEOE_VSA+3>
0

>  <PEOE_VSA+4>
0

>  <PEOE_VSA+5>
0

>  <PEOE_VSA+6>
14.708499

>  <PEOE_VSA-0>
0

>  <PEOE_VSA-1>
59.163895

>  <PEOE_VSA-2>
13.566921

>  <PEOE_VSA-3>
0

>  <PEOE_VSA-4>
0

>  <PEOE_VSA-5>
13.566921

>  <PEOE_VSA-6>
2.503756

>  <PEOE_VSA_FHYD>
0.86142308

>  <PEOE_VSA_FNEG>
0.39981049

>  <PEOE_VSA_FPNEG>
0.072354928

>  <PEOE_VSA_FPOL>
0.13857692

>  <PEOE_VSA_FPOS>
0.60018951

>  <PEOE_VSA_FPPOS>
0.066222005

>  <PEOE_VSA_HYD>
191.32977

>  <PEOE_VSA_NEG>
88.801491

>  <PEOE_VSA_PNEG>
16.070677

>  <PEOE_VSA_POL>
30.779177

>  <PEOE_VSA_POS>
133.30746

>  <PEOE_VSA_PPOS>
14.708499

>  <petitjean>
0.5

>  <petitjeanSC>
1

>  <Q_PC+>
0

>  <Q_PC->
0

>  <Q_RPC+>
0

>  <Q_RPC->
0

>  <Q_VSA_FHYD>
1

>  <Q_VSA_FNEG>
0

>  <Q_VSA_FPNEG>
0

>  <Q_VSA_FPOL>
0

>  <Q_VSA_FPOS>
1

>  <Q_VSA_FPPOS>
0

>  <Q_VSA_HYD>
222.10895

>  <Q_VSA_NEG>
0

>  <Q_VSA_PNEG>
0

>  <Q_VSA_POL>
0

>  <Q_VSA_POS>
222.10895

>  <Q_VSA_PPOS>
0

>  <radius>
5

>  <reactive>
0

>  <rings>
1

>  <RPC+>
0

>  <RPC->
0

>  <rsynth>
1

>  <SlogP>
3.237

>  <SlogP_VSA0>
10.999887

>  <SlogP_VSA1>
7.7454643

>  <SlogP_VSA2>
23.862217

>  <SlogP_VSA3>
46.311485

>  <SlogP_VSA4>
0

>  <SlogP_VSA5>
0

>  <SlogP_VSA6>
7.0012131

>  <SlogP_VSA7>
52.929554

>  <SlogP_VSA8>
37.736813

>  <SlogP_VSA9>
83.540718

>  <SMR>
5.8826799

>  <SMR_VSA0>
23.862217

>  <SMR_VSA1>
10.999887

>  <SMR_VSA2>
25.385227

>  <SMR_VSA3>
12.244641

>  <SMR_VSA4>
0

>  <SMR_VSA5>
90.666367

>  <SMR_VSA6>
28.671722

>  <SMR_VSA7>
78.297287

>  <TPSA>
46.529999

>  <VAdjEq>
0.56650949

>  <VAdjMa>
4.9068904

>  <VDistEq>
3.1148229

>  <VDistMa>
7.4587693

>  <vdw_area>
222.10895

>  <vdw_vol>
247.91075

>  <vsa_acc>
2.503756

>  <vsa_acid>
0

>  <vsa_base>
0

>  <vsa_don>
0

>  <vsa_hyd>
177.76285

>  <vsa_other>
14.708499

>  <vsa_pol>
29.637598

>  <Weight>
249.09299

>  <weinerPath>
434

>  <weinerPol>
17

>  <zagreb>
68

$$$$
O=C(OCCC)C1=CC=C(C(OCCC)=O)N=C1
  MOE2011           2D

 18 18  0  0  0  0  0  0  0  0999 V2000
    0.0000    0.0000    0.0000 O   0  0  0  0  0  0  0  0  0  0  0  0
   -0.7590   -1.2940    0.0000 C   0  0  0  0  0  0  0  0  0  0  0  0
   -0.0180   -2.5980    0.0000 O   0  0  0  0  0  0  0  0  0  0  0  0
    1.4820   -2.6090    0.0000 C   0  0  0  0  0  0  0  0  0  0  0  0
    2.2230   -3.9130    0.0000 C   0  0  0  0  0  0  0  0  0  0  0  0
    3.7230   -3.9230    0.0000 C   0  0  0  0  0  0  0  0  0  0  0  0
   -2.2590   -1.2830    0.0000 C   0  0  0  0  0  0  0  0  0  0  0  0
   -3.0180   -2.5770    0.0000 C   0  0  0  0  0  0  0  0  0  0  0  0
   -4.5180   -2.5660    0.0000 C   0  0  0  0  0  0  0  0  0  0  0  0
   -5.2590   -1.2620    0.0000 C   0  0  0  0  0  0  0  0  0  0  0  0
   -6.7590   -1.2520    0.0000 C   0  0  0  0  0  0  0  0  0  0  0  0
   -7.5000    0.0530    0.0000 O   0  0  0  0  0  0  0  0  0  0  0  0
   -9.0000    0.0630    0.0000 C   0  0  0  0  0  0  0  0  0  0  0  0
   -9.7410    1.3670    0.0000 C   0  0  0  0  0  0  0  0  0  0  0  0
  -11.2410    1.3780    0.0000 C   0  0  0  0  0  0  0  0  0  0  0  0
   -7.5180   -2.5450    0.0000 O   0  0  0  0  0  0  0  0  0  0  0  0
   -4.5000    0.0320    0.0000 N   0  0  0  0  0  0  0  0  0  0  0  0
   -3.0000    0.0210    0.0000 C   0  0  0  0  0  0  0  0  0  0  0  0
  1  2  2  0  0  0  0
  2  3  1  0  0  0  0
  2  7  1  0  0  0  0
  3  4  1  0  0  0  0
  4  5  1  0  0  0  0
  5  6  1  0  0  0  0
  7  8  1  0  0  0  0
  7 18  2  0  0  0  0
  8  9  2  0  0  0  0
  9 10  1  0  0  0  0
 10 11  1  0  0  0  0
 10 17  2  0  0  0  0
 11 12  1  0  0  0  0
 11 16  2  0  0  0  0
 12 13  1  0  0  0  0
 13 14  1  0  0  0  0
 14 15  1  0  0  0  0
 17 18  1  0  0  0  0
M  END
>  <DSSTox_RID>
40310

>  <DSSTox_CID>
12544

>  <apol>
38.523479

>  <a_acc>
3

>  <a_acid>
0

>  <a_aro>
6

>  <a_base>
0

>  <a_count>
35

>  <a_don>
0

>  <a_heavy>
18

>  <a_hyd>
11

>  <a_IC>
53.93232

>  <a_ICM>
1.5409235

>  <a_nB>
0

>  <a_nBr>
0

>  <a_nC>
13

>  <a_nCl>
0

>  <a_nF>
0

>  <a_nH>
17

>  <a_nI>
0

>  <a_nN>
1

>  <a_nO>
4

>  <a_nP>
0

>  <a_nS>
0

>  <balabanJ>
2.2389264

>  <BCUT_PEOE_0>
-2.4925137

>  <BCUT_PEOE_1>
-0.34978321

>  <BCUT_PEOE_2>
0.24166591

>  <BCUT_PEOE_3>
2.4715917

>  <BCUT_SLOGP_0>
-2.459481

>  <BCUT_SLOGP_1>
-0.22905907

>  <BCUT_SLOGP_2>
0.29310751

>  <BCUT_SLOGP_3>
2.5383124

>  <BCUT_SMR_0>
-2.2625191

>  <BCUT_SMR_1>
-0.11020946

>  <BCUT_SMR_2>
0.43064016

>  <BCUT_SMR_3>
2.7022815

>  <bpol>
25.652519

>  <b_1rotN>
6

>  <b_1rotR>
0.33333334

>  <b_ar>
6

>  <b_count>
35

>  <b_double>
2

>  <b_heavy>
18

>  <b_rotN>
8

>  <b_rotR>
0.44444445

>  <b_single>
27

>  <b_triple>
0

>  <chi0>
13.380469

>  <chi0v>
10.640685

>  <chi0v_C>
8.5604782

>  <chi0_C>
9.2591486

>  <chi1>
8.68507

>  <chi1v>
5.9892249

>  <chi1v_C>
4.1135721

>  <chi1_C>
4.805625

>  <chiral>
0

>  <chiral_u>
0

>  <density>
0.81091279

>  <diameter>
13

>  <FCharge>
0

>  <GCUT_PEOE_0>
-0.77272737

>  <GCUT_PEOE_1>
-0.37252662

>  <GCUT_PEOE_2>
-0.080127545

>  <GCUT_PEOE_3>
2.2858784

>  <GCUT_SLOGP_0>
-0.8344298

>  <GCUT_SLOGP_1>
-0.2330032

>  <GCUT_SLOGP_2>
-0.018733222

>  <GCUT_SLOGP_3>
2.312279

>  <GCUT_SMR_0>
-0.52375358

>  <GCUT_SMR_1>
-0.14737506

>  <GCUT_SMR_2>
0.052657597

>  <GCUT_SMR_3>
2.5298591

>  <Kier1>
16.055555

>  <Kier2>
8.9917355

>  <Kier3>
5.6804733

>  <KierA1>
12.421511

>  <KierA2>
6.8428521

>  <KierA3>
4.2703958

>  <KierFlex>
4.7221422

>  <lip_acc>
5

>  <lip_don>
0

>  <lip_druglike>
1

>  <lip_violation>
0

>  <logP(o/w)>
2.4260001

>  <logS>
-2.1010799

>  <mr>
6.8817825

>  <mutagenic>
0

>  <nmol>
1

>  <opr_brigid>
6

>  <opr_leadlike>
1

>  <opr_nring>
1

>  <opr_nrot>
6

>  <opr_violation>
0

>  <PC+>
0

>  <PC->
0

>  <PEOE_PC+>
1.3497972

>  <PEOE_PC->
-1.3497972

>  <PEOE_RPC+>
0.23233132

>  <PEOE_RPC->
0.22077961

>  <PEOE_VSA+0>
122.05088

>  <PEOE_VSA+1>
2.2085397

>  <PEOE_VSA+2>
26.999058

>  <PEOE_VSA+3>
44.116947

>  <PEOE_VSA+4>
0

>  <PEOE_VSA+5>
14.708499

>  <PEOE_VSA+6>
14.708499

>  <PEOE_VSA-0>
0

>  <PEOE_VSA-1>
0

>  <PEOE_VSA-2>
0

>  <PEOE_VSA-3>
0

>  <PEOE_VSA-4>
5.6825762

>  <PEOE_VSA-5>
32.141354

>  <PEOE_VSA-6>
0

>  <PEOE_VSA_FHYD>
0.74395758

>  <PEOE_VSA_FNEG>
0.14402732

>  <PEOE_VSA_FPNEG>
0.14402732

>  <PEOE_VSA_FPOL>
0.25604242

>  <PEOE_VSA_FPOS>
0.85597265

>  <PEOE_VSA_FPPOS>
0.11201511

>  <PEOE_VSA_HYD>
195.37543

>  <PEOE_VSA_NEG>
37.823929

>  <PEOE_VSA_PNEG>
37.823929

>  <PEOE_VSA_POL>
67.240929

>  <PEOE_VSA_POS>
224.79242

>  <PEOE_VSA_PPOS>
29.416998

>  <petitjean>
0.46153846

>  <petitjeanSC>
0.85714287

>  <Q_PC+>
0

>  <Q_PC->
0

>  <Q_RPC+>
0

>  <Q_RPC->
0

>  <Q_VSA_FHYD>
1

>  <Q_VSA_FNEG>
0

>  <Q_VSA_FPNEG>
0

>  <Q_VSA_FPOL>
0

>  <Q_VSA_FPOS>
1

>  <Q_VSA_FPPOS>
0

>  <Q_VSA_HYD>
262.61636

>  <Q_VSA_NEG>
0

>  <Q_VSA_PNEG>
0

>  <Q_VSA_POL>
0

>  <Q_VSA_POS>
262.61636

>  <Q_VSA_PPOS>
0

>  <radius>
7

>  <reactive>
0

>  <rings>
1

>  <RPC+>
0

>  <RPC->
0

>  <rsynth>
1

>  <SlogP>
2.2151999

>  <SlogP_VSA0>
0

>  <SlogP_VSA1>
32.276459

>  <SlogP_VSA2>
21.999775

>  <SlogP_VSA3>
41.852516

>  <SlogP_VSA4>
53.666756

>  <SlogP_VSA5>
0

>  <SlogP_VSA6>
0

>  <SlogP_VSA7>
52.500725

>  <SlogP_VSA8>
37.736813

>  <SlogP_VSA9>
66.652031

>  <SMR>
6.5384002

>  <SMR_VSA0>
69.724205

>  <SMR_VSA1>
16.78553

>  <SMR_VSA2>
0

>  <SMR_VSA3>
5.9423227

>  <SMR_VSA4>
0

>  <SMR_VSA5>
90.237534

>  <SMR_VSA6>
57.343445

>  <SMR_VSA7>
66.652031

>  <TPSA>
65.489998

>  <VAdjEq>
0.50325835

>  <VAdjMa>
5.1699252

>  <VDistEq>
3.3660665

>  <VDistMa>
7.9931507

>  <vdw_area>
262.61636

>  <vdw_vol>
288.74374

>  <vsa_acc>
32.816418

>  <vsa_acid>
0

>  <vsa_base>
0

>  <vsa_don>
0

>  <vsa_hyd>
195.37543

>  <vsa_other>
34.424511

>  <vsa_pol>
32.816418

>  <Weight>
251.282

>  <weinerPath>
721

>  <weinerPol>
23

>  <zagreb>
80

$$$$
OC1=C(C=CC=C1)C2=CC=CC=C2
  MOE2011           2D

 13 14  0  0  0  0  0  0  0  0999 V2000
    0.0000    0.0000    0.0000 O   0  0  0  0  0  0  0  0  0  0  0  0
   -0.7530   -1.2970    0.0000 C   0  0  0  0  0  0  0  0  0  0  0  0
   -0.0060   -2.5980    0.0000 C   0  0  0  0  0  0  0  0  0  0  0  0
   -0.7590   -3.8950    0.0000 C   0  0  0  0  0  0  0  0  0  0  0  0
   -2.2590   -3.8920    0.0000 C   0  0  0  0  0  0  0  0  0  0  0  0
   -3.0060   -2.5910    0.0000 C   0  0  0  0  0  0  0  0  0  0  0  0
   -2.2530   -1.2940    0.0000 C   0  0  0  0  0  0  0  0  0  0  0  0
    1.4940   -2.6010    0.0000 C   0  0  0  0  0  0  0  0  0  0  0  0
    2.2410   -3.9020    0.0000 C   0  0  0  0  0  0  0  0  0  0  0  0
    3.7410   -3.9060    0.0000 C   0  0  0  0  0  0  0  0  0  0  0  0
    4.4940   -2.6080    0.0000 C   0  0  0  0  0  0  0  0  0  0  0  0
    3.7470   -1.3080    0.0000 C   0  0  0  0  0  0  0  0  0  0  0  0
    2.2470   -1.3040    0.0000 C   0  0  0  0  0  0  0  0  0  0  0  0
  1  2  1  0  0  0  0
  2  3  1  0  0  0  0
  2  7  2  0  0  0  0
  3  4  2  0  0  0  0
  3  8  1  0  0  0  0
  4  5  1  0  0  0  0
  5  6  2  0  0  0  0
  6  7  1  0  0  0  0
  8  9  1  0  0  0  0
  8 13  2  0  0  0  0
  9 10  2  0  0  0  0
 10 11  1  0  0  0  0
 11 12  2  0  0  0  0
 12 13  1  0  0  0  0
M  END
>  <DSSTox_RID>
40542

>  <DSSTox_CID>
1151

>  <apol>
28.58993

>  <a_acc>
1

>  <a_acid>
0

>  <a_aro>
12

>  <a_base>
0

>  <a_count>
23

>  <a_don>
1

>  <a_heavy>
13

>  <a_hyd>
12

>  <a_IC>
27.803095

>  <a_ICM>
1.2088301

>  <a_nB>
0

>  <a_nBr>
0

>  <a_nC>
12

>  <a_nCl>
0

>  <a_nF>
0

>  <a_nH>
10

>  <a_nI>
0

>  <a_nN>
0

>  <a_nO>
1

>  <a_nP>
0

>  <a_nS>
0

>  <balabanJ>
1.9125617

>  <BCUT_PEOE_0>
-2.2486157

>  <BCUT_PEOE_1>
-0.62864399

>  <BCUT_PEOE_2>
0.67950863

>  <BCUT_PEOE_3>
2.202544

>  <BCUT_SLOGP_0>
-2.0309324

>  <BCUT_SLOGP_1>
-0.51454133

>  <BCUT_SLOGP_2>
0.79151452

>  <BCUT_SLOGP_3>
2.4415579

>  <BCUT_SMR_0>
-1.9054428

>  <BCUT_SMR_1>
-0.47668764

>  <BCUT_SMR_2>
0.84183866

>  <BCUT_SMR_3>
2.5511248

>  <bpol>
10.93207

>  <b_1rotN>
1

>  <b_1rotR>
0.071428575

>  <b_ar>
12

>  <b_count>
24

>  <b_double>
0

>  <b_heavy>
14

>  <b_rotN>
1

>  <b_rotR>
0.071428575

>  <b_single>
12

>  <b_triple>
0

>  <chi0>
9.0960121

>  <chi0v>
7.1433659

>  <chi0v_C>
6.6961522

>  <chi0_C>
8.0960121

>  <chi1>
6.3770099

>  <chi1v>
4.2116408

>  <chi1v_C>
3.9880338

>  <chi1_C>
5.7996597

>  <chiral>
0

>  <chiral_u>
0

>  <density>
0.72321385

>  <diameter>
7

>  <FCharge>
0

>  <GCUT_PEOE_0>
-0.76211107

>  <GCUT_PEOE_1>
-0.38514331

>  <GCUT_PEOE_2>
0.074080586

>  <GCUT_PEOE_3>
2.2100081

>  <GCUT_SLOGP_0>
-0.76178282

>  <GCUT_SLOGP_1>
-0.25460759

>  <GCUT_SLOGP_2>
0.15841147

>  <GCUT_SLOGP_3>
2.4204686

>  <GCUT_SMR_0>
-0.42753857

>  <GCUT_SMR_1>
-0.20747201

>  <GCUT_SMR_2>
0.18697765

>  <GCUT_SMR_3>
2.5310121

>  <Kier1>
9.5510206

>  <Kier2>
4.4814816

>  <Kier3>
2.2684309

>  <KierA1>
6.3616672

>  <KierA2>
2.8714383

>  <KierA3>
1.40582

>  <KierFlex>
1.4051642

>  <lip_acc>
1

>  <lip_don>
1

>  <lip_druglike>
1

>  <lip_violation>
0

>  <logP(o/w)>
3.556

>  <logS>
-3.4493101

>  <mr>
5.383184

>  <mutagenic>
0

>  <nmol>
1

>  <opr_brigid>
12

>  <opr_leadlike>
1

>  <opr_nring>
2

>  <opr_nrot>
1

>  <opr_violation>
0

>  <PC+>
0

>  <PC->
0

>  <PEOE_PC+>
0.18995523

>  <PEOE_PC->
-0.18995523

>  <PEOE_RPC+>
0.6887123

>  <PEOE_RPC->
1

>  <PEOE_VSA+0>
146.69353

>  <PEOE_VSA+1>
0

>  <PEOE_VSA+2>
8.458519

>  <PEOE_VSA+3>
0

>  <PEOE_VSA+4>
0

>  <PEOE_VSA+5>
0

>  <PEOE_VSA+6>
0

>  <PEOE_VSA-0>
0

>  <PEOE_VSA-1>
0

>  <PEOE_VSA-2>
0

>  <PEOE_VSA-3>
13.566921

>  <PEOE_VSA-4>
0

>  <PEOE_VSA-5>
0

>  <PEOE_VSA-6>
0

>  <PEOE_VSA_FHYD>
1

>  <PEOE_VSA_FNEG>
0.080411352

>  <PEOE_VSA_FPNEG>
0

>  <PEOE_VSA_FPOL>
0

>  <PEOE_VSA_FPOS>
0.91958863

>  <PEOE_VSA_FPPOS>
0

>  <PEOE_VSA_HYD>
168.71896

>  <PEOE_VSA_NEG>
13.566921

>  <PEOE_VSA_PNEG>
0

>  <PEOE_VSA_POL>
0

>  <PEOE_VSA_POS>
155.15205

>  <PEOE_VSA_PPOS>
0

>  <petitjean>
0.42857143

>  <petitjeanSC>
0.75

>  <Q_PC+>
0

>  <Q_PC->
0

>  <Q_RPC+>
0

>  <Q_RPC->
0

>  <Q_VSA_FHYD>
1

>  <Q_VSA_FNEG>
0

>  <Q_VSA_FPNEG>
0

>  <Q_VSA_FPOL>
0

>  <Q_VSA_FPOS>
1

>  <Q_VSA_FPPOS>
0

>  <Q_VSA_HYD>
168.71896

>  <Q_VSA_NEG>
0

>  <Q_VSA_PNEG>
0

>  <Q_VSA_POL>
0

>  <Q_VSA_POS>
168.71896

>  <Q_VSA_PPOS>
0

>  <radius>
4

>  <reactive>
0

>  <rings>
2

>  <RPC+>
0

>  <RPC->
0

>  <rsynth>
1

>  <SlogP>
3.0592

>  <SlogP_VSA0>
25.385227

>  <SlogP_VSA1>
0

>  <SlogP_VSA2>
0

>  <SlogP_VSA3>
0

>  <SlogP_VSA4>
0

>  <SlogP_VSA5>
0

>  <SlogP_VSA6>
0

>  <SlogP_VSA7>
165.15981

>  <SlogP_VSA8>
0

>  <SlogP_VSA9>
5.2434282

>  <SMR>
5.35428

>  <SMR_VSA0>
0

>  <SMR_VSA1>
25.385227

>  <SMR_VSA2>
0

>  <SMR_VSA3>
5.2434282

>  <SMR_VSA4>
6.37115

>  <SMR_VSA5>
158.78867

>  <SMR_VSA6>
0

>  <SMR_VSA7>
0

>  <TPSA>
20.23

>  <VAdjEq>
0.64772749

>  <VAdjMa>
4.8073549

>  <VDistEq>
2.5574133

>  <VDistMa>
7.0980163

>  <vdw_area>
168.71896

>  <vdw_vol>
221.41583

>  <vsa_acc>
0

>  <vsa_acid>
0

>  <vsa_base>
0

>  <vsa_don>
0

>  <vsa_hyd>
155.15205

>  <vsa_other>
0

>  <vsa_pol>
13.566921

>  <Weight>
170.211

>  <weinerPath>
240

>  <weinerPol>
17

>  <zagreb>
64

$$$$
O=C(NCCCC)OCC#CI
  MOE2011           2D

 12 11  0  0  0  0  0  0  0  0999 V2000
    0.0000    0.0000    0.0000 O   0  0  0  0  0  0  0  0  0  0  0  0
   -0.7420   -1.3040    0.0000 C   0  0  0  0  0  0  0  0  0  0  0  0
    0.0170   -2.5980    0.0000 N   0  0  0  0  0  0  0  0  0  0  0  0
    1.5170   -2.5880    0.0000 C   0  0  0  0  0  0  0  0  0  0  0  0
    2.2750   -3.8820    0.0000 C   0  0  0  0  0  0  0  0  0  0  0  0
    3.7750   -3.8730    0.0000 C   0  0  0  0  0  0  0  0  0  0  0  0
    4.5340   -5.1670    0.0000 C   0  0  0  0  0  0  0  0  0  0  0  0
   -2.2420   -1.3140    0.0000 O   0  0  0  0  0  0  0  0  0  0  0  0
   -3.0000   -0.0200    0.0000 C   0  0  0  0  0  0  0  0  0  0  0  0
   -4.5000   -0.0290    0.0000 C   0  0  0  0  0  0  0  0  0  0  0  0
   -6.0000   -0.0390    0.0000 C   0  0  0  0  0  0  0  0  0  0  0  0
   -7.5000   -0.0490    0.0000 I   0  0  0  0  0  0  0  0  0  0  0  0
  1  2  2  0  0  0  0
  2  3  1  0  0  0  0
  2  8  1  0  0  0  0
  3  4  1  0  0  0  0
  4  5  1  0  0  0  0
  5  6  1  0  0  0  0
  6  7  1  0  0  0  0
  8  9  1  0  0  0  0
  9 10  1  0  0  0  0
 10 11  3  0  0  0  0
 11 12  1  0  0  0  0
M  END
>  <DSSTox_RID>
40375

>  <DSSTox_CID>
8038

>  <apol>
30.135515

>  <a_acc>
1

>  <a_acid>
0

>  <a_aro>
0

>  <a_base>
0

>  <a_count>
24

>  <a_don>
1

>  <a_heavy>
12

>  <a_hyd>
8

>  <a_IC>
41.01955

>  <a_ICM>
1.7091479

>  <a_nB>
0

>  <a_nBr>
0

>  <a_nC>
8

>  <a_nCl>
0

>  <a_nF>
0

>  <a_nH>
12

>  <a_nI>
1

>  <a_nN>
1

>  <a_nO>
2

>  <a_nP>
0

>  <a_nS>
0

>  <balabanJ>
3.0586755

>  <BCUT_PEOE_0>
-2.5975988

>  <BCUT_PEOE_1>
-0.35113329

>  <BCUT_PEOE_2>
0.25370604

>  <BCUT_PEOE_3>
2.5404572

>  <BCUT_SLOGP_0>
-2.6494579

>  <BCUT_SLOGP_1>
-0.11481021

>  <BCUT_SLOGP_2>
0.39545208

>  <BCUT_SLOGP_3>
2.6346335

>  <BCUT_SMR_0>
-2.3457236

>  <BCUT_SMR_1>
-0.090911478

>  <BCUT_SMR_2>
0.57351983

>  <BCUT_SMR_3>
2.7908962

>  <bpol>
20.242483

>  <b_1rotN>
5

>  <b_1rotR>
0.45454547

>  <b_ar>
0

>  <b_count>
23

>  <b_double>
1

>  <b_heavy>
11

>  <b_rotN>
7

>  <b_rotR>
0.63636363

>  <b_single>
21

>  <b_triple>
1

>  <chi0>
9.2342043

>  <chi0v>
9.1803865

>  <chi0v_C>
5.3284273

>  <chi0_C>
5.8199911

>  <chi1>
5.8080606

>  <chi1v>
4.8788686

>  <chi1v_C>
2.3106601

>  <chi1_C>
2.7071068

>  <chiral>
0

>  <chiral_u>
0

>  <density>
1.2123797

>  <diameter>
10

>  <FCharge>
0

>  <GCUT_PEOE_0>
-0.82095957

>  <GCUT_PEOE_1>
-0.3976787

>  <GCUT_PEOE_2>
-0.013985449

>  <GCUT_PEOE_3>
2.1541476

>  <GCUT_SLOGP_0>
-1.1607296

>  <GCUT_SLOGP_1>
-0.16950811

>  <GCUT_SLOGP_2>
0.11585158

>  <GCUT_SLOGP_3>
2.1914363

>  <GCUT_SMR_0>
-0.52773112

>  <GCUT_SMR_1>
-0.11046593

>  <GCUT_SMR_2>
0.22621505

>  <GCUT_SMR_3>
2.3877821

>  <Kier1>
12

>  <Kier2>
9.090909

>  <Kier3>
9

>  <KierA1>
12.47978

>  <KierA2>
9.4901934

>  <KierA3>
9.4231615

>  <KierFlex>
9.869627

>  <lip_acc>
3

>  <lip_don>
1

>  <lip_druglike>
1

>  <lip_violation>
0

>  <logP(o/w)>
3.323

>  <logS>
-3.6766

>  <mr>
5.8143301

>  <mutagenic>
0

>  <nmol>
1

>  <opr_brigid>
1

>  <opr_leadlike>
1

>  <opr_nring>
0

>  <opr_nrot>
5

>  <opr_violation>
0

>  <PC+>
0

>  <PC->
0

>  <PEOE_PC+>
0.79169077

>  <PEOE_PC->
-0.79169077

>  <PEOE_RPC+>
0.48560691

>  <PEOE_RPC->
0.33950505

>  <PEOE_VSA+0>
108.01545

>  <PEOE_VSA+1>
0

>  <PEOE_VSA+2>
20.299505

>  <PEOE_VSA+3>
0

>  <PEOE_VSA+4>
22.058474

>  <PEOE_VSA+5>
0

>  <PEOE_VSA+6>
19.199511

>  <PEOE_VSA-0>
32.448544

>  <PEOE_VSA-1>
0

>  <PEOE_VSA-2>
0

>  <PEOE_VSA-3>
0

>  <PEOE_VSA-4>
19.249496

>  <PEOE_VSA-5>
2.503756

>  <PEOE_VSA-6>
0

>  <PEOE_VSA_FHYD>
0.71841669

>  <PEOE_VSA_FNEG>
0.24221589

>  <PEOE_VSA_FPNEG>
0.097210497

>  <PEOE_VSA_FPOL>
0.28158334

>  <PEOE_VSA_FPOS>
0.75778413

>  <PEOE_VSA_FPPOS>
0.18437284

>  <PEOE_VSA_HYD>
160.7635

>  <PEOE_VSA_NEG>
54.201797

>  <PEOE_VSA_PNEG>
21.753254

>  <PEOE_VSA_POL>
63.011238

>  <PEOE_VSA_POS>
169.57294

>  <PEOE_VSA_PPOS>
41.257984

>  <petitjean>
0.5

>  <petitjeanSC>
1

>  <Q_PC+>
0

>  <Q_PC->
0

>  <Q_RPC+>
0

>  <Q_RPC->
0

>  <Q_VSA_FHYD>
1

>  <Q_VSA_FNEG>
0

>  <Q_VSA_FPNEG>
0

>  <Q_VSA_FPOL>
0

>  <Q_VSA_FPOS>
1

>  <Q_VSA_FPPOS>
0

>  <Q_VSA_HYD>
223.77473

>  <Q_VSA_NEG>
0

>  <Q_VSA_PNEG>
0

>  <Q_VSA_POL>
0

>  <Q_VSA_POS>
223.77473

>  <Q_VSA_PPOS>
0

>  <radius>
5

>  <reactive>
0

>  <rings>
0

>  <RPC+>
0

>  <RPC->
0

>  <rsynth>
1

>  <SlogP>
1.908608

>  <SlogP_VSA0>
18.01075

>  <SlogP_VSA1>
7.3166366

>  <SlogP_VSA2>
10.999887

>  <SlogP_VSA3>
71.901054

>  <SlogP_VSA4>
0

>  <SlogP_VSA5>
0

>  <SlogP_VSA6>
0

>  <SlogP_VSA7>
0

>  <SlogP_VSA8>
37.736813

>  <SlogP_VSA9>
113.97024

>  <SMR>
5.6054702

>  <SMR_VSA0>
34.862103

>  <SMR_VSA1>
0

>  <SMR_VSA2>
18.01075

>  <SMR_VSA3>
32.535217

>  <SMR_VSA4>
0

>  <SMR_VSA5>
37.736813

>  <SMR_VSA6>
46.682472

>  <SMR_VSA7>
90.108025

>  <TPSA>
38.330002

>  <VAdjEq>
0.61674827

>  <VAdjMa>
4.4594316

>  <VDistEq>
3.0707202

>  <VDistMa>
6.7908244

>  <vdw_area>
223.77473

>  <vdw_vol>
221.87521

>  <vsa_acc>
13.566921

>  <vsa_acid>
0

>  <vsa_base>
0

>  <vsa_don>
5.6825762

>  <vsa_hyd>
182.82198

>  <vsa_other>
21.703266

>  <vsa_pol>
19.249496

>  <Weight>
281.09299

>  <weinerPath>
261

>  <weinerPol>
10

>  <zagreb>
44

$$$$
ClCC(=O)N(COCC)c1c(C)cccc1CC
  MOE2011           2D

 18 18  0  0  0  0  0  0  0  0999 V2000
    0.0000    0.0000    0.0000 Cl  0  0  0  0  0  0  0  0  0  0  0  0
   -0.7480   -1.3000    0.0000 C   0  0  0  0  0  0  0  0  0  0  0  0
   -2.2480   -1.3020    0.0000 C   0  0  0  0  0  0  0  0  0  0  0  0
   -3.0000   -0.0040    0.0000 O   0  0  0  0  0  0  0  0  0  0  0  0
   -2.9960   -2.6020    0.0000 N   0  0  0  0  0  0  0  0  0  0  0  0
   -2.2450   -3.9000    0.0000 C   0  0  0  0  0  0  0  0  0  0  0  0
   -0.7450   -3.8980    0.0000 O   0  0  0  0  0  0  0  0  0  0  0  0
    0.0070   -5.1960    0.0000 C   0  0  0  0  0  0  0  0  0  0  0  0
    1.5070   -5.1940    0.0000 C   0  0  0  0  0  0  0  0  0  0  0  0
   -4.4960   -2.6040    0.0000 C   0  0  0  0  0  0  0  0  0  0  0  0
   -5.2480   -1.3060    0.0000 C   0  0  0  0  0  0  0  0  0  0  0  0
   -4.5000   -0.0060    0.0000 C   0  0  0  0  0  0  0  0  0  0  0  0
   -6.7480   -1.3080    0.0000 C   0  0  0  0  0  0  0  0  0  0  0  0
   -7.4960   -2.6080    0.0000 C   0  0  0  0  0  0  0  0  0  0  0  0
   -6.7450   -3.9060    0.0000 C   0  0  0  0  0  0  0  0  0  0  0  0
   -5.2450   -3.9040    0.0000 C   0  0  0  0  0  0  0  0  0  0  0  0
   -4.4930   -5.2020    0.0000 C   0  0  0  0  0  0  0  0  0  0  0  0
   -5.2410   -6.5020    0.0000 C   0  0  0  0  0  0  0  0  0  0  0  0
  1  2  1  0  0  0  0
  2  3  1  0  0  0  0
  3  4  2  0  0  0  0
  3  5  1  0  0  0  0
  5  6  1  0  0  0  0
  5 10  1  0  0  0  0
  6  7  1  0  0  0  0
  7  8  1  0  0  0  0
  8  9  1  0  0  0  0
 10 11  1  0  0  0  0
 10 16  2  0  0  0  0
 11 12  1  0  0  0  0
 11 13  2  0  0  0  0
 13 14  1  0  0  0  0
 14 15  2  0  0  0  0
 15 16  1  0  0  0  0
 16 17  1  0  0  0  0
 17 18  1  0  0  0  0
M  END
>  <DSSTox_RID>
40337

>  <DSSTox_CID>
3848

>  <apol>
42.859859

>  <a_acc>
2

>  <a_acid>
0

>  <a_aro>
6

>  <a_base>
0

>  <a_count>
38

>  <a_don>
0

>  <a_heavy>
18

>  <a_hyd>
13

>  <a_IC>
57.679714

>  <a_ICM>
1.5178872

>  <a_nB>
0

>  <a_nBr>
0

>  <a_nC>
14

>  <a_nCl>
1

>  <a_nF>
0

>  <a_nH>
20

>  <a_nI>
0

>  <a_nN>
1

>  <a_nO>
2

>  <a_nP>
0

>  <a_nS>
0

>  <balabanJ>
2.7894406

>  <BCUT_PEOE_0>
-2.5230315

>  <BCUT_PEOE_1>
-0.15960364

>  <BCUT_PEOE_2>
0.071973048

>  <BCUT_PEOE_3>
2.4769027

>  <BCUT_SLOGP_0>
-2.5969281

>  <BCUT_SLOGP_1>
-0.048486196

>  <BCUT_SLOGP_2>
0.34173098

>  <BCUT_SLOGP_3>
2.5391045

>  <BCUT_SMR_0>
-2.2405508

>  <BCUT_SMR_1>
0.1057

>  <BCUT_SMR_2>
0.35272506

>  <BCUT_SMR_3>
2.7712421

>  <bpol>
27.13814

>  <b_1rotN>
7

>  <b_1rotR>
0.3888889

>  <b_ar>
6

>  <b_count>
38

>  <b_double>
1

>  <b_heavy>
18

>  <b_rotN>
7

>  <b_rotR>
0.3888889

>  <b_single>
31

>  <b_triple>
0

>  <chi0>
13.543606

>  <chi0v>
11.958081

>  <chi0v_C>
9.5604782

>  <chi0_C>
10.259149

>  <chi1>
8.6505957

>  <chi1v>
6.7120366

>  <chi1v_C>
4.3653374

>  <chi1_C>
5.2912235

>  <chiral>
0

>  <chiral_u>
0

>  <density>
0.80264866

>  <diameter>
8

>  <FCharge>
0

>  <GCUT_PEOE_0>
-0.80997008

>  <GCUT_PEOE_1>
-0.31089178

>  <GCUT_PEOE_2>
-0.088026956

>  <GCUT_PEOE_3>
2.5338261

>  <GCUT_SLOGP_0>
-1.001412

>  <GCUT_SLOGP_1>
-0.19050306

>  <GCUT_SLOGP_2>
0.031597529

>  <GCUT_SLOGP_3>
2.6180086

>  <GCUT_SMR_0>
-0.51814759

>  <GCUT_SMR_1>
-0.087461248

>  <GCUT_SMR_2>
0.10040666

>  <GCUT_SMR_3>
2.814616

>  <Kier1>
16.055555

>  <Kier2>
8.2268429

>  <Kier3>
4.2666669

>  <KierA1>
13.946888

>  <KierA2>
7.0833755

>  <KierA3>
3.649631

>  <KierFlex>
5.4883914

>  <lip_acc>
3

>  <lip_don>
0

>  <lip_druglike>
1

>  <lip_violation>
0

>  <logP(o/w)>
3.2579999

>  <logS>
-3.2577701

>  <mr>
7.5812345

>  <mutagenic>
1

>  <nmol>
1

>  <opr_brigid>
6

>  <opr_leadlike>
1

>  <opr_nring>
1

>  <opr_nrot>
6

>  <opr_violation>
0

>  <PC+>
0

>  <PC->
0

>  <PEOE_PC+>
0.99732786

>  <PEOE_PC->
-0.99732786

>  <PEOE_RPC+>
0.25861695

>  <PEOE_RPC->
0.33302003

>  <PEOE_VSA+0>
104.03384

>  <PEOE_VSA+1>
6.6995511

>  <PEOE_VSA+2>
22.058474

>  <PEOE_VSA+3>
18.119701

>  <PEOE_VSA+4>
0

>  <PEOE_VSA+5>
39.499016

>  <PEOE_VSA+6>
0

>  <PEOE_VSA-0>
51.842564

>  <PEOE_VSA-1>
0

>  <PEOE_VSA-2>
29.581947

>  <PEOE_VSA-3>
0

>  <PEOE_VSA-4>
0

>  <PEOE_VSA-5>
13.566921

>  <PEOE_VSA-6>
2.503756

>  <PEOE_VSA_FHYD>
0.80698651

>  <PEOE_VSA_FNEG>
0.33863574

>  <PEOE_VSA_FPNEG>
0.055819225

>  <PEOE_VSA_FPOL>
0.19301347

>  <PEOE_VSA_FPOS>
0.66136426

>  <PEOE_VSA_FPPOS>
0.13719425

>  <PEOE_VSA_HYD>
232.33607

>  <PEOE_VSA_NEG>
97.495186

>  <PEOE_VSA_PNEG>
16.070677

>  <PEOE_VSA_POL>
55.569695

>  <PEOE_VSA_POS>
190.41058

>  <PEOE_VSA_PPOS>
39.499016

>  <petitjean>
0.5

>  <petitjeanSC>
1

>  <Q_PC+>
0

>  <Q_PC->
0

>  <Q_RPC+>
0

>  <Q_RPC->
0

>  <Q_VSA_FHYD>
1

>  <Q_VSA_FNEG>
0

>  <Q_VSA_FPNEG>
0

>  <Q_VSA_FPOL>
0

>  <Q_VSA_FPOS>
1

>  <Q_VSA_FPPOS>
0

>  <Q_VSA_HYD>
287.90576

>  <Q_VSA_NEG>
0

>  <Q_VSA_PNEG>
0

>  <Q_VSA_POL>
0

>  <Q_VSA_POS>
287.90576

>  <Q_VSA_PPOS>
0

>  <radius>
4

>  <reactive>
1

>  <rings>
1

>  <RPC+>
0

>  <RPC->
0

>  <rsynth>
1

>  <SlogP>
3.1231899

>  <SlogP_VSA0>
3.1243138

>  <SlogP_VSA1>
5.2587838

>  <SlogP_VSA2>
34.862103

>  <SlogP_VSA3>
60.607128

>  <SlogP_VSA4>
6.37115

>  <SlogP_VSA5>
18.868406

>  <SlogP_VSA6>
0

>  <SlogP_VSA7>
52.929554

>  <SlogP_VSA8>
0

>  <SlogP_VSA9>
141.88344

>  <SMR>
7.5256

>  <SMR_VSA0>
34.862103

>  <SMR_VSA1>
0

>  <SMR_VSA2>
3.1243138

>  <SMR_VSA3>
6.37115

>  <SMR_VSA4>
2.7567475

>  <SMR_VSA5>
71.797958

>  <SMR_VSA6>
65.865913

>  <SMR_VSA7>
139.12669

>  <TPSA>
29.540001

>  <VAdjEq>
0.50325835

>  <VAdjMa>
5.1699252

>  <VDistEq>
2.8017645

>  <VDistMa>
8.0873499

>  <vdw_area>
287.90576

>  <vdw_vol>
310.98538

>  <vsa_acc>
16.070677

>  <vsa_acid>
0

>  <vsa_base>
0

>  <vsa_don>
0

>  <vsa_hyd>
232.33607

>  <vsa_other>
39.499016

>  <vsa_pol>
16.070677

>  <Weight>
269.772

>  <weinerPath>
585

>  <weinerPol>
27

>  <zagreb>
82

$$$$
O=C(SC)C1=CC=CC2=C1SN=N2
  MOE2011           2D

 13 14  0  0  0  0  0  0  0  0999 V2000
    0.0000    0.0000    0.0000 O   0  0  0  0  0  0  0  0  0  0  0  0
   -0.7500   -1.2990    0.0000 C   0  0  0  0  0  0  0  0  0  0  0  0
    0.0010   -2.5980    0.0000 S   0  0  0  0  0  0  0  0  0  0  0  0
    1.5010   -2.5980    0.0000 C   0  0  0  0  0  0  0  0  0  0  0  0
   -2.2500   -1.3000    0.0000 C   0  0  0  0  0  0  0  0  0  0  0  0
   -2.9990   -2.5990    0.0000 C   0  0  0  0  0  0  0  0  0  0  0  0
   -4.4990   -2.5990    0.0000 C   0  0  0  0  0  0  0  0  0  0  0  0
   -5.2500   -1.3000    0.0000 C   0  0  0  0  0  0  0  0  0  0  0  0
   -4.5000   -0.0010    0.0000 C   0  0  0  0  0  0  0  0  0  0  0  0
   -3.0000   -0.0010    0.0000 C   0  0  0  0  0  0  0  0  0  0  0  0
   -2.5370    1.4260    0.0000 S   0  0  0  0  0  0  0  0  0  0  0  0
   -3.7510    2.3070    0.0000 N   0  0  0  0  0  0  0  0  0  0  0  0
   -4.9640    1.4250    0.0000 N   0  0  0  0  0  0  0  0  0  0  0  0
  1  2  2  0  0  0  0
  2  3  1  0  0  0  0
  2  5  1  0  0  0  0
  3  4  1  0  0  0  0
  5  6  1  0  0  0  0
  5 10  2  0  0  0  0
  6  7  2  0  0  0  0
  7  8  1  0  0  0  0
  8  9  2  0  0  0  0
  9 10  1  0  0  0  0
  9 13  1  0  0  0  0
 10 11  1  0  0  0  0
 11 12  1  0  0  0  0
 12 13  2  0  0  0  0
M  END
>  <DSSTox_RID>
40294

>  <DSSTox_CID>
12519

>  <apol>
26.882757

>  <a_acc>
3

>  <a_acid>
0

>  <a_aro>
9

>  <a_base>
0

>  <a_count>
19

>  <a_don>
0

>  <a_heavy>
13

>  <a_hyd>
8

>  <a_IC>
37.200848

>  <a_ICM>
1.9579394

>  <a_nB>
0

>  <a_nBr>
0

>  <a_nC>
8

>  <a_nCl>
0

>  <a_nF>
0

>  <a_nH>
6

>  <a_nI>
0

>  <a_nN>
2

>  <a_nO>
1

>  <a_nP>
0

>  <a_nS>
2

>  <balabanJ>
2.0354941

>  <BCUT_PEOE_0>
-2.1810195

>  <BCUT_PEOE_1>
-0.54817587

>  <BCUT_PEOE_2>
0.55101609

>  <BCUT_PEOE_3>
2.2265086

>  <BCUT_SLOGP_0>
-2.1340232

>  <BCUT_SLOGP_1>
-0.44406274

>  <BCUT_SLOGP_2>
0.61052275

>  <BCUT_SLOGP_3>
2.3475602

>  <BCUT_SMR_0>
-1.8469373

>  <BCUT_SMR_1>
-0.40376467

>  <BCUT_SMR_2>
0.89583665

>  <BCUT_SMR_3>
2.6077189

>  <bpol>
13.397242

>  <b_1rotN>
1

>  <b_1rotR>
0.071428575

>  <b_ar>
10

>  <b_count>
20

>  <b_double>
1

>  <b_heavy>
14

>  <b_rotN>
2

>  <b_rotR>
0.14285715

>  <b_single>
9

>  <b_triple>
0

>  <chi0>
9.2591486

>  <chi0v>
8.4842157

>  <chi0v_C>
4.7320509

>  <chi0_C>
5.4307213

>  <chi1>
6.3256984

>  <chi1v>
5.6189604

>  <chi1v_C>
1.9940169

>  <chi1_C>
2.8164966

>  <chiral>
0

>  <chiral_u>
0

>  <density>
0.94716018

>  <diameter>
6

>  <FCharge>
0

>  <GCUT_PEOE_0>
-0.74363554

>  <GCUT_PEOE_1>
-0.35636744

>  <GCUT_PEOE_2>
0.013535543

>  <GCUT_PEOE_3>
2.1013649

>  <GCUT_SLOGP_0>
-0.84147674

>  <GCUT_SLOGP_1>
-0.23662835

>  <GCUT_SLOGP_2>
0.14385845

>  <GCUT_SLOGP_3>
2.2518096

>  <GCUT_SMR_0>
-0.44388992

>  <GCUT_SMR_1>
-0.17211756

>  <GCUT_SMR_2>
0.32545289

>  <GCUT_SMR_3>
2.458967

>  <Kier1>
9.5510206

>  <Kier2>
4.0221605

>  <Kier3>
1.7751479

>  <KierA1>
8.6067991

>  <KierA2>
3.5906467

>  <KierA3>
1.5721459

>  <KierFlex>
2.377229

>  <lip_acc>
3

>  <lip_don>
0

>  <lip_druglike>
1

>  <lip_violation>
0

>  <logP(o/w)>
2.615

>  <logS>
-3.24738

>  <mr>
5.6165252

>  <mutagenic>
0

>  <nmol>
1

>  <opr_brigid>
10

>  <opr_leadlike>
1

>  <opr_nring>
2

>  <opr_nrot>
2

>  <opr_violation>
0

>  <PC+>
0

>  <PC->
0

>  <PEOE_PC+>
0.72492665

>  <PEOE_PC->
-0.72492665

>  <PEOE_RPC+>
0.37716621

>  <PEOE_RPC->
0.3858543

>  <PEOE_VSA+0>
49.634022

>  <PEOE_VSA+1>
38.084061

>  <PEOE_VSA+2>
0

>  <PEOE_VSA+3>
0

>  <PEOE_VSA+4>
10.434581

>  <PEOE_VSA+5>
23.353428

>  <PEOE_VSA+6>
0

>  <PEOE_VSA-0>
4.1846013

>  <PEOE_VSA-1>
19.760618

>  <PEOE_VSA-2>
0

>  <PEOE_VSA-3>
9.4210396

>  <PEOE_VSA-4>
11.81367

>  <PEOE_VSA-5>
13.566921

>  <PEOE_VSA-6>
0

>  <PEOE_VSA_FHYD>
0.67174685

>  <PEOE_VSA_FNEG>
0.3259134

>  <PEOE_VSA_FPNEG>
0.14080542

>  <PEOE_VSA_FPOL>
0.32825315

>  <PEOE_VSA_FPOS>
0.67408663

>  <PEOE_VSA_FPPOS>
0.18744774

>  <PEOE_VSA_HYD>
121.08434

>  <PEOE_VSA_NEG>
58.746849

>  <PEOE_VSA_PNEG>
25.38059

>  <PEOE_VSA_POL>
59.168598

>  <PEOE_VSA_POS>
121.5061

>  <PEOE_VSA_PPOS>
33.78801

>  <petitjean>
0.5

>  <petitjeanSC>
1

>  <Q_PC+>
0

>  <Q_PC->
0

>  <Q_RPC+>
0

>  <Q_RPC->
0

>  <Q_VSA_FHYD>
1

>  <Q_VSA_FNEG>
0

>  <Q_VSA_FPNEG>
0

>  <Q_VSA_FPOL>
0

>  <Q_VSA_FPOS>
1

>  <Q_VSA_FPPOS>
0

>  <Q_VSA_HYD>
180.25294

>  <Q_VSA_NEG>
0

>  <Q_VSA_PNEG>
0

>  <Q_VSA_POL>
0

>  <Q_VSA_POS>
180.25294

>  <Q_VSA_PPOS>
0

>  <radius>
3

>  <reactive>
0

>  <rings>
2

>  <RPC+>
0

>  <RPC->
0

>  <rsynth>
0.15384616

>  <SlogP>
2.1945

>  <SlogP_VSA0>
0

>  <SlogP_VSA1>
35.569279

>  <SlogP_VSA2>
0

>  <SlogP_VSA3>
0

>  <SlogP_VSA4>
27.047791

>  <SlogP_VSA5>
31.691174

>  <SlogP_VSA6>
0

>  <SlogP_VSA7>
55.819481

>  <SlogP_VSA8>
0

>  <SlogP_VSA9>
63.271503

>  <SMR>
5.5261502

>  <SMR_VSA0>
23.862217

>  <SMR_VSA1>
31.516508

>  <SMR_VSA2>
0

>  <SMR_VSA3>
3.185575

>  <SMR_VSA4>
2.8899276

>  <SMR_VSA5>
52.929554

>  <SMR_VSA6>
4.0527701

>  <SMR_VSA7>
94.962677

>  <TPSA>
42.849998

>  <VAdjEq>
0.64772749

>  <VAdjMa>
4.8073549

>  <VDistEq>
2.4269431

>  <VDistMa>
7.1160421

>  <vdw_area>
180.25294

>  <vdw_vol>
215.62668

>  <vsa_acc>
34.801632

>  <vsa_acid>
0

>  <vsa_base>
0

>  <vsa_don>
0

>  <vsa_hyd>
111.66331

>  <vsa_other>
33.78801

>  <vsa_pol>
34.801632

>  <Weight>
210.28101

>  <weinerPath>
229

>  <weinerPol>
18

>  <zagreb>
66

$$$$
OC(=O)C1=C(C=CC(=C1)OC2=CC=C(C=C2Cl)C(F)(F)F)[N+](=O)[O-]
  MOE2011           2D

 24 25  0  0  0  0  0  0  0  0999 V2000
    0.0000    0.0000    0.0000 O   0  0  0  0  0  0  0  0  0  0  0  0
    0.7430   -1.3030    0.0000 C   0  0  0  0  0  0  0  0  0  0  0  0
   -0.0130   -2.5980    0.0000 O   0  0  0  0  0  0  0  0  0  0  0  0
    2.2430   -1.3110    0.0000 C   0  0  0  0  0  0  0  0  0  0  0  0
    2.9870   -2.6130    0.0000 C   0  0  0  0  0  0  0  0  0  0  0  0
    4.4870   -2.6210    0.0000 C   0  0  0  0  0  0  0  0  0  0  0  0
    5.2430   -1.3260    0.0000 C   0  0  0  0  0  0  0  0  0  0  0  0
    4.5000   -0.0230    0.0000 C   0  0  0  0  0  0  0  0  0  0  0  0
    3.0000   -0.0150    0.0000 C   0  0  0  0  0  0  0  0  0  0  0  0
    5.2570    1.2720    0.0000 O   0  0  0  0  0  0  0  0  0  0  0  0
    6.7570    1.2640    0.0000 C   0  0  0  0  0  0  0  0  0  0  0  0
    7.5000   -0.0380    0.0000 C   0  0  0  0  0  0  0  0  0  0  0  0
    9.0000   -0.0460    0.0000 C   0  0  0  0  0  0  0  0  0  0  0  0
    9.7570    1.2490    0.0000 C   0  0  0  0  0  0  0  0  0  0  0  0
    9.0130    2.5520    0.0000 C   0  0  0  0  0  0  0  0  0  0  0  0
    7.5130    2.5600    0.0000 C   0  0  0  0  0  0  0  0  0  0  0  0
    6.7700    3.8620    0.0000 Cl  0  0  0  0  0  0  0  0  0  0  0  0
   11.2570    1.2410    0.0000 C   0  0  0  0  0  0  0  0  0  0  0  0
   11.2490   -0.2590    0.0000 F   0  0  0  0  0  0  0  0  0  0  0  0
   12.7560    1.2340    0.0000 F   0  0  0  0  0  0  0  0  0  0  0  0
   11.2640    2.7410    0.0000 F   0  0  0  0  0  0  0  0  0  0  0  0
    2.2300   -3.9090    0.0000 N   0  3  0  0  0  0  0  0  0  0  0  0
    2.9730   -5.2110    0.0000 O   0  0  0  0  0  0  0  0  0  0  0  0
    0.7300   -3.9010    0.0000 O   0  5  0  0  0  0  0  0  0  0  0  0
  1  2  1  0  0  0  0
  2  3  2  0  0  0  0
  2  4  1  0  0  0  0
  4  5  1  0  0  0  0
  4  9  2  0  0  0  0
  5  6  2  0  0  0  0
  5 22  1  0  0  0  0
  6  7  1  0  0  0  0
  7  8  2  0  0  0  0
  8  9  1  0  0  0  0
  8 10  1  0  0  0  0
 10 11  1  0  0  0  0
 11 12  1  0  0  0  0
 11 16  2  0  0  0  0
 12 13  2  0  0  0  0
 13 14  1  0  0  0  0
 14 15  2  0  0  0  0
 14 18  1  0  0  0  0
 15 16  1  0  0  0  0
 16 17  1  0  0  0  0
 18 19  1  0  0  0  0
 18 20  1  0  0  0  0
 18 21  1  0  0  0  0
 22 23  2  0  0  0  0
 22 24  1  0  0  0  0
M  CHG  1  22   1
M  CHG  1  24  -1
M  END
>  <DSSTox_RID>
40338

>  <DSSTox_CID>
22

>  <apol>
38.268551

>  <a_acc>
2

>  <a_acid>
0

>  <a_aro>
12

>  <a_base>
0

>  <a_count>
31

>  <a_don>
2

>  <a_heavy>
24

>  <a_hyd>
18

>  <a_IC>
64.261101

>  <a_ICM>
2.0729389

>  <a_nB>
0

>  <a_nBr>
0

>  <a_nC>
14

>  <a_nCl>
1

>  <a_nF>
3

>  <a_nH>
7

>  <a_nI>
0

>  <a_nN>
1

>  <a_nO>
5

>  <a_nP>
0

>  <a_nS>
0

>  <balabanJ>
1.9099115

>  <BCUT_PEOE_0>
-2.2247536

>  <BCUT_PEOE_1>
-0.65423459

>  <BCUT_PEOE_2>
0.69282717

>  <BCUT_PEOE_3>
2.3590777

>  <BCUT_SLOGP_0>
-2.1279705

>  <BCUT_SLOGP_1>
-0.5504666

>  <BCUT_SLOGP_2>
0.75777864

>  <BCUT_SLOGP_3>
2.4979584

>  <BCUT_SMR_0>
-1.9819055

>  <BCUT_SMR_1>
-0.44618434

>  <BCUT_SMR_2>
0.84688485

>  <BCUT_SMR_3>
2.5705342

>  <bpol>
15.811449

>  <b_1rotN>
4

>  <b_1rotR>
0.16

>  <b_ar>
12

>  <b_count>
32

>  <b_double>
2

>  <b_heavy>
25

>  <b_rotN>
5

>  <b_rotR>
0.2

>  <b_single>
18

>  <b_triple>
0

>  <chi0>
18.06855

>  <chi0v>
12.259309

>  <chi0v_C>
7.4641018

>  <chi0_C>
8.7840929

>  <chi1>
11.091243

>  <chi1v>
6.5346956

>  <chi1v_C>
3.9760678

>  <chi1_C>
5.5546613

>  <chiral>
0

>  <chiral_u>
0

>  <density>
1.0421786

>  <diameter>
12

>  <FCharge>
0

>  <GCUT_PEOE_0>
-0.75234449

>  <GCUT_PEOE_1>
-0.44582921

>  <GCUT_PEOE_2>
0.069097444

>  <GCUT_PEOE_3>
2.3471661

>  <GCUT_SLOGP_0>
-0.85478705

>  <GCUT_SLOGP_1>
-0.3035537

>  <GCUT_SLOGP_2>
0.26019999

>  <GCUT_SLOGP_3>
2.5099976

>  <GCUT_SMR_0>
-0.49114582

>  <GCUT_SMR_1>
-0.21733323

>  <GCUT_SMR_2>
0.2616846

>  <GCUT_SMR_3>
2.6086285

>  <Kier1>
20.313601

>  <Kier2>
8.1314831

>  <Kier3>
5.25

>  <KierA1>
15.697282

>  <KierA2>
6.2080755

>  <KierA3>
3.9733937

>  <KierFlex>
4.0604129

>  <lip_acc>
6

>  <lip_don>
1

>  <lip_druglike>
1

>  <lip_violation>
1

>  <logP(o/w)>
4.7247601

>  <logS>
-5.71806

>  <mr>
7.6773429

>  <mutagenic>
1

>  <nmol>
1

>  <opr_brigid>
12

>  <opr_leadlike>
1

>  <opr_nring>
2

>  <opr_nrot>
4

>  <opr_violation>
1

>  <PC+>
0

>  <PC->
0

>  <PEOE_PC+>
1.8007326

>  <PEOE_PC->
-1.8007326

>  <PEOE_RPC+>
0.23246418

>  <PEOE_RPC->
0.1698917

>  <PEOE_VSA+0>
79.042473

>  <PEOE_VSA+1>
26.564816

>  <PEOE_VSA+2>
19.125578

>  <PEOE_VSA+3>
0

>  <PEOE_VSA+4>
0

>  <PEOE_VSA+5>
6.6995511

>  <PEOE_VSA+6>
23.754002

>  <PEOE_VSA-0>
0

>  <PEOE_VSA-1>
29.581947

>  <PEOE_VSA-2>
13.566921

>  <PEOE_VSA-3>
35.725906

>  <PEOE_VSA-4>
0

>  <PEOE_VSA-5>
47.497971

>  <PEOE_VSA-6>
2.503756

>  <PEOE_VSA_FHYD>
0.71676952

>  <PEOE_VSA_FNEG>
0.45368999

>  <PEOE_VSA_FPNEG>
0.17602341

>  <PEOE_VSA_FPOL>
0.28323048

>  <PEOE_VSA_FPOS>
0.54631001

>  <PEOE_VSA_FPPOS>
0.10720707

>  <PEOE_VSA_HYD>
203.60764

>  <PEOE_VSA_NEG>
128.8765

>  <PEOE_VSA_PNEG>
50.001724

>  <PEOE_VSA_POL>
80.455276

>  <PEOE_VSA_POS>
155.18642

>  <PEOE_VSA_PPOS>
30.453552

>  <petitjean>
0.5

>  <petitjeanSC>
1

>  <Q_PC+>
0

>  <Q_PC->
0

>  <Q_RPC+>
0

>  <Q_RPC->
0

>  <Q_VSA_FHYD>
1

>  <Q_VSA_FNEG>
0

>  <Q_VSA_FPNEG>
0

>  <Q_VSA_FPOL>
0

>  <Q_VSA_FPOS>
1

>  <Q_VSA_FPPOS>
0

>  <Q_VSA_HYD>
284.06293

>  <Q_VSA_NEG>
0

>  <Q_VSA_PNEG>
0

>  <Q_VSA_POL>
0

>  <Q_VSA_POS>
284.06293

>  <Q_VSA_PPOS>
0

>  <radius>
6

>  <reactive>
0

>  <rings>
2

>  <RPC+>
0

>  <RPC->
0

>  <rsynth>
1

>  <SlogP>
5.0689998

>  <SlogP_VSA0>
10.999887

>  <SlogP_VSA1>
14.83108

>  <SlogP_VSA2>
0

>  <SlogP_VSA3>
76.320236

>  <SlogP_VSA4>
30.233366

>  <SlogP_VSA5>
0

>  <SlogP_VSA6>
11.260122

>  <SlogP_VSA7>
105.85911

>  <SlogP_VSA8>
0

>  <SlogP_VSA9>
97.272591

>  <SMR>
7.6700702

>  <SMR_VSA0>
30.947832

>  <SMR_VSA1>
55.880226

>  <SMR_VSA2>
84.07975

>  <SMR_VSA3>
20.358612

>  <SMR_VSA4>
2.7567475

>  <SMR_VSA5>
105.85911

>  <SMR_VSA6>
7.7454643

>  <SMR_VSA7>
39.148643

>  <TPSA>
92.349998

>  <VAdjEq>
0.42571631

>  <VAdjMa>
5.643856

>  <VDistEq>
3.4310033

>  <VDistMa>
8.8603821

>  <vdw_area>
284.06293

>  <vdw_vol>
340.25165

>  <vsa_acc>
0

>  <vsa_acid>
0

>  <vsa_base>
0

>  <vsa_don>
0

>  <vsa_hyd>
205.78577

>  <vsa_other>
51.143303

>  <vsa_pol>
27.133842

>  <Weight>
361.659

>  <weinerPath>
1421

>  <weinerPol>
38

>  <zagreb>
124

$$$$
C1(CC)=CC=CC(CC)=C1N(COC)C(=O)CCl
  MOE2011           2D

 18 18  0  0  0  0  0  0  0  0999 V2000
    0.0000    0.0000    0.0000 C   0  0  0  0  0  0  0  0  0  0  0  0
    1.5000   -0.0010    0.0000 C   0  0  0  0  0  0  0  0  0  0  0  0
    2.2490   -1.3010    0.0000 C   0  0  0  0  0  0  0  0  0  0  0  0
   -0.7510   -1.2980    0.0000 C   0  0  0  0  0  0  0  0  0  0  0  0
   -2.2510   -1.2970    0.0000 C   0  0  0  0  0  0  0  0  0  0  0  0
   -3.0000    0.0030    0.0000 C   0  0  0  0  0  0  0  0  0  0  0  0
   -2.2490    1.3010    0.0000 C   0  0  0  0  0  0  0  0  0  0  0  0
   -2.9980    2.6010    0.0000 C   0  0  0  0  0  0  0  0  0  0  0  0
   -4.4980    2.6020    0.0000 C   0  0  0  0  0  0  0  0  0  0  0  0
   -0.7490    1.3000    0.0000 C   0  0  0  0  0  0  0  0  0  0  0  0
    0.0020    2.5980    0.0000 N   0  0  0  0  0  0  0  0  0  0  0  0
    1.5020    2.5970    0.0000 C   0  0  0  0  0  0  0  0  0  0  0  0
    2.2530    3.8950    0.0000 O   0  0  0  0  0  0  0  0  0  0  0  0
    3.7530    3.8940    0.0000 C   0  0  0  0  0  0  0  0  0  0  0  0
   -0.7470    3.8980    0.0000 C   0  0  0  0  0  0  0  0  0  0  0  0
    0.0050    5.1960    0.0000 O   0  0  0  0  0  0  0  0  0  0  0  0
   -2.2470    3.8990    0.0000 C   0  0  0  0  0  0  0  0  0  0  0  0
   -2.9950    5.1990    0.0000 Cl  0  0  0  0  0  0  0  0  0  0  0  0
  1  2  1  0  0  0  0
  1  4  1  0  0  0  0
  1 10  2  0  0  0  0
  2  3  1  0  0  0  0
  4  5  2  0  0  0  0
  5  6  1  0  0  0  0
  6  7  2  0  0  0  0
  7  8  1  0  0  0  0
  7 10  1  0  0  0  0
  8  9  1  0  0  0  0
 10 11  1  0  0  0  0
 11 12  1  0  0  0  0
 11 15  1  0  0  0  0
 12 13  1  0  0  0  0
 13 14  1  0  0  0  0
 15 16  2  0  0  0  0
 15 17  1  0  0  0  0
 17 18  1  0  0  0  0
M  END
>  <DSSTox_RID>
40339

>  <DSSTox_CID>
2265

>  <apol>
42.859859

>  <a_acc>
2

>  <a_acid>
0

>  <a_aro>
6

>  <a_base>
0

>  <a_count>
38

>  <a_don>
0

>  <a_heavy>
18

>  <a_hyd>
13

>  <a_IC>
57.679714

>  <a_ICM>
1.5178872

>  <a_nB>
0

>  <a_nBr>
0

>  <a_nC>
14

>  <a_nCl>
1

>  <a_nF>
0

>  <a_nH>
20

>  <a_nI>
0

>  <a_nN>
1

>  <a_nO>
2

>  <a_nP>
0

>  <a_nS>
0

>  <balabanJ>
2.8751056

>  <BCUT_PEOE_0>
-2.5211918

>  <BCUT_PEOE_1>
-0.17068225

>  <BCUT_PEOE_2>
0.070949212

>  <BCUT_PEOE_3>
2.4772964

>  <BCUT_SLOGP_0>
-2.5852573

>  <BCUT_SLOGP_1>
-0.049893107

>  <BCUT_SLOGP_2>
0.34139991

>  <BCUT_SLOGP_3>
2.5602732

>  <BCUT_SMR_0>
-2.2286034

>  <BCUT_SMR_1>
0.1057

>  <BCUT_SMR_2>
0.35109988

>  <BCUT_SMR_3>
2.7779355

>  <bpol>
27.13814

>  <b_1rotN>
7

>  <b_1rotR>
0.3888889

>  <b_ar>
6

>  <b_count>
38

>  <b_double>
1

>  <b_heavy>
18

>  <b_rotN>
7

>  <b_rotR>
0.3888889

>  <b_single>
31

>  <b_triple>
0

>  <chi0>
13.543606

>  <chi0v>
11.958081

>  <chi0v_C>
9.5604782

>  <chi0_C>
10.259149

>  <chi1>
8.6886005

>  <chi1v>
6.6851635

>  <chi1v_C>
4.2188907

>  <chi1_C>
5.1221218

>  <chiral>
0

>  <chiral_u>
0

>  <density>
0.80264866

>  <diameter>
7

>  <FCharge>
0

>  <GCUT_PEOE_0>
-0.8102085

>  <GCUT_PEOE_1>
-0.31766707

>  <GCUT_PEOE_2>
-0.089050792

>  <GCUT_PEOE_3>
2.5625725

>  <GCUT_SLOGP_0>
-1.001431

>  <GCUT_SLOGP_1>
-0.19769838

>  <GCUT_SLOGP_2>
0.031442787

>  <GCUT_SLOGP_3>
2.6500049

>  <GCUT_SMR_0>
-0.51641858

>  <GCUT_SMR_1>
-0.090524845

>  <GCUT_SMR_2>
0.10013182

>  <GCUT_SMR_3>
2.8439176

>  <Kier1>
16.055555

>  <Kier2>
8.2268429

>  <Kier3>
3.9958377

>  <KierA1>
13.946888

>  <KierA2>
7.0833755

>  <KierA3>
3.4179688

>  <KierFlex>
5.4883914

>  <lip_acc>
3

>  <lip_don>
0

>  <lip_druglike>
1

>  <lip_violation>
0

>  <logP(o/w)>
3.392

>  <logS>
-3.44578

>  <mr>
7.5920792

>  <mutagenic>
1

>  <nmol>
1

>  <opr_brigid>
6

>  <opr_leadlike>
1

>  <opr_nring>
1

>  <opr_nrot>
6

>  <opr_violation>
0

>  <PC+>
0

>  <PC->
0

>  <PEOE_PC+>
0.99496591

>  <PEOE_PC->
-0.99496591

>  <PEOE_RPC+>
0.25930795

>  <PEOE_RPC->
0.33108643

>  <PEOE_VSA+0>
90.433891

>  <PEOE_VSA+1>
6.6995511

>  <PEOE_VSA+2>
0

>  <PEOE_VSA+3>
53.77813

>  <PEOE_VSA+4>
0

>  <PEOE_VSA+5>
39.499016

>  <PEOE_VSA+6>
0

>  <PEOE_VSA-0>
51.842564

>  <PEOE_VSA-1>
0

>  <PEOE_VSA-2>
29.581947

>  <PEOE_VSA-3>
0

>  <PEOE_VSA-4>
0

>  <PEOE_VSA-5>
13.566921

>  <PEOE_VSA-6>
2.503756

>  <PEOE_VSA_FHYD>
0.80698651

>  <PEOE_VSA_FNEG>
0.33863574

>  <PEOE_VSA_FPNEG>
0.055819225

>  <PEOE_VSA_FPOL>
0.19301347

>  <PEOE_VSA_FPOS>
0.66136426

>  <PEOE_VSA_FPPOS>
0.13719425

>  <PEOE_VSA_HYD>
232.33607

>  <PEOE_VSA_NEG>
97.495186

>  <PEOE_VSA_PNEG>
16.070677

>  <PEOE_VSA_POL>
55.569695

>  <PEOE_VSA_POS>
190.41058

>  <PEOE_VSA_PPOS>
39.499016

>  <petitjean>
0.42857143

>  <petitjeanSC>
0.75

>  <Q_PC+>
0

>  <Q_PC->
0

>  <Q_RPC+>
0

>  <Q_RPC->
0

>  <Q_VSA_FHYD>
1

>  <Q_VSA_FNEG>
0

>  <Q_VSA_FPNEG>
0

>  <Q_VSA_FPOL>
0

>  <Q_VSA_FPOS>
1

>  <Q_VSA_FPPOS>
0

>  <Q_VSA_HYD>
287.90576

>  <Q_VSA_NEG>
0

>  <Q_VSA_PNEG>
0

>  <Q_VSA_POL>
0

>  <Q_VSA_POS>
287.90576

>  <Q_VSA_PPOS>
0

>  <radius>
4

>  <reactive>
1

>  <rings>
1

>  <RPC+>
0

>  <RPC->
0

>  <rsynth>
1

>  <SlogP>
2.98704

>  <SlogP_VSA0>
3.1243138

>  <SlogP_VSA1>
5.2587838

>  <SlogP_VSA2>
34.862103

>  <SlogP_VSA3>
39.68087

>  <SlogP_VSA4>
6.37115

>  <SlogP_VSA5>
73.120682

>  <SlogP_VSA6>
0

>  <SlogP_VSA7>
52.929554

>  <SlogP_VSA8>
0

>  <SlogP_VSA9>
108.55742

>  <SMR>
7.5279999

>  <SMR_VSA0>
34.862103

>  <SMR_VSA1>
0

>  <SMR_VSA2>
3.1243138

>  <SMR_VSA3>
6.37115

>  <SMR_VSA4>
2.7567475

>  <SMR_VSA5>
90.666367

>  <SMR_VSA6>
44.939651

>  <SMR_VSA7>
141.18454

>  <TPSA>
29.540001

>  <VAdjEq>
0.50325835

>  <VAdjMa>
5.1699252

>  <VDistEq>
2.6951978

>  <VDistMa>
8.0988388

>  <vdw_area>
287.90576

>  <vdw_vol>
310.98538

>  <vsa_acc>
16.070677

>  <vsa_acid>
0

>  <vsa_base>
0

>  <vsa_don>
0

>  <vsa_hyd>
232.33607

>  <vsa_other>
39.499016

>  <vsa_pol>
16.070677

>  <Weight>
269.772

>  <weinerPath>
569

>  <weinerPol>
28

>  <zagreb>
82

$$$$
CC(C=NOC(=O)NC)(SC)C
  MOE2011           2D

 12 11  0  0  0  0  0  0  0  0999 V2000
    0.0000    0.0000    0.0000 C   0  0  0  0  0  0  0  0  0  0  0  0
   -0.7500    1.2990    0.0000 C   0  0  0  0  0  0  0  0  0  0  0  0
    0.5490    2.0490    0.0000 C   0  0  0  0  0  0  0  0  0  0  0  0
    1.8480    1.2990    0.0000 N   0  0  0  0  0  0  0  0  0  0  0  0
    3.1470    2.0490    0.0000 O   0  0  0  0  0  0  0  0  0  0  0  0
    4.4460    1.2990    0.0000 C   0  0  0  0  0  0  0  0  0  0  0  0
    4.4460   -0.2010    0.0000 O   0  0  0  0  0  0  0  0  0  0  0  0
    5.7450    2.0490    0.0000 N   0  0  0  0  0  0  0  0  0  0  0  0
    7.0440    1.2990    0.0000 C   0  0  0  0  0  0  0  0  0  0  0  0
   -2.0490    0.5490    0.0000 S   0  0  0  0  0  0  0  0  0  0  0  0
   -3.3480    1.2990    0.0000 C   0  0  0  0  0  0  0  0  0  0  0  0
   -1.5000    2.5980    0.0000 C   0  0  0  0  0  0  0  0  0  0  0  0
  1  2  1  0  0  0  0
  2  3  1  0  0  0  0
  2 10  1  0  0  0  0
  2 12  1  0  0  0  0
  3  4  2  0  0  0  0
  4  5  1  0  0  0  0
  5  6  1  0  0  0  0
  6  7  2  0  0  0  0
  6  8  1  0  0  0  0
  8  9  1  0  0  0  0
 10 11  1  0  0  0  0
M  END
>  <DSSTox_RID>
40340

>  <DSSTox_CID>
39

>  <apol>
28.359102

>  <a_acc>
2

>  <a_acid>
0

>  <a_aro>
0

>  <a_base>
0

>  <a_count>
26

>  <a_don>
1

>  <a_heavy>
12

>  <a_hyd>
6

>  <a_IC>
45.256981

>  <a_ICM>
1.740653

>  <a_nB>
0

>  <a_nBr>
0

>  <a_nC>
7

>  <a_nCl>
0

>  <a_nF>
0

>  <a_nH>
14

>  <a_nI>
0

>  <a_nN>
2

>  <a_nO>
2

>  <a_nP>
0

>  <a_nS>
1

>  <balabanJ>
3.4443066

>  <BCUT_PEOE_0>
-2.551996

>  <BCUT_PEOE_1>
-0.27462581

>  <BCUT_PEOE_2>
0.22233768

>  <BCUT_PEOE_3>
2.5382159

>  <BCUT_SLOGP_0>
-2.5479379

>  <BCUT_SLOGP_1>
-0.067139022

>  <BCUT_SLOGP_2>
0.44371378

>  <BCUT_SLOGP_3>
2.6018269

>  <BCUT_SMR_0>
-2.2615976

>  <BCUT_SMR_1>
-0.06703943

>  <BCUT_SMR_2>
0.37364396

>  <BCUT_SMR_3>
2.8582289

>  <bpol>
21.118898

>  <b_1rotN>
2

>  <b_1rotR>
0.18181819

>  <b_ar>
0

>  <b_count>
25

>  <b_double>
2

>  <b_heavy>
11

>  <b_rotN>
5

>  <b_rotR>
0.45454547

>  <b_single>
23

>  <b_triple>
0

>  <chi0>
9.6128845

>  <chi0v>
8.5658054

>  <chi0v_C>
5.5773501

>  <chi0_C>
5.7844572

>  <chi1>
5.5151672

>  <chi1v>
4.7248139

>  <chi1v_C>
1.2886752

>  <chi1_C>
1.3535534

>  <chiral>
0

>  <chiral_u>
0

>  <density>
0.87427515

>  <diameter>
8

>  <FCharge>
0

>  <GCUT_PEOE_0>
-0.8190254

>  <GCUT_PEOE_1>
-0.31494275

>  <GCUT_PEOE_2>
-0.093061641

>  <GCUT_PEOE_3>
2.179188

>  <GCUT_SLOGP_0>
-1.1605741

>  <GCUT_SLOGP_1>
-0.17665577

>  <GCUT_SLOGP_2>
0.07149972

>  <GCUT_SLOGP_3>
2.2462511

>  <GCUT_SMR_0>
-0.50135124

>  <GCUT_SMR_1>
-0.085200794

>  <GCUT_SMR_2>
0.059041504

>  <GCUT_SMR_3>
2.4721553

>  <Kier1>
12

>  <Kier2>
5.6122451

>  <Kier3>
6.25

>  <KierA1>
11.161231

>  <KierA2>
5.182858

>  <KierA3>
5.7395444

>  <KierFlex>
4.8205895

>  <lip_acc>
4

>  <lip_don>
1

>  <lip_druglike>
1

>  <lip_violation>
0

>  <logP(o/w)>
2.122

>  <logS>
-1.63394

>  <mr>
5.0231943

>  <mutagenic>
0

>  <nmol>
1

>  <opr_brigid>
1

>  <opr_leadlike>
1

>  <opr_nring>
0

>  <opr_nrot>
3

>  <opr_violation>
0

>  <PC+>
0

>  <PC->
0

>  <PEOE_PC+>
0.85583568

>  <PEOE_PC->
-0.85583568

>  <PEOE_RPC+>
0.47478104

>  <PEOE_RPC->
0.27391648

>  <PEOE_VSA+0>
58.816898

>  <PEOE_VSA+1>
31.384512

>  <PEOE_VSA+2>
20.299505

>  <PEOE_VSA+3>
33.89946

>  <PEOE_VSA+4>
0

>  <PEOE_VSA+5>
0

>  <PEOE_VSA+6>
19.199511

>  <PEOE_VSA-0>
0

>  <PEOE_VSA-1>
0

>  <PEOE_VSA-2>
30.64588

>  <PEOE_VSA-3>
5.9023595

>  <PEOE_VSA-4>
19.249496

>  <PEOE_VSA-5>
0

>  <PEOE_VSA-6>
0

>  <PEOE_VSA_FHYD>
0.82475191

>  <PEOE_VSA_FNEG>
0.25432244

>  <PEOE_VSA_FPNEG>
0.087737948

>  <PEOE_VSA_FPOL>
0.17524806

>  <PEOE_VSA_FPOS>
0.74567759

>  <PEOE_VSA_FPPOS>
0.087510109

>  <PEOE_VSA_HYD>
180.94862

>  <PEOE_VSA_NEG>
55.797737

>  <PEOE_VSA_PNEG>
19.249496

>  <PEOE_VSA_POL>
38.449009

>  <PEOE_VSA_POS>
163.59988

>  <PEOE_VSA_PPOS>
19.199511

>  <petitjean>
0.5

>  <petitjeanSC>
1

>  <Q_PC+>
0

>  <Q_PC->
0

>  <Q_RPC+>
0

>  <Q_RPC->
0

>  <Q_VSA_FHYD>
1

>  <Q_VSA_FNEG>
0

>  <Q_VSA_FPNEG>
0

>  <Q_VSA_FPOL>
0

>  <Q_VSA_FPOS>
1

>  <Q_VSA_FPPOS>
0

>  <Q_VSA_HYD>
219.39763

>  <Q_VSA_NEG>
0

>  <Q_VSA_PNEG>
0

>  <Q_VSA_POL>
0

>  <Q_VSA_POS>
219.39763

>  <Q_VSA_PPOS>
0

>  <radius>
4

>  <reactive>
0

>  <rings>
0

>  <RPC+>
0

>  <RPC->
0

>  <rsynth>
0.5

>  <SlogP>
1.4698

>  <SlogP_VSA0>
18.01075

>  <SlogP_VSA1>
7.3166366

>  <SlogP_VSA2>
28.433121

>  <SlogP_VSA3>
0

>  <SlogP_VSA4>
0

>  <SlogP_VSA5>
83.98822

>  <SlogP_VSA6>
0

>  <SlogP_VSA7>
0

>  <SlogP_VSA8>
0

>  <SlogP_VSA9>
122.73379

>  <SMR>
5.1627698

>  <SMR_VSA0>
35.080978

>  <SMR_VSA1>
19.399862

>  <SMR_VSA2>
18.01075

>  <SMR_VSA3>
0

>  <SMR_VSA4>
0

>  <SMR_VSA5>
0

>  <SMR_VSA6>
7.3166366

>  <SMR_VSA7>
180.67429

>  <TPSA>
50.689999

>  <VAdjEq>
0.61674827

>  <VAdjMa>
4.4594316

>  <VDistEq>
2.8074639

>  <VDistMa>
6.8184276

>  <vdw_area>
219.39763

>  <vdw_vol>
201.48691

>  <vsa_acc>
24.452183

>  <vsa_acid>
0

>  <vsa_base>
0

>  <vsa_don>
5.6825762

>  <vsa_hyd>
143.8615

>  <vsa_other>
45.401375

>  <vsa_pol>
30.134758

>  <Weight>
190.267

>  <weinerPath>
233

>  <weinerPol>
12

>  <zagreb>
50

$$$$
CSc1nc(NCC)nc(NC(C)C)n1
  MOE2011           2D

 15 15  0  0  0  0  0  0  0  0999 V2000
    0.0000    0.0000    0.0000 C   0  0  0  0  0  0  0  0  0  0  0  0
    0.7560   -1.2950    0.0000 S   0  0  0  0  0  0  0  0  0  0  0  0
    0.0130   -2.5980    0.0000 C   0  0  0  0  0  0  0  0  0  0  0  0
   -1.4870   -2.6050    0.0000 N   0  0  0  0  0  0  0  0  0  0  0  0
   -2.2310   -3.9080    0.0000 C   0  0  0  0  0  0  0  0  0  0  0  0
   -3.7310   -3.9150    0.0000 N   0  0  0  0  0  0  0  0  0  0  0  0
   -4.4750   -5.2180    0.0000 C   0  0  0  0  0  0  0  0  0  0  0  0
   -5.9750   -5.2250    0.0000 C   0  0  0  0  0  0  0  0  0  0  0  0
   -1.4750   -5.2030    0.0000 N   0  0  0  0  0  0  0  0  0  0  0  0
    0.0250   -5.1960    0.0000 C   0  0  0  0  0  0  0  0  0  0  0  0
    0.7820   -6.4910    0.0000 N   0  0  0  0  0  0  0  0  0  0  0  0
    2.2820   -6.4840    0.0000 C   0  0  0  0  0  0  0  0  0  0  0  0
    3.0380   -7.7790    0.0000 C   0  0  0  0  0  0  0  0  0  0  0  0
    3.0250   -5.1810    0.0000 C   0  0  0  0  0  0  0  0  0  0  0  0
    0.7690   -3.8930    0.0000 N   0  0  0  0  0  0  0  0  0  0  0  0
  1  2  1  0  0  0  0
  2  3  1  0  0  0  0
  3  4  1  0  0  0  0
  3 15  2  0  0  0  0
  4  5  2  0  0  0  0
  5  6  1  0  0  0  0
  5  9  1  0  0  0  0
  6  7  1  0  0  0  0
  7  8  1  0  0  0  0
  9 10  2  0  0  0  0
 10 11  1  0  0  0  0
 10 15  1  0  0  0  0
 11 12  1  0  0  0  0
 12 13  1  0  0  0  0
 12 14  1  0  0  0  0
M  END
>  <DSSTox_RID>
40343

>  <DSSTox_CID>
3869

>  <apol>
35.575481

>  <a_acc>
3

>  <a_acid>
0

>  <a_aro>
6

>  <a_base>
0

>  <a_count>
32

>  <a_don>
2

>  <a_heavy>
15

>  <a_hyd>
7

>  <a_IC>
50.374165

>  <a_ICM>
1.5741926

>  <a_nB>
0

>  <a_nBr>
0

>  <a_nC>
9

>  <a_nCl>
0

>  <a_nF>
0

>  <a_nH>
17

>  <a_nI>
0

>  <a_nN>
5

>  <a_nO>
0

>  <a_nP>
0

>  <a_nS>
1

>  <balabanJ>
2.4464262

>  <BCUT_PEOE_0>
-2.5561602

>  <BCUT_PEOE_1>
-0.3580294

>  <BCUT_PEOE_2>
0.34380054

>  <BCUT_PEOE_3>
2.497206

>  <BCUT_SLOGP_0>
-2.5876458

>  <BCUT_SLOGP_1>
-0.28946689

>  <BCUT_SLOGP_2>
0.4090423

>  <BCUT_SLOGP_3>
2.5184782

>  <BCUT_SMR_0>
-2.2904932

>  <BCUT_SMR_1>
-0.15525906

>  <BCUT_SMR_2>
0.567765

>  <BCUT_SMR_3>
2.7646356

>  <bpol>
26.14452

>  <b_1rotN>
5

>  <b_1rotR>
0.33333334

>  <b_ar>
6

>  <b_count>
32

>  <b_double>
0

>  <b_heavy>
15

>  <b_rotN>
5

>  <b_rotR>
0.33333334

>  <b_single>
26

>  <b_triple>
0

>  <chi0>
11.259149

>  <chi0v>
10.350842

>  <chi0v_C>
6.7844572

>  <chi0_C>
7.0165076

>  <chi1>
7.1513972

>  <chi1v>
6.1827941

>  <chi1v_C>
1.8618073

>  <chi1_C>
1.8618073

>  <chiral>
0

>  <chiral_u>
0

>  <density>
0.83697021

>  <diameter>
8

>  <FCharge>
0

>  <GCUT_PEOE_0>
-0.80601841

>  <GCUT_PEOE_1>
-0.36244693

>  <GCUT_PEOE_2>
-0.00099419639

>  <GCUT_PEOE_3>
2.2936041

>  <GCUT_SLOGP_0>
-0.98522443

>  <GCUT_SLOGP_1>
-0.25668499

>  <GCUT_SLOGP_2>
0.10217477

>  <GCUT_SLOGP_3>
2.3446493

>  <GCUT_SMR_0>
-0.51537478

>  <GCUT_SMR_1>
-0.14834712

>  <GCUT_SMR_2>
0.17561488

>  <GCUT_SMR_3>
2.5662949

>  <Kier1>
13.066667

>  <Kier2>
6.5540166

>  <Kier3>
4.5714288

>  <KierA1>
11.143562

>  <KierA2>
5.5209937

>  <KierA3>
3.812253

>  <KierFlex>
4.1015692

>  <lip_acc>
5

>  <lip_don>
2

>  <lip_druglike>
1

>  <lip_violation>
0

>  <logP(o/w)>
0.60500002

>  <logS>
-3.8513701

>  <mr>
6.259048

>  <mutagenic>
0

>  <nmol>
1

>  <opr_brigid>
6

>  <opr_leadlike>
1

>  <opr_nring>
1

>  <opr_nrot>
5

>  <opr_violation>
0

>  <PC+>
0

>  <PC->
0

>  <PEOE_PC+>
0.95837939

>  <PEOE_PC->
-0.95837939

>  <PEOE_RPC+>
0.23417558

>  <PEOE_RPC->
0.19868378

>  <PEOE_VSA+0>
88.225349

>  <PEOE_VSA+1>
58.383568

>  <PEOE_VSA+2>
0

>  <PEOE_VSA+3>
13.166624

>  <PEOE_VSA+4>
31.363148

>  <PEOE_VSA+5>
0

>  <PEOE_VSA+6>
0

>  <PEOE_VSA-0>
0

>  <PEOE_VSA-1>
19.760618

>  <PEOE_VSA-2>
0

>  <PEOE_VSA-3>
28.41288

>  <PEOE_VSA-4>
0

>  <PEOE_VSA-5>
0

>  <PEOE_VSA-6>
0

>  <PEOE_VSA_FHYD>
0.86894464

>  <PEOE_VSA_FNEG>
0.20129982

>  <PEOE_VSA_FPNEG>
0

>  <PEOE_VSA_FPOL>
0.13105537

>  <PEOE_VSA_FPOS>
0.79870021

>  <PEOE_VSA_FPPOS>
0.13105537

>  <PEOE_VSA_HYD>
207.94904

>  <PEOE_VSA_NEG>
48.1735

>  <PEOE_VSA_PNEG>
0

>  <PEOE_VSA_POL>
31.363148

>  <PEOE_VSA_POS>
191.13869

>  <PEOE_VSA_PPOS>
31.363148

>  <petitjean>
0.375

>  <petitjeanSC>
0.60000002

>  <Q_PC+>
0

>  <Q_PC->
0

>  <Q_RPC+>
0

>  <Q_RPC->
0

>  <Q_VSA_FHYD>
1

>  <Q_VSA_FNEG>
0

>  <Q_VSA_FPNEG>
0

>  <Q_VSA_FPOL>
0

>  <Q_VSA_FPOS>
1

>  <Q_VSA_FPPOS>
0

>  <Q_VSA_HYD>
239.31219

>  <Q_VSA_NEG>
0

>  <Q_VSA_PNEG>
0

>  <Q_VSA_POL>
0

>  <Q_VSA_POS>
239.31219

>  <Q_VSA_PPOS>
0

>  <radius>
5

>  <reactive>
0

>  <rings>
1

>  <RPC+>
0

>  <RPC->
0

>  <rsynth>
1

>  <SlogP>
1.8456

>  <SlogP_VSA0>
0

>  <SlogP_VSA1>
86.37809

>  <SlogP_VSA2>
3.9819686

>  <SlogP_VSA3>
18.439579

>  <SlogP_VSA4>
0

>  <SlogP_VSA5>
32.384254

>  <SlogP_VSA6>
0

>  <SlogP_VSA7>
0

>  <SlogP_VSA8>
0

>  <SlogP_VSA9>
135.99577

>  <SMR>
6.4531398

>  <SMR_VSA0>
0

>  <SMR_VSA1>
50.35659

>  <SMR_VSA2>
0.69307917

>  <SMR_VSA3>
3.9819686

>  <SMR_VSA4>
39.819687

>  <SMR_VSA5>
0

>  <SMR_VSA6>
18.439579

>  <SMR_VSA7>
163.88876

>  <TPSA>
62.73

>  <VAdjEq>
0.56650949

>  <VAdjMa>
4.9068904

>  <VDistEq>
2.8231602

>  <VDistMa>
7.5178823

>  <vdw_area>
239.31219

>  <vdw_vol>
251.14394

>  <vsa_acc>
17.047728

>  <vsa_acid>
0

>  <vsa_base>
0

>  <vsa_don>
11.365152

>  <vsa_hyd>
166.36954

>  <vsa_other>
44.529774

>  <vsa_pol>
28.41288

>  <Weight>
227.336

>  <weinerPath>
384

>  <weinerPol>
18

>  <zagreb>
68

$$$$
Cc2cc(C)ccc2/N=C/N(C)/C=N/c1ccc(C)cc1C
  MOE2011           2D

 22 23  0  0  0  0  0  0  0  0999 V2000
    0.0000    0.0000    0.0000 C   0  0  0  0  0  0  0  0  0  0  0  0
    0.0000   -1.5000    0.0000 C   0  0  0  0  0  0  0  0  0  0  0  0
   -1.2990   -2.2500    0.0000 C   0  0  0  0  0  0  0  0  0  0  0  0
   -1.2990   -3.7500    0.0000 C   0  0  0  0  0  0  0  0  0  0  0  0
   -2.5980   -4.5000    0.0000 C   0  0  0  0  0  0  0  0  0  0  0  0
    0.0000   -4.5000    0.0000 C   0  0  0  0  0  0  0  0  0  0  0  0
    1.2990   -3.7500    0.0000 C   0  0  0  0  0  0  0  0  0  0  0  0
    1.2990   -2.2500    0.0000 C   0  0  0  0  0  0  0  0  0  0  0  0
    2.5980   -1.5000    0.0000 N   0  0  0  0  0  0  0  0  0  0  0  0
    3.8970   -2.2500    0.0000 C   0  0  0  0  0  0  0  0  0  0  0  0
    5.1960   -1.5000    0.0000 N   0  0  0  0  0  0  0  0  0  0  0  0
    5.1960    0.0000    0.0000 C   0  0  0  0  0  0  0  0  0  0  0  0
    6.4950   -2.2500    0.0000 C   0  0  0  0  0  0  0  0  0  0  0  0
    7.7940   -1.5000    0.0000 N   0  0  0  0  0  0  0  0  0  0  0  0
    9.0930   -2.2500    0.0000 C   0  0  0  0  0  0  0  0  0  0  0  0
    9.0930   -3.7500    0.0000 C   0  0  0  0  0  0  0  0  0  0  0  0
   10.3920   -4.5000    0.0000 C   0  0  0  0  0  0  0  0  0  0  0  0
   11.6910   -3.7500    0.0000 C   0  0  0  0  0  0  0  0  0  0  0  0
   12.9900   -4.5000    0.0000 C   0  0  0  0  0  0  0  0  0  0  0  0
   11.6910   -2.2500    0.0000 C   0  0  0  0  0  0  0  0  0  0  0  0
   10.3920   -1.5000    0.0000 C   0  0  0  0  0  0  0  0  0  0  0  0
   10.3920    0.0000    0.0000 C   0  0  0  0  0  0  0  0  0  0  0  0
  1  2  1  0  0  0  0
  2  3  1  0  0  0  0
  2  8  2  0  0  0  0
  3  4  2  0  0  0  0
  4  5  1  0  0  0  0
  4  6  1  0  0  0  0
  6  7  2  0  0  0  0
  7  8  1  0  0  0  0
  8  9  1  0  0  0  0
  9 10  2  0  0  0  0
 10 11  1  0  0  0  0
 11 12  1  0  0  0  0
 11 13  1  0  0  0  0
 13 14  2  0  0  0  0
 14 15  1  0  0  0  0
 15 16  1  0  0  0  0
 15 21  2  0  0  0  0
 16 17  2  0  0  0  0
 17 18  1  0  0  0  0
 18 19  1  0  0  0  0
 18 20  2  0  0  0  0
 20 21  1  0  0  0  0
 21 22  1  0  0  0  0
M  END
>  <DSSTox_RID>
40344

>  <DSSTox_CID>
3871

>  <apol>
52.076241

>  <a_acc>
2

>  <a_acid>
0

>  <a_aro>
12

>  <a_base>
0

>  <a_count>
45

>  <a_don>
0

>  <a_heavy>
22

>  <a_hyd>
17

>  <a_IC>
57.625954

>  <a_ICM>
1.2805767

>  <a_nB>
0

>  <a_nBr>
0

>  <a_nC>
19

>  <a_nCl>
0

>  <a_nF>
0

>  <a_nH>
23

>  <a_nI>
0

>  <a_nN>
3

>  <a_nO>
0

>  <a_nP>
0

>  <a_nS>
0

>  <balabanJ>
1.6299684

>  <BCUT_PEOE_0>
-2.3836582

>  <BCUT_PEOE_1>
-0.23677357

>  <BCUT_PEOE_2>
0.2262343

>  <BCUT_PEOE_3>
2.3014088

>  <BCUT_SLOGP_0>
-2.4757853

>  <BCUT_SLOGP_1>
-0.14908367

>  <BCUT_SLOGP_2>
0.33138353

>  <BCUT_SLOGP_3>
2.4652262

>  <BCUT_SMR_0>
-2.0609615

>  <BCUT_SMR_1>
-0.052044686

>  <BCUT_SMR_2>
0.42339033

>  <BCUT_SMR_3>
2.6239834

>  <bpol>
29.763762

>  <b_1rotN>
4

>  <b_1rotR>
0.17391305

>  <b_ar>
12

>  <b_count>
46

>  <b_double>
2

>  <b_heavy>
23

>  <b_rotN>
4

>  <b_rotR>
0.17391305

>  <b_single>
32

>  <b_triple>
0

>  <chi0>
16.11252

>  <chi0v>
13.960443

>  <chi0v_C>
12.618802

>  <chi0_C>
14.120955

>  <chi1>
10.452397

>  <chi1v>
7.4032903

>  <chi1v_C>
5.4760675

>  <chi1_C>
7.242054

>  <chiral>
0

>  <chiral_u>
0

>  <density>
0.70411783

>  <diameter>
14

>  <FCharge>
0

>  <GCUT_PEOE_0>
-0.84214097

>  <GCUT_PEOE_1>
-0.32194877

>  <GCUT_PEOE_2>
-0.070644096

>  <GCUT_PEOE_3>
2.4222434

>  <GCUT_SLOGP_0>
-0.96493125

>  <GCUT_SLOGP_1>
-0.20483105

>  <GCUT_SLOGP_2>
0.019804081

>  <GCUT_SLOGP_3>
2.5640602

>  <GCUT_SMR_0>
-0.48502535

>  <GCUT_SMR_1>
-0.10565329

>  <GCUT_SMR_2>
0.043704536

>  <GCUT_SMR_3>
2.7283015

>  <Kier1>
18.340265

>  <Kier2>
8.7408953

>  <Kier3>
5.8641977

>  <KierA1>
12.960964

>  <KierA2>
6.0658832

>  <KierA3>
4.0160923

>  <KierFlex>
3.5736225

>  <lip_acc>
3

>  <lip_don>
0

>  <lip_druglike>
1

>  <lip_violation>
0

>  <logP(o/w)>
4.8930001

>  <logS>
-4.9430299

>  <mr>
9.2196054

>  <mutagenic>
0

>  <nmol>
1

>  <opr_brigid>
14

>  <opr_leadlike>
1

>  <opr_nring>
2

>  <opr_nrot>
4

>  <opr_violation>
1

>  <PC+>
0

>  <PC->
0

>  <PEOE_PC+>
0.81520665

>  <PEOE_PC->
-0.81520665

>  <PEOE_RPC+>
0.22039253

>  <PEOE_RPC->
0.35727417

>  <PEOE_VSA+0>
149.25079

>  <PEOE_VSA+1>
13.399102

>  <PEOE_VSA+2>
33.89946

>  <PEOE_VSA+3>
49.581036

>  <PEOE_VSA+4>
0

>  <PEOE_VSA+5>
0

>  <PEOE_VSA+6>
0

>  <PEOE_VSA-0>
72.068138

>  <PEOE_VSA-1>
0

>  <PEOE_VSA-2>
0

>  <PEOE_VSA-3>
0

>  <PEOE_VSA-4>
11.365152

>  <PEOE_VSA-5>
0

>  <PEOE_VSA-6>
0

>  <PEOE_VSA_FHYD>
0.96551454

>  <PEOE_VSA_FNEG>
0.25316289

>  <PEOE_VSA_FPNEG>
0.034485452

>  <PEOE_VSA_FPOL>
0.034485452

>  <PEOE_VSA_FPOS>
0.74683714

>  <PEOE_VSA_FPPOS>
0

>  <PEOE_VSA_HYD>
318.19852

>  <PEOE_VSA_NEG>
83.433289

>  <PEOE_VSA_PNEG>
11.365152

>  <PEOE_VSA_POL>
11.365152

>  <PEOE_VSA_POS>
246.13039

>  <PEOE_VSA_PPOS>
0

>  <petitjean>
0.5

>  <petitjeanSC>
1

>  <Q_PC+>
0

>  <Q_PC->
0

>  <Q_RPC+>
0

>  <Q_RPC->
0

>  <Q_VSA_FHYD>
1

>  <Q_VSA_FNEG>
0

>  <Q_VSA_FPNEG>
0

>  <Q_VSA_FPOL>
0

>  <Q_VSA_FPOS>
1

>  <Q_VSA_FPPOS>
0

>  <Q_VSA_HYD>
329.56369

>  <Q_VSA_NEG>
0

>  <Q_VSA_PNEG>
0

>  <Q_VSA_POL>
0

>  <Q_VSA_POS>
329.56369

>  <Q_VSA_PPOS>
0

>  <radius>
7

>  <reactive>
0

>  <rings>
2

>  <RPC+>
0

>  <RPC->
0

>  <rsynth>
1

>  <SlogP>
4.8718801

>  <SlogP_VSA0>
0

>  <SlogP_VSA1>
3.1243138

>  <SlogP_VSA2>
33.57106

>  <SlogP_VSA3>
0

>  <SlogP_VSA4>
12.7423

>  <SlogP_VSA5>
66.468246

>  <SlogP_VSA6>
0

>  <SlogP_VSA7>
105.85911

>  <SlogP_VSA8>
0

>  <SlogP_VSA9>
138.81755

>  <SMR>
9.5899

>  <SMR_VSA0>
0

>  <SMR_VSA1>
36.695374

>  <SMR_VSA2>
0

>  <SMR_VSA3>
12.7423

>  <SMR_VSA4>
5.513495

>  <SMR_VSA5>
105.85911

>  <SMR_VSA6>
0

>  <SMR_VSA7>
199.77231

>  <TPSA>
27.959999

>  <VAdjEq>
0.4530769

>  <VAdjMa>
5.523562

>  <VDistEq>
3.5529525

>  <VDistMa>
8.5795631

>  <vdw_area>
329.56369

>  <vdw_vol>
383.78519

>  <vsa_acc>
11.365152

>  <vsa_acid>
0

>  <vsa_base>
0

>  <vsa_don>
0

>  <vsa_hyd>
268.61749

>  <vsa_other>
49.581036

>  <vsa_pol>
11.365152

>  <Weight>
293.414

>  <weinerPath>
1261

>  <weinerPol>
30

>  <zagreb>
108

$$$$
ClC1=NC(=NC(=N1)NC2=CC=CC=C2Cl)Cl
  MOE2011           2D

 16 17  0  0  0  0  0  0  0  0999 V2000
    0.0000    0.0000    0.0000 Cl  0  0  0  0  0  0  0  0  0  0  0  0
   -1.2980    0.7520    0.0000 C   0  0  0  0  0  0  0  0  0  0  0  0
   -1.2960    2.2520    0.0000 N   0  0  0  0  0  0  0  0  0  0  0  0
   -2.5940    3.0040    0.0000 C   0  0  0  0  0  0  0  0  0  0  0  0
   -3.8940    2.2550    0.0000 N   0  0  0  0  0  0  0  0  0  0  0  0
   -3.8960    0.7550    0.0000 C   0  0  0  0  0  0  0  0  0  0  0  0
   -2.5980    0.0040    0.0000 N   0  0  0  0  0  0  0  0  0  0  0  0
   -5.1960    0.0070    0.0000 N   0  0  0  0  0  0  0  0  0  0  0  0
   -6.4940    0.7590    0.0000 C   0  0  0  0  0  0  0  0  0  0  0  0
   -6.4920    2.2590    0.0000 C   0  0  0  0  0  0  0  0  0  0  0  0
   -7.7900    3.0110    0.0000 C   0  0  0  0  0  0  0  0  0  0  0  0
   -9.0900    2.2630    0.0000 C   0  0  0  0  0  0  0  0  0  0  0  0
   -9.0920    0.7630    0.0000 C   0  0  0  0  0  0  0  0  0  0  0  0
   -7.7940    0.0110    0.0000 C   0  0  0  0  0  0  0  0  0  0  0  0
   -7.7960   -1.4890    0.0000 Cl  0  0  0  0  0  0  0  0  0  0  0  0
   -2.5920    4.5040    0.0000 Cl  0  0  0  0  0  0  0  0  0  0  0  0
  1  2  1  0  0  0  0
  2  3  1  0  0  0  0
  2  7  2  0  0  0  0
  3  4  2  0  0  0  0
  4  5  1  0  0  0  0
  4 16  1  0  0  0  0
  5  6  2  0  0  0  0
  6  7  1  0  0  0  0
  6  8  1  0  0  0  0
  8  9  1  0  0  0  0
  9 10  1  0  0  0  0
  9 14  2  0  0  0  0
 10 11  2  0  0  0  0
 11 12  1  0  0  0  0
 12 13  2  0  0  0  0
 13 14  1  0  0  0  0
 14 15  1  0  0  0  0
M  END
>  <DSSTox_RID>
40299

>  <DSSTox_CID>
89

>  <apol>
30.113964

>  <a_acc>
3

>  <a_acid>
0

>  <a_aro>
12

>  <a_base>
0

>  <a_count>
21

>  <a_don>
1

>  <a_heavy>
16

>  <a_hyd>
9

>  <a_IC>
39.344814

>  <a_ICM>
1.8735626

>  <a_nB>
0

>  <a_nBr>
0

>  <a_nC>
9

>  <a_nCl>
3

>  <a_nF>
0

>  <a_nH>
5

>  <a_nI>
0

>  <a_nN>
4

>  <a_nO>
0

>  <a_nP>
0

>  <a_nS>
0

>  <balabanJ>
1.8447366

>  <BCUT_PEOE_0>
-2.2287283

>  <BCUT_PEOE_1>
-0.68161333

>  <BCUT_PEOE_2>
0.68966568

>  <BCUT_PEOE_3>
2.1927927

>  <BCUT_SLOGP_0>
-2.1589661

>  <BCUT_SLOGP_1>
-0.54637319

>  <BCUT_SLOGP_2>
0.85204953

>  <BCUT_SLOGP_3>
2.383466

>  <BCUT_SMR_0>
-1.8813746

>  <BCUT_SMR_1>
-0.43710214

>  <BCUT_SMR_2>
0.94397104

>  <BCUT_SMR_3>
2.5397022

>  <bpol>
11.346035

>  <b_1rotN>
2

>  <b_1rotR>
0.11764706

>  <b_ar>
12

>  <b_count>
22

>  <b_double>
0

>  <b_heavy>
17

>  <b_rotN>
2

>  <b_rotR>
0.11764706

>  <b_single>
10

>  <b_triple>
0

>  <chi0>
11.543606

>  <chi0v>
10.052722

>  <chi0v_C>
4.809401

>  <chi0_C>
5.7151785

>  <chi1>
7.6478672

>  <chi1v>
5.3698311

>  <chi1v_C>
1.8273503

>  <chi1_C>
2.6498299

>  <chiral>
0

>  <chiral_u>
0

>  <density>
1.0203774

>  <diameter>
8

>  <FCharge>
0

>  <GCUT_PEOE_0>
-0.75886077

>  <GCUT_PEOE_1>
-0.44891888

>  <GCUT_PEOE_2>
0.083857439

>  <GCUT_PEOE_3>
2.0927594

>  <GCUT_SLOGP_0>
-0.89464527

>  <GCUT_SLOGP_1>
-0.27191558

>  <GCUT_SLOGP_2>
0.30275926

>  <GCUT_SLOGP_3>
2.2737947

>  <GCUT_SMR_0>
-0.39780927

>  <GCUT_SMR_1>
-0.19883822

>  <GCUT_SMR_2>
0.34058973

>  <GCUT_SMR_3>
2.4189034

>  <Kier1>
12.456747

>  <Kier2>
5.5576558

>  <Kier3>
3.495199

>  <KierA1>
11.316718

>  <KierA2>
5.0146747

>  <KierA3>
3.1375985

>  <KierFlex>
3.5468538

>  <lip_acc>
4

>  <lip_don>
1

>  <lip_druglike>
1

>  <lip_violation>
0

>  <logP(o/w)>
2.7309999

>  <logS>
-6.0786099

>  <mr>
6.3760877

>  <mutagenic>
0

>  <nmol>
1

>  <opr_brigid>
12

>  <opr_leadlike>
1

>  <opr_nring>
2

>  <opr_nrot>
2

>  <opr_violation>
0

>  <PC+>
0

>  <PC->
0

>  <PEOE_PC+>
0.85242099

>  <PEOE_PC->
-0.85242099

>  <PEOE_RPC+>
0.26858649

>  <PEOE_RPC->
0.21942498

>  <PEOE_VSA+0>
63.233978

>  <PEOE_VSA+1>
11.219297

>  <PEOE_VSA+2>
0

>  <PEOE_VSA+3>
0

>  <PEOE_VSA+4>
42.685112

>  <PEOE_VSA+5>
0

>  <PEOE_VSA+6>
0

>  <PEOE_VSA-0>
59.163895

>  <PEOE_VSA-1>
29.581947

>  <PEOE_VSA-2>
5.6825762

>  <PEOE_VSA-3>
17.047728

>  <PEOE_VSA-4>
0

>  <PEOE_VSA-5>
0

>  <PEOE_VSA-6>
0

>  <PEOE_VSA_FHYD>
0.81328785

>  <PEOE_VSA_FNEG>
0.48761618

>  <PEOE_VSA_FPNEG>
0

>  <PEOE_VSA_FPOL>
0.18671216

>  <PEOE_VSA_FPOS>
0.51238382

>  <PEOE_VSA_FPPOS>
0.18671216

>  <PEOE_VSA_HYD>
185.92943

>  <PEOE_VSA_NEG>
111.47614

>  <PEOE_VSA_PNEG>
0

>  <PEOE_VSA_POL>
42.685112

>  <PEOE_VSA_POS>
117.13839

>  <PEOE_VSA_PPOS>
42.685112

>  <petitjean>
0.5

>  <petitjeanSC>
1

>  <Q_PC+>
0

>  <Q_PC->
0

>  <Q_RPC+>
0

>  <Q_RPC->
0

>  <Q_VSA_FHYD>
1

>  <Q_VSA_FNEG>
0

>  <Q_VSA_FPNEG>
0

>  <Q_VSA_FPOL>
0

>  <Q_VSA_FPOS>
1

>  <Q_VSA_FPPOS>
0

>  <Q_VSA_HYD>
228.61453

>  <Q_VSA_NEG>
0

>  <Q_VSA_PNEG>
0

>  <Q_VSA_POL>
0

>  <Q_VSA_POS>
228.61453

>  <Q_VSA_PPOS>
0

>  <radius>
4

>  <reactive>
0

>  <rings>
2

>  <RPC+>
0

>  <RPC->
0

>  <rsynth>
1

>  <SlogP>
3.5754001

>  <SlogP_VSA0>
0

>  <SlogP_VSA1>
68.36734

>  <SlogP_VSA2>
0

>  <SlogP_VSA3>
0

>  <SlogP_VSA4>
0

>  <SlogP_VSA5>
0

>  <SlogP_VSA6>
8.7865105

>  <SlogP_VSA7>
70.572739

>  <SlogP_VSA8>
0

>  <SlogP_VSA9>
122.10178

>  <SMR>
6.4581699

>  <SMR_VSA0>
0

>  <SMR_VSA1>
50.35659

>  <SMR_VSA2>
0

>  <SMR_VSA3>
8.7865105

>  <SMR_VSA4>
22.666592

>  <SMR_VSA5>
70.572739

>  <SMR_VSA6>
0

>  <SMR_VSA7>
117.44593

>  <TPSA>
50.700001

>  <VAdjEq>
0.56510133

>  <VAdjMa>
5.0874629

>  <VDistEq>
2.8679831

>  <VDistMa>
7.6954474

>  <vdw_area>
228.61453

>  <vdw_vol>
265.08429

>  <vsa_acc>
17.047728

>  <vsa_acid>
0

>  <vsa_base>
0

>  <vsa_don>
5.6825762

>  <vsa_hyd>
163.19911

>  <vsa_other>
42.685112

>  <vsa_pol>
22.730305

>  <Weight>
275.526

>  <weinerPath>
449

>  <weinerPol>
21

>  <zagreb>
80

$$$$
O=P(OC)(SCN2C1=NC=C(Cl)C=C1OC2=O)OC
  MOE2011           2D

 19 20  0  0  0  0  0  0  0  0999 V2000
    0.0000    0.0000    0.0000 O   0  0  0  0  0  0  0  0  0  0  0  0
   -0.7480   -1.3000    0.0000 P   0  0  0  0  0  0  0  0  0  0  0  0
   -1.4960   -2.6000    0.0000 O   0  0  0  0  0  0  0  0  0  0  0  0
   -2.9960   -2.6020    0.0000 C   0  0  0  0  0  0  0  0  0  0  0  0
    0.5520   -2.0480    0.0000 S   0  0  0  0  0  0  0  0  0  0  0  0
    1.8500   -1.2970    0.0000 C   0  0  0  0  0  0  0  0  0  0  0  0
    3.1500   -2.0450    0.0000 N   0  0  0  0  0  0  0  0  0  0  0  0
    4.5190   -1.4330    0.0000 C   0  0  0  0  0  0  0  0  0  0  0  0
    4.9810   -0.0060    0.0000 N   0  0  0  0  0  0  0  0  0  0  0  0
    6.4480    0.3080    0.0000 C   0  0  0  0  0  0  0  0  0  0  0  0
    7.4530   -0.8050    0.0000 C   0  0  0  0  0  0  0  0  0  0  0  0
    8.9200   -0.4910    0.0000 Cl  0  0  0  0  0  0  0  0  0  0  0  0
    6.9910   -2.2320    0.0000 C   0  0  0  0  0  0  0  0  0  0  0  0
    5.5250   -2.5460    0.0000 C   0  0  0  0  0  0  0  0  0  0  0  0
    4.7760   -3.8460    0.0000 O   0  0  0  0  0  0  0  0  0  0  0  0
    3.3090   -3.5360    0.0000 C   0  0  0  0  0  0  0  0  0  0  0  0
    2.1950   -4.5420    0.0000 O   0  0  0  0  0  0  0  0  0  0  0  0
   -2.0480   -0.5520    0.0000 O   0  0  0  0  0  0  0  0  0  0  0  0
   -2.0500    0.9480    0.0000 C   0  0  0  0  0  0  0  0  0  0  0  0
  1  2  2  0  0  0  0
  2  3  1  0  0  0  0
  2  5  1  0  0  0  0
  2 18  1  0  0  0  0
  3  4  1  0  0  0  0
  5  6  1  0  0  0  0
  6  7  1  0  0  0  0
  7  8  1  0  0  0  0
  7 16  1  0  0  0  0
  8  9  1  0  0  0  0
  8 14  2  0  0  0  0
  9 10  2  0  0  0  0
 10 11  1  0  0  0  0
 11 12  1  0  0  0  0
 11 13  2  0  0  0  0
 13 14  1  0  0  0  0
 14 15  1  0  0  0  0
 15 16  1  0  0  0  0
 16 17  2  0  0  0  0
 18 19  1  0  0  0  0
M  END
>  <DSSTox_RID>
40557

>  <DSSTox_CID>
14818

>  <apol>
37.427929

>  <a_acc>
5

>  <a_acid>
0

>  <a_aro>
6

>  <a_base>
0

>  <a_count>
29

>  <a_don>
0

>  <a_heavy>
19

>  <a_hyd>
8

>  <a_IC>
65.523201

>  <a_ICM>
2.2594209

>  <a_nB>
0

>  <a_nBr>
0

>  <a_nC>
9

>  <a_nCl>
1

>  <a_nF>
0

>  <a_nH>
10

>  <a_nI>
0

>  <a_nN>
2

>  <a_nO>
5

>  <a_nP>
1

>  <a_nS>
1

>  <balabanJ>
1.9342673

>  <BCUT_PEOE_0>
-2.4093769

>  <BCUT_PEOE_1>
-0.33804888

>  <BCUT_PEOE_2>
0.32451487

>  <BCUT_PEOE_3>
2.5169058

>  <BCUT_SLOGP_0>
-2.4590974

>  <BCUT_SLOGP_1>
-0.30329323

>  <BCUT_SLOGP_2>
0.50657034

>  <BCUT_SLOGP_3>
2.7114618

>  <BCUT_SMR_0>
-2.097316

>  <BCUT_SMR_1>
-0.071789354

>  <BCUT_SMR_2>
0.63232958

>  <BCUT_SMR_3>
2.8566675

>  <bpol>
29.79607

>  <b_1rotN>
5

>  <b_1rotR>
0.25

>  <b_ar>
6

>  <b_count>
30

>  <b_double>
1

>  <b_heavy>
20

>  <b_rotN>
5

>  <b_rotR>
0.25

>  <b_single>
23

>  <b_triple>
0

>  <chi0>
14.043606

>  <chi0v>
12.497755

>  <chi0v_C>
5.8618073

>  <chi0_C>
6.4307213

>  <chi1>
8.9873123

>  <chi1v>
8.509449

>  <chi1v_C>
1.1160254

>  <chi1_C>
1.5580782

>  <chiral>
0

>  <chiral_u>
0

>  <density>
1.0509319

>  <diameter>
10

>  <FCharge>
0

>  <GCUT_PEOE_0>
-0.76285523

>  <GCUT_PEOE_1>
-0.42708483

>  <GCUT_PEOE_2>
-0.092051171

>  <GCUT_PEOE_3>
2.3118904

>  <GCUT_SLOGP_0>
-1.2922668

>  <GCUT_SLOGP_1>
-0.29436997

>  <GCUT_SLOGP_2>
0.16221155

>  <GCUT_SLOGP_3>
2.4299042

>  <GCUT_SMR_0>
-0.48716274

>  <GCUT_SMR_1>
-0.13740632

>  <GCUT_SMR_2>
0.23352149

>  <GCUT_SMR_3>
2.6143789

>  <Kier1>
15.39

>  <Kier2>
6.1854935

>  <Kier3>
3.3659606

>  <KierA1>
15.925286

>  <KierA2>
6.4132133

>  <KierA3>
3.495204

>  <KierFlex>
5.3753819

>  <lip_acc>
7

>  <lip_don>
0

>  <lip_druglike>
1

>  <lip_violation>
0

>  <logP(o/w)>
1.39

>  <logS>
-2.6739199

>  <mr>
7.3890562

>  <mutagenic>
0

>  <nmol>
1

>  <opr_brigid>
10

>  <opr_leadlike>
1

>  <opr_nring>
2

>  <opr_nrot>
5

>  <opr_violation>
0

>  <PC+>
0

>  <PC->
0

>  <PEOE_PC+>
1.8481454

>  <PEOE_PC->
-1.8481454

>  <PEOE_RPC+>
0.20315544

>  <PEOE_RPC->
0.16362748

>  <PEOE_VSA+0>
15.808495

>  <PEOE_VSA+1>
4.5197463

>  <PEOE_VSA+2>
121.45948

>  <PEOE_VSA+3>
11.190562

>  <PEOE_VSA+4>
22.275568

>  <PEOE_VSA+5>
0

>  <PEOE_VSA+6>
34.789719

>  <PEOE_VSA-0>
0

>  <PEOE_VSA-1>
29.581947

>  <PEOE_VSA-2>
0

>  <PEOE_VSA-3>
0

>  <PEOE_VSA-4>
34.978634

>  <PEOE_VSA-5>
2.503756

>  <PEOE_VSA-6>
9.3319435

>  <PEOE_VSA_FHYD>
0.63734227

>  <PEOE_VSA_FNEG>
0.26670969

>  <PEOE_VSA_FPNEG>
0.16343513

>  <PEOE_VSA_FPOL>
0.3626577

>  <PEOE_VSA_FPOS>
0.73329031

>  <PEOE_VSA_FPPOS>
0.19922258

>  <PEOE_VSA_HYD>
182.56023

>  <PEOE_VSA_NEG>
76.396278

>  <PEOE_VSA_PNEG>
46.814335

>  <PEOE_VSA_POL>
103.87962

>  <PEOE_VSA_POS>
210.04356

>  <PEOE_VSA_PPOS>
57.065285

>  <petitjean>
0.5

>  <petitjeanSC>
1

>  <Q_PC+>
0

>  <Q_PC->
0

>  <Q_RPC+>
0

>  <Q_RPC->
0

>  <Q_VSA_FHYD>
1

>  <Q_VSA_FNEG>
0

>  <Q_VSA_FPNEG>
0

>  <Q_VSA_FPOL>
0

>  <Q_VSA_FPOS>
1

>  <Q_VSA_FPPOS>
0

>  <Q_VSA_HYD>
286.43985

>  <Q_VSA_NEG>
0

>  <Q_VSA_PNEG>
0

>  <Q_VSA_POL>
0

>  <Q_VSA_POS>
286.43985

>  <Q_VSA_PPOS>
0

>  <radius>
5

>  <reactive>
0

>  <rings>
2

>  <RPC+>
0

>  <RPC->
0

>  <rsynth>
1

>  <SlogP>
2.0752001

>  <SlogP_VSA0>
36.557968

>  <SlogP_VSA1>
24.102167

>  <SlogP_VSA2>
13.843261

>  <SlogP_VSA3>
16.804737

>  <SlogP_VSA4>
0

>  <SlogP_VSA5>
70.767738

>  <SlogP_VSA6>
3.5006065

>  <SlogP_VSA7>
34.85754

>  <SlogP_VSA8>
0

>  <SlogP_VSA9>
111.80659

>  <SMR>
7.1146998

>  <SMR_VSA0>
60.13924

>  <SMR_VSA1>
27.785418

>  <SMR_VSA2>
3.1243138

>  <SMR_VSA3>
8.7440348

>  <SMR_VSA4>
2.3279202

>  <SMR_VSA5>
34.85754

>  <SMR_VSA6>
24.121374

>  <SMR_VSA7>
151.14076

>  <TPSA>
77.959999

>  <VAdjEq>
0.5023343

>  <VAdjMa>
5.321928

>  <VDistEq>
3.0852919

>  <VDistMa>
8.1969194

>  <vdw_area>
286.43985

>  <vdw_vol>
299.35428

>  <vsa_acc>
44.310577

>  <vsa_acid>
0

>  <vsa_base>
0

>  <vsa_don>
0

>  <vsa_hyd>
172.26064

>  <vsa_other>
69.868629

>  <vsa_pol>
44.310577

>  <Weight>
324.681

>  <weinerPath>
715

>  <weinerPol>
29

>  <zagreb>
98

$$$$
O=C1C2=C(C=CC=C2)N=NN1CSP(=S)(OC)OC
  MOE2011           2D

 19 20  0  0  0  0  0  0  0  0999 V2000
    0.0000    0.0000    0.0000 O   0  0  0  0  0  0  0  0  0  0  0  0
    0.7600    1.2930    0.0000 C   0  0  0  0  0  0  0  0  0  0  0  0
    2.2600    1.2820    0.0000 C   0  0  0  0  0  0  0  0  0  0  0  0
    3.0190    2.5760    0.0000 C   0  0  0  0  0  0  0  0  0  0  0  0
    4.5190    2.5650    0.0000 C   0  0  0  0  0  0  0  0  0  0  0  0
    5.2590    1.2600    0.0000 C   0  0  0  0  0  0  0  0  0  0  0  0
    4.5000   -0.0330    0.0000 C   0  0  0  0  0  0  0  0  0  0  0  0
    3.0000   -0.0220    0.0000 C   0  0  0  0  0  0  0  0  0  0  0  0
    2.2790    3.8800    0.0000 N   0  0  0  0  0  0  0  0  0  0  0  0
    0.7790    3.8910    0.0000 N   0  0  0  0  0  0  0  0  0  0  0  0
    0.0190    2.5980    0.0000 N   0  0  0  0  0  0  0  0  0  0  0  0
   -1.4810    2.6090    0.0000 C   0  0  0  0  0  0  0  0  0  0  0  0
   -2.2210    3.9140    0.0000 S   0  0  0  0  0  0  0  0  0  0  0  0
   -3.7210    3.9250    0.0000 P   0  0  0  0  0  0  0  0  0  0  0  0
   -3.7320    2.4250    0.0000 S   0  0  0  0  0  0  0  0  0  0  0  0
   -5.2210    3.9360    0.0000 O   0  0  0  0  0  0  0  0  0  0  0  0
   -5.9810    2.6420    0.0000 C   0  0  0  0  0  0  0  0  0  0  0  0
   -3.7100    5.4250    0.0000 O   0  0  0  0  0  0  0  0  0  0  0  0
   -5.0030    6.1840    0.0000 C   0  0  0  0  0  0  0  0  0  0  0  0
  1  2  2  0  0  0  0
  2  3  1  0  0  0  0
  2 11  1  0  0  0  0
  3  4  1  0  0  0  0
  3  8  2  0  0  0  0
  4  5  2  0  0  0  0
  4  9  1  0  0  0  0
  5  6  1  0  0  0  0
  6  7  2  0  0  0  0
  7  8  1  0  0  0  0
  9 10  2  0  0  0  0
 10 11  1  0  0  0  0
 11 12  1  0  0  0  0
 12 13  1  0  0  0  0
 13 14  1  0  0  0  0
 14 15  2  0  0  0  0
 14 16  1  0  0  0  0
 14 18  1  0  0  0  0
 16 17  1  0  0  0  0
 18 19  1  0  0  0  0
M  END
>  <DSSTox_RID>
40347

>  <DSSTox_CID>
122

>  <apol>
40.737514

>  <a_acc>
5

>  <a_acid>
0

>  <a_aro>
6

>  <a_base>
0

>  <a_count>
31

>  <a_don>
0

>  <a_heavy>
19

>  <a_hyd>
9

>  <a_IC>
65.831482

>  <a_ICM>
2.1235962

>  <a_nB>
0

>  <a_nBr>
0

>  <a_nC>
10

>  <a_nCl>
0

>  <a_nF>
0

>  <a_nH>
12

>  <a_nI>
0

>  <a_nN>
3

>  <a_nO>
3

>  <a_nP>
1

>  <a_nS>
2

>  <balabanJ>
1.8802747

>  <BCUT_PEOE_0>
-2.4195697

>  <BCUT_PEOE_1>
-0.51405704

>  <BCUT_PEOE_2>
0.56413364

>  <BCUT_PEOE_3>
2.485599

>  <BCUT_SLOGP_0>
-2.4359405

>  <BCUT_SLOGP_1>
-0.41344836

>  <BCUT_SLOGP_2>
0.67064458

>  <BCUT_SLOGP_3>
2.7556317

>  <BCUT_SMR_0>
-2.1019228

>  <BCUT_SMR_1>
-0.34239003

>  <BCUT_SMR_2>
0.71217883

>  <BCUT_SMR_3>
2.8720813

>  <bpol>
26.228483

>  <b_1rotN>
5

>  <b_1rotR>
0.25

>  <b_ar>
6

>  <b_count>
32

>  <b_double>
2

>  <b_heavy>
20

>  <b_rotN>
5

>  <b_rotR>
0.25

>  <b_single>
24

>  <b_triple>
0

>  <chi0>
13.880469

>  <chi0v>
12.874024

>  <chi0v_C>
6.5165076

>  <chi0_C>
7.2675848

>  <chi1>
9.0934658

>  <chi1v>
9.5092182

>  <chi1v_C>
2.0773504

>  <chi1_C>
2.9831634

>  <chiral>
0

>  <chiral_u>
0

>  <density>
0.97561228

>  <diameter>
10

>  <FCharge>
0

>  <GCUT_PEOE_0>
-0.75745386

>  <GCUT_PEOE_1>
-0.4222793

>  <GCUT_PEOE_2>
-0.010599564

>  <GCUT_PEOE_3>
2.3140252

>  <GCUT_SLOGP_0>
-0.92990142

>  <GCUT_SLOGP_1>
-0.26346573

>  <GCUT_SLOGP_2>
0.14172117

>  <GCUT_SLOGP_3>
2.4520805

>  <GCUT_SMR_0>
-0.48716274

>  <GCUT_SMR_1>
-0.17733315

>  <GCUT_SMR_2>
0.21934801

>  <GCUT_SMR_3>
2.6316473

>  <Kier1>
15.39

>  <Kier2>
6.6352043

>  <Kier3>
3.5555556

>  <KierA1>
15.274665

>  <KierA2>
6.5826139

>  <KierA3>
3.5261812

>  <KierFlex>
5.2919593

>  <lip_acc>
6

>  <lip_don>
0

>  <lip_druglike>
1

>  <lip_violation>
0

>  <logP(o/w)>
1.484

>  <logS>
-3.83814

>  <mr>
7.9935627

>  <mutagenic>
1

>  <nmol>
1

>  <opr_brigid>
11

>  <opr_leadlike>
1

>  <opr_nring>
2

>  <opr_nrot>
5

>  <opr_violation>
0

>  <PC+>
0

>  <PC->
0

>  <PEOE_PC+>
1.5709893

>  <PEOE_PC->
-1.5709893

>  <PEOE_RPC+>
0.17824379

>  <PEOE_RPC->
0.31007665

>  <PEOE_VSA+0>
63.233978

>  <PEOE_VSA+1>
23.593134

>  <PEOE_VSA+2>
6.6995511

>  <PEOE_VSA+3>
0

>  <PEOE_VSA+4>
93.59243

>  <PEOE_VSA+5>
25.416878

>  <PEOE_VSA+6>
0

>  <PEOE_VSA-0>
0

>  <PEOE_VSA-1>
13.159503

>  <PEOE_VSA-2>
9.4210396

>  <PEOE_VSA-3>
0

>  <PEOE_VSA-4>
9.3319435

>  <PEOE_VSA-5>
13.566921

>  <PEOE_VSA-6>
33.008488

>  <PEOE_VSA_FHYD>
0.39896113

>  <PEOE_VSA_FNEG>
0.26969573

>  <PEOE_VSA_FPNEG>
0.19210573

>  <PEOE_VSA_FPOL>
0.60103887

>  <PEOE_VSA_FPOS>
0.73030424

>  <PEOE_VSA_FPPOS>
0.40893316

>  <PEOE_VSA_HYD>
116.10721

>  <PEOE_VSA_NEG>
78.487892

>  <PEOE_VSA_PNEG>
55.907352

>  <PEOE_VSA_POL>
174.91666

>  <PEOE_VSA_POS>
212.53596

>  <PEOE_VSA_PPOS>
119.00931

>  <petitjean>
0.5

>  <petitjeanSC>
1

>  <Q_PC+>
0

>  <Q_PC->
0

>  <Q_RPC+>
0

>  <Q_RPC->
0

>  <Q_VSA_FHYD>
1

>  <Q_VSA_FNEG>
0

>  <Q_VSA_FPNEG>
0

>  <Q_VSA_FPOL>
0

>  <Q_VSA_FPOS>
1

>  <Q_VSA_FPPOS>
0

>  <Q_VSA_HYD>
291.02386

>  <Q_VSA_NEG>
0

>  <Q_VSA_PNEG>
0

>  <Q_VSA_POL>
0

>  <Q_VSA_POS>
291.02386

>  <Q_VSA_PPOS>
0

>  <radius>
5

>  <reactive>
0

>  <rings>
2

>  <RPC+>
0

>  <RPC->
0

>  <rsynth>
1

>  <SlogP>
3.3491001

>  <SlogP_VSA0>
0

>  <SlogP_VSA1>
8.2605753

>  <SlogP_VSA2>
56.537235

>  <SlogP_VSA3>
16.804737

>  <SlogP_VSA4>
27.047791

>  <SlogP_VSA5>
103.97123

>  <SlogP_VSA6>
0

>  <SlogP_VSA7>
70.572739

>  <SlogP_VSA8>
0

>  <SlogP_VSA9>
40.213425

>  <SMR>
7.78895

>  <SMR_VSA0>
37.705479

>  <SMR_VSA1>
36.205284

>  <SMR_VSA2>
0

>  <SMR_VSA3>
3.185575

>  <SMR_VSA4>
2.7567475

>  <SMR_VSA5>
70.572739

>  <SMR_VSA6>
22.06352

>  <SMR_VSA7>
150.9184

>  <TPSA>
95.580002

>  <VAdjEq>
0.5023343

>  <VAdjMa>
5.321928

>  <VDistEq>
3.1208665

>  <VDistMa>
8.1895084

>  <vdw_area>
291.02386

>  <vdw_vol>
312.86404

>  <vsa_acc>
45.479408

>  <vsa_acid>
0

>  <vsa_base>
0

>  <vsa_don>
0

>  <vsa_hyd>
165.7345

>  <vsa_other>
79.809959

>  <vsa_pol>
45.479408

>  <Weight>
317.32999

>  <weinerPath>
728

>  <weinerPol>
30

>  <zagreb>
96

$$$$
N#CC1=CC=CC=C1OC2=NC=NC(OC3=CC=CC=C3/C(C(OC)=O)=C\OC)=C2
  MOE2011           2D

 30 32  0  0  0  0  0  0  0  0999 V2000
    0.0000    0.0000    0.0000 N   0  0  0  0  0  0  0  0  0  0  0  0
   -0.7510    1.2980    0.0000 C   0  0  0  0  0  0  0  0  0  0  0  0
   -1.5020    2.5970    0.0000 C   0  0  0  0  0  0  0  0  0  0  0  0
   -3.0020    2.5960    0.0000 C   0  0  0  0  0  0  0  0  0  0  0  0
   -3.7530    3.8940    0.0000 C   0  0  0  0  0  0  0  0  0  0  0  0
   -3.0040    5.1940    0.0000 C   0  0  0  0  0  0  0  0  0  0  0  0
   -1.5040    5.1950    0.0000 C   0  0  0  0  0  0  0  0  0  0  0  0
   -0.7530    3.8970    0.0000 C   0  0  0  0  0  0  0  0  0  0  0  0
    0.7470    3.8980    0.0000 O   0  0  0  0  0  0  0  0  0  0  0  0
    1.4960    5.1970    0.0000 C   0  0  0  0  0  0  0  0  0  0  0  0
    0.7450    6.4960    0.0000 N   0  0  0  0  0  0  0  0  0  0  0  0
    1.4940    7.7950    0.0000 C   0  0  0  0  0  0  0  0  0  0  0  0
    2.9940    7.7970    0.0000 N   0  0  0  0  0  0  0  0  0  0  0  0
    3.7450    6.4980    0.0000 C   0  0  0  0  0  0  0  0  0  0  0  0
    5.2450    6.4990    0.0000 O   0  0  0  0  0  0  0  0  0  0  0  0
    5.9940    7.7990    0.0000 C   0  0  0  0  0  0  0  0  0  0  0  0
    5.2430    9.0980    0.0000 C   0  0  0  0  0  0  0  0  0  0  0  0
    5.9920   10.3970    0.0000 C   0  0  0  0  0  0  0  0  0  0  0  0
    7.4920   10.3980    0.0000 C   0  0  0  0  0  0  0  0  0  0  0  0
    8.2430    9.1000    0.0000 C   0  0  0  0  0  0  0  0  0  0  0  0
    7.4940    7.8000    0.0000 C   0  0  0  0  0  0  0  0  0  0  0  0
    8.2450    6.5020    0.0000 C   0  0  0  0  0  0  0  0  0  0  0  0
    7.4960    5.2020    0.0000 C   0  0  0  0  0  0  0  0  0  0  0  0
    8.2470    3.9040    0.0000 O   0  0  0  0  0  0  0  0  0  0  0  0
    7.4980    2.6040    0.0000 C   0  0  0  0  0  0  0  0  0  0  0  0
    5.9960    5.2010    0.0000 O   0  0  0  0  0  0  0  0  0  0  0  0
    9.7450    6.5030    0.0000 C   0  0  0  0  0  0  0  0  0  0  0  0
   10.4940    7.8030    0.0000 O   0  0  0  0  0  0  0  0  0  0  0  0
   11.9940    7.8040    0.0000 C   0  0  0  0  0  0  0  0  0  0  0  0
    2.9960    5.1990    0.0000 C   0  0  0  0  0  0  0  0  0  0  0  0
  1  2  3  0  0  0  0
  2  3  1  0  0  0  0
  3  4  1  0  0  0  0
  3  8  2  0  0  0  0
  4  5  2  0  0  0  0
  5  6  1  0  0  0  0
  6  7  2  0  0  0  0
  7  8  1  0  0  0  0
  8  9  1  0  0  0  0
  9 10  1  0  0  0  0
 10 11  1  0  0  0  0
 10 30  2  0  0  0  0
 11 12  2  0  0  0  0
 12 13  1  0  0  0  0
 13 14  2  0  0  0  0
 14 15  1  0  0  0  0
 14 30  1  0  0  0  0
 15 16  1  0  0  0  0
 16 17  1  0  0  0  0
 16 21  2  0  0  0  0
 17 18  2  0  0  0  0
 18 19  1  0  0  0  0
 19 20  2  0  0  0  0
 20 21  1  0  0  0  0
 21 22  1  0  0  0  0
 22 23  1  0  0  0  0
 22 27  2  0  0  0  0
 23 24  1  0  0  0  0
 23 26  2  0  0  0  0
 24 25  1  0  0  0  0
 27 28  1  0  0  0  0
 28 29  1  0  0  0  0
M  END
>  <DSSTox_RID>
40348

>  <DSSTox_CID>
12520

>  <apol>
57.365482

>  <a_acc>
5

>  <a_acid>
0

>  <a_aro>
18

>  <a_base>
0

>  <a_count>
47

>  <a_don>
0

>  <a_heavy>
30

>  <a_hyd>
17

>  <a_IC>
77.106781

>  <a_ICM>
1.6405699

>  <a_nB>
0

>  <a_nBr>
0

>  <a_nC>
22

>  <a_nCl>
0

>  <a_nF>
0

>  <a_nH>
17

>  <a_nI>
0

>  <a_nN>
3

>  <a_nO>
5

>  <a_nP>
0

>  <a_nS>
0

>  <balabanJ>
1.5667281

>  <BCUT_PEOE_0>
-2.2706048

>  <BCUT_PEOE_1>
-0.57046211

>  <BCUT_PEOE_2>
0.6086123

>  <BCUT_PEOE_3>
2.288698

>  <BCUT_SLOGP_0>
-2.2702978

>  <BCUT_SLOGP_1>
-0.50571245

>  <BCUT_SLOGP_2>
0.71344978

>  <BCUT_SLOGP_3>
2.4191978

>  <BCUT_SMR_0>
-1.9877802

>  <BCUT_SMR_1>
-0.40684643

>  <BCUT_SMR_2>
0.77884591

>  <BCUT_SMR_3>
2.5878544

>  <bpol>
30.506519

>  <b_1rotN>
7

>  <b_1rotR>
0.21875

>  <b_ar>
18

>  <b_count>
49

>  <b_double>
2

>  <b_heavy>
32

>  <b_rotN>
9

>  <b_rotR>
0.28125

>  <b_single>
28

>  <b_triple>
1

>  <chi0>
21.346724

>  <chi0v>
16.233736

>  <chi0v_C>
12.850853

>  <chi0_C>
15.104083

>  <chi1>
14.655728

>  <chi1v>
8.7348881

>  <chi1v_C>
5.2707257

>  <chi1_C>
7.5993195

>  <chiral>
0

>  <chiral_u>
0

>  <density>
0.81146508

>  <diameter>
14

>  <FCharge>
0

>  <GCUT_PEOE_0>
-0.79398906

>  <GCUT_PEOE_1>
-0.45985913

>  <GCUT_PEOE_2>
0.061218008

>  <GCUT_PEOE_3>
2.4395437

>  <GCUT_SLOGP_0>
-0.84073311

>  <GCUT_SLOGP_1>
-0.33014768

>  <GCUT_SLOGP_2>
0.14696723

>  <GCUT_SLOGP_3>
2.5797937

>  <GCUT_SMR_0>
-0.48879763

>  <GCUT_SMR_1>
-0.19048429

>  <GCUT_SMR_2>
0.16849998

>  <GCUT_SMR_3>
2.7257671

>  <Kier1>
24.638672

>  <Kier2>
12.888889

>  <Kier3>
6.9976859

>  <KierA1>
16.906073

>  <KierA2>
8.7190952

>  <KierA3>
4.6863012

>  <KierFlex>
4.9135222

>  <lip_acc>
8

>  <lip_don>
0

>  <lip_druglike>
1

>  <lip_violation>
0

>  <logP(o/w)>
3.2539999

>  <logS>
-5.5113602

>  <mr>
11.130585

>  <mutagenic>
0

>  <nmol>
1

>  <opr_brigid>
19

>  <opr_leadlike>
1

>  <opr_nring>
3

>  <opr_nrot>
8

>  <opr_violation>
0

>  <PC+>
0

>  <PC->
0

>  <PEOE_PC+>
2.0470095

>  <PEOE_PC->
-2.0470095

>  <PEOE_RPC+>
0.14551173

>  <PEOE_RPC->
0.15903173

>  <PEOE_VSA+0>
128.6765

>  <PEOE_VSA+1>
20.225574

>  <PEOE_VSA+2>
59.275021

>  <PEOE_VSA+3>
97.215919

>  <PEOE_VSA+4>
24.790518

>  <PEOE_VSA+5>
14.708499

>  <PEOE_VSA+6>
0

>  <PEOE_VSA-0>
0

>  <PEOE_VSA-1>
0

>  <PEOE_VSA-2>
0

>  <PEOE_VSA-3>
29.107641

>  <PEOE_VSA-4>
0

>  <PEOE_VSA-5>
21.07819

>  <PEOE_VSA-6>
2.503756

>  <PEOE_VSA_FHYD>
0.84133834

>  <PEOE_VSA_FNEG>
0.13252521

>  <PEOE_VSA_FPNEG>
0.059313469

>  <PEOE_VSA_FPOL>
0.15866166

>  <PEOE_VSA_FPOS>
0.86747479

>  <PEOE_VSA_FPPOS>
0.099348195

>  <PEOE_VSA_HYD>
334.50064

>  <PEOE_VSA_NEG>
52.689587

>  <PEOE_VSA_PNEG>
23.581945

>  <PEOE_VSA_POL>
63.080963

>  <PEOE_VSA_POS>
344.89203

>  <PEOE_VSA_PPOS>
39.499016

>  <petitjean>
0.5

>  <petitjeanSC>
1

>  <Q_PC+>
0

>  <Q_PC->
0

>  <Q_RPC+>
0

>  <Q_RPC->
0

>  <Q_VSA_FHYD>
1

>  <Q_VSA_FNEG>
0

>  <Q_VSA_FPNEG>
0

>  <Q_VSA_FPOL>
0

>  <Q_VSA_FPOS>
1

>  <Q_VSA_FPPOS>
0

>  <Q_VSA_HYD>
397.5816

>  <Q_VSA_NEG>
0

>  <Q_VSA_PNEG>
0

>  <Q_VSA_POL>
0

>  <Q_VSA_POS>
397.5816

>  <Q_VSA_PPOS>
0

>  <radius>
7

>  <reactive>
0

>  <rings>
3

>  <RPC+>
0

>  <RPC->
0

>  <rsynth>
1

>  <SlogP>
4.093184

>  <SlogP_VSA0>
21.999775

>  <SlogP_VSA1>
41.316525

>  <SlogP_VSA2>
45.861992

>  <SlogP_VSA3>
47.661102

>  <SlogP_VSA4>
6.37115

>  <SlogP_VSA5>
70.767738

>  <SlogP_VSA6>
0

>  <SlogP_VSA7>
198.4608

>  <SlogP_VSA8>
0

>  <SlogP_VSA9>
20.116058

>  <SMR>
10.6781

>  <SMR_VSA0>
45.861992

>  <SMR_VSA1>
86.630188

>  <SMR_VSA2>
0

>  <SMR_VSA3>
43.088955

>  <SMR_VSA4>
3.185575

>  <SMR_VSA5>
195.27522

>  <SMR_VSA6>
7.7454643

>  <SMR_VSA7>
70.767738

>  <TPSA>
103.56

>  <VAdjEq>
0.37005648

>  <VAdjMa>
6

>  <VDistEq>
3.6553826

>  <VDistMa>
9.5262642

>  <vdw_area>
397.5816

>  <vdw_vol>
476.00073

>  <vsa_acc>
45.178318

>  <vsa_acid>
0

>  <vsa_base>
0

>  <vsa_don>
0

>  <vsa_hyd>
259.19443

>  <vsa_other>
93.208855

>  <vsa_pol>
45.178318

>  <Weight>
403.39398

>  <weinerPath>
2630

>  <weinerPol>
46

>  <zagreb>
148

$$$$
O=C(NC)OC1=CC=CC2=C1OC(C)(C)O2
  MOE2011           2D

 16 17  0  0  0  0  0  0  0  0999 V2000
    0.0000    0.0000    0.0000 O   0  0  0  0  0  0  0  0  0  0  0  0
   -0.7410   -1.3040    0.0000 C   0  0  0  0  0  0  0  0  0  0  0  0
    0.0190   -2.5980    0.0000 N   0  0  0  0  0  0  0  0  0  0  0  0
    1.5190   -2.5870    0.0000 C   0  0  0  0  0  0  0  0  0  0  0  0
   -2.2400   -1.3150    0.0000 O   0  0  0  0  0  0  0  0  0  0  0  0
   -3.0000   -0.0220    0.0000 C   0  0  0  0  0  0  0  0  0  0  0  0
   -2.2590    1.2830    0.0000 C   0  0  0  0  0  0  0  0  0  0  0  0
   -3.0190    2.5760    0.0000 C   0  0  0  0  0  0  0  0  0  0  0  0
   -4.5190    2.5650    0.0000 C   0  0  0  0  0  0  0  0  0  0  0  0
   -5.2590    1.2610    0.0000 C   0  0  0  0  0  0  0  0  0  0  0  0
   -4.5000   -0.0330    0.0000 C   0  0  0  0  0  0  0  0  0  0  0  0
   -5.4950   -1.1550    0.0000 O   0  0  0  0  0  0  0  0  0  0  0  0
   -6.8700   -0.5550    0.0000 C   0  0  0  0  0  0  0  0  0  0  0  0
   -8.3690   -0.4870    0.0000 C   0  0  0  0  0  0  0  0  0  0  0  0
   -7.6330   -1.8460    0.0000 C   0  0  0  0  0  0  0  0  0  0  0  0
   -6.7240    0.9380    0.0000 O   0  0  0  0  0  0  0  0  0  0  0  0
  1  2  2  0  0  0  0
  2  3  1  0  0  0  0
  2  5  1  0  0  0  0
  3  4  1  0  0  0  0
  5  6  1  0  0  0  0
  6  7  1  0  0  0  0
  6 11  2  0  0  0  0
  7  8  2  0  0  0  0
  8  9  1  0  0  0  0
  9 10  2  0  0  0  0
 10 11  1  0  0  0  0
 10 16  1  0  0  0  0
 11 12  1  0  0  0  0
 12 13  1  0  0  0  0
 13 14  1  0  0  0  0
 13 15  1  0  0  0  0
 13 16  1  0  0  0  0
M  END
>  <DSSTox_RID>
40349

>  <DSSTox_CID>
12327

>  <apol>
32.336308

>  <a_acc>
3

>  <a_acid>
0

>  <a_aro>
6

>  <a_base>
0

>  <a_count>
29

>  <a_don>
1

>  <a_heavy>
16

>  <a_hyd>
9

>  <a_IC>
46.721985

>  <a_ICM>
1.6111029

>  <a_nB>
0

>  <a_nBr>
0

>  <a_nC>
11

>  <a_nCl>
0

>  <a_nF>
0

>  <a_nH>
13

>  <a_nI>
0

>  <a_nN>
1

>  <a_nO>
4

>  <a_nP>
0

>  <a_nS>
0

>  <balabanJ>
1.9977328

>  <BCUT_PEOE_0>
-2.4796321

>  <BCUT_PEOE_1>
-0.5171079

>  <BCUT_PEOE_2>
0.53591049

>  <BCUT_PEOE_3>
2.5726221

>  <BCUT_SLOGP_0>
-2.555934

>  <BCUT_SLOGP_1>
-0.36980036

>  <BCUT_SLOGP_2>
0.61208075

>  <BCUT_SLOGP_3>
2.6047795

>  <BCUT_SMR_0>
-2.2741601

>  <BCUT_SMR_1>
-0.34724936

>  <BCUT_SMR_2>
0.72212064

>  <BCUT_SMR_3>
2.7921858

>  <bpol>
21.57769

>  <b_1rotN>
1

>  <b_1rotR>
0.05882353

>  <b_ar>
6

>  <b_count>
30

>  <b_double>
1

>  <b_heavy>
17

>  <b_rotN>
3

>  <b_rotR>
0.17647059

>  <b_single>
23

>  <b_triple>
0

>  <chi0>
11.759149

>  <chi0v>
9.3650436

>  <chi0v_C>
7.2320509

>  <chi0_C>
7.9307213

>  <chi1>
7.5159683

>  <chi1v>
4.9228859

>  <chi1v_C>
2.7440169

>  <chi1_C>
3.4831634

>  <chiral>
0

>  <chiral_u>
0

>  <density>
0.84975737

>  <diameter>
8

>  <FCharge>
0

>  <GCUT_PEOE_0>
-0.82066327

>  <GCUT_PEOE_1>
-0.42060885

>  <GCUT_PEOE_2>
-0.012003509

>  <GCUT_PEOE_3>
2.369112

>  <GCUT_SLOGP_0>
-1.1624451

>  <GCUT_SLOGP_1>
-0.27298772

>  <GCUT_SLOGP_2>
0.11738137

>  <GCUT_SLOGP_3>
2.4886808

>  <GCUT_SMR_0>
-0.5264163

>  <GCUT_SMR_1>
-0.19308551

>  <GCUT_SMR_2>
0.15208694

>  <GCUT_SMR_3>
2.6185589

>  <Kier1>
12.456747

>  <Kier2>
4.704

>  <Kier3>
2.8311112

>  <KierA1>
9.6493835

>  <KierA2>
3.576375

>  <KierA3>
2.1223438

>  <KierFlex>
2.1568635

>  <lip_acc>
5

>  <lip_don>
1

>  <lip_druglike>
1

>  <lip_violation>
0

>  <logP(o/w)>
2.5220001

>  <logS>
-2.5322399

>  <mr>
5.7377529

>  <mutagenic>
0

>  <nmol>
1

>  <opr_brigid>
10

>  <opr_leadlike>
1

>  <opr_nring>
2

>  <opr_nrot>
1

>  <opr_violation>
0

>  <PC+>
0

>  <PC->
0

>  <PEOE_PC+>
1.3150165

>  <PEOE_PC->
-1.3150165

>  <PEOE_RPC+>
0.29503185

>  <PEOE_RPC->
0.23392339

>  <PEOE_VSA+0>
47.425484

>  <PEOE_VSA+1>
58.816898

>  <PEOE_VSA+2>
25.375559

>  <PEOE_VSA+3>
35.008007

>  <PEOE_VSA+4>
0

>  <PEOE_VSA+5>
0

>  <PEOE_VSA+6>
19.199511

>  <PEOE_VSA-0>
0

>  <PEOE_VSA-1>
0

>  <PEOE_VSA-2>
0

>  <PEOE_VSA-3>
0

>  <PEOE_VSA-4>
19.249496

>  <PEOE_VSA-5>
2.503756

>  <PEOE_VSA-6>
5.0075121

>  <PEOE_VSA_FHYD>
0.78380406

>  <PEOE_VSA_FNEG>
0.12588194

>  <PEOE_VSA_FPNEG>
0.12588194

>  <PEOE_VSA_FPOL>
0.21619593

>  <PEOE_VSA_FPOS>
0.87411809

>  <PEOE_VSA_FPPOS>
0.090313993

>  <PEOE_VSA_HYD>
166.62595

>  <PEOE_VSA_NEG>
26.760765

>  <PEOE_VSA_PNEG>
26.760765

>  <PEOE_VSA_POL>
45.960278

>  <PEOE_VSA_POS>
185.82545

>  <PEOE_VSA_PPOS>
19.199511

>  <petitjean>
0.5

>  <petitjeanSC>
1

>  <Q_PC+>
0

>  <Q_PC->
0

>  <Q_RPC+>
0

>  <Q_RPC->
0

>  <Q_VSA_FHYD>
1

>  <Q_VSA_FNEG>
0

>  <Q_VSA_FPNEG>
0

>  <Q_VSA_FPOL>
0

>  <Q_VSA_FPOS>
1

>  <Q_VSA_FPPOS>
0

>  <Q_VSA_HYD>
212.58623

>  <Q_VSA_NEG>
0

>  <Q_VSA_PNEG>
0

>  <Q_VSA_POL>
0

>  <Q_VSA_POS>
212.58623

>  <Q_VSA_PPOS>
0

>  <radius>
4

>  <reactive>
0

>  <rings>
2

>  <RPC+>
0

>  <RPC->
0

>  <rsynth>
1

>  <SlogP>
1.9121

>  <SlogP_VSA0>
51.010414

>  <SlogP_VSA1>
7.3166366

>  <SlogP_VSA2>
0

>  <SlogP_VSA3>
0

>  <SlogP_VSA4>
0

>  <SlogP_VSA5>
32.897186

>  <SlogP_VSA6>
0

>  <SlogP_VSA7>
52.929554

>  <SlogP_VSA8>
0

>  <SlogP_VSA9>
106.24453

>  <SMR>
5.68607

>  <SMR_VSA0>
23.862217

>  <SMR_VSA1>
32.999664

>  <SMR_VSA2>
18.01075

>  <SMR_VSA3>
15.730285

>  <SMR_VSA4>
0

>  <SMR_VSA5>
52.929554

>  <SMR_VSA6>
7.3166366

>  <SMR_VSA7>
99.549217

>  <TPSA>
56.790001

>  <VAdjEq>
0.56510133

>  <VAdjMa>
5.0874629

>  <VDistEq>
2.7936115

>  <VDistMa>
7.7074618

>  <vdw_area>
212.58623

>  <vdw_vol>
247.27528

>  <vsa_acc>
18.574432

>  <vsa_acid>
0

>  <vsa_base>
0

>  <vsa_don>
5.6825762

>  <vsa_hyd>
165.5174

>  <vsa_other>
22.811811

>  <vsa_pol>
24.25701

>  <Weight>
223.228

>  <weinerPath>
425

>  <weinerPol>
22

>  <zagreb>
84

$$$$
[O-][N+](=O)c1cc(cc([N+]([O-])=O)c1N(CCCC)CC)C(F)(F)F
  MOE2011           2D

 23 23  0  0  1  0  0  0  0  0999 V2000
    0.0000    0.0000    0.0000 O   0  5  0  0  0  0  0  0  0  0  0  0
    0.7390   -1.3050    0.0000 N   0  3  0  0  0  0  0  0  0  0  0  0
    2.2390   -1.3170    0.0000 O   0  0  0  0  0  0  0  0  0  0  0  0
   -0.0210   -2.5980    0.0000 C   0  0  0  0  0  0  0  0  0  0  0  0
   -1.5210   -2.5860    0.0000 C   0  0  0  0  0  0  0  0  0  0  0  0
   -2.2820   -3.8790    0.0000 C   0  0  0  0  0  0  0  0  0  0  0  0
   -1.5420   -5.1840    0.0000 C   0  0  0  0  0  0  0  0  0  0  0  0
   -0.0420   -5.1960    0.0000 C   0  0  0  0  0  0  0  0  0  0  0  0
    0.6970   -6.5010    0.0000 N   0  3  0  0  0  0  0  0  0  0  0  0
    2.1970   -6.5130    0.0000 O   0  5  0  0  0  0  0  0  0  0  0  0
   -0.0630   -7.7940    0.0000 O   0  0  0  0  0  0  0  0  0  0  0  0
    0.7180   -3.9030    0.0000 C   0  0  0  0  0  0  0  0  0  0  0  0
    2.2180   -3.9150    0.0000 N   0  0  0  0  0  0  0  0  0  0  0  0
    2.9580   -5.2200    0.0000 C   0  0  0  0  0  0  0  0  0  0  0  0
    4.4580   -5.2330    0.0000 C   0  0  0  0  0  0  0  0  0  0  0  0
    5.1970   -6.5380    0.0000 C   0  0  0  0  0  0  0  0  0  0  0  0
    6.6970   -6.5500    0.0000 C   0  0  0  0  0  0  0  0  0  0  0  0
    2.9790   -2.6220    0.0000 C   0  0  0  0  0  0  0  0  0  0  0  0
    4.4790   -2.6350    0.0000 C   0  0  0  0  0  0  0  0  0  0  0  0
   -3.7820   -3.8670    0.0000 C   0  0  0  0  0  0  0  0  0  0  0  0
   -5.2810   -3.8540    0.0000 F   0  0  0  0  0  0  0  0  0  0  0  0
   -3.7690   -2.3670    0.0000 F   0  0  0  0  0  0  0  0  0  0  0  0
   -3.7940   -5.3660    0.0000 F   0  0  0  0  0  0  0  0  0  0  0  0
  1  2  1  0  0  0  0
  2  3  2  0  0  0  0
  2  4  1  0  0  0  0
  4  5  1  0  0  0  0
  4 12  2  0  0  0  0
  5  6  2  0  0  0  0
  6  7  1  0  0  0  0
  6 20  1  0  0  0  0
  7  8  2  0  0  0  0
  8  9  1  0  0  0  0
  8 12  1  0  0  0  0
  9 10  1  0  0  0  0
  9 11  2  0  0  0  0
 12 13  1  0  0  0  0
 13 14  1  0  0  0  0
 13 18  1  0  0  0  0
 14 15  1  0  0  0  0
 15 16  1  0  0  0  0
 16 17  1  0  0  0  0
 18 19  1  0  0  0  0
 20 21  1  0  0  0  0
 20 22  1  0  0  0  0
 20 23  1  0  0  0  0
M  CHG  1   1  -1
M  CHG  1   2   1
M  CHG  1   9   1
M  CHG  1  10  -1
M  END
>  <DSSTox_RID>
40350

>  <DSSTox_CID>
3899

>  <apol>
41.727688

>  <a_acc>
0

>  <a_acid>
0

>  <a_aro>
6

>  <a_base>
0

>  <a_count>
39

>  <a_don>
0

>  <a_heavy>
23

>  <a_hyd>
18

>  <a_IC>
76.515198

>  <a_ICM>
1.9619281

>  <a_nB>
0

>  <a_nBr>
0

>  <a_nC>
13

>  <a_nCl>
0

>  <a_nF>
3

>  <a_nH>
16

>  <a_nI>
0

>  <a_nN>
3

>  <a_nO>
4

>  <a_nP>
0

>  <a_nS>
0

>  <balabanJ>
3.1151929

>  <BCUT_PEOE_0>
-2.6468494

>  <BCUT_PEOE_1>
-0.25828469

>  <BCUT_PEOE_2>
0.052925855

>  <BCUT_PEOE_3>
2.5890961

>  <BCUT_SLOGP_0>
-2.6628897

>  <BCUT_SLOGP_1>
0.033500001

>  <BCUT_SLOGP_2>
0.42019999

>  <BCUT_SLOGP_3>
2.6619647

>  <BCUT_SMR_0>
-2.3775089

>  <BCUT_SMR_1>
0.1057

>  <BCUT_SMR_2>
0.33669999

>  <BCUT_SMR_3>
2.8556566

>  <bpol>
25.592312

>  <b_1rotN>
7

>  <b_1rotR>
0.30434781

>  <b_ar>
6

>  <b_count>
39

>  <b_double>
2

>  <b_heavy>
23

>  <b_rotN>
8

>  <b_rotR>
0.34782609

>  <b_single>
31

>  <b_triple>
0

>  <chi0>
17.784092

>  <chi0v>
12.591655

>  <chi0v_C>
8.4831276

>  <chi0_C>
9.052042

>  <chi1>
10.628447

>  <chi1v>
6.9194336

>  <chi1v_C>
4.3189139

>  <chi1_C>
5.0025487

>  <chiral>
0

>  <chiral_u>
0

>  <density>
0.97364116

>  <diameter>
10

>  <FCharge>
0

>  <GCUT_PEOE_0>
-0.82378995

>  <GCUT_PEOE_1>
-0.41828468

>  <GCUT_PEOE_2>
-0.1171416

>  <GCUT_PEOE_3>
2.6406236

>  <GCUT_SLOGP_0>
-0.98098391

>  <GCUT_SLOGP_1>
-0.1265

>  <GCUT_SLOGP_2>
0.26019999

>  <GCUT_SLOGP_3>
2.7183931

>  <GCUT_SMR_0>
-0.52814001

>  <GCUT_SMR_1>
-0.054299999

>  <GCUT_SMR_2>
0.1767

>  <GCUT_SMR_3>
2.8581979

>  <Kier1>
21.043478

>  <Kier2>
8.909091

>  <Kier3>
5.5

>  <KierA1>
16.33699

>  <KierA2>
6.8311534

>  <KierA3>
4.1775932

>  <KierFlex>
4.8521953

>  <lip_acc>
7

>  <lip_don>
0

>  <lip_druglike>
1

>  <lip_violation>
0

>  <logP(o/w)>
4.4337602

>  <logS>
-5.3207102

>  <mr>
7.5288539

>  <mutagenic>
0

>  <nmol>
1

>  <opr_brigid>
6

>  <opr_leadlike>
1

>  <opr_nring>
1

>  <opr_nrot>
7

>  <opr_violation>
0

>  <PC+>
0

>  <PC->
0

>  <PEOE_PC+>
1.7728769

>  <PEOE_PC->
-1.7728769

>  <PEOE_RPC+>
0.23632483

>  <PEOE_RPC->
0.14567782

>  <PEOE_VSA+0>
90.433891

>  <PEOE_VSA+1>
82.480606

>  <PEOE_VSA+2>
0

>  <PEOE_VSA+3>
6.6995511

>  <PEOE_VSA+4>
0

>  <PEOE_VSA+5>
0

>  <PEOE_VSA+6>
22.444605

>  <PEOE_VSA-0>
0

>  <PEOE_VSA-1>
0

>  <PEOE_VSA-2>
0

>  <PEOE_VSA-3>
35.725906

>  <PEOE_VSA-4>
0

>  <PEOE_VSA-5>
67.862099

>  <PEOE_VSA-6>
0

>  <PEOE_VSA_FHYD>
0.70453888

>  <PEOE_VSA_FNEG>
0.33891425

>  <PEOE_VSA_FPNEG>
0.22202794

>  <PEOE_VSA_FPOL>
0.29546112

>  <PEOE_VSA_FPOS>
0.66108578

>  <PEOE_VSA_FPPOS>
0.073433176

>  <PEOE_VSA_HYD>
215.33995

>  <PEOE_VSA_NEG>
103.58801

>  <PEOE_VSA_PNEG>
67.862099

>  <PEOE_VSA_POL>
90.306702

>  <PEOE_VSA_POS>
202.05865

>  <PEOE_VSA_PPOS>
22.444605

>  <petitjean>
0.5

>  <petitjeanSC>
1

>  <Q_PC+>
0

>  <Q_PC->
0

>  <Q_RPC+>
0

>  <Q_RPC->
0

>  <Q_VSA_FHYD>
1

>  <Q_VSA_FNEG>
0

>  <Q_VSA_FPNEG>
0

>  <Q_VSA_FPOL>
0

>  <Q_VSA_FPOS>
1

>  <Q_VSA_FPPOS>
0

>  <Q_VSA_HYD>
305.64667

>  <Q_VSA_NEG>
0

>  <Q_VSA_PNEG>
0

>  <Q_VSA_POL>
0

>  <Q_VSA_POS>
305.64667

>  <Q_VSA_PPOS>
0

>  <radius>
5

>  <reactive>
0

>  <rings>
1

>  <RPC+>
0

>  <RPC->
0

>  <rsynth>
1

>  <SlogP>
4.4597001

>  <SlogP_VSA0>
3.1243138

>  <SlogP_VSA1>
14.171232

>  <SlogP_VSA2>
0

>  <SlogP_VSA3>
138.74918

>  <SlogP_VSA4>
3.185575

>  <SlogP_VSA5>
0

>  <SlogP_VSA6>
7.7595162

>  <SlogP_VSA7>
35.286369

>  <SlogP_VSA8>
37.736813

>  <SlogP_VSA9>
119.80261

>  <SMR>
7.76648

>  <SMR_VSA0>
14.171232

>  <SMR_VSA1>
44.880341

>  <SMR_VSA2>
112.75385

>  <SMR_VSA3>
3.185575

>  <SMR_VSA4>
8.2702427

>  <SMR_VSA5>
73.023178

>  <SMR_VSA6>
36.879158

>  <SMR_VSA7>
66.652031

>  <TPSA>
94.879997

>  <VAdjEq>
0.42622864

>  <VAdjMa>
5.523562

>  <VDistEq>
3.0235775

>  <VDistMa>
8.8077784

>  <vdw_area>
305.64667

>  <vdw_vol>
327.79425

>  <vsa_acc>
0

>  <vsa_acid>
0

>  <vsa_base>
0

>  <vsa_don>
0

>  <vsa_hyd>
237.78456

>  <vsa_other>
67.862099

>  <vsa_pol>
0

>  <Weight>
335.28198

>  <weinerPath>
1098

>  <weinerPol>
37

>  <zagreb>
112

$$$$
CCCCNC(=O)n1c2ccccc2nc1NC(=O)OC
  MOE2011           2D

 21 22  0  0  0  0  0  0  0  0999 V2000
    0.0000    0.0000    0.0000 C   0  0  0  0  0  0  0  0  0  0  0  0
   -1.4740   -0.2780    0.0000 C   0  0  0  0  0  0  0  0  0  0  0  0
   -2.4520    0.8590    0.0000 C   0  0  0  0  0  0  0  0  0  0  0  0
   -3.9260    0.5810    0.0000 C   0  0  0  0  0  0  0  0  0  0  0  0
   -4.9040    1.7180    0.0000 N   0  0  0  0  0  0  0  0  0  0  0  0
   -6.3780    1.4400    0.0000 C   0  0  0  0  0  0  0  0  0  0  0  0
   -6.8740    0.0250    0.0000 O   0  0  0  0  0  0  0  0  0  0  0  0
   -7.3560    2.5780    0.0000 N   0  0  0  0  0  0  0  0  0  0  0  0
   -7.0100    4.0370    0.0000 C   0  0  0  0  0  0  0  0  0  0  0  0
   -5.6940    4.7570    0.0000 C   0  0  0  0  0  0  0  0  0  0  0  0
   -5.6600    6.2570    0.0000 C   0  0  0  0  0  0  0  0  0  0  0  0
   -6.9420    7.0370    0.0000 C   0  0  0  0  0  0  0  0  0  0  0  0
   -8.2580    6.3160    0.0000 C   0  0  0  0  0  0  0  0  0  0  0  0
   -8.2920    4.8170    0.0000 C   0  0  0  0  0  0  0  0  0  0  0  0
   -9.4290    3.8390    0.0000 N   0  0  0  0  0  0  0  0  0  0  0  0
   -8.8510    2.4550    0.0000 C   0  0  0  0  0  0  0  0  0  0  0  0
   -9.6300    1.1730    0.0000 N   0  0  0  0  0  0  0  0  0  0  0  0
  -11.1300    1.2080    0.0000 C   0  0  0  0  0  0  0  0  0  0  0  0
  -11.8500    2.5240    0.0000 O   0  0  0  0  0  0  0  0  0  0  0  0
  -11.9090   -0.0740    0.0000 O   0  0  0  0  0  0  0  0  0  0  0  0
  -13.4090   -0.0390    0.0000 C   0  0  0  0  0  0  0  0  0  0  0  0
  1  2  1  0  0  0  0
  2  3  1  0  0  0  0
  3  4  1  0  0  0  0
  4  5  1  0  0  0  0
  5  6  1  0  0  0  0
  6  7  2  0  0  0  0
  6  8  1  0  0  0  0
  8  9  1  0  0  0  0
  8 16  1  0  0  0  0
  9 10  1  0  0  0  0
  9 14  2  0  0  0  0
 10 11  2  0  0  0  0
 11 12  1  0  0  0  0
 12 13  2  0  0  0  0
 13 14  1  0  0  0  0
 14 15  1  0  0  0  0
 15 16  2  0  0  0  0
 16 17  1  0  0  0  0
 17 18  1  0  0  0  0
 18 19  2  0  0  0  0
 18 20  1  0  0  0  0
 20 21  1  0  0  0  0
M  END
>  <DSSTox_RID>
40351

>  <DSSTox_CID>
3900

>  <apol>
43.448273

>  <a_acc>
3

>  <a_acid>
0

>  <a_aro>
9

>  <a_base>
0

>  <a_count>
39

>  <a_don>
2

>  <a_heavy>
21

>  <a_hyd>
11

>  <a_IC>
65.014183

>  <a_ICM>
1.6670302

>  <a_nB>
0

>  <a_nBr>
0

>  <a_nC>
14

>  <a_nCl>
0

>  <a_nF>
0

>  <a_nH>
18

>  <a_nI>
0

>  <a_nN>
4

>  <a_nO>
3

>  <a_nP>
0

>  <a_nS>
0

>  <balabanJ>
1.9978069

>  <BCUT_PEOE_0>
-2.5984397

>  <BCUT_PEOE_1>
-0.56809425

>  <BCUT_PEOE_2>
0.59527874

>  <BCUT_PEOE_3>
2.5401661

>  <BCUT_SLOGP_0>
-2.6524544

>  <BCUT_SLOGP_1>
-0.48843342

>  <BCUT_SLOGP_2>
0.68236548

>  <BCUT_SLOGP_3>
2.6346967

>  <BCUT_SMR_0>
-2.3450711

>  <BCUT_SMR_1>
-0.41311544

>  <BCUT_SMR_2>
0.74794751

>  <BCUT_SMR_3>
2.7943161

>  <bpol>
28.129726

>  <b_1rotN>
5

>  <b_1rotR>
0.22727273

>  <b_ar>
10

>  <b_count>
40

>  <b_double>
2

>  <b_heavy>
22

>  <b_rotN>
8

>  <b_rotR>
0.36363637

>  <b_single>
28

>  <b_triple>
0

>  <chi0>
15.242276

>  <chi0v>
12.049893

>  <chi0v_C>
8.9307213

>  <chi0_C>
9.8364992

>  <chi1>
10.168234

>  <chi1v>
6.7766652

>  <chi1v_C>
3.534457

>  <chi1_C>
4.3569369

>  <chiral>
0

>  <chiral_u>
0

>  <density>
0.82887137

>  <diameter>
11

>  <FCharge>
0

>  <GCUT_PEOE_0>
-0.82575226

>  <GCUT_PEOE_1>
-0.4269166

>  <GCUT_PEOE_2>
0.077727608

>  <GCUT_PEOE_3>
2.4665058

>  <GCUT_SLOGP_0>
-1.1621149

>  <GCUT_SLOGP_1>
-0.31036633

>  <GCUT_SLOGP_2>
0.16645534

>  <GCUT_SLOGP_3>
2.5146406

>  <GCUT_SMR_0>
-0.52767891

>  <GCUT_SMR_1>
-0.20471968

>  <GCUT_SMR_2>
0.17945459

>  <GCUT_SMR_3>
2.7480352

>  <Kier1>
17.355371

>  <Kier2>
8.5850182

>  <Kier3>
4.4875345

>  <KierA1>
12.327394

>  <KierA2>
5.9841623

>  <KierA3>
3.0829072

>  <KierFlex>
3.5128155

>  <lip_acc>
7

>  <lip_don>
2

>  <lip_druglike>
1

>  <lip_violation>
0

>  <logP(o/w)>
2.1040001

>  <logS>
-3.85197

>  <mr>
7.8954291

>  <mutagenic>
0

>  <nmol>
1

>  <opr_brigid>
10

>  <opr_leadlike>
1

>  <opr_nring>
2

>  <opr_nrot>
5

>  <opr_violation>
0

>  <PC+>
0

>  <PC->
0

>  <PEOE_PC+>
1.5648547

>  <PEOE_PC->
-1.5648547

>  <PEOE_RPC+>
0.24954328

>  <PEOE_RPC->
0.17910506

>  <PEOE_VSA+0>
124.25941

>  <PEOE_VSA+1>
6.6995511

>  <PEOE_VSA+2>
26.999058

>  <PEOE_VSA+3>
35.658428

>  <PEOE_VSA+4>
15.681574

>  <PEOE_VSA+5>
0

>  <PEOE_VSA+6>
36.640053

>  <PEOE_VSA-0>
0

>  <PEOE_VSA-1>
0

>  <PEOE_VSA-2>
5.6825762

>  <PEOE_VSA-3>
0

>  <PEOE_VSA-4>
38.498993

>  <PEOE_VSA-5>
2.503756

>  <PEOE_VSA-6>
0

>  <PEOE_VSA_FHYD>
0.68107688

>  <PEOE_VSA_FNEG>
0.15954064

>  <PEOE_VSA_FPNEG>
0.14012122

>  <PEOE_VSA_FPOL>
0.31892315

>  <PEOE_VSA_FPOS>
0.84045935

>  <PEOE_VSA_FPPOS>
0.17880192

>  <PEOE_VSA_HYD>
199.29903

>  <PEOE_VSA_NEG>
46.685326

>  <PEOE_VSA_PNEG>
41.00275

>  <PEOE_VSA_POL>
93.324379

>  <PEOE_VSA_POS>
245.93808

>  <PEOE_VSA_PPOS>
52.321629

>  <petitjean>
0.45454547

>  <petitjeanSC>
0.83333331

>  <Q_PC+>
0

>  <Q_PC->
0

>  <Q_RPC+>
0

>  <Q_RPC->
0

>  <Q_VSA_FHYD>
1

>  <Q_VSA_FNEG>
0

>  <Q_VSA_FPNEG>
0

>  <Q_VSA_FPOL>
0

>  <Q_VSA_FPOS>
1

>  <Q_VSA_FPPOS>
0

>  <Q_VSA_HYD>
292.62341

>  <Q_VSA_NEG>
0

>  <Q_VSA_PNEG>
0

>  <Q_VSA_POL>
0

>  <Q_VSA_POS>
292.62341

>  <Q_VSA_PPOS>
0

>  <radius>
6

>  <reactive>
0

>  <rings>
2

>  <RPC+>
0

>  <RPC->
0

>  <rsynth>
1

>  <SlogP>
2.5724001

>  <SlogP_VSA0>
18.01075

>  <SlogP_VSA1>
48.841965

>  <SlogP_VSA2>
10.999887

>  <SlogP_VSA3>
18.439579

>  <SlogP_VSA4>
0

>  <SlogP_VSA5>
35.383869

>  <SlogP_VSA6>
0

>  <SlogP_VSA7>
74.861008

>  <SlogP_VSA8>
37.736813

>  <SlogP_VSA9>
82.949539

>  <SMR>
7.9465399

>  <SMR_VSA0>
58.724319

>  <SMR_VSA1>
18.684622

>  <SMR_VSA2>
18.01075

>  <SMR_VSA3>
0

>  <SMR_VSA4>
24.198118

>  <SMR_VSA5>
108.30955

>  <SMR_VSA6>
30.58617

>  <SMR_VSA7>
68.709885

>  <TPSA>
85.25

>  <VAdjEq>
0.46827638

>  <VAdjMa>
5.4594316

>  <VDistEq>
3.1789336

>  <VDistMa>
8.5048504

>  <vdw_area>
292.62341

>  <vdw_vol>
328.37302

>  <vsa_acc>
32.816418

>  <vsa_acid>
0

>  <vsa_base>
0

>  <vsa_don>
11.365152

>  <vsa_hyd>
193.61646

>  <vsa_other>
54.825382

>  <vsa_pol>
44.181568

>  <Weight>
290.323

>  <weinerPath>
944

>  <weinerPol>
30

>  <zagreb>
102

$$$$
S(=O)(=O)(C1=CC=CC=C1)NCCSP(=S)(OC(C)C)OC(C)C
  MOE2011           2D

 23 23  0  0  0  0  0  0  0  0999 V2000
    0.0000    0.0000    0.0000 S   0  0  0  0  0  0  0  0  0  0  0  0
    0.7520    1.2980    0.0000 O   0  0  0  0  0  0  0  0  0  0  0  0
   -0.7520   -1.2980    0.0000 O   0  0  0  0  0  0  0  0  0  0  0  0
    1.2980   -0.7520    0.0000 C   0  0  0  0  0  0  0  0  0  0  0  0
    2.5980   -0.0030    0.0000 C   0  0  0  0  0  0  0  0  0  0  0  0
    3.8960   -0.7550    0.0000 C   0  0  0  0  0  0  0  0  0  0  0  0
    3.8940   -2.2550    0.0000 C   0  0  0  0  0  0  0  0  0  0  0  0
    2.5940   -3.0030    0.0000 C   0  0  0  0  0  0  0  0  0  0  0  0
    1.2960   -2.2520    0.0000 C   0  0  0  0  0  0  0  0  0  0  0  0
   -1.2980    0.7520    0.0000 N   0  0  0  0  0  0  0  0  0  0  0  0
   -2.5980    0.0030    0.0000 C   0  0  0  0  0  0  0  0  0  0  0  0
   -3.8960    0.7550    0.0000 C   0  0  0  0  0  0  0  0  0  0  0  0
   -5.1960    0.0060    0.0000 S   0  0  0  0  0  0  0  0  0  0  0  0
   -6.4940    0.7580    0.0000 P   0  0  0  0  0  0  0  0  0  0  0  0
   -7.7920    1.5100    0.0000 S   0  0  0  0  0  0  0  0  0  0  0  0
   -7.2460   -0.5400    0.0000 O   0  0  0  0  0  0  0  0  0  0  0  0
   -8.7460   -0.5380    0.0000 C   0  0  0  0  0  0  0  0  0  0  0  0
   -9.4940    0.7620    0.0000 C   0  0  0  0  0  0  0  0  0  0  0  0
   -9.4970   -1.8360    0.0000 C   0  0  0  0  0  0  0  0  0  0  0  0
   -5.7430    2.0560    0.0000 O   0  0  0  0  0  0  0  0  0  0  0  0
   -6.4910    3.3560    0.0000 C   0  0  0  0  0  0  0  0  0  0  0  0
   -5.7400    4.6540    0.0000 C   0  0  0  0  0  0  0  0  0  0  0  0
   -7.9910    3.3580    0.0000 C   0  0  0  0  0  0  0  0  0  0  0  0
  1  2  2  0  0  0  0
  1  3  2  0  0  0  0
  1  4  1  0  0  0  0
  1 10  1  0  0  0  0
  4  5  1  0  0  0  0
  4  9  2  0  0  0  0
  5  6  2  0  0  0  0
  6  7  1  0  0  0  0
  7  8  2  0  0  0  0
  8  9  1  0  0  0  0
 10 11  1  0  0  0  0
 11 12  1  0  0  0  0
 12 13  1  0  0  0  0
 13 14  1  0  0  0  0
 14 15  2  0  0  0  0
 14 16  1  0  0  0  0
 14 20  1  0  0  0  0
 16 17  1  0  0  0  0
 17 18  1  0  0  0  0
 17 19  1  0  0  0  0
 20 21  1  0  0  0  0
 21 22  1  0  0  0  0
 21 23  1  0  0  0  0
M  END
>  <DSSTox_RID>
40353

>  <DSSTox_CID>
12329

>  <apol>
57.281033

>  <a_acc>
4

>  <a_acid>
0

>  <a_aro>
6

>  <a_base>
0

>  <a_count>
47

>  <a_don>
1

>  <a_heavy>
23

>  <a_hyd>
14

>  <a_IC>
84.968719

>  <a_ICM>
1.8078451

>  <a_nB>
0

>  <a_nBr>
0

>  <a_nC>
14

>  <a_nCl>
0

>  <a_nF>
0

>  <a_nH>
24

>  <a_nI>
0

>  <a_nN>
1

>  <a_nO>
4

>  <a_nP>
1

>  <a_nS>
3

>  <balabanJ>
2.3986032

>  <BCUT_PEOE_0>
-2.5787539

>  <BCUT_PEOE_1>
-0.43848994

>  <BCUT_PEOE_2>
0.41381195

>  <BCUT_PEOE_3>
2.600673

>  <BCUT_SLOGP_0>
-2.6935444

>  <BCUT_SLOGP_1>
-0.39178756

>  <BCUT_SLOGP_2>
0.54596341

>  <BCUT_SLOGP_3>
2.8001056

>  <BCUT_SMR_0>
-2.3154635

>  <BCUT_SMR_1>
-0.2337262

>  <BCUT_SMR_2>
0.67607343

>  <BCUT_SMR_3>
2.9437158

>  <bpol>
43.544968

>  <b_1rotN>
10

>  <b_1rotR>
0.43478259

>  <b_ar>
6

>  <b_count>
47

>  <b_double>
0

>  <b_heavy>
23

>  <b_rotN>
10

>  <b_rotR>
0.43478259

>  <b_single>
41

>  <b_triple>
0

>  <chi0>
17.510225

>  <chi0v>
17.104534

>  <chi0v_C>
9.9556656

>  <chi0_C>
10.681798

>  <chi1>
10.645283

>  <chi1v>
13.017593

>  <chi1v_C>
4.7200847

>  <chi1_C>
5.6258979

>  <chiral>
0

>  <chiral_u>
0

>  <density>
0.93143892

>  <diameter>
12

>  <FCharge>
0

>  <GCUT_PEOE_0>
-0.78654045

>  <GCUT_PEOE_1>
-0.35336053

>  <GCUT_PEOE_2>
0.0015933644

>  <GCUT_PEOE_3>
2.5392544

>  <GCUT_SLOGP_0>
-1.1342694

>  <GCUT_SLOGP_1>
-0.24729218

>  <GCUT_SLOGP_2>
0.1511784

>  <GCUT_SLOGP_3>
2.6468303

>  <GCUT_SMR_0>
-0.52623355

>  <GCUT_SMR_1>
-0.15571235

>  <GCUT_SMR_2>
0.18228312

>  <GCUT_SMR_3>
2.8399572

>  <Kier1>
21.043478

>  <Kier2>
9.4746094

>  <Kier3>
8.0808077

>  <KierA1>
24.824585

>  <KierA2>
11.261535

>  <KierA3>
9.6594725

>  <KierFlex>
12.15491

>  <lip_acc>
5

>  <lip_don>
1

>  <lip_druglike>
1

>  <lip_violation>
0

>  <logP(o/w)>
3.9219999

>  <logS>
-4.9096198

>  <mr>
10.313437

>  <mutagenic>
0

>  <nmol>
1

>  <opr_brigid>
6

>  <opr_leadlike>
1

>  <opr_nring>
1

>  <opr_nrot>
9

>  <opr_violation>
0

>  <PC+>
0

>  <PC->
0

>  <PEOE_PC+>
1.5386882

>  <PEOE_PC->
-1.5386882

>  <PEOE_RPC+>
0.19426948

>  <PEOE_RPC->
0.31663781

>  <PEOE_VSA+0>
195.4644

>  <PEOE_VSA+1>
21.384594

>  <PEOE_VSA+2>
49.401546

>  <PEOE_VSA+3>
16.917038

>  <PEOE_VSA+4>
0

>  <PEOE_VSA+5>
16.651949

>  <PEOE_VSA+6>
0

>  <PEOE_VSA-0>
0

>  <PEOE_VSA-1>
0

>  <PEOE_VSA-2>
8.0752068

>  <PEOE_VSA-3>
0

>  <PEOE_VSA-4>
41.348465

>  <PEOE_VSA-5>
0

>  <PEOE_VSA-6>
33.008488

>  <PEOE_VSA_FHYD>
0.76191366

>  <PEOE_VSA_FNEG>
0.21564892

>  <PEOE_VSA_FPNEG>
0.19452354

>  <PEOE_VSA_FPOL>
0.23808633

>  <PEOE_VSA_FPOS>
0.78435111

>  <PEOE_VSA_FPPOS>
0.043562785

>  <PEOE_VSA_HYD>
291.24277

>  <PEOE_VSA_NEG>
82.432159

>  <PEOE_VSA_PNEG>
74.356956

>  <PEOE_VSA_POL>
91.008904

>  <PEOE_VSA_POS>
299.81952

>  <PEOE_VSA_PPOS>
16.651949

>  <petitjean>
0.5

>  <petitjeanSC>
1

>  <Q_PC+>
0

>  <Q_PC->
0

>  <Q_RPC+>
0

>  <Q_RPC->
0

>  <Q_VSA_FHYD>
1

>  <Q_VSA_FNEG>
0

>  <Q_VSA_FPNEG>
0

>  <Q_VSA_FPOL>
0

>  <Q_VSA_FPOS>
1

>  <Q_VSA_FPPOS>
0

>  <Q_VSA_HYD>
382.25168

>  <Q_VSA_NEG>
0

>  <Q_VSA_PNEG>
0

>  <Q_VSA_POL>
0

>  <Q_VSA_POS>
382.25168

>  <Q_VSA_PPOS>
0

>  <radius>
6

>  <reactive>
0

>  <rings>
1

>  <RPC+>
0

>  <RPC->
0

>  <rsynth>
1

>  <SlogP>
3.7725999

>  <SlogP_VSA0>
16.404997

>  <SlogP_VSA1>
48.171688

>  <SlogP_VSA2>
76.11528

>  <SlogP_VSA3>
35.673141

>  <SlogP_VSA4>
0

>  <SlogP_VSA5>
1.5507339

>  <SlogP_VSA6>
0

>  <SlogP_VSA7>
88.215919

>  <SlogP_VSA8>
0

>  <SlogP_VSA9>
170.76074

>  <SMR>
10.08165

>  <SMR_VSA0>
62.01495

>  <SMR_VSA1>
0

>  <SMR_VSA2>
17.955732

>  <SMR_VSA3>
12.937299

>  <SMR_VSA4>
0

>  <SMR_VSA5>
88.215919

>  <SMR_VSA6>
35.673141

>  <SMR_VSA7>
220.09546

>  <TPSA>
96.720001

>  <VAdjEq>
0.42622864

>  <VAdjMa>
5.523562

>  <VDistEq>
3.4591193

>  <VDistMa>
8.7393055

>  <vdw_area>
382.25168

>  <vdw_vol>
400.8089

>  <vsa_acc>
41.348465

>  <vsa_acid>
0

>  <vsa_base>
0

>  <vsa_don>
8.0752068

>  <vsa_hyd>
255.86197

>  <vsa_other>
76.966034

>  <vsa_pol>
49.423672

>  <Weight>
397.521

>  <weinerPath>
1358

>  <weinerPol>
30

>  <zagreb>
110

$$$$
CC(C)N1C(=O)c2ccccc2NS1(=O)=O
  MOE2011           2D

 16 17  0  0  0  0  0  0  0  0999 V2000
    0.0000    0.0000    0.0000 C   0  0  0  0  0  0  0  0  0  0  0  0
   -0.0020    1.5000    0.0000 C   0  0  0  0  0  0  0  0  0  0  0  0
    1.2960    2.2520    0.0000 C   0  0  0  0  0  0  0  0  0  0  0  0
   -1.3020    2.2480    0.0000 N   0  0  0  0  0  0  0  0  0  0  0  0
   -2.6000    1.4970    0.0000 C   0  0  0  0  0  0  0  0  0  0  0  0
   -2.5980   -0.0030    0.0000 O   0  0  0  0  0  0  0  0  0  0  0  0
   -3.9000    2.2450    0.0000 C   0  0  0  0  0  0  0  0  0  0  0  0
   -5.1980    1.4930    0.0000 C   0  0  0  0  0  0  0  0  0  0  0  0
   -6.4980    2.2410    0.0000 C   0  0  0  0  0  0  0  0  0  0  0  0
   -6.5000    3.7410    0.0000 C   0  0  0  0  0  0  0  0  0  0  0  0
   -5.2020    4.4930    0.0000 C   0  0  0  0  0  0  0  0  0  0  0  0
   -3.9020    3.7450    0.0000 C   0  0  0  0  0  0  0  0  0  0  0  0
   -2.6040    4.4970    0.0000 N   0  0  0  0  0  0  0  0  0  0  0  0
   -1.3040    3.7480    0.0000 S   0  0  0  0  0  0  0  0  0  0  0  0
   -0.5560    5.0480    0.0000 O   0  0  0  0  0  0  0  0  0  0  0  0
    0.1960    3.7500    0.0000 O   0  0  0  0  0  0  0  0  0  0  0  0
  1  2  1  0  0  0  0
  2  3  1  0  0  0  0
  2  4  1  0  0  0  0
  4  5  1  0  0  0  0
  4 14  1  0  0  0  0
  5  6  2  0  0  0  0
  5  7  1  0  0  0  0
  7  8  1  0  0  0  0
  7 12  2  0  0  0  0
  8  9  2  0  0  0  0
  9 10  1  0  0  0  0
 10 11  2  0  0  0  0
 11 12  1  0  0  0  0
 12 13  1  0  0  0  0
 13 14  1  0  0  0  0
 14 15  2  0  0  0  0
 14 16  2  0  0  0  0
M  END
>  <DSSTox_RID>
40354

>  <DSSTox_CID>
3901

>  <apol>
33.107517

>  <a_acc>
3

>  <a_acid>
0

>  <a_aro>
6

>  <a_base>
0

>  <a_count>
28

>  <a_don>
1

>  <a_heavy>
16

>  <a_hyd>
9

>  <a_IC>
51.612221

>  <a_ICM>
1.8432935

>  <a_nB>
0

>  <a_nBr>
0

>  <a_nC>
10

>  <a_nCl>
0

>  <a_nF>
0

>  <a_nH>
12

>  <a_nI>
0

>  <a_nN>
2

>  <a_nO>
3

>  <a_nP>
0

>  <a_nS>
1

>  <balabanJ>
2.2194293

>  <BCUT_PEOE_0>
-2.5964015

>  <BCUT_PEOE_1>
-0.5275318

>  <BCUT_PEOE_2>
0.58826357

>  <BCUT_PEOE_3>
2.6289375

>  <BCUT_SLOGP_0>
-2.7211285

>  <BCUT_SLOGP_1>
-0.42471182

>  <BCUT_SLOGP_2>
0.68081719

>  <BCUT_SLOGP_3>
2.5632427

>  <BCUT_SMR_0>
-2.3340657

>  <BCUT_SMR_1>
-0.3974359

>  <BCUT_SMR_2>
0.71988738

>  <BCUT_SMR_3>
2.9352753

>  <bpol>
23.192484

>  <b_1rotN>
1

>  <b_1rotR>
0.05882353

>  <b_ar>
6

>  <b_count>
29

>  <b_double>
1

>  <b_heavy>
17

>  <b_rotN>
1

>  <b_rotR>
0.05882353

>  <b_single>
22

>  <b_triple>
0

>  <chi0>
11.922285

>  <chi0v>
9.7834549

>  <chi0v_C>
6.3867512

>  <chi0_C>
7.1378284

>  <chi1>
7.4323573

>  <chi1v>
6.3280754

>  <chi1v_C>
3.2320509

>  <chi1_C>
4.1378636

>  <chiral>
0

>  <chiral_u>
0

>  <density>
0.91300738

>  <diameter>
7

>  <FCharge>
0

>  <GCUT_PEOE_0>
-0.7643351

>  <GCUT_PEOE_1>
-0.36080384

>  <GCUT_PEOE_2>
0.061048184

>  <GCUT_PEOE_3>
2.4730253

>  <GCUT_SLOGP_0>
-0.9499827

>  <GCUT_SLOGP_1>
-0.37646148

>  <GCUT_SLOGP_2>
0.14126696

>  <GCUT_SLOGP_3>
2.4834287

>  <GCUT_SMR_0>
-0.51960564

>  <GCUT_SMR_1>
-0.18314292

>  <GCUT_SMR_2>
0.16038179

>  <GCUT_SMR_3>
2.7662253

>  <Kier1>
12.456747

>  <Kier2>
4.3491125

>  <Kier3>
2.2041523

>  <KierA1>
10.344483

>  <KierA2>
3.5634563

>  <KierA3>
1.7878233

>  <KierFlex>
2.3038821

>  <lip_acc>
5

>  <lip_don>
1

>  <lip_druglike>
1

>  <lip_violation>
0

>  <logP(o/w)>
1.344

>  <logS>
-2.17818

>  <mr>
6.0453134

>  <mutagenic>
0

>  <nmol>
1

>  <opr_brigid>
11

>  <opr_leadlike>
1

>  <opr_nring>
2

>  <opr_nrot>
1

>  <opr_violation>
0

>  <PC+>
0

>  <PC->
0

>  <PEOE_PC+>
0.68001497

>  <PEOE_PC->
-0.68001497

>  <PEOE_RPC+>
0.38299742

>  <PEOE_RPC->
0.72367197

>  <PEOE_VSA+0>
108.45092

>  <PEOE_VSA+1>
14.774757

>  <PEOE_VSA+2>
19.649082

>  <PEOE_VSA+3>
0

>  <PEOE_VSA+4>
0

>  <PEOE_VSA+5>
13.698418

>  <PEOE_VSA+6>
0

>  <PEOE_VSA-0>
47.825016

>  <PEOE_VSA-1>
0

>  <PEOE_VSA-2>
0

>  <PEOE_VSA-3>
0

>  <PEOE_VSA-4>
0

>  <PEOE_VSA-5>
0

>  <PEOE_VSA-6>
13.566921

>  <PEOE_VSA_FHYD>
0.87490964

>  <PEOE_VSA_FNEG>
0.28165945

>  <PEOE_VSA_FPNEG>
0.06224354

>  <PEOE_VSA_FPOL>
0.12509038

>  <PEOE_VSA_FPOS>
0.71834052

>  <PEOE_VSA_FPPOS>
0.062846832

>  <PEOE_VSA_HYD>
190.69978

>  <PEOE_VSA_NEG>
61.391937

>  <PEOE_VSA_PNEG>
13.566921

>  <PEOE_VSA_POL>
27.265339

>  <PEOE_VSA_POS>
156.57318

>  <PEOE_VSA_PPOS>
13.698418

>  <petitjean>
0.42857143

>  <petitjeanSC>
0.75

>  <Q_PC+>
0

>  <Q_PC->
0

>  <Q_RPC+>
0

>  <Q_RPC->
0

>  <Q_VSA_FHYD>
1

>  <Q_VSA_FNEG>
0

>  <Q_VSA_FPNEG>
0

>  <Q_VSA_FPOL>
0

>  <Q_VSA_FPOS>
1

>  <Q_VSA_FPPOS>
0

>  <Q_VSA_HYD>
217.96512

>  <Q_VSA_NEG>
0

>  <Q_VSA_PNEG>
0

>  <Q_VSA_POL>
0

>  <Q_VSA_POS>
217.96512

>  <Q_VSA_PPOS>
0

>  <radius>
4

>  <reactive>
0

>  <rings>
2

>  <RPC+>
0

>  <RPC->
0

>  <rsynth>
1

>  <SlogP>
1.2075

>  <SlogP_VSA0>
0

>  <SlogP_VSA1>
71.354027

>  <SlogP_VSA2>
10.384187

>  <SlogP_VSA3>
0

>  <SlogP_VSA4>
27.047791

>  <SlogP_VSA5>
0

>  <SlogP_VSA6>
0

>  <SlogP_VSA7>
70.572739

>  <SlogP_VSA8>
0

>  <SlogP_VSA9>
69.408775

>  <SMR>
6.0289998

>  <SMR_VSA0>
72.033905

>  <SMR_VSA1>
1.5185606

>  <SMR_VSA2>
0

>  <SMR_VSA3>
7.1675434

>  <SMR_VSA4>
19.161745

>  <SMR_VSA5>
70.572739

>  <SMR_VSA6>
5.2587838

>  <SMR_VSA7>
73.054245

>  <TPSA>
66.480003

>  <VAdjEq>
0.56510133

>  <VAdjMa>
5.0874629

>  <VDistEq>
2.5365288

>  <VDistMa>
7.745142

>  <vdw_area>
217.96512

>  <vdw_vol>
249.92899

>  <vsa_acc>
45.583443

>  <vsa_acid>
0

>  <vsa_base>
0

>  <vsa_don>
8.0752068

>  <vsa_hyd>
137.65852

>  <vsa_other>
26.647949

>  <vsa_pol>
53.658649

>  <Weight>
240.283

>  <weinerPath>
382

>  <weinerPol>
28

>  <zagreb>
86

$$$$
O=C(NNC1=C(OC)C=CC(C2=CC=CC=C2)=C1)OC(C)C
  MOE2011           2D

 22 23  0  0  0  0  0  0  0  0999 V2000
    0.0000    0.0000    0.0000 O   0  0  0  0  0  0  0  0  0  0  0  0
    0.7540   -1.2970    0.0000 C   0  0  0  0  0  0  0  0  0  0  0  0
    2.2540   -1.2930    0.0000 N   0  0  0  0  0  0  0  0  0  0  0  0
    3.0000    0.0080    0.0000 N   0  0  0  0  0  0  0  0  0  0  0  0
    4.5000    0.0120    0.0000 C   0  0  0  0  0  0  0  0  0  0  0  0
    5.2460    1.3130    0.0000 C   0  0  0  0  0  0  0  0  0  0  0  0
    4.4930    2.6100    0.0000 O   0  0  0  0  0  0  0  0  0  0  0  0
    5.2390    3.9110    0.0000 C   0  0  0  0  0  0  0  0  0  0  0  0
    6.7460    1.3180    0.0000 C   0  0  0  0  0  0  0  0  0  0  0  0
    7.5000    0.0210    0.0000 C   0  0  0  0  0  0  0  0  0  0  0  0
    6.7540   -1.2810    0.0000 C   0  0  0  0  0  0  0  0  0  0  0  0
    7.5070   -2.5780    0.0000 C   0  0  0  0  0  0  0  0  0  0  0  0
    6.7610   -3.8790    0.0000 C   0  0  0  0  0  0  0  0  0  0  0  0
    7.5140   -5.1760    0.0000 C   0  0  0  0  0  0  0  0  0  0  0  0
    9.0140   -5.1720    0.0000 C   0  0  0  0  0  0  0  0  0  0  0  0
    9.7610   -3.8700    0.0000 C   0  0  0  0  0  0  0  0  0  0  0  0
    9.0070   -2.5730    0.0000 C   0  0  0  0  0  0  0  0  0  0  0  0
    5.2540   -1.2850    0.0000 C   0  0  0  0  0  0  0  0  0  0  0  0
    0.0070   -2.5980    0.0000 O   0  0  0  0  0  0  0  0  0  0  0  0
   -1.4930   -2.6020    0.0000 C   0  0  0  0  0  0  0  0  0  0  0  0
   -2.2390   -3.9030    0.0000 C   0  0  0  0  0  0  0  0  0  0  0  0
   -2.2460   -1.3050    0.0000 C   0  0  0  0  0  0  0  0  0  0  0  0
  1  2  2  0  0  0  0
  2  3  1  0  0  0  0
  2 19  1  0  0  0  0
  3  4  1  0  0  0  0
  4  5  1  0  0  0  0
  5  6  1  0  0  0  0
  5 18  2  0  0  0  0
  6  7  1  0  0  0  0
  6  9  2  0  0  0  0
  7  8  1  0  0  0  0
  9 10  1  0  0  0  0
 10 11  2  0  0  0  0
 11 12  1  0  0  0  0
 11 18  1  0  0  0  0
 12 13  1  0  0  0  0
 12 17  2  0  0  0  0
 13 14  2  0  0  0  0
 14 15  1  0  0  0  0
 15 16  2  0  0  0  0
 16 17  1  0  0  0  0
 19 20  1  0  0  0  0
 20 21  1  0  0  0  0
 20 22  1  0  0  0  0
M  END
>  <DSSTox_RID>
40359

>  <DSSTox_CID>
12525

>  <apol>
47.861858

>  <a_acc>
2

>  <a_acid>
0

>  <a_aro>
12

>  <a_base>
0

>  <a_count>
42

>  <a_don>
2

>  <a_heavy>
22

>  <a_hyd>
16

>  <a_IC>
63.797012

>  <a_ICM>
1.5189766

>  <a_nB>
0

>  <a_nBr>
0

>  <a_nC>
17

>  <a_nCl>
0

>  <a_nF>
0

>  <a_nH>
20

>  <a_nI>
0

>  <a_nN>
2

>  <a_nO>
3

>  <a_nP>
0

>  <a_nS>
0

>  <balabanJ>
1.8291807

>  <BCUT_PEOE_0>
-2.5021684

>  <BCUT_PEOE_1>
-0.57012796

>  <BCUT_PEOE_2>
0.61153358

>  <BCUT_PEOE_3>
2.4904637

>  <BCUT_SLOGP_0>
-2.5869944

>  <BCUT_SLOGP_1>
-0.51220304

>  <BCUT_SLOGP_2>
0.71978682

>  <BCUT_SLOGP_3>
2.5065389

>  <BCUT_SMR_0>
-2.2731631

>  <BCUT_SMR_1>
-0.41024208

>  <BCUT_SMR_2>
0.76598996

>  <BCUT_SMR_3>
2.7184279

>  <bpol>
26.65414

>  <b_1rotN>
5

>  <b_1rotR>
0.2173913

>  <b_ar>
12

>  <b_count>
43

>  <b_double>
1

>  <b_heavy>
23

>  <b_rotN>
7

>  <b_rotR>
0.30434781

>  <b_single>
30

>  <b_triple>
0

>  <chi0>
15.949383

>  <chi0v>
12.920897

>  <chi0v_C>
10.696153

>  <chi0_C>
12.120955

>  <chi1>
10.596556

>  <chi1v>
7.059741

>  <chi1v_C>
5.0534182

>  <chi1_C>
6.7708569

>  <chiral>
0

>  <chiral_u>
0

>  <density>
0.77969342

>  <diameter>
12

>  <FCharge>
0

>  <GCUT_PEOE_0>
-0.83338392

>  <GCUT_PEOE_1>
-0.40081227

>  <GCUT_PEOE_2>
0.066532016

>  <GCUT_PEOE_3>
2.4390135

>  <GCUT_SLOGP_0>
-1.2115377

>  <GCUT_SLOGP_1>
-0.27828121

>  <GCUT_SLOGP_2>
0.15363841

>  <GCUT_SLOGP_3>
2.5859587

>  <GCUT_SMR_0>
-0.52191216

>  <GCUT_SMR_1>
-0.20939001

>  <GCUT_SMR_2>
0.17020546

>  <GCUT_SMR_3>
2.7388687

>  <Kier1>
18.340265

>  <Kier2>
9.333333

>  <Kier3>
5.8641977

>  <KierA1>
13.228945

>  <KierA2>
6.6184354

>  <KierA3>
4.1071854

>  <KierFlex>
3.9797692

>  <lip_acc>
5

>  <lip_don>
2

>  <lip_druglike>
1

>  <lip_violation>
0

>  <logP(o/w)>
4.1339998

>  <logS>
-4.49226

>  <mr>
8.6406174

>  <mutagenic>
0

>  <nmol>
1

>  <opr_brigid>
12

>  <opr_leadlike>
1

>  <opr_nring>
2

>  <opr_nrot>
5

>  <opr_violation>
0

>  <PC+>
0

>  <PC->
0

>  <PEOE_PC+>
1.0243554

>  <PEOE_PC->
-1.0243554

>  <PEOE_RPC+>
0.39122272

>  <PEOE_RPC->
0.31885022

>  <PEOE_VSA+0>
189.70193

>  <PEOE_VSA+1>
6.6995511

>  <PEOE_VSA+2>
16.917038

>  <PEOE_VSA+3>
35.658428

>  <PEOE_VSA+4>
0

>  <PEOE_VSA+5>
0

>  <PEOE_VSA+6>
19.199511

>  <PEOE_VSA-0>
15.808495

>  <PEOE_VSA-1>
9.4210396

>  <PEOE_VSA-2>
9.4210396

>  <PEOE_VSA-3>
0

>  <PEOE_VSA-4>
13.566921

>  <PEOE_VSA-5>
2.503756

>  <PEOE_VSA-6>
2.503756

>  <PEOE_VSA_FHYD>
0.87639135

>  <PEOE_VSA_FNEG>
0.12243904

>  <PEOE_VSA_FPNEG>
0.060781609

>  <PEOE_VSA_FPOL>
0.12360868

>  <PEOE_VSA_FPOS>
0.87756097

>  <PEOE_VSA_FPPOS>
0.062827066

>  <PEOE_VSA_HYD>
267.81903

>  <PEOE_VSA_NEG>
37.416512

>  <PEOE_VSA_PNEG>
18.574432

>  <PEOE_VSA_POL>
37.773945

>  <PEOE_VSA_POS>
268.17645

>  <PEOE_VSA_PPOS>
19.199511

>  <petitjean>
0.5

>  <petitjeanSC>
1

>  <Q_PC+>
0

>  <Q_PC->
0

>  <Q_RPC+>
0

>  <Q_RPC->
0

>  <Q_VSA_FHYD>
1

>  <Q_VSA_FNEG>
0

>  <Q_VSA_FPNEG>
0

>  <Q_VSA_FPOL>
0

>  <Q_VSA_FPOS>
1

>  <Q_VSA_FPPOS>
0

>  <Q_VSA_HYD>
305.59299

>  <Q_VSA_NEG>
0

>  <Q_VSA_PNEG>
0

>  <Q_VSA_POL>
0

>  <Q_VSA_POS>
305.59299

>  <Q_VSA_PPOS>
0

>  <radius>
6

>  <reactive>
0

>  <rings>
2

>  <RPC+>
0

>  <RPC->
0

>  <rsynth>
1

>  <SlogP>
3.8237

>  <SlogP_VSA0>
28.888117

>  <SlogP_VSA1>
25.204865

>  <SlogP_VSA2>
17.468536

>  <SlogP_VSA3>
0

>  <SlogP_VSA4>
0

>  <SlogP_VSA5>
35.383869

>  <SlogP_VSA6>
0

>  <SlogP_VSA7>
147.51663

>  <SlogP_VSA8>
0

>  <SlogP_VSA9>
98.51442

>  <SMR>
8.6805401

>  <SMR_VSA0>
34.862103

>  <SMR_VSA1>
10.999887

>  <SMR_VSA2>
17.888229

>  <SMR_VSA3>
11.712077

>  <SMR_VSA4>
27.016127

>  <SMR_VSA5>
141.14548

>  <SMR_VSA6>
7.3166366

>  <SMR_VSA7>
102.0359

>  <TPSA>
59.59

>  <VAdjEq>
0.4530769

>  <VAdjMa>
5.523562

>  <VDistEq>
3.3718271

>  <VDistMa>
8.6190748

>  <vdw_area>
305.59299

>  <vdw_vol>
359.36945

>  <vsa_acc>
16.070677

>  <vsa_acid>
0

>  <vsa_base>
0

>  <vsa_don>
18.842079

>  <vsa_hyd>
248.97696

>  <vsa_other>
21.703266

>  <vsa_pol>
34.912758

>  <Weight>
300.358

>  <weinerPath>
1152

>  <weinerPol>
30

>  <zagreb>
106

$$$$
O=C(OCC2=CC=CC(C3=CC=CC=C3)=C2C)C1C(C)(C)C1/C=C(Cl)/C(F)(F)F
  MOE2011           2D

 29 31  0  0  1  0  0  0  0  0999 V2000
    0.0000    0.0000    0.0000 O   0  0  0  0  0  0  0  0  0  0  0  0
   -0.0120   -1.5000    0.0000 C   0  0  0  0  0  0  0  0  0  0  0  0
   -1.3180   -2.2390    0.0000 O   0  0  0  0  0  0  0  0  0  0  0  0
   -2.6100   -1.4780    0.0000 C   0  0  0  0  0  0  0  0  0  0  0  0
   -3.9160   -2.2180    0.0000 C   0  0  0  0  0  0  0  0  0  0  0  0
   -3.9280   -3.7170    0.0000 C   0  0  0  0  0  0  0  0  0  0  0  0
   -5.2330   -4.4570    0.0000 C   0  0  0  0  0  0  0  0  0  0  0  0
   -6.5260   -3.6960    0.0000 C   0  0  0  0  0  0  0  0  0  0  0  0
   -6.5140   -2.1960    0.0000 C   0  0  0  0  0  0  0  0  0  0  0  0
   -7.8060   -1.4350    0.0000 C   0  0  0  0  0  0  0  0  0  0  0  0
   -9.1120   -2.1740    0.0000 C   0  0  0  0  0  0  0  0  0  0  0  0
  -10.4040   -1.4140    0.0000 C   0  0  0  0  0  0  0  0  0  0  0  0
  -10.3920    0.0860    0.0000 C   0  0  0  0  0  0  0  0  0  0  0  0
   -9.0870    0.8260    0.0000 C   0  0  0  0  0  0  0  0  0  0  0  0
   -7.7940    0.0650    0.0000 C   0  0  0  0  0  0  0  0  0  0  0  0
   -5.2080   -1.4570    0.0000 C   0  0  0  0  0  0  0  0  0  0  0  0
   -5.1960    0.0430    0.0000 C   0  0  0  0  0  0  0  0  0  0  0  0
    1.2800   -2.2610    0.0000 C   0  0  3  0  0  0  0  0  0  0  0  0
    2.0190   -3.5660    0.0000 C   0  0  0  0  0  0  0  0  0  0  0  0
    1.0960   -4.7480    0.0000 C   0  0  0  0  0  0  0  0  0  0  0  0
    2.9230   -4.7640    0.0000 C   0  0  0  0  0  0  0  0  0  0  0  0
    2.7800   -2.2730    0.0000 C   0  0  3  0  0  0  0  0  0  0  0  0
    4.0850   -1.5340    0.0000 C   0  0  0  0  0  0  0  0  0  0  0  0
    5.3780   -2.2950    0.0000 C   0  0  0  0  0  0  0  0  0  0  0  0
    5.3660   -3.7950    0.0000 Cl  0  0  0  0  0  0  0  0  0  0  0  0
    6.6830   -1.5560    0.0000 C   0  0  0  0  0  0  0  0  0  0  0  0
    5.9440   -0.2500    0.0000 F   0  0  0  0  0  0  0  0  0  0  0  0
    7.4230   -2.8610    0.0000 F   0  0  0  0  0  0  0  0  0  0  0  0
    7.9890   -0.8160    0.0000 F   0  0  0  0  0  0  0  0  0  0  0  0
  1  2  2  0  0  0  0
  2  3  1  0  0  0  0
  2 18  1  0  0  0  0
  3  4  1  0  0  0  0
  4  5  1  0  0  0  0
  5  6  1  0  0  0  0
  5 16  2  0  0  0  0
  6  7  2  0  0  0  0
  7  8  1  0  0  0  0
  8  9  2  0  0  0  0
  9 10  1  0  0  0  0
  9 16  1  0  0  0  0
 10 11  1  0  0  0  0
 10 15  2  0  0  0  0
 11 12  2  0  0  0  0
 12 13  1  0  0  0  0
 13 14  2  0  0  0  0
 14 15  1  0  0  0  0
 16 17  1  0  0  0  0
 18 19  1  0  0  0  0
 18 22  1  0  0  0  0
 19 20  1  0  0  0  0
 19 21  1  0  0  0  0
 19 22  1  0  0  0  0
 22 23  1  0  0  0  0
 23 24  2  0  0  0  0
 24 25  1  0  0  0  0
 24 26  1  0  0  0  0
 26 27  1  0  0  0  0
 26 28  1  0  0  0  0
 26 29  1  0  0  0  0
M  END
>  <DSSTox_RID>
40360

>  <DSSTox_CID>
160

>  <apol>
60.604446

>  <a_acc>
1

>  <a_acid>
0

>  <a_aro>
12

>  <a_base>
0

>  <a_count>
51

>  <a_don>
0

>  <a_heavy>
29

>  <a_hyd>
26

>  <a_IC>
80.389381

>  <a_ICM>
1.5762625

>  <a_nB>
0

>  <a_nBr>
0

>  <a_nC>
23

>  <a_nCl>
1

>  <a_nF>
3

>  <a_nH>
22

>  <a_nI>
0

>  <a_nN>
0

>  <a_nO>
2

>  <a_nP>
0

>  <a_nS>
0

>  <balabanJ>
1.500262

>  <BCUT_PEOE_0>
-2.4698615

>  <BCUT_PEOE_1>
-0.55987674

>  <BCUT_PEOE_2>
0.56360126

>  <BCUT_PEOE_3>
2.900131

>  <BCUT_SLOGP_0>
-2.388526

>  <BCUT_SLOGP_1>
-0.39864784

>  <BCUT_SLOGP_2>
0.66719133

>  <BCUT_SLOGP_3>
2.9239256

>  <BCUT_SMR_0>
-2.2309113

>  <BCUT_SMR_1>
-0.36308786

>  <BCUT_SMR_2>
0.70993596

>  <BCUT_SMR_3>
3.1344583

>  <bpol>
30.953554

>  <b_1rotN>
5

>  <b_1rotR>
0.16129032

>  <b_ar>
12

>  <b_count>
53

>  <b_double>
2

>  <b_heavy>
31

>  <b_rotN>
7

>  <b_rotR>
0.22580644

>  <b_single>
39

>  <b_triple>
0

>  <chi0>
21.396976

>  <chi0v>
17.142242

>  <chi0v_C>
14.05796

>  <chi0_C>
15.68987

>  <chi1>
13.530729

>  <chi1v>
9.6604376

>  <chi1v_C>
7.8296213

>  <chi1_C>
9.9677801

>  <chiral>
2

>  <chiral_u>
2

>  <density>
0.86158431

>  <diameter>
15

>  <FCharge>
0

>  <GCUT_PEOE_0>
-0.76473683

>  <GCUT_PEOE_1>
-0.38218147

>  <GCUT_PEOE_2>
0.04299663

>  <GCUT_PEOE_3>
2.6883013

>  <GCUT_SLOGP_0>
-0.84554738

>  <GCUT_SLOGP_1>
-0.23416179

>  <GCUT_SLOGP_2>
0.17618728

>  <GCUT_SLOGP_3>
2.79441

>  <GCUT_SMR_0>
-0.51000857

>  <GCUT_SMR_1>
-0.17648438

>  <GCUT_SMR_2>
0.15465142

>  <GCUT_SMR_3>
2.9463556

>  <Kier1>
23.658689

>  <Kier2>
9.2403803

>  <Kier3>
5.0868044

>  <KierA1>
19.339842

>  <KierA2>
7.4960628

>  <KierA3>
4.1033731

>  <KierFlex>
4.9990578

>  <lip_acc>
2

>  <lip_don>
0

>  <lip_druglike>
1

>  <lip_violation>
1

>  <logP(o/w)>
6.91576

>  <logS>
-7.9805598

>  <mr>
10.939986

>  <mutagenic>
0

>  <nmol>
1

>  <opr_brigid>
16

>  <opr_leadlike>
1

>  <opr_nring>
3

>  <opr_nrot>
5

>  <opr_violation>
1

>  <PC+>
0

>  <PC->
0

>  <PEOE_PC+>
1.1758503

>  <PEOE_PC->
-1.1758503

>  <PEOE_RPC+>
0.36403745

>  <PEOE_RPC->
0.25212103

>  <PEOE_VSA+0>
92.642426

>  <PEOE_VSA+1>
2.2085397

>  <PEOE_VSA+2>
4.5197463

>  <PEOE_VSA+3>
22.058474

>  <PEOE_VSA+4>
0

>  <PEOE_VSA+5>
14.708499

>  <PEOE_VSA+6>
9.0455017

>  <PEOE_VSA-0>
148.90207

>  <PEOE_VSA-1>
29.581947

>  <PEOE_VSA-2>
0

>  <PEOE_VSA-3>
35.725906

>  <PEOE_VSA-4>
0

>  <PEOE_VSA-5>
16.070677

>  <PEOE_VSA-6>
0

>  <PEOE_VSA_FHYD>
0.89393204

>  <PEOE_VSA_FNEG>
0.61332303

>  <PEOE_VSA_FPNEG>
0.042802203

>  <PEOE_VSA_FPOL>
0.10606796

>  <PEOE_VSA_FPOS>
0.38667694

>  <PEOE_VSA_FPPOS>
0.063265756

>  <PEOE_VSA_HYD>
335.6391

>  <PEOE_VSA_NEG>
230.28059

>  <PEOE_VSA_PNEG>
16.070677

>  <PEOE_VSA_POL>
39.824677

>  <PEOE_VSA_POS>
145.1832

>  <PEOE_VSA_PPOS>
23.754002

>  <petitjean>
0.46666667

>  <petitjeanSC>
0.875

>  <Q_PC+>
0

>  <Q_PC->
0

>  <Q_RPC+>
0

>  <Q_RPC->
0

>  <Q_VSA_FHYD>
1

>  <Q_VSA_FNEG>
0

>  <Q_VSA_FPNEG>
0

>  <Q_VSA_FPOL>
0

>  <Q_VSA_FPOS>
1

>  <Q_VSA_FPPOS>
0

>  <Q_VSA_HYD>
375.46378

>  <Q_VSA_NEG>
0

>  <Q_VSA_PNEG>
0

>  <Q_VSA_POL>
0

>  <Q_VSA_POS>
375.46378

>  <Q_VSA_PPOS>
0

>  <radius>
8

>  <reactive>
0

>  <rings>
3

>  <RPC+>
0

>  <RPC->
0

>  <rsynth>
0.51724136

>  <SlogP>
6.9288201

>  <SlogP_VSA0>
0

>  <SlogP_VSA1>
15.50498

>  <SlogP_VSA2>
34.862103

>  <SlogP_VSA3>
0

>  <SlogP_VSA4>
15.192742

>  <SlogP_VSA5>
3.5006065

>  <SlogP_VSA6>
0

>  <SlogP_VSA7>
165.15981

>  <SlogP_VSA8>
0

>  <SlogP_VSA9>
204.93329

>  <SMR>
10.7368

>  <SMR_VSA0>
34.862103

>  <SMR_VSA1>
44.880341

>  <SMR_VSA2>
16.581108

>  <SMR_VSA3>
9.8717566

>  <SMR_VSA4>
6.37115

>  <SMR_VSA5>
179.71492

>  <SMR_VSA6>
7.7454643

>  <SMR_VSA7>
139.12669

>  <TPSA>
26.299999

>  <VAdjEq>
0.3796615

>  <VAdjMa>
5.9541965

>  <VDistEq>
3.7172832

>  <VDistMa>
9.4076214

>  <vdw_area>
375.46378

>  <vdw_vol>
465.07114

>  <vsa_acc>
13.566921

>  <vsa_acid>
0

>  <vsa_base>
0

>  <vsa_don>
0

>  <vsa_hyd>
344.6846

>  <vsa_other>
17.212255

>  <vsa_pol>
13.566921

>  <Weight>
422.87399

>  <weinerPath>
2490

>  <weinerPol>
44

>  <zagreb>
156

$$$$
C(C1C=CC(=CC=1)O)(C2=CC=C(C=C2)O)(C)C
  MOE2011           2D

 17 18  0  0  0  0  0  0  0  0999 V2000
    0.0000    0.0000    0.0000 C   0  0  0  0  0  0  0  0  0  0  0  0
    1.5000    0.0000    0.0000 C   0  0  0  0  0  0  0  0  0  0  0  0
    2.2500    1.2990    0.0000 C   0  0  0  0  0  0  0  0  0  0  0  0
    3.7500    1.2990    0.0000 C   0  0  0  0  0  0  0  0  0  0  0  0
    4.5000    0.0000    0.0000 C   0  0  0  0  0  0  0  0  0  0  0  0
    3.7500   -1.2990    0.0000 C   0  0  0  0  0  0  0  0  0  0  0  0
    2.2500   -1.2990    0.0000 C   0  0  0  0  0  0  0  0  0  0  0  0
    6.0000    0.0000    0.0000 O   0  0  0  0  0  0  0  0  0  0  0  0
   -1.5000    0.0000    0.0000 C   0  0  0  0  0  0  0  0  0  0  0  0
   -2.2500    1.2990    0.0000 C   0  0  0  0  0  0  0  0  0  0  0  0
   -3.7500    1.2990    0.0000 C   0  0  0  0  0  0  0  0  0  0  0  0
   -4.5000    0.0000    0.0000 C   0  0  0  0  0  0  0  0  0  0  0  0
   -3.7500   -1.2990    0.0000 C   0  0  0  0  0  0  0  0  0  0  0  0
   -2.2500   -1.2990    0.0000 C   0  0  0  0  0  0  0  0  0  0  0  0
   -6.0000    0.0000    0.0000 O   0  0  0  0  0  0  0  0  0  0  0  0
    0.0000    1.5000    0.0000 C   0  0  0  0  0  0  0  0  0  0  0  0
    0.0000   -1.5000    0.0000 C   0  0  0  0  0  0  0  0  0  0  0  0
  1  2  1  0  0  0  0
  1  9  1  0  0  0  0
  1 16  1  0  0  0  0
  1 17  1  0  0  0  0
  2  3  1  0  0  0  0
  2  7  2  0  0  0  0
  3  4  2  0  0  0  0
  4  5  1  0  0  0  0
  5  6  2  0  0  0  0
  5  8  1  0  0  0  0
  6  7  1  0  0  0  0
  9 10  1  0  0  0  0
  9 14  2  0  0  0  0
 10 11  2  0  0  0  0
 11 12  1  0  0  0  0
 12 13  2  0  0  0  0
 12 15  1  0  0  0  0
 13 14  1  0  0  0  0
M  END
>  <DSSTox_RID>
40362

>  <DSSTox_CID>
182

>  <apol>
38.672688

>  <a_acc>
2

>  <a_acid>
0

>  <a_aro>
12

>  <a_base>
0

>  <a_count>
33

>  <a_don>
2

>  <a_heavy>
17

>  <a_hyd>
15

>  <a_IC>
41.861649

>  <a_ICM>
1.2685348

>  <a_nB>
0

>  <a_nBr>
0

>  <a_nC>
15

>  <a_nCl>
0

>  <a_nF>
0

>  <a_nH>
16

>  <a_nI>
0

>  <a_nN>
0

>  <a_nO>
2

>  <a_nP>
0

>  <a_nS>
0

>  <balabanJ>
1.9409156

>  <BCUT_PEOE_0>
-2.5776932

>  <BCUT_PEOE_1>
-0.64294499

>  <BCUT_PEOE_2>
0.70298916

>  <BCUT_PEOE_3>
2.5414553

>  <BCUT_SLOGP_0>
-2.4888227

>  <BCUT_SLOGP_1>
-0.53807992

>  <BCUT_SLOGP_2>
0.80591482

>  <BCUT_SLOGP_3>
2.641022

>  <BCUT_SMR_0>
-2.3062835

>  <BCUT_SMR_1>
-0.49986199

>  <BCUT_SMR_2>
0.85431087

>  <BCUT_SMR_3>
2.8212683

>  <bpol>
17.491312

>  <b_1rotN>
2

>  <b_1rotR>
0.11111111

>  <b_ar>
12

>  <b_count>
34

>  <b_double>
0

>  <b_heavy>
18

>  <b_rotN>
2

>  <b_rotR>
0.11111111

>  <b_single>
22

>  <b_triple>
0

>  <chi0>
12.466255

>  <chi0v>
10.013229

>  <chi0v_C>
9.1188021

>  <chi0_C>
10.466255

>  <chi1>
7.9980373

>  <chi1v>
5.5899482

>  <chi1v_C>
5.1427345

>  <chi1_C>
6.8433366

>  <chiral>
0

>  <chiral_u>
0

>  <density>
0.7468456

>  <diameter>
10

>  <FCharge>
0

>  <GCUT_PEOE_0>
-0.77831525

>  <GCUT_PEOE_1>
-0.38549346

>  <GCUT_PEOE_2>
0.082556978

>  <GCUT_PEOE_3>
2.538903

>  <GCUT_SLOGP_0>
-0.76182735

>  <GCUT_SLOGP_1>
-0.27527395

>  <GCUT_SLOGP_2>
0.16445385

>  <GCUT_SLOGP_3>
2.6863546

>  <GCUT_SMR_0>
-0.51198697

>  <GCUT_SMR_1>
-0.21605732

>  <GCUT_SMR_2>
0.19305076

>  <GCUT_SMR_3>
2.8211794

>  <Kier1>
13.432098

>  <Kier2>
5.3254437

>  <Kier3>
3.0625

>  <KierA1>
9.936574

>  <KierA2>
3.8585048

>  <KierA3>
2.1822677

>  <KierFlex>
2.2553129

>  <lip_acc>
2

>  <lip_don>
2

>  <lip_druglike>
1

>  <lip_violation>
0

>  <logP(o/w)>
4.7140002

>  <logS>
-3.8078001

>  <mr>
6.8587546

>  <mutagenic>
0

>  <nmol>
1

>  <opr_brigid>
12

>  <opr_leadlike>
1

>  <opr_nring>
2

>  <opr_nrot>
2

>  <opr_violation>
0

>  <PC+>
0

>  <PC->
0

>  <PEOE_PC+>
0.42513958

>  <PEOE_PC->
-0.42513958

>  <PEOE_RPC+>
0.30782601

>  <PEOE_RPC->
0.44680539

>  <PEOE_VSA+0>
122.05088

>  <PEOE_VSA+1>
0

>  <PEOE_VSA+2>
16.917038

>  <PEOE_VSA+3>
0

>  <PEOE_VSA+4>
0

>  <PEOE_VSA+5>
0

>  <PEOE_VSA+6>
0

>  <PEOE_VSA-0>
67.651054

>  <PEOE_VSA-1>
0

>  <PEOE_VSA-2>
0

>  <PEOE_VSA-3>
27.133842

>  <PEOE_VSA-4>
0

>  <PEOE_VSA-5>
0

>  <PEOE_VSA-6>
0

>  <PEOE_VSA_FHYD>
1

>  <PEOE_VSA_FNEG>
0.40549201

>  <PEOE_VSA_FPNEG>
0

>  <PEOE_VSA_FPOL>
0

>  <PEOE_VSA_FPOS>
0.59450799

>  <PEOE_VSA_FPPOS>
0

>  <PEOE_VSA_HYD>
233.75282

>  <PEOE_VSA_NEG>
94.784897

>  <PEOE_VSA_PNEG>
0

>  <PEOE_VSA_POL>
0

>  <PEOE_VSA_POS>
138.96791

>  <PEOE_VSA_PPOS>
0

>  <petitjean>
0.5

>  <petitjeanSC>
1

>  <Q_PC+>
0

>  <Q_PC->
0

>  <Q_RPC+>
0

>  <Q_RPC->
0

>  <Q_VSA_FHYD>
1

>  <Q_VSA_FNEG>
0

>  <Q_VSA_FPNEG>
0

>  <Q_VSA_FPOL>
0

>  <Q_VSA_FPOS>
1

>  <Q_VSA_FPPOS>
0

>  <Q_VSA_HYD>
233.75282

>  <Q_VSA_NEG>
0

>  <Q_VSA_PNEG>
0

>  <Q_VSA_POL>
0

>  <Q_VSA_POS>
233.75282

>  <Q_VSA_PPOS>
0

>  <radius>
5

>  <reactive>
0

>  <rings>
2

>  <RPC+>
0

>  <RPC->
0

>  <rsynth>
1

>  <SlogP>
3.4237001

>  <SlogP_VSA0>
50.770454

>  <SlogP_VSA1>
0

>  <SlogP_VSA2>
0

>  <SlogP_VSA3>
0

>  <SlogP_VSA4>
6.37115

>  <SlogP_VSA5>
0

>  <SlogP_VSA6>
0

>  <SlogP_VSA7>
141.14548

>  <SlogP_VSA8>
0

>  <SlogP_VSA9>
77.138885

>  <SMR>
6.8341599

>  <SMR_VSA0>
0

>  <SMR_VSA1>
50.770454

>  <SMR_VSA2>
0

>  <SMR_VSA3>
16.858006

>  <SMR_VSA4>
0

>  <SMR_VSA5>
141.14548

>  <SMR_VSA6>
0

>  <SMR_VSA7>
66.652031

>  <TPSA>
40.459999

>  <VAdjEq>
0.54234898

>  <VAdjMa>
5.1699252

>  <VDistEq>
2.9636931

>  <VDistMa>
7.8678007

>  <vdw_area>
233.75282

>  <vdw_vol>
284.07877

>  <vsa_acc>
0

>  <vsa_acid>
0

>  <vsa_base>
0

>  <vsa_don>
0

>  <vsa_hyd>
206.61897

>  <vsa_other>
0

>  <vsa_pol>
27.133842

>  <Weight>
228.291

>  <weinerPath>
516

>  <weinerPol>
26

>  <zagreb>
88

$$$$
O=C(NC3=C(C=CC=C3)C2=CC=C(Cl)C=C2)C1=C(Cl)N=CC=C1
  MOE2011           2D

 23 25  0  0  0  0  0  0  0  0999 V2000
    0.0000    0.0000    0.0000 O   0  0  0  0  0  0  0  0  0  0  0  0
    0.0030    1.5000    0.0000 C   0  0  0  0  0  0  0  0  0  0  0  0
   -1.2940    2.2530    0.0000 N   0  0  0  0  0  0  0  0  0  0  0  0
   -2.5950    1.5060    0.0000 C   0  0  0  0  0  0  0  0  0  0  0  0
   -3.8920    2.2590    0.0000 C   0  0  0  0  0  0  0  0  0  0  0  0
   -5.1930    1.5120    0.0000 C   0  0  0  0  0  0  0  0  0  0  0  0
   -5.1960    0.0120    0.0000 C   0  0  0  0  0  0  0  0  0  0  0  0
   -3.8990   -0.7410    0.0000 C   0  0  0  0  0  0  0  0  0  0  0  0
   -2.5980    0.0060    0.0000 C   0  0  0  0  0  0  0  0  0  0  0  0
   -3.8890    3.7590    0.0000 C   0  0  0  0  0  0  0  0  0  0  0  0
   -5.1860    4.5120    0.0000 C   0  0  0  0  0  0  0  0  0  0  0  0
   -5.1830    6.0120    0.0000 C   0  0  0  0  0  0  0  0  0  0  0  0
   -3.8820    6.7590    0.0000 C   0  0  0  0  0  0  0  0  0  0  0  0
   -3.8790    8.2590    0.0000 Cl  0  0  0  0  0  0  0  0  0  0  0  0
   -2.5850    6.0060    0.0000 C   0  0  0  0  0  0  0  0  0  0  0  0
   -2.5880    4.5060    0.0000 C   0  0  0  0  0  0  0  0  0  0  0  0
    1.3040    2.2470    0.0000 C   0  0  0  0  0  0  0  0  0  0  0  0
    2.6010    1.4940    0.0000 C   0  0  0  0  0  0  0  0  0  0  0  0
    2.5980   -0.0060    0.0000 Cl  0  0  0  0  0  0  0  0  0  0  0  0
    3.9020    2.2410    0.0000 N   0  0  0  0  0  0  0  0  0  0  0  0
    3.9050    3.7410    0.0000 C   0  0  0  0  0  0  0  0  0  0  0  0
    2.6080    4.4940    0.0000 C   0  0  0  0  0  0  0  0  0  0  0  0
    1.3070    3.7470    0.0000 C   0  0  0  0  0  0  0  0  0  0  0  0
  1  2  2  0  0  0  0
  2  3  1  0  0  0  0
  2 17  1  0  0  0  0
  3  4  1  0  0  0  0
  4  5  1  0  0  0  0
  4  9  2  0  0  0  0
  5  6  2  0  0  0  0
  5 10  1  0  0  0  0
  6  7  1  0  0  0  0
  7  8  2  0  0  0  0
  8  9  1  0  0  0  0
 10 11  1  0  0  0  0
 10 16  2  0  0  0  0
 11 12  2  0  0  0  0
 12 13  1  0  0  0  0
 13 14  1  0  0  0  0
 13 15  2  0  0  0  0
 15 16  1  0  0  0  0
 17 18  1  0  0  0  0
 17 23  2  0  0  0  0
 18 19  1  0  0  0  0
 18 20  2  0  0  0  0
 20 21  1  0  0  0  0
 21 22  2  0  0  0  0
 22 23  1  0  0  0  0
M  END
>  <DSSTox_RID>
40365

>  <DSSTox_CID>
14392

>  <apol>
47.043514

>  <a_acc>
2

>  <a_acid>
0

>  <a_aro>
18

>  <a_base>
0

>  <a_count>
35

>  <a_don>
1

>  <a_heavy>
23

>  <a_hyd>
18

>  <a_IC>
57.446705

>  <a_ICM>
1.6413344

>  <a_nB>
0

>  <a_nBr>
0

>  <a_nC>
18

>  <a_nCl>
2

>  <a_nF>
0

>  <a_nH>
12

>  <a_nI>
0

>  <a_nN>
2

>  <a_nO>
1

>  <a_nP>
0

>  <a_nS>
0

>  <balabanJ>
1.5791131

>  <BCUT_PEOE_0>
-2.3020012

>  <BCUT_PEOE_1>
-0.63354582

>  <BCUT_PEOE_2>
0.67893183

>  <BCUT_PEOE_3>
2.2676065

>  <BCUT_SLOGP_0>
-2.2930818

>  <BCUT_SLOGP_1>
-0.51051146

>  <BCUT_SLOGP_2>
0.82540011

>  <BCUT_SLOGP_3>
2.4496877

>  <BCUT_SMR_0>
-1.9383302

>  <BCUT_SMR_1>
-0.44269156

>  <BCUT_SMR_2>
0.89866638

>  <BCUT_SMR_3>
2.623687

>  <bpol>
16.896484

>  <b_1rotN>
3

>  <b_1rotR>
0.12

>  <b_ar>
18

>  <b_count>
37

>  <b_double>
1

>  <b_heavy>
25

>  <b_rotN>
4

>  <b_rotR>
0.16

>  <b_single>
18

>  <b_triple>
0

>  <chi0>
16.233841

>  <chi0v>
13.474102

>  <chi0v_C>
9.850853

>  <chi0_C>
11.819627

>  <chi1>
11.147867

>  <chi1v>
7.6738825

>  <chi1v_C>
5.3540592

>  <chi1_C>
7.6910715

>  <chiral>
0

>  <chiral_u>
0

>  <density>
0.85514563

>  <diameter>
12

>  <FCharge>
0

>  <GCUT_PEOE_0>
-0.80666447

>  <GCUT_PEOE_1>
-0.39167154

>  <GCUT_PEOE_2>
0.079379171

>  <GCUT_PEOE_3>
2.4081566

>  <GCUT_SLOGP_0>
-0.99315506

>  <GCUT_SLOGP_1>
-0.25065857

>  <GCUT_SLOGP_2>
0.22426738

>  <GCUT_SLOGP_3>
2.577461

>  <GCUT_SMR_0>
-0.40094689

>  <GCUT_SMR_1>
-0.20547965

>  <GCUT_SMR_2>
0.28343979

>  <GCUT_SMR_3>
2.7367847

>  <Kier1>
17.811199

>  <Kier2>
8.3927336

>  <Kier3>
4.5454545

>  <KierA1>
13.562914

>  <KierA2>
6.3057609

>  <KierA3>
3.3805249

>  <KierFlex>
3.7184563

>  <lip_acc>
3

>  <lip_don>
1

>  <lip_druglike>
1

>  <lip_violation>
1

>  <logP(o/w)>
5.1719999

>  <logS>
-6.3029499

>  <mr>
9.4212389

>  <mutagenic>
0

>  <nmol>
1

>  <opr_brigid>
18

>  <opr_leadlike>
1

>  <opr_nring>
3

>  <opr_nrot>
3

>  <opr_violation>
1

>  <PC+>
0

>  <PC->
0

>  <PEOE_PC+>
0.84861511

>  <PEOE_PC->
-0.84861511

>  <PEOE_RPC+>
0.33166853

>  <PEOE_RPC->
0.31240773

>  <PEOE_VSA+0>
162.50203

>  <PEOE_VSA+1>
33.727345

>  <PEOE_VSA+2>
9.0107584

>  <PEOE_VSA+3>
0

>  <PEOE_VSA+4>
0

>  <PEOE_VSA+5>
12.949531

>  <PEOE_VSA+6>
0

>  <PEOE_VSA-0>
0

>  <PEOE_VSA-1>
59.163895

>  <PEOE_VSA-2>
0

>  <PEOE_VSA-3>
0

>  <PEOE_VSA-4>
11.365152

>  <PEOE_VSA-5>
13.566921

>  <PEOE_VSA-6>
0

>  <PEOE_VSA_FHYD>
0.87468272

>  <PEOE_VSA_FNEG>
0.27820036

>  <PEOE_VSA_FPNEG>
0.082478523

>  <PEOE_VSA_FPOL>
0.12531725

>  <PEOE_VSA_FPOS>
0.72179967

>  <PEOE_VSA_FPPOS>
0.042838726

>  <PEOE_VSA_HYD>
264.40402

>  <PEOE_VSA_NEG>
84.09597

>  <PEOE_VSA_PNEG>
24.932074

>  <PEOE_VSA_POL>
37.881603

>  <PEOE_VSA_POS>
218.18965

>  <PEOE_VSA_PPOS>
12.949531

>  <petitjean>
0.5

>  <petitjeanSC>
1

>  <Q_PC+>
0

>  <Q_PC->
0

>  <Q_RPC+>
0

>  <Q_RPC->
0

>  <Q_VSA_FHYD>
1

>  <Q_VSA_FNEG>
0

>  <Q_VSA_FPNEG>
0

>  <Q_VSA_FPOL>
0

>  <Q_VSA_FPOS>
1

>  <Q_VSA_FPPOS>
0

>  <Q_VSA_HYD>
302.28561

>  <Q_VSA_NEG>
0

>  <Q_VSA_PNEG>
0

>  <Q_VSA_POL>
0

>  <Q_VSA_POS>
302.28561

>  <Q_VSA_PPOS>
0

>  <radius>
6

>  <reactive>
0

>  <rings>
3

>  <RPC+>
0

>  <RPC->
0

>  <rsynth>
0.43478259

>  <SlogP>
5.3077002

>  <SlogP_VSA0>
0

>  <SlogP_VSA1>
40.055065

>  <SlogP_VSA2>
0

>  <SlogP_VSA3>
0

>  <SlogP_VSA4>
27.047791

>  <SlogP_VSA5>
0

>  <SlogP_VSA6>
6.5723858

>  <SlogP_VSA7>
200.01735

>  <SlogP_VSA8>
0

>  <SlogP_VSA9>
81.054039

>  <SMR>
9.4088202

>  <SMR_VSA0>
23.862217

>  <SMR_VSA1>
16.78553

>  <SMR_VSA2>
0

>  <SMR_VSA3>
9.7579603

>  <SMR_VSA4>
27.138649

>  <SMR_VSA5>
193.64619

>  <SMR_VSA6>
5.2587838

>  <SMR_VSA7>
78.297287

>  <TPSA>
41.990002

>  <VAdjEq>
0.45137304

>  <VAdjMa>
5.643856

>  <VDistEq>
3.3107812

>  <VDistMa>
8.7584333

>  <vdw_area>
302.28561

>  <vdw_vol>
387.20538

>  <vsa_acc>
19.249496

>  <vsa_acid>
0

>  <vsa_base>
0

>  <vsa_don>
5.6825762

>  <vsa_hyd>
255.39326

>  <vsa_other>
21.960289

>  <vsa_pol>
24.932074

>  <Weight>
343.21298

>  <weinerPath>
1220

>  <weinerPol>
35

>  <zagreb>
118

$$$$
BrC1=C(C)NC(=O)N(C(C)CC)C1=O
  MOE2011           2D

 14 14  0  0  1  0  0  0  0  0999 V2000
    0.0000    0.0000    0.0000 Br  0  0  0  0  0  0  0  0  0  0  0  0
    0.7570   -1.2950    0.0000 C   0  0  0  0  0  0  0  0  0  0  0  0
    0.0130   -2.5980    0.0000 C   0  0  0  0  0  0  0  0  0  0  0  0
   -1.4870   -2.6060    0.0000 C   0  0  0  0  0  0  0  0  0  0  0  0
    0.7700   -3.8930    0.0000 N   0  0  0  0  0  0  0  0  0  0  0  0
    2.2700   -3.8860    0.0000 C   0  0  0  0  0  0  0  0  0  0  0  0
    3.0260   -5.1810    0.0000 O   0  0  0  0  0  0  0  0  0  0  0  0
    3.0130   -2.5830    0.0000 N   0  0  0  0  0  0  0  0  0  0  0  0
    4.5130   -2.5750    0.0000 C   0  0  3  0  0  0  0  0  0  0  0  0
    5.2570   -1.2720    0.0000 C   0  0  0  0  0  0  0  0  0  0  0  0
    5.2700   -3.8700    0.0000 C   0  0  0  0  0  0  0  0  0  0  0  0
    6.7700   -3.8630    0.0000 C   0  0  0  0  0  0  0  0  0  0  0  0
    2.2570   -1.2880    0.0000 C   0  0  0  0  0  0  0  0  0  0  0  0
    3.0000    0.0150    0.0000 O   0  0  0  0  0  0  0  0  0  0  0  0
  1  2  1  0  0  0  0
  2  3  2  0  0  0  0
  2 13  1  0  0  0  0
  3  4  1  0  0  0  0
  3  5  1  0  0  0  0
  5  6  1  0  0  0  0
  6  7  2  0  0  0  0
  6  8  1  0  0  0  0
  8  9  1  0  0  0  0
  8 13  1  0  0  0  0
  9 10  1  0  0  0  0
  9 11  1  0  0  0  0
 11 12  1  0  0  0  0
 13 14  2  0  0  0  0
M  END
>  <DSSTox_RID>
40366

>  <DSSTox_CID>
2020

>  <apol>
31.362309

>  <a_acc>
2

>  <a_acid>
0

>  <a_aro>
0

>  <a_base>
0

>  <a_count>
27

>  <a_don>
1

>  <a_heavy>
14

>  <a_hyd>
8

>  <a_IC>
47.746922

>  <a_ICM>
1.7684045

>  <a_nB>
0

>  <a_nBr>
1

>  <a_nC>
9

>  <a_nCl>
0

>  <a_nF>
0

>  <a_nH>
13

>  <a_nI>
0

>  <a_nN>
2

>  <a_nO>
2

>  <a_nP>
0

>  <a_nS>
0

>  <balabanJ>
2.7528319

>  <BCUT_PEOE_0>
-2.6286709

>  <BCUT_PEOE_1>
-0.31734824

>  <BCUT_PEOE_2>
0.19927703

>  <BCUT_PEOE_3>
2.6035426

>  <BCUT_SLOGP_0>
-2.7078476

>  <BCUT_SLOGP_1>
-0.080108017

>  <BCUT_SLOGP_2>
0.41286364

>  <BCUT_SLOGP_3>
2.6194384

>  <BCUT_SMR_0>
-2.374244

>  <BCUT_SMR_1>
-0.036922392

>  <BCUT_SMR_2>
0.46783072

>  <BCUT_SMR_3>
2.8650596

>  <bpol>
20.057692

>  <b_1rotN>
2

>  <b_1rotR>
0.14285715

>  <b_ar>
0

>  <b_count>
27

>  <b_double>
3

>  <b_heavy>
14

>  <b_rotN>
2

>  <b_rotR>
0.14285715

>  <b_single>
24

>  <b_triple>
0

>  <chi0>
10.878315

>  <chi0v>
10.012128

>  <chi0v_C>
6.2844572

>  <chi0_C>
6.5938582

>  <chi1>
6.4852695

>  <chi1v>
5.2883468

>  <chi1v_C>
2.6927054

>  <chi1_C>
2.9367223

>  <chiral>
1

>  <chiral_u>
1

>  <density>
1.0325289

>  <diameter>
7

>  <FCharge>
0

>  <GCUT_PEOE_0>
-0.80219954

>  <GCUT_PEOE_1>
-0.37462664

>  <GCUT_PEOE_2>
-0.067611098

>  <GCUT_PEOE_3>
2.3989549

>  <GCUT_SLOGP_0>
-1.1355844

>  <GCUT_SLOGP_1>
-0.25267458

>  <GCUT_SLOGP_2>
0.064694084

>  <GCUT_SLOGP_3>
2.4042242

>  <GCUT_SMR_0>
-0.52548558

>  <GCUT_SMR_1>
-0.13268045

>  <GCUT_SMR_2>
0.13102083

>  <GCUT_SMR_3>
2.6576233

>  <Kier1>
12.071428

>  <Kier2>
4.6799998

>  <Kier3>
2.3431952

>  <KierA1>
10.963408

>  <KierA2>
4.2167063

>  <KierA3>
2.0983977

>  <KierFlex>
3.3021049

>  <lip_acc>
4

>  <lip_don>
1

>  <lip_druglike>
1

>  <lip_violation>
0

>  <logP(o/w)>
2.0639999

>  <logS>
-2.62849

>  <mr>
5.7182679

>  <mutagenic>
0

>  <nmol>
1

>  <opr_brigid>
6

>  <opr_leadlike>
1

>  <opr_nring>
1

>  <opr_nrot>
2

>  <opr_violation>
0

>  <PC+>
0

>  <PC->
0

>  <PEOE_PC+>
0.99820936

>  <PEOE_PC->
-0.99820936

>  <PEOE_RPC+>
0.35269406

>  <PEOE_RPC->
0.26674697

>  <PEOE_VSA+0>
74.625397

>  <PEOE_VSA+1>
42.807552

>  <PEOE_VSA+2>
2.2522078

>  <PEOE_VSA+3>
0

>  <PEOE_VSA+4>
0

>  <PEOE_VSA+5>
12.949531

>  <PEOE_VSA+6>
17.440542

>  <PEOE_VSA-0>
43.624847

>  <PEOE_VSA-1>
0

>  <PEOE_VSA-2>
0

>  <PEOE_VSA-3>
5.6825762

>  <PEOE_VSA-4>
13.566921

>  <PEOE_VSA-5>
13.566921

>  <PEOE_VSA-6>
0

>  <PEOE_VSA_FHYD>
0.74604976

>  <PEOE_VSA_FNEG>
0.33746445

>  <PEOE_VSA_FPNEG>
0.11978748

>  <PEOE_VSA_FPOL>
0.25395024

>  <PEOE_VSA_FPOS>
0.66253555

>  <PEOE_VSA_FPPOS>
0.13416274

>  <PEOE_VSA_HYD>
168.99258

>  <PEOE_VSA_NEG>
76.441269

>  <PEOE_VSA_PNEG>
27.133842

>  <PEOE_VSA_POL>
57.523914

>  <PEOE_VSA_POS>
150.07523

>  <PEOE_VSA_PPOS>
30.390074

>  <petitjean>
0.42857143

>  <petitjeanSC>
0.75

>  <Q_PC+>
0

>  <Q_PC->
0

>  <Q_RPC+>
0

>  <Q_RPC->
0

>  <Q_VSA_FHYD>
1

>  <Q_VSA_FNEG>
0

>  <Q_VSA_FPNEG>
0

>  <Q_VSA_FPOL>
0

>  <Q_VSA_FPOS>
1

>  <Q_VSA_FPPOS>
0

>  <Q_VSA_HYD>
226.51649

>  <Q_VSA_NEG>
0

>  <Q_VSA_PNEG>
0

>  <Q_VSA_POL>
0

>  <Q_VSA_POS>
226.51649

>  <Q_VSA_PPOS>
0

>  <radius>
4

>  <reactive>
0

>  <rings>
1

>  <RPC+>
0

>  <RPC->
0

>  <rsynth>
1

>  <SlogP>
1.9631

>  <SlogP_VSA0>
18.01075

>  <SlogP_VSA1>
13.213054

>  <SlogP_VSA2>
27.844185

>  <SlogP_VSA3>
0

>  <SlogP_VSA4>
0

>  <SlogP_VSA5>
5.811852

>  <SlogP_VSA6>
0

>  <SlogP_VSA7>
0

>  <SlogP_VSA8>
18.868406

>  <SlogP_VSA9>
169.79436

>  <SMR>
5.6757698

>  <SMR_VSA0>
47.724434

>  <SMR_VSA1>
3.1243138

>  <SMR_VSA2>
18.01075

>  <SMR_VSA3>
9.7938204

>  <SMR_VSA4>
0

>  <SMR_VSA5>
18.868406

>  <SMR_VSA6>
10.088739

>  <SMR_VSA7>
145.93214

>  <TPSA>
49.41

>  <VAdjEq>
0.59167278

>  <VAdjMa>
4.8073549

>  <VDistEq>
2.4889665

>  <VDistMa>
7.3466067

>  <vdw_area>
226.51649

>  <vdw_vol>
240.20152

>  <vsa_acc>
27.133842

>  <vsa_acid>
0

>  <vsa_base>
0

>  <vsa_don>
5.6825762

>  <vsa_hyd>
163.31

>  <vsa_other>
30.390074

>  <vsa_pol>
32.816418

>  <Weight>
261.11899

>  <weinerPath>
280

>  <weinerPol>
23

>  <zagreb>
68

$$$$
C1=C(Br)C(O)=C(Br)C=C1C#N
  MOE2011           2D

 11 11  0  0  0  0  0  0  0  0999 V2000
    0.0000    0.0000    0.0000 C   0  0  0  0  0  0  0  0  0  0  0  0
   -1.5000    0.0000    0.0000 C   0  0  0  0  0  0  0  0  0  0  0  0
   -2.2500    1.2990    0.0000 Br  0  0  0  0  0  0  0  0  0  0  0  0
   -2.2500   -1.2990    0.0000 C   0  0  0  0  0  0  0  0  0  0  0  0
   -3.7500   -1.2990    0.0000 O   0  0  0  0  0  0  0  0  0  0  0  0
   -1.5000   -2.5980    0.0000 C   0  0  0  0  0  0  0  0  0  0  0  0
   -2.2500   -3.8970    0.0000 Br  0  0  0  0  0  0  0  0  0  0  0  0
    0.0000   -2.5980    0.0000 C   0  0  0  0  0  0  0  0  0  0  0  0
    0.7500   -1.2990    0.0000 C   0  0  0  0  0  0  0  0  0  0  0  0
    2.2500   -1.2990    0.0000 C   0  0  0  0  0  0  0  0  0  0  0  0
    3.7500   -1.2990    0.0000 N   0  0  0  0  0  0  0  0  0  0  0  0
  1  2  1  0  0  0  0
  1  9  2  0  0  0  0
  2  3  1  0  0  0  0
  2  4  2  0  0  0  0
  4  5  1  0  0  0  0
  4  6  1  0  0  0  0
  6  7  1  0  0  0  0
  6  8  2  0  0  0  0
  8  9  1  0  0  0  0
  9 10  1  0  0  0  0
 10 11  3  0  0  0  0
M  END
>  <DSSTox_RID>
40319

>  <DSSTox_CID>
2162

>  <apol>
22.322378

>  <a_acc>
2

>  <a_acid>
0

>  <a_aro>
6

>  <a_base>
0

>  <a_count>
14

>  <a_don>
1

>  <a_heavy>
11

>  <a_hyd>
8

>  <a_IC>
26.896597

>  <a_ICM>
1.9211855

>  <a_nB>
0

>  <a_nBr>
2

>  <a_nC>
7

>  <a_nCl>
0

>  <a_nF>
0

>  <a_nH>
3

>  <a_nI>
0

>  <a_nN>
1

>  <a_nO>
1

>  <a_nP>
0

>  <a_nS>
0

>  <balabanJ>
2.5233912

>  <BCUT_PEOE_0>
-2.1224418

>  <BCUT_PEOE_1>
-0.68377453

>  <BCUT_PEOE_2>
0.69891149

>  <BCUT_PEOE_3>
2.150238

>  <BCUT_SLOGP_0>
-1.9404185

>  <BCUT_SLOGP_1>
-0.47790956

>  <BCUT_SLOGP_2>
0.97976917

>  <BCUT_SLOGP_3>
2.400064

>  <BCUT_SMR_0>
-1.7996982

>  <BCUT_SMR_1>
-0.36260933

>  <BCUT_SMR_2>
1.0867428

>  <BCUT_SMR_3>
2.4941597

>  <bpol>
6.5196209

>  <b_1rotN>
0

>  <b_1rotR>
0

>  <b_ar>
6

>  <b_count>
14

>  <b_double>
0

>  <b_heavy>
11

>  <b_rotN>
1

>  <b_rotR>
0.090909094

>  <b_single>
7

>  <b_triple>
1

>  <chi0>
8.4307213

>  <chi0v>
8.4770498

>  <chi0v_C>
3.6547005

>  <chi0_C>
4.4307213

>  <chi1>
5.1470656

>  <chi1v>
4.3158751

>  <chi1v_C>
1.9047005

>  <chi1_C>
2.7079082

>  <chiral>
0

>  <chiral_u>
0

>  <density>
1.3011255

>  <diameter>
6

>  <FCharge>
0

>  <GCUT_PEOE_0>
-0.75109345

>  <GCUT_PEOE_1>
-0.46525708

>  <GCUT_PEOE_2>
0.13837296

>  <GCUT_PEOE_3>
1.9175111

>  <GCUT_SLOGP_0>
-0.76168448

>  <GCUT_SLOGP_1>
-0.2344003

>  <GCUT_SLOGP_2>
0.407426

>  <GCUT_SLOGP_3>
2.1625292

>  <GCUT_SMR_0>
-0.42685008

>  <GCUT_SMR_1>
-0.15616554

>  <GCUT_SMR_2>
0.52730948

>  <GCUT_SMR_3>
2.2696483

>  <Kier1>
9.090909

>  <Kier2>
3.5999999

>  <Kier3>
1.9753087

>  <KierA1>
9.9042845

>  <KierA2>
3.9578662

>  <KierA3>
2.1891508

>  <KierFlex>
3.5636213

>  <lip_acc>
2

>  <lip_don>
1

>  <lip_druglike>
1

>  <lip_violation>
0

>  <logP(o/w)>
2.924

>  <logS>
-3.5546401

>  <mr>
4.9265065

>  <mutagenic>
0

>  <nmol>
1

>  <opr_brigid>
6

>  <opr_leadlike>
1

>  <opr_nring>
1

>  <opr_nrot>
1

>  <opr_violation>
0

>  <PC+>
0

>  <PC->
0

>  <PEOE_PC+>
0.47337756

>  <PEOE_PC->
-0.47337756

>  <PEOE_RPC+>
0.30245075

>  <PEOE_RPC->
0.40312487

>  <PEOE_VSA+0>
31.616989

>  <PEOE_VSA+1>
6.7129555

>  <PEOE_VSA+2>
28.758026

>  <PEOE_VSA+3>
0

>  <PEOE_VSA+4>
0

>  <PEOE_VSA+5>
0

>  <PEOE_VSA+6>
0

>  <PEOE_VSA-0>
87.249695

>  <PEOE_VSA-1>
0

>  <PEOE_VSA-2>
0

>  <PEOE_VSA-3>
31.30941

>  <PEOE_VSA-4>
0

>  <PEOE_VSA-5>
0

>  <PEOE_VSA-6>
0

>  <PEOE_VSA_FHYD>
1

>  <PEOE_VSA_FNEG>
0.63862634

>  <PEOE_VSA_FPNEG>
0

>  <PEOE_VSA_FPOL>
0

>  <PEOE_VSA_FPOS>
0.36137369

>  <PEOE_VSA_FPPOS>
0

>  <PEOE_VSA_HYD>
185.64708

>  <PEOE_VSA_NEG>
118.5591

>  <PEOE_VSA_PNEG>
0

>  <PEOE_VSA_POL>
0

>  <PEOE_VSA_POS>
67.087967

>  <PEOE_VSA_PPOS>
0

>  <petitjean>
0.33333334

>  <petitjeanSC>
0.5

>  <Q_PC+>
0

>  <Q_PC->
0

>  <Q_RPC+>
0

>  <Q_RPC->
0

>  <Q_VSA_FHYD>
1

>  <Q_VSA_FNEG>
0

>  <Q_VSA_FPNEG>
0

>  <Q_VSA_FPOL>
0

>  <Q_VSA_FPOS>
1

>  <Q_VSA_FPPOS>
0

>  <Q_VSA_HYD>
185.64708

>  <Q_VSA_NEG>
0

>  <Q_VSA_PNEG>
0

>  <Q_VSA_POL>
0

>  <Q_VSA_POS>
185.64708

>  <Q_VSA_PPOS>
0

>  <radius>
4

>  <reactive>
0

>  <rings>
1

>  <RPC+>
0

>  <RPC->
0

>  <rsynth>
1

>  <SlogP>
2.7888839

>  <SlogP_VSA0>
25.385227

>  <SlogP_VSA1>
0

>  <SlogP_VSA2>
0

>  <SlogP_VSA3>
47.661102

>  <SlogP_VSA4>
3.185575

>  <SlogP_VSA5>
6.110209

>  <SlogP_VSA6>
0

>  <SlogP_VSA7>
35.286369

>  <SlogP_VSA8>
0

>  <SlogP_VSA9>
97.151619

>  <SMR>
4.8221798

>  <SMR_VSA0>
0

>  <SMR_VSA1>
56.444584

>  <SMR_VSA2>
6.110209

>  <SMR_VSA3>
25.03075

>  <SMR_VSA4>
0

>  <SMR_VSA5>
35.286369

>  <SMR_VSA6>
0

>  <SMR_VSA7>
91.908188

>  <TPSA>
44.02

>  <VAdjEq>
0.68403846

>  <VAdjMa>
4.4594316

>  <VDistEq>
2.2942727

>  <VDistMa>
6.6197801

>  <vdw_area>
185.64708

>  <vdw_vol>
210.50313

>  <vsa_acc>
17.742489

>  <vsa_acid>
0

>  <vsa_base>
0

>  <vsa_don>
0

>  <vsa_hyd>
134.03816

>  <vsa_other>
20.299505

>  <vsa_pol>
31.30941

>  <Weight>
276.91501

>  <weinerPath>
148

>  <weinerPol>
15

>  <zagreb>
52

$$$$
O=C1N(C(C)C)/C(SCN1C2=CC=CC=C2)=N/C(C)(C)C
  MOE2011           2D

 21 22  0  0  0  0  0  0  0  0999 V2000
    0.0000    0.0000    0.0000 O   0  0  0  0  0  0  0  0  0  0  0  0
    0.7590   -1.2940    0.0000 C   0  0  0  0  0  0  0  0  0  0  0  0
    2.2590   -1.2840    0.0000 N   0  0  0  0  0  0  0  0  0  0  0  0
    3.0000    0.0200    0.0000 C   0  0  0  0  0  0  0  0  0  0  0  0
    4.5000    0.0300    0.0000 C   0  0  0  0  0  0  0  0  0  0  0  0
    2.2410    1.3140    0.0000 C   0  0  0  0  0  0  0  0  0  0  0  0
    3.0170   -2.5780    0.0000 C   0  0  0  0  0  0  0  0  0  0  0  0
    2.2760   -3.8820    0.0000 S   0  0  0  0  0  0  0  0  0  0  0  0
    0.7760   -3.8920    0.0000 C   0  0  0  0  0  0  0  0  0  0  0  0
    0.0180   -2.5980    0.0000 N   0  0  0  0  0  0  0  0  0  0  0  0
   -1.4820   -2.6080    0.0000 C   0  0  0  0  0  0  0  0  0  0  0  0
   -2.2240   -3.9120    0.0000 C   0  0  0  0  0  0  0  0  0  0  0  0
   -3.7240   -3.9220    0.0000 C   0  0  0  0  0  0  0  0  0  0  0  0
   -4.4820   -2.6280    0.0000 C   0  0  0  0  0  0  0  0  0  0  0  0
   -3.7410   -1.3240    0.0000 C   0  0  0  0  0  0  0  0  0  0  0  0
   -2.2410   -1.3140    0.0000 C   0  0  0  0  0  0  0  0  0  0  0  0
    4.5170   -2.5680    0.0000 N   0  0  0  0  0  0  0  0  0  0  0  0
    5.2760   -3.8620    0.0000 C   0  0  0  0  0  0  0  0  0  0  0  0
    6.5700   -3.1030    0.0000 C   0  0  0  0  0  0  0  0  0  0  0  0
    6.0350   -5.1560    0.0000 C   0  0  0  0  0  0  0  0  0  0  0  0
    3.9820   -4.6200    0.0000 C   0  0  0  0  0  0  0  0  0  0  0  0
  1  2  2  0  0  0  0
  2  3  1  0  0  0  0
  2 10  1  0  0  0  0
  3  4  1  0  0  0  0
  3  7  1  0  0  0  0
  4  5  1  0  0  0  0
  4  6  1  0  0  0  0
  7  8  1  0  0  0  0
  7 17  2  0  0  0  0
  8  9  1  0  0  0  0
  9 10  1  0  0  0  0
 10 11  1  0  0  0  0
 11 12  1  0  0  0  0
 11 16  2  0  0  0  0
 12 13  2  0  0  0  0
 13 14  1  0  0  0  0
 14 15  2  0  0  0  0
 15 16  1  0  0  0  0
 17 18  1  0  0  0  0
 18 19  1  0  0  0  0
 18 20  1  0  0  0  0
 18 21  1  0  0  0  0
M  END
>  <DSSTox_RID>
40367

>  <DSSTox_CID>
14401

>  <apol>
50.498238

>  <a_acc>
2

>  <a_acid>
0

>  <a_aro>
6

>  <a_base>
0

>  <a_count>
44

>  <a_don>
0

>  <a_heavy>
21

>  <a_hyd>
15

>  <a_IC>
67.418182

>  <a_ICM>
1.5322313

>  <a_nB>
0

>  <a_nBr>
0

>  <a_nC>
16

>  <a_nCl>
0

>  <a_nF>
0

>  <a_nH>
23

>  <a_nI>
0

>  <a_nN>
3

>  <a_nO>
1

>  <a_nP>
0

>  <a_nS>
1

>  <balabanJ>
2.0745873

>  <BCUT_PEOE_0>
-2.6314669

>  <BCUT_PEOE_1>
-0.47356123

>  <BCUT_PEOE_2>
0.43930033

>  <BCUT_PEOE_3>
2.5981662

>  <BCUT_SLOGP_0>
-2.7063923

>  <BCUT_SLOGP_1>
-0.34988356

>  <BCUT_SLOGP_2>
0.61444223

>  <BCUT_SLOGP_3>
2.6254394

>  <BCUT_SMR_0>
-2.3601599

>  <BCUT_SMR_1>
-0.23971219

>  <BCUT_SMR_2>
0.669792

>  <BCUT_SMR_3>
2.9018793

>  <bpol>
33.661762

>  <b_1rotN>
2

>  <b_1rotR>
0.090909094

>  <b_ar>
6

>  <b_count>
45

>  <b_double>
2

>  <b_heavy>
22

>  <b_rotN>
3

>  <b_rotR>
0.13636364

>  <b_single>
37

>  <b_triple>
0

>  <chi0>
15.620955

>  <chi0v>
14.145843

>  <chi0v_C>
11.171208

>  <chi0_C>
12.052042

>  <chi1>
9.7935123

>  <chi1v>
8.1639738

>  <chi1v_C>
4.5653839

>  <chi1_C>
5.4711971

>  <chiral>
0

>  <chiral_u>
0

>  <density>
0.7835921

>  <diameter>
10

>  <FCharge>
0

>  <GCUT_PEOE_0>
-0.8062759

>  <GCUT_PEOE_1>
-0.35875705

>  <GCUT_PEOE_2>
-0.095213421

>  <GCUT_PEOE_3>
2.6448886

>  <GCUT_SLOGP_0>
-0.99645686

>  <GCUT_SLOGP_1>
-0.24591962

>  <GCUT_SLOGP_2>
0.12718679

>  <GCUT_SLOGP_3>
2.6995611

>  <GCUT_SMR_0>
-0.52441782

>  <GCUT_SMR_1>
-0.15067399

>  <GCUT_SMR_2>
0.14522779

>  <GCUT_SMR_3>
2.9376769

>  <Kier1>
17.355371

>  <Kier2>
7.0507813

>  <Kier3>
4.4875345

>  <KierA1>
14.413588

>  <KierA2>
5.7977452

>  <KierA3>
3.6619492

>  <KierFlex>
3.9793482

>  <lip_acc>
4

>  <lip_don>
0

>  <lip_druglike>
1

>  <lip_violation>
0

>  <logP(o/w)>
3.9560001

>  <logS>
-4.2365198

>  <mr>
8.8015471

>  <mutagenic>
0

>  <nmol>
1

>  <opr_brigid>
13

>  <opr_leadlike>
1

>  <opr_nring>
2

>  <opr_nrot>
3

>  <opr_violation>
0

>  <PC+>
0

>  <PC->
0

>  <PEOE_PC+>
1.0850503

>  <PEOE_PC->
-1.0850503

>  <PEOE_RPC+>
0.30736661

>  <PEOE_RPC->
0.24947096

>  <PEOE_VSA+0>
226.08472

>  <PEOE_VSA+1>
13.399102

>  <PEOE_VSA+2>
0

>  <PEOE_VSA+3>
35.442192

>  <PEOE_VSA+4>
0

>  <PEOE_VSA+5>
0

>  <PEOE_VSA+6>
17.440542

>  <PEOE_VSA-0>
0

>  <PEOE_VSA-1>
19.760618

>  <PEOE_VSA-2>
0

>  <PEOE_VSA-3>
0

>  <PEOE_VSA-4>
13.566921

>  <PEOE_VSA-5>
5.6825762

>  <PEOE_VSA-6>
0

>  <PEOE_VSA_FHYD>
0.88927996

>  <PEOE_VSA_FNEG>
0.11772136

>  <PEOE_VSA_FPNEG>
0.058089476

>  <PEOE_VSA_FPOL>
0.11072005

>  <PEOE_VSA_FPOS>
0.88227862

>  <PEOE_VSA_FPPOS>
0.05263057

>  <PEOE_VSA_HYD>
294.68665

>  <PEOE_VSA_NEG>
39.010117

>  <PEOE_VSA_PNEG>
19.249496

>  <PEOE_VSA_POL>
36.690041

>  <PEOE_VSA_POS>
292.36655

>  <PEOE_VSA_PPOS>
17.440542

>  <petitjean>
0.5

>  <petitjeanSC>
1

>  <Q_PC+>
0

>  <Q_PC->
0

>  <Q_RPC+>
0

>  <Q_RPC->
0

>  <Q_VSA_FHYD>
1

>  <Q_VSA_FNEG>
0

>  <Q_VSA_FPNEG>
0

>  <Q_VSA_FPOL>
0

>  <Q_VSA_FPOS>
1

>  <Q_VSA_FPPOS>
0

>  <Q_VSA_HYD>
331.37668

>  <Q_VSA_NEG>
0

>  <Q_VSA_PNEG>
0

>  <Q_VSA_POL>
0

>  <Q_VSA_POS>
331.37668

>  <Q_VSA_PPOS>
0

>  <radius>
5

>  <reactive>
0

>  <rings>
2

>  <RPC+>
0

>  <RPC->
0

>  <rsynth>
1

>  <SlogP>
4.1822

>  <SlogP_VSA0>
3.1243138

>  <SlogP_VSA1>
8.6473494

>  <SlogP_VSA2>
3.9819686

>  <SlogP_VSA3>
16.804737

>  <SlogP_VSA4>
0

>  <SlogP_VSA5>
16.78553

>  <SlogP_VSA6>
0

>  <SlogP_VSA7>
88.215919

>  <SlogP_VSA8>
0

>  <SlogP_VSA9>
225.46858

>  <SMR>
9.0938997

>  <SMR_VSA0>
23.862217

>  <SMR_VSA1>
19.909843

>  <SMR_VSA2>
3.1243138

>  <SMR_VSA3>
3.9819686

>  <SMR_VSA4>
2.7567475

>  <SMR_VSA5>
88.215919

>  <SMR_VSA6>
22.327772

>  <SMR_VSA7>
198.84961

>  <TPSA>
35.91

>  <VAdjEq>
0.46827638

>  <VAdjMa>
5.4594316

>  <VDistEq>
3.0901253

>  <VDistMa>
8.5098858

>  <vdw_area>
331.37668

>  <vdw_vol>
360.21545

>  <vsa_acc>
19.249496

>  <vsa_acid>
0

>  <vsa_base>
0

>  <vsa_don>
0

>  <vsa_hyd>
281.52002

>  <vsa_other>
30.607166

>  <vsa_pol>
19.249496

>  <Weight>
305.44598

>  <weinerPath>
896

>  <weinerPol>
32

>  <zagreb>
108

$$$$
O=C(CCl)N(COCCCC)C1=C(CC)C=CC=C1CC
  MOE2011           2D

 21 21  0  0  0  0  0  0  0  0999 V2000
    0.0000    0.0000    0.0000 O   0  0  0  0  0  0  0  0  0  0  0  0
    0.7410   -1.3040    0.0000 C   0  0  0  0  0  0  0  0  0  0  0  0
    2.2410   -1.3140    0.0000 C   0  0  0  0  0  0  0  0  0  0  0  0
    3.0000   -0.0200    0.0000 Cl  0  0  0  0  0  0  0  0  0  0  0  0
   -0.0180   -2.5980    0.0000 N   0  0  0  0  0  0  0  0  0  0  0  0
    0.7240   -3.9020    0.0000 C   0  0  0  0  0  0  0  0  0  0  0  0
    2.2240   -3.9120    0.0000 O   0  0  0  0  0  0  0  0  0  0  0  0
    2.9650   -5.2160    0.0000 C   0  0  0  0  0  0  0  0  0  0  0  0
    4.4650   -5.2260    0.0000 C   0  0  0  0  0  0  0  0  0  0  0  0
    5.2060   -6.5300    0.0000 C   0  0  0  0  0  0  0  0  0  0  0  0
    6.7060   -6.5410    0.0000 C   0  0  0  0  0  0  0  0  0  0  0  0
   -1.5180   -2.5880    0.0000 C   0  0  0  0  0  0  0  0  0  0  0  0
   -2.2760   -3.8820    0.0000 C   0  0  0  0  0  0  0  0  0  0  0  0
   -1.5350   -5.1860    0.0000 C   0  0  0  0  0  0  0  0  0  0  0  0
   -2.2940   -6.4800    0.0000 C   0  0  0  0  0  0  0  0  0  0  0  0
   -3.7760   -3.8720    0.0000 C   0  0  0  0  0  0  0  0  0  0  0  0
   -4.5170   -2.5680    0.0000 C   0  0  0  0  0  0  0  0  0  0  0  0
   -3.7590   -1.2740    0.0000 C   0  0  0  0  0  0  0  0  0  0  0  0
   -2.2590   -1.2840    0.0000 C   0  0  0  0  0  0  0  0  0  0  0  0
   -1.5000    0.0100    0.0000 C   0  0  0  0  0  0  0  0  0  0  0  0
   -2.2410    1.3140    0.0000 C   0  0  0  0  0  0  0  0  0  0  0  0
  1  2  2  0  0  0  0
  2  3  1  0  0  0  0
  2  5  1  0  0  0  0
  3  4  1  0  0  0  0
  5  6  1  0  0  0  0
  5 12  1  0  0  0  0
  6  7  1  0  0  0  0
  7  8  1  0  0  0  0
  8  9  1  0  0  0  0
  9 10  1  0  0  0  0
 10 11  1  0  0  0  0
 12 13  1  0  0  0  0
 12 19  2  0  0  0  0
 13 14  1  0  0  0  0
 13 16  2  0  0  0  0
 14 15  1  0  0  0  0
 16 17  1  0  0  0  0
 17 18  2  0  0  0  0
 18 19  1  0  0  0  0
 19 20  1  0  0  0  0
 20 21  1  0  0  0  0
M  END
>  <DSSTox_RID>
40368

>  <DSSTox_CID>
14402

>  <apol>
52.140617

>  <a_acc>
2

>  <a_acid>
0

>  <a_aro>
6

>  <a_base>
0

>  <a_count>
47

>  <a_don>
0

>  <a_heavy>
21

>  <a_hyd>
16

>  <a_IC>
67.367378

>  <a_ICM>
1.4333484

>  <a_nB>
0

>  <a_nBr>
0

>  <a_nC>
17

>  <a_nCl>
1

>  <a_nF>
0

>  <a_nH>
26

>  <a_nI>
0

>  <a_nN>
1

>  <a_nO>
2

>  <a_nP>
0

>  <a_nS>
0

>  <balabanJ>
2.7606776

>  <BCUT_PEOE_0>
-2.5985649

>  <BCUT_PEOE_1>
-0.15767474

>  <BCUT_PEOE_2>
0.072064795

>  <BCUT_PEOE_3>
2.5484433

>  <BCUT_SLOGP_0>
-2.6128912

>  <BCUT_SLOGP_1>
-0.046321191

>  <BCUT_SLOGP_2>
0.34136465

>  <BCUT_SLOGP_3>
2.6428726

>  <BCUT_SMR_0>
-2.34988

>  <BCUT_SMR_1>
0.1057

>  <BCUT_SMR_2>
0.35108528

>  <BCUT_SMR_3>
2.8078566

>  <bpol>
33.697384

>  <b_1rotN>
10

>  <b_1rotR>
0.47619048

>  <b_ar>
6

>  <b_count>
47

>  <b_double>
1

>  <b_heavy>
21

>  <b_rotN>
10

>  <b_rotR>
0.47619048

>  <b_single>
40

>  <b_triple>
0

>  <chi0>
15.664926

>  <chi0v>
14.079402

>  <chi0v_C>
11.681798

>  <chi0_C>
12.380469

>  <chi1>
10.188601

>  <chi1v>
8.2726965

>  <chi1v_C>
5.9259973

>  <chi1_C>
6.8292284

>  <chiral>
0

>  <chiral_u>
0

>  <density>
0.77924192

>  <diameter>
10

>  <FCharge>
0

>  <GCUT_PEOE_0>
-0.80960977

>  <GCUT_PEOE_1>
-0.30941674

>  <GCUT_PEOE_2>
-0.087935209

>  <GCUT_PEOE_3>
2.6463938

>  <GCUT_SLOGP_0>
-1.0014585

>  <GCUT_SLOGP_1>
-0.18951727

>  <GCUT_SLOGP_2>
0.031422965

>  <GCUT_SLOGP_3>
2.7289286

>  <GCUT_SMR_0>
-0.52864844

>  <GCUT_SMR_1>
-0.087308362

>  <GCUT_SMR_2>
0.10011834

>  <GCUT_SMR_3>
2.9179251

>  <Kier1>
19.047619

>  <Kier2>
10.680473

>  <Kier3>
5.6055365

>  <KierA1>
16.90082

>  <KierA2>
9.4169664

>  <KierA3>
4.9184732

>  <KierFlex>
7.5787835

>  <lip_acc>
3

>  <lip_don>
0

>  <lip_druglike>
1

>  <lip_violation>
0

>  <logP(o/w)>
4.789

>  <logS>
-4.4899802

>  <mr>
8.9866924

>  <mutagenic>
1

>  <nmol>
1

>  <opr_brigid>
6

>  <opr_leadlike>
1

>  <opr_nring>
1

>  <opr_nrot>
9

>  <opr_violation>
0

>  <PC+>
0

>  <PC->
0

>  <PEOE_PC+>
0.99767828

>  <PEOE_PC->
-0.99767828

>  <PEOE_RPC+>
0.25852612

>  <PEOE_RPC->
0.33290416

>  <PEOE_VSA+0>
151.45932

>  <PEOE_VSA+1>
6.6995511

>  <PEOE_VSA+2>
22.058474

>  <PEOE_VSA+3>
18.119701

>  <PEOE_VSA+4>
0

>  <PEOE_VSA+5>
39.499016

>  <PEOE_VSA+6>
0

>  <PEOE_VSA-0>
51.842564

>  <PEOE_VSA-1>
0

>  <PEOE_VSA-2>
29.581947

>  <PEOE_VSA-3>
0

>  <PEOE_VSA-4>
0

>  <PEOE_VSA-5>
13.566921

>  <PEOE_VSA-6>
2.503756

>  <PEOE_VSA_FHYD>
0.83428419

>  <PEOE_VSA_FNEG>
0.2907429

>  <PEOE_VSA_FPNEG>
0.047924779

>  <PEOE_VSA_FPOL>
0.16571581

>  <PEOE_VSA_FPOS>
0.70925707

>  <PEOE_VSA_FPPOS>
0.11779103

>  <PEOE_VSA_HYD>
279.76157

>  <PEOE_VSA_NEG>
97.495186

>  <PEOE_VSA_PNEG>
16.070677

>  <PEOE_VSA_POL>
55.569695

>  <PEOE_VSA_POS>
237.83607

>  <PEOE_VSA_PPOS>
39.499016

>  <petitjean>
0.5

>  <petitjeanSC>
1

>  <Q_PC+>
0

>  <Q_PC->
0

>  <Q_RPC+>
0

>  <Q_RPC->
0

>  <Q_VSA_FHYD>
1

>  <Q_VSA_FNEG>
0

>  <Q_VSA_FPNEG>
0

>  <Q_VSA_FPOL>
0

>  <Q_VSA_FPOS>
1

>  <Q_VSA_FPPOS>
0

>  <Q_VSA_HYD>
335.33127

>  <Q_VSA_NEG>
0

>  <Q_VSA_PNEG>
0

>  <Q_VSA_POL>
0

>  <Q_VSA_POS>
335.33127

>  <Q_VSA_PPOS>
0

>  <radius>
5

>  <reactive>
1

>  <rings>
1

>  <RPC+>
0

>  <RPC->
0

>  <rsynth>
1

>  <SlogP>
4.15734

>  <SlogP_VSA0>
3.1243138

>  <SlogP_VSA1>
5.2587838

>  <SlogP_VSA2>
34.862103

>  <SlogP_VSA3>
60.607128

>  <SlogP_VSA4>
6.37115

>  <SlogP_VSA5>
37.736813

>  <SlogP_VSA6>
0

>  <SlogP_VSA7>
52.929554

>  <SlogP_VSA8>
37.736813

>  <SlogP_VSA9>
141.88344

>  <SMR>
8.9131002

>  <SMR_VSA0>
34.862103

>  <SMR_VSA1>
0

>  <SMR_VSA2>
3.1243138

>  <SMR_VSA3>
6.37115

>  <SMR_VSA4>
2.7567475

>  <SMR_VSA5>
128.40317

>  <SMR_VSA6>
65.865913

>  <SMR_VSA7>
139.12669

>  <TPSA>
29.540001

>  <VAdjEq>
0.45371634

>  <VAdjMa>
5.3923173

>  <VDistEq>
3.1217077

>  <VDistMa>
8.5202131

>  <vdw_area>
335.33127

>  <vdw_vol>
366.56778

>  <vsa_acc>
16.070677

>  <vsa_acid>
0

>  <vsa_base>
0

>  <vsa_don>
0

>  <vsa_hyd>
279.76157

>  <vsa_other>
39.499016

>  <vsa_pol>
16.070677

>  <Weight>
311.853

>  <weinerPath>
936

>  <weinerPol>
31

>  <zagreb>
94

$$$$
O=C(OC(C(OCC=C)=O)(C)C)C1=C(Cl)C=CC(N2C(N(C)C(C(F)(F)F)=CC2=O)=O)=C1
  MOE2011           2D

 32 33  0  0  0  0  0  0  0  0999 V2000
    0.0000    0.0000    0.0000 O   0  0  0  0  0  0  0  0  0  0  0  0
    0.7580    1.2950    0.0000 C   0  0  0  0  0  0  0  0  0  0  0  0
    2.2580    1.2860    0.0000 O   0  0  0  0  0  0  0  0  0  0  0  0
    3.0000   -0.0180    0.0000 C   0  0  0  0  0  0  0  0  0  0  0  0
    3.7420   -1.3210    0.0000 C   0  0  0  0  0  0  0  0  0  0  0  0
    5.2420   -1.3300    0.0000 O   0  0  0  0  0  0  0  0  0  0  0  0
    5.9850   -2.6330    0.0000 C   0  0  0  0  0  0  0  0  0  0  0  0
    7.4850   -2.6420    0.0000 C   0  0  0  0  0  0  0  0  0  0  0  0
    8.2270   -3.9450    0.0000 C   0  0  0  0  0  0  0  0  0  0  0  0
    2.9850   -2.6160    0.0000 O   0  0  0  0  0  0  0  0  0  0  0  0
    4.3030    0.7250    0.0000 C   0  0  0  0  0  0  0  0  0  0  0  0
    1.6970   -0.7600    0.0000 C   0  0  0  0  0  0  0  0  0  0  0  0
    0.0150    2.5980    0.0000 C   0  0  0  0  0  0  0  0  0  0  0  0
    0.7730    3.8930    0.0000 C   0  0  0  0  0  0  0  0  0  0  0  0
    2.2730    3.8840    0.0000 Cl  0  0  0  0  0  0  0  0  0  0  0  0
    0.0300    5.1960    0.0000 C   0  0  0  0  0  0  0  0  0  0  0  0
   -1.4700    5.2050    0.0000 C   0  0  0  0  0  0  0  0  0  0  0  0
   -2.2270    3.9100    0.0000 C   0  0  0  0  0  0  0  0  0  0  0  0
   -3.7270    3.9190    0.0000 N   0  0  0  0  0  0  0  0  0  0  0  0
   -4.4700    5.2220    0.0000 C   0  0  0  0  0  0  0  0  0  0  0  0
   -5.9700    5.2310    0.0000 N   0  0  0  0  0  0  0  0  0  0  0  0
   -6.7120    6.5350    0.0000 C   0  0  0  0  0  0  0  0  0  0  0  0
   -6.7270    3.9360    0.0000 C   0  0  0  0  0  0  0  0  0  0  0  0
   -8.2270    3.9450    0.0000 C   0  0  0  0  0  0  0  0  0  0  0  0
   -9.7270    3.9540    0.0000 F   0  0  0  0  0  0  0  0  0  0  0  0
   -8.2360    2.4450    0.0000 F   0  0  0  0  0  0  0  0  0  0  0  0
   -8.2180    5.4450    0.0000 F   0  0  0  0  0  0  0  0  0  0  0  0
   -5.9850    2.6330    0.0000 C   0  0  0  0  0  0  0  0  0  0  0  0
   -4.4850    2.6240    0.0000 C   0  0  0  0  0  0  0  0  0  0  0  0
   -3.7420    1.3210    0.0000 O   0  0  0  0  0  0  0  0  0  0  0  0
   -3.7120    6.5170    0.0000 O   0  0  0  0  0  0  0  0  0  0  0  0
   -1.4850    2.6070    0.0000 C   0  0  0  0  0  0  0  0  0  0  0  0
  1  2  2  0  0  0  0
  2  3  1  0  0  0  0
  2 13  1  0  0  0  0
  3  4  1  0  0  0  0
  4  5  1  0  0  0  0
  4 11  1  0  0  0  0
  4 12  1  0  0  0  0
  5  6  1  0  0  0  0
  5 10  2  0  0  0  0
  6  7  1  0  0  0  0
  7  8  1  0  0  0  0
  8  9  2  0  0  0  0
 13 14  1  0  0  0  0
 13 32  2  0  0  0  0
 14 15  1  0  0  0  0
 14 16  2  0  0  0  0
 16 17  1  0  0  0  0
 17 18  2  0  0  0  0
 18 19  1  0  0  0  0
 18 32  1  0  0  0  0
 19 20  1  0  0  0  0
 19 29  1  0  0  0  0
 20 21  1  0  0  0  0
 20 31  2  0  0  0  0
 21 22  1  0  0  0  0
 21 23  1  0  0  0  0
 23 24  1  0  0  0  0
 23 28  2  0  0  0  0
 24 25  1  0  0  0  0
 24 26  1  0  0  0  0
 24 27  1  0  0  0  0
 28 29  1  0  0  0  0
 29 30  2  0  0  0  0
M  END
>  <DSSTox_RID>
40357

>  <DSSTox_CID>
14365

>  <apol>
58.065273

>  <a_acc>
4

>  <a_acid>
0

>  <a_aro>
6

>  <a_base>
0

>  <a_count>
50

>  <a_don>
0

>  <a_heavy>
32

>  <a_hyd>
20

>  <a_IC>
98.430939

>  <a_ICM>
1.9686188

>  <a_nB>
0

>  <a_nBr>
0

>  <a_nC>
20

>  <a_nCl>
1

>  <a_nF>
3

>  <a_nH>
18

>  <a_nI>
0

>  <a_nN>
2

>  <a_nO>
6

>  <a_nP>
0

>  <a_nS>
0

>  <balabanJ>
2.0944796

>  <BCUT_PEOE_0>
-2.5071998

>  <BCUT_PEOE_1>
-0.48698112

>  <BCUT_PEOE_2>
0.33876073

>  <BCUT_PEOE_3>
2.5924659

>  <BCUT_SLOGP_0>
-2.6020555

>  <BCUT_SLOGP_1>
-0.36940086

>  <BCUT_SLOGP_2>
0.51453567

>  <BCUT_SLOGP_3>
2.5276573

>  <BCUT_SMR_0>
-2.2978489

>  <BCUT_SMR_1>
-0.22682488

>  <BCUT_SMR_2>
0.57294208

>  <BCUT_SMR_3>
2.7995226

>  <bpol>
35.330727

>  <b_1rotN>
6

>  <b_1rotR>
0.18181819

>  <b_ar>
6

>  <b_count>
51

>  <b_double>
6

>  <b_heavy>
33

>  <b_rotN>
9

>  <b_rotR>
0.27272728

>  <b_single>
39

>  <b_triple>
0

>  <chi0>
24.430357

>  <chi0v>
17.912668

>  <chi0v_C>
12.300965

>  <chi0_C>
13.861443

>  <chi1>
14.701431

>  <chi1v>
9.2985659

>  <chi1v_C>
4.8818808

>  <chi1_C>
6.4006133

>  <chiral>
0

>  <chiral_u>
0

>  <density>
0.95281529

>  <diameter>
16

>  <FCharge>
0

>  <GCUT_PEOE_0>
-0.80102158

>  <GCUT_PEOE_1>
-0.45511827

>  <GCUT_PEOE_2>
-0.08627589

>  <GCUT_PEOE_3>
2.6016855

>  <GCUT_SLOGP_0>
-1.004324

>  <GCUT_SLOGP_1>
-0.29133534

>  <GCUT_SLOGP_2>
0.18298504

>  <GCUT_SLOGP_3>
2.6195805

>  <GCUT_SMR_0>
-0.51383746

>  <GCUT_SMR_1>
-0.18456584

>  <GCUT_SMR_2>
0.097337469

>  <GCUT_SMR_3>
2.8615115

>  <Kier1>
28.23875

>  <Kier2>
11.16

>  <Kier3>
6.7898021

>  <KierA1>
21.864647

>  <KierA2>
8.5650558

>  <KierA3>
5.1786671

>  <KierFlex>
5.8522472

>  <lip_acc>
8

>  <lip_don>
0

>  <lip_druglike>
1

>  <lip_violation>
0

>  <logP(o/w)>
3.8775001

>  <logS>
-6.0815601

>  <mr>
10.889063

>  <mutagenic>
0

>  <nmol>
1

>  <opr_brigid>
12

>  <opr_leadlike>
1

>  <opr_nring>
2

>  <opr_nrot>
6

>  <opr_violation>
1

>  <PC+>
0

>  <PC->
0

>  <PEOE_PC+>
2.7011745

>  <PEOE_PC->
-2.7011745

>  <PEOE_RPC+>
0.16041161

>  <PEOE_RPC->
0.10910981

>  <PEOE_VSA+0>
122.05088

>  <PEOE_VSA+1>
29.236332

>  <PEOE_VSA+2>
40.59901

>  <PEOE_VSA+3>
22.058474

>  <PEOE_VSA+4>
0

>  <PEOE_VSA+5>
42.366531

>  <PEOE_VSA+6>
26.486044

>  <PEOE_VSA-0>
29.408449

>  <PEOE_VSA-1>
29.581947

>  <PEOE_VSA-2>
0

>  <PEOE_VSA-3>
35.725906

>  <PEOE_VSA-4>
13.566921

>  <PEOE_VSA-5>
45.708275

>  <PEOE_VSA-6>
0

>  <PEOE_VSA_FHYD>
0.70665967

>  <PEOE_VSA_FNEG>
0.3525537

>  <PEOE_VSA_FPNEG>
0.13570678

>  <PEOE_VSA_FPOL>
0.29334036

>  <PEOE_VSA_FPOS>
0.64744627

>  <PEOE_VSA_FPPOS>
0.15763357

>  <PEOE_VSA_HYD>
308.66101

>  <PEOE_VSA_NEG>
153.9915

>  <PEOE_VSA_PNEG>
59.275196

>  <PEOE_VSA_POL>
128.12778

>  <PEOE_VSA_POS>
282.79727

>  <PEOE_VSA_PPOS>
68.852577

>  <petitjean>
0.5

>  <petitjeanSC>
1

>  <Q_PC+>
0

>  <Q_PC->
0

>  <Q_RPC+>
0

>  <Q_RPC->
0

>  <Q_VSA_FHYD>
1

>  <Q_VSA_FNEG>
0

>  <Q_VSA_FPNEG>
0

>  <Q_VSA_FPOL>
0

>  <Q_VSA_FPOS>
1

>  <Q_VSA_FPPOS>
0

>  <Q_VSA_HYD>
436.78876

>  <Q_VSA_NEG>
0

>  <Q_VSA_PNEG>
0

>  <Q_VSA_POL>
0

>  <Q_VSA_POS>
436.78876

>  <Q_VSA_PPOS>
0

>  <radius>
8

>  <reactive>
0

>  <rings>
2

>  <RPC+>
0

>  <RPC->
0

>  <rsynth>
1

>  <SlogP>
3.8492

>  <SlogP_VSA0>
3.1243138

>  <SlogP_VSA1>
36.463497

>  <SlogP_VSA2>
69.724205

>  <SlogP_VSA3>
20.926258

>  <SlogP_VSA4>
27.047791

>  <SlogP_VSA5>
35.653934

>  <SlogP_VSA6>
3.5006065

>  <SlogP_VSA7>
88.215919

>  <SlogP_VSA8>
0

>  <SlogP_VSA9>
209.40077

>  <SMR>
10.68855

>  <SMR_VSA0>
117.44864

>  <SMR_VSA1>
48.004654

>  <SMR_VSA2>
10.88383

>  <SMR_VSA3>
9.4429293

>  <SMR_VSA4>
2.7567475

>  <SMR_VSA5>
88.215919

>  <SMR_VSA6>
46.505928

>  <SMR_VSA7>
170.79866

>  <TPSA>
93.220001

>  <VAdjEq>
0.3448742

>  <VAdjMa>
6.044394

>  <VDistEq>
3.7119825

>  <VDistMa>
9.7082882

>  <vdw_area>
436.78876

>  <vdw_vol>
479.29013

>  <vsa_acc>
54.267685

>  <vsa_acid>
0

>  <vsa_base>
0

>  <vsa_don>
0

>  <vsa_hyd>
317.70651

>  <vsa_other>
64.814583

>  <vsa_pol>
54.267685

>  <Weight>
474.819

>  <weinerPath>
3028

>  <weinerPol>
56

>  <zagreb>
166

$$$$
[O-][N+](C1=CC(C(C)(C)C)=CC([N+]([O-])=O)=C1NC(C)CC)=O
  MOE2011           2D

 21 21  0  0  1  0  0  0  0  0999 V2000
    0.0000    0.0000    0.0000 O   0  5  0  0  0  0  0  0  0  0  0  0
    1.3050   -0.7400    0.0000 N   0  3  0  0  0  0  0  0  0  0  0  0
    1.3170   -2.2400    0.0000 C   0  0  0  0  0  0  0  0  0  0  0  0
   -0.1580   -2.5120    0.0000 C   0  0  0  0  0  0  0  0  0  0  0  0
   -0.6600   -3.9250    0.0000 C   0  0  0  0  0  0  0  0  0  0  0  0
   -2.1350   -4.1970    0.0000 C   0  0  0  0  0  0  0  0  0  0  0  0
   -3.6110   -4.4690    0.0000 C   0  0  0  0  0  0  0  0  0  0  0  0
   -1.8630   -5.6730    0.0000 C   0  0  0  0  0  0  0  0  0  0  0  0
   -2.4080   -2.7220    0.0000 C   0  0  0  0  0  0  0  0  0  0  0  0
    0.3130   -5.0670    0.0000 C   0  0  0  0  0  0  0  0  0  0  0  0
    1.7880   -4.7950    0.0000 C   0  0  0  0  0  0  0  0  0  0  0  0
    2.7610   -5.9360    0.0000 N   0  3  0  0  0  0  0  0  0  0  0  0
    2.2590   -7.3500    0.0000 O   0  5  0  0  0  0  0  0  0  0  0  0
    4.2360   -5.6640    0.0000 O   0  0  0  0  0  0  0  0  0  0  0  0
    2.2900   -3.3810    0.0000 C   0  0  0  0  0  0  0  0  0  0  0  0
    3.5830   -2.6210    0.0000 N   0  0  0  0  0  0  0  0  0  0  0  0
    4.8880   -3.3610    0.0000 C   0  0  3  0  0  0  0  0  0  0  0  0
    4.9000   -4.8610    0.0000 C   0  0  0  0  0  0  0  0  0  0  0  0
    6.1810   -2.6010    0.0000 C   0  0  0  0  0  0  0  0  0  0  0  0
    7.4860   -3.3400    0.0000 C   0  0  0  0  0  0  0  0  0  0  0  0
    2.5980    0.0200    0.0000 O   0  0  0  0  0  0  0  0  0  0  0  0
  1  2  1  0  0  0  0
  2  3  1  0  0  0  0
  2 21  2  0  0  0  0
  3  4  1  0  0  0  0
  3 15  2  0  0  0  0
  4  5  2  0  0  0  0
  5  6  1  0  0  0  0
  5 10  1  0  0  0  0
  6  7  1  0  0  0  0
  6  8  1  0  0  0  0
  6  9  1  0  0  0  0
 10 11  2  0  0  0  0
 11 12  1  0  0  0  0
 11 15  1  0  0  0  0
 12 13  1  0  0  0  0
 12 14  2  0  0  0  0
 15 16  1  0  0  0  0
 16 17  1  0  0  0  0
 17 18  1  0  0  0  0
 17 19  1  0  0  0  0
 19 20  1  0  0  0  0
M  CHG  1   1  -1
M  CHG  1   2   1
M  CHG  1  12   1
M  CHG  1  13  -1
M  END
>  <DSSTox_RID>
40369

>  <DSSTox_CID>
12337

>  <apol>
45.150654

>  <a_acc>
0

>  <a_acid>
0

>  <a_aro>
6

>  <a_base>
0

>  <a_count>
42

>  <a_don>
1

>  <a_heavy>
21

>  <a_hyd>
16

>  <a_IC>
68.180809

>  <a_ICM>
1.6233526

>  <a_nB>
0

>  <a_nBr>
0

>  <a_nC>
14

>  <a_nCl>
0

>  <a_nF>
0

>  <a_nH>
21

>  <a_nI>
0

>  <a_nN>
3

>  <a_nO>
4

>  <a_nP>
0

>  <a_nS>
0

>  <balabanJ>
3.023989

>  <BCUT_PEOE_0>
-2.6320429

>  <BCUT_PEOE_1>
-0.27870256

>  <BCUT_PEOE_2>
0.18907505

>  <BCUT_PEOE_3>
2.5976486

>  <BCUT_SLOGP_0>
-2.6178238

>  <BCUT_SLOGP_1>
-0.048757046

>  <BCUT_SLOGP_2>
0.32324407

>  <BCUT_SLOGP_3>
2.6898756

>  <BCUT_SMR_0>
-2.3731558

>  <BCUT_SMR_1>
0.011234988

>  <BCUT_SMR_2>
0.413122

>  <BCUT_SMR_3>
2.8584242

>  <bpol>
26.129347

>  <b_1rotN>
5

>  <b_1rotR>
0.23809524

>  <b_ar>
6

>  <b_count>
42

>  <b_double>
2

>  <b_heavy>
21

>  <b_rotN>
6

>  <b_rotR>
0.2857143

>  <b_single>
34

>  <b_triple>
0

>  <chi0>
16.369879

>  <chi0v>
12.966578

>  <chi0v_C>
9.9391575

>  <chi0_C>
10.508072

>  <chi1>
9.5736046

>  <chi1v>
6.8135915

>  <chi1v_C>
5.0974059

>  <chi1_C>
5.7810402

>  <chiral>
1

>  <chiral_u>
1

>  <density>
0.84232491

>  <diameter>
9

>  <FCharge>
0

>  <GCUT_PEOE_0>
-0.81353128

>  <GCUT_PEOE_1>
-0.38457125

>  <GCUT_PEOE_2>
-0.10322426

>  <GCUT_PEOE_3>
2.6899555

>  <GCUT_SLOGP_0>
-0.98207253

>  <GCUT_SLOGP_1>
-0.12927577

>  <GCUT_SLOGP_2>
0.0061941706

>  <GCUT_SLOGP_3>
2.7823164

>  <GCUT_SMR_0>
-0.52363336

>  <GCUT_SMR_1>
-0.082713977

>  <GCUT_SMR_2>
0.15944654

>  <GCUT_SMR_3>
2.9186239

>  <Kier1>
19.047619

>  <Kier2>
7.5130072

>  <Kier3>
5

>  <KierA1>
14.822086

>  <KierA2>
5.7674708

>  <KierA3>
3.7984071

>  <KierFlex>
4.0707598

>  <lip_acc>
7

>  <lip_don>
1

>  <lip_druglike>
1

>  <lip_violation>
0

>  <logP(o/w)>
4.4089999

>  <logS>
-5.6375699

>  <mr>
7.7753606

>  <mutagenic>
0

>  <nmol>
1

>  <opr_brigid>
6

>  <opr_leadlike>
1

>  <opr_nring>
1

>  <opr_nrot>
6

>  <opr_violation>
0

>  <PC+>
0

>  <PC->
0

>  <PEOE_PC+>
1.2270023

>  <PEOE_PC->
-1.2270023

>  <PEOE_RPC+>
0.2485569

>  <PEOE_RPC->
0.21048729

>  <PEOE_VSA+0>
162.85074

>  <PEOE_VSA+1>
46.372608

>  <PEOE_VSA+2>
0

>  <PEOE_VSA+3>
6.6995511

>  <PEOE_VSA+4>
0

>  <PEOE_VSA+5>
0

>  <PEOE_VSA+6>
13.399102

>  <PEOE_VSA-0>
2.2085397

>  <PEOE_VSA-1>
0

>  <PEOE_VSA-2>
0

>  <PEOE_VSA-3>
5.6825762

>  <PEOE_VSA-4>
0

>  <PEOE_VSA-5>
67.862099

>  <PEOE_VSA-6>
0

>  <PEOE_VSA_FHYD>
0.73363554

>  <PEOE_VSA_FNEG>
0.24830996

>  <PEOE_VSA_FPNEG>
0.22244382

>  <PEOE_VSA_FPOL>
0.26636449

>  <PEOE_VSA_FPOS>
0.75169003

>  <PEOE_VSA_FPPOS>
0.043920651

>  <PEOE_VSA_HYD>
223.81401

>  <PEOE_VSA_NEG>
75.753212

>  <PEOE_VSA_PNEG>
67.862099

>  <PEOE_VSA_POL>
81.2612

>  <PEOE_VSA_POS>
229.32201

>  <PEOE_VSA_PPOS>
13.399102

>  <petitjean>
0.44444445

>  <petitjeanSC>
0.80000001

>  <Q_PC+>
0

>  <Q_PC->
0

>  <Q_RPC+>
0

>  <Q_RPC->
0

>  <Q_VSA_FHYD>
1

>  <Q_VSA_FNEG>
0

>  <Q_VSA_FPNEG>
0

>  <Q_VSA_FPOL>
0

>  <Q_VSA_FPOS>
1

>  <Q_VSA_FPPOS>
0

>  <Q_VSA_HYD>
305.07523

>  <Q_VSA_NEG>
0

>  <Q_VSA_PNEG>
0

>  <Q_VSA_POL>
0

>  <Q_VSA_POS>
305.07523

>  <Q_VSA_PPOS>
0

>  <radius>
5

>  <reactive>
0

>  <rings>
1

>  <RPC+>
0

>  <RPC->
0

>  <rsynth>
1

>  <SlogP>
4.0109

>  <SlogP_VSA0>
0

>  <SlogP_VSA1>
32.181984

>  <SlogP_VSA2>
3.9819686

>  <SlogP_VSA3>
101.87002

>  <SlogP_VSA4>
3.185575

>  <SlogP_VSA5>
0

>  <SlogP_VSA6>
0

>  <SlogP_VSA7>
35.286369

>  <SlogP_VSA8>
18.868406

>  <SlogP_VSA9>
174.90031

>  <SMR>
8.1826496

>  <SMR_VSA0>
14.171232

>  <SMR_VSA1>
0

>  <SMR_VSA2>
101.87002

>  <SMR_VSA3>
7.1675434

>  <SMR_VSA4>
26.280993

>  <SMR_VSA5>
54.154774

>  <SMR_VSA6>
0

>  <SMR_VSA7>
166.63008

>  <TPSA>
103.67

>  <VAdjEq>
0.45371634

>  <VAdjMa>
5.3923173

>  <VDistEq>
2.9113567

>  <VDistMa>
8.5413284

>  <vdw_area>
305.07523

>  <vdw_vol>
325.49316

>  <vsa_acc>
0

>  <vsa_acid>
0

>  <vsa_base>
0

>  <vsa_don>
5.6825762

>  <vsa_hyd>
231.53055

>  <vsa_other>
67.862099

>  <vsa_pol>
5.6825762

>  <Weight>
295.33899

>  <weinerPath>
860

>  <weinerPol>
33

>  <zagreb>
104

$$$$
CC(C)CN(CC(C)C)C(=O)SCC
  MOE2011           2D

 14 13  0  0  0  0  0  0  0  0999 V2000
    0.0000    0.0000    0.0000 C   0  0  0  0  0  0  0  0  0  0  0  0
   -1.5000   -0.0100    0.0000 C   0  0  0  0  0  0  0  0  0  0  0  0
   -2.2590    1.2840    0.0000 C   0  0  0  0  0  0  0  0  0  0  0  0
   -2.2410   -1.3140    0.0000 C   0  0  0  0  0  0  0  0  0  0  0  0
   -1.4830   -2.6080    0.0000 N   0  0  0  0  0  0  0  0  0  0  0  0
   -2.2240   -3.9120    0.0000 C   0  0  0  0  0  0  0  0  0  0  0  0
   -3.7240   -3.9220    0.0000 C   0  0  0  0  0  0  0  0  0  0  0  0
   -4.4650   -5.2260    0.0000 C   0  0  0  0  0  0  0  0  0  0  0  0
   -4.4830   -2.6280    0.0000 C   0  0  0  0  0  0  0  0  0  0  0  0
    0.0170   -2.5980    0.0000 C   0  0  0  0  0  0  0  0  0  0  0  0
    0.7590   -1.2940    0.0000 O   0  0  0  0  0  0  0  0  0  0  0  0
    0.7760   -3.8920    0.0000 S   0  0  0  0  0  0  0  0  0  0  0  0
    2.2760   -3.8820    0.0000 C   0  0  0  0  0  0  0  0  0  0  0  0
    3.0340   -5.1760    0.0000 C   0  0  0  0  0  0  0  0  0  0  0  0
  1  2  1  0  0  0  0
  2  3  1  0  0  0  0
  2  4  1  0  0  0  0
  4  5  1  0  0  0  0
  5  6  1  0  0  0  0
  5 10  1  0  0  0  0
  6  7  1  0  0  0  0
  7  8  1  0  0  0  0
  7  9  1  0  0  0  0
 10 11  2  0  0  0  0
 10 12  1  0  0  0  0
 12 13  1  0  0  0  0
 13 14  1  0  0  0  0
M  END
>  <DSSTox_RID>
40370

>  <DSSTox_CID>
3936

>  <apol>
39.498238

>  <a_acc>
1

>  <a_acid>
0

>  <a_aro>
0

>  <a_base>
0

>  <a_count>
37

>  <a_don>
0

>  <a_heavy>
14

>  <a_hyd>
11

>  <a_IC>
50.654102

>  <a_ICM>
1.3690298

>  <a_nB>
0

>  <a_nBr>
0

>  <a_nC>
11

>  <a_nCl>
0

>  <a_nF>
0

>  <a_nH>
23

>  <a_nI>
0

>  <a_nN>
1

>  <a_nO>
1

>  <a_nP>
0

>  <a_nS>
1

>  <balabanJ>
4.0851445

>  <BCUT_PEOE_0>
-2.7094874

>  <BCUT_PEOE_1>
-0.085216478

>  <BCUT_PEOE_2>
0.049121957

>  <BCUT_PEOE_3>
2.6403153

>  <BCUT_SLOGP_0>
-2.7343376

>  <BCUT_SLOGP_1>
0.123

>  <BCUT_SLOGP_2>
0.123

>  <BCUT_SLOGP_3>
2.6668904

>  <BCUT_SMR_0>
-2.4435308

>  <BCUT_SMR_1>
0.1057

>  <BCUT_SMR_2>
0.1057

>  <BCUT_SMR_3>
2.9095621

>  <bpol>
30.361761

>  <b_1rotN>
6

>  <b_1rotR>
0.46153846

>  <b_ar>
0

>  <b_count>
36

>  <b_double>
1

>  <b_heavy>
13

>  <b_rotN>
7

>  <b_rotR>
0.53846157

>  <b_single>
35

>  <b_triple>
0

>  <chi0>
11.137828

>  <chi0v>
10.856228

>  <chi0v_C>
8.776021

>  <chi0_C>
8.8533716

>  <chi1>
6.4684329

>  <chi1v>
6.3715887

>  <chi1v_C>
3.8330045

>  <chi1_C>
3.8330045

>  <chiral>
0

>  <chiral_u>
0

>  <density>
0.75793862

>  <diameter>
7

>  <FCharge>
0

>  <GCUT_PEOE_0>
-0.84448439

>  <GCUT_PEOE_1>
-0.29280987

>  <GCUT_PEOE_2>
-0.11087804

>  <GCUT_PEOE_3>
2.541302

>  <GCUT_SLOGP_0>
-0.9580152

>  <GCUT_SLOGP_1>
-0.037

>  <GCUT_SLOGP_2>
-0.037

>  <GCUT_SLOGP_3>
2.5909371

>  <GCUT_SMR_0>
-0.53382909

>  <GCUT_SMR_1>
-0.054299999

>  <GCUT_SMR_2>
-0.054299999

>  <GCUT_SMR_3>
2.7879066

>  <Kier1>
14

>  <Kier2>
7.3125

>  <Kier3>
7.04

>  <KierA1>
14.094829

>  <KierA2>
7.3660674

>  <KierA3>
7.0945401

>  <KierFlex>
7.4159613

>  <lip_acc>
2

>  <lip_don>
0

>  <lip_druglike>
1

>  <lip_violation>
0

>  <logP(o/w)>
3.8010001

>  <logS>
-2.49367

>  <mr>
6.4375801

>  <mutagenic>
0

>  <nmol>
1

>  <opr_brigid>
0

>  <opr_leadlike>
1

>  <opr_nring>
0

>  <opr_nrot>
6

>  <opr_violation>
0

>  <PC+>
0

>  <PC->
0

>  <PEOE_PC+>
0.62625921

>  <PEOE_PC->
-0.62625921

>  <PEOE_RPC+>
0.45395559

>  <PEOE_RPC->
0.49721187

>  <PEOE_VSA+0>
151.45932

>  <PEOE_VSA+1>
17.784555

>  <PEOE_VSA+2>
40.59901

>  <PEOE_VSA+3>
0

>  <PEOE_VSA+4>
0

>  <PEOE_VSA+5>
14.925592

>  <PEOE_VSA+6>
0

>  <PEOE_VSA-0>
0

>  <PEOE_VSA-1>
19.760618

>  <PEOE_VSA-2>
0

>  <PEOE_VSA-3>
0

>  <PEOE_VSA-4>
0

>  <PEOE_VSA-5>
13.566921

>  <PEOE_VSA-6>
0

>  <PEOE_VSA_FHYD>
0.88960499

>  <PEOE_VSA_FNEG>
0.12912844

>  <PEOE_VSA_FPNEG>
0.0525654

>  <PEOE_VSA_FPOL>
0.11039501

>  <PEOE_VSA_FPOS>
0.87087154

>  <PEOE_VSA_FPPOS>
0.057829611

>  <PEOE_VSA_HYD>
229.60352

>  <PEOE_VSA_NEG>
33.327538

>  <PEOE_VSA_PNEG>
13.566921

>  <PEOE_VSA_POL>
28.492514

>  <PEOE_VSA_POS>
224.76849

>  <PEOE_VSA_PPOS>
14.925592

>  <petitjean>
0.42857143

>  <petitjeanSC>
0.75

>  <Q_PC+>
0

>  <Q_PC->
0

>  <Q_RPC+>
0

>  <Q_RPC->
0

>  <Q_VSA_FHYD>
1

>  <Q_VSA_FNEG>
0

>  <Q_VSA_FPNEG>
0

>  <Q_VSA_FPOL>
0

>  <Q_VSA_FPOS>
1

>  <Q_VSA_FPPOS>
0

>  <Q_VSA_HYD>
258.09604

>  <Q_VSA_NEG>
0

>  <Q_VSA_PNEG>
0

>  <Q_VSA_POL>
0

>  <Q_VSA_POS>
258.09604

>  <Q_VSA_PPOS>
0

>  <radius>
4

>  <reactive>
0

>  <rings>
0

>  <RPC+>
0

>  <RPC->
0

>  <rsynth>
1

>  <SlogP>
3.4735

>  <SlogP_VSA0>
0

>  <SlogP_VSA1>
6.7482567

>  <SlogP_VSA2>
0

>  <SlogP_VSA3>
54.11272

>  <SlogP_VSA4>
8.8215923

>  <SlogP_VSA5>
0

>  <SlogP_VSA6>
0

>  <SlogP_VSA7>
0

>  <SlogP_VSA8>
0

>  <SlogP_VSA9>
222.71184

>  <SMR>
6.4777999

>  <SMR_VSA0>
23.862217

>  <SMR_VSA1>
3.1243138

>  <SMR_VSA2>
8.8215923

>  <SMR_VSA3>
0

>  <SMR_VSA4>
0

>  <SMR_VSA5>
0

>  <SMR_VSA6>
57.736664

>  <SMR_VSA7>
198.84961

>  <TPSA>
20.309999

>  <VAdjEq>
0.56466961

>  <VAdjMa>
4.7004399

>  <VDistEq>
2.712023

>  <VDistMa>
7.3279266

>  <vdw_area>
258.09604

>  <vdw_vol>
256.21204

>  <vsa_acc>
13.566921

>  <vsa_acid>
0

>  <vsa_base>
0

>  <vsa_don>
0

>  <vsa_hyd>
229.60352

>  <vsa_other>
14.925592

>  <vsa_pol>
13.566921

>  <Weight>
217.377

>  <weinerPath>
326

>  <weinerPol>
15

>  <zagreb>
58

$$$$
O=C1N(C(=O)C2C1CC=CC2)SC(Cl)(Cl)Cl
  MOE2011           2D

 16 17  0  0  1  0  0  0  0  0999 V2000
    0.0000    0.0000    0.0000 O   0  0  0  0  0  0  0  0  0  0  0  0
    0.0930   -1.4970    0.0000 C   0  0  0  0  0  0  0  0  0  0  0  0
   -1.0640   -2.4520    0.0000 N   0  0  0  0  0  0  0  0  0  0  0  0
   -0.5130   -3.8470    0.0000 C   0  0  0  0  0  0  0  0  0  0  0  0
   -1.3180   -5.1130    0.0000 O   0  0  0  0  0  0  0  0  0  0  0  0
    0.9840   -3.7550    0.0000 C   0  0  3  0  0  0  0  0  0  0  0  0
    1.3590   -2.3020    0.0000 C   0  0  3  0  0  0  0  0  0  0  0  0
    2.8040   -1.9000    0.0000 C   0  0  0  0  0  0  0  0  0  0  0  0
    3.8750   -2.9500    0.0000 C   0  0  0  0  0  0  0  0  0  0  0  0
    3.5000   -4.4030    0.0000 C   0  0  0  0  0  0  0  0  0  0  0  0
    2.0550   -4.8050    0.0000 C   0  0  0  0  0  0  0  0  0  0  0  0
   -2.5160   -2.0780    0.0000 S   0  0  0  0  0  0  0  0  0  0  0  0
   -3.5670   -3.1490    0.0000 C   0  0  0  0  0  0  0  0  0  0  0  0
   -4.6170   -4.2190    0.0000 Cl  0  0  0  0  0  0  0  0  0  0  0  0
   -2.4960   -4.1990    0.0000 Cl  0  0  0  0  0  0  0  0  0  0  0  0
   -4.6380   -2.0980    0.0000 Cl  0  0  0  0  0  0  0  0  0  0  0  0
  1  2  2  0  0  0  0
  2  3  1  0  0  0  0
  2  7  1  0  0  0  0
  3  4  1  0  0  0  0
  3 12  1  0  0  0  0
  4  5  2  0  0  0  0
  4  6  1  0  0  0  0
  6  7  1  0  0  0  0
  6 11  1  0  0  0  0
  7  8  1  0  0  0  0
  8  9  1  0  0  0  0
  9 10  2  0  0  0  0
 10 11  1  0  0  0  0
 12 13  1  0  0  0  0
 13 14  1  0  0  0  0
 13 15  1  0  0  0  0
 13 16  1  0  0  0  0
M  END
>  <DSSTox_RID>
40373

>  <DSSTox_CID>
243

>  <apol>
33.318344

>  <a_acc>
2

>  <a_acid>
0

>  <a_aro>
0

>  <a_base>
0

>  <a_count>
24

>  <a_don>
0

>  <a_heavy>
16

>  <a_hyd>
9

>  <a_IC>
50.754887

>  <a_ICM>
2.1147869

>  <a_nB>
0

>  <a_nBr>
0

>  <a_nC>
9

>  <a_nCl>
3

>  <a_nF>
0

>  <a_nH>
8

>  <a_nI>
0

>  <a_nN>
1

>  <a_nO>
2

>  <a_nP>
0

>  <a_nS>
1

>  <balabanJ>
2.0954227

>  <BCUT_PEOE_0>
-2.5998623

>  <BCUT_PEOE_1>
-0.56364614

>  <BCUT_PEOE_2>
0.45445603

>  <BCUT_PEOE_3>
2.752584

>  <BCUT_SLOGP_0>
-2.576133

>  <BCUT_SLOGP_1>
-0.47929123

>  <BCUT_SLOGP_2>
0.69818717

>  <BCUT_SLOGP_3>
2.7410445

>  <BCUT_SMR_0>
-2.3723145

>  <BCUT_SMR_1>
-0.37394989

>  <BCUT_SMR_2>
0.72619832

>  <BCUT_SMR_3>
2.9979081

>  <bpol>
16.181656

>  <b_1rotN>
1

>  <b_1rotR>
0.05882353

>  <b_ar>
0

>  <b_count>
25

>  <b_double>
3

>  <b_heavy>
17

>  <b_rotN>
2

>  <b_rotR>
0.11764706

>  <b_single>
22

>  <b_triple>
0

>  <chi0>
11.922285

>  <chi0v>
11.11375

>  <chi0v_C>
5.2236147

>  <chi0_C>
5.6378284

>  <chi1>
7.3996654

>  <chi1v>
6.5934072

>  <chi1v_C>
2.8770101

>  <chi1_C>
3.3164966

>  <chiral>
2

>  <chiral_u>
2

>  <density>
1.0975432

>  <diameter>
7

>  <FCharge>
0

>  <GCUT_PEOE_0>
-0.76439458

>  <GCUT_PEOE_1>
-0.41598278

>  <GCUT_PEOE_2>
0.019637164

>  <GCUT_PEOE_3>
2.4925301

>  <GCUT_SLOGP_0>
-0.95586962

>  <GCUT_SLOGP_1>
-0.32521108

>  <GCUT_SLOGP_2>
0.26173568

>  <GCUT_SLOGP_3>
2.5226321

>  <GCUT_SMR_0>
-0.51129073

>  <GCUT_SMR_1>
-0.20118521

>  <GCUT_SMR_2>
0.4253

>  <GCUT_SMR_3>
2.7543063

>  <Kier1>
12.456747

>  <Kier2>
4.3491125

>  <Kier3>
2.4882813

>  <KierA1>
14.613858

>  <KierA2>
5.1579132

>  <KierA3>
2.9750369

>  <KierFlex>
4.7110634

>  <lip_acc>
3

>  <lip_don>
0

>  <lip_druglike>
1

>  <lip_violation>
0

>  <logP(o/w)>
2.6110799

>  <logS>
-3.69225

>  <mr>
6.6023502

>  <mutagenic>
1

>  <nmol>
1

>  <opr_brigid>
10

>  <opr_leadlike>
1

>  <opr_nring>
2

>  <opr_nrot>
1

>  <opr_violation>
0

>  <PC+>
0

>  <PC->
0

>  <PEOE_PC+>
1.0309854

>  <PEOE_PC->
-1.0309854

>  <PEOE_RPC+>
0.24907538

>  <PEOE_RPC->
0.26286131

>  <PEOE_VSA+0>
54.970417

>  <PEOE_VSA+1>
4.4170794

>  <PEOE_VSA+2>
0

>  <PEOE_VSA+3>
0

>  <PEOE_VSA+4>
25.899061

>  <PEOE_VSA+5>
0

>  <PEOE_VSA+6>
0

>  <PEOE_VSA-0>
31.616989

>  <PEOE_VSA-1>
88.745842

>  <PEOE_VSA-2>
0

>  <PEOE_VSA-3>
0

>  <PEOE_VSA-4>
0

>  <PEOE_VSA-5>
27.133842

>  <PEOE_VSA-6>
0

>  <PEOE_VSA_FHYD>
0.77217901

>  <PEOE_VSA_FNEG>
0.63362241

>  <PEOE_VSA_FPNEG>
0.1165627

>  <PEOE_VSA_FPOL>
0.22782098

>  <PEOE_VSA_FPOS>
0.36637759

>  <PEOE_VSA_FPPOS>
0.11125828

>  <PEOE_VSA_HYD>
179.75032

>  <PEOE_VSA_NEG>
147.49667

>  <PEOE_VSA_PNEG>
27.133842

>  <PEOE_VSA_POL>
53.032902

>  <PEOE_VSA_POS>
85.28656

>  <PEOE_VSA_PPOS>
25.899061

>  <petitjean>
0.42857143

>  <petitjeanSC>
0.75

>  <Q_PC+>
0

>  <Q_PC->
0

>  <Q_RPC+>
0

>  <Q_RPC->
0

>  <Q_VSA_FHYD>
1

>  <Q_VSA_FNEG>
0

>  <Q_VSA_FPNEG>
0

>  <Q_VSA_FPOL>
0

>  <Q_VSA_FPOS>
1

>  <Q_VSA_FPPOS>
0

>  <Q_VSA_HYD>
232.78323

>  <Q_VSA_NEG>
0

>  <Q_VSA_PNEG>
0

>  <Q_VSA_POL>
0

>  <Q_VSA_POS>
232.78323

>  <Q_VSA_PPOS>
0

>  <radius>
4

>  <reactive>
0

>  <rings>
2

>  <RPC+>
0

>  <RPC->
0

>  <rsynth>
1

>  <SlogP>
2.9135001

>  <SlogP_VSA0>
0

>  <SlogP_VSA1>
12.036128

>  <SlogP_VSA2>
47.724434

>  <SlogP_VSA3>
0

>  <SlogP_VSA4>
8.8215923

>  <SlogP_VSA5>
0

>  <SlogP_VSA6>
0

>  <SlogP_VSA7>
35.286369

>  <SlogP_VSA8>
37.736813

>  <SlogP_VSA9>
149.42696

>  <SMR>
6.5089002

>  <SMR_VSA0>
47.724434

>  <SMR_VSA1>
1.5185606

>  <SMR_VSA2>
8.8215923

>  <SMR_VSA3>
0

>  <SMR_VSA4>
0

>  <SMR_VSA5>
73.023178

>  <SMR_VSA6>
10.517568

>  <SMR_VSA7>
149.42696

>  <TPSA>
37.380001

>  <VAdjEq>
0.56510133

>  <VAdjMa>
5.0874629

>  <VDistEq>
2.6690199

>  <VDistMa>
7.7233143

>  <vdw_area>
232.78323

>  <vdw_vol>
266.53073

>  <vsa_acc>
27.133842

>  <vsa_acid>
0

>  <vsa_base>
0

>  <vsa_don>
0

>  <vsa_hyd>
156.3969

>  <vsa_other>
49.252491

>  <vsa_pol>
27.133842

>  <Weight>
300.59299

>  <weinerPath>
405

>  <weinerPol>
24

>  <zagreb>
86

$$$$
O=C(OC1=C2C(=CC=C1)C=CC=C2)NC
  MOE2011           2D

 15 16  0  0  0  0  0  0  0  0999 V2000
    0.0000    0.0000    0.0000 O   0  0  0  0  0  0  0  0  0  0  0  0
   -0.7430   -1.3030    0.0000 C   0  0  0  0  0  0  0  0  0  0  0  0
   -2.2420   -1.3120    0.0000 O   0  0  0  0  0  0  0  0  0  0  0  0
   -3.0000   -0.0170    0.0000 C   0  0  0  0  0  0  0  0  0  0  0  0
   -4.5000   -0.0260    0.0000 C   0  0  0  0  0  0  0  0  0  0  0  0
   -5.2570    1.2690    0.0000 C   0  0  0  0  0  0  0  0  0  0  0  0
   -4.5150    2.5720    0.0000 C   0  0  0  0  0  0  0  0  0  0  0  0
   -3.0150    2.5810    0.0000 C   0  0  0  0  0  0  0  0  0  0  0  0
   -2.2570    1.2860    0.0000 C   0  0  0  0  0  0  0  0  0  0  0  0
   -6.7570    1.2600    0.0000 C   0  0  0  0  0  0  0  0  0  0  0  0
   -7.5000   -0.0430    0.0000 C   0  0  0  0  0  0  0  0  0  0  0  0
   -6.7420   -1.3380    0.0000 C   0  0  0  0  0  0  0  0  0  0  0  0
   -5.2420   -1.3290    0.0000 C   0  0  0  0  0  0  0  0  0  0  0  0
    0.0150   -2.5980    0.0000 N   0  0  0  0  0  0  0  0  0  0  0  0
    1.5150   -2.5890    0.0000 C   0  0  0  0  0  0  0  0  0  0  0  0
  1  2  2  0  0  0  0
  2  3  1  0  0  0  0
  2 14  1  0  0  0  0
  3  4  1  0  0  0  0
  4  5  1  0  0  0  0
  4  9  2  0  0  0  0
  5  6  1  0  0  0  0
  5 13  2  0  0  0  0
  6  7  1  0  0  0  0
  6 10  2  0  0  0  0
  7  8  2  0  0  0  0
  8  9  1  0  0  0  0
 10 11  1  0  0  0  0
 11 12  2  0  0  0  0
 12 13  1  0  0  0  0
 14 15  1  0  0  0  0
M  END
>  <DSSTox_RID>
40377

>  <DSSTox_CID>
247

>  <apol>
31.158724

>  <a_acc>
1

>  <a_acid>
0

>  <a_aro>
10

>  <a_base>
0

>  <a_count>
26

>  <a_don>
1

>  <a_heavy>
15

>  <a_hyd>
11

>  <a_IC>
39.138134

>  <a_ICM>
1.5053129

>  <a_nB>
0

>  <a_nBr>
0

>  <a_nC>
12

>  <a_nCl>
0

>  <a_nF>
0

>  <a_nH>
11

>  <a_nI>
0

>  <a_nN>
1

>  <a_nO>
2

>  <a_nP>
0

>  <a_nS>
0

>  <balabanJ>
1.9302522

>  <BCUT_PEOE_0>
-2.3087509

>  <BCUT_PEOE_1>
-0.58781326

>  <BCUT_PEOE_2>
0.63421315

>  <BCUT_PEOE_3>
2.2540574

>  <BCUT_SLOGP_0>
-2.5476477

>  <BCUT_SLOGP_1>
-0.48599741

>  <BCUT_SLOGP_2>
0.71140075

>  <BCUT_SLOGP_3>
2.4116826

>  <BCUT_SMR_0>
-2.0198448

>  <BCUT_SMR_1>
-0.43959472

>  <BCUT_SMR_2>
0.77724111

>  <BCUT_SMR_3>
2.562571

>  <bpol>
15.559277

>  <b_1rotN>
1

>  <b_1rotR>
0.0625

>  <b_ar>
11

>  <b_count>
27

>  <b_double>
1

>  <b_heavy>
16

>  <b_rotN>
3

>  <b_rotR>
0.1875

>  <b_single>
15

>  <b_triple>
0

>  <chi0>
10.673362

>  <chi0v>
8.3579483

>  <chi0v_C>
7.0414519

>  <chi0_C>
8.2591486

>  <chi1>
7.3088617

>  <chi1v>
4.6837397

>  <chi1v_C>
3.3213673

>  <chi1_C>
4.7996597

>  <chiral>
0

>  <chiral_u>
0

>  <density>
0.77772009

>  <diameter>
8

>  <FCharge>
0

>  <GCUT_PEOE_0>
-0.82071716

>  <GCUT_PEOE_1>
-0.42515463

>  <GCUT_PEOE_2>
0.080429994

>  <GCUT_PEOE_3>
2.2601318

>  <GCUT_SLOGP_0>
-1.1624491

>  <GCUT_SLOGP_1>
-0.27382216

>  <GCUT_SLOGP_2>
0.18686461

>  <GCUT_SLOGP_3>
2.4384365

>  <GCUT_SMR_0>
-0.48497292

>  <GCUT_SMR_1>
-0.20303079

>  <GCUT_SMR_2>
0.18974847

>  <GCUT_SMR_3>
2.5800436

>  <Kier1>
11.484375

>  <Kier2>
5.3650794

>  <Kier3>
2.7654321

>  <KierA1>
7.7298808

>  <KierA2>
3.4974167

>  <KierA3>
1.7556995

>  <KierFlex>
1.8023076

>  <lip_acc>
3

>  <lip_don>
1

>  <lip_druglike>
1

>  <lip_violation>
0

>  <logP(o/w)>
2.7030001

>  <logS>
-3.45014

>  <mr>
5.9041262

>  <mutagenic>
0

>  <nmol>
1

>  <opr_brigid>
11

>  <opr_leadlike>
1

>  <opr_nring>
2

>  <opr_nrot>
1

>  <opr_violation>
0

>  <PC+>
0

>  <PC->
0

>  <PEOE_PC+>
0.70378846

>  <PEOE_PC->
-0.70378846

>  <PEOE_RPC+>
0.55117685

>  <PEOE_RPC->
0.366447

>  <PEOE_VSA+0>
115.07654

>  <PEOE_VSA+1>
0

>  <PEOE_VSA+2>
8.458519

>  <PEOE_VSA+3>
33.89946

>  <PEOE_VSA+4>
0

>  <PEOE_VSA+5>
0

>  <PEOE_VSA+6>
19.199511

>  <PEOE_VSA-0>
0

>  <PEOE_VSA-1>
0

>  <PEOE_VSA-2>
0

>  <PEOE_VSA-3>
0

>  <PEOE_VSA-4>
19.249496

>  <PEOE_VSA-5>
2.503756

>  <PEOE_VSA-6>
0

>  <PEOE_VSA_FHYD>
0.79357165

>  <PEOE_VSA_FNEG>
0.10965044

>  <PEOE_VSA_FPNEG>
0.10965044

>  <PEOE_VSA_FPOL>
0.20642836

>  <PEOE_VSA_FPOS>
0.89034957

>  <PEOE_VSA_FPPOS>
0.096777931

>  <PEOE_VSA_HYD>
157.43452

>  <PEOE_VSA_NEG>
21.753254

>  <PEOE_VSA_PNEG>
21.753254

>  <PEOE_VSA_POL>
40.952763

>  <PEOE_VSA_POS>
176.63403

>  <PEOE_VSA_PPOS>
19.199511

>  <petitjean>
0.5

>  <petitjeanSC>
1

>  <Q_PC+>
0

>  <Q_PC->
0

>  <Q_RPC+>
0

>  <Q_RPC->
0

>  <Q_VSA_FHYD>
1

>  <Q_VSA_FNEG>
0

>  <Q_VSA_FPNEG>
0

>  <Q_VSA_FPOL>
0

>  <Q_VSA_FPOS>
1

>  <Q_VSA_FPPOS>
0

>  <Q_VSA_HYD>
198.38728

>  <Q_VSA_NEG>
0

>  <Q_VSA_PNEG>
0

>  <Q_VSA_POL>
0

>  <Q_VSA_POS>
198.38728

>  <Q_VSA_PPOS>
0

>  <radius>
4

>  <reactive>
0

>  <rings>
2

>  <RPC+>
0

>  <RPC->
0

>  <rsynth>
1

>  <SlogP>
2.5580001

>  <SlogP_VSA0>
29.010639

>  <SlogP_VSA1>
7.3166366

>  <SlogP_VSA2>
0

>  <SlogP_VSA3>
0

>  <SlogP_VSA4>
0

>  <SlogP_VSA5>
32.897186

>  <SlogP_VSA6>
0

>  <SlogP_VSA7>
128.64822

>  <SlogP_VSA8>
0

>  <SlogP_VSA9>
29.105644

>  <SMR>
5.9031701

>  <SMR_VSA0>
23.862217

>  <SMR_VSA1>
10.999887

>  <SMR_VSA2>
18.01075

>  <SMR_VSA3>
5.2434282

>  <SMR_VSA4>
5.1459289

>  <SMR_VSA5>
123.50229

>  <SMR_VSA6>
7.3166366

>  <SMR_VSA7>
32.897186

>  <TPSA>
38.330002

>  <VAdjEq>
0.59002918

>  <VAdjMa>
5

>  <VDistEq>
2.7514255

>  <VDistMa>
7.5171309

>  <vdw_area>
198.38728

>  <vdw_vol>
244.47998

>  <vsa_acc>
13.566921

>  <vsa_acid>
0

>  <vsa_base>
0

>  <vsa_don>
5.6825762

>  <vsa_hyd>
157.43452

>  <vsa_other>
21.703266

>  <vsa_pol>
19.249496

>  <Weight>
201.22499

>  <weinerPath>
362

>  <weinerPol>
21

>  <zagreb>
74

$$$$
O=C(Nc1ccccc1)C=2SCCOC=2C
  MOE2011           2D

 16 17  0  0  0  0  0  0  0  0999 V2000
    0.0000    0.0000    0.0000 O   0  0  0  0  0  0  0  0  0  0  0  0
    0.0070   -1.5000    0.0000 C   0  0  0  0  0  0  0  0  0  0  0  0
   -1.2880   -2.2560    0.0000 N   0  0  0  0  0  0  0  0  0  0  0  0
   -2.5910   -1.5120    0.0000 C   0  0  0  0  0  0  0  0  0  0  0  0
   -2.5980   -0.0130    0.0000 C   0  0  0  0  0  0  0  0  0  0  0  0
   -3.9010    0.7310    0.0000 C   0  0  0  0  0  0  0  0  0  0  0  0
   -5.1960   -0.0250    0.0000 C   0  0  0  0  0  0  0  0  0  0  0  0
   -5.1890   -1.5250    0.0000 C   0  0  0  0  0  0  0  0  0  0  0  0
   -3.8860   -2.2690    0.0000 C   0  0  0  0  0  0  0  0  0  0  0  0
    1.3100   -2.2440    0.0000 C   0  0  0  0  0  0  0  0  0  0  0  0
    1.3170   -3.7440    0.0000 S   0  0  0  0  0  0  0  0  0  0  0  0
    2.6200   -4.4870    0.0000 C   0  0  0  0  0  0  0  0  0  0  0  0
    3.9150   -3.7310    0.0000 C   0  0  0  0  0  0  0  0  0  0  0  0
    3.9080   -2.2310    0.0000 O   0  0  0  0  0  0  0  0  0  0  0  0
    2.6050   -1.4870    0.0000 C   0  0  0  0  0  0  0  0  0  0  0  0
    2.5980    0.0130    0.0000 C   0  0  0  0  0  0  0  0  0  0  0  0
  1  2  2  0  0  0  0
  2  3  1  0  0  0  0
  2 10  1  0  0  0  0
  3  4  1  0  0  0  0
  4  5  1  0  0  0  0
  4  9  2  0  0  0  0
  5  6  2  0  0  0  0
  6  7  1  0  0  0  0
  7  8  2  0  0  0  0
  8  9  1  0  0  0  0
 10 11  1  0  0  0  0
 10 15  2  0  0  0  0
 11 12  1  0  0  0  0
 12 13  1  0  0  0  0
 13 14  1  0  0  0  0
 14 15  1  0  0  0  0
 15 16  1  0  0  0  0
M  END
>  <DSSTox_RID>
40378

>  <DSSTox_CID>
3951

>  <apol>
35.392307

>  <a_acc>
2

>  <a_acid>
0

>  <a_aro>
6

>  <a_base>
0

>  <a_count>
29

>  <a_don>
1

>  <a_heavy>
16

>  <a_hyd>
12

>  <a_IC>
47.756184

>  <a_ICM>
1.6467649

>  <a_nB>
0

>  <a_nBr>
0

>  <a_nC>
12

>  <a_nCl>
0

>  <a_nF>
0

>  <a_nH>
13

>  <a_nI>
0

>  <a_nN>
1

>  <a_nO>
2

>  <a_nP>
0

>  <a_nS>
1

>  <balabanJ>
1.7962369

>  <BCUT_PEOE_0>
-2.478905

>  <BCUT_PEOE_1>
-0.59899384

>  <BCUT_PEOE_2>
0.58741868

>  <BCUT_PEOE_3>
2.4751797

>  <BCUT_SLOGP_0>
-2.497858

>  <BCUT_SLOGP_1>
-0.49460927

>  <BCUT_SLOGP_2>
0.67176235

>  <BCUT_SLOGP_3>
2.5195229

>  <BCUT_SMR_0>
-2.1968892

>  <BCUT_SMR_1>
-0.41084331

>  <BCUT_SMR_2>
0.77199757

>  <BCUT_SMR_3>
2.7858295

>  <bpol>
20.02569

>  <b_1rotN>
2

>  <b_1rotR>
0.11764706

>  <b_ar>
6

>  <b_count>
30

>  <b_double>
2

>  <b_heavy>
17

>  <b_rotN>
3

>  <b_rotR>
0.17647059

>  <b_single>
22

>  <b_triple>
0

>  <chi0>
11.380469

>  <chi0v>
9.842206

>  <chi0v_C>
7.3009648

>  <chi0_C>
8.2591486

>  <chi1>
7.7708569

>  <chi1v>
6.0860047

>  <chi1v_C>
3.4106836

>  <chi1_C>
4.5605135

>  <chiral>
0

>  <chiral_u>
0

>  <density>
0.83264858

>  <diameter>
9

>  <FCharge>
0

>  <GCUT_PEOE_0>
-0.80933279

>  <GCUT_PEOE_1>
-0.38494885

>  <GCUT_PEOE_2>
0.0588414

>  <GCUT_PEOE_3>
2.2931297

>  <GCUT_SLOGP_0>
-0.99764085

>  <GCUT_SLOGP_1>
-0.26323715

>  <GCUT_SLOGP_2>
0.14921466

>  <GCUT_SLOGP_3>
2.3913412

>  <GCUT_SMR_0>
-0.4944196

>  <GCUT_SMR_1>
-0.20345056

>  <GCUT_SMR_2>
0.20072919

>  <GCUT_SMR_3>
2.6031179

>  <Kier1>
12.456747

>  <Kier2>
6.0743804

>  <Kier3>
3.495199

>  <KierA1>
10.151711

>  <KierA2>
4.8774257

>  <KierA3>
2.7753

>  <KierFlex>
3.0946381

>  <lip_acc>
3

>  <lip_don>
1

>  <lip_druglike>
1

>  <lip_violation>
0

>  <logP(o/w)>
2.1949999

>  <logS>
-3.3928299

>  <mr>
6.6202793

>  <mutagenic>
0

>  <nmol>
1

>  <opr_brigid>
12

>  <opr_leadlike>
1

>  <opr_nring>
2

>  <opr_nrot>
3

>  <opr_violation>
0

>  <PC+>
0

>  <PC->
0

>  <PEOE_PC+>
0.90976602

>  <PEOE_PC->
-0.90976602

>  <PEOE_RPC+>
0.31486183

>  <PEOE_RPC->
0.36606473

>  <PEOE_VSA+0>
79.042473

>  <PEOE_VSA+1>
62.351078

>  <PEOE_VSA+2>
4.1846013

>  <PEOE_VSA+3>
22.058474

>  <PEOE_VSA+4>
0

>  <PEOE_VSA+5>
12.949531

>  <PEOE_VSA+6>
0

>  <PEOE_VSA-0>
0

>  <PEOE_VSA-1>
0

>  <PEOE_VSA-2>
19.760618

>  <PEOE_VSA-3>
0

>  <PEOE_VSA-4>
5.6825762

>  <PEOE_VSA-5>
13.566921

>  <PEOE_VSA-6>
2.503756

>  <PEOE_VSA_FHYD>
0.84375155

>  <PEOE_VSA_FNEG>
0.1869152

>  <PEOE_VSA_FPNEG>
0.097943492

>  <PEOE_VSA_FPOL>
0.15624845

>  <PEOE_VSA_FPOS>
0.81308478

>  <PEOE_VSA_FPPOS>
0.058304951

>  <PEOE_VSA_HYD>
187.39725

>  <PEOE_VSA_NEG>
41.51387

>  <PEOE_VSA_PNEG>
21.753254

>  <PEOE_VSA_POL>
34.702785

>  <PEOE_VSA_POS>
180.58615

>  <PEOE_VSA_PPOS>
12.949531

>  <petitjean>
0.44444445

>  <petitjeanSC>
0.80000001

>  <Q_PC+>
0

>  <Q_PC->
0

>  <Q_RPC+>
0

>  <Q_RPC->
0

>  <Q_VSA_FHYD>
1

>  <Q_VSA_FNEG>
0

>  <Q_VSA_FPNEG>
0

>  <Q_VSA_FPOL>
0

>  <Q_VSA_FPOS>
1

>  <Q_VSA_FPPOS>
0

>  <Q_VSA_HYD>
222.10002

>  <Q_VSA_NEG>
0

>  <Q_VSA_PNEG>
0

>  <Q_VSA_POL>
0

>  <Q_VSA_POS>
222.10002

>  <Q_VSA_PPOS>
0

>  <radius>
5

>  <reactive>
0

>  <rings>
2

>  <RPC+>
0

>  <RPC->
0

>  <rsynth>
1

>  <SlogP>
2.6199999

>  <SlogP_VSA0>
0

>  <SlogP_VSA1>
23.269535

>  <SlogP_VSA2>
34.862103

>  <SlogP_VSA3>
38.159824

>  <SlogP_VSA4>
0

>  <SlogP_VSA5>
6.7941623

>  <SlogP_VSA6>
0

>  <SlogP_VSA7>
88.215919

>  <SlogP_VSA8>
0

>  <SlogP_VSA9>
68.302307

>  <SMR>
6.6182699

>  <SMR_VSA0>
34.862103

>  <SMR_VSA1>
0

>  <SMR_VSA2>
0

>  <SMR_VSA3>
6.7941623

>  <SMR_VSA4>
20.767498

>  <SMR_VSA5>
88.215919

>  <SMR_VSA6>
43.418606

>  <SMR_VSA7>
65.545555

>  <TPSA>
38.330002

>  <VAdjEq>
0.56510133

>  <VAdjMa>
5.0874629

>  <VDistEq>
2.9439113

>  <VDistMa>
7.6875381

>  <vdw_area>
222.10002

>  <vdw_vol>
266.86288

>  <vsa_acc>
16.070677

>  <vsa_acid>
0

>  <vsa_base>
0

>  <vsa_don>
5.6825762

>  <vsa_hyd>
187.39725

>  <vsa_other>
12.949531

>  <vsa_pol>
21.753254

>  <Weight>
235.30699

>  <weinerPath>
459

>  <weinerPol>
21

>  <zagreb>
78

$$$$
O=C2N(N=C(C)N2C(F)F)C1=CC(CC(Cl)C(OCC)=O)=C(Cl)C=C1F
  MOE2011           2D

 26 27  0  0  1  0  0  0  0  0999 V2000
    0.0000    0.0000    0.0000 O   0  0  0  0  0  0  0  0  0  0  0  0
    0.9570   -1.1550    0.0000 C   0  0  0  0  0  0  0  0  0  0  0  0
    2.4540   -1.0610    0.0000 N   0  0  0  0  0  0  0  0  0  0  0  0
    3.0060   -2.4550    0.0000 N   0  0  0  0  0  0  0  0  0  0  0  0
    1.8510   -3.4120    0.0000 C   0  0  0  0  0  0  0  0  0  0  0  0
    1.9460   -4.9090    0.0000 C   0  0  0  0  0  0  0  0  0  0  0  0
    0.5840   -2.6080    0.0000 N   0  0  0  0  0  0  0  0  0  0  0  0
   -0.8100   -3.1610    0.0000 C   0  0  0  0  0  0  0  0  0  0  0  0
   -1.9860   -2.2300    0.0000 F   0  0  0  0  0  0  0  0  0  0  0  0
   -1.0290   -4.6450    0.0000 F   0  0  0  0  0  0  0  0  0  0  0  0
    3.2570    0.2060    0.0000 C   0  0  0  0  0  0  0  0  0  0  0  0
    4.7560    0.1440    0.0000 C   0  0  0  0  0  0  0  0  0  0  0  0
    5.5590    1.4110    0.0000 C   0  0  0  0  0  0  0  0  0  0  0  0
    7.0580    1.3490    0.0000 C   0  0  0  0  0  0  0  0  0  0  0  0
    7.7530    0.0190    0.0000 C   0  0  3  0  0  0  0  0  0  0  0  0
    6.9500   -1.2470    0.0000 Cl  0  0  0  0  0  0  0  0  0  0  0  0
    9.2520   -0.0430    0.0000 C   0  0  0  0  0  0  0  0  0  0  0  0
    9.9470   -1.3720    0.0000 O   0  0  0  0  0  0  0  0  0  0  0  0
   11.4460   -1.4340    0.0000 C   0  0  0  0  0  0  0  0  0  0  0  0
   12.1410   -2.7630    0.0000 C   0  0  0  0  0  0  0  0  0  0  0  0
   10.0550    1.2240    0.0000 O   0  0  0  0  0  0  0  0  0  0  0  0
    4.8630    2.7400    0.0000 C   0  0  0  0  0  0  0  0  0  0  0  0
    5.6670    4.0070    0.0000 Cl  0  0  0  0  0  0  0  0  0  0  0  0
    3.3650    2.8020    0.0000 C   0  0  0  0  0  0  0  0  0  0  0  0
    2.5610    1.5350    0.0000 C   0  0  0  0  0  0  0  0  0  0  0  0
    1.0630    1.5970    0.0000 F   0  0  0  0  0  0  0  0  0  0  0  0
  1  2  2  0  0  0  0
  2  3  1  0  0  0  0
  2  7  1  0  0  0  0
  3  4  1  0  0  0  0
  3 11  1  0  0  0  0
  4  5  2  0  0  0  0
  5  6  1  0  0  0  0
  5  7  1  0  0  0  0
  7  8  1  0  0  0  0
  8  9  1  0  0  0  0
  8 10  1  0  0  0  0
 11 12  1  0  0  0  0
 11 25  2  0  0  0  0
 12 13  2  0  0  0  0
 13 14  1  0  0  0  0
 13 22  1  0  0  0  0
 14 15  1  0  0  0  0
 15 16  1  0  0  0  0
 15 17  1  0  0  0  0
 17 18  1  0  0  0  0
 17 21  2  0  0  0  0
 18 19  1  0  0  0  0
 19 20  1  0  0  0  0
 22 23  1  0  0  0  0
 22 24  2  0  0  0  0
 24 25  1  0  0  0  0
 25 26  1  0  0  0  0
M  END
>  <DSSTox_RID>
40379

>  <DSSTox_CID>
12532

>  <apol>
47.472103

>  <a_acc>
3

>  <a_acid>
0

>  <a_aro>
6

>  <a_base>
0

>  <a_count>
40

>  <a_don>
0

>  <a_heavy>
26

>  <a_hyd>
17

>  <a_IC>
84.706131

>  <a_ICM>
2.1176534

>  <a_nB>
0

>  <a_nBr>
0

>  <a_nC>
15

>  <a_nCl>
2

>  <a_nF>
3

>  <a_nH>
14

>  <a_nI>
0

>  <a_nN>
3

>  <a_nO>
3

>  <a_nP>
0

>  <a_nS>
0

>  <balabanJ>
2.0570233

>  <BCUT_PEOE_0>
-2.4379835

>  <BCUT_PEOE_1>
-0.4183031

>  <BCUT_PEOE_2>
0.56975573

>  <BCUT_PEOE_3>
2.5150983

>  <BCUT_SLOGP_0>
-2.5172114

>  <BCUT_SLOGP_1>
-0.16482666

>  <BCUT_SLOGP_2>
0.63487375

>  <BCUT_SLOGP_3>
2.4904871

>  <BCUT_SMR_0>
-2.2017462

>  <BCUT_SMR_1>
-0.13145736

>  <BCUT_SMR_2>
0.82887584

>  <BCUT_SMR_3>
2.7711017

>  <bpol>
27.545898

>  <b_1rotN>
6

>  <b_1rotR>
0.22222222

>  <b_ar>
6

>  <b_count>
41

>  <b_double>
3

>  <b_heavy>
27

>  <b_rotN>
7

>  <b_rotR>
0.25925925

>  <b_single>
32

>  <b_triple>
0

>  <chi0>
19.593494

>  <chi0v>
15.191681

>  <chi0v_C>
9.2236147

>  <chi0_C>
10.02458

>  <chi1>
12.16681

>  <chi1v>
8.2365828

>  <chi1v_C>
3.9122841

>  <chi1_C>
4.7339468

>  <chiral>
1

>  <chiral_u>
1

>  <density>
1.0146693

>  <diameter>
13

>  <FCharge>
0

>  <GCUT_PEOE_0>
-0.7645334

>  <GCUT_PEOE_1>
-0.40444097

>  <GCUT_PEOE_2>
-0.072985493

>  <GCUT_PEOE_3>
2.5060952

>  <GCUT_SLOGP_0>
-0.99871802

>  <GCUT_SLOGP_1>
-0.26858354

>  <GCUT_SLOGP_2>
0.26019999

>  <GCUT_SLOGP_3>
2.5605655

>  <GCUT_SMR_0>
-0.51410121

>  <GCUT_SMR_1>
-0.15490086

>  <GCUT_SMR_2>
0.20414154

>  <GCUT_SMR_3>
2.7770107

>  <Kier1>
22.29081

>  <Kier2>
9.4674559

>  <Kier3>
5.0934258

>  <KierA1>
19.067568

>  <KierA2>
8.0451851

>  <KierA3>
4.3078651

>  <KierFlex>
5.9000807

>  <lip_acc>
6

>  <lip_don>
0

>  <lip_druglike>
1

>  <lip_violation>
0

>  <logP(o/w)>
4.2789202

>  <logS>
-4.6152401

>  <mr>
9.1006117

>  <mutagenic>
1

>  <nmol>
1

>  <opr_brigid>
11

>  <opr_leadlike>
1

>  <opr_nring>
2

>  <opr_nrot>
6

>  <opr_violation>
0

>  <PC+>
0

>  <PC->
0

>  <PEOE_PC+>
2.0846581

>  <PEOE_PC->
-2.0846581

>  <PEOE_RPC+>
0.20068614

>  <PEOE_RPC->
0.1441233

>  <PEOE_VSA+0>
61.02544

>  <PEOE_VSA+1>
49.736691

>  <PEOE_VSA+2>
17.890114

>  <PEOE_VSA+3>
35.599068

>  <PEOE_VSA+4>
0

>  <PEOE_VSA+5>
14.708499

>  <PEOE_VSA+6>
37.764706

>  <PEOE_VSA-0>
2.2085397

>  <PEOE_VSA-1>
29.581947

>  <PEOE_VSA-2>
39.002987

>  <PEOE_VSA-3>
23.817272

>  <PEOE_VSA-4>
25.475557

>  <PEOE_VSA-5>
13.566921

>  <PEOE_VSA-6>
2.503756

>  <PEOE_VSA_FHYD>
0.73356652

>  <PEOE_VSA_FNEG>
0.38584337

>  <PEOE_VSA_FPNEG>
0.11773424

>  <PEOE_VSA_FPOL>
0.26643348

>  <PEOE_VSA_FPOS>
0.61415666

>  <PEOE_VSA_FPPOS>
0.14869922

>  <PEOE_VSA_HYD>
258.86206

>  <PEOE_VSA_NEG>
136.15698

>  <PEOE_VSA_PNEG>
41.546234

>  <PEOE_VSA_POL>
94.01944

>  <PEOE_VSA_POS>
216.72452

>  <PEOE_VSA_PPOS>
52.473206

>  <petitjean>
0.46153846

>  <petitjeanSC>
0.85714287

>  <Q_PC+>
0

>  <Q_PC->
0

>  <Q_RPC+>
0

>  <Q_RPC->
0

>  <Q_VSA_FHYD>
1

>  <Q_VSA_FNEG>
0

>  <Q_VSA_FPNEG>
0

>  <Q_VSA_FPOL>
0

>  <Q_VSA_FPOS>
1

>  <Q_VSA_FPPOS>
0

>  <Q_VSA_HYD>
352.8815

>  <Q_VSA_NEG>
0

>  <Q_VSA_PNEG>
0

>  <Q_VSA_POL>
0

>  <Q_VSA_POS>
352.8815

>  <Q_VSA_PPOS>
0

>  <radius>
7

>  <reactive>
0

>  <rings>
2

>  <RPC+>
0

>  <RPC->
0

>  <rsynth>
0.5

>  <SlogP>
3.9900701

>  <SlogP_VSA0>
3.0017917

>  <SlogP_VSA1>
18.027655

>  <SlogP_VSA2>
64.561806

>  <SlogP_VSA3>
20.926258

>  <SlogP_VSA4>
3.185575

>  <SlogP_VSA5>
35.531414

>  <SlogP_VSA6>
3.5006065

>  <SlogP_VSA7>
35.286369

>  <SlogP_VSA8>
0

>  <SlogP_VSA9>
216.44862

>  <SMR>
9.0214996

>  <SMR_VSA0>
58.724319

>  <SMR_VSA1>
64.667664

>  <SMR_VSA2>
12.122809

>  <SMR_VSA3>
27.264864

>  <SMR_VSA4>
2.7567475

>  <SMR_VSA5>
54.154774

>  <SMR_VSA6>
35.829597

>  <SMR_VSA7>
144.94931

>  <TPSA>
62.209999

>  <VAdjEq>
0.40176207

>  <VAdjMa>
5.7548876

>  <VDistEq>
3.4346657

>  <VDistMa>
9.1174965

>  <vdw_area>
352.8815

>  <vdw_vol>
392.32782

>  <vsa_acc>
36.554882

>  <vsa_acid>
0

>  <vsa_base>
0

>  <vsa_don>
0

>  <vsa_hyd>
270.48325

>  <vsa_other>
45.843361

>  <vsa_pol>
36.554882

>  <Weight>
412.19498

>  <weinerPath>
1687

>  <weinerPol>
43

>  <zagreb>
132

$$$$
P(OC(C(Cl)(Cl)Cl)Cl)(=S)(OCC)OCC
  MOE2011           2D

 15 14  0  0  1  0  0  0  0  0999 V2000
    0.0000    0.0000    0.0000 P   0  0  0  0  0  0  0  0  0  0  0  0
    1.3030    0.7430    0.0000 O   0  0  0  0  0  0  0  0  0  0  0  0
    2.5980   -0.0150    0.0000 C   0  0  3  0  0  0  0  0  0  0  0  0
    3.9010    0.7280    0.0000 C   0  0  0  0  0  0  0  0  0  0  0  0
    5.2050    1.4710    0.0000 Cl  0  0  0  0  0  0  0  0  0  0  0  0
    3.1590    2.0310    0.0000 Cl  0  0  0  0  0  0  0  0  0  0  0  0
    4.6440   -0.5750    0.0000 Cl  0  0  0  0  0  0  0  0  0  0  0  0
    2.5900   -1.5150    0.0000 Cl  0  0  0  0  0  0  0  0  0  0  0  0
    0.7430   -1.3030    0.0000 S   0  0  0  0  0  0  0  0  0  0  0  0
   -0.7430    1.3030    0.0000 O   0  0  0  0  0  0  0  0  0  0  0  0
   -2.2430    1.3120    0.0000 C   0  0  0  0  0  0  0  0  0  0  0  0
   -2.9850    2.6150    0.0000 C   0  0  0  0  0  0  0  0  0  0  0  0
   -1.3030   -0.7430    0.0000 O   0  0  0  0  0  0  0  0  0  0  0  0
   -1.3120   -2.2430    0.0000 C   0  0  0  0  0  0  0  0  0  0  0  0
   -2.6150   -2.9850    0.0000 C   0  0  0  0  0  0  0  0  0  0  0  0
  1  2  1  0  0  0  0
  1  9  2  0  0  0  0
  1 10  1  0  0  0  0
  1 13  1  0  0  0  0
  2  3  1  0  0  0  0
  3  4  1  0  0  0  0
  3  8  1  0  0  0  0
  4  5  1  0  0  0  0
  4  6  1  0  0  0  0
  4  7  1  0  0  0  0
 10 11  1  0  0  0  0
 11 12  1  0  0  0  0
 13 14  1  0  0  0  0
 14 15  1  0  0  0  0
M  END
>  <DSSTox_RID>
40380

>  <DSSTox_CID>
12344

>  <apol>
35.550724

>  <a_acc>
3

>  <a_acid>
0

>  <a_aro>
0

>  <a_base>
0

>  <a_count>
26

>  <a_don>
0

>  <a_heavy>
15

>  <a_hyd>
8

>  <a_IC>
55.893021

>  <a_ICM>
2.1497316

>  <a_nB>
0

>  <a_nBr>
0

>  <a_nC>
6

>  <a_nCl>
4

>  <a_nF>
0

>  <a_nH>
11

>  <a_nI>
0

>  <a_nN>
0

>  <a_nO>
3

>  <a_nP>
1

>  <a_nS>
1

>  <balabanJ>
4.3974905

>  <BCUT_PEOE_0>
-2.4747367

>  <BCUT_PEOE_1>
-0.13170078

>  <BCUT_PEOE_2>
0.04928555

>  <BCUT_PEOE_3>
2.5610054

>  <BCUT_SLOGP_0>
-2.4411767

>  <BCUT_SLOGP_1>
0.0028923026

>  <BCUT_SLOGP_2>
0.60671943

>  <BCUT_SLOGP_3>
2.7004611

>  <BCUT_SMR_0>
-2.2256618

>  <BCUT_SMR_1>
0.1057

>  <BCUT_SMR_2>
0.57465053

>  <BCUT_SMR_3>
2.8379447

>  <bpol>
25.793278

>  <b_1rotN>
6

>  <b_1rotR>
0.42857143

>  <b_ar>
0

>  <b_count>
25

>  <b_double>
0

>  <b_heavy>
14

>  <b_rotN>
7

>  <b_rotR>
0.5

>  <b_single>
25

>  <b_triple>
0

>  <chi0>
12.112885

>  <chi0v>
12.818268

>  <chi0v_C>
4.4915638

>  <chi0_C>
4.4915638

>  <chi1>
6.7491474

>  <chi1v>
8.1577702

>  <chi1v_C>
1.7028887

>  <chi1_C>
1.7028887

>  <chiral>
1

>  <chiral_u>
1

>  <density>
1.1900017

>  <diameter>
7

>  <FCharge>
0

>  <GCUT_PEOE_0>
-0.72662401

>  <GCUT_PEOE_1>
-0.33476493

>  <GCUT_PEOE_2>
-0.11071445

>  <GCUT_PEOE_3>
2.2100341

>  <GCUT_SLOGP_0>
-0.84163207

>  <GCUT_SLOGP_1>
-0.20216985

>  <GCUT_SLOGP_2>
0.34368452

>  <GCUT_SLOGP_3>
2.35478

>  <GCUT_SMR_0>
-0.51723373

>  <GCUT_SMR_1>
-0.090201333

>  <GCUT_SMR_2>
0.40427476

>  <GCUT_SMR_3>
2.4912086

>  <Kier1>
15

>  <Kier2>
5.915

>  <Kier3>
5.5844874

>  <KierA1>
25.937033

>  <KierA2>
10.617434

>  <KierA3>
10.32837

>  <KierFlex>
18.358982

>  <lip_acc>
3

>  <lip_don>
0

>  <lip_druglike>
1

>  <lip_violation>
0

>  <logP(o/w)>
3.7370801

>  <logS>
-4.8274102

>  <mr>
6.981709

>  <mutagenic>
1

>  <nmol>
1

>  <opr_brigid>
0

>  <opr_leadlike>
1

>  <opr_nring>
0

>  <opr_nrot>
6

>  <opr_violation>
0

>  <PC+>
0

>  <PC->
0

>  <PEOE_PC+>
1.3567725

>  <PEOE_PC->
-1.3567725

>  <PEOE_RPC+>
0.24289787

>  <PEOE_RPC->
0.33778173

>  <PEOE_VSA+0>
58.816898

>  <PEOE_VSA+1>
0

>  <PEOE_VSA+2>
0

>  <PEOE_VSA+3>
0

>  <PEOE_VSA+4>
44.116947

>  <PEOE_VSA+5>
10.769726

>  <PEOE_VSA+6>
15.590208

>  <PEOE_VSA-0>
0

>  <PEOE_VSA-1>
118.32779

>  <PEOE_VSA-2>
0

>  <PEOE_VSA-3>
4.6659718

>  <PEOE_VSA-4>
9.3319435

>  <PEOE_VSA-5>
0

>  <PEOE_VSA-6>
33.008488

>  <PEOE_VSA_FHYD>
0.61708552

>  <PEOE_VSA_FNEG>
0.56116259

>  <PEOE_VSA_FPNEG>
0.14370811

>  <PEOE_VSA_FPOL>
0.38291448

>  <PEOE_VSA_FPOS>
0.43883744

>  <PEOE_VSA_FPPOS>
0.23920636

>  <PEOE_VSA_HYD>
181.81065

>  <PEOE_VSA_NEG>
165.33418

>  <PEOE_VSA_PNEG>
42.340431

>  <PEOE_VSA_POL>
112.81731

>  <PEOE_VSA_POS>
129.29378

>  <PEOE_VSA_PPOS>
70.476883

>  <petitjean>
0.42857143

>  <petitjeanSC>
0.75

>  <Q_PC+>
0

>  <Q_PC->
0

>  <Q_RPC+>
0

>  <Q_RPC->
0

>  <Q_VSA_FHYD>
1

>  <Q_VSA_FNEG>
0

>  <Q_VSA_FPNEG>
0

>  <Q_VSA_FPOL>
0

>  <Q_VSA_FPOS>
1

>  <Q_VSA_FPPOS>
0

>  <Q_VSA_HYD>
294.62796

>  <Q_VSA_NEG>
0

>  <Q_VSA_PNEG>
0

>  <Q_VSA_POL>
0

>  <Q_VSA_POS>
294.62796

>  <Q_VSA_PPOS>
0

>  <radius>
4

>  <reactive>
0

>  <rings>
0

>  <RPC+>
0

>  <RPC->
0

>  <rsynth>
1

>  <SlogP>
4.2356

>  <SlogP_VSA0>
0

>  <SlogP_VSA1>
0

>  <SlogP_VSA2>
70.242546

>  <SlogP_VSA3>
41.852516

>  <SlogP_VSA4>
0

>  <SlogP_VSA5>
0

>  <SlogP_VSA6>
0

>  <SlogP_VSA7>
0

>  <SlogP_VSA8>
0

>  <SlogP_VSA9>
236.17374

>  <SMR>
6.8552999

>  <SMR_VSA0>
20.764891

>  <SMR_VSA1>
0

>  <SMR_VSA2>
0

>  <SMR_VSA3>
6.7836809

>  <SMR_VSA4>
0

>  <SMR_VSA5>
0

>  <SMR_VSA6>
41.852516

>  <SMR_VSA7>
278.86771

>  <TPSA>
59.779999

>  <VAdjEq>
0.54200274

>  <VAdjMa>
4.8073549

>  <VDistEq>
2.7279484

>  <VDistMa>
7.5327187

>  <vdw_area>
294.62796

>  <vdw_vol>
273.03741

>  <vsa_acc>
13.997915

>  <vsa_acid>
0

>  <vsa_base>
0

>  <vsa_don>
0

>  <vsa_hyd>
221.26164

>  <vsa_other>
59.36842

>  <vsa_pol>
13.997915

>  <Weight>
336.00299

>  <weinerPath>
376

>  <weinerPol>
19

>  <zagreb>
68

$$$$
O=C1N(C2=CC=CC=C2)N=CC(N)=C1Cl
  MOE2011           2D

 15 16  0  0  0  0  0  0  0  0999 V2000
    0.0000    0.0000    0.0000 O   0  0  0  0  0  0  0  0  0  0  0  0
    0.7600    1.2930    0.0000 C   0  0  0  0  0  0  0  0  0  0  0  0
    0.0210    2.5980    0.0000 N   0  0  0  0  0  0  0  0  0  0  0  0
   -1.4790    2.6100    0.0000 C   0  0  0  0  0  0  0  0  0  0  0  0
   -2.2190    3.9150    0.0000 C   0  0  0  0  0  0  0  0  0  0  0  0
   -3.7190    3.9270    0.0000 C   0  0  0  0  0  0  0  0  0  0  0  0
   -4.4790    2.6340    0.0000 C   0  0  0  0  0  0  0  0  0  0  0  0
   -3.7390    1.3290    0.0000 C   0  0  0  0  0  0  0  0  0  0  0  0
   -2.2400    1.3170    0.0000 C   0  0  0  0  0  0  0  0  0  0  0  0
    0.7810    3.8910    0.0000 N   0  0  0  0  0  0  0  0  0  0  0  0
    2.2810    3.8790    0.0000 C   0  0  0  0  0  0  0  0  0  0  0  0
    3.0210    2.5740    0.0000 C   0  0  0  0  0  0  0  0  0  0  0  0
    4.5210    2.5620    0.0000 N   0  0  0  0  0  0  0  0  0  0  0  0
    2.2600    1.2810    0.0000 C   0  0  0  0  0  0  0  0  0  0  0  0
    3.0000   -0.0240    0.0000 Cl  0  0  0  0  0  0  0  0  0  0  0  0
  1  2  2  0  0  0  0
  2  3  1  0  0  0  0
  2 14  1  0  0  0  0
  3  4  1  0  0  0  0
  3 10  1  0  0  0  0
  4  5  1  0  0  0  0
  4  9  2  0  0  0  0
  5  6  2  0  0  0  0
  6  7  1  0  0  0  0
  7  8  2  0  0  0  0
  8  9  1  0  0  0  0
 10 11  2  0  0  0  0
 11 12  1  0  0  0  0
 12 13  1  0  0  0  0
 12 14  2  0  0  0  0
 14 15  1  0  0  0  0
M  END
>  <DSSTox_RID>
40582

>  <DSSTox_CID>
14872

>  <apol>
29.216345

>  <a_acc>
2

>  <a_acid>
0

>  <a_aro>
6

>  <a_base>
0

>  <a_count>
23

>  <a_don>
1

>  <a_heavy>
15

>  <a_hyd>
9

>  <a_IC>
42.067757

>  <a_ICM>
1.8290329

>  <a_nB>
0

>  <a_nBr>
0

>  <a_nC>
10

>  <a_nCl>
1

>  <a_nF>
0

>  <a_nH>
8

>  <a_nI>
0

>  <a_nN>
3

>  <a_nO>
1

>  <a_nP>
0

>  <a_nS>
0

>  <balabanJ>
1.9779338

>  <BCUT_PEOE_0>
-2.3008947

>  <BCUT_PEOE_1>
-0.60943824

>  <BCUT_PEOE_2>
0.66223341

>  <BCUT_PEOE_3>
2.3003445

>  <BCUT_SLOGP_0>
-2.4617977

>  <BCUT_SLOGP_1>
-0.49906287

>  <BCUT_SLOGP_2>
0.76574427

>  <BCUT_SLOGP_3>
2.3550777

>  <BCUT_SMR_0>
-1.951584

>  <BCUT_SMR_1>
-0.46237627

>  <BCUT_SMR_2>
0.81739068

>  <BCUT_SMR_3>
2.6371691

>  <bpol>
11.443656

>  <b_1rotN>
1

>  <b_1rotR>
0.0625

>  <b_ar>
6

>  <b_count>
24

>  <b_double>
3

>  <b_heavy>
16

>  <b_rotN>
1

>  <b_rotR>
0.0625

>  <b_single>
15

>  <b_triple>
0

>  <chi0>
10.836499

>  <chi0v>
8.4780207

>  <chi0v_C>
5.4641018

>  <chi0_C>
6.5520415

>  <chi1>
7.1983771

>  <chi1v>
4.6645174

>  <chi1v_C>
2.6993587

>  <chi1_C>
3.8914115

>  <chiral>
0

>  <chiral_u>
0

>  <density>
0.89117718

>  <diameter>
8

>  <FCharge>
0

>  <GCUT_PEOE_0>
-0.80057657

>  <GCUT_PEOE_1>
-0.43302727

>  <GCUT_PEOE_2>
0.07432273

>  <GCUT_PEOE_3>
2.1911747

>  <GCUT_SLOGP_0>
-1.3395736

>  <GCUT_SLOGP_1>
-0.32303134

>  <GCUT_SLOGP_2>
0.16116536

>  <GCUT_SLOGP_3>
2.2782176

>  <GCUT_SMR_0>
-0.43944484

>  <GCUT_SMR_1>
-0.20472042

>  <GCUT_SMR_2>
0.2299622

>  <GCUT_SMR_3>
2.5122857

>  <Kier1>
11.484375

>  <Kier2>
4.8884296

>  <Kier3>
2.3971462

>  <KierA1>
8.1933174

>  <KierA2>
3.3946741

>  <KierA3>
1.6280079

>  <KierFlex>
1.8542428

>  <lip_acc>
4

>  <lip_don>
2

>  <lip_druglike>
1

>  <lip_violation>
0

>  <logP(o/w)>
2.3380001

>  <logS>
-2.96262

>  <mr>
5.7776251

>  <mutagenic>
0

>  <nmol>
1

>  <opr_brigid>
12

>  <opr_leadlike>
1

>  <opr_nring>
2

>  <opr_nrot>
1

>  <opr_violation>
0

>  <PC+>
0

>  <PC->
0

>  <PEOE_PC+>
0.79135382

>  <PEOE_PC->
-0.79135382

>  <PEOE_RPC+>
0.36897027

>  <PEOE_RPC->
0.33383676

>  <PEOE_VSA+0>
79.042473

>  <PEOE_VSA+1>
6.6995511

>  <PEOE_VSA+2>
31.518805

>  <PEOE_VSA+3>
0

>  <PEOE_VSA+4>
0

>  <PEOE_VSA+5>
12.949531

>  <PEOE_VSA+6>
0

>  <PEOE_VSA-0>
0

>  <PEOE_VSA-1>
47.324436

>  <PEOE_VSA-2>
0

>  <PEOE_VSA-3>
9.4210396

>  <PEOE_VSA-4>
0

>  <PEOE_VSA-5>
13.566921

>  <PEOE_VSA-6>
0

>  <PEOE_VSA_FHYD>
0.8677634

>  <PEOE_VSA_FNEG>
0.35064548

>  <PEOE_VSA_FPNEG>
0.067657761

>  <PEOE_VSA_FPOL>
0.13223661

>  <PEOE_VSA_FPOS>
0.64935452

>  <PEOE_VSA_FPPOS>
0.064578861

>  <PEOE_VSA_HYD>
174.0063

>  <PEOE_VSA_NEG>
70.312393

>  <PEOE_VSA_PNEG>
13.566921

>  <PEOE_VSA_POL>
26.516451

>  <PEOE_VSA_POS>
130.21036

>  <PEOE_VSA_PPOS>
12.949531

>  <petitjean>
0.5

>  <petitjeanSC>
1

>  <Q_PC+>
0

>  <Q_PC->
0

>  <Q_RPC+>
0

>  <Q_RPC->
0

>  <Q_VSA_FHYD>
1

>  <Q_VSA_FNEG>
0

>  <Q_VSA_FPNEG>
0

>  <Q_VSA_FPOL>
0

>  <Q_VSA_FPOS>
1

>  <Q_VSA_FPPOS>
0

>  <Q_VSA_HYD>
200.52275

>  <Q_VSA_NEG>
0

>  <Q_VSA_PNEG>
0

>  <Q_VSA_POL>
0

>  <Q_VSA_POS>
200.52275

>  <Q_VSA_PPOS>
0

>  <radius>
4

>  <reactive>
0

>  <rings>
2

>  <RPC+>
0

>  <RPC->
0

>  <rsynth>
1

>  <SlogP>
1.4281

>  <SlogP_VSA0>
35.898979

>  <SlogP_VSA1>
5.2587838

>  <SlogP_VSA2>
41.076572

>  <SlogP_VSA3>
0

>  <SlogP_VSA4>
0

>  <SlogP_VSA5>
22.920362

>  <SlogP_VSA6>
0

>  <SlogP_VSA7>
88.215919

>  <SlogP_VSA8>
0

>  <SlogP_VSA9>
41.905392

>  <SMR>
5.9486399

>  <SMR_VSA0>
23.862217

>  <SMR_VSA1>
16.663008

>  <SMR_VSA2>
3.0017917

>  <SMR_VSA3>
6.2573543

>  <SMR_VSA4>
35.653934

>  <SMR_VSA5>
88.215919

>  <SMR_VSA6>
5.2587838

>  <SMR_VSA7>
56.363003

>  <TPSA>
58.689999

>  <VAdjEq>
0.59002918

>  <VAdjMa>
5

>  <VDistEq>
2.7116613

>  <VDistMa>
7.5205631

>  <vdw_area>
200.52275

>  <vdw_vol>
239.66389

>  <vsa_acc>
22.987961

>  <vsa_acid>
0

>  <vsa_base>
0

>  <vsa_don>
17.742489

>  <vsa_hyd>
126.54327

>  <vsa_other>
33.249039

>  <vsa_pol>
40.73045

>  <Weight>
221.64699

>  <weinerPath>
352

>  <weinerPol>
23

>  <zagreb>
76

$$$$
ClC1=C(C(=C(C(=C1C#N)Cl)Cl)Cl)C#N
  MOE2011           2D

 14 14  0  0  0  0  0  0  0  0999 V2000
    0.0000    0.0000    0.0000 Cl  0  0  0  0  0  0  0  0  0  0  0  0
    0.0000    1.5000    0.0000 C   0  0  0  0  0  0  0  0  0  0  0  0
   -1.2990    2.2500    0.0000 C   0  0  0  0  0  0  0  0  0  0  0  0
   -1.2990    3.7500    0.0000 C   0  0  0  0  0  0  0  0  0  0  0  0
    0.0000    4.5000    0.0000 C   0  0  0  0  0  0  0  0  0  0  0  0
    1.2990    3.7500    0.0000 C   0  0  0  0  0  0  0  0  0  0  0  0
    1.2990    2.2500    0.0000 C   0  0  0  0  0  0  0  0  0  0  0  0
    2.5980    1.5000    0.0000 C   0  0  0  0  0  0  0  0  0  0  0  0
    3.8970    0.7500    0.0000 N   0  0  0  0  0  0  0  0  0  0  0  0
    2.5980    4.5000    0.0000 Cl  0  0  0  0  0  0  0  0  0  0  0  0
    0.0000    6.0000    0.0000 Cl  0  0  0  0  0  0  0  0  0  0  0  0
   -2.5980    4.5000    0.0000 Cl  0  0  0  0  0  0  0  0  0  0  0  0
   -2.5980    1.5000    0.0000 C   0  0  0  0  0  0  0  0  0  0  0  0
   -3.8970    0.7500    0.0000 N   0  0  0  0  0  0  0  0  0  0  0  0
  1  2  1  0  0  0  0
  2  3  1  0  0  0  0
  2  7  2  0  0  0  0
  3  4  2  0  0  0  0
  3 13  1  0  0  0  0
  4  5  1  0  0  0  0
  4 12  1  0  0  0  0
  5  6  2  0  0  0  0
  5 11  1  0  0  0  0
  6  7  1  0  0  0  0
  6 10  1  0  0  0  0
  7  8  1  0  0  0  0
  8  9  3  0  0  0  0
 13 14  3  0  0  0  0
M  END
>  <DSSTox_RID>
40384

>  <DSSTox_CID>
319

>  <apol>
25

>  <a_acc>
2

>  <a_acid>
0

>  <a_aro>
6

>  <a_base>
0

>  <a_count>
14

>  <a_don>
0

>  <a_heavy>
14

>  <a_hyd>
10

>  <a_IC>
19.302969

>  <a_ICM>
1.3787835

>  <a_nB>
0

>  <a_nBr>
0

>  <a_nC>
8

>  <a_nCl>
4

>  <a_nF>
0

>  <a_nH>
0

>  <a_nI>
0

>  <a_nN>
2

>  <a_nO>
0

>  <a_nP>
0

>  <a_nS>
0

>  <balabanJ>
2.8637865

>  <BCUT_PEOE_0>
-2.0556979

>  <BCUT_PEOE_1>
-0.73391902

>  <BCUT_PEOE_2>
0.69303304

>  <BCUT_PEOE_3>
2.1833816

>  <BCUT_SLOGP_0>
-1.8889713

>  <BCUT_SLOGP_1>
-0.40001175

>  <BCUT_SLOGP_2>
1.0412809

>  <BCUT_SLOGP_3>
2.3897617

>  <BCUT_SMR_0>
-1.7372379

>  <BCUT_SMR_1>
-0.28868932

>  <BCUT_SMR_2>
1.1615462

>  <BCUT_SMR_3>
2.5040619

>  <bpol>
3

>  <b_1rotN>
0

>  <b_1rotR>
0

>  <b_ar>
6

>  <b_count>
14

>  <b_double>
0

>  <b_heavy>
14

>  <b_rotN>
2

>  <b_rotR>
0.14285715

>  <b_single>
6

>  <b_triple>
2

>  <chi0>
10.878315

>  <chi0v>
9.4300013

>  <chi0v_C>
4

>  <chi0_C>
4.878315

>  <chi1>
6.5401111

>  <chi1v>
4.7150006

>  <chi1v_C>
2

>  <chi1_C>
2.8164966

>  <chiral>
0

>  <chiral_u>
0

>  <density>
1.0918077

>  <diameter>
6

>  <FCharge>
0

>  <GCUT_PEOE_0>
-0.64256984

>  <GCUT_PEOE_1>
-0.48490539

>  <GCUT_PEOE_2>
0.12527758

>  <GCUT_PEOE_3>
1.9530739

>  <GCUT_SLOGP_0>
-0.56163877

>  <GCUT_SLOGP_1>
-0.21852054

>  <GCUT_SLOGP_2>
0.53732747

>  <GCUT_SLOGP_3>
2.1813374

>  <GCUT_SMR_0>
-0.34530035

>  <GCUT_SMR_1>
-0.081274554

>  <GCUT_SMR_2>
0.61990428

>  <GCUT_SMR_3>
2.2931483

>  <Kier1>
12.071428

>  <Kier2>
4.6799998

>  <Kier3>
2.0204082

>  <KierA1>
12.300004

>  <KierA2>
4.7758703

>  <KierA3>
2.0641897

>  <KierFlex>
4.1959448

>  <lip_acc>
2

>  <lip_don>
0

>  <lip_druglike>
1

>  <lip_violation>
0

>  <logP(o/w)>
3.582

>  <logS>
-5.0239

>  <mr>
5.6095104

>  <mutagenic>
0

>  <nmol>
1

>  <opr_brigid>
6

>  <opr_leadlike>
1

>  <opr_nring>
1

>  <opr_nrot>
2

>  <opr_violation>
0

>  <PC+>
0

>  <PC->
0

>  <PEOE_PC+>
0.70399445

>  <PEOE_PC->
-0.70399445

>  <PEOE_RPC+>
0.14513189

>  <PEOE_RPC->
0.2709913

>  <PEOE_VSA+0>
0

>  <PEOE_VSA+1>
22.496065

>  <PEOE_VSA+2>
40.59901

>  <PEOE_VSA+3>
0

>  <PEOE_VSA+4>
0

>  <PEOE_VSA+5>
0

>  <PEOE_VSA+6>
0

>  <PEOE_VSA-0>
0

>  <PEOE_VSA-1>
118.32779

>  <PEOE_VSA-2>
0

>  <PEOE_VSA-3>
35.484978

>  <PEOE_VSA-4>
0

>  <PEOE_VSA-5>
0

>  <PEOE_VSA-6>
0

>  <PEOE_VSA_FHYD>
1

>  <PEOE_VSA_FNEG>
0.70911574

>  <PEOE_VSA_FPNEG>
0

>  <PEOE_VSA_FPOL>
0

>  <PEOE_VSA_FPOS>
0.29088426

>  <PEOE_VSA_FPPOS>
0

>  <PEOE_VSA_HYD>
216.90784

>  <PEOE_VSA_NEG>
153.81276

>  <PEOE_VSA_PNEG>
0

>  <PEOE_VSA_POL>
0

>  <PEOE_VSA_POS>
63.095078

>  <PEOE_VSA_PPOS>
0

>  <petitjean>
0.33333334

>  <petitjeanSC>
0.5

>  <Q_PC+>
0

>  <Q_PC->
0

>  <Q_RPC+>
0

>  <Q_RPC->
0

>  <Q_VSA_FHYD>
1

>  <Q_VSA_FNEG>
0

>  <Q_VSA_FPNEG>
0

>  <Q_VSA_FPOL>
0

>  <Q_VSA_FPOS>
1

>  <Q_VSA_FPPOS>
0

>  <Q_VSA_HYD>
216.90784

>  <Q_VSA_NEG>
0

>  <Q_VSA_PNEG>
0

>  <Q_VSA_POL>
0

>  <Q_VSA_POS>
216.90784

>  <Q_VSA_PPOS>
0

>  <radius>
4

>  <reactive>
0

>  <rings>
1

>  <RPC+>
0

>  <RPC->
0

>  <rsynth>
0

>  <SlogP>
4.0435681

>  <SlogP_VSA0>
0

>  <SlogP_VSA1>
0

>  <SlogP_VSA2>
0

>  <SlogP_VSA3>
95.322205

>  <SlogP_VSA4>
6.37115

>  <SlogP_VSA5>
0

>  <SlogP_VSA6>
14.002426

>  <SlogP_VSA7>
0

>  <SlogP_VSA8>
0

>  <SlogP_VSA9>
156.59457

>  <SMR>
5.5911999

>  <SMR_VSA0>
0

>  <SMR_VSA1>
62.118713

>  <SMR_VSA2>
0

>  <SMR_VSA3>
53.577068

>  <SMR_VSA4>
0

>  <SMR_VSA5>
0

>  <SMR_VSA6>
0

>  <SMR_VSA7>
156.59457

>  <TPSA>
47.580002

>  <VAdjEq>
0.59167278

>  <VAdjMa>
4.8073549

>  <VDistEq>
2.3807538

>  <VDistMa>
7.3599324

>  <vdw_area>
216.90784

>  <vdw_vol>
243.55388

>  <vsa_acc>
35.484978

>  <vsa_acid>
0

>  <vsa_base>
0

>  <vsa_don>
0

>  <vsa_hyd>
140.82385

>  <vsa_other>
40.59901

>  <vsa_pol>
35.484978

>  <Weight>
265.914

>  <weinerPath>
272

>  <weinerPol>
25

>  <zagreb>
68

$$$$
O=C(NC1=CC=CC(=C1)Cl)OC(C)C
  MOE2011           2D

 14 14  0  0  0  0  0  0  0  0999 V2000
    0.0000    0.0000    0.0000 O   0  0  0  0  0  0  0  0  0  0  0  0
    0.0070    1.5000    0.0000 C   0  0  0  0  0  0  0  0  0  0  0  0
   -1.2880    2.2560    0.0000 N   0  0  0  0  0  0  0  0  0  0  0  0
   -2.5910    1.5130    0.0000 C   0  0  0  0  0  0  0  0  0  0  0  0
   -2.5980    0.0130    0.0000 C   0  0  0  0  0  0  0  0  0  0  0  0
   -3.9010   -0.7310    0.0000 C   0  0  0  0  0  0  0  0  0  0  0  0
   -5.1960    0.0250    0.0000 C   0  0  0  0  0  0  0  0  0  0  0  0
   -5.1890    1.5250    0.0000 C   0  0  0  0  0  0  0  0  0  0  0  0
   -3.8860    2.2690    0.0000 C   0  0  0  0  0  0  0  0  0  0  0  0
   -6.4840    2.2810    0.0000 Cl  0  0  0  0  0  0  0  0  0  0  0  0
    1.3100    2.2440    0.0000 O   0  0  0  0  0  0  0  0  0  0  0  0
    2.6050    1.4870    0.0000 C   0  0  0  0  0  0  0  0  0  0  0  0
    2.5980   -0.0130    0.0000 C   0  0  0  0  0  0  0  0  0  0  0  0
    3.9080    2.2310    0.0000 C   0  0  0  0  0  0  0  0  0  0  0  0
  1  2  2  0  0  0  0
  2  3  1  0  0  0  0
  2 11  1  0  0  0  0
  3  4  1  0  0  0  0
  4  5  1  0  0  0  0
  4  9  2  0  0  0  0
  5  6  2  0  0  0  0
  6  7  1  0  0  0  0
  7  8  2  0  0  0  0
  8  9  1  0  0  0  0
  8 10  1  0  0  0  0
 11 12  1  0  0  0  0
 12 13  1  0  0  0  0
 12 14  1  0  0  0  0
M  END
>  <DSSTox_RID>
40385

>  <DSSTox_CID>
764

>  <apol>
30.485516

>  <a_acc>
1

>  <a_acid>
0

>  <a_aro>
6

>  <a_base>
0

>  <a_count>
26

>  <a_don>
1

>  <a_heavy>
14

>  <a_hyd>
10

>  <a_IC>
43.972603

>  <a_ICM>
1.6912539

>  <a_nB>
0

>  <a_nBr>
0

>  <a_nC>
10

>  <a_nCl>
1

>  <a_nF>
0

>  <a_nH>
12

>  <a_nI>
0

>  <a_nN>
1

>  <a_nO>
2

>  <a_nP>
0

>  <a_nS>
0

>  <balabanJ>
2.2312272

>  <BCUT_PEOE_0>
-2.4995761

>  <BCUT_PEOE_1>
-0.5870204

>  <BCUT_PEOE_2>
0.63309491

>  <BCUT_PEOE_3>
2.4893374

>  <BCUT_SLOGP_0>
-2.5135584

>  <BCUT_SLOGP_1>
-0.41118351

>  <BCUT_SLOGP_2>
0.758775

>  <BCUT_SLOGP_3>
2.5080922

>  <BCUT_SMR_0>
-2.2714288

>  <BCUT_SMR_1>
-0.37580237

>  <BCUT_SMR_2>
0.79720455

>  <BCUT_SMR_3>
2.7183878

>  <bpol>
17.072483

>  <b_1rotN>
2

>  <b_1rotR>
0.14285715

>  <b_ar>
6

>  <b_count>
26

>  <b_double>
1

>  <b_heavy>
14

>  <b_rotN>
4

>  <b_rotR>
0.2857143

>  <b_single>
19

>  <b_triple>
0

>  <chi0>
10.552042

>  <chi0v>
8.837141

>  <chi0v_C>
6.3867512

>  <chi0_C>
7.1378284

>  <chi1>
6.5753875

>  <chi1v>
4.686965

>  <chi1v_C>
2.9760678

>  <chi1_C>
3.7876937

>  <chiral>
0

>  <chiral_u>
0

>  <density>
0.86020255

>  <diameter>
8

>  <FCharge>
0

>  <GCUT_PEOE_0>
-0.7894575

>  <GCUT_PEOE_1>
-0.38224325

>  <GCUT_PEOE_2>
0.056708105

>  <GCUT_PEOE_3>
2.1869502

>  <GCUT_SLOGP_0>
-0.99305469

>  <GCUT_SLOGP_1>
-0.19338369

>  <GCUT_SLOGP_2>
0.2150932

>  <GCUT_SLOGP_3>
2.2985396

>  <GCUT_SMR_0>
-0.521842

>  <GCUT_SMR_1>
-0.16860551

>  <GCUT_SMR_2>
0.21796224

>  <GCUT_SMR_3>
2.4639311

>  <Kier1>
12.071428

>  <Kier2>
5.7777777

>  <Kier3>
4.8888888

>  <KierA1>
10.038058

>  <KierA2>
4.7306008

>  <KierA3>
3.955466

>  <KierFlex>
3.3918602

>  <lip_acc>
3

>  <lip_don>
1

>  <lip_druglike>
1

>  <lip_violation>
0

>  <logP(o/w)>
2.915

>  <logS>
-3.0525

>  <mr>
5.6834469

>  <mutagenic>
0

>  <nmol>
1

>  <opr_brigid>
6

>  <opr_leadlike>
1

>  <opr_nring>
1

>  <opr_nrot>
2

>  <opr_violation>
0

>  <PC+>
0

>  <PC->
0

>  <PEOE_PC+>
0.7898913

>  <PEOE_PC->
-0.7898913

>  <PEOE_RPC+>
0.49094206

>  <PEOE_RPC->
0.3615714

>  <PEOE_VSA+0>
122.05088

>  <PEOE_VSA+1>
11.219297

>  <PEOE_VSA+2>
8.458519

>  <PEOE_VSA+3>
0

>  <PEOE_VSA+4>
0

>  <PEOE_VSA+5>
0

>  <PEOE_VSA+6>
19.199511

>  <PEOE_VSA-0>
0

>  <PEOE_VSA-1>
29.581947

>  <PEOE_VSA-2>
0

>  <PEOE_VSA-3>
5.6825762

>  <PEOE_VSA-4>
13.566921

>  <PEOE_VSA-5>
2.503756

>  <PEOE_VSA-6>
0

>  <PEOE_VSA_FHYD>
0.83383763

>  <PEOE_VSA_FNEG>
0.24184668

>  <PEOE_VSA_FPNEG>
0.075711012

>  <PEOE_VSA_FPOL>
0.16616236

>  <PEOE_VSA_FPOS>
0.75815332

>  <PEOE_VSA_FPPOS>
0.090451345

>  <PEOE_VSA_HYD>
176.99323

>  <PEOE_VSA_NEG>
51.335201

>  <PEOE_VSA_PNEG>
16.070677

>  <PEOE_VSA_POL>
35.270187

>  <PEOE_VSA_POS>
160.92821

>  <PEOE_VSA_PPOS>
19.199511

>  <petitjean>
0.5

>  <petitjeanSC>
1

>  <Q_PC+>
0

>  <Q_PC->
0

>  <Q_RPC+>
0

>  <Q_RPC->
0

>  <Q_VSA_FHYD>
1

>  <Q_VSA_FNEG>
0

>  <Q_VSA_FPNEG>
0

>  <Q_VSA_FPOL>
0

>  <Q_VSA_FPOS>
1

>  <Q_VSA_FPPOS>
0

>  <Q_VSA_HYD>
212.26341

>  <Q_VSA_NEG>
0

>  <Q_VSA_PNEG>
0

>  <Q_VSA_POL>
0

>  <Q_VSA_POS>
212.26341

>  <Q_VSA_PPOS>
0

>  <radius>
4

>  <reactive>
0

>  <rings>
1

>  <RPC+>
0

>  <RPC->
0

>  <rsynth>
1

>  <SlogP>
3.2969

>  <SlogP_VSA0>
0

>  <SlogP_VSA1>
25.327387

>  <SlogP_VSA2>
17.468536

>  <SlogP_VSA3>
0

>  <SlogP_VSA4>
0

>  <SlogP_VSA5>
0

>  <SlogP_VSA6>
3.5006065

>  <SlogP_VSA7>
70.572739

>  <SlogP_VSA8>
0

>  <SlogP_VSA9>
132.41963

>  <SMR>
5.6691699

>  <SMR_VSA0>
34.862103

>  <SMR_VSA1>
0

>  <SMR_VSA2>
0

>  <SMR_VSA3>
9.9692554

>  <SMR_VSA4>
20.767498

>  <SMR_VSA5>
70.572739

>  <SMR_VSA6>
7.3166366

>  <SMR_VSA7>
105.80067

>  <TPSA>
38.330002

>  <VAdjEq>
0.59167278

>  <VAdjMa>
4.8073549

>  <VDistEq>
2.8790443

>  <VDistMa>
7.2852521

>  <vdw_area>
212.26341

>  <vdw_vol>
234.3262

>  <vsa_acc>
13.566921

>  <vsa_acid>
0

>  <vsa_base>
0

>  <vsa_don>
5.6825762

>  <vsa_hyd>
171.31064

>  <vsa_other>
21.703266

>  <vsa_pol>
19.249496

>  <Weight>
213.664

>  <weinerPath>
335

>  <weinerPol>
15

>  <zagreb>
64

$$$$
C[C@@]1([C@H](OCC3=C(C)C=CC=C3)C2)CC[C@@]2(C(C)C)O1
  MOE2011           2D

 20 22  0  0  1  0  0  0  0  0999 V2000
    0.0000    0.0000    0.0000 C   0  0  0  0  0  0  0  0  0  0  0  0
    0.6840    1.3350    0.0000 C   0  0  1  0  0  0  0  0  0  0  0  0
    1.3270    2.4700    0.0000 C   0  0  2  0  0  0  0  0  0  0  0  0
    2.7660    2.0440    0.0000 O   0  0  0  0  0  0  0  0  0  0  0  0
    3.8540    3.0770    0.0000 C   0  0  0  0  0  0  0  0  0  0  0  0
    5.2920    2.6510    0.0000 C   0  0  0  0  0  0  0  0  0  0  0  0
    6.3800    3.6840    0.0000 C   0  0  0  0  0  0  0  0  0  0  0  0
    6.0290    5.1430    0.0000 C   0  0  0  0  0  0  0  0  0  0  0  0
    7.8180    3.2580    0.0000 C   0  0  0  0  0  0  0  0  0  0  0  0
    8.1690    1.8000    0.0000 C   0  0  0  0  0  0  0  0  0  0  0  0
    7.0810    0.7670    0.0000 C   0  0  0  0  0  0  0  0  0  0  0  0
    5.6420    1.1930    0.0000 C   0  0  0  0  0  0  0  0  0  0  0  0
    1.4030    3.7230    0.0000 C   0  0  0  0  0  0  0  0  0  0  0  0
   -0.8440    1.4670    0.0000 C   0  0  0  0  0  0  0  0  0  0  0  0
   -0.8470    2.6230    0.0000 C   0  0  0  0  0  0  0  0  0  0  0  0
    0.5210    2.5820    0.0000 C   0  0  2  0  0  0  0  0  0  0  0  0
   -0.0610    3.9640    0.0000 C   0  0  0  0  0  0  0  0  0  0  0  0
    0.8440    5.1590    0.0000 C   0  0  0  0  0  0  0  0  0  0  0  0
   -1.5500    4.1500    0.0000 C   0  0  0  0  0  0  0  0  0  0  0  0
    1.5040    0.2220    0.0000 O   0  0  0  0  0  0  0  0  0  0  0  0
  2  1  1  6  0  0  0
  2  3  1  0  0  0  0
  2 14  1  1  0  0  0
  2 20  1  0  0  0  0
  3  4  1  1  0  0  0
  3 13  1  0  0  0  0
  4  5  1  0  0  0  0
  5  6  1  0  0  0  0
  6  7  1  0  0  0  0
  6 12  2  0  0  0  0
  7  8  1  0  0  0  0
  7  9  2  0  0  0  0
  9 10  1  0  0  0  0
 10 11  2  0  0  0  0
 11 12  1  0  0  0  0
 13 16  1  0  0  0  0
 14 15  1  0  0  0  0
 16 15  1  6  0  0  0
 16 17  1  1  0  0  0
 16 20  1  0  0  0  0
 17 18  1  0  0  0  0
 17 19  1  0  0  0  0
M  END
>  <DSSTox_RID>
40389

>  <DSSTox_CID>
14456

>  <apol>
50.620617

>  <a_acc>
2

>  <a_acid>
0

>  <a_aro>
6

>  <a_base>
0

>  <a_count>
46

>  <a_don>
0

>  <a_heavy>
20

>  <a_hyd>
18

>  <a_IC>
54.813766

>  <a_ICM>
1.1916037

>  <a_nB>
0

>  <a_nBr>
0

>  <a_nC>
18

>  <a_nCl>
0

>  <a_nF>
0

>  <a_nH>
26

>  <a_nI>
0

>  <a_nN>
0

>  <a_nO>
2

>  <a_nP>
0

>  <a_nS>
0

>  <balabanJ>
1.5897628

>  <BCUT_PEOE_0>
-2.7416999

>  <BCUT_PEOE_1>
-0.35299584

>  <BCUT_PEOE_2>
0.38207799

>  <BCUT_PEOE_3>
2.9241757

>  <BCUT_SLOGP_0>
-2.7496951

>  <BCUT_SLOGP_1>
-0.23849149

>  <BCUT_SLOGP_2>
0.4943862

>  <BCUT_SLOGP_3>
2.9161692

>  <BCUT_SMR_0>
-2.5201902

>  <BCUT_SMR_1>
-0.15555526

>  <BCUT_SMR_2>
0.57660663

>  <BCUT_SMR_3>
3.153662

>  <bpol>
32.255383

>  <b_1rotN>
4

>  <b_1rotR>
0.18181819

>  <b_ar>
6

>  <b_count>
48

>  <b_double>
0

>  <b_heavy>
22

>  <b_rotN>
4

>  <b_rotR>
0.18181819

>  <b_single>
42

>  <b_triple>
0

>  <chi0>
14.380469

>  <chi0v>
13.109025

>  <chi0v_C>
12.292529

>  <chi0_C>
12.966255

>  <chi1>
9.4517431

>  <chi1v>
7.8144884

>  <chi1v_C>
6.8818631

>  <chi1_C>
7.8363876

>  <chiral>
3

>  <chiral_u>
0

>  <density>
0.73251206

>  <diameter>
10

>  <FCharge>
0

>  <GCUT_PEOE_0>
-0.81837624

>  <GCUT_PEOE_1>
-0.33894807

>  <GCUT_PEOE_2>
-0.062972479

>  <GCUT_PEOE_3>
2.9186506

>  <GCUT_SLOGP_0>
-0.89464515

>  <GCUT_SLOGP_1>
-0.22392102

>  <GCUT_SLOGP_2>
0.0371162

>  <GCUT_SLOGP_3>
2.9714961

>  <GCUT_SMR_0>
-0.53568816

>  <GCUT_SMR_1>
-0.13829987

>  <GCUT_SMR_2>
0.10341883

>  <GCUT_SMR_3>
3.1386085

>  <Kier1>
14.917356

>  <Kier2>
5.3252597

>  <Kier3>
2.6030245

>  <KierA1>
13.182713

>  <KierA2>
4.6736569

>  <KierA3>
2.2730107

>  <KierFlex>
3.0805738

>  <lip_acc>
2

>  <lip_don>
0

>  <lip_druglike>
1

>  <lip_violation>
0

>  <logP(o/w)>
4.9809999

>  <logS>
-4.0785899

>  <mr>
8.13097

>  <mutagenic>
0

>  <nmol>
1

>  <opr_brigid>
14

>  <opr_leadlike>
1

>  <opr_nring>
3

>  <opr_nrot>
6

>  <opr_violation>
1

>  <PC+>
0

>  <PC->
0

>  <PEOE_PC+>
0.74058402

>  <PEOE_PC->
-0.74058402

>  <PEOE_RPC+>
0.22721386

>  <PEOE_RPC->
0.48723632

>  <PEOE_VSA+0>
153.66786

>  <PEOE_VSA+1>
15.808495

>  <PEOE_VSA+2>
8.458519

>  <PEOE_VSA+3>
22.058474

>  <PEOE_VSA+4>
0

>  <PEOE_VSA+5>
0

>  <PEOE_VSA+6>
0

>  <PEOE_VSA-0>
65.44252

>  <PEOE_VSA-1>
0

>  <PEOE_VSA-2>
0

>  <PEOE_VSA-3>
0

>  <PEOE_VSA-4>
0

>  <PEOE_VSA-5>
0

>  <PEOE_VSA-6>
5.0075121

>  <PEOE_VSA_FHYD>
0.98148406

>  <PEOE_VSA_FNEG>
0.26049826

>  <PEOE_VSA_FPNEG>
0.018515935

>  <PEOE_VSA_FPOL>
0.018515935

>  <PEOE_VSA_FPOS>
0.73950171

>  <PEOE_VSA_FPPOS>
0

>  <PEOE_VSA_HYD>
265.43588

>  <PEOE_VSA_NEG>
70.450027

>  <PEOE_VSA_PNEG>
5.0075121

>  <PEOE_VSA_POL>
5.0075121

>  <PEOE_VSA_POS>
199.99336

>  <PEOE_VSA_PPOS>
0

>  <petitjean>
0.5

>  <petitjeanSC>
1

>  <Q_PC+>
0

>  <Q_PC->
0

>  <Q_RPC+>
0

>  <Q_RPC->
0

>  <Q_VSA_FHYD>
1

>  <Q_VSA_FNEG>
0

>  <Q_VSA_FPNEG>
0

>  <Q_VSA_FPOL>
0

>  <Q_VSA_FPOS>
1

>  <Q_VSA_FPPOS>
0

>  <Q_VSA_HYD>
270.44339

>  <Q_VSA_NEG>
0

>  <Q_VSA_PNEG>
0

>  <Q_VSA_POL>
0

>  <Q_VSA_POS>
270.44339

>  <Q_VSA_PPOS>
0

>  <radius>
5

>  <reactive>
0

>  <rings>
3

>  <RPC+>
0

>  <RPC->
0

>  <rsynth>
0.40000001

>  <SlogP>
4.5142202

>  <SlogP_VSA0>
0

>  <SlogP_VSA1>
0

>  <SlogP_VSA2>
28.468426

>  <SlogP_VSA3>
0

>  <SlogP_VSA4>
10.781946

>  <SlogP_VSA5>
0

>  <SlogP_VSA6>
0

>  <SlogP_VSA7>
70.572739

>  <SlogP_VSA8>
56.605217

>  <SlogP_VSA9>
154.23032

>  <SMR>
8.0871

>  <SMR_VSA0>
21.999775

>  <SMR_VSA1>
0

>  <SMR_VSA2>
4.4107962

>  <SMR_VSA3>
12.839799

>  <SMR_VSA4>
0

>  <SMR_VSA5>
148.10422

>  <SMR_VSA6>
0

>  <SMR_VSA7>
133.30406

>  <TPSA>
18.459999

>  <VAdjEq>
0.49991596

>  <VAdjMa>
5.4594316

>  <VDistEq>
3.1262786

>  <VDistMa>
8.3349066

>  <vdw_area>
270.44339

>  <vdw_vol>
338.82855

>  <vsa_acc>
5.0075121

>  <vsa_acid>
0

>  <vsa_base>
0

>  <vsa_don>
0

>  <vsa_hyd>
265.43588

>  <vsa_other>
0

>  <vsa_pol>
5.0075121

>  <Weight>
274.40399

>  <weinerPath>
819

>  <weinerPol>
31

>  <zagreb>
112

$$$$
C12C(C(=O)N(C1=O)SC(C(Cl)Cl)(Cl)Cl)C\C=C/C2
  MOE2011           2D

 18 19  0  0  1  0  0  0  0  0999 V2000
    0.0000    0.0000    0.0000 C   0  0  3  0  0  0  0  0  0  0  0  0
   -0.7560   -1.2950    0.0000 C   0  0  3  0  0  0  0  0  0  0  0  0
    0.2420   -2.4150    0.0000 C   0  0  0  0  0  0  0  0  0  0  0  0
   -0.0770   -3.8810    0.0000 O   0  0  0  0  0  0  0  0  0  0  0  0
    1.6150   -1.8110    0.0000 N   0  0  0  0  0  0  0  0  0  0  0  0
    1.4660   -0.3190    0.0000 C   0  0  0  0  0  0  0  0  0  0  0  0
    2.5850    0.6790    0.0000 O   0  0  0  0  0  0  0  0  0  0  0  0
    2.9110   -2.5680    0.0000 S   0  0  0  0  0  0  0  0  0  0  0  0
    4.2130   -1.8240    0.0000 C   0  0  0  0  0  0  0  0  0  0  0  0
    4.9570   -3.1270    0.0000 C   0  0  0  0  0  0  0  0  0  0  0  0
    6.4570   -3.1340    0.0000 Cl  0  0  0  0  0  0  0  0  0  0  0  0
    4.2010   -4.4220    0.0000 Cl  0  0  0  0  0  0  0  0  0  0  0  0
    5.5160   -1.0800    0.0000 Cl  0  0  0  0  0  0  0  0  0  0  0  0
    3.4700   -0.5210    0.0000 Cl  0  0  0  0  0  0  0  0  0  0  0  0
   -2.2560   -1.2880    0.0000 C   0  0  0  0  0  0  0  0  0  0  0  0
   -3.0000    0.0150    0.0000 C   0  0  0  0  0  0  0  0  0  0  0  0
   -2.2440    1.3100    0.0000 C   0  0  0  0  0  0  0  0  0  0  0  0
   -0.7440    1.3030    0.0000 C   0  0  0  0  0  0  0  0  0  0  0  0
  1  2  1  0  0  0  0
  1  6  1  0  0  0  0
  1 18  1  0  0  0  0
  2  3  1  0  0  0  0
  2 15  1  0  0  0  0
  3  4  2  0  0  0  0
  3  5  1  0  0  0  0
  5  6  1  0  0  0  0
  5  8  1  0  0  0  0
  6  7  2  0  0  0  0
  8  9  1  0  0  0  0
  9 10  1  0  0  0  0
  9 13  1  0  0  0  0
  9 14  1  0  0  0  0
 10 11  1  0  0  0  0
 10 12  1  0  0  0  0
 15 16  1  0  0  0  0
 16 17  2  0  0  0  0
 17 18  1  0  0  0  0
M  END
>  <DSSTox_RID>
40372

>  <DSSTox_CID>
242

>  <apol>
37.925137

>  <a_acc>
2

>  <a_acid>
0

>  <a_aro>
0

>  <a_base>
0

>  <a_count>
27

>  <a_don>
0

>  <a_heavy>
18

>  <a_hyd>
10

>  <a_IC>
56.633358

>  <a_ICM>
2.0975318

>  <a_nB>
0

>  <a_nBr>
0

>  <a_nC>
10

>  <a_nCl>
4

>  <a_nF>
0

>  <a_nH>
9

>  <a_nI>
0

>  <a_nN>
1

>  <a_nO>
2

>  <a_nP>
0

>  <a_nS>
1

>  <balabanJ>
2.094727

>  <BCUT_PEOE_0>
-2.5998642

>  <BCUT_PEOE_1>
-0.55877614

>  <BCUT_PEOE_2>
0.45445266

>  <BCUT_PEOE_3>
2.7544243

>  <BCUT_SLOGP_0>
-2.576133

>  <BCUT_SLOGP_1>
-0.4697676

>  <BCUT_SLOGP_2>
0.69818717

>  <BCUT_SLOGP_3>
2.7422125

>  <BCUT_SMR_0>
-2.3723145

>  <BCUT_SMR_1>
-0.370343

>  <BCUT_SMR_2>
0.72216398

>  <BCUT_SMR_3>
3.0020566

>  <bpol>
17.694862

>  <b_1rotN>
3

>  <b_1rotR>
0.15789473

>  <b_ar>
0

>  <b_count>
28

>  <b_double>
3

>  <b_heavy>
19

>  <b_rotN>
3

>  <b_rotR>
0.15789473

>  <b_single>
25

>  <b_triple>
0

>  <chi0>
13.499636

>  <chi0v>
12.824994

>  <chi0v_C>
5.8009648

>  <chi0_C>
6.2151785

>  <chi1>
8.3430414

>  <chi1v>
7.6244431

>  <chi1v_C>
3.1656852

>  <chi1_C>
3.6051717

>  <chiral>
2

>  <chiral_u>
2

>  <density>
1.1185268

>  <diameter>
8

>  <FCharge>
0

>  <GCUT_PEOE_0>
-0.76439464

>  <GCUT_PEOE_1>
-0.41593295

>  <GCUT_PEOE_2>
0.019634817

>  <GCUT_PEOE_3>
2.5297809

>  <GCUT_SLOGP_0>
-0.95633924

>  <GCUT_SLOGP_1>
-0.32524315

>  <GCUT_SLOGP_2>
0.26220408

>  <GCUT_SLOGP_3>
2.5633175

>  <GCUT_SMR_0>
-0.51129073

>  <GCUT_SMR_1>
-0.1912525

>  <GCUT_SMR_2>
0.4253

>  <GCUT_SMR_3>
2.7970672

>  <Kier1>
14.409972

>  <Kier2>
5.1747918

>  <Kier3>
2.6592798

>  <KierA1>
17.885433

>  <KierA2>
6.5053215

>  <KierA3>
3.3745451

>  <KierFlex>
6.4639168

>  <lip_acc>
3

>  <lip_don>
0

>  <lip_druglike>
1

>  <lip_violation>
0

>  <logP(o/w)>
2.8867199

>  <logS>
-4.2823

>  <mr>
7.5301528

>  <mutagenic>
1

>  <nmol>
1

>  <opr_brigid>
10

>  <opr_leadlike>
1

>  <opr_nring>
2

>  <opr_nrot>
3

>  <opr_violation>
0

>  <PC+>
0

>  <PC->
0

>  <PEOE_PC+>
1.1761181

>  <PEOE_PC->
-1.1761181

>  <PEOE_RPC+>
0.21186347

>  <PEOE_RPC->
0.23042464

>  <PEOE_VSA+0>
54.970417

>  <PEOE_VSA+1>
4.4170794

>  <PEOE_VSA+2>
0

>  <PEOE_VSA+3>
6.8309531

>  <PEOE_VSA+4>
25.899061

>  <PEOE_VSA+5>
0

>  <PEOE_VSA+6>
0

>  <PEOE_VSA-0>
31.616989

>  <PEOE_VSA-1>
118.32779

>  <PEOE_VSA-2>
0

>  <PEOE_VSA-3>
0

>  <PEOE_VSA-4>
0

>  <PEOE_VSA-5>
27.133842

>  <PEOE_VSA-6>
0

>  <PEOE_VSA_FHYD>
0.80299532

>  <PEOE_VSA_FNEG>
0.6578052

>  <PEOE_VSA_FPNEG>
0.10079581

>  <PEOE_VSA_FPOL>
0.19700471

>  <PEOE_VSA_FPOS>
0.3421948

>  <PEOE_VSA_FPPOS>
0.096208893

>  <PEOE_VSA_HYD>
216.16322

>  <PEOE_VSA_NEG>
177.07861

>  <PEOE_VSA_PNEG>
27.133842

>  <PEOE_VSA_POL>
53.032902

>  <PEOE_VSA_POS>
92.117508

>  <PEOE_VSA_PPOS>
25.899061

>  <petitjean>
0.5

>  <petitjeanSC>
1

>  <Q_PC+>
0

>  <Q_PC->
0

>  <Q_RPC+>
0

>  <Q_RPC->
0

>  <Q_VSA_FHYD>
1

>  <Q_VSA_FNEG>
0

>  <Q_VSA_FPNEG>
0

>  <Q_VSA_FPOL>
0

>  <Q_VSA_FPOS>
1

>  <Q_VSA_FPPOS>
0

>  <Q_VSA_HYD>
269.19614

>  <Q_VSA_NEG>
0

>  <Q_VSA_PNEG>
0

>  <Q_VSA_POL>
0

>  <Q_VSA_POS>
269.19614

>  <Q_VSA_PPOS>
0

>  <radius>
4

>  <reactive>
0

>  <rings>
2

>  <RPC+>
0

>  <RPC->
0

>  <rsynth>
1

>  <SlogP>
3.5209

>  <SlogP_VSA0>
0

>  <SlogP_VSA1>
12.036128

>  <SlogP_VSA2>
52.765293

>  <SlogP_VSA3>
0

>  <SlogP_VSA4>
8.8215923

>  <SlogP_VSA5>
0

>  <SlogP_VSA6>
0

>  <SlogP_VSA7>
35.286369

>  <SlogP_VSA8>
37.736813

>  <SlogP_VSA9>
188.57559

>  <SMR>
7.473

>  <SMR_VSA0>
47.724434

>  <SMR_VSA1>
1.5185606

>  <SMR_VSA2>
8.8215923

>  <SMR_VSA3>
5.0408592

>  <SMR_VSA4>
0

>  <SMR_VSA5>
73.023178

>  <SMR_VSA6>
10.517568

>  <SMR_VSA7>
188.57559

>  <TPSA>
37.380001

>  <VAdjEq>
0.52150291

>  <VAdjMa>
5.2479277

>  <VDistEq>
2.8379924

>  <VDistMa>
8.0647888

>  <vdw_area>
269.19614

>  <vdw_vol>
303.96497

>  <vsa_acc>
27.133842

>  <vsa_acid>
0

>  <vsa_base>
0

>  <vsa_don>
0

>  <vsa_hyd>
185.97885

>  <vsa_other>
56.083443

>  <vsa_pol>
27.133842

>  <Weight>
349.065

>  <weinerPath>
567

>  <weinerPol>
30

>  <zagreb>
96

$$$$
O=C(OCC#C)[C@H](OC1=CC=C(OC2=NC=C(Cl)C=C2F)C=C1)C
  MOE2011           2D

 24 25  0  0  1  0  0  0  0  0999 V2000
    0.0000    0.0000    0.0000 O   0  0  0  0  0  0  0  0  0  0  0  0
   -0.7560   -1.2960    0.0000 C   0  0  0  0  0  0  0  0  0  0  0  0
   -0.0120   -2.5980    0.0000 O   0  0  0  0  0  0  0  0  0  0  0  0
    1.4880   -2.6050    0.0000 C   0  0  0  0  0  0  0  0  0  0  0  0
    2.2320   -3.9070    0.0000 C   0  0  0  0  0  0  0  0  0  0  0  0
    2.9760   -5.2100    0.0000 C   0  0  0  0  0  0  0  0  0  0  0  0
   -2.2560   -1.2890    0.0000 C   0  0  2  0  0  0  0  0  0  0  0  0
   -3.0000    0.0140    0.0000 O   0  0  0  0  0  0  0  0  0  0  0  0
   -4.5000    0.0200    0.0000 C   0  0  0  0  0  0  0  0  0  0  0  0
   -5.2560   -1.2750    0.0000 C   0  0  0  0  0  0  0  0  0  0  0  0
   -6.7560   -1.2690    0.0000 C   0  0  0  0  0  0  0  0  0  0  0  0
   -7.5000    0.0340    0.0000 C   0  0  0  0  0  0  0  0  0  0  0  0
   -9.0000    0.0410    0.0000 O   0  0  0  0  0  0  0  0  0  0  0  0
   -9.7440    1.3430    0.0000 C   0  0  0  0  0  0  0  0  0  0  0  0
   -8.9880    2.6390    0.0000 N   0  0  0  0  0  0  0  0  0  0  0  0
   -9.7320    3.9410    0.0000 C   0  0  0  0  0  0  0  0  0  0  0  0
  -11.2320    3.9480    0.0000 C   0  0  0  0  0  0  0  0  0  0  0  0
  -11.9760    5.2500    0.0000 Cl  0  0  0  0  0  0  0  0  0  0  0  0
  -11.9880    2.6520    0.0000 C   0  0  0  0  0  0  0  0  0  0  0  0
  -11.2440    1.3500    0.0000 C   0  0  0  0  0  0  0  0  0  0  0  0
  -12.0000    0.0540    0.0000 F   0  0  0  0  0  0  0  0  0  0  0  0
   -6.7440    1.3300    0.0000 C   0  0  0  0  0  0  0  0  0  0  0  0
   -5.2440    1.3230    0.0000 C   0  0  0  0  0  0  0  0  0  0  0  0
   -3.0120   -2.5840    0.0000 C   0  0  0  0  0  0  0  0  0  0  0  0
  1  2  2  0  0  0  0
  2  3  1  0  0  0  0
  2  7  1  0  0  0  0
  3  4  1  0  0  0  0
  4  5  1  0  0  0  0
  5  6  3  0  0  0  0
  7  8  1  0  0  0  0
  7 24  1  1  0  0  0
  8  9  1  0  0  0  0
  9 10  1  0  0  0  0
  9 23  2  0  0  0  0
 10 11  2  0  0  0  0
 11 12  1  0  0  0  0
 12 13  1  0  0  0  0
 12 22  2  0  0  0  0
 13 14  1  0  0  0  0
 14 15  1  0  0  0  0
 14 20  2  0  0  0  0
 15 16  2  0  0  0  0
 16 17  1  0  0  0  0
 17 18  1  0  0  0  0
 17 19  2  0  0  0  0
 19 20  1  0  0  0  0
 20 21  1  0  0  0  0
 22 23  1  0  0  0  0
M  END
>  <DSSTox_RID>
40390

>  <DSSTox_CID>
12354

>  <apol>
45.633308

>  <a_acc>
3

>  <a_acid>
0

>  <a_aro>
12

>  <a_base>
0

>  <a_count>
37

>  <a_don>
0

>  <a_heavy>
24

>  <a_hyd>
17

>  <a_IC>
67.157188

>  <a_ICM>
1.8150592

>  <a_nB>
0

>  <a_nBr>
0

>  <a_nC>
17

>  <a_nCl>
1

>  <a_nF>
1

>  <a_nH>
13

>  <a_nI>
0

>  <a_nN>
1

>  <a_nO>
4

>  <a_nP>
0

>  <a_nS>
0

>  <balabanJ>
1.6622545

>  <BCUT_PEOE_0>
-2.4088943

>  <BCUT_PEOE_1>
-0.637371

>  <BCUT_PEOE_2>
0.69032562

>  <BCUT_PEOE_3>
2.4789777

>  <BCUT_SLOGP_0>
-2.5295537

>  <BCUT_SLOGP_1>
-0.53807992

>  <BCUT_SLOGP_2>
0.80591482

>  <BCUT_SLOGP_3>
2.442019

>  <BCUT_SMR_0>
-2.1883297

>  <BCUT_SMR_1>
-0.49986199

>  <BCUT_SMR_2>
0.85431087

>  <BCUT_SMR_3>
2.6893003

>  <bpol>
23.860691

>  <b_1rotN>
6

>  <b_1rotR>
0.23999999

>  <b_ar>
12

>  <b_count>
38

>  <b_double>
1

>  <b_heavy>
25

>  <b_rotN>
8

>  <b_rotR>
0.31999999

>  <b_single>
24

>  <b_triple>
1

>  <chi0>
17.526733

>  <chi0v>
13.417974

>  <chi0v_C>
9.8259087

>  <chi0_C>
11.698306

>  <chi1>
11.490402

>  <chi1v>
7.2283792

>  <chi1v_C>
4.4456468

>  <chi1_C>
6.3088617

>  <chiral>
1

>  <chiral_u>
0

>  <density>
0.8779496

>  <diameter>
16

>  <FCharge>
0

>  <GCUT_PEOE_0>
-0.76325399

>  <GCUT_PEOE_1>
-0.39680767

>  <GCUT_PEOE_2>
0.033429064

>  <GCUT_PEOE_3>
2.3321052

>  <GCUT_SLOGP_0>
-0.93328542

>  <GCUT_SLOGP_1>
-0.30883089

>  <GCUT_SLOGP_2>
0.16445385

>  <GCUT_SLOGP_3>
2.4532623

>  <GCUT_SMR_0>
-0.50562394

>  <GCUT_SMR_1>
-0.21605732

>  <GCUT_SMR_2>
0.19305076

>  <GCUT_SMR_3>
2.5950022

>  <Kier1>
20.313601

>  <Kier2>
10.222222

>  <Kier3>
6.6824455

>  <KierA1>
15.64815

>  <KierA2>
7.7786517

>  <KierA3>
5.0403552

>  <KierFlex>
5.0717297

>  <lip_acc>
5

>  <lip_don>
0

>  <lip_druglike>
1

>  <lip_violation>
0

>  <logP(o/w)>
3.7127399

>  <logS>
-4.95439

>  <mr>
8.9252405

>  <mutagenic>
0

>  <nmol>
1

>  <opr_brigid>
12

>  <opr_leadlike>
1

>  <opr_nring>
2

>  <opr_nrot>
7

>  <opr_violation>
0

>  <PC+>
0

>  <PC->
0

>  <PEOE_PC+>
1.7115856

>  <PEOE_PC->
-1.7115856

>  <PEOE_RPC+>
0.17565636

>  <PEOE_RPC->
0.18861778

>  <PEOE_VSA+0>
108.45092

>  <PEOE_VSA+1>
12.978266

>  <PEOE_VSA+2>
28.758026

>  <PEOE_VSA+3>
9.0208454

>  <PEOE_VSA+4>
43.466526

>  <PEOE_VSA+5>
0

>  <PEOE_VSA+6>
14.708499

>  <PEOE_VSA-0>
45.216946

>  <PEOE_VSA-1>
29.581947

>  <PEOE_VSA-2>
0

>  <PEOE_VSA-3>
0

>  <PEOE_VSA-4>
17.591211

>  <PEOE_VSA-5>
18.574432

>  <PEOE_VSA-6>
2.503756

>  <PEOE_VSA_FHYD>
0.70728725

>  <PEOE_VSA_FNEG>
0.34295851

>  <PEOE_VSA_FPNEG>
0.11687846

>  <PEOE_VSA_FPOL>
0.29271278

>  <PEOE_VSA_FPOS>
0.65704149

>  <PEOE_VSA_FPPOS>
0.17583431

>  <PEOE_VSA_HYD>
234.00696

>  <PEOE_VSA_NEG>
113.46829

>  <PEOE_VSA_PNEG>
38.669399

>  <PEOE_VSA_POL>
96.844421

>  <PEOE_VSA_POS>
217.38309

>  <PEOE_VSA_PPOS>
58.175026

>  <petitjean>
0.5

>  <petitjeanSC>
1

>  <Q_PC+>
0

>  <Q_PC->
0

>  <Q_RPC+>
0

>  <Q_RPC->
0

>  <Q_VSA_FHYD>
1

>  <Q_VSA_FNEG>
0

>  <Q_VSA_FPNEG>
0

>  <Q_VSA_FPOL>
0

>  <Q_VSA_FPOS>
1

>  <Q_VSA_FPPOS>
0

>  <Q_VSA_HYD>
330.85138

>  <Q_VSA_NEG>
0

>  <Q_VSA_PNEG>
0

>  <Q_VSA_POL>
0

>  <Q_VSA_POS>
330.85138

>  <Q_VSA_PPOS>
0

>  <radius>
8

>  <reactive>
0

>  <rings>
2

>  <RPC+>
0

>  <RPC->
0

>  <rsynth>
1

>  <SlogP>
3.6101079

>  <SlogP_VSA0>
21.999775

>  <SlogP_VSA1>
24.530994

>  <SlogP_VSA2>
50.451771

>  <SlogP_VSA3>
37.956833

>  <SlogP_VSA4>
31.488184

>  <SlogP_VSA5>
0

>  <SlogP_VSA6>
3.5006065

>  <SlogP_VSA7>
105.43027

>  <SlogP_VSA8>
0

>  <SlogP_VSA9>
102.73623

>  <SMR>
8.5602999

>  <SMR_VSA0>
34.862103

>  <SMR_VSA1>
53.745419

>  <SMR_VSA2>
9.1210184

>  <SMR_VSA3>
42.301285

>  <SMR_VSA4>
0

>  <SMR_VSA5>
105.43027

>  <SMR_VSA6>
60.159904

>  <SMR_VSA7>
72.474655

>  <TPSA>
57.650002

>  <VAdjEq>
0.42571631

>  <VAdjMa>
5.643856

>  <VDistEq>
3.707741

>  <VDistMa>
8.8244686

>  <vdw_area>
330.85138

>  <vdw_vol>
383.44

>  <vsa_acc>
21.753254

>  <vsa_acid>
0

>  <vsa_base>
0

>  <vsa_don>
0

>  <vsa_hyd>
276.43259

>  <vsa_other>
32.665543

>  <vsa_pol>
21.753254

>  <Weight>
349.745

>  <weinerPath>
1623

>  <weinerPol>
33

>  <zagreb>
116

$$$$
Clc3ccccc3c1nnc(nn1)c2ccccc2Cl
  MOE2011           2D

 20 22  0  0  0  0  0  0  0  0999 V2000
    0.0000    0.0000    0.0000 Cl  0  0  0  0  0  0  0  0  0  0  0  0
    0.0110   -1.5000    0.0000 C   0  0  0  0  0  0  0  0  0  0  0  0
    1.3150   -2.2410    0.0000 C   0  0  0  0  0  0  0  0  0  0  0  0
    1.3260   -3.7410    0.0000 C   0  0  0  0  0  0  0  0  0  0  0  0
    0.0320   -4.5000    0.0000 C   0  0  0  0  0  0  0  0  0  0  0  0
   -1.2720   -3.7590    0.0000 C   0  0  0  0  0  0  0  0  0  0  0  0
   -1.2830   -2.2590    0.0000 C   0  0  0  0  0  0  0  0  0  0  0  0
   -2.5870   -1.5190    0.0000 C   0  0  0  0  0  0  0  0  0  0  0  0
   -3.8810   -2.2780    0.0000 N   0  0  0  0  0  0  0  0  0  0  0  0
   -5.1850   -1.5370    0.0000 N   0  0  0  0  0  0  0  0  0  0  0  0
   -5.1960   -0.0370    0.0000 C   0  0  0  0  0  0  0  0  0  0  0  0
   -3.9020    0.7220    0.0000 N   0  0  0  0  0  0  0  0  0  0  0  0
   -2.5980   -0.0190    0.0000 N   0  0  0  0  0  0  0  0  0  0  0  0
   -6.5000    0.7030    0.0000 C   0  0  0  0  0  0  0  0  0  0  0  0
   -6.5110    2.2030    0.0000 C   0  0  0  0  0  0  0  0  0  0  0  0
   -7.8160    2.9440    0.0000 C   0  0  0  0  0  0  0  0  0  0  0  0
   -9.1090    2.1850    0.0000 C   0  0  0  0  0  0  0  0  0  0  0  0
   -9.0980    0.6850    0.0000 C   0  0  0  0  0  0  0  0  0  0  0  0
   -7.7940   -0.0560    0.0000 C   0  0  0  0  0  0  0  0  0  0  0  0
   -7.7830   -1.5560    0.0000 Cl  0  0  0  0  0  0  0  0  0  0  0  0
  1  2  1  0  0  0  0
  2  3  1  0  0  0  0
  2  7  2  0  0  0  0
  3  4  2  0  0  0  0
  4  5  1  0  0  0  0
  5  6  2  0  0  0  0
  6  7  1  0  0  0  0
  7  8  1  0  0  0  0
  8  9  1  0  0  0  0
  8 13  2  0  0  0  0
  9 10  2  0  0  0  0
 10 11  1  0  0  0  0
 11 12  2  0  0  0  0
 11 14  1  0  0  0  0
 12 13  1  0  0  0  0
 14 15  1  0  0  0  0
 14 19  2  0  0  0  0
 15 16  2  0  0  0  0
 16 17  1  0  0  0  0
 17 18  2  0  0  0  0
 18 19  1  0  0  0  0
 19 20  1  0  0  0  0
M  END
>  <DSSTox_RID>
40345

>  <DSSTox_CID>
3881

>  <apol>
38.734344

>  <a_acc>
4

>  <a_acid>
0

>  <a_aro>
18

>  <a_base>
0

>  <a_count>
28

>  <a_don>
0

>  <a_heavy>
20

>  <a_hyd>
14

>  <a_IC>
47.302967

>  <a_ICM>
1.6893917

>  <a_nB>
0

>  <a_nBr>
0

>  <a_nC>
14

>  <a_nCl>
2

>  <a_nF>
0

>  <a_nH>
8

>  <a_nI>
0

>  <a_nN>
4

>  <a_nO>
0

>  <a_nP>
0

>  <a_nS>
0

>  <balabanJ>
1.5179058

>  <BCUT_PEOE_0>
-2.1678154

>  <BCUT_PEOE_1>
-0.66505939

>  <BCUT_PEOE_2>
0.6851061

>  <BCUT_PEOE_3>
2.1894166

>  <BCUT_SLOGP_0>
-2.0500822

>  <BCUT_SLOGP_1>
-0.4602859

>  <BCUT_SLOGP_2>
0.89467627

>  <BCUT_SLOGP_3>
2.3668323

>  <BCUT_SMR_0>
-1.8470839

>  <BCUT_SMR_1>
-0.43311065

>  <BCUT_SMR_2>
0.95475179

>  <BCUT_SMR_3>
2.5102291

>  <bpol>
12.225656

>  <b_1rotN>
2

>  <b_1rotR>
0.090909094

>  <b_ar>
18

>  <b_count>
30

>  <b_double>
0

>  <b_heavy>
22

>  <b_rotN>
2

>  <b_rotR>
0.090909094

>  <b_single>
12

>  <b_triple>
0

>  <chi0>
13.949383

>  <chi0v>
11.675444

>  <chi0v_C>
7.6188021

>  <chi0_C>
9.1209555

>  <chi1>
9.7540197

>  <chi1v>
6.5830212

>  <chi1v_C>
4.1547008

>  <chi1_C>
5.9663267

>  <chiral>
0

>  <chiral_u>
0

>  <density>
0.89638895

>  <diameter>
11

>  <FCharge>
0

>  <GCUT_PEOE_0>
-0.73941153

>  <GCUT_PEOE_1>
-0.40405932

>  <GCUT_PEOE_2>
0.065455459

>  <GCUT_PEOE_3>
2.2191999

>  <GCUT_SLOGP_0>
-0.86259824

>  <GCUT_SLOGP_1>
-0.22589879

>  <GCUT_SLOGP_2>
0.23210618

>  <GCUT_SLOGP_3>
2.3665981

>  <GCUT_SMR_0>
-0.39851701

>  <GCUT_SMR_1>
-0.185366

>  <GCUT_SMR_2>
0.3642498

>  <GCUT_SMR_3>
2.5325842

>  <Kier1>
14.917356

>  <Kier2>
6.8400002

>  <Kier3>
3.4425001

>  <KierA1>
11.532824

>  <KierA2>
5.2108774

>  <KierA3>
2.5944359

>  <KierFlex>
3.0048063

>  <lip_acc>
4

>  <lip_don>
0

>  <lip_druglike>
1

>  <lip_violation>
0

>  <logP(o/w)>
5.65306

>  <logS>
-6.64218

>  <mr>
7.9832187

>  <mutagenic>
0

>  <nmol>
1

>  <opr_brigid>
18

>  <opr_leadlike>
1

>  <opr_nring>
3

>  <opr_nrot>
2

>  <opr_violation>
0

>  <PC+>
0

>  <PC->
0

>  <PEOE_PC+>
0.66492933

>  <PEOE_PC->
-0.66492933

>  <PEOE_RPC+>
0.30887455

>  <PEOE_RPC->
0.18823232

>  <PEOE_VSA+0>
130.88504

>  <PEOE_VSA+1>
9.0394926

>  <PEOE_VSA+2>
0

>  <PEOE_VSA+3>
0

>  <PEOE_VSA+4>
22.381124

>  <PEOE_VSA+5>
0

>  <PEOE_VSA+6>
0

>  <PEOE_VSA-0>
0

>  <PEOE_VSA-1>
59.163895

>  <PEOE_VSA-2>
37.684158

>  <PEOE_VSA-3>
0

>  <PEOE_VSA-4>
0

>  <PEOE_VSA-5>
0

>  <PEOE_VSA-6>
0

>  <PEOE_VSA_FHYD>
0.91363764

>  <PEOE_VSA_FNEG>
0.37370893

>  <PEOE_VSA_FPNEG>
0

>  <PEOE_VSA_FPOL>
0.086362362

>  <PEOE_VSA_FPOS>
0.6262911

>  <PEOE_VSA_FPPOS>
0.086362362

>  <PEOE_VSA_HYD>
236.77258

>  <PEOE_VSA_NEG>
96.848053

>  <PEOE_VSA_PNEG>
0

>  <PEOE_VSA_POL>
22.381124

>  <PEOE_VSA_POS>
162.30565

>  <PEOE_VSA_PPOS>
22.381124

>  <petitjean>
0.45454547

>  <petitjeanSC>
0.83333331

>  <Q_PC+>
0

>  <Q_PC->
0

>  <Q_RPC+>
0

>  <Q_RPC->
0

>  <Q_VSA_FHYD>
1

>  <Q_VSA_FNEG>
0

>  <Q_VSA_FPNEG>
0

>  <Q_VSA_FPOL>
0

>  <Q_VSA_FPOS>
1

>  <Q_VSA_FPPOS>
0

>  <Q_VSA_HYD>
259.15372

>  <Q_VSA_NEG>
0

>  <Q_VSA_PNEG>
0

>  <Q_VSA_POL>
0

>  <Q_VSA_POS>
259.15372

>  <Q_VSA_PPOS>
0

>  <radius>
6

>  <reactive>
0

>  <rings>
3

>  <RPC+>
0

>  <RPC->
0

>  <rsynth>
1

>  <SlogP>
3.9073999

>  <SlogP_VSA0>
0

>  <SlogP_VSA1>
66.652031

>  <SlogP_VSA2>
0

>  <SlogP_VSA3>
0

>  <SlogP_VSA4>
0

>  <SlogP_VSA5>
0

>  <SlogP_VSA6>
7.0012131

>  <SlogP_VSA7>
152.17247

>  <SlogP_VSA8>
0

>  <SlogP_VSA9>
78.297287

>  <SMR>
7.8513999

>  <SMR_VSA0>
0

>  <SMR_VSA1>
66.652031

>  <SMR_VSA2>
0

>  <SMR_VSA3>
7.0012131

>  <SMR_VSA4>
11.02699

>  <SMR_VSA5>
141.14548

>  <SMR_VSA6>
0

>  <SMR_VSA7>
78.297287

>  <TPSA>
51.560001

>  <VAdjEq>
0.49991596

>  <VAdjMa>
5.4594316

>  <VDistEq>
3.2194064

>  <VDistMa>
8.321084

>  <vdw_area>
259.15372

>  <vdw_vol>
329.19638

>  <vsa_acc>
37.684158

>  <vsa_acid>
0

>  <vsa_base>
0

>  <vsa_don>
0

>  <vsa_hyd>
199.08842

>  <vsa_other>
22.381124

>  <vsa_pol>
37.684158

>  <Weight>
303.15201

>  <weinerPath>
852

>  <weinerPol>
31

>  <zagreb>
104

$$$$
O=C1N(CC(C=CC=C2)=C2Cl)OCC(C)1C
  MOE2011           2D

 16 17  0  0  0  0  0  0  0  0999 V2000
    0.0000    0.0000    0.0000 O   0  0  0  0  0  0  0  0  0  0  0  0
   -0.7500    1.2990    0.0000 C   0  0  0  0  0  0  0  0  0  0  0  0
   -2.2410    1.4560    0.0000 N   0  0  0  0  0  0  0  0  0  0  0  0
   -3.2450    0.3420    0.0000 C   0  0  0  0  0  0  0  0  0  0  0  0
   -4.7130    0.6540    0.0000 C   0  0  0  0  0  0  0  0  0  0  0  0
   -5.1760    2.0810    0.0000 C   0  0  0  0  0  0  0  0  0  0  0  0
   -6.6430    2.3930    0.0000 C   0  0  0  0  0  0  0  0  0  0  0  0
   -7.6470    1.2790    0.0000 C   0  0  0  0  0  0  0  0  0  0  0  0
   -7.1840   -0.1480    0.0000 C   0  0  0  0  0  0  0  0  0  0  0  0
   -5.7170   -0.4600    0.0000 C   0  0  0  0  0  0  0  0  0  0  0  0
   -5.2530   -1.8870    0.0000 Cl  0  0  0  0  0  0  0  0  0  0  0  0
   -2.5530    2.9240    0.0000 O   0  0  0  0  0  0  0  0  0  0  0  0
   -1.2540    3.6730    0.0000 C   0  0  0  0  0  0  0  0  0  0  0  0
   -0.1390    2.6690    0.0000 C   0  0  0  0  0  0  0  0  0  0  0  0
    1.2750    2.1680    0.0000 C   0  0  0  0  0  0  0  0  0  0  0  0
    0.9490    3.7020    0.0000 C   0  0  0  0  0  0  0  0  0  0  0  0
  1  2  2  0  0  0  0
  2  3  1  0  0  0  0
  2 14  1  0  0  0  0
  3  4  1  0  0  0  0
  3 12  1  0  0  0  0
  4  5  1  0  0  0  0
  5  6  1  0  0  0  0
  5 10  2  0  0  0  0
  6  7  2  0  0  0  0
  7  8  1  0  0  0  0
  8  9  2  0  0  0  0
  9 10  1  0  0  0  0
 10 11  1  0  0  0  0
 12 13  1  0  0  0  0
 13 14  1  0  0  0  0
 14 15  1  0  0  0  0
 14 16  1  0  0  0  0
M  END
>  <DSSTox_RID>
40392

>  <DSSTox_CID>
12355

>  <apol>
35.339104

>  <a_acc>
2

>  <a_acid>
0

>  <a_aro>
6

>  <a_base>
0

>  <a_count>
30

>  <a_don>
0

>  <a_heavy>
16

>  <a_hyd>
12

>  <a_IC>
48.884197

>  <a_ICM>
1.6294733

>  <a_nB>
0

>  <a_nBr>
0

>  <a_nC>
12

>  <a_nCl>
1

>  <a_nF>
0

>  <a_nH>
14

>  <a_nI>
0

>  <a_nN>
1

>  <a_nO>
2

>  <a_nP>
0

>  <a_nS>
0

>  <balabanJ>
1.9086772

>  <BCUT_PEOE_0>
-2.5417123

>  <BCUT_PEOE_1>
-0.52437156

>  <BCUT_PEOE_2>
0.48993942

>  <BCUT_PEOE_3>
2.7066395

>  <BCUT_SLOGP_0>
-2.5747128

>  <BCUT_SLOGP_1>
-0.41214147

>  <BCUT_SLOGP_2>
0.55530137

>  <BCUT_SLOGP_3>
2.6738284

>  <BCUT_SMR_0>
-2.3379655

>  <BCUT_SMR_1>
-0.32355666

>  <BCUT_SMR_2>
0.71355951

>  <BCUT_SMR_3>
2.9305956

>  <bpol>
19.258898

>  <b_1rotN>
2

>  <b_1rotR>
0.11764706

>  <b_ar>
6

>  <b_count>
31

>  <b_double>
1

>  <b_heavy>
17

>  <b_rotN>
2

>  <b_rotR>
0.11764706

>  <b_single>
24

>  <b_triple>
0

>  <chi0>
11.759149

>  <chi0v>
10.121219

>  <chi0v_C>
7.7236147

>  <chi0_C>
8.4746914

>  <chi1>
7.504837

>  <chi1v>
5.5666118

>  <chi1v_C>
3.784457

>  <chi1_C>
4.7003069

>  <chiral>
0

>  <chiral_u>
0

>  <density>
0.85190684

>  <diameter>
8

>  <FCharge>
0

>  <GCUT_PEOE_0>
-0.83176237

>  <GCUT_PEOE_1>
-0.35712704

>  <GCUT_PEOE_2>
-0.04956999

>  <GCUT_PEOE_3>
2.4827147

>  <GCUT_SLOGP_0>
-0.92856675

>  <GCUT_SLOGP_1>
-0.22234648

>  <GCUT_SLOGP_2>
0.065357395

>  <GCUT_SLOGP_3>
2.531271

>  <GCUT_SMR_0>
-0.52767491

>  <GCUT_SMR_1>
-0.16480067

>  <GCUT_SMR_2>
0.13326545

>  <GCUT_SMR_3>
2.7243905

>  <Kier1>
12.456747

>  <Kier2>
4.704

>  <Kier3>
2.6514049

>  <KierA1>
10.618183

>  <KierA2>
3.9639032

>  <KierA3>
2.2150352

>  <KierFlex>
2.6305907

>  <lip_acc>
3

>  <lip_don>
0

>  <lip_druglike>
1

>  <lip_violation>
0

>  <logP(o/w)>
2.596

>  <logS>
-2.84817

>  <mr>
6.3876834

>  <mutagenic>
0

>  <nmol>
1

>  <opr_brigid>
11

>  <opr_leadlike>
1

>  <opr_nring>
2

>  <opr_nrot>
2

>  <opr_violation>
0

>  <PC+>
0

>  <PC->
0

>  <PEOE_PC+>
0.81121111

>  <PEOE_PC->
-0.81121111

>  <PEOE_RPC+>
0.31822312

>  <PEOE_RPC->
0.33293816

>  <PEOE_VSA+0>
92.642426

>  <PEOE_VSA+1>
4.5197463

>  <PEOE_VSA+2>
0

>  <PEOE_VSA+3>
42.357979

>  <PEOE_VSA+4>
0

>  <PEOE_VSA+5>
12.949531

>  <PEOE_VSA+6>
0

>  <PEOE_VSA-0>
31.616989

>  <PEOE_VSA-1>
29.581947

>  <PEOE_VSA-2>
0

>  <PEOE_VSA-3>
0

>  <PEOE_VSA-4>
0

>  <PEOE_VSA-5>
19.46928

>  <PEOE_VSA-6>
0

>  <PEOE_VSA_FHYD>
0.86094576

>  <PEOE_VSA_FNEG>
0.34601074

>  <PEOE_VSA_FPNEG>
0.083509713

>  <PEOE_VSA_FPOL>
0.13905422

>  <PEOE_VSA_FPOS>
0.65398926

>  <PEOE_VSA_FPPOS>
0.05554451

>  <PEOE_VSA_HYD>
200.71909

>  <PEOE_VSA_NEG>
80.668213

>  <PEOE_VSA_PNEG>
19.46928

>  <PEOE_VSA_POL>
32.418812

>  <PEOE_VSA_POS>
152.46968

>  <PEOE_VSA_PPOS>
12.949531

>  <petitjean>
0.5

>  <petitjeanSC>
1

>  <Q_PC+>
0

>  <Q_PC->
0

>  <Q_RPC+>
0

>  <Q_RPC->
0

>  <Q_VSA_FHYD>
1

>  <Q_VSA_FNEG>
0

>  <Q_VSA_FPNEG>
0

>  <Q_VSA_FPOL>
0

>  <Q_VSA_FPOS>
1

>  <Q_VSA_FPPOS>
0

>  <Q_VSA_HYD>
233.13791

>  <Q_VSA_NEG>
0

>  <Q_VSA_PNEG>
0

>  <Q_VSA_POL>
0

>  <Q_VSA_POS>
233.13791

>  <Q_VSA_PPOS>
0

>  <radius>
4

>  <reactive>
1

>  <rings>
2

>  <RPC+>
0

>  <RPC->
0

>  <rsynth>
1

>  <SlogP>
2.9064

>  <SlogP_VSA0>
0

>  <SlogP_VSA1>
10.99743

>  <SlogP_VSA2>
35.080978

>  <SlogP_VSA3>
20.926258

>  <SlogP_VSA4>
3.185575

>  <SlogP_VSA5>
0

>  <SlogP_VSA6>
3.5006065

>  <SlogP_VSA7>
70.572739

>  <SlogP_VSA8>
0

>  <SlogP_VSA9>
124.24025

>  <SMR>
6.1939998

>  <SMR_VSA0>
35.080978

>  <SMR_VSA1>
5.7386465

>  <SMR_VSA2>
0

>  <SMR_VSA3>
6.6861815

>  <SMR_VSA4>
0

>  <SMR_VSA5>
89.012314

>  <SMR_VSA6>
26.185041

>  <SMR_VSA7>
105.80067

>  <TPSA>
29.540001

>  <VAdjEq>
0.56510133

>  <VAdjMa>
5.0874629

>  <VDistEq>
2.8180223

>  <VDistMa>
7.6970444

>  <vdw_area>
233.13791

>  <vdw_vol>
264.80594

>  <vsa_acc>
19.46928

>  <vsa_acid>
0

>  <vsa_base>
0

>  <vsa_don>
0

>  <vsa_hyd>
200.71909

>  <vsa_other>
12.949531

>  <vsa_pol>
19.46928

>  <Weight>
239.702

>  <weinerPath>
436

>  <weinerPol>
23

>  <zagreb>
84

$$$$
O=C(O)C1=C(Cl)C=CC(Cl)=N1
  MOE2011           2D

 11 11  0  0  0  0  0  0  0  0999 V2000
    0.0000    0.0000    0.0000 O   0  0  0  0  0  0  0  0  0  0  0  0
    0.7430   -1.3030    0.0000 C   0  0  0  0  0  0  0  0  0  0  0  0
   -0.0140   -2.5980    0.0000 O   0  0  0  0  0  0  0  0  0  0  0  0
    2.2430   -1.3110    0.0000 C   0  0  0  0  0  0  0  0  0  0  0  0
    2.9860   -2.6140    0.0000 C   0  0  0  0  0  0  0  0  0  0  0  0
    2.2290   -3.9090    0.0000 Cl  0  0  0  0  0  0  0  0  0  0  0  0
    4.4860   -2.6230    0.0000 C   0  0  0  0  0  0  0  0  0  0  0  0
    5.2430   -1.3280    0.0000 C   0  0  0  0  0  0  0  0  0  0  0  0
    4.5000   -0.0250    0.0000 C   0  0  0  0  0  0  0  0  0  0  0  0
    5.2570    1.2700    0.0000 Cl  0  0  0  0  0  0  0  0  0  0  0  0
    3.0000   -0.0160    0.0000 N   0  0  0  0  0  0  0  0  0  0  0  0
  1  2  2  0  0  0  0
  2  3  1  0  0  0  0
  2  4  1  0  0  0  0
  4  5  1  0  0  0  0
  4 11  2  0  0  0  0
  5  6  1  0  0  0  0
  5  7  2  0  0  0  0
  7  8  1  0  0  0  0
  8  9  2  0  0  0  0
  9 10  1  0  0  0  0
  9 11  1  0  0  0  0
M  END
>  <DSSTox_RID>
40393

>  <DSSTox_CID>
9221

>  <apol>
19.624378

>  <a_acc>
3

>  <a_acid>
0

>  <a_aro>
6

>  <a_base>
0

>  <a_count>
14

>  <a_don>
2

>  <a_heavy>
11

>  <a_hyd>
6

>  <a_IC>
29.038307

>  <a_ICM>
2.0741646

>  <a_nB>
0

>  <a_nBr>
0

>  <a_nC>
6

>  <a_nCl>
2

>  <a_nF>
0

>  <a_nH>
3

>  <a_nI>
0

>  <a_nN>
1

>  <a_nO>
2

>  <a_nP>
0

>  <a_nS>
0

>  <balabanJ>
2.5185201

>  <BCUT_PEOE_0>
-2.0756235

>  <BCUT_PEOE_1>
-0.60593766

>  <BCUT_PEOE_2>
0.64818728

>  <BCUT_PEOE_3>
2.1626828

>  <BCUT_SLOGP_0>
-2.0850563

>  <BCUT_SLOGP_1>
-0.44293955

>  <BCUT_SLOGP_2>
0.85075301

>  <BCUT_SLOGP_3>
2.2650404

>  <BCUT_SMR_0>
-1.7773837

>  <BCUT_SMR_1>
-0.36521316

>  <BCUT_SMR_2>
0.90589893

>  <BCUT_SMR_3>
2.4524808

>  <bpol>
6.3976212

>  <b_1rotN>
1

>  <b_1rotR>
0.090909094

>  <b_ar>
6

>  <b_count>
14

>  <b_double>
1

>  <b_heavy>
11

>  <b_rotN>
1

>  <b_rotR>
0.090909094

>  <b_single>
7

>  <b_triple>
0

>  <chi0>
8.4307213

>  <chi0v>
6.725163

>  <chi0v_C>
3.1547005

>  <chi0_C>
3.7236147

>  <chi1>
5.1090608

>  <chi1v>
3.4195216

>  <chi1v_C>
1.4106836

>  <chi1_C>
1.9831632

>  <chiral>
0

>  <chiral_u>
0

>  <density>
1.076533

>  <diameter>
5

>  <FCharge>
0

>  <GCUT_PEOE_0>
-0.69662625

>  <GCUT_PEOE_1>
-0.45336583

>  <GCUT_PEOE_2>
0.11278113

>  <GCUT_PEOE_3>
1.8985933

>  <GCUT_SLOGP_0>
-0.85532469

>  <GCUT_SLOGP_1>
-0.31724209

>  <GCUT_SLOGP_2>
0.32660338

>  <GCUT_SLOGP_3>
2.0199103

>  <GCUT_SMR_0>
-0.40255097

>  <GCUT_SMR_1>
-0.19728997

>  <GCUT_SMR_2>
0.37303048

>  <GCUT_SMR_3>
2.199053

>  <Kier1>
9.090909

>  <Kier2>
3.5999999

>  <Kier3>
2.2145329

>  <KierA1>
8.551239

>  <KierA2>
3.3638031

>  <KierA3>
2.0570023

>  <KierFlex>
2.6149712

>  <lip_acc>
3

>  <lip_don>
1

>  <lip_druglike>
1

>  <lip_violation>
0

>  <logP(o/w)>
1.899

>  <logS>
-2.0288999

>  <mr>
4.2134848

>  <mutagenic>
0

>  <nmol>
1

>  <opr_brigid>
6

>  <opr_leadlike>
1

>  <opr_nring>
1

>  <opr_nrot>
1

>  <opr_violation>
0

>  <PC+>
0

>  <PC->
0

>  <PEOE_PC+>
0.76694351

>  <PEOE_PC->
-0.76694351

>  <PEOE_RPC+>
0.44657096

>  <PEOE_RPC->
0.33236814

>  <PEOE_VSA+0>
31.616989

>  <PEOE_VSA+1>
4.5197463

>  <PEOE_VSA+2>
9.0107584

>  <PEOE_VSA+3>
6.6995511

>  <PEOE_VSA+4>
0

>  <PEOE_VSA+5>
0

>  <PEOE_VSA+6>
14.708499

>  <PEOE_VSA-0>
0

>  <PEOE_VSA-1>
59.163895

>  <PEOE_VSA-2>
13.566921

>  <PEOE_VSA-3>
0

>  <PEOE_VSA-4>
5.6825762

>  <PEOE_VSA-5>
13.566921

>  <PEOE_VSA-6>
0

>  <PEOE_VSA_FHYD>
0.78580242

>  <PEOE_VSA_FNEG>
0.58018619

>  <PEOE_VSA_FPNEG>
0.12142047

>  <PEOE_VSA_FPOL>
0.21419758

>  <PEOE_VSA_FPOS>
0.41981381

>  <PEOE_VSA_FPPOS>
0.092777118

>  <PEOE_VSA_HYD>
124.57786

>  <PEOE_VSA_NEG>
91.980309

>  <PEOE_VSA_PNEG>
19.249496

>  <PEOE_VSA_POL>
33.957996

>  <PEOE_VSA_POS>
66.555542

>  <PEOE_VSA_PPOS>
14.708499

>  <petitjean>
0.40000001

>  <petitjeanSC>
0.66666669

>  <Q_PC+>
0

>  <Q_PC->
0

>  <Q_RPC+>
0

>  <Q_RPC->
0

>  <Q_VSA_FHYD>
1

>  <Q_VSA_FNEG>
0

>  <Q_VSA_FPNEG>
0

>  <Q_VSA_FPOL>
0

>  <Q_VSA_FPOS>
1

>  <Q_VSA_FPPOS>
0

>  <Q_VSA_HYD>
158.53586

>  <Q_VSA_NEG>
0

>  <Q_VSA_PNEG>
0

>  <Q_VSA_POL>
0

>  <Q_VSA_POS>
158.53586

>  <Q_VSA_PPOS>
0

>  <radius>
3

>  <reactive>
0

>  <rings>
1

>  <RPC+>
0

>  <RPC->
0

>  <rsynth>
1

>  <SlogP>
2.0866001

>  <SlogP_VSA0>
0

>  <SlogP_VSA1>
24.530994

>  <SlogP_VSA2>
0

>  <SlogP_VSA3>
25.385227

>  <SlogP_VSA4>
26.618963

>  <SlogP_VSA5>
0

>  <SlogP_VSA6>
6.5723858

>  <SlogP_VSA7>
35.286369

>  <SlogP_VSA8>
0

>  <SlogP_VSA9>
78.297287

>  <SMR>
4.1216302

>  <SMR_VSA0>
23.862217

>  <SMR_VSA1>
16.78553

>  <SMR_VSA2>
25.385227

>  <SMR_VSA3>
9.329133

>  <SMR_VSA4>
0

>  <SMR_VSA5>
35.286369

>  <SMR_VSA6>
7.7454643

>  <SMR_VSA7>
78.297287

>  <TPSA>
50.189999

>  <VAdjEq>
0.68403846

>  <VAdjMa>
4.4594316

>  <VDistEq>
2.2397416

>  <VDistMa>
6.6242061

>  <vdw_area>
158.53586

>  <vdw_vol>
175.54222

>  <vsa_acc>
5.6825762

>  <vsa_acid>
0

>  <vsa_base>
0

>  <vsa_don>
0

>  <vsa_hyd>
102.00018

>  <vsa_other>
23.719257

>  <vsa_pol>
32.816418

>  <Weight>
192.00099

>  <weinerPath>
148

>  <weinerPol>
14

>  <zagreb>
52

$$$$
OC1=C(C=C(C=C1)Cl)CC2=CC=CC=C2
  MOE2011           2D

 15 16  0  0  0  0  0  0  0  0999 V2000
    0.0000    0.0000    0.0000 O   0  0  0  0  0  0  0  0  0  0  0  0
   -0.0110   -1.5000    0.0000 C   0  0  0  0  0  0  0  0  0  0  0  0
    1.2830   -2.2590    0.0000 C   0  0  0  0  0  0  0  0  0  0  0  0
    1.2720   -3.7590    0.0000 C   0  0  0  0  0  0  0  0  0  0  0  0
   -0.0320   -4.5000    0.0000 C   0  0  0  0  0  0  0  0  0  0  0  0
   -1.3260   -3.7410    0.0000 C   0  0  0  0  0  0  0  0  0  0  0  0
   -1.3150   -2.2410    0.0000 C   0  0  0  0  0  0  0  0  0  0  0  0
   -0.0430   -6.0000    0.0000 Cl  0  0  0  0  0  0  0  0  0  0  0  0
    2.5870   -1.5190    0.0000 C   0  0  0  0  0  0  0  0  0  0  0  0
    3.8810   -2.2780    0.0000 C   0  0  0  0  0  0  0  0  0  0  0  0
    5.1850   -1.5370    0.0000 C   0  0  0  0  0  0  0  0  0  0  0  0
    6.4790   -2.2960    0.0000 C   0  0  0  0  0  0  0  0  0  0  0  0
    6.4680   -3.7960    0.0000 C   0  0  0  0  0  0  0  0  0  0  0  0
    5.1640   -4.5370    0.0000 C   0  0  0  0  0  0  0  0  0  0  0  0
    3.8700   -3.7780    0.0000 C   0  0  0  0  0  0  0  0  0  0  0  0
  1  2  1  0  0  0  0
  2  3  1  0  0  0  0
  2  7  2  0  0  0  0
  3  4  2  0  0  0  0
  3  9  1  0  0  0  0
  4  5  1  0  0  0  0
  5  6  2  0  0  0  0
  5  8  1  0  0  0  0
  6  7  1  0  0  0  0
  9 10  1  0  0  0  0
 10 11  1  0  0  0  0
 10 15  2  0  0  0  0
 11 12  2  0  0  0  0
 12 13  1  0  0  0  0
 13 14  2  0  0  0  0
 14 15  1  0  0  0  0
M  END
>  <DSSTox_RID>
40311

>  <DSSTox_CID>
154

>  <apol>
33.196724

>  <a_acc>
1

>  <a_acid>
0

>  <a_aro>
12

>  <a_base>
0

>  <a_count>
26

>  <a_don>
1

>  <a_heavy>
15

>  <a_hyd>
14

>  <a_IC>
36.051968

>  <a_ICM>
1.3866142

>  <a_nB>
0

>  <a_nBr>
0

>  <a_nC>
13

>  <a_nCl>
1

>  <a_nF>
0

>  <a_nH>
11

>  <a_nI>
0

>  <a_nN>
0

>  <a_nO>
1

>  <a_nP>
0

>  <a_nS>
0

>  <balabanJ>
1.8185496

>  <BCUT_PEOE_0>
-2.3563011

>  <BCUT_PEOE_1>
-0.61804223

>  <BCUT_PEOE_2>
0.65920126

>  <BCUT_PEOE_3>
2.3285735

>  <BCUT_SLOGP_0>
-2.2402992

>  <BCUT_SLOGP_1>
-0.49820796

>  <BCUT_SLOGP_2>
0.79849184

>  <BCUT_SLOGP_3>
2.4739943

>  <BCUT_SMR_0>
-2.058548

>  <BCUT_SMR_1>
-0.46364644

>  <BCUT_SMR_2>
0.85209215

>  <BCUT_SMR_3>
2.6328104

>  <bpol>
12.445277

>  <b_1rotN>
2

>  <b_1rotR>
0.125

>  <b_ar>
12

>  <b_count>
27

>  <b_double>
0

>  <b_heavy>
16

>  <b_rotN>
2

>  <b_rotR>
0.125

>  <b_single>
15

>  <b_triple>
0

>  <chi0>
10.673362

>  <chi0v>
8.9070158

>  <chi0v_C>
7.3259091

>  <chi0_C>
8.6733618

>  <chi1>
7.2540202

>  <chi1v>
5.1463776

>  <chi1v_C>
4.3558245

>  <chi1_C>
6.0993195

>  <chiral>
0

>  <chiral_u>
0

>  <density>
0.80198926

>  <diameter>
8

>  <FCharge>
0

>  <GCUT_PEOE_0>
-0.76440537

>  <GCUT_PEOE_1>
-0.3808077

>  <GCUT_PEOE_2>
0.072464831

>  <GCUT_PEOE_3>
2.2918596

>  <GCUT_SLOGP_0>
-0.76212782

>  <GCUT_SLOGP_1>
-0.25024396

>  <GCUT_SLOGP_2>
0.16504809

>  <GCUT_SLOGP_3>
2.4647534

>  <GCUT_SMR_0>
-0.46645942

>  <GCUT_SMR_1>
-0.20412947

>  <GCUT_SMR_2>
0.25645423

>  <GCUT_SMR_3>
2.5943682

>  <Kier1>
11.484375

>  <Kier2>
5.3650794

>  <Kier3>
3.2256

>  <KierA1>
9.0271006

>  <KierA2>
4.1381459

>  <KierA3>
2.4496038

>  <KierFlex>
2.4903641

>  <lip_acc>
1

>  <lip_don>
1

>  <lip_druglike>
1

>  <lip_violation>
0

>  <logP(o/w)>
4.2729998

>  <logS>
-3.5601499

>  <mr>
6.3414221

>  <mutagenic>
0

>  <nmol>
1

>  <opr_brigid>
12

>  <opr_leadlike>
1

>  <opr_nring>
2

>  <opr_nrot>
2

>  <opr_violation>
0

>  <PC+>
0

>  <PC->
0

>  <PEOE_PC+>
0.29876262

>  <PEOE_PC->
-0.29876262

>  <PEOE_RPC+>
0.4259384

>  <PEOE_RPC->
0.63688016

>  <PEOE_VSA+0>
49.634022

>  <PEOE_VSA+1>
20.328241

>  <PEOE_VSA+2>
8.458519

>  <PEOE_VSA+3>
0

>  <PEOE_VSA+4>
0

>  <PEOE_VSA+5>
0

>  <PEOE_VSA+6>
0

>  <PEOE_VSA-0>
81.251015

>  <PEOE_VSA-1>
29.581947

>  <PEOE_VSA-2>
0

>  <PEOE_VSA-3>
13.566921

>  <PEOE_VSA-4>
0

>  <PEOE_VSA-5>
0

>  <PEOE_VSA-6>
0

>  <PEOE_VSA_FHYD>
1

>  <PEOE_VSA_FNEG>
0.61334914

>  <PEOE_VSA_FPNEG>
0

>  <PEOE_VSA_FPOL>
0

>  <PEOE_VSA_FPOS>
0.38665086

>  <PEOE_VSA_FPPOS>
0

>  <PEOE_VSA_HYD>
202.82066

>  <PEOE_VSA_NEG>
124.39988

>  <PEOE_VSA_PNEG>
0

>  <PEOE_VSA_POL>
0

>  <PEOE_VSA_POS>
78.420784

>  <PEOE_VSA_PPOS>
0

>  <petitjean>
0.5

>  <petitjeanSC>
1

>  <Q_PC+>
0

>  <Q_PC->
0

>  <Q_RPC+>
0

>  <Q_RPC->
0

>  <Q_VSA_FHYD>
1

>  <Q_VSA_FNEG>
0

>  <Q_VSA_FPNEG>
0

>  <Q_VSA_FPOL>
0

>  <Q_VSA_FPOS>
1

>  <Q_VSA_FPPOS>
0

>  <Q_VSA_HYD>
202.82066

>  <Q_VSA_NEG>
0

>  <Q_VSA_PNEG>
0

>  <Q_VSA_POL>
0

>  <Q_VSA_POS>
202.82066

>  <Q_VSA_PPOS>
0

>  <radius>
4

>  <reactive>
0

>  <rings>
2

>  <RPC+>
0

>  <RPC->
0

>  <rsynth>
1

>  <SlogP>
3.6363699

>  <SlogP_VSA0>
25.385227

>  <SlogP_VSA1>
0

>  <SlogP_VSA2>
0

>  <SlogP_VSA3>
0

>  <SlogP_VSA4>
6.37115

>  <SlogP_VSA5>
18.868406

>  <SlogP_VSA6>
3.5006065

>  <SlogP_VSA7>
141.14548

>  <SlogP_VSA8>
0

>  <SlogP_VSA9>
44.392071

>  <SMR>
6.2364802

>  <SMR_VSA0>
0

>  <SMR_VSA1>
25.385227

>  <SMR_VSA2>
0

>  <SMR_VSA3>
15.115185

>  <SMR_VSA4>
0

>  <SMR_VSA5>
160.01389

>  <SMR_VSA6>
0

>  <SMR_VSA7>
39.148643

>  <TPSA>
20.23

>  <VAdjEq>
0.59002918

>  <VAdjMa>
5

>  <VDistEq>
2.8263764

>  <VDistMa>
7.5025716

>  <vdw_area>
202.82066

>  <vdw_vol>
258.8501

>  <vsa_acc>
0

>  <vsa_acid>
0

>  <vsa_base>
0

>  <vsa_don>
0

>  <vsa_hyd>
189.25374

>  <vsa_other>
0

>  <vsa_pol>
13.566921

>  <Weight>
218.683

>  <weinerPath>
378

>  <weinerPol>
19

>  <zagreb>
74

$$$$
CC1=C(Cl)C(=O)OC2=C1C=CC(=C2)OP(=S)(OCC)OCC
  MOE2011           2D

 22 23  0  0  0  0  0  0  0  0999 V2000
    0.0000    0.0000    0.0000 C   0  0  0  0  0  0  0  0  0  0  0  0
    0.7470   -1.3010    0.0000 C   0  0  0  0  0  0  0  0  0  0  0  0
   -0.0060   -2.5980    0.0000 C   0  0  0  0  0  0  0  0  0  0  0  0
   -1.5060   -2.5950    0.0000 Cl  0  0  0  0  0  0  0  0  0  0  0  0
    0.7410   -3.8990    0.0000 C   0  0  0  0  0  0  0  0  0  0  0  0
   -0.0120   -5.1960    0.0000 O   0  0  0  0  0  0  0  0  0  0  0  0
    2.2410   -3.9020    0.0000 O   0  0  0  0  0  0  0  0  0  0  0  0
    2.9940   -2.6050    0.0000 C   0  0  0  0  0  0  0  0  0  0  0  0
    2.2470   -1.3040    0.0000 C   0  0  0  0  0  0  0  0  0  0  0  0
    3.0000   -0.0070    0.0000 C   0  0  0  0  0  0  0  0  0  0  0  0
    4.5000   -0.0100    0.0000 C   0  0  0  0  0  0  0  0  0  0  0  0
    5.2470   -1.3110    0.0000 C   0  0  0  0  0  0  0  0  0  0  0  0
    4.4940   -2.6080    0.0000 C   0  0  0  0  0  0  0  0  0  0  0  0
    6.7470   -1.3140    0.0000 O   0  0  0  0  0  0  0  0  0  0  0  0
    7.5000   -0.0170    0.0000 P   0  0  0  0  0  0  0  0  0  0  0  0
    6.2030    0.7360    0.0000 S   0  0  0  0  0  0  0  0  0  0  0  0
    8.2530    1.2810    0.0000 O   0  0  0  0  0  0  0  0  0  0  0  0
    7.5060    2.5810    0.0000 C   0  0  0  0  0  0  0  0  0  0  0  0
    8.2590    3.8790    0.0000 C   0  0  0  0  0  0  0  0  0  0  0  0
    8.7970   -0.7700    0.0000 O   0  0  0  0  0  0  0  0  0  0  0  0
   10.0980   -0.0230    0.0000 C   0  0  0  0  0  0  0  0  0  0  0  0
   11.3950   -0.7760    0.0000 C   0  0  0  0  0  0  0  0  0  0  0  0
  1  2  1  0  0  0  0
  2  3  2  0  0  0  0
  2  9  1  0  0  0  0
  3  4  1  0  0  0  0
  3  5  1  0  0  0  0
  5  6  2  0  0  0  0
  5  7  1  0  0  0  0
  7  8  1  0  0  0  0
  8  9  1  0  0  0  0
  8 13  2  0  0  0  0
  9 10  2  0  0  0  0
 10 11  1  0  0  0  0
 11 12  2  0  0  0  0
 12 13  1  0  0  0  0
 12 14  1  0  0  0  0
 14 15  1  0  0  0  0
 15 16  2  0  0  0  0
 15 17  1  0  0  0  0
 15 20  1  0  0  0  0
 17 18  1  0  0  0  0
 18 19  1  0  0  0  0
 20 21  1  0  0  0  0
 21 22  1  0  0  0  0
M  END
>  <DSSTox_RID>
40396

>  <DSSTox_CID>
347

>  <apol>
48.028687

>  <a_acc>
4

>  <a_acid>
0

>  <a_aro>
6

>  <a_base>
0

>  <a_count>
38

>  <a_don>
0

>  <a_heavy>
22

>  <a_hyd>
14

>  <a_IC>
70.508636

>  <a_ICM>
1.8554904

>  <a_nB>
0

>  <a_nBr>
0

>  <a_nC>
14

>  <a_nCl>
1

>  <a_nF>
0

>  <a_nH>
16

>  <a_nI>
0

>  <a_nN>
0

>  <a_nO>
5

>  <a_nP>
1

>  <a_nS>
1

>  <balabanJ>
1.9680723

>  <BCUT_PEOE_0>
-2.4585116

>  <BCUT_PEOE_1>
-0.49107665

>  <BCUT_PEOE_2>
0.37787566

>  <BCUT_PEOE_3>
2.49909

>  <BCUT_SLOGP_0>
-2.4137077

>  <BCUT_SLOGP_1>
-0.3790549

>  <BCUT_SLOGP_2>
0.5574311

>  <BCUT_SLOGP_3>
2.67149

>  <BCUT_SMR_0>
-2.2090905

>  <BCUT_SMR_1>
-0.21087739

>  <BCUT_SMR_2>
0.677854

>  <BCUT_SMR_3>
2.7997787

>  <bpol>
32.873314

>  <b_1rotN>
6

>  <b_1rotR>
0.26086956

>  <b_ar>
6

>  <b_count>
39

>  <b_double>
2

>  <b_heavy>
23

>  <b_rotN>
6

>  <b_rotR>
0.26086956

>  <b_single>
31

>  <b_triple>
0

>  <chi0>
16.328062

>  <chi0v>
14.887785

>  <chi0v_C>
9.1462641

>  <chi0_C>
9.9996357

>  <chi1>
10.397996

>  <chi1v>
9.6493759

>  <chi1v_C>
4.4022474

>  <chi1_C>
5.4578905

>  <chiral>
0

>  <chiral_u>
0

>  <density>
0.9463594

>  <diameter>
11

>  <FCharge>
0

>  <GCUT_PEOE_0>
-0.73090208

>  <GCUT_PEOE_1>
-0.42781663

>  <GCUT_PEOE_2>
-0.064176247

>  <GCUT_PEOE_3>
2.4429963

>  <GCUT_SLOGP_0>
-0.91118622

>  <GCUT_SLOGP_1>
-0.27508146

>  <GCUT_SLOGP_2>
0.12725499

>  <GCUT_SLOGP_3>
2.6071131

>  <GCUT_SMR_0>
-0.51723373

>  <GCUT_SMR_1>
-0.1596

>  <GCUT_SMR_2>
0.21531354

>  <GCUT_SMR_3>
2.7371888

>  <Kier1>
18.340265

>  <Kier2>
7.7134986

>  <Kier3>
4.3083901

>  <KierA1>
18.756224

>  <KierA2>
7.8971219

>  <KierA3>
4.414464

>  <KierFlex>
6.7327356

>  <lip_acc>
5

>  <lip_don>
0

>  <lip_druglike>
1

>  <lip_violation>
0

>  <logP(o/w)>
4.217

>  <logS>
-5.70962

>  <mr>
9.0837727

>  <mutagenic>
0

>  <nmol>
1

>  <opr_brigid>
11

>  <opr_leadlike>
1

>  <opr_nring>
2

>  <opr_nrot>
6

>  <opr_violation>
0

>  <PC+>
0

>  <PC->
0

>  <PEOE_PC+>
1.6505139

>  <PEOE_PC->
-1.6505139

>  <PEOE_RPC+>
0.20173143

>  <PEOE_RPC->
0.27733684

>  <PEOE_VSA+0>
122.05088

>  <PEOE_VSA+1>
15.808495

>  <PEOE_VSA+2>
12.978266

>  <PEOE_VSA+3>
8.458519

>  <PEOE_VSA+4>
44.116947

>  <PEOE_VSA+5>
0

>  <PEOE_VSA+6>
30.298708

>  <PEOE_VSA-0>
2.2085397

>  <PEOE_VSA-1>
29.581947

>  <PEOE_VSA-2>
0

>  <PEOE_VSA-3>
4.6659718

>  <PEOE_VSA-4>
9.3319435

>  <PEOE_VSA-5>
16.070677

>  <PEOE_VSA-6>
33.008488

>  <PEOE_VSA_FHYD>
0.59575438

>  <PEOE_VSA_FNEG>
0.2887204

>  <PEOE_VSA_FPNEG>
0.17776863

>  <PEOE_VSA_FPOL>
0.40424559

>  <PEOE_VSA_FPOS>
0.71127963

>  <PEOE_VSA_FPPOS>
0.22647695

>  <PEOE_VSA_HYD>
195.75261

>  <PEOE_VSA_NEG>
94.867569

>  <PEOE_VSA_PNEG>
58.411106

>  <PEOE_VSA_POL>
132.82677

>  <PEOE_VSA_POS>
233.71181

>  <PEOE_VSA_PPOS>
74.415657

>  <petitjean>
0.45454547

>  <petitjeanSC>
0.83333331

>  <Q_PC+>
0

>  <Q_PC->
0

>  <Q_RPC+>
0

>  <Q_RPC->
0

>  <Q_VSA_FHYD>
1

>  <Q_VSA_FNEG>
0

>  <Q_VSA_FPNEG>
0

>  <Q_VSA_FPOL>
0

>  <Q_VSA_FPOS>
1

>  <Q_VSA_FPPOS>
0

>  <Q_VSA_HYD>
328.57938

>  <Q_VSA_NEG>
0

>  <Q_VSA_PNEG>
0

>  <Q_VSA_POL>
0

>  <Q_VSA_POS>
328.57938

>  <Q_VSA_PPOS>
0

>  <radius>
6

>  <reactive>
0

>  <rings>
2

>  <RPC+>
0

>  <RPC->
0

>  <rsynth>
1

>  <SlogP>
4.2516999

>  <SlogP_VSA0>
17.921518

>  <SlogP_VSA1>
7.7454643

>  <SlogP_VSA2>
80.399452

>  <SlogP_VSA3>
41.852516

>  <SlogP_VSA4>
3.185575

>  <SlogP_VSA5>
3.5006065

>  <SlogP_VSA6>
0

>  <SlogP_VSA7>
56.115128

>  <SlogP_VSA8>
0

>  <SlogP_VSA9>
162.54068

>  <SMR>
8.8689003

>  <SMR_VSA0>
37.705479

>  <SMR_VSA1>
17.921518

>  <SMR_VSA2>
0

>  <SMR_VSA3>
17.173038

>  <SMR_VSA4>
3.185575

>  <SMR_VSA5>
52.929554

>  <SMR_VSA6>
49.59798

>  <SMR_VSA7>
194.7478

>  <TPSA>
86.080002

>  <VAdjEq>
0.4530769

>  <VAdjMa>
5.523562

>  <VDistEq>
3.2564411

>  <VDistMa>
8.6225843

>  <vdw_area>
328.57938

>  <vdw_vol>
366.29001

>  <vsa_acc>
27.564837

>  <vsa_acid>
0

>  <vsa_base>
0

>  <vsa_don>
0

>  <vsa_hyd>
235.2036

>  <vsa_other>
65.810951

>  <vsa_pol>
27.564837

>  <Weight>
362.76999

>  <weinerPath>
1075

>  <weinerPol>
36

>  <zagreb>
112

$$$$
Clc1nc(NCC)nc(NC(C)(C)C#N)n1
  MOE2011           2D

 16 16  0  0  0  0  0  0  0  0999 V2000
    0.0000    0.0000    0.0000 Cl  0  0  0  0  0  0  0  0  0  0  0  0
    0.0110   -1.5000    0.0000 C   0  0  0  0  0  0  0  0  0  0  0  0
    1.3150   -2.2410    0.0000 N   0  0  0  0  0  0  0  0  0  0  0  0
    1.3250   -3.7410    0.0000 C   0  0  0  0  0  0  0  0  0  0  0  0
    2.6300   -4.4820    0.0000 N   0  0  0  0  0  0  0  0  0  0  0  0
    3.9230   -3.7220    0.0000 C   0  0  0  0  0  0  0  0  0  0  0  0
    5.2280   -4.4630    0.0000 C   0  0  0  0  0  0  0  0  0  0  0  0
    0.0320   -4.5000    0.0000 N   0  0  0  0  0  0  0  0  0  0  0  0
   -1.2730   -3.7590    0.0000 C   0  0  0  0  0  0  0  0  0  0  0  0
   -2.5660   -4.5180    0.0000 N   0  0  0  0  0  0  0  0  0  0  0  0
   -3.8710   -3.7770    0.0000 C   0  0  0  0  0  0  0  0  0  0  0  0
   -4.6110   -5.0820    0.0000 C   0  0  0  0  0  0  0  0  0  0  0  0
   -3.1300   -2.4730    0.0000 C   0  0  0  0  0  0  0  0  0  0  0  0
   -5.1750   -3.0370    0.0000 C   0  0  0  0  0  0  0  0  0  0  0  0
   -6.4790   -2.2960    0.0000 N   0  0  0  0  0  0  0  0  0  0  0  0
   -1.2830   -2.2590    0.0000 N   0  0  0  0  0  0  0  0  0  0  0  0
  1  2  1  0  0  0  0
  2  3  1  0  0  0  0
  2 16  2  0  0  0  0
  3  4  2  0  0  0  0
  4  5  1  0  0  0  0
  4  8  1  0  0  0  0
  5  6  1  0  0  0  0
  6  7  1  0  0  0  0
  8  9  2  0  0  0  0
  9 10  1  0  0  0  0
  9 16  1  0  0  0  0
 10 11  1  0  0  0  0
 11 12  1  0  0  0  0
 11 13  1  0  0  0  0
 11 14  1  0  0  0  0
 14 15  3  0  0  0  0
M  END
>  <DSSTox_RID>
40398

>  <DSSTox_CID>
3990

>  <apol>
33.288307

>  <a_acc>
4

>  <a_acid>
0

>  <a_aro>
6

>  <a_base>
0

>  <a_count>
29

>  <a_don>
2

>  <a_heavy>
16

>  <a_hyd>
6

>  <a_IC>
48.736633

>  <a_ICM>
1.6805736

>  <a_nB>
0

>  <a_nBr>
0

>  <a_nC>
9

>  <a_nCl>
1

>  <a_nF>
0

>  <a_nH>
13

>  <a_nI>
0

>  <a_nN>
6

>  <a_nO>
0

>  <a_nP>
0

>  <a_nS>
0

>  <balabanJ>
2.4849424

>  <BCUT_PEOE_0>
-2.5255778

>  <BCUT_PEOE_1>
-0.40895259

>  <BCUT_PEOE_2>
0.36380333

>  <BCUT_PEOE_3>
2.5416803

>  <BCUT_SLOGP_0>
-2.5993154

>  <BCUT_SLOGP_1>
-0.39784896

>  <BCUT_SLOGP_2>
0.43768761

>  <BCUT_SLOGP_3>
2.5184305

>  <BCUT_SMR_0>
-2.2835371

>  <BCUT_SMR_1>
-0.16686037

>  <BCUT_SMR_2>
0.61050582

>  <BCUT_SMR_3>
2.7838466

>  <bpol>
20.571692

>  <b_1rotN>
4

>  <b_1rotR>
0.25

>  <b_ar>
6

>  <b_count>
29

>  <b_double>
0

>  <b_heavy>
16

>  <b_rotN>
5

>  <b_rotR>
0.3125

>  <b_single>
22

>  <b_triple>
1

>  <chi0>
12.181798

>  <chi0v>
10.129854

>  <chi0v_C>
6.2071066

>  <chi0_C>
6.6462646

>  <chi1>
7.4646568

>  <chi1v>
5.1928544

>  <chi1v_C>
1.9571068

>  <chi1_C>
2.0606601

>  <chiral>
0

>  <chiral_u>
0

>  <density>
0.88378704

>  <diameter>
9

>  <FCharge>
0

>  <GCUT_PEOE_0>
-0.80028707

>  <GCUT_PEOE_1>
-0.39765543

>  <GCUT_PEOE_2>
0.005661129

>  <GCUT_PEOE_3>
2.2835677

>  <GCUT_SLOGP_0>
-0.98607314

>  <GCUT_SLOGP_1>
-0.37496114

>  <GCUT_SLOGP_2>
0.13836531

>  <GCUT_SLOGP_3>
2.3092854

>  <GCUT_SMR_0>
-0.50891691

>  <GCUT_SMR_1>
-0.15573899

>  <GCUT_SMR_2>
0.20485508

>  <GCUT_SMR_3>
2.5411067

>  <Kier1>
14.0625

>  <Kier2>
6.0743804

>  <Kier3>
4.8166351

>  <KierA1>
10.860487

>  <KierA2>
4.6033001

>  <KierA3>
3.5984721

>  <KierFlex>
3.12463

>  <lip_acc>
6

>  <lip_don>
2

>  <lip_druglike>
1

>  <lip_violation>
0

>  <logP(o/w)>
0.15899999

>  <logS>
-3.9416299

>  <mr>
6.1326079

>  <mutagenic>
0

>  <nmol>
1

>  <opr_brigid>
6

>  <opr_leadlike>
1

>  <opr_nring>
1

>  <opr_nrot>
5

>  <opr_violation>
0

>  <PC+>
0

>  <PC->
0

>  <PEOE_PC+>
1.0968297

>  <PEOE_PC->
-1.0968297

>  <PEOE_RPC+>
0.20805858

>  <PEOE_RPC->
0.17734265

>  <PEOE_VSA+0>
88.225349

>  <PEOE_VSA+1>
40.59901

>  <PEOE_VSA+2>
0

>  <PEOE_VSA+3>
0

>  <PEOE_VSA+4>
44.864918

>  <PEOE_VSA+5>
0

>  <PEOE_VSA+6>
0

>  <PEOE_VSA-0>
29.581947

>  <PEOE_VSA-1>
0

>  <PEOE_VSA-2>
5.6825762

>  <PEOE_VSA-3>
40.472794

>  <PEOE_VSA-4>
0

>  <PEOE_VSA-5>
0

>  <PEOE_VSA-6>
0

>  <PEOE_VSA_FHYD>
0.82012779

>  <PEOE_VSA_FNEG>
0.3036457

>  <PEOE_VSA_FPNEG>
0

>  <PEOE_VSA_FPOL>
0.17987223

>  <PEOE_VSA_FPOS>
0.69635427

>  <PEOE_VSA_FPPOS>
0.17987223

>  <PEOE_VSA_HYD>
204.56168

>  <PEOE_VSA_NEG>
75.73732

>  <PEOE_VSA_PNEG>
0

>  <PEOE_VSA_POL>
44.864918

>  <PEOE_VSA_POS>
173.68929

>  <PEOE_VSA_PPOS>
44.864918

>  <petitjean>
0.44444445

>  <petitjeanSC>
0.80000001

>  <Q_PC+>
0

>  <Q_PC->
0

>  <Q_RPC+>
0

>  <Q_RPC->
0

>  <Q_VSA_FHYD>
1

>  <Q_VSA_FNEG>
0

>  <Q_VSA_FPNEG>
0

>  <Q_VSA_FPOL>
0

>  <Q_VSA_FPOS>
1

>  <Q_VSA_FPPOS>
0

>  <Q_VSA_HYD>
249.42659

>  <Q_VSA_NEG>
0

>  <Q_VSA_PNEG>
0

>  <Q_VSA_POL>
0

>  <Q_VSA_POS>
249.42659

>  <Q_VSA_PPOS>
0

>  <radius>
5

>  <reactive>
0

>  <rings>
1

>  <RPC+>
0

>  <RPC->
0

>  <rsynth>
1

>  <SlogP>
1.670884

>  <SlogP_VSA0>
0

>  <SlogP_VSA1>
86.37809

>  <SlogP_VSA2>
0

>  <SlogP_VSA3>
66.100677

>  <SlogP_VSA4>
0

>  <SlogP_VSA5>
0

>  <SlogP_VSA6>
2.6429517

>  <SlogP_VSA7>
0

>  <SlogP_VSA8>
0

>  <SlogP_VSA9>
142.92488

>  <SMR>
6.2315402

>  <SMR_VSA0>
0

>  <SMR_VSA1>
81.415947

>  <SMR_VSA2>
0

>  <SMR_VSA3>
19.244698

>  <SMR_VSA4>
39.819687

>  <SMR_VSA5>
0

>  <SMR_VSA6>
18.439579

>  <SMR_VSA7>
139.12669

>  <TPSA>
86.519997

>  <VAdjEq>
0.54356444

>  <VAdjMa>
5

>  <VDistEq>
2.9109612

>  <VDistMa>
7.7022138

>  <vdw_area>
249.42659

>  <vdw_vol>
257.5213

>  <vsa_acc>
34.790218

>  <vsa_acid>
0

>  <vsa_base>
0

>  <vsa_don>
11.365152

>  <vsa_hyd>
138.1068

>  <vsa_other>
65.164421

>  <vsa_pol>
46.155369

>  <Weight>
240.698

>  <weinerPath>
456

>  <weinerPol>
20

>  <zagreb>
76

$$$$
O=S(N1C(C#N)=NC(Cl)=C1C2=CC=C(C)C=C2)(N(C)C)=O
  MOE2011           2D

 21 22  0  0  0  0  0  0  0  0999 V2000
    0.0000    0.0000    0.0000 O   0  0  0  0  0  0  0  0  0  0  0  0
    1.5000    0.0000    0.0000 S   0  0  0  0  0  0  0  0  0  0  0  0
    1.5000    1.5000    0.0000 N   0  0  0  0  0  0  0  0  0  0  0  0
    2.7130    2.3820    0.0000 C   0  0  0  0  0  0  0  0  0  0  0  0
    4.1400    1.9190    0.0000 C   0  0  0  0  0  0  0  0  0  0  0  0
    5.5670    1.4550    0.0000 N   0  0  0  0  0  0  0  0  0  0  0  0
    2.2490    3.8090    0.0000 N   0  0  0  0  0  0  0  0  0  0  0  0
    0.7490    3.8080    0.0000 C   0  0  0  0  0  0  0  0  0  0  0  0
   -0.1320    5.0220    0.0000 Cl  0  0  0  0  0  0  0  0  0  0  0  0
    0.2860    2.3820    0.0000 C   0  0  0  0  0  0  0  0  0  0  0  0
   -1.1400    1.9180    0.0000 C   0  0  0  0  0  0  0  0  0  0  0  0
   -1.4520    0.4510    0.0000 C   0  0  0  0  0  0  0  0  0  0  0  0
   -2.8790   -0.0130    0.0000 C   0  0  0  0  0  0  0  0  0  0  0  0
   -3.9930    0.9910    0.0000 C   0  0  0  0  0  0  0  0  0  0  0  0
   -5.4200    0.5270    0.0000 C   0  0  0  0  0  0  0  0  0  0  0  0
   -3.6820    2.4580    0.0000 C   0  0  0  0  0  0  0  0  0  0  0  0
   -2.2550    2.9220    0.0000 C   0  0  0  0  0  0  0  0  0  0  0  0
    1.5000   -1.5000    0.0000 N   0  0  0  0  0  0  0  0  0  0  0  0
    0.2010   -2.2500    0.0000 C   0  0  0  0  0  0  0  0  0  0  0  0
    2.7990   -2.2500    0.0000 C   0  0  0  0  0  0  0  0  0  0  0  0
    3.0000    0.0000    0.0000 O   0  0  0  0  0  0  0  0  0  0  0  0
  1  2  2  0  0  0  0
  2  3  1  0  0  0  0
  2 18  1  0  0  0  0
  2 21  2  0  0  0  0
  3  4  1  0  0  0  0
  3 10  1  0  0  0  0
  4  5  1  0  0  0  0
  4  7  2  0  0  0  0
  5  6  3  0  0  0  0
  7  8  1  0  0  0  0
  8  9  1  0  0  0  0
  8 10  2  0  0  0  0
 10 11  1  0  0  0  0
 11 12  1  0  0  0  0
 11 17  2  0  0  0  0
 12 13  2  0  0  0  0
 13 14  1  0  0  0  0
 14 15  1  0  0  0  0
 14 16  2  0  0  0  0
 16 17  1  0  0  0  0
 18 19  1  0  0  0  0
 18 20  1  0  0  0  0
M  END
>  <DSSTox_RID>
40399

>  <DSSTox_CID>
14492

>  <apol>
42.632309

>  <a_acc>
4

>  <a_acid>
0

>  <a_aro>
11

>  <a_base>
0

>  <a_count>
34

>  <a_don>
0

>  <a_heavy>
21

>  <a_hyd>
11

>  <a_IC>
66.762306

>  <a_ICM>
1.9635972

>  <a_nB>
0

>  <a_nBr>
0

>  <a_nC>
13

>  <a_nCl>
1

>  <a_nF>
0

>  <a_nH>
13

>  <a_nI>
0

>  <a_nN>
4

>  <a_nO>
2

>  <a_nP>
0

>  <a_nS>
1

>  <balabanJ>
2.2417121

>  <BCUT_PEOE_0>
-2.4543335

>  <BCUT_PEOE_1>
-0.38844886

>  <BCUT_PEOE_2>
0.24982101

>  <BCUT_PEOE_3>
2.5298493

>  <BCUT_SLOGP_0>
-2.6404455

>  <BCUT_SLOGP_1>
-0.3339

>  <BCUT_SLOGP_2>
0.35373589

>  <BCUT_SLOGP_3>
2.4410846

>  <BCUT_SMR_0>
-2.199723

>  <BCUT_SMR_1>
0.0011855419

>  <BCUT_SMR_2>
0.61035508

>  <BCUT_SMR_3>
2.8321762

>  <bpol>
27.047691

>  <b_1rotN>
3

>  <b_1rotR>
0.13636364

>  <b_ar>
11

>  <b_count>
35

>  <b_double>
0

>  <b_heavy>
22

>  <b_rotN>
4

>  <b_rotR>
0.18181819

>  <b_single>
23

>  <b_triple>
1

>  <chi0>
15.784093

>  <chi0v>
13.273391

>  <chi0v_C>
8.3094015

>  <chi0_C>
9.4222851

>  <chi1>
9.7849293

>  <chi1v>
7.7462201

>  <chi1v_C>
3.0713673

>  <chi1_C>
4.2852583

>  <chiral>
0

>  <chiral_u>
0

>  <density>
0.91098702

>  <diameter>
9

>  <FCharge>
0

>  <GCUT_PEOE_0>
-0.78255194

>  <GCUT_PEOE_1>
-0.38798448

>  <GCUT_PEOE_2>
-0.060450699

>  <GCUT_PEOE_3>
2.4643409

>  <GCUT_SLOGP_0>
-0.93625838

>  <GCUT_SLOGP_1>
-0.42295191

>  <GCUT_SLOGP_2>
0.043812178

>  <GCUT_SLOGP_3>
2.5266507

>  <GCUT_SMR_0>
-0.49705258

>  <GCUT_SMR_1>
-0.090513915

>  <GCUT_SMR_2>
0.19305076

>  <GCUT_SMR_3>
2.7713807

>  <Kier1>
17.355371

>  <Kier2>
6.6299357

>  <Kier3>
3.3471074

>  <KierA1>
14.838474

>  <KierA2>
5.6213713

>  <KierA3>
2.8198149

>  <KierFlex>
3.9720273

>  <lip_acc>
6

>  <lip_don>
0

>  <lip_druglike>
1

>  <lip_violation>
0

>  <logP(o/w)>
1.205

>  <logS>
-3.97647

>  <mr>
8.257431

>  <mutagenic>
0

>  <nmol>
1

>  <opr_brigid>
11

>  <opr_leadlike>
1

>  <opr_nring>
2

>  <opr_nrot>
3

>  <opr_violation>
0

>  <PC+>
0

>  <PC->
0

>  <PEOE_PC+>
0.892416

>  <PEOE_PC->
-0.892416

>  <PEOE_RPC+>
0.28478098

>  <PEOE_RPC->
0.4072319

>  <PEOE_VSA+0>
31.616989

>  <PEOE_VSA+1>
83.509232

>  <PEOE_VSA+2>
31.490068

>  <PEOE_VSA+3>
0

>  <PEOE_VSA+4>
0

>  <PEOE_VSA+5>
13.698418

>  <PEOE_VSA+6>
0

>  <PEOE_VSA-0>
97.459038

>  <PEOE_VSA-1>
29.581947

>  <PEOE_VSA-2>
0

>  <PEOE_VSA-3>
17.742489

>  <PEOE_VSA-4>
0

>  <PEOE_VSA-5>
0

>  <PEOE_VSA-6>
5.6825762

>  <PEOE_VSA_FHYD>
0.93763775

>  <PEOE_VSA_FNEG>
0.48415497

>  <PEOE_VSA_FPNEG>
0.018284839

>  <PEOE_VSA_FPOL>
0.062362269

>  <PEOE_VSA_FPOS>
0.515845

>  <PEOE_VSA_FPPOS>
0.04407743

>  <PEOE_VSA_HYD>
291.39978

>  <PEOE_VSA_NEG>
150.46605

>  <PEOE_VSA_PNEG>
5.6825762

>  <PEOE_VSA_POL>
19.380993

>  <PEOE_VSA_POS>
160.31471

>  <PEOE_VSA_PPOS>
13.698418

>  <petitjean>
0.44444445

>  <petitjeanSC>
0.80000001

>  <Q_PC+>
0

>  <Q_PC->
0

>  <Q_RPC+>
0

>  <Q_RPC->
0

>  <Q_VSA_FHYD>
1

>  <Q_VSA_FNEG>
0

>  <Q_VSA_FPNEG>
0

>  <Q_VSA_FPOL>
0

>  <Q_VSA_FPOS>
1

>  <Q_VSA_FPPOS>
0

>  <Q_VSA_HYD>
310.78076

>  <Q_VSA_NEG>
0

>  <Q_VSA_PNEG>
0

>  <Q_VSA_POL>
0

>  <Q_VSA_POS>
310.78076

>  <Q_VSA_PPOS>
0

>  <radius>
5

>  <reactive>
0

>  <rings>
2

>  <RPC+>
0

>  <RPC->
0

>  <rsynth>
1

>  <SlogP>
2.0381041

>  <SlogP_VSA0>
0

>  <SlogP_VSA1>
66.769119

>  <SlogP_VSA2>
6.4022179

>  <SlogP_VSA3>
47.661102

>  <SlogP_VSA4>
5.513495

>  <SlogP_VSA5>
65.794373

>  <SlogP_VSA6>
3.0717793

>  <SlogP_VSA7>
76.51506

>  <SlogP_VSA8>
0

>  <SlogP_VSA9>
72.474655

>  <SMR>
8.0129805

>  <SMR_VSA0>
48.171688

>  <SMR_VSA1>
49.656784

>  <SMR_VSA2>
0

>  <SMR_VSA3>
25.187021

>  <SMR_VSA4>
5.9423227

>  <SMR_VSA5>
70.572739

>  <SMR_VSA6>
0

>  <SMR_VSA7>
144.67125

>  <TPSA>
78.989998

>  <VAdjEq>
0.46827638

>  <VAdjMa>
5.4594316

>  <VDistEq>
2.93291

>  <VDistMa>
8.5327492

>  <vdw_area>
310.78076

>  <vdw_vol>
342.14319

>  <vsa_acc>
55.441589

>  <vsa_acid>
0

>  <vsa_base>
0

>  <vsa_don>
0

>  <vsa_hyd>
201.13992

>  <vsa_other>
54.199245

>  <vsa_pol>
55.441589

>  <Weight>
324.79199

>  <weinerPath>
840

>  <weinerPol>
36

>  <zagreb>
110

$$$$
O=C(NC2=CC=C(Cl)C=C2Cl)C1(C(O)=O)CC1
  MOE2011           2D

 17 18  0  0  0  0  0  0  0  0999 V2000
    0.0000    0.0000    0.0000 O   0  0  0  0  0  0  0  0  0  0  0  0
   -0.0090    1.5000    0.0000 C   0  0  0  0  0  0  0  0  0  0  0  0
    1.2850    2.2580    0.0000 N   0  0  0  0  0  0  0  0  0  0  0  0
    2.5890    1.5160    0.0000 C   0  0  0  0  0  0  0  0  0  0  0  0
    2.5980    0.0160    0.0000 C   0  0  0  0  0  0  0  0  0  0  0  0
    3.9020   -0.7260    0.0000 C   0  0  0  0  0  0  0  0  0  0  0  0
    5.1960    0.0310    0.0000 C   0  0  0  0  0  0  0  0  0  0  0  0
    6.5000   -0.7110    0.0000 Cl  0  0  0  0  0  0  0  0  0  0  0  0
    5.1870    1.5310    0.0000 C   0  0  0  0  0  0  0  0  0  0  0  0
    3.8830    2.2740    0.0000 C   0  0  0  0  0  0  0  0  0  0  0  0
    3.8740    3.7740    0.0000 Cl  0  0  0  0  0  0  0  0  0  0  0  0
   -1.3130    2.2420    0.0000 C   0  0  0  0  0  0  0  0  0  0  0  0
   -1.6920    0.7910    0.0000 C   0  0  0  0  0  0  0  0  0  0  0  0
   -3.1390    0.3940    0.0000 O   0  0  0  0  0  0  0  0  0  0  0  0
   -0.6250   -0.2630    0.0000 O   0  0  0  0  0  0  0  0  0  0  0  0
   -1.1260    3.7300    0.0000 C   0  0  0  0  0  0  0  0  0  0  0  0
   -2.5080    3.1480    0.0000 C   0  0  0  0  0  0  0  0  0  0  0  0
  1  2  2  0  0  0  0
  2  3  1  0  0  0  0
  2 12  1  0  0  0  0
  3  4  1  0  0  0  0
  4  5  1  0  0  0  0
  4 10  2  0  0  0  0
  5  6  2  0  0  0  0
  6  7  1  0  0  0  0
  7  8  1  0  0  0  0
  7  9  2  0  0  0  0
  9 10  1  0  0  0  0
 10 11  1  0  0  0  0
 12 13  1  0  0  0  0
 12 16  1  0  0  0  0
 12 17  1  0  0  0  0
 13 14  1  0  0  0  0
 13 15  2  0  0  0  0
 16 17  1  0  0  0  0
M  END
>  <DSSTox_RID>
40400

>  <DSSTox_CID>
12600

>  <apol>
33.227139

>  <a_acc>
3

>  <a_acid>
0

>  <a_aro>
6

>  <a_base>
0

>  <a_count>
26

>  <a_don>
3

>  <a_heavy>
17

>  <a_hyd>
11

>  <a_IC>
48.873474

>  <a_ICM>
1.8797489

>  <a_nB>
0

>  <a_nBr>
0

>  <a_nC>
11

>  <a_nCl>
2

>  <a_nF>
0

>  <a_nH>
9

>  <a_nI>
0

>  <a_nN>
1

>  <a_nO>
3

>  <a_nP>
0

>  <a_nS>
0

>  <balabanJ>
1.8957453

>  <BCUT_PEOE_0>
-2.2882321

>  <BCUT_PEOE_1>
-0.63133717

>  <BCUT_PEOE_2>
0.64697999

>  <BCUT_PEOE_3>
2.8427255

>  <BCUT_SLOGP_0>
-2.4337628

>  <BCUT_SLOGP_1>
-0.518722

>  <BCUT_SLOGP_2>
0.85468149

>  <BCUT_SLOGP_3>
2.8462677

>  <BCUT_SMR_0>
-1.993559

>  <BCUT_SMR_1>
-0.39212865

>  <BCUT_SMR_2>
0.92098892

>  <BCUT_SMR_3>
3.054137

>  <bpol>
13.254863

>  <b_1rotN>
3

>  <b_1rotR>
0.16666667

>  <b_ar>
6

>  <b_count>
27

>  <b_double>
2

>  <b_heavy>
18

>  <b_rotN>
4

>  <b_rotR>
0.22222222

>  <b_single>
19

>  <b_triple>
0

>  <chi0>
12.629392

>  <chi0v>
10.177761

>  <chi0v_C>
6.1462646

>  <chi0_C>
6.9222851

>  <chi1>
7.9540315

>  <chi1v>
5.7108893

>  <chi1v_C>
3.4451406

>  <chi1_C>
4.2507834

>  <chiral>
0

>  <chiral_u>
0

>  <density>
0.99163848

>  <diameter>
9

>  <FCharge>
0

>  <GCUT_PEOE_0>
-0.8067376

>  <GCUT_PEOE_1>
-0.46881735

>  <GCUT_PEOE_2>
0.10214797

>  <GCUT_PEOE_3>
2.3315845

>  <GCUT_SLOGP_0>
-1.0000361

>  <GCUT_SLOGP_1>
-0.30834675

>  <GCUT_SLOGP_2>
0.27211812

>  <GCUT_SLOGP_3>
2.3969142

>  <GCUT_SMR_0>
-0.46444634

>  <GCUT_SMR_1>
-0.21461308

>  <GCUT_SMR_2>
0.35475472

>  <GCUT_SMR_3>
2.6006753

>  <Kier1>
13.432098

>  <Kier2>
4.9382715

>  <Kier3>
2.4197531

>  <KierA1>
11.917011

>  <KierA2>
4.346395

>  <KierA3>
2.1162343

>  <KierFlex>
3.0468259

>  <lip_acc>
4

>  <lip_don>
2

>  <lip_druglike>
1

>  <lip_violation>
0

>  <logP(o/w)>
2.7650001

>  <logS>
-3.2348101

>  <mr>
6.4564438

>  <mutagenic>
0

>  <nmol>
1

>  <opr_brigid>
9

>  <opr_leadlike>
1

>  <opr_nring>
2

>  <opr_nrot>
3

>  <opr_violation>
0

>  <PC+>
0

>  <PC->
0

>  <PEOE_PC+>
1.0528437

>  <PEOE_PC->
-1.0528437

>  <PEOE_RPC+>
0.29346406

>  <PEOE_RPC->
0.25614488

>  <PEOE_VSA+0>
79.042473

>  <PEOE_VSA+1>
15.739044

>  <PEOE_VSA+2>
0

>  <PEOE_VSA+3>
0

>  <PEOE_VSA+4>
0

>  <PEOE_VSA+5>
12.949531

>  <PEOE_VSA+6>
14.708499

>  <PEOE_VSA-0>
0

>  <PEOE_VSA-1>
59.163895

>  <PEOE_VSA-2>
13.566921

>  <PEOE_VSA-3>
0

>  <PEOE_VSA-4>
5.6825762

>  <PEOE_VSA-5>
27.133842

>  <PEOE_VSA-6>
0

>  <PEOE_VSA_FHYD>
0.7347458

>  <PEOE_VSA_FNEG>
0.4629533

>  <PEOE_VSA_FPNEG>
0.14394

>  <PEOE_VSA_FPOL>
0.2652542

>  <PEOE_VSA_FPOS>
0.53704667

>  <PEOE_VSA_FPPOS>
0.12131418

>  <PEOE_VSA_HYD>
167.51233

>  <PEOE_VSA_NEG>
105.54723

>  <PEOE_VSA_PNEG>
32.816418

>  <PEOE_VSA_POL>
60.474449

>  <PEOE_VSA_POS>
122.43954

>  <PEOE_VSA_PPOS>
27.65803

>  <petitjean>
0.44444445

>  <petitjeanSC>
0.80000001

>  <Q_PC+>
0

>  <Q_PC->
0

>  <Q_RPC+>
0

>  <Q_RPC->
0

>  <Q_VSA_FHYD>
1

>  <Q_VSA_FNEG>
0

>  <Q_VSA_FPNEG>
0

>  <Q_VSA_FPOL>
0

>  <Q_VSA_FPOS>
1

>  <Q_VSA_FPPOS>
0

>  <Q_VSA_HYD>
227.98679

>  <Q_VSA_NEG>
0

>  <Q_VSA_PNEG>
0

>  <Q_VSA_POL>
0

>  <Q_VSA_POS>
227.98679

>  <Q_VSA_PPOS>
0

>  <radius>
5

>  <reactive>
0

>  <rings>
2

>  <RPC+>
0

>  <RPC->
0

>  <rsynth>
1

>  <SlogP>
2.7967

>  <SlogP_VSA0>
0

>  <SlogP_VSA1>
31.014997

>  <SlogP_VSA2>
47.724434

>  <SlogP_VSA3>
25.385227

>  <SlogP_VSA4>
0

>  <SlogP_VSA5>
0

>  <SlogP_VSA6>
7.0012131

>  <SlogP_VSA7>
52.929554

>  <SlogP_VSA8>
37.736813

>  <SlogP_VSA9>
81.054039

>  <SMR>
6.4394498

>  <SMR_VSA0>
47.724434

>  <SMR_VSA1>
0

>  <SMR_VSA2>
25.385227

>  <SMR_VSA3>
7.0012131

>  <SMR_VSA4>
20.767498

>  <SMR_VSA5>
90.666367

>  <SMR_VSA6>
13.004248

>  <SMR_VSA7>
78.297287

>  <TPSA>
66.400002

>  <VAdjEq>
0.54234898

>  <VAdjMa>
5.1699252

>  <VDistEq>
2.9548802

>  <VDistMa>
7.873229

>  <vdw_area>
227.98679

>  <vdw_vol>
267.26575

>  <vsa_acc>
13.566921

>  <vsa_acid>
0

>  <vsa_base>
0

>  <vsa_don>
5.6825762

>  <vsa_hyd>
153.9454

>  <vsa_other>
27.65803

>  <vsa_pol>
46.383339

>  <Weight>
274.103

>  <weinerPath>
527

>  <weinerPol>
26

>  <zagreb>
90

$$$$
O=C(N(CC)C1CCCCC1)SCC
  MOE2011           2D

 14 14  0  0  0  0  0  0  0  0999 V2000
    0.0000    0.0000    0.0000 O   0  0  0  0  0  0  0  0  0  0  0  0
    0.0030    1.5000    0.0000 C   0  0  0  0  0  0  0  0  0  0  0  0
   -1.2950    2.2520    0.0000 N   0  0  0  0  0  0  0  0  0  0  0  0
   -1.2920    3.7520    0.0000 C   0  0  0  0  0  0  0  0  0  0  0  0
   -2.5900    4.5050    0.0000 C   0  0  0  0  0  0  0  0  0  0  0  0
   -2.5950    1.5050    0.0000 C   0  0  0  0  0  0  0  0  0  0  0  0
   -2.5980    0.0050    0.0000 C   0  0  0  0  0  0  0  0  0  0  0  0
   -3.8980   -0.7430    0.0000 C   0  0  0  0  0  0  0  0  0  0  0  0
   -5.1960    0.0090    0.0000 C   0  0  0  0  0  0  0  0  0  0  0  0
   -5.1940    1.5090    0.0000 C   0  0  0  0  0  0  0  0  0  0  0  0
   -3.8930    2.2570    0.0000 C   0  0  0  0  0  0  0  0  0  0  0  0
    1.3030    2.2480    0.0000 S   0  0  0  0  0  0  0  0  0  0  0  0
    2.6010    1.4950    0.0000 C   0  0  0  0  0  0  0  0  0  0  0  0
    3.9010    2.2430    0.0000 C   0  0  0  0  0  0  0  0  0  0  0  0
  1  2  2  0  0  0  0
  2  3  1  0  0  0  0
  2 12  1  0  0  0  0
  3  4  1  0  0  0  0
  3  6  1  0  0  0  0
  4  5  1  0  0  0  0
  6  7  1  0  0  0  0
  6 11  1  0  0  0  0
  7  8  1  0  0  0  0
  8  9  1  0  0  0  0
  9 10  1  0  0  0  0
 10 11  1  0  0  0  0
 12 13  1  0  0  0  0
 13 14  1  0  0  0  0
M  END
>  <DSSTox_RID>
40401

>  <DSSTox_CID>
12356

>  <apol>
38.164654

>  <a_acc>
1

>  <a_acid>
0

>  <a_aro>
0

>  <a_base>
0

>  <a_count>
35

>  <a_don>
0

>  <a_heavy>
14

>  <a_hyd>
11

>  <a_IC>
49.232491

>  <a_ICM>
1.4066427

>  <a_nB>
0

>  <a_nBr>
0

>  <a_nC>
11

>  <a_nCl>
0

>  <a_nF>
0

>  <a_nH>
21

>  <a_nI>
0

>  <a_nN>
1

>  <a_nO>
1

>  <a_nP>
0

>  <a_nS>
1

>  <balabanJ>
2.420177

>  <BCUT_PEOE_0>
-2.8033061

>  <BCUT_PEOE_1>
-0.15197869

>  <BCUT_PEOE_2>
0.045016013

>  <BCUT_PEOE_3>
2.7436986

>  <BCUT_SLOGP_0>
-2.7657144

>  <BCUT_SLOGP_1>
0.087935336

>  <BCUT_SLOGP_2>
0.35496464

>  <BCUT_SLOGP_3>
2.8427684

>  <BCUT_SMR_0>
-2.5435121

>  <BCUT_SMR_1>
0.095601737

>  <BCUT_SMR_2>
0.26939362

>  <BCUT_SMR_3>
3.0042243

>  <bpol>
28.175346

>  <b_1rotN>
4

>  <b_1rotR>
0.2857143

>  <b_ar>
0

>  <b_count>
35

>  <b_double>
1

>  <b_heavy>
14

>  <b_rotN>
5

>  <b_rotR>
0.35714287

>  <b_single>
34

>  <b_triple>
0

>  <chi0>
10.388906

>  <chi0v>
10.107305

>  <chi0v_C>
8.0270977

>  <chi0_C>
8.1044483

>  <chi1>
6.7912235

>  <chi1v>
6.7112656

>  <chi1v_C>
4.23071

>  <chi1_C>
4.23071

>  <chiral>
0

>  <chiral_u>
0

>  <density>
0.78234965

>  <diameter>
8

>  <FCharge>
0

>  <GCUT_PEOE_0>
-0.84461576

>  <GCUT_PEOE_1>
-0.30382752

>  <GCUT_PEOE_2>
-0.11498399

>  <GCUT_PEOE_3>
2.6236634

>  <GCUT_SLOGP_0>
-0.95594811

>  <GCUT_SLOGP_1>
-0.14931834

>  <GCUT_SLOGP_2>
0.10312016

>  <GCUT_SLOGP_3>
2.7017388

>  <GCUT_SMR_0>
-0.52780235

>  <GCUT_SMR_1>
-0.078583978

>  <GCUT_SMR_2>
0.11466336

>  <GCUT_SMR_3>
2.8679402

>  <Kier1>
12.071428

>  <Kier2>
6.4775085

>  <Kier3>
3.5918367

>  <KierA1>
12.153193

>  <KierA2>
6.5249596

>  <KierA3>
3.6196632

>  <KierFlex>
5.6642213

>  <lip_acc>
2

>  <lip_don>
0

>  <lip_druglike>
1

>  <lip_violation>
0

>  <logP(o/w)>
3.4949999

>  <logS>
-2.8305199

>  <mr>
6.2973957

>  <mutagenic>
0

>  <nmol>
1

>  <opr_brigid>
6

>  <opr_leadlike>
1

>  <opr_nring>
1

>  <opr_nrot>
6

>  <opr_violation>
0

>  <PC+>
0

>  <PC->
0

>  <PEOE_PC+>
0.62810087

>  <PEOE_PC->
-0.62810087

>  <PEOE_RPC+>
0.45253575

>  <PEOE_RPC->
0.49868363

>  <PEOE_VSA+0>
137.85938

>  <PEOE_VSA+1>
24.484108

>  <PEOE_VSA+2>
20.299505

>  <PEOE_VSA+3>
0

>  <PEOE_VSA+4>
0

>  <PEOE_VSA+5>
14.925592

>  <PEOE_VSA+6>
0

>  <PEOE_VSA-0>
0

>  <PEOE_VSA-1>
19.760618

>  <PEOE_VSA-2>
0

>  <PEOE_VSA-3>
0

>  <PEOE_VSA-4>
0

>  <PEOE_VSA-5>
13.566921

>  <PEOE_VSA-6>
0

>  <PEOE_VSA_FHYD>
0.87660027

>  <PEOE_VSA_FNEG>
0.14433996

>  <PEOE_VSA_FPNEG>
0.058757681

>  <PEOE_VSA_FPOL>
0.1233997

>  <PEOE_VSA_FPOS>
0.85566002

>  <PEOE_VSA_FPPOS>
0.064642027

>  <PEOE_VSA_HYD>
202.40361

>  <PEOE_VSA_NEG>
33.327538

>  <PEOE_VSA_PNEG>
13.566921

>  <PEOE_VSA_POL>
28.492514

>  <PEOE_VSA_POS>
197.56857

>  <PEOE_VSA_PPOS>
14.925592

>  <petitjean>
0.5

>  <petitjeanSC>
1

>  <Q_PC+>
0

>  <Q_PC->
0

>  <Q_RPC+>
0

>  <Q_RPC->
0

>  <Q_VSA_FHYD>
1

>  <Q_VSA_FNEG>
0

>  <Q_VSA_FPNEG>
0

>  <Q_VSA_FPOL>
0

>  <Q_VSA_FPOS>
1

>  <Q_VSA_FPPOS>
0

>  <Q_VSA_HYD>
230.89612

>  <Q_VSA_NEG>
0

>  <Q_VSA_PNEG>
0

>  <Q_VSA_POL>
0

>  <Q_VSA_POS>
230.89612

>  <Q_VSA_PPOS>
0

>  <radius>
4

>  <reactive>
0

>  <rings>
1

>  <RPC+>
0

>  <RPC->
0

>  <rsynth>
1

>  <SlogP>
3.5141001

>  <SlogP_VSA0>
0

>  <SlogP_VSA1>
6.7482567

>  <SlogP_VSA2>
3.9819686

>  <SlogP_VSA3>
35.673141

>  <SlogP_VSA4>
0

>  <SlogP_VSA5>
0

>  <SlogP_VSA6>
0

>  <SlogP_VSA7>
0

>  <SlogP_VSA8>
94.342026

>  <SlogP_VSA9>
122.73379

>  <SMR>
6.2782001

>  <SMR_VSA0>
23.862217

>  <SMR_VSA1>
3.1243138

>  <SMR_VSA2>
0

>  <SMR_VSA3>
3.9819686

>  <SMR_VSA4>
0

>  <SMR_VSA5>
94.342026

>  <SMR_VSA6>
39.297085

>  <SMR_VSA7>
98.871574

>  <TPSA>
20.309999

>  <VAdjEq>
0.59167278

>  <VAdjMa>
4.8073549

>  <VDistEq>
2.7254214

>  <VDistMa>
7.3189087

>  <vdw_area>
230.89612

>  <vdw_vol>
248.21767

>  <vsa_acc>
13.566921

>  <vsa_acid>
0

>  <vsa_base>
0

>  <vsa_don>
0

>  <vsa_hyd>
202.40361

>  <vsa_other>
14.925592

>  <vsa_pol>
13.566921

>  <Weight>
215.36099

>  <weinerPath>
312

>  <weinerPol>
18

>  <zagreb>
62

$$$$
N#C[C@H](C2=CC=C(F)C(OC3=CC=CC=C3)=C2)O[C@@]([C@H]1C(C)(C)[C@@H]1/C=C(Cl)\Cl)=O
  MOE2011           2D

 29 31  0  0  1  0  0  0  0  0999 V2000
    0.0000    0.0000    0.0000 N   0  0  0  0  0  0  0  0  0  0  0  0
    0.2760   -1.4740    0.0000 C   0  0  0  0  0  0  0  0  0  0  0  0
    0.5520   -2.9490    0.0000 C   0  0  2  0  0  0  0  0  0  0  0  0
   -0.5870   -3.9250    0.0000 C   0  0  0  0  0  0  0  0  0  0  0  0
   -0.3110   -5.3990    0.0000 C   0  0  0  0  0  0  0  0  0  0  0  0
   -1.4500   -6.3750    0.0000 C   0  0  0  0  0  0  0  0  0  0  0  0
   -2.8650   -5.8770    0.0000 C   0  0  0  0  0  0  0  0  0  0  0  0
   -4.0040   -6.8530    0.0000 F   0  0  0  0  0  0  0  0  0  0  0  0
   -3.1410   -4.4030    0.0000 C   0  0  0  0  0  0  0  0  0  0  0  0
   -4.5560   -3.9040    0.0000 O   0  0  0  0  0  0  0  0  0  0  0  0
   -4.8320   -2.4300    0.0000 C   0  0  0  0  0  0  0  0  0  0  0  0
   -3.6930   -1.4540    0.0000 C   0  0  0  0  0  0  0  0  0  0  0  0
   -3.9690    0.0210    0.0000 C   0  0  0  0  0  0  0  0  0  0  0  0
   -5.3830    0.5190    0.0000 C   0  0  0  0  0  0  0  0  0  0  0  0
   -6.5220   -0.4570    0.0000 C   0  0  0  0  0  0  0  0  0  0  0  0
   -6.2460   -1.9320    0.0000 C   0  0  0  0  0  0  0  0  0  0  0  0
   -2.0020   -3.4270    0.0000 C   0  0  0  0  0  0  0  0  0  0  0  0
    1.9660   -3.4470    0.0000 O   0  0  0  0  0  0  0  0  0  0  0  0
    3.1050   -2.4710    0.0000 C   0  0  0  0  0  0  0  0  0  0  0  0
    4.5200   -2.9690    0.0000 C   0  0  1  0  0  0  0  0  0  0  0  0
    5.4960   -4.1080    0.0000 C   0  0  0  0  0  0  0  0  0  0  0  0
    4.8180   -5.4460    0.0000 C   0  0  0  0  0  0  0  0  0  0  0  0
    6.6130   -5.1100    0.0000 C   0  0  0  0  0  0  0  0  0  0  0  0
    5.9950   -2.6940    0.0000 C   0  0  2  0  0  0  0  0  0  0  0  0
    7.1340   -1.7170    0.0000 C   0  0  0  0  0  0  0  0  0  0  0  0
    8.5480   -2.2160    0.0000 C   0  0  0  0  0  0  0  0  0  0  0  0
    9.6870   -1.2400    0.0000 Cl  0  0  0  0  0  0  0  0  0  0  0  0
    8.8240   -3.6900    0.0000 Cl  0  0  0  0  0  0  0  0  0  0  0  0
    2.8300   -0.9970    0.0000 O   0  0  0  0  0  0  0  0  0  0  0  0
  1  2  3  0  0  0  0
  3  2  1  1  0  0  0
  3  4  1  0  0  0  0
  3 18  1  0  0  0  0
  4  5  1  0  0  0  0
  4 17  2  0  0  0  0
  5  6  2  0  0  0  0
  6  7  1  0  0  0  0
  7  8  1  0  0  0  0
  7  9  2  0  0  0  0
  9 10  1  0  0  0  0
  9 17  1  0  0  0  0
 10 11  1  0  0  0  0
 11 12  1  0  0  0  0
 11 16  2  0  0  0  0
 12 13  2  0  0  0  0
 13 14  1  0  0  0  0
 14 15  2  0  0  0  0
 15 16  1  0  0  0  0
 18 19  1  0  0  0  0
 20 19  1  6  0  0  0
 19 29  2  0  0  0  0
 20 21  1  0  0  0  0
 20 24  1  0  0  0  0
 21 22  1  0  0  0  0
 21 23  1  0  0  0  0
 21 24  1  0  0  0  0
 24 25  1  1  0  0  0
 25 26  2  0  0  0  0
 26 27  1  0  0  0  0
 26 28  1  0  0  0  0
M  END
>  <DSSTox_RID>
40404

>  <DSSTox_CID>
3898

>  <apol>
59.145275

>  <a_acc>
2

>  <a_acid>
0

>  <a_aro>
12

>  <a_base>
0

>  <a_count>
47

>  <a_don>
0

>  <a_heavy>
29

>  <a_hyd>
22

>  <a_IC>
81.144646

>  <a_ICM>
1.7264818

>  <a_nB>
0

>  <a_nBr>
0

>  <a_nC>
22

>  <a_nCl>
2

>  <a_nF>
1

>  <a_nH>
18

>  <a_nI>
0

>  <a_nN>
1

>  <a_nO>
3

>  <a_nP>
0

>  <a_nS>
0

>  <balabanJ>
1.5476822

>  <BCUT_PEOE_0>
-2.4677651

>  <BCUT_PEOE_1>
-0.63482857

>  <BCUT_PEOE_2>
0.59167171

>  <BCUT_PEOE_3>
2.8994279

>  <BCUT_SLOGP_0>
-2.3880548

>  <BCUT_SLOGP_1>
-0.48285776

>  <BCUT_SLOGP_2>
0.75478315

>  <BCUT_SLOGP_3>
2.9234669

>  <BCUT_SMR_0>
-2.2294464

>  <BCUT_SMR_1>
-0.45216849

>  <BCUT_SMR_2>
0.76121867

>  <BCUT_SMR_3>
3.1337574

>  <bpol>
27.170727

>  <b_1rotN>
6

>  <b_1rotR>
0.19354838

>  <b_ar>
12

>  <b_count>
49

>  <b_double>
2

>  <b_heavy>
31

>  <b_rotN>
8

>  <b_rotR>
0.25806451

>  <b_single>
34

>  <b_triple>
1

>  <chi0>
21.181435

>  <chi0v>
17.245913

>  <chi0v_C>
12.928204

>  <chi0_C>
14.76722

>  <chi1>
13.734419

>  <chi1v>
9.6461163

>  <chi1v_C>
7.0474348

>  <chi1_C>
9.084918

>  <chiral>
3

>  <chiral_u>
0

>  <density>
0.87836289

>  <diameter>
15

>  <FCharge>
0

>  <GCUT_PEOE_0>
-0.76408947

>  <GCUT_PEOE_1>
-0.40877044

>  <GCUT_PEOE_2>
0.066277385

>  <GCUT_PEOE_3>
2.6076856

>  <GCUT_SLOGP_0>
-0.84550762

>  <GCUT_SLOGP_1>
-0.25567943

>  <GCUT_SLOGP_2>
0.17198224

>  <GCUT_SLOGP_3>
2.7008853

>  <GCUT_SMR_0>
-0.5098331

>  <GCUT_SMR_1>
-0.19449532

>  <GCUT_SMR_2>
0.21336183

>  <GCUT_SMR_3>
2.8545589

>  <Kier1>
23.658689

>  <Kier2>
10.08

>  <Kier3>
5.4375181

>  <KierA1>
19.545462

>  <KierA2>
8.2675505

>  <KierA3>
4.4361148

>  <KierFlex>
5.5721755

>  <lip_acc>
4

>  <lip_don>
0

>  <lip_druglike>
1

>  <lip_violation>
1

>  <logP(o/w)>
5.85536

>  <logS>
-7.2735701

>  <mr>
11.260839

>  <mutagenic>
0

>  <nmol>
1

>  <opr_brigid>
16

>  <opr_leadlike>
1

>  <opr_nring>
3

>  <opr_nrot>
7

>  <opr_violation>
1

>  <PC+>
0

>  <PC->
0

>  <PEOE_PC+>
1.390848

>  <PEOE_PC->
-1.390848

>  <PEOE_RPC+>
0.19619675

>  <PEOE_RPC->
0.21895537

>  <PEOE_VSA+0>
189.70193

>  <PEOE_VSA+1>
10.667059

>  <PEOE_VSA+2>
35.588978

>  <PEOE_VSA+3>
9.0208454

>  <PEOE_VSA+4>
8.458519

>  <PEOE_VSA+5>
14.708499

>  <PEOE_VSA+6>
0

>  <PEOE_VSA-0>
15.808495

>  <PEOE_VSA-1>
59.163895

>  <PEOE_VSA-2>
0

>  <PEOE_VSA-3>
17.742489

>  <PEOE_VSA-4>
11.908636

>  <PEOE_VSA-5>
16.070677

>  <PEOE_VSA-6>
2.503756

>  <PEOE_VSA_FHYD>
0.86290807

>  <PEOE_VSA_FNEG>
0.31480747

>  <PEOE_VSA_FPNEG>
0.077893324

>  <PEOE_VSA_FPOL>
0.13709196

>  <PEOE_VSA_FPOS>
0.68519253

>  <PEOE_VSA_FPPOS>
0.059198637

>  <PEOE_VSA_HYD>
337.6937

>  <PEOE_VSA_NEG>
123.19794

>  <PEOE_VSA_PNEG>
30.483068

>  <PEOE_VSA_POL>
53.650089

>  <PEOE_VSA_POS>
268.14584

>  <PEOE_VSA_PPOS>
23.167019

>  <petitjean>
0.46666667

>  <petitjeanSC>
0.875

>  <Q_PC+>
0

>  <Q_PC->
0

>  <Q_RPC+>
0

>  <Q_RPC->
0

>  <Q_VSA_FHYD>
1

>  <Q_VSA_FNEG>
0

>  <Q_VSA_FPNEG>
0

>  <Q_VSA_FPOL>
0

>  <Q_VSA_FPOS>
1

>  <Q_VSA_FPPOS>
0

>  <Q_VSA_HYD>
391.34378

>  <Q_VSA_NEG>
0

>  <Q_VSA_PNEG>
0

>  <Q_VSA_POL>
0

>  <Q_VSA_POS>
391.34378

>  <Q_VSA_PPOS>
0

>  <radius>
8

>  <reactive>
0

>  <rings>
3

>  <RPC+>
0

>  <RPC->
0

>  <rsynth>
0.65517241

>  <SlogP>
6.4125838

>  <SlogP_VSA0>
10.999887

>  <SlogP_VSA1>
7.7454643

>  <SlogP_VSA2>
43.983124

>  <SlogP_VSA3>
47.661102

>  <SlogP_VSA4>
12.007167

>  <SlogP_VSA5>
3.8156381

>  <SlogP_VSA6>
0

>  <SlogP_VSA7>
158.78867

>  <SlogP_VSA8>
6.4686494

>  <SlogP_VSA9>
170.39629

>  <SMR>
10.8023

>  <SMR_VSA0>
34.862103

>  <SMR_VSA1>
57.019356

>  <SMR_VSA2>
17.94261

>  <SMR_VSA3>
40.558464

>  <SMR_VSA4>
0

>  <SMR_VSA5>
158.78867

>  <SMR_VSA6>
7.7454643

>  <SMR_VSA7>
144.94931

>  <TPSA>
59.32

>  <VAdjEq>
0.3796615

>  <VAdjMa>
5.9541965

>  <VDistEq>
3.6680145

>  <VDistMa>
9.4232187

>  <vdw_area>
391.34378

>  <vdw_vol>
473.77911

>  <vsa_acc>
31.30941

>  <vsa_acid>
0

>  <vsa_base>
0

>  <vsa_don>
0

>  <vsa_hyd>
313.1879

>  <vsa_other>
46.84647

>  <vsa_pol>
31.30941

>  <Weight>
434.29398

>  <weinerPath>
2425

>  <weinerPol>
42

>  <zagreb>
152

$$$$
O=C([C@H](OC1=CC=C(OC2=C(F)C=C(C#N)C=C2)C=C1)C)OCCCC
  MOE2011           2D

 26 27  0  0  1  0  0  0  0  0999 V2000
    0.0000    0.0000    0.0000 O   0  0  0  0  0  0  0  0  0  0  0  0
   -0.7510    1.2990    0.0000 C   0  0  0  0  0  0  0  0  0  0  0  0
   -2.2510    1.2980    0.0000 C   0  0  2  0  0  0  0  0  0  0  0  0
   -3.0000   -0.0020    0.0000 O   0  0  0  0  0  0  0  0  0  0  0  0
   -4.5000   -0.0020    0.0000 C   0  0  0  0  0  0  0  0  0  0  0  0
   -5.2510    1.2960    0.0000 C   0  0  0  0  0  0  0  0  0  0  0  0
   -6.7510    1.2950    0.0000 C   0  0  0  0  0  0  0  0  0  0  0  0
   -7.5000   -0.0040    0.0000 C   0  0  0  0  0  0  0  0  0  0  0  0
   -9.0000   -0.0050    0.0000 O   0  0  0  0  0  0  0  0  0  0  0  0
   -9.7490   -1.3040    0.0000 C   0  0  0  0  0  0  0  0  0  0  0  0
  -11.2490   -1.3050    0.0000 C   0  0  0  0  0  0  0  0  0  0  0  0
  -12.0000   -0.0060    0.0000 F   0  0  0  0  0  0  0  0  0  0  0  0
  -11.9990   -2.6040    0.0000 C   0  0  0  0  0  0  0  0  0  0  0  0
  -11.2480   -3.9030    0.0000 C   0  0  0  0  0  0  0  0  0  0  0  0
  -11.9970   -5.2020    0.0000 C   0  0  0  0  0  0  0  0  0  0  0  0
  -12.7470   -6.5020    0.0000 N   0  0  0  0  0  0  0  0  0  0  0  0
   -9.7480   -3.9020    0.0000 C   0  0  0  0  0  0  0  0  0  0  0  0
   -8.9990   -2.6030    0.0000 C   0  0  0  0  0  0  0  0  0  0  0  0
   -6.7490   -1.3030    0.0000 C   0  0  0  0  0  0  0  0  0  0  0  0
   -5.2490   -1.3020    0.0000 C   0  0  0  0  0  0  0  0  0  0  0  0
   -3.0010    2.5960    0.0000 C   0  0  0  0  0  0  0  0  0  0  0  0
   -0.0010    2.5980    0.0000 O   0  0  0  0  0  0  0  0  0  0  0  0
    1.4990    2.5990    0.0000 C   0  0  0  0  0  0  0  0  0  0  0  0
    2.2480    3.8980    0.0000 C   0  0  0  0  0  0  0  0  0  0  0  0
    3.7480    3.8990    0.0000 C   0  0  0  0  0  0  0  0  0  0  0  0
    4.4970    5.1990    0.0000 C   0  0  0  0  0  0  0  0  0  0  0  0
  1  2  2  0  0  0  0
  2  3  1  0  0  0  0
  2 22  1  0  0  0  0
  3  4  1  0  0  0  0
  3 21  1  6  0  0  0
  4  5  1  0  0  0  0
  5  6  1  0  0  0  0
  5 20  2  0  0  0  0
  6  7  2  0  0  0  0
  7  8  1  0  0  0  0
  8  9  1  0  0  0  0
  8 19  2  0  0  0  0
  9 10  1  0  0  0  0
 10 11  1  0  0  0  0
 10 18  2  0  0  0  0
 11 12  1  0  0  0  0
 11 13  2  0  0  0  0
 13 14  1  0  0  0  0
 14 15  1  0  0  0  0
 14 17  2  0  0  0  0
 15 16  3  0  0  0  0
 17 18  1  0  0  0  0
 19 20  1  0  0  0  0
 22 23  1  0  0  0  0
 23 24  1  0  0  0  0
 24 25  1  0  0  0  0
 25 26  1  0  0  0  0
M  END
>  <DSSTox_RID>
40405

>  <DSSTox_CID>
14503

>  <apol>
53.40086

>  <a_acc>
3

>  <a_acid>
0

>  <a_aro>
12

>  <a_base>
0

>  <a_count>
46

>  <a_don>
0

>  <a_heavy>
26

>  <a_hyd>
19

>  <a_IC>
73.206726

>  <a_ICM>
1.5914506

>  <a_nB>
0

>  <a_nBr>
0

>  <a_nC>
20

>  <a_nCl>
0

>  <a_nF>
1

>  <a_nH>
20

>  <a_nI>
0

>  <a_nN>
1

>  <a_nO>
4

>  <a_nP>
0

>  <a_nS>
0

>  <balabanJ>
1.6431128

>  <BCUT_PEOE_0>
-2.5735583

>  <BCUT_PEOE_1>
-0.63738108

>  <BCUT_PEOE_2>
0.68779516

>  <BCUT_PEOE_3>
2.5514421

>  <BCUT_SLOGP_0>
-2.5653262

>  <BCUT_SLOGP_1>
-0.53807992

>  <BCUT_SLOGP_2>
0.75316173

>  <BCUT_SLOGP_3>
2.6392953

>  <BCUT_SMR_0>
-2.3381393

>  <BCUT_SMR_1>
-0.49955973

>  <BCUT_SMR_2>
0.85429859

>  <BCUT_SMR_3>
2.7817924

>  <bpol>
30.43314

>  <b_1rotN>
8

>  <b_1rotR>
0.2962963

>  <b_ar>
12

>  <b_count>
47

>  <b_double>
1

>  <b_heavy>
27

>  <b_rotN>
10

>  <b_rotR>
0.37037036

>  <b_single>
33

>  <b_triple>
1

>  <chi0>
18.940947

>  <chi0v>
14.698294

>  <chi0v_C>
12.240123

>  <chi0_C>
13.819627

>  <chi1>
12.528407

>  <chi1v>
8.3401203

>  <chi1v_C>
6.3825331

>  <chi1_C>
8.1253586

>  <chiral>
1

>  <chiral_u>
0

>  <density>
0.80758661

>  <diameter>
18

>  <FCharge>
0

>  <GCUT_PEOE_0>
-0.78567964

>  <GCUT_PEOE_1>
-0.41657215

>  <GCUT_PEOE_2>
0.068036593

>  <GCUT_PEOE_3>
2.4418101

>  <GCUT_SLOGP_0>
-0.93333346

>  <GCUT_SLOGP_1>
-0.30831194

>  <GCUT_SLOGP_2>
0.16200066

>  <GCUT_SLOGP_3>
2.5527699

>  <GCUT_SMR_0>
-0.52898127

>  <GCUT_SMR_1>
-0.2158616

>  <GCUT_SMR_2>
0.19305076

>  <GCUT_SMR_3>
2.6926379

>  <Kier1>
22.29081

>  <Kier2>
11.755102

>  <Kier3>
7.5102043

>  <KierA1>
16.537437

>  <KierA2>
8.608942

>  <KierA3>
5.4493947

>  <KierFlex>
5.4757628

>  <lip_acc>
5

>  <lip_don>
0

>  <lip_druglike>
1

>  <lip_violation>
0

>  <logP(o/w)>
4.6997399

>  <logS>
-5.6434598

>  <mr>
9.8281088

>  <mutagenic>
0

>  <nmol>
1

>  <opr_brigid>
12

>  <opr_leadlike>
1

>  <opr_nring>
2

>  <opr_nrot>
9

>  <opr_violation>
1

>  <PC+>
0

>  <PC->
0

>  <PEOE_PC+>
1.5813707

>  <PEOE_PC->
-1.5813707

>  <PEOE_RPC+>
0.18953036

>  <PEOE_RPC->
0.20414943

>  <PEOE_VSA+0>
201.09335

>  <PEOE_VSA+1>
10.667059

>  <PEOE_VSA+2>
37.216545

>  <PEOE_VSA+3>
31.079319

>  <PEOE_VSA+4>
8.458519

>  <PEOE_VSA+5>
14.708499

>  <PEOE_VSA+6>
0

>  <PEOE_VSA-0>
0

>  <PEOE_VSA-1>
0

>  <PEOE_VSA-2>
0

>  <PEOE_VSA-3>
17.742489

>  <PEOE_VSA-4>
11.908636

>  <PEOE_VSA-5>
16.070677

>  <PEOE_VSA-6>
5.0075121

>  <PEOE_VSA_FHYD>
0.84135211

>  <PEOE_VSA_FNEG>
0.14332233

>  <PEOE_VSA_FPNEG>
0.093195595

>  <PEOE_VSA_FPOL>
0.15864791

>  <PEOE_VSA_FPOS>
0.85667765

>  <PEOE_VSA_FPPOS>
0.065452315

>  <PEOE_VSA_HYD>
297.79877

>  <PEOE_VSA_NEG>
50.729313

>  <PEOE_VSA_PNEG>
32.986824

>  <PEOE_VSA_POL>
56.153843

>  <PEOE_VSA_POS>
303.2233

>  <PEOE_VSA_PPOS>
23.167019

>  <petitjean>
0.5

>  <petitjeanSC>
1

>  <Q_PC+>
0

>  <Q_PC->
0

>  <Q_RPC+>
0

>  <Q_RPC->
0

>  <Q_VSA_FHYD>
1

>  <Q_VSA_FNEG>
0

>  <Q_VSA_FPNEG>
0

>  <Q_VSA_FPOL>
0

>  <Q_VSA_FPOS>
1

>  <Q_VSA_FPPOS>
0

>  <Q_VSA_HYD>
353.95261

>  <Q_VSA_NEG>
0

>  <Q_VSA_PNEG>
0

>  <Q_VSA_POL>
0

>  <Q_VSA_POS>
353.95261

>  <Q_VSA_PPOS>
0

>  <radius>
9

>  <reactive>
0

>  <rings>
2

>  <RPC+>
0

>  <RPC->
0

>  <rsynth>
1

>  <SlogP>
4.6002841

>  <SlogP_VSA0>
21.999775

>  <SlogP_VSA1>
7.7454643

>  <SlogP_VSA2>
50.451771

>  <SlogP_VSA3>
68.587364

>  <SlogP_VSA4>
3.185575

>  <SlogP_VSA5>
0

>  <SlogP_VSA6>
0

>  <SlogP_VSA7>
123.50229

>  <SlogP_VSA8>
37.736813

>  <SlogP_VSA9>
97.34243

>  <SMR>
9.3587999

>  <SMR_VSA0>
34.862103

>  <SMR_VSA1>
68.019241

>  <SMR_VSA2>
9.1210184

>  <SMR_VSA3>
41.986256

>  <SMR_VSA4>
0

>  <SMR_VSA5>
161.23911

>  <SMR_VSA6>
28.671722

>  <SMR_VSA7>
66.652031

>  <TPSA>
68.550003

>  <VAdjEq>
0.40176207

>  <VAdjMa>
5.7548876

>  <VDistEq>
3.8509042

>  <VDistMa>
9.0520935

>  <vdw_area>
353.95261

>  <vdw_vol>
417.56635

>  <vsa_acc>
33.813168

>  <vsa_acid>
0

>  <vsa_base>
0

>  <vsa_don>
0

>  <vsa_hyd>
280.12393

>  <vsa_other>
40.015518

>  <vsa_pol>
33.813168

>  <Weight>
357.38098

>  <weinerPath>
2079

>  <weinerPol>
36

>  <zagreb>
124

$$$$
O=C(NC(NCC)=O)/C(C#N)=N/OC
  MOE2011           2D

 14 13  0  0  0  0  0  0  0  0999 V2000
    0.0000    0.0000    0.0000 O   0  0  0  0  0  0  0  0  0  0  0  0
   -0.7600    1.2930    0.0000 C   0  0  0  0  0  0  0  0  0  0  0  0
   -0.0200    2.5980    0.0000 N   0  0  0  0  0  0  0  0  0  0  0  0
    1.4800    2.6100    0.0000 C   0  0  0  0  0  0  0  0  0  0  0  0
    2.2200    3.9140    0.0000 N   0  0  0  0  0  0  0  0  0  0  0  0
    3.7200    3.9260    0.0000 C   0  0  0  0  0  0  0  0  0  0  0  0
    4.4600    5.2310    0.0000 C   0  0  0  0  0  0  0  0  0  0  0  0
    2.2400    1.3160    0.0000 O   0  0  0  0  0  0  0  0  0  0  0  0
   -2.2600    1.2820    0.0000 C   0  0  0  0  0  0  0  0  0  0  0  0
   -3.0200    2.5750    0.0000 C   0  0  0  0  0  0  0  0  0  0  0  0
   -3.7800    3.8680    0.0000 N   0  0  0  0  0  0  0  0  0  0  0  0
   -3.0000   -0.0230    0.0000 N   0  0  0  0  0  0  0  0  0  0  0  0
   -4.5000   -0.0350    0.0000 O   0  0  0  0  0  0  0  0  0  0  0  0
   -5.2400   -1.3390    0.0000 C   0  0  0  0  0  0  0  0  0  0  0  0
  1  2  2  0  0  0  0
  2  3  1  0  0  0  0
  2  9  1  0  0  0  0
  3  4  1  0  0  0  0
  4  5  1  0  0  0  0
  4  8  2  0  0  0  0
  5  6  1  0  0  0  0
  6  7  1  0  0  0  0
  9 10  1  0  0  0  0
  9 12  2  0  0  0  0
 10 11  3  0  0  0  0
 12 13  1  0  0  0  0
 13 14  1  0  0  0  0
M  END
>  <DSSTox_RID>
40407

>  <DSSTox_CID>
12358

>  <apol>
25.79393

>  <a_acc>
4

>  <a_acid>
0

>  <a_aro>
0

>  <a_base>
0

>  <a_count>
24

>  <a_don>
2

>  <a_heavy>
14

>  <a_hyd>
3

>  <a_IC>
44.413448

>  <a_ICM>
1.8505603

>  <a_nB>
0

>  <a_nBr>
0

>  <a_nC>
7

>  <a_nCl>
0

>  <a_nF>
0

>  <a_nH>
10

>  <a_nI>
0

>  <a_nN>
4

>  <a_nO>
3

>  <a_nP>
0

>  <a_nS>
0

>  <balabanJ>
3.8620739

>  <BCUT_PEOE_0>
-2.4586651

>  <BCUT_PEOE_1>
-0.49991199

>  <BCUT_PEOE_2>
0.46075246

>  <BCUT_PEOE_3>
2.4012313

>  <BCUT_SLOGP_0>
-2.6816108

>  <BCUT_SLOGP_1>
-0.3616195

>  <BCUT_SLOGP_2>
0.51864928

>  <BCUT_SLOGP_3>
2.3487067

>  <BCUT_SMR_0>
-2.1894467

>  <BCUT_SMR_1>
-0.28827411

>  <BCUT_SMR_2>
0.58172882

>  <BCUT_SMR_3>
2.6693044

>  <bpol>
16.74407

>  <b_1rotN>
3

>  <b_1rotR>
0.23076923

>  <b_ar>
0

>  <b_count>
23

>  <b_double>
3

>  <b_heavy>
13

>  <b_rotN>
7

>  <b_rotR>
0.53846157

>  <b_single>
19

>  <b_triple>
1

>  <chi0>
10.974691

>  <chi0v>
7.8262787

>  <chi0v_C>
4.7071066

>  <chi0_C>
5.1462646

>  <chi1>
6.6505957

>  <chi1v>
3.7569444

>  <chi1v_C>
1.2071068

>  <chi1_C>
1.4486884

>  <chiral>
0

>  <chiral_u>
0

>  <density>
0.90242416

>  <diameter>
9

>  <FCharge>
0

>  <GCUT_PEOE_0>
-0.82710928

>  <GCUT_PEOE_1>
-0.45352459

>  <GCUT_PEOE_2>
0.067759983

>  <GCUT_PEOE_3>
2.0427349

>  <GCUT_SLOGP_0>
-1.19033

>  <GCUT_SLOGP_1>
-0.38676608

>  <GCUT_SLOGP_2>
0.11419505

>  <GCUT_SLOGP_3>
1.9172274

>  <GCUT_SMR_0>
-0.51143944

>  <GCUT_SMR_1>
-0.20764405

>  <GCUT_SMR_2>
0.16322225

>  <GCUT_SMR_3>
2.291744

>  <Kier1>
14

>  <Kier2>
8.3199997

>  <Kier3>
6.1875

>  <KierA1>
9.2454882

>  <KierA2>
5.2980103

>  <KierA3>
3.830842

>  <KierFlex>
3.4987638

>  <lip_acc>
7

>  <lip_don>
2

>  <lip_druglike>
1

>  <lip_violation>
0

>  <logP(o/w)>
-0.889

>  <logS>
-1.25512

>  <mr>
4.8607669

>  <mutagenic>
0

>  <nmol>
1

>  <opr_brigid>
1

>  <opr_leadlike>
1

>  <opr_nring>
0

>  <opr_nrot>
4

>  <opr_violation>
0

>  <PC+>
0

>  <PC->
0

>  <PEOE_PC+>
1.4099073

>  <PEOE_PC->
-1.4099073

>  <PEOE_RPC+>
0.26038969

>  <PEOE_RPC->
0.18621507

>  <PEOE_VSA+0>
29.408449

>  <PEOE_VSA+1>
0

>  <PEOE_VSA+2>
40.59901

>  <PEOE_VSA+3>
0

>  <PEOE_VSA+4>
42.357979

>  <PEOE_VSA+5>
0

>  <PEOE_VSA+6>
30.390074

>  <PEOE_VSA-0>
0

>  <PEOE_VSA-1>
0

>  <PEOE_VSA-2>
10.885262

>  <PEOE_VSA-3>
23.425066

>  <PEOE_VSA-4>
25.151855

>  <PEOE_VSA-5>
13.566921

>  <PEOE_VSA-6>
0

>  <PEOE_VSA_FHYD>
0.48343477

>  <PEOE_VSA_FNEG>
0.33843517

>  <PEOE_VSA_FPNEG>
0.17943251

>  <PEOE_VSA_FPOL>
0.5165652

>  <PEOE_VSA_FPOS>
0.66156483

>  <PEOE_VSA_FPPOS>
0.33713272

>  <PEOE_VSA_HYD>
104.31779

>  <PEOE_VSA_NEG>
73.029106

>  <PEOE_VSA_PNEG>
38.718777

>  <PEOE_VSA_POL>
111.46683

>  <PEOE_VSA_POS>
142.75551

>  <PEOE_VSA_PPOS>
72.748055

>  <petitjean>
0.44444445

>  <petitjeanSC>
0.80000001

>  <Q_PC+>
0

>  <Q_PC->
0

>  <Q_RPC+>
0

>  <Q_RPC->
0

>  <Q_VSA_FHYD>
1

>  <Q_VSA_FNEG>
0

>  <Q_VSA_FPNEG>
0

>  <Q_VSA_FPOL>
0

>  <Q_VSA_FPOS>
1

>  <Q_VSA_FPPOS>
0

>  <Q_VSA_HYD>
215.78462

>  <Q_VSA_NEG>
0

>  <Q_VSA_PNEG>
0

>  <Q_VSA_POL>
0

>  <Q_VSA_POS>
215.78462

>  <Q_VSA_PPOS>
0

>  <radius>
5

>  <reactive>
0

>  <rings>
0

>  <RPC+>
0

>  <RPC->
0

>  <rsynth>
1

>  <SlogP>
-0.64191598

>  <SlogP_VSA0>
36.0215

>  <SlogP_VSA1>
12.845488

>  <SlogP_VSA2>
35.080978

>  <SlogP_VSA3>
66.100677

>  <SlogP_VSA4>
0

>  <SlogP_VSA5>
54.78373

>  <SlogP_VSA6>
0

>  <SlogP_VSA7>
0

>  <SlogP_VSA8>
0

>  <SlogP_VSA9>
57.188232

>  <SMR>
4.7272401

>  <SMR_VSA0>
58.943195

>  <SMR_VSA1>
50.459217

>  <SMR_VSA2>
36.0215

>  <SMR_VSA3>
16.601746

>  <SMR_VSA4>
0

>  <SMR_VSA5>
0

>  <SMR_VSA6>
31.285065

>  <SMR_VSA7>
68.709885

>  <TPSA>
103.58

>  <VAdjEq>
0.56466961

>  <VAdjMa>
4.7004399

>  <VDistEq>
2.9196341

>  <VDistMa>
7.3000436

>  <vdw_area>
215.78462

>  <vdw_vol>
208.44078

>  <vsa_acc>
55.761593

>  <vsa_acid>
0

>  <vsa_base>
0

>  <vsa_don>
11.365152

>  <vsa_hyd>
85.366386

>  <vsa_other>
63.291489

>  <vsa_pol>
67.126747

>  <Weight>
198.18199

>  <weinerPath>
344

>  <weinerPol>
16

>  <zagreb>
56

$$$$
N#CC(C2=CC=CC(OC3=CC=CC=C3)=C2)OC(C1C(C)(C)C1/C=C(Cl)/Cl)=O
  MOE2011           2D

 28 30  0  0  1  0  0  0  0  0999 V2000
    0.0000    0.0000    0.0000 N   0  0  0  0  0  0  0  0  0  0  0  0
   -0.7390   -1.3050    0.0000 C   0  0  0  0  0  0  0  0  0  0  0  0
   -1.4790   -2.6100    0.0000 C   0  0  3  0  0  0  0  0  0  0  0  0
   -2.9790   -2.6230    0.0000 C   0  0  0  0  0  0  0  0  0  0  0  0
   -3.7180   -3.9280    0.0000 C   0  0  0  0  0  0  0  0  0  0  0  0
   -5.2180   -3.9400    0.0000 C   0  0  0  0  0  0  0  0  0  0  0  0
   -5.9790   -2.6470    0.0000 C   0  0  0  0  0  0  0  0  0  0  0  0
   -5.2390   -1.3420    0.0000 C   0  0  0  0  0  0  0  0  0  0  0  0
   -6.0000   -0.0490    0.0000 O   0  0  0  0  0  0  0  0  0  0  0  0
   -7.5000   -0.0610    0.0000 C   0  0  0  0  0  0  0  0  0  0  0  0
   -8.2600    1.2310    0.0000 C   0  0  0  0  0  0  0  0  0  0  0  0
   -9.7600    1.2190    0.0000 C   0  0  0  0  0  0  0  0  0  0  0  0
  -10.5000   -0.0860    0.0000 C   0  0  0  0  0  0  0  0  0  0  0  0
   -9.7390   -1.3790    0.0000 C   0  0  0  0  0  0  0  0  0  0  0  0
   -8.2390   -1.3670    0.0000 C   0  0  0  0  0  0  0  0  0  0  0  0
   -3.7390   -1.3300    0.0000 C   0  0  0  0  0  0  0  0  0  0  0  0
   -0.7180   -3.9030    0.0000 O   0  0  0  0  0  0  0  0  0  0  0  0
    0.7820   -3.8910    0.0000 C   0  0  0  0  0  0  0  0  0  0  0  0
    1.5430   -5.1840    0.0000 C   0  0  3  0  0  0  0  0  0  0  0  0
    1.5550   -6.6840    0.0000 C   0  0  0  0  0  0  0  0  0  0  0  0
    0.1740   -7.2690    0.0000 C   0  0  0  0  0  0  0  0  0  0  0  0
    1.7630   -8.1690    0.0000 C   0  0  0  0  0  0  0  0  0  0  0  0
    2.8480   -5.9230    0.0000 C   0  0  3  0  0  0  0  0  0  0  0  0
    4.3480   -5.9110    0.0000 C   0  0  0  0  0  0  0  0  0  0  0  0
    5.1080   -7.2040    0.0000 C   0  0  0  0  0  0  0  0  0  0  0  0
    4.3690   -8.5090    0.0000 Cl  0  0  0  0  0  0  0  0  0  0  0  0
    6.6080   -7.1910    0.0000 Cl  0  0  0  0  0  0  0  0  0  0  0  0
    1.5210   -2.5860    0.0000 O   0  0  0  0  0  0  0  0  0  0  0  0
  1  2  3  0  0  0  0
  2  3  1  0  0  0  0
  3  4  1  0  0  0  0
  3 17  1  0  0  0  0
  4  5  1  0  0  0  0
  4 16  2  0  0  0  0
  5  6  2  0  0  0  0
  6  7  1  0  0  0  0
  7  8  2  0  0  0  0
  8  9  1  0  0  0  0
  8 16  1  0  0  0  0
  9 10  1  0  0  0  0
 10 11  1  0  0  0  0
 10 15  2  0  0  0  0
 11 12  2  0  0  0  0
 12 13  1  0  0  0  0
 13 14  2  0  0  0  0
 14 15  1  0  0  0  0
 17 18  1  0  0  0  0
 18 19  1  0  0  0  0
 18 28  2  0  0  0  0
 19 20  1  0  0  0  0
 19 23  1  0  0  0  0
 20 21  1  0  0  0  0
 20 22  1  0  0  0  0
 20 23  1  0  0  0  0
 23 24  1  0  0  0  0
 24 25  2  0  0  0  0
 25 26  1  0  0  0  0
 25 27  1  0  0  0  0
M  END
>  <DSSTox_RID>
40408

>  <DSSTox_CID>
3998

>  <apol>
59.255066

>  <a_acc>
2

>  <a_acid>
0

>  <a_aro>
12

>  <a_base>
0

>  <a_count>
47

>  <a_don>
0

>  <a_heavy>
28

>  <a_hyd>
21

>  <a_IC>
75.492668

>  <a_ICM>
1.606227

>  <a_nB>
0

>  <a_nBr>
0

>  <a_nC>
22

>  <a_nCl>
2

>  <a_nF>
0

>  <a_nH>
19

>  <a_nI>
0

>  <a_nN>
1

>  <a_nO>
3

>  <a_nP>
0

>  <a_nS>
0

>  <balabanJ>
1.5104976

>  <BCUT_PEOE_0>
-2.4677961

>  <BCUT_PEOE_1>
-0.62364984

>  <BCUT_PEOE_2>
0.60887522

>  <BCUT_PEOE_3>
2.8994255

>  <BCUT_SLOGP_0>
-2.3880198

>  <BCUT_SLOGP_1>
-0.49312803

>  <BCUT_SLOGP_2>
0.72477907

>  <BCUT_SLOGP_3>
2.9234679

>  <BCUT_SMR_0>
-2.2294457

>  <BCUT_SMR_1>
-0.45230508

>  <BCUT_SMR_2>
0.76113546

>  <BCUT_SMR_3>
3.1337574

>  <bpol>
27.060932

>  <b_1rotN>
6

>  <b_1rotR>
0.2

>  <b_ar>
12

>  <b_count>
49

>  <b_double>
2

>  <b_heavy>
30

>  <b_rotN>
8

>  <b_rotR>
0.26666668

>  <b_single>
34

>  <b_triple>
1

>  <chi0>
20.31119

>  <chi0v>
16.945299

>  <chi0v_C>
13.005553

>  <chi0_C>
14.896976

>  <chi1>
13.323735

>  <chi1v>
9.5404673

>  <chi1v_C>
7.1307683

>  <chi1_C>
9.251585

>  <chiral>
3

>  <chiral_u>
3

>  <density>
0.84918511

>  <diameter>
15

>  <FCharge>
0

>  <GCUT_PEOE_0>
-0.76415575

>  <GCUT_PEOE_1>
-0.39886576

>  <GCUT_PEOE_2>
0.069389328

>  <GCUT_PEOE_3>
2.6037712

>  <GCUT_SLOGP_0>
-0.84550679

>  <GCUT_SLOGP_1>
-0.25893196

>  <GCUT_SLOGP_2>
0.16456926

>  <GCUT_SLOGP_3>
2.7018528

>  <GCUT_SMR_0>
-0.5098331

>  <GCUT_SMR_1>
-0.19464408

>  <GCUT_SMR_2>
0.21333776

>  <GCUT_SMR_3>
2.854739

>  <Kier1>
22.68

>  <Kier2>
9.8712816

>  <Kier3>
5.3890305

>  <KierA1>
18.730627

>  <KierA2>
8.0913029

>  <KierA3>
4.3937168

>  <KierFlex>
5.4126854

>  <lip_acc>
4

>  <lip_don>
0

>  <lip_druglike>
1

>  <lip_violation>
1

>  <logP(o/w)>
5.70436

>  <logS>
-6.97859

>  <mr>
11.185197

>  <mutagenic>
0

>  <nmol>
1

>  <opr_brigid>
16

>  <opr_leadlike>
1

>  <opr_nring>
3

>  <opr_nrot>
7

>  <opr_violation>
1

>  <PC+>
0

>  <PC->
0

>  <PEOE_PC+>
1.1917638

>  <PEOE_PC->
-1.1917638

>  <PEOE_RPC+>
0.22897145

>  <PEOE_RPC->
0.25742945

>  <PEOE_VSA+0>
189.70193

>  <PEOE_VSA+1>
19.125578

>  <PEOE_VSA+2>
27.130459

>  <PEOE_VSA+3>
0

>  <PEOE_VSA+4>
8.458519

>  <PEOE_VSA+5>
14.708499

>  <PEOE_VSA+6>
0

>  <PEOE_VSA-0>
31.616989

>  <PEOE_VSA-1>
59.163895

>  <PEOE_VSA-2>
0

>  <PEOE_VSA-3>
17.742489

>  <PEOE_VSA-4>
0

>  <PEOE_VSA-5>
16.070677

>  <PEOE_VSA-6>
2.503756

>  <PEOE_VSA_FHYD>
0.8919239

>  <PEOE_VSA_FNEG>
0.32907897

>  <PEOE_VSA_FPNEG>
0.048092533

>  <PEOE_VSA_FPOL>
0.1080761

>  <PEOE_VSA_FPOS>
0.67092103

>  <PEOE_VSA_FPPOS>
0.059983563

>  <PEOE_VSA_HYD>
344.48135

>  <PEOE_VSA_NEG>
127.09781

>  <PEOE_VSA_PNEG>
18.574432

>  <PEOE_VSA_POL>
41.741451

>  <PEOE_VSA_POS>
259.125

>  <PEOE_VSA_PPOS>
23.167019

>  <petitjean>
0.46666667

>  <petitjeanSC>
0.875

>  <Q_PC+>
0

>  <Q_PC->
0

>  <Q_RPC+>
0

>  <Q_RPC->
0

>  <Q_VSA_FHYD>
1

>  <Q_VSA_FNEG>
0

>  <Q_VSA_FPNEG>
0

>  <Q_VSA_FPOL>
0

>  <Q_VSA_FPOS>
1

>  <Q_VSA_FPPOS>
0

>  <Q_VSA_HYD>
386.22281

>  <Q_VSA_NEG>
0

>  <Q_VSA_PNEG>
0

>  <Q_VSA_POL>
0

>  <Q_VSA_POS>
386.22281

>  <Q_VSA_PPOS>
0

>  <radius>
8

>  <reactive>
0

>  <rings>
3

>  <RPC+>
0

>  <RPC->
0

>  <rsynth>
1

>  <SlogP>
6.2734842

>  <SlogP_VSA0>
10.999887

>  <SlogP_VSA1>
7.7454643

>  <SlogP_VSA2>
34.862103

>  <SlogP_VSA3>
47.661102

>  <SlogP_VSA4>
12.007167

>  <SlogP_VSA5>
3.8156381

>  <SlogP_VSA6>
0

>  <SlogP_VSA7>
176.43184

>  <SlogP_VSA8>
6.4686494

>  <SlogP_VSA9>
155.43617

>  <SMR>
10.8065

>  <SMR_VSA0>
34.862103

>  <SMR_VSA1>
42.059242

>  <SMR_VSA2>
8.8215923

>  <SMR_VSA3>
40.558464

>  <SMR_VSA4>
0

>  <SMR_VSA5>
176.43184

>  <SMR_VSA6>
7.7454643

>  <SMR_VSA7>
144.94931

>  <TPSA>
59.32

>  <VAdjEq>
0.38983503

>  <VAdjMa>
5.9068904

>  <VDistEq>
3.669035

>  <VDistMa>
9.3150406

>  <vdw_area>
386.22281

>  <vdw_vol>
467.686

>  <vsa_acc>
31.30941

>  <vsa_acid>
0

>  <vsa_base>
0

>  <vsa_don>
0

>  <vsa_hyd>
308.06693

>  <vsa_other>
46.84647

>  <vsa_pol>
31.30941

>  <Weight>
416.30399

>  <weinerPath>
2244

>  <weinerPol>
39

>  <zagreb>
146

$$$$
ClC1=CC=C(C(CN2C=NC=N2)(C(C)C3CC3)O)C=C1
  MOE2011           2D

 20 22  0  0  1  0  0  0  0  0999 V2000
    0.0000    0.0000    0.0000 Cl  0  0  0  0  0  0  0  0  0  0  0  0
   -1.5000   -0.0020    0.0000 C   0  0  0  0  0  0  0  0  0  0  0  0
   -2.2520    1.2950    0.0000 C   0  0  0  0  0  0  0  0  0  0  0  0
   -3.7520    1.2930    0.0000 C   0  0  0  0  0  0  0  0  0  0  0  0
   -4.5000   -0.0070    0.0000 C   0  0  0  0  0  0  0  0  0  0  0  0
   -6.0000   -0.0100    0.0000 C   0  0  3  0  0  0  0  0  0  0  0  0
   -5.9980   -1.5100    0.0000 C   0  0  0  0  0  0  0  0  0  0  0  0
   -7.2950   -2.2620    0.0000 N   0  0  0  0  0  0  0  0  0  0  0  0
   -7.4500   -3.7540    0.0000 C   0  0  0  0  0  0  0  0  0  0  0  0
   -8.9160   -4.0680    0.0000 N   0  0  0  0  0  0  0  0  0  0  0  0
   -9.6690   -2.7700    0.0000 C   0  0  0  0  0  0  0  0  0  0  0  0
   -8.6670   -1.6540    0.0000 N   0  0  0  0  0  0  0  0  0  0  0  0
   -6.0020    1.4900    0.0000 C   0  0  3  0  0  0  0  0  0  0  0  0
   -4.7050    2.2420    0.0000 C   0  0  0  0  0  0  0  0  0  0  0  0
   -7.3030    2.2380    0.0000 C   0  0  0  0  0  0  0  0  0  0  0  0
   -8.8030    2.2360    0.0000 C   0  0  0  0  0  0  0  0  0  0  0  0
   -8.0550    3.5360    0.0000 C   0  0  0  0  0  0  0  0  0  0  0  0
   -7.5000   -0.0120    0.0000 O   0  0  0  0  0  0  0  0  0  0  0  0
   -3.7480   -1.3050    0.0000 C   0  0  0  0  0  0  0  0  0  0  0  0
   -2.2480   -1.3030    0.0000 C   0  0  0  0  0  0  0  0  0  0  0  0
  1  2  1  0  0  0  0
  2  3  1  0  0  0  0
  2 20  2  0  0  0  0
  3  4  2  0  0  0  0
  4  5  1  0  0  0  0
  5  6  1  0  0  0  0
  5 19  2  0  0  0  0
  6  7  1  0  0  0  0
  6 13  1  0  0  0  0
  6 18  1  0  0  0  0
  7  8  1  0  0  0  0
  8  9  1  0  0  0  0
  8 12  1  0  0  0  0
  9 10  2  0  0  0  0
 10 11  1  0  0  0  0
 11 12  2  0  0  0  0
 13 14  1  0  0  0  0
 13 15  1  0  0  0  0
 15 16  1  0  0  0  0
 15 17  1  0  0  0  0
 16 17  1  0  0  0  0
 19 20  1  0  0  0  0
M  END
>  <DSSTox_RID>
40409

>  <DSSTox_CID>
12601

>  <apol>
44.684273

>  <a_acc>
3

>  <a_acid>
0

>  <a_aro>
11

>  <a_base>
0

>  <a_count>
38

>  <a_don>
1

>  <a_heavy>
20

>  <a_hyd>
14

>  <a_IC>
61.004349

>  <a_ICM>
1.6053776

>  <a_nB>
0

>  <a_nBr>
0

>  <a_nC>
15

>  <a_nCl>
1

>  <a_nF>
0

>  <a_nH>
18

>  <a_nI>
0

>  <a_nN>
3

>  <a_nO>
1

>  <a_nP>
0

>  <a_nS>
0

>  <balabanJ>
1.7107487

>  <BCUT_PEOE_0>
-2.6583509

>  <BCUT_PEOE_1>
-0.5578028

>  <BCUT_PEOE_2>
0.60699916

>  <BCUT_PEOE_3>
2.8438904

>  <BCUT_SLOGP_0>
-2.577852

>  <BCUT_SLOGP_1>
-0.4500899

>  <BCUT_SLOGP_2>
0.75233161

>  <BCUT_SLOGP_3>
2.9521861

>  <BCUT_SMR_0>
-2.422703

>  <BCUT_SMR_1>
-0.35046685

>  <BCUT_SMR_2>
0.82024318

>  <BCUT_SMR_3>
3.0905406

>  <bpol>
23.397726

>  <b_1rotN>
5

>  <b_1rotR>
0.22727273

>  <b_ar>
11

>  <b_count>
40

>  <b_double>
0

>  <b_heavy>
22

>  <b_rotN>
5

>  <b_rotR>
0.22727273

>  <b_single>
29

>  <b_triple>
0

>  <chi0>
14.164926

>  <chi0v>
12.16287

>  <chi0v_C>
9.2401228

>  <chi0_C>
10.173362

>  <chi1>
9.5931721

>  <chi1v>
7.2803526

>  <chi1v_C>
4.9407759

>  <chi1_C>
5.7910771

>  <chiral>
2

>  <chiral_u>
2

>  <density>
0.83718169

>  <diameter>
9

>  <FCharge>
0

>  <GCUT_PEOE_0>
-0.82209539

>  <GCUT_PEOE_1>
-0.37756646

>  <GCUT_PEOE_2>
0.051724833

>  <GCUT_PEOE_3>
2.7244506

>  <GCUT_SLOGP_0>
-0.89617419

>  <GCUT_SLOGP_1>
-0.29266429

>  <GCUT_SLOGP_2>
0.14809579

>  <GCUT_SLOGP_3>
2.8268797

>  <GCUT_SMR_0>
-0.52597219

>  <GCUT_SMR_1>
-0.20462182

>  <GCUT_SMR_2>
0.19475524

>  <GCUT_SMR_3>
2.9671323

>  <Kier1>
14.917356

>  <Kier2>
6.0117188

>  <Kier3>
2.9789076

>  <KierA1>
12.523999

>  <KierA2>
4.9977145

>  <KierA3>
2.4586489

>  <KierFlex>
3.1295688

>  <lip_acc>
4

>  <lip_don>
1

>  <lip_druglike>
1

>  <lip_violation>
0

>  <logP(o/w)>
2.2639999

>  <logS>
-3.83619

>  <mr>
8.0245314

>  <mutagenic>
0

>  <nmol>
1

>  <opr_brigid>
14

>  <opr_leadlike>
1

>  <opr_nring>
3

>  <opr_nrot>
5

>  <opr_violation>
0

>  <PC+>
0

>  <PC->
0

>  <PEOE_PC+>
0.87634641

>  <PEOE_PC->
-0.87634641

>  <PEOE_RPC+>
0.25217062

>  <PEOE_RPC->
0.25924969

>  <PEOE_VSA+0>
99.268044

>  <PEOE_VSA+1>
4.5197463

>  <PEOE_VSA+2>
0

>  <PEOE_VSA+3>
45.090023

>  <PEOE_VSA+4>
24.790518

>  <PEOE_VSA+5>
0

>  <PEOE_VSA+6>
0

>  <PEOE_VSA-0>
31.616989

>  <PEOE_VSA-1>
29.581947

>  <PEOE_VSA-2>
9.4210396

>  <PEOE_VSA-3>
0

>  <PEOE_VSA-4>
19.249496

>  <PEOE_VSA-5>
0

>  <PEOE_VSA-6>
0

>  <PEOE_VSA_FHYD>
0.8328892

>  <PEOE_VSA_FNEG>
0.3410117

>  <PEOE_VSA_FPNEG>
0.073042639

>  <PEOE_VSA_FPOL>
0.1671108

>  <PEOE_VSA_FPOS>
0.6589883

>  <PEOE_VSA_FPPOS>
0.094068162

>  <PEOE_VSA_HYD>
219.49779

>  <PEOE_VSA_NEG>
89.869476

>  <PEOE_VSA_PNEG>
19.249496

>  <PEOE_VSA_POL>
44.040016

>  <PEOE_VSA_POS>
173.66833

>  <PEOE_VSA_PPOS>
24.790518

>  <petitjean>
0.44444445

>  <petitjeanSC>
0.80000001

>  <Q_PC+>
0

>  <Q_PC->
0

>  <Q_RPC+>
0

>  <Q_RPC->
0

>  <Q_VSA_FHYD>
1

>  <Q_VSA_FNEG>
0

>  <Q_VSA_FPNEG>
0

>  <Q_VSA_FPOL>
0

>  <Q_VSA_FPOS>
1

>  <Q_VSA_FPPOS>
0

>  <Q_VSA_HYD>
263.53781

>  <Q_VSA_NEG>
0

>  <Q_VSA_PNEG>
0

>  <Q_VSA_POL>
0

>  <Q_VSA_POS>
263.53781

>  <Q_VSA_PPOS>
0

>  <radius>
5

>  <reactive>
0

>  <rings>
3

>  <RPC+>
0

>  <RPC->
0

>  <rsynth>
0.30000001

>  <SlogP>
3.4433

>  <SlogP_VSA0>
25.385227

>  <SlogP_VSA1>
35.225109

>  <SlogP_VSA2>
0

>  <SlogP_VSA3>
0

>  <SlogP_VSA4>
12.007167

>  <SlogP_VSA5>
0

>  <SlogP_VSA6>
3.5006065

>  <SlogP_VSA7>
104.1438

>  <SlogP_VSA8>
37.736813

>  <SlogP_VSA9>
90.914238

>  <SMR>
7.75808

>  <SMR_VSA0>
0

>  <SMR_VSA1>
60.610332

>  <SMR_VSA2>
8.8215923

>  <SMR_VSA3>
6.6861815

>  <SMR_VSA4>
0

>  <SMR_VSA5>
160.32019

>  <SMR_VSA6>
0

>  <SMR_VSA7>
72.474655

>  <TPSA>
50.939999

>  <VAdjEq>
0.49991596

>  <VAdjMa>
5.4594316

>  <VDistEq>
2.9438889

>  <VDistMa>
8.3822737

>  <vdw_area>
263.53781

>  <vdw_vol>
326.85617

>  <vsa_acc>
15.103616

>  <vsa_acid>
0

>  <vsa_base>
0

>  <vsa_don>
0

>  <vsa_hyd>
185.28624

>  <vsa_other>
49.581036

>  <vsa_pol>
28.670536

>  <Weight>
291.78198

>  <weinerPath>
767

>  <weinerPol>
30

>  <zagreb>
108

$$$$
CC1=NC(NC3=CC=CC=C3)=NC(C2CC2)=C1
  MOE2011           2D

 17 19  0  0  0  0  0  0  0  0999 V2000
    0.0000    0.0000    0.0000 C   0  0  0  0  0  0  0  0  0  0  0  0
   -0.0030   -1.5000    0.0000 C   0  0  0  0  0  0  0  0  0  0  0  0
    1.2950   -2.2530    0.0000 N   0  0  0  0  0  0  0  0  0  0  0  0
    1.2920   -3.7530    0.0000 C   0  0  0  0  0  0  0  0  0  0  0  0
    2.5890   -4.5050    0.0000 N   0  0  0  0  0  0  0  0  0  0  0  0
    3.8900   -3.7580    0.0000 C   0  0  0  0  0  0  0  0  0  0  0  0
    5.1870   -4.5100    0.0000 C   0  0  0  0  0  0  0  0  0  0  0  0
    6.4880   -3.7630    0.0000 C   0  0  0  0  0  0  0  0  0  0  0  0
    6.4910   -2.2630    0.0000 C   0  0  0  0  0  0  0  0  0  0  0  0
    5.1930   -1.5100    0.0000 C   0  0  0  0  0  0  0  0  0  0  0  0
    3.8930   -2.2580    0.0000 C   0  0  0  0  0  0  0  0  0  0  0  0
   -0.0090   -4.5000    0.0000 N   0  0  0  0  0  0  0  0  0  0  0  0
   -1.3060   -3.7470    0.0000 C   0  0  0  0  0  0  0  0  0  0  0  0
   -2.6070   -4.4950    0.0000 C   0  0  0  0  0  0  0  0  0  0  0  0
   -3.3600   -5.7920    0.0000 C   0  0  0  0  0  0  0  0  0  0  0  0
   -4.1070   -4.4920    0.0000 C   0  0  0  0  0  0  0  0  0  0  0  0
   -1.3030   -2.2470    0.0000 C   0  0  0  0  0  0  0  0  0  0  0  0
  1  2  1  0  0  0  0
  2  3  1  0  0  0  0
  2 17  2  0  0  0  0
  3  4  2  0  0  0  0
  4  5  1  0  0  0  0
  4 12  1  0  0  0  0
  5  6  1  0  0  0  0
  6  7  1  0  0  0  0
  6 11  2  0  0  0  0
  7  8  2  0  0  0  0
  8  9  1  0  0  0  0
  9 10  2  0  0  0  0
 10 11  1  0  0  0  0
 12 13  2  0  0  0  0
 13 14  1  0  0  0  0
 13 17  1  0  0  0  0
 14 15  1  0  0  0  0
 14 16  1  0  0  0  0
 15 16  1  0  0  0  0
M  END
>  <DSSTox_RID>
40410

>  <DSSTox_CID>
12359

>  <apol>
37.941895

>  <a_acc>
2

>  <a_acid>
0

>  <a_aro>
12

>  <a_base>
0

>  <a_count>
32

>  <a_don>
1

>  <a_heavy>
17

>  <a_hyd>
13

>  <a_IC>
43.338783

>  <a_ICM>
1.354337

>  <a_nB>
0

>  <a_nBr>
0

>  <a_nC>
14

>  <a_nCl>
0

>  <a_nF>
0

>  <a_nH>
15

>  <a_nI>
0

>  <a_nN>
3

>  <a_nO>
0

>  <a_nP>
0

>  <a_nS>
0

>  <balabanJ>
1.5131655

>  <BCUT_PEOE_0>
-2.2966304

>  <BCUT_PEOE_1>
-0.61143845

>  <BCUT_PEOE_2>
0.65854836

>  <BCUT_PEOE_3>
2.7452338

>  <BCUT_SLOGP_0>
-2.2257056

>  <BCUT_SLOGP_1>
-0.5153628

>  <BCUT_SLOGP_2>
0.75906503

>  <BCUT_SLOGP_3>
2.8910427

>  <BCUT_SMR_0>
-2.0059664

>  <BCUT_SMR_1>
-0.46141598

>  <BCUT_SMR_2>
0.81928587

>  <BCUT_SMR_3>
2.9970405

>  <bpol>
19.698105

>  <b_1rotN>
3

>  <b_1rotR>
0.15789473

>  <b_ar>
12

>  <b_count>
34

>  <b_double>
0

>  <b_heavy>
19

>  <b_rotN>
3

>  <b_rotR>
0.15789473

>  <b_single>
22

>  <b_triple>
0

>  <chi0>
11.664926

>  <chi0v>
9.8500929

>  <chi0v_C>
8.4556656

>  <chi0_C>
9.5436058

>  <chi1>
8.3096628

>  <chi1v>
5.9876328

>  <chi1v_C>
4.5932055

>  <chi1_C>
5.8601732

>  <chiral>
0

>  <chiral_u>
0

>  <density>
0.74900883

>  <diameter>
9

>  <FCharge>
0

>  <GCUT_PEOE_0>
-0.76893824

>  <GCUT_PEOE_1>
-0.40391478

>  <GCUT_PEOE_2>
0.073637299

>  <GCUT_PEOE_3>
2.3741117

>  <GCUT_SLOGP_0>
-0.89463818

>  <GCUT_SLOGP_1>
-0.28981391

>  <GCUT_SLOGP_2>
0.15665662

>  <GCUT_SLOGP_3>
2.4988837

>  <GCUT_SMR_0>
-0.48060468

>  <GCUT_SMR_1>
-0.22084665

>  <GCUT_SMR_2>
0.19841124

>  <GCUT_SMR_3>
2.6564662

>  <Kier1>
12.055402

>  <Kier2>
5.3254437

>  <Kier3>
2.8797061

>  <KierA1>
8.4725742

>  <KierA2>
3.6519539

>  <KierA3>
1.9362522

>  <KierFlex>
1.8200853

>  <lip_acc>
3

>  <lip_don>
1

>  <lip_druglike>
1

>  <lip_violation>
0

>  <logP(o/w)>
2.1849999

>  <logS>
-3.4380801

>  <mr>
6.8200393

>  <mutagenic>
0

>  <nmol>
1

>  <opr_brigid>
15

>  <opr_leadlike>
1

>  <opr_nring>
3

>  <opr_nrot>
3

>  <opr_violation>
0

>  <PC+>
0

>  <PC->
0

>  <PEOE_PC+>
0.57162356

>  <PEOE_PC->
-0.57162356

>  <PEOE_RPC+>
0.39223611

>  <PEOE_RPC->
0.38427687

>  <PEOE_VSA+0>
128.6765

>  <PEOE_VSA+1>
49.507103

>  <PEOE_VSA+2>
0

>  <PEOE_VSA+3>
0

>  <PEOE_VSA+4>
15.681574

>  <PEOE_VSA+5>
0

>  <PEOE_VSA+6>
0

>  <PEOE_VSA-0>
0

>  <PEOE_VSA-1>
0

>  <PEOE_VSA-2>
5.6825762

>  <PEOE_VSA-3>
0

>  <PEOE_VSA-4>
11.365152

>  <PEOE_VSA-5>
0

>  <PEOE_VSA-6>
0

>  <PEOE_VSA_FHYD>
0.87176353

>  <PEOE_VSA_FNEG>
0.080828287

>  <PEOE_VSA_FPNEG>
0.053885523

>  <PEOE_VSA_FPOL>
0.12823647

>  <PEOE_VSA_FPOS>
0.91917169

>  <PEOE_VSA_FPPOS>
0.074350946

>  <PEOE_VSA_HYD>
183.86618

>  <PEOE_VSA_NEG>
17.047728

>  <PEOE_VSA_PNEG>
11.365152

>  <PEOE_VSA_POL>
27.046726

>  <PEOE_VSA_POS>
193.86517

>  <PEOE_VSA_PPOS>
15.681574

>  <petitjean>
0.44444445

>  <petitjeanSC>
0.80000001

>  <Q_PC+>
0

>  <Q_PC->
0

>  <Q_RPC+>
0

>  <Q_RPC->
0

>  <Q_VSA_FHYD>
1

>  <Q_VSA_FNEG>
0

>  <Q_VSA_FPNEG>
0

>  <Q_VSA_FPOL>
0

>  <Q_VSA_FPOS>
1

>  <Q_VSA_FPPOS>
0

>  <Q_VSA_HYD>
210.9129

>  <Q_VSA_NEG>
0

>  <Q_VSA_PNEG>
0

>  <Q_VSA_POL>
0

>  <Q_VSA_POS>
210.9129

>  <Q_VSA_PPOS>
0

>  <radius>
5

>  <reactive>
0

>  <rings>
3

>  <RPC+>
0

>  <RPC->
0

>  <rsynth>
1

>  <SlogP>
3.4060199

>  <SlogP_VSA0>
0

>  <SlogP_VSA1>
51.58181

>  <SlogP_VSA2>
0

>  <SlogP_VSA3>
0

>  <SlogP_VSA4>
5.513495

>  <SlogP_VSA5>
0

>  <SlogP_VSA6>
4.4107962

>  <SlogP_VSA7>
105.85911

>  <SlogP_VSA8>
37.736813

>  <SlogP_VSA9>
37.981853

>  <SMR>
6.8468699

>  <SMR_VSA0>
0

>  <SMR_VSA1>
33.57106

>  <SMR_VSA2>
0

>  <SMR_VSA3>
9.9242916

>  <SMR_VSA4>
22.666592

>  <SMR_VSA5>
143.59592

>  <SMR_VSA6>
0

>  <SMR_VSA7>
33.326015

>  <TPSA>
37.810001

>  <VAdjEq>
0.56150466

>  <VAdjMa>
5.2479277

>  <VDistEq>
2.9947913

>  <VDistMa>
7.8671017

>  <vdw_area>
210.9129

>  <vdw_vol>
280.60416

>  <vsa_acc>
11.365152

>  <vsa_acid>
0

>  <vsa_base>
0

>  <vsa_don>
5.6825762

>  <vsa_hyd>
178.18359

>  <vsa_other>
15.681574

>  <vsa_pol>
17.047728

>  <Weight>
225.295

>  <weinerPath>
539

>  <weinerPol>
22

>  <zagreb>
90

$$$$
CN1CN(C)CSC1=S
  MOE2011           2D

  9  9  0  0  1  0  0  0  0  0999 V2000
    0.0000    0.0000    0.0000 C   0  0  0  0  0  0  0  0  0  0  0  0
    0.7540   -1.2970    0.0000 N   0  0  0  0  0  0  0  0  0  0  0  0
    2.2540   -1.2930    0.0000 C   0  0  0  0  0  0  0  0  0  0  0  0
    3.0070   -2.5890    0.0000 N   0  0  3  0  0  0  0  0  0  0  0  0
    4.5070   -2.5850    0.0000 C   0  0  0  0  0  0  0  0  0  0  0  0
    2.2610   -3.8910    0.0000 C   0  0  0  0  0  0  0  0  0  0  0  0
    0.7610   -3.8950    0.0000 S   0  0  0  0  0  0  0  0  0  0  0  0
    0.0070   -2.5980    0.0000 C   0  0  0  0  0  0  0  0  0  0  0  0
   -1.4930   -2.6020    0.0000 S   0  0  0  0  0  0  0  0  0  0  0  0
  1  2  1  0  0  0  0
  2  3  1  0  0  0  0
  2  8  1  0  0  0  0
  3  4  1  0  0  0  0
  4  5  1  0  0  0  0
  4  6  1  0  0  0  0
  6  7  1  0  0  0  0
  7  8  1  0  0  0  0
  8  9  2  0  0  0  0
M  END
>  <DSSTox_RID>
40415

>  <DSSTox_CID>
4902

>  <apol>
23.46793

>  <a_acc>
2

>  <a_acid>
0

>  <a_aro>
0

>  <a_base>
0

>  <a_count>
19

>  <a_don>
0

>  <a_heavy>
9

>  <a_hyd>
4

>  <a_IC>
31.881701

>  <a_ICM>
1.6779842

>  <a_nB>
0

>  <a_nBr>
0

>  <a_nC>
5

>  <a_nCl>
0

>  <a_nF>
0

>  <a_nH>
10

>  <a_nI>
0

>  <a_nN>
2

>  <a_nO>
0

>  <a_nP>
0

>  <a_nS>
2

>  <balabanJ>
2.3616281

>  <BCUT_PEOE_0>
-2.6565368

>  <BCUT_PEOE_1>
-0.090485774

>  <BCUT_PEOE_2>
0.058252525

>  <BCUT_PEOE_3>
2.5294211

>  <BCUT_SLOGP_0>
-2.7497418

>  <BCUT_SLOGP_1>
0.071643509

>  <BCUT_SLOGP_2>
0.123

>  <BCUT_SLOGP_3>
2.4788258

>  <BCUT_SMR_0>
-2.3356926

>  <BCUT_SMR_1>
0.1057

>  <BCUT_SMR_2>
0.29896694

>  <BCUT_SMR_3>
2.8710451

>  <bpol>
18.312071

>  <b_1rotN>
0

>  <b_1rotR>
0

>  <b_ar>
0

>  <b_count>
19

>  <b_double>
1

>  <b_heavy>
9

>  <b_rotN>
0

>  <b_rotR>
0

>  <b_single>
18

>  <b_triple>
0

>  <chi0>
6.8533711

>  <chi0v>
7.2581306

>  <chi0v_C>
3.9142137

>  <chi0_C>
3.9915638

>  <chi1>
4.1983771

>  <chi1v>
4.1574874

>  <chi1v_C>
0

>  <chi1_C>
0

>  <chiral>
0

>  <chiral_u>
0

>  <density>
0.92031348

>  <diameter>
5

>  <FCharge>
0

>  <GCUT_PEOE_0>
-0.83786553

>  <GCUT_PEOE_1>
-0.31275129

>  <GCUT_PEOE_2>
-0.10552973

>  <GCUT_PEOE_3>
2.1603274

>  <GCUT_SLOGP_0>
-0.9657588

>  <GCUT_SLOGP_1>
-0.23394661

>  <GCUT_SLOGP_2>
-0.037

>  <GCUT_SLOGP_3>
2.1670103

>  <GCUT_SMR_0>
-0.50819921

>  <GCUT_SMR_1>
-0.054299999

>  <GCUT_SMR_2>
0.10284311

>  <GCUT_SMR_3>
2.485642

>  <Kier1>
7.1111112

>  <Kier2>
2.7222223

>  <Kier3>
1.704142

>  <KierA1>
8.6188745

>  <KierA2>
3.3845234

>  <KierA3>
2.170511

>  <KierFlex>
3.2411981

>  <lip_acc>
2

>  <lip_don>
0

>  <lip_druglike>
1

>  <lip_violation>
0

>  <logP(o/w)>
0.667

>  <logS>
-1.63459

>  <mr>
4.3005748

>  <mutagenic>
0

>  <nmol>
1

>  <opr_brigid>
6

>  <opr_leadlike>
1

>  <opr_nring>
1

>  <opr_nrot>
1

>  <opr_violation>
0

>  <PC+>
0

>  <PC->
0

>  <PEOE_PC+>
0.59213191

>  <PEOE_PC->
-0.59213191

>  <PEOE_RPC+>
0.25974569

>  <PEOE_RPC->
0.41824901

>  <PEOE_VSA+0>
0

>  <PEOE_VSA+1>
67.79892

>  <PEOE_VSA+2>
53.66008

>  <PEOE_VSA+3>
24.790518

>  <PEOE_VSA+4>
0

>  <PEOE_VSA+5>
0

>  <PEOE_VSA+6>
0

>  <PEOE_VSA-0>
10.651674

>  <PEOE_VSA-1>
19.760618

>  <PEOE_VSA-2>
0

>  <PEOE_VSA-3>
0

>  <PEOE_VSA-4>
0

>  <PEOE_VSA-5>
0

>  <PEOE_VSA-6>
0

>  <PEOE_VSA_FHYD>
1

>  <PEOE_VSA_FNEG>
0.17214978

>  <PEOE_VSA_FPNEG>
0

>  <PEOE_VSA_FPOL>
0

>  <PEOE_VSA_FPOS>
0.82785022

>  <PEOE_VSA_FPPOS>
0

>  <PEOE_VSA_HYD>
176.6618

>  <PEOE_VSA_NEG>
30.412292

>  <PEOE_VSA_PNEG>
0

>  <PEOE_VSA_POL>
0

>  <PEOE_VSA_POS>
146.24951

>  <PEOE_VSA_PPOS>
0

>  <petitjean>
0.40000001

>  <petitjeanSC>
0.66666669

>  <Q_PC+>
0

>  <Q_PC->
0

>  <Q_RPC+>
0

>  <Q_RPC->
0

>  <Q_VSA_FHYD>
1

>  <Q_VSA_FNEG>
0

>  <Q_VSA_FPNEG>
0

>  <Q_VSA_FPOL>
0

>  <Q_VSA_FPOS>
1

>  <Q_VSA_FPPOS>
0

>  <Q_VSA_HYD>
176.6618

>  <Q_VSA_NEG>
0

>  <Q_VSA_PNEG>
0

>  <Q_VSA_POL>
0

>  <Q_VSA_POS>
176.6618

>  <Q_VSA_PPOS>
0

>  <radius>
3

>  <reactive>
0

>  <rings>
1

>  <RPC+>
0

>  <RPC->
0

>  <rsynth>
1

>  <SlogP>
0.7967

>  <SlogP_VSA0>
0

>  <SlogP_VSA1>
6.2486277

>  <SlogP_VSA2>
0

>  <SlogP_VSA3>
34.815487

>  <SlogP_VSA4>
0

>  <SlogP_VSA5>
65.794373

>  <SlogP_VSA6>
0

>  <SlogP_VSA7>
0

>  <SlogP_VSA8>
0

>  <SlogP_VSA9>
77.411568

>  <SMR>
4.5451002

>  <SMR_VSA0>
0

>  <SMR_VSA1>
6.2486277

>  <SMR_VSA2>
0

>  <SMR_VSA3>
0

>  <SMR_VSA4>
0

>  <SMR_VSA5>
0

>  <SMR_VSA6>
34.815487

>  <SMR_VSA7>
143.20595

>  <TPSA>
38.57

>  <VAdjEq>
0.7642045

>  <VAdjMa>
4.1699252

>  <VDistEq>
2.0374763

>  <VDistMa>
6.0213828

>  <vdw_area>
176.6618

>  <vdw_vol>
165.37953

>  <vsa_acc>
31.384512

>  <vsa_acid>
0

>  <vsa_base>
0

>  <vsa_don>
0

>  <vsa_hyd>
109.83511

>  <vsa_other>
35.442192

>  <vsa_pol>
31.384512

>  <Weight>
162.28101

>  <weinerPath>
84

>  <weinerPol>
10

>  <zagreb>
42

$$$$
O=[N+](C1=CC(=C(C(=C1)Cl)N)Cl)[O-]
  MOE2011           2D

 12 12  0  0  0  0  0  0  0  0999 V2000
    0.0000    0.0000    0.0000 O   0  0  0  0  0  0  0  0  0  0  0  0
    0.7500    1.2990    0.0000 N   0  3  0  0  0  0  0  0  0  0  0  0
    2.2500    1.2990    0.0000 C   0  0  0  0  0  0  0  0  0  0  0  0
    3.0000    2.5980    0.0000 C   0  0  0  0  0  0  0  0  0  0  0  0
    4.5000    2.5980    0.0000 C   0  0  0  0  0  0  0  0  0  0  0  0
    5.2500    1.2990    0.0000 C   0  0  0  0  0  0  0  0  0  0  0  0
    4.5000    0.0000    0.0000 C   0  0  0  0  0  0  0  0  0  0  0  0
    3.0000    0.0000    0.0000 C   0  0  0  0  0  0  0  0  0  0  0  0
    5.2500   -1.2990    0.0000 Cl  0  0  0  0  0  0  0  0  0  0  0  0
    6.7500    1.2990    0.0000 N   0  0  0  0  0  0  0  0  0  0  0  0
    5.2500    3.8970    0.0000 Cl  0  0  0  0  0  0  0  0  0  0  0  0
    0.0000    2.5980    0.0000 O   0  5  0  0  0  0  0  0  0  0  0  0
  1  2  2  0  0  0  0
  2  3  1  0  0  0  0
  2 12  1  0  0  0  0
  3  4  1  0  0  0  0
  3  8  2  0  0  0  0
  4  5  2  0  0  0  0
  5  6  1  0  0  0  0
  5 11  1  0  0  0  0
  6  7  2  0  0  0  0
  6 10  1  0  0  0  0
  7  8  1  0  0  0  0
  7  9  1  0  0  0  0
M  CHG  1   2   1
M  CHG  1  12  -1
M  END
>  <DSSTox_RID>
40422

>  <DSSTox_CID>
426

>  <apol>
21.391172

>  <a_acc>
0

>  <a_acid>
0

>  <a_aro>
6

>  <a_base>
0

>  <a_count>
16

>  <a_don>
1

>  <a_heavy>
12

>  <a_hyd>
9

>  <a_IC>
34.490227

>  <a_ICM>
2.1556392

>  <a_nB>
0

>  <a_nBr>
0

>  <a_nC>
6

>  <a_nCl>
2

>  <a_nF>
0

>  <a_nH>
4

>  <a_nI>
0

>  <a_nN>
2

>  <a_nO>
2

>  <a_nP>
0

>  <a_nS>
0

>  <balabanJ>
2.5739267

>  <BCUT_PEOE_0>
-2.1708851

>  <BCUT_PEOE_1>
-0.66173226

>  <BCUT_PEOE_2>
0.68556738

>  <BCUT_PEOE_3>
2.2417521

>  <BCUT_SLOGP_0>
-2.3142707

>  <BCUT_SLOGP_1>
-0.33550924

>  <BCUT_SLOGP_2>
1.007872

>  <BCUT_SLOGP_3>
2.4118733

>  <BCUT_SMR_0>
-1.8678079

>  <BCUT_SMR_1>
-0.32925081

>  <BCUT_SMR_2>
1.0203836

>  <BCUT_SMR_3>
2.5276926

>  <bpol>
5.8088279

>  <b_1rotN>
1

>  <b_1rotR>
0.083333336

>  <b_ar>
6

>  <b_count>
16

>  <b_double>
1

>  <b_heavy>
12

>  <b_rotN>
1

>  <b_rotR>
0.083333336

>  <b_single>
9

>  <b_triple>
0

>  <chi0>
9.3009653

>  <chi0v>
7.2635479

>  <chi0v_C>
3.1547005

>  <chi0_C>
3.7236147

>  <chi1>
5.5197444

>  <chi1v>
3.6660242

>  <chi1v_C>
1.6547005

>  <chi1_C>
2.2996597

>  <chiral>
0

>  <chiral_u>
0

>  <density>
1.0931644

>  <diameter>
6

>  <FCharge>
0

>  <GCUT_PEOE_0>
-0.8005017

>  <GCUT_PEOE_1>
-0.41832864

>  <GCUT_PEOE_2>
0.045487162

>  <GCUT_PEOE_3>
2.035754

>  <GCUT_SLOGP_0>
-1.3341724

>  <GCUT_SLOGP_1>
-0.1265

>  <GCUT_SLOGP_2>
0.40403664

>  <GCUT_SLOGP_3>
2.2191031

>  <GCUT_SMR_0>
-0.49108905

>  <GCUT_SMR_1>
-0.085293293

>  <GCUT_SMR_2>
0.40666747

>  <GCUT_SMR_3>
2.3236027

>  <Kier1>
10.083333

>  <Kier2>
3.8062284

>  <Kier3>
2.25

>  <KierA1>
9.1054821

>  <KierA2>
3.4025795

>  <KierA3>
1.995472

>  <KierFlex>
2.5818439

>  <lip_acc>
4

>  <lip_don>
2

>  <lip_druglike>
1

>  <lip_violation>
0

>  <logP(o/w)>
2.4230001

>  <logS>
-3.3645699

>  <mr>
4.4858027

>  <mutagenic>
1

>  <nmol>
1

>  <opr_brigid>
6

>  <opr_leadlike>
1

>  <opr_nring>
1

>  <opr_nrot>
1

>  <opr_violation>
0

>  <PC+>
0

>  <PC->
0

>  <PEOE_PC+>
0.77705568

>  <PEOE_PC->
-0.77705568

>  <PEOE_RPC+>
0.37294355

>  <PEOE_RPC->
0.33240482

>  <PEOE_VSA+0>
0

>  <PEOE_VSA+1>
51.384068

>  <PEOE_VSA+2>
0

>  <PEOE_VSA+3>
0

>  <PEOE_VSA+4>
0

>  <PEOE_VSA+5>
6.6995511

>  <PEOE_VSA+6>
0

>  <PEOE_VSA-0>
0

>  <PEOE_VSA-1>
76.90638

>  <PEOE_VSA-2>
0

>  <PEOE_VSA-3>
0

>  <PEOE_VSA-4>
0

>  <PEOE_VSA-5>
33.931049

>  <PEOE_VSA-6>
0

>  <PEOE_VSA_FHYD>
0.75946987

>  <PEOE_VSA_FNEG>
0.65614933

>  <PEOE_VSA_FPNEG>
0.20086928

>  <PEOE_VSA_FPOL>
0.24053012

>  <PEOE_VSA_FPOS>
0.34385067

>  <PEOE_VSA_FPPOS>
0.039660841

>  <PEOE_VSA_HYD>
128.29045

>  <PEOE_VSA_NEG>
110.83743

>  <PEOE_VSA_PNEG>
33.931049

>  <PEOE_VSA_POL>
40.6306

>  <PEOE_VSA_POS>
58.083618

>  <PEOE_VSA_PPOS>
6.6995511

>  <petitjean>
0.33333334

>  <petitjeanSC>
0.5

>  <Q_PC+>
0

>  <Q_PC->
0

>  <Q_RPC+>
0

>  <Q_RPC->
0

>  <Q_VSA_FHYD>
1

>  <Q_VSA_FNEG>
0

>  <Q_VSA_FPNEG>
0

>  <Q_VSA_FPOL>
0

>  <Q_VSA_FPOS>
1

>  <Q_VSA_FPPOS>
0

>  <Q_VSA_HYD>
168.92105

>  <Q_VSA_NEG>
0

>  <Q_VSA_PNEG>
0

>  <Q_VSA_POL>
0

>  <Q_VSA_POS>
168.92105

>  <Q_VSA_PPOS>
0

>  <radius>
4

>  <reactive>
0

>  <rings>
1

>  <RPC+>
0

>  <RPC->
0

>  <rsynth>
1

>  <SlogP>
2.4837999

>  <SlogP_VSA0>
32.897186

>  <SlogP_VSA1>
7.0856161

>  <SlogP_VSA2>
0

>  <SlogP_VSA3>
50.935009

>  <SlogP_VSA4>
0

>  <SlogP_VSA5>
0

>  <SlogP_VSA6>
7.0012131

>  <SlogP_VSA7>
35.286369

>  <SlogP_VSA8>
0

>  <SlogP_VSA9>
83.810783

>  <SMR>
4.7528801

>  <SMR_VSA0>
7.0856161

>  <SMR_VSA1>
0

>  <SMR_VSA2>
50.935009

>  <SMR_VSA3>
7.0012131

>  <SMR_VSA4>
5.513495

>  <SMR_VSA5>
68.183556

>  <SMR_VSA6>
0

>  <SMR_VSA7>
78.297287

>  <TPSA>
71.839996

>  <VAdjEq>
0.65002245

>  <VAdjMa>
4.5849624

>  <VDistEq>
2.3822954

>  <VDistMa>
6.878418

>  <vdw_area>
168.92105

>  <vdw_vol>
185.68477

>  <vsa_acc>
0

>  <vsa_acid>
0

>  <vsa_base>
0

>  <vsa_don>
17.742489

>  <vsa_hyd>
117.24751

>  <vsa_other>
33.931049

>  <vsa_pol>
17.742489

>  <Weight>
207.01599

>  <weinerPath>
188

>  <weinerPol>
17

>  <zagreb>
58

$$$$
O=P(OC=C(Cl)Cl)(OC)OC
  MOE2011           2D

 11 10  0  0  0  0  0  0  0  0999 V2000
    0.0000    0.0000    0.0000 O   0  0  0  0  0  0  0  0  0  0  0  0
   -0.7450    1.3020    0.0000 P   0  0  0  0  0  0  0  0  0  0  0  0
    0.5570    2.0470    0.0000 O   0  0  0  0  0  0  0  0  0  0  0  0
    1.8530    1.2920    0.0000 C   0  0  0  0  0  0  0  0  0  0  0  0
    3.1550    2.0360    0.0000 C   0  0  0  0  0  0  0  0  0  0  0  0
    4.4510    1.2810    0.0000 Cl  0  0  0  0  0  0  0  0  0  0  0  0
    3.1610    3.5360    0.0000 Cl  0  0  0  0  0  0  0  0  0  0  0  0
   -2.0470    0.5570    0.0000 O   0  0  0  0  0  0  0  0  0  0  0  0
   -2.0530   -0.9430    0.0000 C   0  0  0  0  0  0  0  0  0  0  0  0
   -1.4890    2.6040    0.0000 O   0  0  0  0  0  0  0  0  0  0  0  0
   -2.9890    2.6100    0.0000 C   0  0  0  0  0  0  0  0  0  0  0  0
  1  2  2  0  0  0  0
  2  3  1  0  0  0  0
  2  8  1  0  0  0  0
  2 10  1  0  0  0  0
  3  4  1  0  0  0  0
  4  5  2  0  0  0  0
  5  6  1  0  0  0  0
  5  7  1  0  0  0  0
  8  9  1  0  0  0  0
 10 11  1  0  0  0  0
M  END
>  <DSSTox_RID>
40423

>  <DSSTox_CID>
449

>  <apol>
22.905552

>  <a_acc>
4

>  <a_acid>
0

>  <a_aro>
0

>  <a_base>
0

>  <a_count>
18

>  <a_don>
0

>  <a_heavy>
11

>  <a_hyd>
5

>  <a_IC>
37.407166

>  <a_ICM>
2.0781758

>  <a_nB>
0

>  <a_nBr>
0

>  <a_nC>
4

>  <a_nCl>
2

>  <a_nF>
0

>  <a_nH>
7

>  <a_nI>
0

>  <a_nN>
0

>  <a_nO>
4

>  <a_nP>
1

>  <a_nS>
0

>  <balabanJ>
3.7021461

>  <BCUT_PEOE_0>
-2.3488076

>  <BCUT_PEOE_1>
-0.16431707

>  <BCUT_PEOE_2>
0.042672176

>  <BCUT_PEOE_3>
2.4214671

>  <BCUT_SLOGP_0>
-2.3304527

>  <BCUT_SLOGP_1>
-0.19699222

>  <BCUT_SLOGP_2>
0.31183332

>  <BCUT_SLOGP_3>
2.5942664

>  <BCUT_SMR_0>
-2.0879807

>  <BCUT_SMR_1>
0.082654998

>  <BCUT_SMR_2>
0.2669667

>  <BCUT_SMR_3>
2.6924751

>  <bpol>
22.67845

>  <b_1rotN>
4

>  <b_1rotR>
0.40000001

>  <b_ar>
0

>  <b_count>
17

>  <b_double>
1

>  <b_heavy>
10

>  <b_rotN>
4

>  <b_rotR>
0.40000001

>  <b_single>
16

>  <b_triple>
0

>  <chi0>
8.905777

>  <chi0v>
8.3197708

>  <chi0v_C>
3.0773504

>  <chi0_C>
3.284457

>  <chi1>
5.0378227

>  <chi1v>
4.6656575

>  <chi1v_C>
0.28867513

>  <chi1_C>
0.40824831

>  <chiral>
0

>  <chiral_u>
0

>  <density>
1.1601049

>  <diameter>
6

>  <FCharge>
0

>  <GCUT_PEOE_0>
-0.72269177

>  <GCUT_PEOE_1>
-0.35249063

>  <GCUT_PEOE_2>
-0.11732782

>  <GCUT_PEOE_3>
1.9312681

>  <GCUT_SLOGP_0>
-1.2929764

>  <GCUT_SLOGP_1>
-0.2732105

>  <GCUT_SLOGP_2>
0.13743816

>  <GCUT_SLOGP_3>
2.0813596

>  <GCUT_SMR_0>
-0.48716274

>  <GCUT_SMR_1>
-0.1324964

>  <GCUT_SMR_2>
0.10556667

>  <GCUT_SMR_3>
2.1908984

>  <Kier1>
11

>  <Kier2>
4.7928996

>  <Kier3>
4.4444447

>  <KierA1>
15.287268

>  <KierA2>
6.8868599

>  <KierA3>
6.5748014

>  <KierFlex>
9.5710249

>  <lip_acc>
4

>  <lip_don>
0

>  <lip_druglike>
1

>  <lip_violation>
0

>  <logP(o/w)>
1.03936

>  <logS>
-1.6688

>  <mr>
4.5483541

>  <mutagenic>
0

>  <nmol>
1

>  <opr_brigid>
1

>  <opr_leadlike>
1

>  <opr_nring>
0

>  <opr_nrot>
4

>  <opr_violation>
0

>  <PC+>
0

>  <PC->
0

>  <PEOE_PC+>
0.98745608

>  <PEOE_PC->
-0.98745608

>  <PEOE_RPC+>
0.42830795

>  <PEOE_RPC->
0.25376767

>  <PEOE_VSA+0>
0

>  <PEOE_VSA+1>
0

>  <PEOE_VSA+2>
28.889427

>  <PEOE_VSA+3>
71.316856

>  <PEOE_VSA+4>
0

>  <PEOE_VSA+5>
0

>  <PEOE_VSA+6>
18.713068

>  <PEOE_VSA-0>
0

>  <PEOE_VSA-1>
59.163895

>  <PEOE_VSA-2>
15.729136

>  <PEOE_VSA-3>
0

>  <PEOE_VSA-4>
4.6659718

>  <PEOE_VSA-5>
9.3319435

>  <PEOE_VSA-6>
0

>  <PEOE_VSA_FHYD>
0.84259212

>  <PEOE_VSA_FNEG>
0.42775044

>  <PEOE_VSA_FPNEG>
0.067359105

>  <PEOE_VSA_FPOL>
0.15740791

>  <PEOE_VSA_FPOS>
0.57224959

>  <PEOE_VSA_FPPOS>
0.090048805

>  <PEOE_VSA_HYD>
175.09932

>  <PEOE_VSA_NEG>
88.890945

>  <PEOE_VSA_PNEG>
13.997915

>  <PEOE_VSA_POL>
32.710983

>  <PEOE_VSA_POS>
118.91936

>  <PEOE_VSA_PPOS>
18.713068

>  <petitjean>
0.5

>  <petitjeanSC>
1

>  <Q_PC+>
0

>  <Q_PC->
0

>  <Q_RPC+>
0

>  <Q_RPC->
0

>  <Q_VSA_FHYD>
1

>  <Q_VSA_FNEG>
0

>  <Q_VSA_FPNEG>
0

>  <Q_VSA_FPOL>
0

>  <Q_VSA_FPOS>
1

>  <Q_VSA_FPPOS>
0

>  <Q_VSA_HYD>
207.8103

>  <Q_VSA_NEG>
0

>  <Q_VSA_PNEG>
0

>  <Q_VSA_POL>
0

>  <Q_VSA_POS>
207.8103

>  <Q_VSA_PPOS>
0

>  <radius>
3

>  <reactive>
0

>  <rings>
0

>  <RPC+>
0

>  <RPC->
0

>  <rsynth>
1

>  <SlogP>
1.6102

>  <SlogP_VSA0>
22.433765

>  <SlogP_VSA1>
0

>  <SlogP_VSA2>
20.764891

>  <SlogP_VSA3>
0

>  <SlogP_VSA4>
0

>  <SlogP_VSA5>
74.583374

>  <SlogP_VSA6>
0

>  <SlogP_VSA7>
19.701038

>  <SlogP_VSA8>
0

>  <SlogP_VSA9>
94.992126

>  <SMR>
4.1812

>  <SMR_VSA0>
43.198654

>  <SMR_VSA1>
0

>  <SMR_VSA2>
0

>  <SMR_VSA3>
3.8156381

>  <SMR_VSA4>
0

>  <SMR_VSA5>
19.701038

>  <SMR_VSA6>
0

>  <SMR_VSA7>
165.75987

>  <TPSA>
44.759998

>  <VAdjEq>
0.64681429

>  <VAdjMa>
4.321928

>  <VDistEq>
2.502368

>  <VDistMa>
6.5948482

>  <vdw_area>
207.8103

>  <vdw_vol>
184.39711

>  <vsa_acc>
29.727053

>  <vsa_acid>
0

>  <vsa_base>
0

>  <vsa_don>
0

>  <vsa_hyd>
152.53923

>  <vsa_other>
25.544022

>  <vsa_pol>
29.727053

>  <Weight>
220.976

>  <weinerPath>
168

>  <weinerPol>
12

>  <zagreb>
46

$$$$
ClC1=CC(Cl)=CC=C1OC2=CC=C(OC(C)C(OC)=O)C=C2
  MOE2011           2D

 22 23  0  0  1  0  0  0  0  0999 V2000
    0.0000    0.0000    0.0000 Cl  0  0  0  0  0  0  0  0  0  0  0  0
    0.7460    1.3010    0.0000 C   0  0  0  0  0  0  0  0  0  0  0  0
   -0.0070    2.5980    0.0000 C   0  0  0  0  0  0  0  0  0  0  0  0
    0.7390    3.8990    0.0000 C   0  0  0  0  0  0  0  0  0  0  0  0
   -0.0140    5.1960    0.0000 Cl  0  0  0  0  0  0  0  0  0  0  0  0
    2.2390    3.9030    0.0000 C   0  0  0  0  0  0  0  0  0  0  0  0
    2.9930    2.6060    0.0000 C   0  0  0  0  0  0  0  0  0  0  0  0
    2.2460    1.3050    0.0000 C   0  0  0  0  0  0  0  0  0  0  0  0
    3.0000    0.0080    0.0000 O   0  0  0  0  0  0  0  0  0  0  0  0
    4.5000    0.0120    0.0000 C   0  0  0  0  0  0  0  0  0  0  0  0
    5.2460    1.3130    0.0000 C   0  0  0  0  0  0  0  0  0  0  0  0
    6.7460    1.3170    0.0000 C   0  0  0  0  0  0  0  0  0  0  0  0
    7.5000    0.0200    0.0000 C   0  0  0  0  0  0  0  0  0  0  0  0
    9.0000    0.0240    0.0000 O   0  0  0  0  0  0  0  0  0  0  0  0
    9.7530   -1.2730    0.0000 C   0  0  3  0  0  0  0  0  0  0  0  0
    9.0070   -2.5740    0.0000 C   0  0  0  0  0  0  0  0  0  0  0  0
   11.2530   -1.2690    0.0000 C   0  0  0  0  0  0  0  0  0  0  0  0
   12.0000    0.0330    0.0000 O   0  0  0  0  0  0  0  0  0  0  0  0
   13.5000    0.0370    0.0000 C   0  0  0  0  0  0  0  0  0  0  0  0
   12.0070   -2.5660    0.0000 O   0  0  0  0  0  0  0  0  0  0  0  0
    6.7530   -1.2810    0.0000 C   0  0  0  0  0  0  0  0  0  0  0  0
    5.2530   -1.2850    0.0000 C   0  0  0  0  0  0  0  0  0  0  0  0
  1  2  1  0  0  0  0
  2  3  1  0  0  0  0
  2  8  2  0  0  0  0
  3  4  2  0  0  0  0
  4  5  1  0  0  0  0
  4  6  1  0  0  0  0
  6  7  2  0  0  0  0
  7  8  1  0  0  0  0
  8  9  1  0  0  0  0
  9 10  1  0  0  0  0
 10 11  1  0  0  0  0
 10 22  2  0  0  0  0
 11 12  2  0  0  0  0
 12 13  1  0  0  0  0
 13 14  1  0  0  0  0
 13 21  2  0  0  0  0
 14 15  1  0  0  0  0
 15 16  1  0  0  0  0
 15 17  1  0  0  0  0
 17 18  1  0  0  0  0
 17 20  2  0  0  0  0
 18 19  1  0  0  0  0
 21 22  1  0  0  0  0
M  END
>  <DSSTox_RID>
40424

>  <DSSTox_CID>
12605

>  <apol>
45.063103

>  <a_acc>
2

>  <a_acid>
0

>  <a_aro>
12

>  <a_base>
0

>  <a_count>
36

>  <a_don>
0

>  <a_heavy>
22

>  <a_hyd>
17

>  <a_IC>
58.814331

>  <a_ICM>
1.6337314

>  <a_nB>
0

>  <a_nBr>
0

>  <a_nC>
16

>  <a_nCl>
2

>  <a_nF>
0

>  <a_nH>
14

>  <a_nI>
0

>  <a_nN>
0

>  <a_nO>
4

>  <a_nP>
0

>  <a_nS>
0

>  <balabanJ>
1.6928611

>  <BCUT_PEOE_0>
-2.4106767

>  <BCUT_PEOE_1>
-0.64376241

>  <BCUT_PEOE_2>
0.68647623

>  <BCUT_PEOE_3>
2.4757934

>  <BCUT_SLOGP_0>
-2.5275812

>  <BCUT_SLOGP_1>
-0.46321392

>  <BCUT_SLOGP_2>
0.79411936

>  <BCUT_SLOGP_3>
2.4584515

>  <BCUT_SMR_0>
-2.18905

>  <BCUT_SMR_1>
-0.42787287

>  <BCUT_SMR_2>
0.8885445

>  <BCUT_SMR_3>
2.6868834

>  <bpol>
22.850899

>  <b_1rotN>
5

>  <b_1rotR>
0.2173913

>  <b_ar>
12

>  <b_count>
37

>  <b_double>
1

>  <b_heavy>
23

>  <b_rotN>
6

>  <b_rotR>
0.26086956

>  <b_single>
24

>  <b_triple>
0

>  <chi0>
16.11252

>  <chi0v>
13.519582

>  <chi0v_C>
9.6188021

>  <chi0_C>
10.991199

>  <chi1>
10.490402

>  <chi1v>
7.2238913

>  <chi1v_C>
4.4254265

>  <chi1_C>
6.0100031

>  <chiral>
1

>  <chiral_u>
1

>  <density>
0.89531064

>  <diameter>
14

>  <FCharge>
0

>  <GCUT_PEOE_0>
-0.76383483

>  <GCUT_PEOE_1>
-0.40218735

>  <GCUT_PEOE_2>
0.036997836

>  <GCUT_PEOE_3>
2.3360932

>  <GCUT_SLOGP_0>
-0.93326104

>  <GCUT_SLOGP_1>
-0.29073223

>  <GCUT_SLOGP_2>
0.16370946

>  <GCUT_SLOGP_3>
2.5031488

>  <GCUT_SMR_0>
-0.50601816

>  <GCUT_SMR_1>
-0.18359141

>  <GCUT_SMR_2>
0.23007552

>  <GCUT_SMR_3>
2.616045

>  <Kier1>
18.340265

>  <Kier2>
8.7408953

>  <Kier3>
5.5514975

>  <KierA1>
16.000666

>  <KierA2>
7.5735521

>  <KierA3>
4.7861538

>  <KierFlex>
5.5082669

>  <lip_acc>
4

>  <lip_don>
0

>  <lip_druglike>
1

>  <lip_violation>
0

>  <logP(o/w)>
4.6737399

>  <logS>
-5.4219298

>  <mr>
8.6742172

>  <mutagenic>
0

>  <nmol>
1

>  <opr_brigid>
12

>  <opr_leadlike>
1

>  <opr_nring>
2

>  <opr_nrot>
5

>  <opr_violation>
1

>  <PC+>
0

>  <PC->
0

>  <PEOE_PC+>
1.3495249

>  <PEOE_PC->
-1.3495249

>  <PEOE_RPC+>
0.22214782

>  <PEOE_RPC->
0.23922192

>  <PEOE_VSA+0>
140.06792

>  <PEOE_VSA+1>
17.498013

>  <PEOE_VSA+2>
16.917038

>  <PEOE_VSA+3>
35.658428

>  <PEOE_VSA+4>
8.458519

>  <PEOE_VSA+5>
14.708499

>  <PEOE_VSA+6>
0

>  <PEOE_VSA-0>
0

>  <PEOE_VSA-1>
59.163895

>  <PEOE_VSA-2>
0

>  <PEOE_VSA-3>
0

>  <PEOE_VSA-4>
0

>  <PEOE_VSA-5>
16.070677

>  <PEOE_VSA-6>
5.0075121

>  <PEOE_VSA_FHYD>
0.8588897

>  <PEOE_VSA_FNEG>
0.25591439

>  <PEOE_VSA_FPNEG>
0.067224227

>  <PEOE_VSA_FPOL>
0.14111032

>  <PEOE_VSA_FPOS>
0.74408561

>  <PEOE_VSA_FPPOS>
0.073886089

>  <PEOE_VSA_HYD>
269.3053

>  <PEOE_VSA_NEG>
80.242081

>  <PEOE_VSA_PNEG>
21.07819

>  <PEOE_VSA_POL>
44.245209

>  <PEOE_VSA_POS>
233.30841

>  <PEOE_VSA_PPOS>
23.167019

>  <petitjean>
0.5

>  <petitjeanSC>
1

>  <Q_PC+>
0

>  <Q_PC->
0

>  <Q_RPC+>
0

>  <Q_RPC->
0

>  <Q_VSA_FHYD>
1

>  <Q_VSA_FNEG>
0

>  <Q_VSA_FPNEG>
0

>  <Q_VSA_FPOL>
0

>  <Q_VSA_FPOS>
1

>  <Q_VSA_FPPOS>
0

>  <Q_VSA_HYD>
313.55051

>  <Q_VSA_NEG>
0

>  <Q_VSA_PNEG>
0

>  <Q_VSA_POL>
0

>  <Q_VSA_POS>
313.55051

>  <Q_VSA_PPOS>
0

>  <radius>
7

>  <reactive>
0

>  <rings>
2

>  <RPC+>
0

>  <RPC->
0

>  <rsynth>
1

>  <SlogP>
4.7259998

>  <SlogP_VSA0>
21.999775

>  <SlogP_VSA1>
7.7454643

>  <SlogP_VSA2>
41.330753

>  <SlogP_VSA3>
0

>  <SlogP_VSA4>
0

>  <SlogP_VSA5>
35.383869

>  <SlogP_VSA6>
7.0012131

>  <SlogP_VSA7>
123.50229

>  <SlogP_VSA8>
0

>  <SlogP_VSA9>
127.35358

>  <SMR>
8.5084

>  <SMR_VSA0>
34.862103

>  <SMR_VSA1>
21.999775

>  <SMR_VSA2>
0

>  <SMR_VSA3>
29.200146

>  <SMR_VSA4>
0

>  <SMR_VSA5>
123.50229

>  <SMR_VSA6>
7.7454643

>  <SMR_VSA7>
147.00717

>  <TPSA>
44.759998

>  <VAdjEq>
0.4530769

>  <VAdjMa>
5.523562

>  <VDistEq>
3.5432322

>  <VDistMa>
8.5759029

>  <vdw_area>
313.55051

>  <vdw_vol>
365.32346

>  <vsa_acc>
16.070677

>  <vsa_acid>
0

>  <vsa_base>
0

>  <vsa_don>
0

>  <vsa_hyd>
277.76379

>  <vsa_other>
19.716011

>  <vsa_pol>
16.070677

>  <Weight>
341.19

>  <weinerPath>
1236

>  <weinerPol>
31

>  <zagreb>
108

$$$$
O=S(C2=NN1C(OCC)=NC(F)=CC1=N2)(NC3=C(Cl)C=CC=C3Cl)=O
  MOE2011           2D

 25 27  0  0  0  0  0  0  0  0999 V2000
    0.0000    0.0000    0.0000 O   0  0  0  0  0  0  0  0  0  0  0  0
    0.7490   -1.3000    0.0000 S   0  0  0  0  0  0  0  0  0  0  0  0
    2.0490   -0.5510    0.0000 C   0  0  0  0  0  0  0  0  0  0  0  0
    3.4180   -1.1620    0.0000 N   0  0  0  0  0  0  0  0  0  0  0  0
    4.4230   -0.0490    0.0000 N   0  0  0  0  0  0  0  0  0  0  0  0
    5.9230   -0.0500    0.0000 C   0  0  0  0  0  0  0  0  0  0  0  0
    6.6720   -1.3500    0.0000 O   0  0  0  0  0  0  0  0  0  0  0  0
    8.1720   -1.3510    0.0000 C   0  0  0  0  0  0  0  0  0  0  0  0
    8.9210   -2.6510    0.0000 C   0  0  0  0  0  0  0  0  0  0  0  0
    6.6740    1.2480    0.0000 N   0  0  0  0  0  0  0  0  0  0  0  0
    5.9250    2.5480    0.0000 C   0  0  0  0  0  0  0  0  0  0  0  0
    6.6770    3.8460    0.0000 F   0  0  0  0  0  0  0  0  0  0  0  0
    4.4250    2.5490    0.0000 C   0  0  0  0  0  0  0  0  0  0  0  0
    3.6740    1.2510    0.0000 C   0  0  0  0  0  0  0  0  0  0  0  0
    2.2070    0.9410    0.0000 N   0  0  0  0  0  0  0  0  0  0  0  0
   -0.5510   -2.0490    0.0000 N   0  0  0  0  0  0  0  0  0  0  0  0
   -1.8490   -1.2970    0.0000 C   0  0  0  0  0  0  0  0  0  0  0  0
   -3.1490   -2.0460    0.0000 C   0  0  0  0  0  0  0  0  0  0  0  0
   -3.1500   -3.5460    0.0000 Cl  0  0  0  0  0  0  0  0  0  0  0  0
   -4.4470   -1.2950    0.0000 C   0  0  0  0  0  0  0  0  0  0  0  0
   -4.4460    0.2050    0.0000 C   0  0  0  0  0  0  0  0  0  0  0  0
   -3.1460    0.9540    0.0000 C   0  0  0  0  0  0  0  0  0  0  0  0
   -1.8480    0.2030    0.0000 C   0  0  0  0  0  0  0  0  0  0  0  0
   -0.5480    0.9510    0.0000 Cl  0  0  0  0  0  0  0  0  0  0  0  0
    1.4980   -2.6000    0.0000 O   0  0  0  0  0  0  0  0  0  0  0  0
  1  2  2  0  0  0  0
  2  3  1  0  0  0  0
  2 16  1  0  0  0  0
  2 25  2  0  0  0  0
  3  4  2  0  0  0  0
  3 15  1  0  0  0  0
  4  5  1  0  0  0  0
  5  6  1  0  0  0  0
  5 14  1  0  0  0  0
  6  7  1  0  0  0  0
  6 10  2  0  0  0  0
  7  8  1  0  0  0  0
  8  9  1  0  0  0  0
 10 11  1  0  0  0  0
 11 12  1  0  0  0  0
 11 13  2  0  0  0  0
 13 14  1  0  0  0  0
 14 15  2  0  0  0  0
 16 17  1  0  0  0  0
 17 18  1  0  0  0  0
 17 23  2  0  0  0  0
 18 19  1  0  0  0  0
 18 20  2  0  0  0  0
 20 21  1  0  0  0  0
 21 22  2  0  0  0  0
 22 23  1  0  0  0  0
 23 24  1  0  0  0  0
M  END
>  <DSSTox_RID>
40425

>  <DSSTox_CID>
14528

>  <apol>
45.270931

>  <a_acc>
5

>  <a_acid>
0

>  <a_aro>
11

>  <a_base>
0

>  <a_count>
35

>  <a_don>
1

>  <a_heavy>
25

>  <a_hyd>
13

>  <a_IC>
79.835381

>  <a_ICM>
2.2810109

>  <a_nB>
0

>  <a_nBr>
0

>  <a_nC>
13

>  <a_nCl>
2

>  <a_nF>
1

>  <a_nH>
10

>  <a_nI>
0

>  <a_nN>
5

>  <a_nO>
3

>  <a_nP>
0

>  <a_nS>
1

>  <balabanJ>
1.6699041

>  <BCUT_PEOE_0>
-2.3768406

>  <BCUT_PEOE_1>
-0.64833468

>  <BCUT_PEOE_2>
0.63410598

>  <BCUT_PEOE_3>
2.4223776

>  <BCUT_SLOGP_0>
-2.4301085

>  <BCUT_SLOGP_1>
-0.48497489

>  <BCUT_SLOGP_2>
0.72718221

>  <BCUT_SLOGP_3>
2.4276934

>  <BCUT_SMR_0>
-2.1469314

>  <BCUT_SMR_1>
-0.35707995

>  <BCUT_SMR_2>
0.90504181

>  <BCUT_SMR_3>
2.7623236

>  <bpol>
26.64707

>  <b_1rotN>
4

>  <b_1rotR>
0.14814815

>  <b_ar>
11

>  <b_count>
37

>  <b_double>
2

>  <b_heavy>
27

>  <b_rotN>
5

>  <b_rotR>
0.18518518

>  <b_single>
24

>  <b_triple>
0

>  <chi0>
18.189871

>  <chi0v>
14.900603

>  <chi0v_C>
7.5165076

>  <chi0_C>
8.5769854

>  <chi1>
11.813699

>  <chi1v>
9.0841417

>  <chi1v_C>
3.0284741

>  <chi1_C>
4.0067668

>  <chiral>
0

>  <chiral_u>
0

>  <density>
1.0374652

>  <diameter>
12

>  <FCharge>
0

>  <GCUT_PEOE_0>
-0.76283312

>  <GCUT_PEOE_1>
-0.41566899

>  <GCUT_PEOE_2>
0.043953579

>  <GCUT_PEOE_3>
2.3991606

>  <GCUT_SLOGP_0>
-0.94992459

>  <GCUT_SLOGP_1>
-0.32962248

>  <GCUT_SLOGP_2>
0.20861085

>  <GCUT_SLOGP_3>
2.4317765

>  <GCUT_SMR_0>
-0.51360542

>  <GCUT_SMR_1>
-0.17584446

>  <GCUT_SMR_2>
0.278552

>  <GCUT_SMR_3>
2.6882617

>  <Kier1>
19.753086

>  <Kier2>
7.9349999

>  <Kier3>
4.2958579

>  <KierA1>
17.579542

>  <KierA2>
7.0259228

>  <KierA3>
3.7891917

>  <KierFlex>
4.9405003

>  <lip_acc>
8

>  <lip_don>
1

>  <lip_druglike>
1

>  <lip_violation>
0

>  <logP(o/w)>
2.652

>  <logS>
-5.4008999

>  <mr>
9.1212654

>  <mutagenic>
0

>  <nmol>
1

>  <opr_brigid>
16

>  <opr_leadlike>
1

>  <opr_nring>
3

>  <opr_nrot>
4

>  <opr_violation>
0

>  <PC+>
0

>  <PC->
0

>  <PEOE_PC+>
1.7095485

>  <PEOE_PC->
-1.7095485

>  <PEOE_RPC+>
0.29439119

>  <PEOE_RPC->
0.17528807

>  <PEOE_VSA+0>
83.533485

>  <PEOE_VSA+1>
34.953594

>  <PEOE_VSA+2>
0

>  <PEOE_VSA+3>
33.249039

>  <PEOE_VSA+4>
13.511857

>  <PEOE_VSA+5>
17.440542

>  <PEOE_VSA+6>
13.166624

>  <PEOE_VSA-0>
9.4210396

>  <PEOE_VSA-1>
67.239098

>  <PEOE_VSA-2>
5.6825762

>  <PEOE_VSA-3>
17.591211

>  <PEOE_VSA-4>
32.016521

>  <PEOE_VSA-5>
2.503756

>  <PEOE_VSA-6>
0

>  <PEOE_VSA_FHYD>
0.76192224

>  <PEOE_VSA_FNEG>
0.40705541

>  <PEOE_VSA_FPNEG>
0.10450894

>  <PEOE_VSA_FPOL>
0.23807774

>  <PEOE_VSA_FPOS>
0.59294456

>  <PEOE_VSA_FPPOS>
0.13356881

>  <PEOE_VSA_HYD>
251.67004

>  <PEOE_VSA_NEG>
134.45421

>  <PEOE_VSA_PNEG>
34.520279

>  <PEOE_VSA_POL>
78.639305

>  <PEOE_VSA_POS>
195.85515

>  <PEOE_VSA_PPOS>
44.119022

>  <petitjean>
0.5

>  <petitjeanSC>
1

>  <Q_PC+>
0

>  <Q_PC->
0

>  <Q_RPC+>
0

>  <Q_RPC->
0

>  <Q_VSA_FHYD>
1

>  <Q_VSA_FNEG>
0

>  <Q_VSA_FPNEG>
0

>  <Q_VSA_FPOL>
0

>  <Q_VSA_FPOS>
1

>  <Q_VSA_FPPOS>
0

>  <Q_VSA_HYD>
330.30936

>  <Q_VSA_NEG>
0

>  <Q_VSA_PNEG>
0

>  <Q_VSA_POL>
0

>  <Q_VSA_POS>
330.30936

>  <Q_VSA_PPOS>
0

>  <radius>
6

>  <reactive>
0

>  <rings>
3

>  <RPC+>
0

>  <RPC->
0

>  <rsynth>
1

>  <SlogP>
2.9078

>  <SlogP_VSA0>
0

>  <SlogP_VSA1>
104.18757

>  <SlogP_VSA2>
17.640631

>  <SlogP_VSA3>
20.926258

>  <SlogP_VSA4>
2.3279202

>  <SlogP_VSA5>
26.170799

>  <SlogP_VSA6>
7.0012131

>  <SlogP_VSA7>
52.929554

>  <SlogP_VSA8>
17.643185

>  <SlogP_VSA9>
129.34016

>  <SMR>
9.0836496

>  <SMR_VSA0>
59.171577

>  <SMR_VSA1>
66.970749

>  <SMR_VSA2>
0.69307917

>  <SMR_VSA3>
18.021324

>  <SMR_VSA4>
19.161745

>  <SMR_VSA5>
52.929554

>  <SMR_VSA6>
42.955215

>  <SMR_VSA7>
118.26405

>  <TPSA>
98.470001

>  <VAdjEq>
0.42433795

>  <VAdjMa>
5.7548876

>  <VDistEq>
3.3408084

>  <VDistMa>
9.0032425

>  <vdw_area>
330.30936

>  <vdw_vol>
381.83929

>  <vsa_acc>
52.802715

>  <vsa_acid>
0

>  <vsa_base>
0

>  <vsa_don>
8.0752068

>  <vsa_hyd>
215.02434

>  <vsa_other>
54.407093

>  <vsa_pol>
60.877922

>  <Weight>
406.22501

>  <weinerPath>
1478

>  <weinerPol>
41

>  <zagreb>
134

$$$$
OC(C1=CC=C(C=C1)Cl)(C2=CC=C(C=C2)Cl)C(Cl)(Cl)Cl
  MOE2011           2D

 20 21  0  0  0  0  0  0  0  0999 V2000
    0.0000    0.0000    0.0000 O   0  0  0  0  0  0  0  0  0  0  0  0
   -0.7600    1.2930    0.0000 C   0  0  0  0  0  0  0  0  0  0  0  0
    0.5340    2.0530    0.0000 C   0  0  0  0  0  0  0  0  0  0  0  0
    0.5220    3.5530    0.0000 C   0  0  0  0  0  0  0  0  0  0  0  0
    1.8160    4.3130    0.0000 C   0  0  0  0  0  0  0  0  0  0  0  0
    3.1200    3.5720    0.0000 C   0  0  0  0  0  0  0  0  0  0  0  0
    3.1320    2.0730    0.0000 C   0  0  0  0  0  0  0  0  0  0  0  0
    1.8380    1.3130    0.0000 C   0  0  0  0  0  0  0  0  0  0  0  0
    4.4140    4.3320    0.0000 Cl  0  0  0  0  0  0  0  0  0  0  0  0
   -1.5190    2.5870    0.0000 C   0  0  0  0  0  0  0  0  0  0  0  0
   -3.0190    2.5760    0.0000 C   0  0  0  0  0  0  0  0  0  0  0  0
   -3.7790    3.8690    0.0000 C   0  0  0  0  0  0  0  0  0  0  0  0
   -3.0390    5.1740    0.0000 C   0  0  0  0  0  0  0  0  0  0  0  0
   -1.5390    5.1850    0.0000 C   0  0  0  0  0  0  0  0  0  0  0  0
   -0.7790    3.8910    0.0000 C   0  0  0  0  0  0  0  0  0  0  0  0
   -3.7980    6.4670    0.0000 Cl  0  0  0  0  0  0  0  0  0  0  0  0
   -2.0530    0.5340    0.0000 C   0  0  0  0  0  0  0  0  0  0  0  0
   -3.3460   -0.2260    0.0000 Cl  0  0  0  0  0  0  0  0  0  0  0  0
   -2.8130    1.8270    0.0000 Cl  0  0  0  0  0  0  0  0  0  0  0  0
   -1.2930   -0.7600    0.0000 Cl  0  0  0  0  0  0  0  0  0  0  0  0
  1  2  1  0  0  0  0
  2  3  1  0  0  0  0
  2 10  1  0  0  0  0
  2 17  1  0  0  0  0
  3  4  1  0  0  0  0
  3  8  2  0  0  0  0
  4  5  2  0  0  0  0
  5  6  1  0  0  0  0
  6  7  2  0  0  0  0
  6  9  1  0  0  0  0
  7  8  1  0  0  0  0
 10 11  1  0  0  0  0
 10 15  2  0  0  0  0
 11 12  2  0  0  0  0
 12 13  1  0  0  0  0
 13 14  2  0  0  0  0
 13 16  1  0  0  0  0
 14 15  1  0  0  0  0
 17 18  1  0  0  0  0
 17 19  1  0  0  0  0
 17 20  1  0  0  0  0
M  END
>  <DSSTox_RID>
40426

>  <DSSTox_CID>
450

>  <apol>
42.343136

>  <a_acc>
1

>  <a_acid>
0

>  <a_aro>
12

>  <a_base>
0

>  <a_count>
29

>  <a_don>
1

>  <a_heavy>
20

>  <a_hyd>
18

>  <a_IC>
47.439514

>  <a_ICM>
1.6358453

>  <a_nB>
0

>  <a_nBr>
0

>  <a_nC>
14

>  <a_nCl>
5

>  <a_nF>
0

>  <a_nH>
9

>  <a_nI>
0

>  <a_nN>
0

>  <a_nO>
1

>  <a_nP>
0

>  <a_nS>
0

>  <balabanJ>
2.1826332

>  <BCUT_PEOE_0>
-2.4416189

>  <BCUT_PEOE_1>
-0.6374526

>  <BCUT_PEOE_2>
0.68177837

>  <BCUT_PEOE_3>
2.5393934

>  <BCUT_SLOGP_0>
-2.3829043

>  <BCUT_SLOGP_1>
-0.5055756

>  <BCUT_SLOGP_2>
0.84112537

>  <BCUT_SLOGP_3>
2.6192262

>  <BCUT_SMR_0>
-2.1793823

>  <BCUT_SMR_1>
-0.44108912

>  <BCUT_SMR_2>
0.88146323

>  <BCUT_SMR_3>
2.793946

>  <bpol>
11.938863

>  <b_1rotN>
2

>  <b_1rotR>
0.095238097

>  <b_ar>
12

>  <b_count>
30

>  <b_double>
0

>  <b_heavy>
21

>  <b_rotN>
3

>  <b_rotR>
0.14285715

>  <b_single>
18

>  <b_triple>
0

>  <chi0>
14.966255

>  <chi0v>
13.735483

>  <chi0v_C>
7.6188021

>  <chi0_C>
8.9662552

>  <chi1>
9.2480373

>  <chi1v>
7.4510746

>  <chi1v_C>
4.3927345

>  <chi1_C>
6.0933366

>  <chiral>
0

>  <chiral_u>
0

>  <density>
1.0238334

>  <diameter>
10

>  <FCharge>
0

>  <GCUT_PEOE_0>
-0.75759065

>  <GCUT_PEOE_1>
-0.38437209

>  <GCUT_PEOE_2>
0.069051288

>  <GCUT_PEOE_3>
2.4492931

>  <GCUT_SLOGP_0>
-0.78230685

>  <GCUT_SLOGP_1>
-0.26386139

>  <GCUT_SLOGP_2>
0.44711238

>  <GCUT_SLOGP_3>
2.6160707

>  <GCUT_SMR_0>
-0.48396859

>  <GCUT_SMR_1>
-0.19381484

>  <GCUT_SMR_2>
0.41114989

>  <GCUT_SMR_3>
2.7535088

>  <Kier1>
16.371881

>  <Kier2>
6.0117188

>  <Kier3>
3.2766211

>  <KierA1>
18.269503

>  <KierA2>
6.7480516

>  <KierA3>
3.693737

>  <KierFlex>
6.1641774

>  <lip_acc>
1

>  <lip_don>
1

>  <lip_druglike>
1

>  <lip_violation>
1

>  <logP(o/w)>
6.0510802

>  <logS>
-6.8001399

>  <mr>
8.5611277

>  <mutagenic>
1

>  <nmol>
1

>  <opr_brigid>
12

>  <opr_leadlike>
1

>  <opr_nring>
2

>  <opr_nrot>
2

>  <opr_violation>
1

>  <PC+>
0

>  <PC->
0

>  <PEOE_PC+>
0.61790317

>  <PEOE_PC->
-0.61790317

>  <PEOE_RPC+>
0.37273923

>  <PEOE_RPC->
0.34443149

>  <PEOE_VSA+0>
67.651054

>  <PEOE_VSA+1>
9.0394926

>  <PEOE_VSA+2>
0

>  <PEOE_VSA+3>
0

>  <PEOE_VSA+4>
0

>  <PEOE_VSA+5>
0

>  <PEOE_VSA+6>
0

>  <PEOE_VSA-0>
63.233978

>  <PEOE_VSA-1>
147.90973

>  <PEOE_VSA-2>
0

>  <PEOE_VSA-3>
0

>  <PEOE_VSA-4>
13.566921

>  <PEOE_VSA-5>
0

>  <PEOE_VSA-6>
0

>  <PEOE_VSA_FHYD>
0.95498717

>  <PEOE_VSA_FNEG>
0.74555326

>  <PEOE_VSA_FPNEG>
0.045012832

>  <PEOE_VSA_FPOL>
0.045012832

>  <PEOE_VSA_FPOS>
0.25444674

>  <PEOE_VSA_FPPOS>
0

>  <PEOE_VSA_HYD>
287.83426

>  <PEOE_VSA_NEG>
224.71063

>  <PEOE_VSA_PNEG>
13.566921

>  <PEOE_VSA_POL>
13.566921

>  <PEOE_VSA_POS>
76.690552

>  <PEOE_VSA_PPOS>
0

>  <petitjean>
0.5

>  <petitjeanSC>
1

>  <Q_PC+>
0

>  <Q_PC->
0

>  <Q_RPC+>
0

>  <Q_RPC->
0

>  <Q_VSA_FHYD>
1

>  <Q_VSA_FNEG>
0

>  <Q_VSA_FPNEG>
0

>  <Q_VSA_FPOL>
0

>  <Q_VSA_FPOS>
1

>  <Q_VSA_FPPOS>
0

>  <Q_VSA_HYD>
301.40118

>  <Q_VSA_NEG>
0

>  <Q_VSA_PNEG>
0

>  <Q_VSA_POL>
0

>  <Q_VSA_POS>
301.40118

>  <Q_VSA_PPOS>
0

>  <radius>
5

>  <reactive>
0

>  <rings>
2

>  <RPC+>
0

>  <RPC->
0

>  <rsynth>
1

>  <SlogP>
5.9109998

>  <SlogP_VSA0>
25.385227

>  <SlogP_VSA1>
0

>  <SlogP_VSA2>
0

>  <SlogP_VSA3>
0

>  <SlogP_VSA4>
6.37115

>  <SlogP_VSA5>
0

>  <SlogP_VSA6>
7.0012131

>  <SlogP_VSA7>
141.14548

>  <SlogP_VSA8>
0

>  <SlogP_VSA9>
195.74323

>  <SMR>
8.6309795

>  <SMR_VSA0>
0

>  <SMR_VSA1>
25.385227

>  <SMR_VSA2>
0

>  <SMR_VSA3>
13.372363

>  <SMR_VSA4>
0

>  <SMR_VSA5>
141.14548

>  <SMR_VSA6>
0

>  <SMR_VSA7>
195.74323

>  <TPSA>
20.23

>  <VAdjEq>
0.48464775

>  <VAdjMa>
5.3923173

>  <VDistEq>
2.9397469

>  <VDistMa>
8.3790979

>  <vdw_area>
301.40118

>  <vdw_vol>
353.0047

>  <vsa_acc>
0

>  <vsa_acid>
0

>  <vsa_base>
0

>  <vsa_don>
0

>  <vsa_hyd>
287.83426

>  <vsa_other>
0

>  <vsa_pol>
13.566921

>  <Weight>
370.48999

>  <weinerPath>
744

>  <weinerPol>
35

>  <zagreb>
106

$$$$
ClC(C=C(OC4=CC=C(Cl)C=C4)C=C3)=C3C2(OC(C)CO2)CN1N=CN=C1
  MOE2011           2D

 27 30  0  0  1  0  0  0  0  0999 V2000
    0.0000    0.0000    0.0000 Cl  0  0  0  0  0  0  0  0  0  0  0  0
    0.7570    1.2950    0.0000 C   0  0  0  0  0  0  0  0  0  0  0  0
    2.2570    1.2870    0.0000 C   0  0  0  0  0  0  0  0  0  0  0  0
    3.0140    2.5820    0.0000 C   0  0  0  0  0  0  0  0  0  0  0  0
    4.5140    2.5740    0.0000 O   0  0  0  0  0  0  0  0  0  0  0  0
    5.2570    1.2720    0.0000 C   0  0  0  0  0  0  0  0  0  0  0  0
    4.5000   -0.0240    0.0000 C   0  0  0  0  0  0  0  0  0  0  0  0
    5.2430   -1.3260    0.0000 C   0  0  0  0  0  0  0  0  0  0  0  0
    6.7430   -1.3340    0.0000 C   0  0  0  0  0  0  0  0  0  0  0  0
    7.4860   -2.6370    0.0000 Cl  0  0  0  0  0  0  0  0  0  0  0  0
    7.5000   -0.0390    0.0000 C   0  0  0  0  0  0  0  0  0  0  0  0
    6.7570    1.2640    0.0000 C   0  0  0  0  0  0  0  0  0  0  0  0
    2.2700    3.8850    0.0000 C   0  0  0  0  0  0  0  0  0  0  0  0
    0.7700    3.8930    0.0000 C   0  0  0  0  0  0  0  0  0  0  0  0
    0.0140    2.5980    0.0000 C   0  0  0  0  0  0  0  0  0  0  0  0
   -1.4860    2.6060    0.0000 C   0  0  3  0  0  0  0  0  0  0  0  0
   -1.6770    1.1180    0.0000 O   0  0  0  0  0  0  0  0  0  0  0  0
   -3.1510    0.8400    0.0000 C   0  0  3  0  0  0  0  0  0  0  0  0
   -3.7920   -0.5170    0.0000 C   0  0  0  0  0  0  0  0  0  0  0  0
   -3.8710    2.1550    0.0000 C   0  0  0  0  0  0  0  0  0  0  0  0
   -2.8430    3.2470    0.0000 O   0  0  0  0  0  0  0  0  0  0  0  0
   -0.7750    3.9270    0.0000 C   0  0  0  0  0  0  0  0  0  0  0  0
   -1.5630    5.2030    0.0000 N   0  0  0  0  0  0  0  0  0  0  0  0
   -3.0590    5.3150    0.0000 N   0  0  0  0  0  0  0  0  0  0  0  0
   -3.4150    6.7730    0.0000 C   0  0  0  0  0  0  0  0  0  0  0  0
   -2.1380    7.5610    0.0000 N   0  0  0  0  0  0  0  0  0  0  0  0
   -0.9940    6.5910    0.0000 C   0  0  0  0  0  0  0  0  0  0  0  0
  1  2  1  0  0  0  0
  2  3  1  0  0  0  0
  2 15  2  0  0  0  0
  3  4  2  0  0  0  0
  4  5  1  0  0  0  0
  4 13  1  0  0  0  0
  5  6  1  0  0  0  0
  6  7  1  0  0  0  0
  6 12  2  0  0  0  0
  7  8  2  0  0  0  0
  8  9  1  0  0  0  0
  9 10  1  0  0  0  0
  9 11  2  0  0  0  0
 11 12  1  0  0  0  0
 13 14  2  0  0  0  0
 14 15  1  0  0  0  0
 15 16  1  0  0  0  0
 16 17  1  0  0  0  0
 16 21  1  0  0  0  0
 16 22  1  0  0  0  0
 17 18  1  0  0  0  0
 18 19  1  0  0  0  0
 18 20  1  0  0  0  0
 20 21  1  0  0  0  0
 22 23  1  0  0  0  0
 23 24  1  0  0  0  0
 23 27  1  0  0  0  0
 24 25  2  0  0  0  0
 25 26  1  0  0  0  0
 26 27  2  0  0  0  0
M  END
>  <DSSTox_RID>
40428

>  <DSSTox_CID>
12372

>  <apol>
54.84148

>  <a_acc>
4

>  <a_acid>
0

>  <a_aro>
17

>  <a_base>
0

>  <a_count>
44

>  <a_don>
0

>  <a_heavy>
27

>  <a_hyd>
18

>  <a_IC>
78.507729

>  <a_ICM>
1.7842665

>  <a_nB>
0

>  <a_nBr>
0

>  <a_nC>
19

>  <a_nCl>
2

>  <a_nF>
0

>  <a_nH>
17

>  <a_nI>
0

>  <a_nN>
3

>  <a_nO>
3

>  <a_nP>
0

>  <a_nS>
0

>  <balabanJ>
1.3546505

>  <BCUT_PEOE_0>
-2.4715645

>  <BCUT_PEOE_1>
-0.62499797

>  <BCUT_PEOE_2>
0.68564242

>  <BCUT_PEOE_3>
2.6847036

>  <BCUT_SLOGP_0>
-2.5196908

>  <BCUT_SLOGP_1>
-0.50533634

>  <BCUT_SLOGP_2>
0.85157764

>  <BCUT_SLOGP_3>
2.7079997

>  <BCUT_SMR_0>
-2.252708

>  <BCUT_SMR_1>
-0.44381469

>  <BCUT_SMR_2>
0.90075892

>  <BCUT_SMR_3>
2.897372

>  <bpol>
28.472519

>  <b_1rotN>
5

>  <b_1rotR>
0.16666667

>  <b_ar>
17

>  <b_count>
47

>  <b_double>
0

>  <b_heavy>
30

>  <b_rotN>
5

>  <b_rotR>
0.16666667

>  <b_single>
30

>  <b_triple>
0

>  <chi0>
18.85516

>  <chi0v>
16.021889

>  <chi0v_C>
11.187716

>  <chi0_C>
12.742276

>  <chi1>
13.038444

>  <chi1v>
9.1723442

>  <chi1v_C>
5.1485529

>  <chi1_C>
6.7271466

>  <chiral>
2

>  <chiral_u>
2

>  <density>
0.89090872

>  <diameter>
14

>  <FCharge>
0

>  <GCUT_PEOE_0>
-0.81753927

>  <GCUT_PEOE_1>
-0.39024943

>  <GCUT_PEOE_2>
0.046313763

>  <GCUT_PEOE_3>
2.6418819

>  <GCUT_SLOGP_0>
-0.89598811

>  <GCUT_SLOGP_1>
-0.29289025

>  <GCUT_SLOGP_2>
0.17717659

>  <GCUT_SLOGP_3>
2.7529707

>  <GCUT_SMR_0>
-0.52267236

>  <GCUT_SMR_1>
-0.20363095

>  <GCUT_SMR_2>
0.23542324

>  <GCUT_SMR_3>
2.8948402

>  <Kier1>
20.280001

>  <Kier2>
8.7885342

>  <Kier3>
4.7755103

>  <KierA1>
17.175686

>  <KierA2>
7.393137

>  <KierA3>
3.9971714

>  <KierFlex>
4.7030444

>  <lip_acc>
6

>  <lip_don>
0

>  <lip_druglike>
1

>  <lip_violation>
1

>  <logP(o/w)>
4.1360002

>  <logS>
-5.71387

>  <mr>
10.476735

>  <mutagenic>
0

>  <nmol>
1

>  <opr_brigid>
22

>  <opr_leadlike>
1

>  <opr_nring>
4

>  <opr_nrot>
6

>  <opr_violation>
1

>  <PC+>
0

>  <PC->
0

>  <PEOE_PC+>
1.6977783

>  <PEOE_PC->
-1.6977783

>  <PEOE_RPC+>
0.13626277

>  <PEOE_RPC->
0.19396053

>  <PEOE_VSA+0>
142.27646

>  <PEOE_VSA+1>
17.498013

>  <PEOE_VSA+2>
16.917038

>  <PEOE_VSA+3>
67.148499

>  <PEOE_VSA+4>
25.899061

>  <PEOE_VSA+5>
0

>  <PEOE_VSA+6>
0

>  <PEOE_VSA-0>
0

>  <PEOE_VSA-1>
59.163895

>  <PEOE_VSA-2>
9.4210396

>  <PEOE_VSA-3>
0

>  <PEOE_VSA-4>
5.6825762

>  <PEOE_VSA-5>
0

>  <PEOE_VSA-6>
7.5112681

>  <PEOE_VSA_FHYD>
0.88878828

>  <PEOE_VSA_FNEG>
0.23264474

>  <PEOE_VSA_FPNEG>
0.037533924

>  <PEOE_VSA_FPOL>
0.11121172

>  <PEOE_VSA_FPOS>
0.76735526

>  <PEOE_VSA_FPPOS>
0.073677801

>  <PEOE_VSA_HYD>
312.42493

>  <PEOE_VSA_NEG>
81.778778

>  <PEOE_VSA_PNEG>
13.193845

>  <PEOE_VSA_POL>
39.092907

>  <PEOE_VSA_POS>
269.73907

>  <PEOE_VSA_PPOS>
25.899061

>  <petitjean>
0.5

>  <petitjeanSC>
1

>  <Q_PC+>
0

>  <Q_PC->
0

>  <Q_RPC+>
0

>  <Q_RPC->
0

>  <Q_VSA_FHYD>
1

>  <Q_VSA_FNEG>
0

>  <Q_VSA_FPNEG>
0

>  <Q_VSA_FPOL>
0

>  <Q_VSA_FPOS>
1

>  <Q_VSA_FPPOS>
0

>  <Q_VSA_HYD>
351.51785

>  <Q_VSA_NEG>
0

>  <Q_VSA_PNEG>
0

>  <Q_VSA_POL>
0

>  <Q_VSA_POS>
351.51785

>  <Q_VSA_PPOS>
0

>  <radius>
7

>  <reactive>
0

>  <rings>
4

>  <RPC+>
0

>  <RPC->
0

>  <rsynth>
1

>  <SlogP>
5.2434001

>  <SlogP_VSA0>
10.999887

>  <SlogP_VSA1>
35.225109

>  <SlogP_VSA2>
28.468426

>  <SlogP_VSA3>
20.926258

>  <SlogP_VSA4>
3.185575

>  <SlogP_VSA5>
0

>  <SlogP_VSA6>
7.0012131

>  <SlogP_VSA7>
157.07335

>  <SlogP_VSA8>
0

>  <SlogP_VSA9>
140.54974

>  <SMR>
10.1499

>  <SMR_VSA0>
21.999775

>  <SMR_VSA1>
46.224995

>  <SMR_VSA2>
0

>  <SMR_VSA3>
27.142294

>  <SMR_VSA4>
0

>  <SMR_VSA5>
175.51292

>  <SMR_VSA6>
20.926258

>  <SMR_VSA7>
111.62331

>  <TPSA>
58.400002

>  <VAdjEq>
0.41024774

>  <VAdjMa>
5.9068904

>  <VDistEq>
3.5566189

>  <VDistMa>
9.2040348

>  <vdw_area>
351.51785

>  <vdw_vol>
436.7821

>  <vsa_acc>
20.111128

>  <vsa_acid>
0

>  <vsa_base>
0

>  <vsa_don>
0

>  <vsa_hyd>
278.21338

>  <vsa_other>
53.193336

>  <vsa_pol>
20.111128

>  <Weight>
406.26898

>  <weinerPath>
1930

>  <weinerPol>
40

>  <zagreb>
146

$$$$
O=C(CCl)N(C(C)COC)C1=C(C)SC=C1C
  MOE2011           2D

 17 17  0  0  1  0  0  0  0  0999 V2000
    0.0000    0.0000    0.0000 O   0  0  0  0  0  0  0  0  0  0  0  0
    0.7490    1.2990    0.0000 C   0  0  0  0  0  0  0  0  0  0  0  0
    2.2490    1.3000    0.0000 C   0  0  0  0  0  0  0  0  0  0  0  0
    3.0000    0.0020    0.0000 Cl  0  0  0  0  0  0  0  0  0  0  0  0
   -0.0020    2.5980    0.0000 N   0  0  0  0  0  0  0  0  0  0  0  0
    0.7480    3.8980    0.0000 C   0  0  3  0  0  0  0  0  0  0  0  0
   -0.0030    5.1960    0.0000 C   0  0  0  0  0  0  0  0  0  0  0  0
    2.2480    3.8980    0.0000 C   0  0  0  0  0  0  0  0  0  0  0  0
    2.9970    5.1980    0.0000 O   0  0  0  0  0  0  0  0  0  0  0  0
    4.4970    5.1990    0.0000 C   0  0  0  0  0  0  0  0  0  0  0  0
   -1.5020    2.5970    0.0000 C   0  0  0  0  0  0  0  0  0  0  0  0
   -2.3840    3.8100    0.0000 C   0  0  0  0  0  0  0  0  0  0  0  0
   -1.9210    5.2370    0.0000 C   0  0  0  0  0  0  0  0  0  0  0  0
   -3.8100    3.3460    0.0000 S   0  0  0  0  0  0  0  0  0  0  0  0
   -3.8090    1.8460    0.0000 C   0  0  0  0  0  0  0  0  0  0  0  0
   -2.3830    1.3830    0.0000 C   0  0  0  0  0  0  0  0  0  0  0  0
   -1.9180   -0.0430    0.0000 C   0  0  0  0  0  0  0  0  0  0  0  0
  1  2  2  0  0  0  0
  2  3  1  0  0  0  0
  2  5  1  0  0  0  0
  3  4  1  0  0  0  0
  5  6  1  0  0  0  0
  5 11  1  0  0  0  0
  6  7  1  0  0  0  0
  6  8  1  0  0  0  0
  8  9  1  0  0  0  0
  9 10  1  0  0  0  0
 11 12  2  0  0  0  0
 11 16  1  0  0  0  0
 12 13  1  0  0  0  0
 12 14  1  0  0  0  0
 14 15  1  0  0  0  0
 15 16  2  0  0  0  0
 16 17  1  0  0  0  0
M  END
>  <DSSTox_RID>
40430

>  <DSSTox_CID>
12376

>  <apol>
40.906273

>  <a_acc>
2

>  <a_acid>
0

>  <a_aro>
5

>  <a_base>
0

>  <a_count>
35

>  <a_don>
0

>  <a_heavy>
17

>  <a_hyd>
13

>  <a_IC>
59.446705

>  <a_ICM>
1.6984773

>  <a_nB>
0

>  <a_nBr>
0

>  <a_nC>
12

>  <a_nCl>
1

>  <a_nF>
0

>  <a_nH>
18

>  <a_nI>
0

>  <a_nN>
1

>  <a_nO>
2

>  <a_nP>
0

>  <a_nS>
1

>  <balabanJ>
2.8207054

>  <BCUT_PEOE_0>
-2.6042223

>  <BCUT_PEOE_1>
-0.1476026

>  <BCUT_PEOE_2>
0.056246702

>  <BCUT_PEOE_3>
2.5773065

>  <BCUT_SLOGP_0>
-2.7079966

>  <BCUT_SLOGP_1>
0.019950826

>  <BCUT_SLOGP_2>
0.33564702

>  <BCUT_SLOGP_3>
2.5570347

>  <BCUT_SMR_0>
-2.3333857

>  <BCUT_SMR_1>
0.1057

>  <BCUT_SMR_2>
0.33039629

>  <BCUT_SMR_3>
2.8548055

>  <bpol>
27.231726

>  <b_1rotN>
6

>  <b_1rotR>
0.35294119

>  <b_ar>
5

>  <b_count>
35

>  <b_double>
1

>  <b_heavy>
17

>  <b_rotN>
6

>  <b_rotR>
0.35294119

>  <b_single>
29

>  <b_triple>
0

>  <chi0>
12.999636

>  <chi0v>
12.191262

>  <chi0v_C>
8.5689144

>  <chi0_C>
9.0080719

>  <chi1>
8.0232744

>  <chi1v>
6.8555503

>  <chi1v_C>
3.1278272

>  <chi1_C>
3.6234624

>  <chiral>
1

>  <chiral_u>
1

>  <density>
0.86953902

>  <diameter>
7

>  <FCharge>
0

>  <GCUT_PEOE_0>
-0.82221752

>  <GCUT_PEOE_1>
-0.30207467

>  <GCUT_PEOE_2>
-0.1037533

>  <GCUT_PEOE_3>
2.5237417

>  <GCUT_SLOGP_0>
-1.0035944

>  <GCUT_SLOGP_1>
-0.18077557

>  <GCUT_SLOGP_2>
0.02698301

>  <GCUT_SLOGP_3>
2.598105

>  <GCUT_SMR_0>
-0.51423889

>  <GCUT_SMR_1>
-0.071964934

>  <GCUT_SMR_2>
0.12850951

>  <GCUT_SMR_3>
2.8128762

>  <Kier1>
15.058824

>  <Kier2>
6.8052931

>  <Kier3>
3.4844444

>  <KierA1>
14.964578

>  <KierA2>
6.7599254

>  <KierA3>
3.4600883

>  <KierFlex>
5.9505544

>  <lip_acc>
3

>  <lip_don>
0

>  <lip_druglike>
1

>  <lip_violation>
0

>  <logP(o/w)>
2.323

>  <logS>
-2.84372

>  <mr>
7.422194

>  <mutagenic>
1

>  <nmol>
1

>  <opr_brigid>
5

>  <opr_leadlike>
1

>  <opr_nring>
1

>  <opr_nrot>
5

>  <opr_violation>
0

>  <PC+>
0

>  <PC->
0

>  <PEOE_PC+>
1.1780797

>  <PEOE_PC->
-1.1780797

>  <PEOE_RPC+>
0.21557072

>  <PEOE_RPC->
0.29633322

>  <PEOE_VSA+0>
94.924896

>  <PEOE_VSA+1>
0

>  <PEOE_VSA+2>
6.6995511

>  <PEOE_VSA+3>
95.597221

>  <PEOE_VSA+4>
0

>  <PEOE_VSA+5>
12.949531

>  <PEOE_VSA+6>
0

>  <PEOE_VSA-0>
2.2085397

>  <PEOE_VSA-1>
21.969158

>  <PEOE_VSA-2>
29.581947

>  <PEOE_VSA-3>
0

>  <PEOE_VSA-4>
0

>  <PEOE_VSA-5>
13.566921

>  <PEOE_VSA-6>
2.503756

>  <PEOE_VSA_FHYD>
0.89635694

>  <PEOE_VSA_FNEG>
0.24939264

>  <PEOE_VSA_FPNEG>
0.057394963

>  <PEOE_VSA_FPOL>
0.10364304

>  <PEOE_VSA_FPOS>
0.75060737

>  <PEOE_VSA_FPPOS>
0.046248075

>  <PEOE_VSA_HYD>
250.98132

>  <PEOE_VSA_NEG>
69.830322

>  <PEOE_VSA_PNEG>
16.070677

>  <PEOE_VSA_POL>
29.020208

>  <PEOE_VSA_POS>
210.1712

>  <PEOE_VSA_PPOS>
12.949531

>  <petitjean>
0.42857143

>  <petitjeanSC>
0.75

>  <Q_PC+>
0

>  <Q_PC->
0

>  <Q_RPC+>
0

>  <Q_RPC->
0

>  <Q_VSA_FHYD>
1

>  <Q_VSA_FNEG>
0

>  <Q_VSA_FPNEG>
0

>  <Q_VSA_FPOL>
0

>  <Q_VSA_FPOS>
1

>  <Q_VSA_FPPOS>
0

>  <Q_VSA_HYD>
280.00153

>  <Q_VSA_NEG>
0

>  <Q_VSA_PNEG>
0

>  <Q_VSA_POL>
0

>  <Q_VSA_POS>
280.00153

>  <Q_VSA_PPOS>
0

>  <radius>
4

>  <reactive>
1

>  <rings>
1

>  <RPC+>
0

>  <RPC->
0

>  <rsynth>
0.64705884

>  <SlogP>
2.9716401

>  <SlogP_VSA0>
3.1243138

>  <SlogP_VSA1>
5.2587838

>  <SlogP_VSA2>
38.844074

>  <SlogP_VSA3>
40.109695

>  <SlogP_VSA4>
4.5439763

>  <SlogP_VSA5>
35.383869

>  <SlogP_VSA6>
0

>  <SlogP_VSA7>
15.81601

>  <SlogP_VSA8>
0

>  <SlogP_VSA9>
173.16112

>  <SMR>
7.3337002

>  <SMR_VSA0>
34.862103

>  <SMR_VSA1>
0

>  <SMR_VSA2>
3.1243138

>  <SMR_VSA3>
8.5259447

>  <SMR_VSA4>
2.7567475

>  <SMR_VSA5>
15.81601

>  <SMR_VSA6>
45.368481

>  <SMR_VSA7>
205.78824

>  <TPSA>
29.540001

>  <VAdjEq>
0.52255934

>  <VAdjMa>
5.0874629

>  <VDistEq>
2.6761837

>  <VDistMa>
7.9242687

>  <vdw_area>
280.00153

>  <vdw_vol>
296.31332

>  <vsa_acc>
16.070677

>  <vsa_acid>
0

>  <vsa_base>
0

>  <vsa_don>
0

>  <vsa_hyd>
250.98132

>  <vsa_other>
12.949531

>  <vsa_pol>
16.070677

>  <Weight>
275.79999

>  <weinerPath>
489

>  <weinerPol>
25

>  <zagreb>
80

$$$$
ClC2=CC=C(C=C2)/C(C3=CC(OC)=C(OC)C=C3)=C\C(N1CCOCC1)=O
  MOE2011           2D

 27 29  0  0  0  0  0  0  0  0999 V2000
    0.0000    0.0000    0.0000 Cl  0  0  0  0  0  0  0  0  0  0  0  0
    0.0020   -1.5000    0.0000 C   0  0  0  0  0  0  0  0  0  0  0  0
   -1.2960   -2.2520    0.0000 C   0  0  0  0  0  0  0  0  0  0  0  0
   -1.2930   -3.7520    0.0000 C   0  0  0  0  0  0  0  0  0  0  0  0
    0.0070   -4.5000    0.0000 C   0  0  0  0  0  0  0  0  0  0  0  0
    1.3050   -3.7480    0.0000 C   0  0  0  0  0  0  0  0  0  0  0  0
    1.3020   -2.2480    0.0000 C   0  0  0  0  0  0  0  0  0  0  0  0
    0.0090   -6.0000    0.0000 C   0  0  0  0  0  0  0  0  0  0  0  0
   -1.2890   -6.7520    0.0000 C   0  0  0  0  0  0  0  0  0  0  0  0
   -1.2860   -8.2520    0.0000 C   0  0  0  0  0  0  0  0  0  0  0  0
   -2.5840   -9.0040    0.0000 C   0  0  0  0  0  0  0  0  0  0  0  0
   -2.5820  -10.5040    0.0000 O   0  0  0  0  0  0  0  0  0  0  0  0
   -1.2820  -11.2520    0.0000 C   0  0  0  0  0  0  0  0  0  0  0  0
   -3.8850   -8.2560    0.0000 C   0  0  0  0  0  0  0  0  0  0  0  0
   -5.1820   -9.0080    0.0000 O   0  0  0  0  0  0  0  0  0  0  0  0
   -6.4830   -8.2600    0.0000 C   0  0  0  0  0  0  0  0  0  0  0  0
   -3.8870   -6.7560    0.0000 C   0  0  0  0  0  0  0  0  0  0  0  0
   -2.5890   -6.0040    0.0000 C   0  0  0  0  0  0  0  0  0  0  0  0
    1.3090   -6.7480    0.0000 C   0  0  0  0  0  0  0  0  0  0  0  0
    2.6070   -5.9960    0.0000 C   0  0  0  0  0  0  0  0  0  0  0  0
    3.9070   -6.7440    0.0000 N   0  0  0  0  0  0  0  0  0  0  0  0
    3.9100   -8.2440    0.0000 C   0  0  0  0  0  0  0  0  0  0  0  0
    5.2100   -8.9920    0.0000 C   0  0  0  0  0  0  0  0  0  0  0  0
    6.5080   -8.2400    0.0000 O   0  0  0  0  0  0  0  0  0  0  0  0
    6.5050   -6.7400    0.0000 C   0  0  0  0  0  0  0  0  0  0  0  0
    5.2050   -5.9920    0.0000 C   0  0  0  0  0  0  0  0  0  0  0  0
    2.6050   -4.4960    0.0000 O   0  0  0  0  0  0  0  0  0  0  0  0
  1  2  1  0  0  0  0
  2  3  1  0  0  0  0
  2  7  2  0  0  0  0
  3  4  2  0  0  0  0
  4  5  1  0  0  0  0
  5  6  2  0  0  0  0
  5  8  1  0  0  0  0
  6  7  1  0  0  0  0
  8  9  1  0  0  0  0
  8 19  2  0  0  0  0
  9 10  1  0  0  0  0
  9 18  2  0  0  0  0
 10 11  2  0  0  0  0
 11 12  1  0  0  0  0
 11 14  1  0  0  0  0
 12 13  1  0  0  0  0
 14 15  1  0  0  0  0
 14 17  2  0  0  0  0
 15 16  1  0  0  0  0
 17 18  1  0  0  0  0
 19 20  1  0  0  0  0
 20 21  1  0  0  0  0
 20 27  2  0  0  0  0
 21 22  1  0  0  0  0
 21 26  1  0  0  0  0
 22 23  1  0  0  0  0
 23 24  1  0  0  0  0
 24 25  1  0  0  0  0
 25 26  1  0  0  0  0
M  END
>  <DSSTox_RID>
40432

>  <DSSTox_CID>
14545

>  <apol>
58.117447

>  <a_acc>
4

>  <a_acid>
0

>  <a_aro>
12

>  <a_base>
0

>  <a_count>
49

>  <a_don>
0

>  <a_heavy>
27

>  <a_hyd>
21

>  <a_IC>
76.77462

>  <a_ICM>
1.566829

>  <a_nB>
0

>  <a_nBr>
0

>  <a_nC>
21

>  <a_nCl>
1

>  <a_nF>
0

>  <a_nH>
22

>  <a_nI>
0

>  <a_nN>
1

>  <a_nO>
4

>  <a_nP>
0

>  <a_nS>
0

>  <balabanJ>
1.6742766

>  <BCUT_PEOE_0>
-2.6599622

>  <BCUT_PEOE_1>
-0.60219187

>  <BCUT_PEOE_2>
0.57596409

>  <BCUT_PEOE_3>
2.6059327

>  <BCUT_SLOGP_0>
-2.7857995

>  <BCUT_SLOGP_1>
-0.53807992

>  <BCUT_SLOGP_2>
0.7607336

>  <BCUT_SLOGP_3>
2.4851093

>  <BCUT_SMR_0>
-2.3961875

>  <BCUT_SMR_1>
-0.36586791

>  <BCUT_SMR_2>
0.82729357

>  <BCUT_SMR_3>
2.8587184

>  <bpol>
33.156555

>  <b_1rotN>
6

>  <b_1rotR>
0.20689656

>  <b_ar>
12

>  <b_count>
51

>  <b_double>
2

>  <b_heavy>
29

>  <b_rotN>
6

>  <b_rotR>
0.20689656

>  <b_single>
37

>  <b_triple>
0

>  <chi0>
19.225405

>  <chi0v>
16.161329

>  <chi0v_C>
12.947229

>  <chi0_C>
14.526733

>  <chi1>
13.117723

>  <chi1v>
9.06598

>  <chi1v_C>
5.6367512

>  <chi1_C>
7.5824828

>  <chiral>
0

>  <chiral_u>
0

>  <density>
0.81990445

>  <diameter>
12

>  <FCharge>
0

>  <GCUT_PEOE_0>
-0.8377403

>  <GCUT_PEOE_1>
-0.39574513

>  <GCUT_PEOE_2>
0.018083461

>  <GCUT_PEOE_3>
2.6230903

>  <GCUT_SLOGP_0>
-0.96667475

>  <GCUT_SLOGP_1>
-0.31175721

>  <GCUT_SLOGP_2>
0.12126505

>  <GCUT_SLOGP_3>
2.7093706

>  <GCUT_SMR_0>
-0.51154631

>  <GCUT_SMR_1>
-0.20334592

>  <GCUT_SMR_2>
0.17724018

>  <GCUT_SMR_3>
2.9044831

>  <Kier1>
21.702734

>  <Kier2>
10.683761

>  <Kier3>
5.7577853

>  <KierA1>
17.475172

>  <KierA2>
8.5265064

>  <KierA3>
4.5649114

>  <KierFlex>
5.518599

>  <lip_acc>
5

>  <lip_don>
0

>  <lip_druglike>
1

>  <lip_violation>
0

>  <logP(o/w)>
3.6087401

>  <logS>
-4.8348598

>  <mr>
10.65969

>  <mutagenic>
0

>  <nmol>
1

>  <opr_brigid>
19

>  <opr_leadlike>
1

>  <opr_nring>
3

>  <opr_nrot>
7

>  <opr_violation>
0

>  <PC+>
0

>  <PC->
0

>  <PEOE_PC+>
1.6618279

>  <PEOE_PC->
-1.6618279

>  <PEOE_RPC+>
0.15482451

>  <PEOE_RPC->
0.21040829

>  <PEOE_VSA+0>
117.28508

>  <PEOE_VSA+1>
20.328241

>  <PEOE_VSA+2>
57.516052

>  <PEOE_VSA+3>
115.43381

>  <PEOE_VSA+4>
0

>  <PEOE_VSA+5>
12.949531

>  <PEOE_VSA+6>
0

>  <PEOE_VSA-0>
0

>  <PEOE_VSA-1>
29.581947

>  <PEOE_VSA-2>
0

>  <PEOE_VSA-3>
0

>  <PEOE_VSA-4>
0

>  <PEOE_VSA-5>
13.566921

>  <PEOE_VSA-6>
7.5112681

>  <PEOE_VSA_FHYD>
0.90905881

>  <PEOE_VSA_FNEG>
0.13539234

>  <PEOE_VSA_FPNEG>
0.05633276

>  <PEOE_VSA_FPOL>
0.090941183

>  <PEOE_VSA_FPOS>
0.86460769

>  <PEOE_VSA_FPPOS>
0.03460842

>  <PEOE_VSA_HYD>
340.14514

>  <PEOE_VSA_NEG>
50.660137

>  <PEOE_VSA_PNEG>
21.07819

>  <PEOE_VSA_POL>
34.027721

>  <PEOE_VSA_POS>
323.51273

>  <PEOE_VSA_PPOS>
12.949531

>  <petitjean>
0.5

>  <petitjeanSC>
1

>  <Q_PC+>
0

>  <Q_PC->
0

>  <Q_RPC+>
0

>  <Q_RPC->
0

>  <Q_VSA_FHYD>
1

>  <Q_VSA_FNEG>
0

>  <Q_VSA_FPNEG>
0

>  <Q_VSA_FPOL>
0

>  <Q_VSA_FPOS>
1

>  <Q_VSA_FPPOS>
0

>  <Q_VSA_HYD>
374.17285

>  <Q_VSA_NEG>
0

>  <Q_VSA_PNEG>
0

>  <Q_VSA_POL>
0

>  <Q_VSA_POS>
374.17285

>  <Q_VSA_PPOS>
0

>  <radius>
6

>  <reactive>
0

>  <rings>
3

>  <RPC+>
0

>  <RPC->
0

>  <rsynth>
1

>  <SlogP>
3.4649899

>  <SlogP_VSA0>
21.999775

>  <SlogP_VSA1>
8.3830976

>  <SlogP_VSA2>
34.862103

>  <SlogP_VSA3>
81.917252

>  <SlogP_VSA4>
6.37115

>  <SlogP_VSA5>
70.767738

>  <SlogP_VSA6>
3.5006065

>  <SlogP_VSA7>
141.14548

>  <SlogP_VSA8>
0

>  <SlogP_VSA9>
49.635502

>  <SMR>
10.4414

>  <SMR_VSA0>
34.862103

>  <SMR_VSA1>
25.12409

>  <SMR_VSA2>
3.185575

>  <SMR_VSA3>
20.358612

>  <SMR_VSA4>
0

>  <SMR_VSA5>
141.14548

>  <SMR_VSA6>
83.990456

>  <SMR_VSA7>
109.91638

>  <TPSA>
48

>  <VAdjEq>
0.40063059

>  <VAdjMa>
5.8579812

>  <VDistEq>
3.3550615

>  <VDistMa>
9.2514906

>  <vdw_area>
374.17285

>  <vdw_vol>
446.01172

>  <vsa_acc>
21.07819

>  <vsa_acid>
0

>  <vsa_base>
0

>  <vsa_don>
0

>  <vsa_hyd>
340.14514

>  <vsa_other>
12.949531

>  <vsa_pol>
21.07819

>  <Weight>
387.86298

>  <weinerPath>
1836

>  <weinerPol>
42

>  <zagreb>
136

$$$$
OC(C(C)(C)C)/C(N2N=CN=C2)=C\C1=C(Cl)C=C(Cl)C=C1
  MOE2011           2D

 21 22  0  0  1  0  0  0  0  0999 V2000
    0.0000    0.0000    0.0000 O   0  0  0  0  0  0  0  0  0  0  0  0
   -1.3030   -0.7430    0.0000 C   0  0  3  0  0  0  0  0  0  0  0  0
   -2.5980    0.0140    0.0000 C   0  0  0  0  0  0  0  0  0  0  0  0
   -3.8930    0.7700    0.0000 C   0  0  0  0  0  0  0  0  0  0  0  0
   -3.3550   -1.2820    0.0000 C   0  0  0  0  0  0  0  0  0  0  0  0
   -1.8410    1.3090    0.0000 C   0  0  0  0  0  0  0  0  0  0  0  0
   -1.3110   -2.2430    0.0000 C   0  0  0  0  0  0  0  0  0  0  0  0
   -2.6140   -2.9860    0.0000 N   0  0  0  0  0  0  0  0  0  0  0  0
   -3.9810   -2.3690    0.0000 N   0  0  0  0  0  0  0  0  0  0  0  0
   -4.9900   -3.4790    0.0000 C   0  0  0  0  0  0  0  0  0  0  0  0
   -4.2470   -4.7810    0.0000 N   0  0  0  0  0  0  0  0  0  0  0  0
   -2.7780   -4.4770    0.0000 C   0  0  0  0  0  0  0  0  0  0  0  0
   -0.0160   -3.0000    0.0000 C   0  0  0  0  0  0  0  0  0  0  0  0
    1.2870   -2.2570    0.0000 C   0  0  0  0  0  0  0  0  0  0  0  0
    2.5820   -3.0140    0.0000 C   0  0  0  0  0  0  0  0  0  0  0  0
    2.5750   -4.5140    0.0000 Cl  0  0  0  0  0  0  0  0  0  0  0  0
    3.8850   -2.2700    0.0000 C   0  0  0  0  0  0  0  0  0  0  0  0
    3.8930   -0.7700    0.0000 C   0  0  0  0  0  0  0  0  0  0  0  0
    5.1960   -0.0270    0.0000 Cl  0  0  0  0  0  0  0  0  0  0  0  0
    2.5980   -0.0140    0.0000 C   0  0  0  0  0  0  0  0  0  0  0  0
    1.2950   -0.7570    0.0000 C   0  0  0  0  0  0  0  0  0  0  0  0
  1  2  1  0  0  0  0
  2  3  1  0  0  0  0
  2  7  1  0  0  0  0
  3  4  1  0  0  0  0
  3  5  1  0  0  0  0
  3  6  1  0  0  0  0
  7  8  1  0  0  0  0
  7 13  2  0  0  0  0
  8  9  1  0  0  0  0
  8 12  1  0  0  0  0
  9 10  2  0  0  0  0
 10 11  1  0  0  0  0
 11 12  2  0  0  0  0
 13 14  1  0  0  0  0
 14 15  1  0  0  0  0
 14 21  2  0  0  0  0
 15 16  1  0  0  0  0
 15 17  2  0  0  0  0
 17 18  1  0  0  0  0
 18 19  1  0  0  0  0
 18 20  2  0  0  0  0
 20 21  1  0  0  0  0
M  END
>  <DSSTox_RID>
40434

>  <DSSTox_CID>
20363

>  <apol>
46.197479

>  <a_acc>
3

>  <a_acid>
0

>  <a_aro>
11

>  <a_base>
0

>  <a_count>
38

>  <a_don>
1

>  <a_heavy>
21

>  <a_hyd>
15

>  <a_IC>
64.576134

>  <a_ICM>
1.6993718

>  <a_nB>
0

>  <a_nBr>
0

>  <a_nC>
15

>  <a_nCl>
2

>  <a_nF>
0

>  <a_nH>
17

>  <a_nI>
0

>  <a_nN>
3

>  <a_nO>
1

>  <a_nP>
0

>  <a_nS>
0

>  <balabanJ>
2.0547409

>  <BCUT_PEOE_0>
-2.687628

>  <BCUT_PEOE_1>
-0.55199713

>  <BCUT_PEOE_2>
0.62447578

>  <BCUT_PEOE_3>
2.6678541

>  <BCUT_SLOGP_0>
-2.6547713

>  <BCUT_SLOGP_1>
-0.36873171

>  <BCUT_SLOGP_2>
0.69373935

>  <BCUT_SLOGP_3>
2.7261322

>  <BCUT_SMR_0>
-2.4460685

>  <BCUT_SMR_1>
-0.33774108

>  <BCUT_SMR_2>
0.84746999

>  <BCUT_SMR_3>
2.911123

>  <bpol>
22.72452

>  <b_1rotN>
3

>  <b_1rotR>
0.13636364

>  <b_ar>
11

>  <b_count>
39

>  <b_double>
1

>  <b_heavy>
22

>  <b_rotN>
4

>  <b_rotR>
0.18181819

>  <b_single>
27

>  <b_triple>
0

>  <chi0>
15.620955

>  <chi0v>
13.598093

>  <chi0v_C>
9.5414515

>  <chi0_C>
10.629392

>  <chi1>
9.7867126

>  <chi1v>
7.2412291

>  <chi1v_C>
4.3927345

>  <chi1_C>
5.4048314

>  <chiral>
1

>  <chiral_u>
1

>  <density>
0.87373734

>  <diameter>
9

>  <FCharge>
0

>  <GCUT_PEOE_0>
-0.80491859

>  <GCUT_PEOE_1>
-0.36703986

>  <GCUT_PEOE_2>
0.024602329

>  <GCUT_PEOE_3>
2.5967872

>  <GCUT_SLOGP_0>
-0.89483595

>  <GCUT_SLOGP_1>
-0.26952478

>  <GCUT_SLOGP_2>
0.063760675

>  <GCUT_SLOGP_3>
2.6881337

>  <GCUT_SMR_0>
-0.53129011

>  <GCUT_SMR_1>
-0.1273769

>  <GCUT_SMR_2>
0.25994194

>  <GCUT_SMR_3>
2.8637695

>  <Kier1>
17.355371

>  <Kier2>
7.0507813

>  <Kier3>
4.4875345

>  <KierA1>
15.154298

>  <KierA2>
6.1124506

>  <KierA3>
3.8689058

>  <KierFlex>
4.4109473

>  <lip_acc>
4

>  <lip_don>
1

>  <lip_druglike>
1

>  <lip_violation>
0

>  <logP(o/w)>
3.6789999

>  <logS>
-4.4152198

>  <mr>
8.6323433

>  <mutagenic>
0

>  <nmol>
1

>  <opr_brigid>
12

>  <opr_leadlike>
1

>  <opr_nring>
2

>  <opr_nrot>
4

>  <opr_violation>
0

>  <PC+>
0

>  <PC->
0

>  <PEOE_PC+>
0.93217576

>  <PEOE_PC->
-0.93217576

>  <PEOE_RPC+>
0.23748444

>  <PEOE_RPC->
0.2324224

>  <PEOE_VSA+0>
153.66786

>  <PEOE_VSA+1>
15.739044

>  <PEOE_VSA+2>
0

>  <PEOE_VSA+3>
8.458519

>  <PEOE_VSA+4>
49.581036

>  <PEOE_VSA+5>
0

>  <PEOE_VSA+6>
0

>  <PEOE_VSA-0>
0

>  <PEOE_VSA-1>
59.163895

>  <PEOE_VSA-2>
9.4210396

>  <PEOE_VSA-3>
0

>  <PEOE_VSA-4>
19.249496

>  <PEOE_VSA-5>
0

>  <PEOE_VSA-6>
0

>  <PEOE_VSA_FHYD>
0.78168505

>  <PEOE_VSA_FNEG>
0.27859104

>  <PEOE_VSA_FPNEG>
0.061055068

>  <PEOE_VSA_FPOL>
0.21831495

>  <PEOE_VSA_FPOS>
0.72140896

>  <PEOE_VSA_FPPOS>
0.15725988

>  <PEOE_VSA_HYD>
246.45036

>  <PEOE_VSA_NEG>
87.834427

>  <PEOE_VSA_PNEG>
19.249496

>  <PEOE_VSA_POL>
68.830536

>  <PEOE_VSA_POS>
227.44647

>  <PEOE_VSA_PPOS>
49.581036

>  <petitjean>
0.44444445

>  <petitjeanSC>
0.80000001

>  <Q_PC+>
0

>  <Q_PC->
0

>  <Q_RPC+>
0

>  <Q_RPC->
0

>  <Q_VSA_FHYD>
1

>  <Q_VSA_FNEG>
0

>  <Q_VSA_FPNEG>
0

>  <Q_VSA_FPOL>
0

>  <Q_VSA_FPOS>
1

>  <Q_VSA_FPPOS>
0

>  <Q_VSA_HYD>
315.28088

>  <Q_VSA_NEG>
0

>  <Q_VSA_PNEG>
0

>  <Q_VSA_POL>
0

>  <Q_VSA_POS>
315.28088

>  <Q_VSA_PPOS>
0

>  <radius>
5

>  <reactive>
0

>  <rings>
2

>  <RPC+>
0

>  <RPC->
0

>  <rsynth>
0.61904764

>  <SlogP>
3.99

>  <SlogP_VSA0>
25.385227

>  <SlogP_VSA1>
35.225109

>  <SlogP_VSA2>
6.4686494

>  <SlogP_VSA3>
0

>  <SlogP_VSA4>
3.185575

>  <SlogP_VSA5>
0

>  <SlogP_VSA6>
7.0012131

>  <SlogP_VSA7>
89.257362

>  <SlogP_VSA8>
17.643185

>  <SlogP_VSA9>
178.27533

>  <SMR>
8.6112804

>  <SMR_VSA0>
0

>  <SMR_VSA1>
60.610332

>  <SMR_VSA2>
0

>  <SMR_VSA3>
16.655437

>  <SMR_VSA4>
2.7567475

>  <SMR_VSA5>
86.50061

>  <SMR_VSA6>
17.643185

>  <SMR_VSA7>
178.27533

>  <TPSA>
50.939999

>  <VAdjEq>
0.46827638

>  <VAdjMa>
5.4594316

>  <VDistEq>
3.0202765

>  <VDistMa>
8.5228148

>  <vdw_area>
315.28088

>  <vdw_vol>
353.75732

>  <vsa_acc>
15.103616

>  <vsa_acid>
0

>  <vsa_base>
0

>  <vsa_don>
0

>  <vsa_hyd>
237.02933

>  <vsa_other>
49.581036

>  <vsa_pol>
28.670536

>  <Weight>
326.22699

>  <weinerPath>
897

>  <weinerPol>
30

>  <zagreb>
108

$$$$
C1=CC=CC=C1NC2=CC=CC=C2
  MOE2011           2D

 13 14  0  0  0  0  0  0  0  0999 V2000
    0.0000    0.0000    0.0000 C   0  0  0  0  0  0  0  0  0  0  0  0
    1.2990    0.7500    0.0000 C   0  0  0  0  0  0  0  0  0  0  0  0
    1.2990    2.2500    0.0000 C   0  0  0  0  0  0  0  0  0  0  0  0
    0.0000    3.0000    0.0000 C   0  0  0  0  0  0  0  0  0  0  0  0
   -1.2990    2.2500    0.0000 C   0  0  0  0  0  0  0  0  0  0  0  0
   -1.2990    0.7500    0.0000 C   0  0  0  0  0  0  0  0  0  0  0  0
   -2.5980    0.0000    0.0000 N   0  0  0  0  0  0  0  0  0  0  0  0
   -3.8970    0.7500    0.0000 C   0  0  0  0  0  0  0  0  0  0  0  0
   -3.8970    2.2500    0.0000 C   0  0  0  0  0  0  0  0  0  0  0  0
   -5.1960    3.0000    0.0000 C   0  0  0  0  0  0  0  0  0  0  0  0
   -6.4950    2.2500    0.0000 C   0  0  0  0  0  0  0  0  0  0  0  0
   -6.4950    0.7500    0.0000 C   0  0  0  0  0  0  0  0  0  0  0  0
   -5.1960    0.0000    0.0000 C   0  0  0  0  0  0  0  0  0  0  0  0
  1  2  1  0  0  0  0
  1  6  2  0  0  0  0
  2  3  2  0  0  0  0
  3  4  1  0  0  0  0
  4  5  2  0  0  0  0
  5  6  1  0  0  0  0
  6  7  1  0  0  0  0
  7  8  1  0  0  0  0
  8  9  1  0  0  0  0
  8 13  2  0  0  0  0
  9 10  2  0  0  0  0
 10 11  1  0  0  0  0
 11 12  2  0  0  0  0
 12 13  1  0  0  0  0
M  END
>  <DSSTox_RID>
40436

>  <DSSTox_CID>
1975

>  <apol>
29.554724

>  <a_acc>
0

>  <a_acid>
0

>  <a_aro>
12

>  <a_base>
0

>  <a_count>
24

>  <a_don>
1

>  <a_heavy>
13

>  <a_hyd>
12

>  <a_IC>
28.965803

>  <a_ICM>
1.2069085

>  <a_nB>
0

>  <a_nBr>
0

>  <a_nC>
12

>  <a_nCl>
0

>  <a_nF>
0

>  <a_nH>
11

>  <a_nI>
0

>  <a_nN>
1

>  <a_nO>
0

>  <a_nP>
0

>  <a_nS>
0

>  <balabanJ>
1.7073818

>  <BCUT_PEOE_0>
-2.3006263

>  <BCUT_PEOE_1>
-0.64622784

>  <BCUT_PEOE_2>
0.70008582

>  <BCUT_PEOE_3>
2.2005124

>  <BCUT_SLOGP_0>
-2.1684947

>  <BCUT_SLOGP_1>
-0.53807992

>  <BCUT_SLOGP_2>
0.80591482

>  <BCUT_SLOGP_3>
2.4024682

>  <BCUT_SMR_0>
-1.9309098

>  <BCUT_SMR_1>
-0.49986199

>  <BCUT_SMR_2>
0.85431087

>  <BCUT_SMR_3>
2.5696001

>  <bpol>
12.685277

>  <b_1rotN>
2

>  <b_1rotR>
0.14285715

>  <b_ar>
12

>  <b_count>
25

>  <b_double>
0

>  <b_heavy>
14

>  <b_rotN>
2

>  <b_rotR>
0.14285715

>  <b_single>
13

>  <b_triple>
0

>  <chi0>
8.9328747

>  <chi0v>
7.2735028

>  <chi0v_C>
6.7735028

>  <chi0_C>
8.2257681

>  <chi1>
6.4494896

>  <chi1v>
4.3213673

>  <chi1v_C>
3.8213673

>  <chi1_C>
5.6329932

>  <chiral>
0

>  <chiral_u>
0

>  <density>
0.69745237

>  <diameter>
8

>  <FCharge>
0

>  <GCUT_PEOE_0>
-0.80461657

>  <GCUT_PEOE_1>
-0.38592085

>  <GCUT_PEOE_2>
0.080885269

>  <GCUT_PEOE_3>
2.1811087

>  <GCUT_SLOGP_0>
-0.89447743

>  <GCUT_SLOGP_1>
-0.26386139

>  <GCUT_SLOGP_2>
0.16445385

>  <GCUT_SLOGP_3>
2.3766224

>  <GCUT_SMR_0>
-0.40418866

>  <GCUT_SMR_1>
-0.21605732

>  <GCUT_SMR_2>
0.19305076

>  <GCUT_SMR_3>
2.5088086

>  <Kier1>
9.5510206

>  <Kier2>
5.0242214

>  <Kier3>
3

>  <KierA1>
6.0646915

>  <KierA2>
3.05374

>  <KierA3>
1.7559878

>  <KierFlex>
1.4246148

>  <lip_acc>
1

>  <lip_don>
1

>  <lip_druglike>
1

>  <lip_violation>
0

>  <logP(o/w)>
3.2880001

>  <logS>
-3.0051999

>  <mr>
5.5431533

>  <mutagenic>
0

>  <nmol>
1

>  <opr_brigid>
12

>  <opr_leadlike>
1

>  <opr_nring>
2

>  <opr_nrot>
2

>  <opr_violation>
0

>  <PC+>
0

>  <PC->
0

>  <PEOE_PC+>
0.16747576

>  <PEOE_PC->
-0.16747576

>  <PEOE_RPC+>
0.33317769

>  <PEOE_RPC->
1

>  <PEOE_VSA+0>
158.08495

>  <PEOE_VSA+1>
13.399102

>  <PEOE_VSA+2>
0

>  <PEOE_VSA+3>
0

>  <PEOE_VSA+4>
0

>  <PEOE_VSA+5>
0

>  <PEOE_VSA+6>
0

>  <PEOE_VSA-0>
0

>  <PEOE_VSA-1>
0

>  <PEOE_VSA-2>
0

>  <PEOE_VSA-3>
5.6825762

>  <PEOE_VSA-4>
0

>  <PEOE_VSA-5>
0

>  <PEOE_VSA-6>
0

>  <PEOE_VSA_FHYD>
1

>  <PEOE_VSA_FNEG>
0.032074757

>  <PEOE_VSA_FPNEG>
0

>  <PEOE_VSA_FPOL>
0

>  <PEOE_VSA_FPOS>
0.96792525

>  <PEOE_VSA_FPPOS>
0

>  <PEOE_VSA_HYD>
177.16663

>  <PEOE_VSA_NEG>
5.6825762

>  <PEOE_VSA_PNEG>
0

>  <PEOE_VSA_POL>
0

>  <PEOE_VSA_POS>
171.48405

>  <PEOE_VSA_PPOS>
0

>  <petitjean>
0.5

>  <petitjeanSC>
1

>  <Q_PC+>
0

>  <Q_PC->
0

>  <Q_RPC+>
0

>  <Q_RPC->
0

>  <Q_VSA_FHYD>
1

>  <Q_VSA_FNEG>
0

>  <Q_VSA_FPNEG>
0

>  <Q_VSA_FPOL>
0

>  <Q_VSA_FPOS>
1

>  <Q_VSA_FPPOS>
0

>  <Q_VSA_HYD>
177.16663

>  <Q_VSA_NEG>
0

>  <Q_VSA_PNEG>
0

>  <Q_VSA_POL>
0

>  <Q_VSA_POS>
177.16663

>  <Q_VSA_PPOS>
0

>  <radius>
4

>  <reactive>
0

>  <rings>
2

>  <RPC+>
0

>  <RPC->
0

>  <rsynth>
1

>  <SlogP>
3.4302001

>  <SlogP_VSA0>
0

>  <SlogP_VSA1>
18.01075

>  <SlogP_VSA2>
0

>  <SlogP_VSA3>
0

>  <SlogP_VSA4>
0

>  <SlogP_VSA5>
0

>  <SlogP_VSA6>
0

>  <SlogP_VSA7>
176.43184

>  <SlogP_VSA8>
0

>  <SlogP_VSA9>
5.513495

>  <SMR>
5.6166701

>  <SMR_VSA0>
0

>  <SMR_VSA1>
0

>  <SMR_VSA2>
0

>  <SMR_VSA3>
0

>  <SMR_VSA4>
23.524246

>  <SMR_VSA5>
176.43184

>  <SMR_VSA6>
0

>  <SMR_VSA7>
0

>  <TPSA>
12.03

>  <VAdjEq>
0.64772749

>  <VAdjMa>
4.8073549

>  <VDistEq>
2.7657692

>  <VDistMa>
7.0620117

>  <vdw_area>
177.16663

>  <vdw_vol>
226.73807

>  <vsa_acc>
0

>  <vsa_acid>
0

>  <vsa_base>
0

>  <vsa_don>
5.6825762

>  <vsa_hyd>
171.48405

>  <vsa_other>
0

>  <vsa_pol>
5.6825762

>  <Weight>
169.22699

>  <weinerPath>
264

>  <weinerPol>
14

>  <zagreb>
62

$$$$
CCOP(OCC)(=S)SCCSCC
  MOE2011           2D

 14 13  0  0  0  0  0  0  0  0999 V2000
    0.0000    0.0000    0.0000 C   0  0  0  0  0  0  0  0  0  0  0  0
    0.9780   -1.1380    0.0000 C   0  0  0  0  0  0  0  0  0  0  0  0
    2.4520   -0.8600    0.0000 O   0  0  0  0  0  0  0  0  0  0  0  0
    3.4290   -1.9980    0.0000 P   0  0  0  0  0  0  0  0  0  0  0  0
    2.2920   -2.9750    0.0000 O   0  0  0  0  0  0  0  0  0  0  0  0
    2.5690   -4.4490    0.0000 C   0  0  0  0  0  0  0  0  0  0  0  0
    1.4320   -5.4270    0.0000 C   0  0  0  0  0  0  0  0  0  0  0  0
    4.4070   -3.1350    0.0000 S   0  0  0  0  0  0  0  0  0  0  0  0
    4.5670   -1.0200    0.0000 S   0  0  0  0  0  0  0  0  0  0  0  0
    5.9820   -1.5170    0.0000 C   0  0  0  0  0  0  0  0  0  0  0  0
    7.1200   -0.5390    0.0000 C   0  0  0  0  0  0  0  0  0  0  0  0
    8.5350   -1.0350    0.0000 S   0  0  0  0  0  0  0  0  0  0  0  0
    9.6730   -0.0580    0.0000 C   0  0  0  0  0  0  0  0  0  0  0  0
   11.0890   -0.5540    0.0000 C   0  0  0  0  0  0  0  0  0  0  0  0
  1  2  1  0  0  0  0
  2  3  1  0  0  0  0
  3  4  1  0  0  0  0
  4  5  1  0  0  0  0
  4  8  2  0  0  0  0
  4  9  1  0  0  0  0
  5  6  1  0  0  0  0
  6  7  1  0  0  0  0
  9 10  1  0  0  0  0
 10 11  1  0  0  0  0
 11 12  1  0  0  0  0
 12 13  1  0  0  0  0
 13 14  1  0  0  0  0
M  END
>  <DSSTox_RID>
40437

>  <DSSTox_CID>
2018

>  <apol>
40.683067

>  <a_acc>
2

>  <a_acid>
0

>  <a_aro>
0

>  <a_base>
0

>  <a_count>
33

>  <a_don>
0

>  <a_heavy>
14

>  <a_hyd>
9

>  <a_IC>
54.999496

>  <a_ICM>
1.6666514

>  <a_nB>
0

>  <a_nBr>
0

>  <a_nC>
8

>  <a_nCl>
0

>  <a_nF>
0

>  <a_nH>
19

>  <a_nI>
0

>  <a_nN>
0

>  <a_nO>
2

>  <a_nP>
1

>  <a_nS>
3

>  <balabanJ>
3.7093899

>  <BCUT_PEOE_0>
-2.5181198

>  <BCUT_PEOE_1>
-0.086419143

>  <BCUT_PEOE_2>
0.049179897

>  <BCUT_PEOE_3>
2.5426397

>  <BCUT_SLOGP_0>
-2.4658542

>  <BCUT_SLOGP_1>
0.080826133

>  <BCUT_SLOGP_2>
0.20251581

>  <BCUT_SLOGP_3>
2.7840605

>  <BCUT_SMR_0>
-2.2181525

>  <BCUT_SMR_1>
0.1057

>  <BCUT_SMR_2>
0.37087229

>  <BCUT_SMR_3>
2.9196007

>  <bpol>
33.222935

>  <b_1rotN>
9

>  <b_1rotR>
0.69230771

>  <b_ar>
0

>  <b_count>
32

>  <b_double>
0

>  <b_heavy>
13

>  <b_rotN>
9

>  <b_rotR>
0.69230771

>  <b_single>
32

>  <b_triple>
0

>  <chi0>
10.863961

>  <chi0v>
12.367906

>  <chi0v_C>
6.5355339

>  <chi0_C>
6.5355339

>  <chi1>
6.6819806

>  <chi1v>
10.178527

>  <chi1v_C>
2.6213202

>  <chi1_C>
2.6213202

>  <chiral>
0

>  <chiral_u>
0

>  <density>
0.94903183

>  <diameter>
9

>  <FCharge>
0

>  <GCUT_PEOE_0>
-0.76854122

>  <GCUT_PEOE_1>
-0.29197219

>  <GCUT_PEOE_2>
-0.11082011

>  <GCUT_PEOE_3>
2.2932851

>  <GCUT_SLOGP_0>
-0.84970242

>  <GCUT_SLOGP_1>
-0.083229922

>  <GCUT_SLOGP_2>
0.028054729

>  <GCUT_SLOGP_3>
2.4694409

>  <GCUT_SMR_0>
-0.51723373

>  <GCUT_SMR_1>
-0.054299999

>  <GCUT_SMR_2>
0.20799804

>  <GCUT_SMR_3>
2.624279

>  <Kier1>
14

>  <Kier2>
8.3199997

>  <Kier3>
7.04

>  <KierA1>
21.486345

>  <KierA2>
13.187822

>  <KierA3>
11.434603

>  <KierFlex>
20.239866

>  <lip_acc>
2

>  <lip_don>
0

>  <lip_druglike>
1

>  <lip_violation>
0

>  <logP(o/w)>
3.3540001

>  <logS>
-3.9419701

>  <mr>
7.2593503

>  <mutagenic>
0

>  <nmol>
1

>  <opr_brigid>
0

>  <opr_leadlike>
1

>  <opr_nring>
0

>  <opr_nrot>
9

>  <opr_violation>
0

>  <PC+>
0

>  <PC->
0

>  <PEOE_PC+>
1.078299

>  <PEOE_PC->
-1.078299

>  <PEOE_RPC+>
0.24030779

>  <PEOE_RPC->
0.45182526

>  <PEOE_VSA+0>
88.225349

>  <PEOE_VSA+1>
56.953705

>  <PEOE_VSA+2>
17.784555

>  <PEOE_VSA+3>
0

>  <PEOE_VSA+4>
44.116947

>  <PEOE_VSA+5>
12.467347

>  <PEOE_VSA+6>
0

>  <PEOE_VSA-0>
0

>  <PEOE_VSA-1>
0

>  <PEOE_VSA-2>
19.760618

>  <PEOE_VSA-3>
0

>  <PEOE_VSA-4>
9.3319435

>  <PEOE_VSA-5>
0

>  <PEOE_VSA-6>
33.008488

>  <PEOE_VSA_FHYD>
0.64876586

>  <PEOE_VSA_FNEG>
0.22049096

>  <PEOE_VSA_FPNEG>
0.15033051

>  <PEOE_VSA_FPOL>
0.35123414

>  <PEOE_VSA_FPOS>
0.77950907

>  <PEOE_VSA_FPPOS>
0.20090362

>  <PEOE_VSA_HYD>
182.72423

>  <PEOE_VSA_NEG>
62.101048

>  <PEOE_VSA_PNEG>
42.340431

>  <PEOE_VSA_POL>
98.924728

>  <PEOE_VSA_POS>
219.54791

>  <PEOE_VSA_PPOS>
56.584297

>  <petitjean>
0.44444445

>  <petitjeanSC>
0.80000001

>  <Q_PC+>
0

>  <Q_PC->
0

>  <Q_RPC+>
0

>  <Q_RPC->
0

>  <Q_VSA_FHYD>
1

>  <Q_VSA_FNEG>
0

>  <Q_VSA_FPNEG>
0

>  <Q_VSA_FPOL>
0

>  <Q_VSA_FPOS>
1

>  <Q_VSA_FPPOS>
0

>  <Q_VSA_HYD>
281.64896

>  <Q_VSA_NEG>
0

>  <Q_VSA_PNEG>
0

>  <Q_VSA_POL>
0

>  <Q_VSA_POS>
281.64896

>  <Q_VSA_PPOS>
0

>  <radius>
5

>  <reactive>
0

>  <rings>
0

>  <RPC+>
0

>  <RPC->
0

>  <rsynth>
1

>  <SlogP>
3.7702

>  <SlogP_VSA0>
0

>  <SlogP_VSA1>
0

>  <SlogP_VSA2>
56.537235

>  <SlogP_VSA3>
93.553207

>  <SlogP_VSA4>
0

>  <SlogP_VSA5>
0

>  <SlogP_VSA6>
0

>  <SlogP_VSA7>
0

>  <SlogP_VSA8>
0

>  <SlogP_VSA9>
169.65427

>  <SMR>
7.2996001

>  <SMR_VSA0>
13.843261

>  <SMR_VSA1>
0

>  <SMR_VSA2>
0

>  <SMR_VSA3>
0

>  <SMR_VSA4>
0

>  <SMR_VSA5>
0

>  <SMR_VSA6>
93.553207

>  <SMR_VSA7>
212.34824

>  <TPSA>
50.549999

>  <VAdjEq>
0.56466961

>  <VAdjMa>
4.7004399

>  <VDistEq>
2.9896588

>  <VDistMa>
7.2868671

>  <vdw_area>
281.64896

>  <vdw_vol>
268.96674

>  <vsa_acc>
9.3319435

>  <vsa_acid>
0

>  <vsa_base>
0

>  <vsa_don>
0

>  <vsa_hyd>
205.45659

>  <vsa_other>
66.860428

>  <vsa_pol>
9.3319435

>  <Weight>
274.41

>  <weinerPath>
356

>  <weinerPol>
15

>  <zagreb>
56

$$$$
O=C(SC)C1=C(C(F)F)N=C(C(F)(F)F)C(C(SC)=O)=C1CC(C)C
  MOE2011           2D

 25 25  0  0  0  0  0  0  0  0999 V2000
    0.0000    0.0000    0.0000 O   0  0  0  0  0  0  0  0  0  0  0  0
    0.0070   -1.5000    0.0000 C   0  0  0  0  0  0  0  0  0  0  0  0
    1.3090   -2.2440    0.0000 S   0  0  0  0  0  0  0  0  0  0  0  0
    2.6050   -1.4890    0.0000 C   0  0  0  0  0  0  0  0  0  0  0  0
   -1.2890   -2.2560    0.0000 C   0  0  0  0  0  0  0  0  0  0  0  0
   -1.5430   -3.7340    0.0000 C   0  0  0  0  0  0  0  0  0  0  0  0
   -0.3900   -4.6930    0.0000 C   0  0  0  0  0  0  0  0  0  0  0  0
   -0.6440   -6.1710    0.0000 F   0  0  0  0  0  0  0  0  0  0  0  0
    1.0170   -4.1740    0.0000 F   0  0  0  0  0  0  0  0  0  0  0  0
   -2.9510   -4.2530    0.0000 N   0  0  0  0  0  0  0  0  0  0  0  0
   -4.1040   -3.2940    0.0000 C   0  0  0  0  0  0  0  0  0  0  0  0
   -5.5110   -3.8130    0.0000 C   0  0  0  0  0  0  0  0  0  0  0  0
   -4.9920   -5.2200    0.0000 F   0  0  0  0  0  0  0  0  0  0  0  0
   -6.0300   -2.4060    0.0000 F   0  0  0  0  0  0  0  0  0  0  0  0
   -6.9180   -4.3320    0.0000 F   0  0  0  0  0  0  0  0  0  0  0  0
   -3.8500   -1.8160    0.0000 C   0  0  0  0  0  0  0  0  0  0  0  0
   -5.0030   -0.8560    0.0000 C   0  0  0  0  0  0  0  0  0  0  0  0
   -4.7490    0.6220    0.0000 S   0  0  0  0  0  0  0  0  0  0  0  0
   -5.9020    1.5810    0.0000 C   0  0  0  0  0  0  0  0  0  0  0  0
   -6.4100   -1.3760    0.0000 O   0  0  0  0  0  0  0  0  0  0  0  0
   -2.4430   -1.2960    0.0000 C   0  0  0  0  0  0  0  0  0  0  0  0
   -2.7090    0.1800    0.0000 C   0  0  0  0  0  0  0  0  0  0  0  0
   -1.8540    1.4120    0.0000 C   0  0  0  0  0  0  0  0  0  0  0  0
   -2.4940    2.7690    0.0000 C   0  0  0  0  0  0  0  0  0  0  0  0
   -0.3600    1.2880    0.0000 C   0  0  0  0  0  0  0  0  0  0  0  0
  1  2  2  0  0  0  0
  2  3  1  0  0  0  0
  2  5  1  0  0  0  0
  3  4  1  0  0  0  0
  5  6  1  0  0  0  0
  5 21  2  0  0  0  0
  6  7  1  0  0  0  0
  6 10  2  0  0  0  0
  7  8  1  0  0  0  0
  7  9  1  0  0  0  0
 10 11  1  0  0  0  0
 11 12  1  0  0  0  0
 11 16  2  0  0  0  0
 12 13  1  0  0  0  0
 12 14  1  0  0  0  0
 12 15  1  0  0  0  0
 16 17  1  0  0  0  0
 16 21  1  0  0  0  0
 17 18  1  0  0  0  0
 17 20  2  0  0  0  0
 18 19  1  0  0  0  0
 21 22  1  0  0  0  0
 22 23  1  0  0  0  0
 23 24  1  0  0  0  0
 23 25  1  0  0  0  0
M  END
>  <DSSTox_RID>
40438

>  <DSSTox_CID>
12379

>  <apol>
48.357689

>  <a_acc>
3

>  <a_acid>
0

>  <a_aro>
6

>  <a_base>
0

>  <a_count>
41

>  <a_don>
0

>  <a_heavy>
25

>  <a_hyd>
20

>  <a_IC>
81.446632

>  <a_ICM>
1.9865032

>  <a_nB>
0

>  <a_nBr>
0

>  <a_nC>
15

>  <a_nCl>
0

>  <a_nF>
5

>  <a_nH>
16

>  <a_nI>
0

>  <a_nN>
1

>  <a_nO>
2

>  <a_nP>
0

>  <a_nS>
2

>  <balabanJ>
3.4443238

>  <BCUT_PEOE_0>
-2.612658

>  <BCUT_PEOE_1>
-0.19611096

>  <BCUT_PEOE_2>
0.034482181

>  <BCUT_PEOE_3>
2.5747039

>  <BCUT_SLOGP_0>
-2.5275249

>  <BCUT_SLOGP_1>
0.123

>  <BCUT_SLOGP_2>
0.42019999

>  <BCUT_SLOGP_3>
2.6599755

>  <BCUT_SMR_0>
-2.3630741

>  <BCUT_SMR_1>
0.1057

>  <BCUT_SMR_2>
0.26848707

>  <BCUT_SMR_3>
2.8317573

>  <bpol>
31.302313

>  <b_1rotN>
5

>  <b_1rotR>
0.2

>  <b_ar>
6

>  <b_count>
41

>  <b_double>
2

>  <b_heavy>
25

>  <b_rotN>
8

>  <b_rotR>
0.31999999

>  <b_single>
33

>  <b_triple>
0

>  <chi0>
19.52458

>  <chi0v>
15.464829

>  <chi0v_C>
9.8618069

>  <chi0_C>
10.403259

>  <chi1>
11.449814

>  <chi1v>
9.4882565

>  <chi1v_C>
3.9551773

>  <chi1_C>
4.5932055

>  <chiral>
0

>  <chiral_u>
0

>  <density>
1.0147082

>  <diameter>
8

>  <FCharge>
0

>  <GCUT_PEOE_0>
-0.79486948

>  <GCUT_PEOE_1>
-0.35431683

>  <GCUT_PEOE_2>
-0.12551782

>  <GCUT_PEOE_3>
2.6422892

>  <GCUT_SLOGP_0>
-0.75729609

>  <GCUT_SLOGP_1>
-0.037

>  <GCUT_SLOGP_2>
0.22605117

>  <GCUT_SLOGP_3>
2.7200432

>  <GCUT_SMR_0>
-0.5314132

>  <GCUT_SMR_1>
-0.054299999

>  <GCUT_SMR_2>
0.16318987

>  <GCUT_SMR_3>
2.9006395

>  <Kier1>
23.040001

>  <Kier2>
9.2739229

>  <Kier3>
5.489603

>  <KierA1>
21.069744

>  <KierA2>
8.4479027

>  <KierA3>
4.9860926

>  <KierFlex>
7.1198058

>  <lip_acc>
3

>  <lip_don>
0

>  <lip_druglike>
1

>  <lip_violation>
1

>  <logP(o/w)>
4.8366799

>  <logS>
-6.7158799

>  <mr>
9.0176792

>  <mutagenic>
0

>  <nmol>
1

>  <opr_brigid>
6

>  <opr_leadlike>
1

>  <opr_nring>
1

>  <opr_nrot>
7

>  <opr_violation>
1

>  <PC+>
0

>  <PC->
0

>  <PEOE_PC+>
1.8312948

>  <PEOE_PC->
-1.8312948

>  <PEOE_RPC+>
0.23750085

>  <PEOE_RPC->
0.15270756

>  <PEOE_VSA+0>
76.833931

>  <PEOE_VSA+1>
67.186104

>  <PEOE_VSA+2>
6.6995511

>  <PEOE_VSA+3>
6.6995511

>  <PEOE_VSA+4>
20.869162

>  <PEOE_VSA+5>
0

>  <PEOE_VSA+6>
24.878653

>  <PEOE_VSA-0>
2.2085397

>  <PEOE_VSA-1>
39.521236

>  <PEOE_VSA-2>
0

>  <PEOE_VSA-3>
59.543179

>  <PEOE_VSA-4>
5.6825762

>  <PEOE_VSA-5>
27.133842

>  <PEOE_VSA-6>
0

>  <PEOE_VSA_FHYD>
0.7670489

>  <PEOE_VSA_FNEG>
0.39758891

>  <PEOE_VSA_FPNEG>
0.097304083

>  <PEOE_VSA_FPOL>
0.2329511

>  <PEOE_VSA_FPOS>
0.60241109

>  <PEOE_VSA_FPPOS>
0.13564701

>  <PEOE_VSA_HYD>
258.69208

>  <PEOE_VSA_NEG>
134.08937

>  <PEOE_VSA_PNEG>
32.816418

>  <PEOE_VSA_POL>
78.564232

>  <PEOE_VSA_POS>
203.16695

>  <PEOE_VSA_PPOS>
45.747814

>  <petitjean>
0.5

>  <petitjeanSC>
1

>  <Q_PC+>
0

>  <Q_PC->
0

>  <Q_RPC+>
0

>  <Q_RPC->
0

>  <Q_VSA_FHYD>
1

>  <Q_VSA_FNEG>
0

>  <Q_VSA_FPNEG>
0

>  <Q_VSA_FPOL>
0

>  <Q_VSA_FPOS>
1

>  <Q_VSA_FPPOS>
0

>  <Q_VSA_HYD>
337.25632

>  <Q_VSA_NEG>
0

>  <Q_VSA_PNEG>
0

>  <Q_VSA_POL>
0

>  <Q_VSA_POS>
337.25632

>  <Q_VSA_PPOS>
0

>  <radius>
4

>  <reactive>
0

>  <rings>
1

>  <RPC+>
0

>  <RPC->
0

>  <rsynth>
1

>  <SlogP>
5.6498699

>  <SlogP_VSA0>
0

>  <SlogP_VSA1>
24.891069

>  <SlogP_VSA2>
0

>  <SlogP_VSA3>
0

>  <SlogP_VSA4>
67.205452

>  <SlogP_VSA5>
82.250755

>  <SlogP_VSA6>
7.7595162

>  <SlogP_VSA7>
0

>  <SlogP_VSA8>
16.281683

>  <SlogP_VSA9>
205.89168

>  <SMR>
8.8659

>  <SMR_VSA0>
47.724434

>  <SMR_VSA1>
91.586098

>  <SMR_VSA2>
12.170312

>  <SMR_VSA3>
31.351902

>  <SMR_VSA4>
0

>  <SMR_VSA5>
18.868406

>  <SMR_VSA6>
8.1055403

>  <SMR_VSA7>
194.47346

>  <TPSA>
47.029999

>  <VAdjEq>
0.40217918

>  <VAdjMa>
5.643856

>  <VDistEq>
2.84149

>  <VDistMa>
9.0807495

>  <vdw_area>
337.25632

>  <vdw_vol>
379.70718

>  <vsa_acc>
32.816418

>  <vsa_acid>
0

>  <vsa_base>
0

>  <vsa_don>
0

>  <vsa_hyd>
283.57074

>  <vsa_other>
20.869162

>  <vsa_pol>
32.816418

>  <Weight>
401.41998

>  <weinerPath>
1278

>  <weinerPol>
43

>  <zagreb>
124

$$$$
ClC1=C(C=CC(=C1)NC(=O)N(C)C)Cl
  MOE2011           2D

 14 14  0  0  0  0  0  0  0  0999 V2000
    0.0000    0.0000    0.0000 Cl  0  0  0  0  0  0  0  0  0  0  0  0
    1.2980   -0.7530    0.0000 C   0  0  0  0  0  0  0  0  0  0  0  0
    1.2940   -2.2530    0.0000 C   0  0  0  0  0  0  0  0  0  0  0  0
    2.5920   -3.0050    0.0000 C   0  0  0  0  0  0  0  0  0  0  0  0
    3.8930   -2.2580    0.0000 C   0  0  0  0  0  0  0  0  0  0  0  0
    3.8960   -0.7580    0.0000 C   0  0  0  0  0  0  0  0  0  0  0  0
    2.5980   -0.0050    0.0000 C   0  0  0  0  0  0  0  0  0  0  0  0
    5.1960   -0.0110    0.0000 N   0  0  0  0  0  0  0  0  0  0  0  0
    6.4940   -0.7630    0.0000 C   0  0  0  0  0  0  0  0  0  0  0  0
    6.4910   -2.2630    0.0000 O   0  0  0  0  0  0  0  0  0  0  0  0
    7.7940   -0.0160    0.0000 N   0  0  0  0  0  0  0  0  0  0  0  0
    9.0920   -0.7690    0.0000 C   0  0  0  0  0  0  0  0  0  0  0  0
    7.7970    1.4840    0.0000 C   0  0  0  0  0  0  0  0  0  0  0  0
   -0.0060   -3.0000    0.0000 Cl  0  0  0  0  0  0  0  0  0  0  0  0
  1  2  1  0  0  0  0
  2  3  1  0  0  0  0
  2  7  2  0  0  0  0
  3  4  2  0  0  0  0
  3 14  1  0  0  0  0
  4  5  1  0  0  0  0
  5  6  2  0  0  0  0
  6  7  1  0  0  0  0
  6  8  1  0  0  0  0
  8  9  1  0  0  0  0
  9 10  2  0  0  0  0
  9 11  1  0  0  0  0
 11 12  1  0  0  0  0
 11 13  1  0  0  0  0
M  END
>  <DSSTox_RID>
40439

>  <DSSTox_CID>
446

>  <apol>
29.86993

>  <a_acc>
1

>  <a_acid>
0

>  <a_aro>
6

>  <a_base>
0

>  <a_count>
24

>  <a_don>
1

>  <a_heavy>
14

>  <a_hyd>
10

>  <a_IC>
44.290493

>  <a_ICM>
1.8454373

>  <a_nB>
0

>  <a_nBr>
0

>  <a_nC>
9

>  <a_nCl>
2

>  <a_nF>
0

>  <a_nH>
10

>  <a_nI>
0

>  <a_nN>
2

>  <a_nO>
1

>  <a_nP>
0

>  <a_nS>
0

>  <balabanJ>
2.347157

>  <BCUT_PEOE_0>
-2.4679551

>  <BCUT_PEOE_1>
-0.58818877

>  <BCUT_PEOE_2>
0.57827425

>  <BCUT_PEOE_3>
2.372102

>  <BCUT_SLOGP_0>
-2.594326

>  <BCUT_SLOGP_1>
-0.21504366

>  <BCUT_SLOGP_2>
0.80121166

>  <BCUT_SLOGP_3>
2.3918123

>  <BCUT_SMR_0>
-2.1674027

>  <BCUT_SMR_1>
-0.22249332

>  <BCUT_SMR_2>
0.85737514

>  <BCUT_SMR_3>
2.6731753

>  <bpol>
15.37007

>  <b_1rotN>
2

>  <b_1rotR>
0.14285715

>  <b_ar>
6

>  <b_count>
24

>  <b_double>
1

>  <b_heavy>
14

>  <b_rotN>
3

>  <b_rotR>
0.21428572

>  <b_single>
17

>  <b_triple>
0

>  <chi0>
10.715178

>  <chi0v>
9.3552999

>  <chi0v_C>
5.7320509

>  <chi0_C>
6.4307213

>  <chi1>
6.5029078

>  <chi1v>
4.6940856

>  <chi1v_C>
1.7380339

>  <chi1_C>
2.4663265

>  <chiral>
0

>  <chiral_u>
0

>  <density>
0.93314469

>  <diameter>
8

>  <FCharge>
0

>  <GCUT_PEOE_0>
-0.84230947

>  <GCUT_PEOE_1>
-0.3999747

>  <GCUT_PEOE_2>
0.010690744

>  <GCUT_PEOE_3>
2.1638072

>  <GCUT_SLOGP_0>
-1.0109186

>  <GCUT_SLOGP_1>
-0.21328841

>  <GCUT_SLOGP_2>
0.27631834

>  <GCUT_SLOGP_3>
2.2888417

>  <GCUT_SMR_0>
-0.49894574

>  <GCUT_SMR_1>
-0.12731726

>  <GCUT_SMR_2>
0.27067789

>  <GCUT_SMR_3>
2.4702706

>  <Kier1>
12.071428

>  <Kier2>
5.1855955

>  <Kier3>
3.5918367

>  <KierA1>
10.741385

>  <KierA2>
4.5697246

>  <KierA3>
3.1418352

>  <KierFlex>
3.5060837

>  <lip_acc>
3

>  <lip_don>
1

>  <lip_druglike>
1

>  <lip_violation>
0

>  <logP(o/w)>
2.257

>  <logS>
-2.7907801

>  <mr>
5.8077283

>  <mutagenic>
0

>  <nmol>
1

>  <opr_brigid>
6

>  <opr_leadlike>
1

>  <opr_nring>
1

>  <opr_nrot>
1

>  <opr_violation>
0

>  <PC+>
0

>  <PC->
0

>  <PEOE_PC+>
0.89684957

>  <PEOE_PC->
-0.89684957

>  <PEOE_RPC+>
0.38620007

>  <PEOE_RPC->
0.33100209

>  <PEOE_VSA+0>
47.425484

>  <PEOE_VSA+1>
15.739044

>  <PEOE_VSA+2>
67.79892

>  <PEOE_VSA+3>
0

>  <PEOE_VSA+4>
0

>  <PEOE_VSA+5>
0

>  <PEOE_VSA+6>
17.440542

>  <PEOE_VSA-0>
0

>  <PEOE_VSA-1>
59.163895

>  <PEOE_VSA-2>
0

>  <PEOE_VSA-3>
5.6825762

>  <PEOE_VSA-4>
13.566921

>  <PEOE_VSA-5>
0

>  <PEOE_VSA-6>
0

>  <PEOE_VSA_FHYD>
0.86329329

>  <PEOE_VSA_FNEG>
0.34571156

>  <PEOE_VSA_FPNEG>
0.059814289

>  <PEOE_VSA_FPOL>
0.13670674

>  <PEOE_VSA_FPOS>
0.65428847

>  <PEOE_VSA_FPPOS>
0.076892443

>  <PEOE_VSA_HYD>
195.80992

>  <PEOE_VSA_NEG>
78.413391

>  <PEOE_VSA_PNEG>
13.566921

>  <PEOE_VSA_POL>
31.007463

>  <PEOE_VSA_POS>
148.40399

>  <PEOE_VSA_PPOS>
17.440542

>  <petitjean>
0.5

>  <petitjeanSC>
1

>  <Q_PC+>
0

>  <Q_PC->
0

>  <Q_RPC+>
0

>  <Q_RPC->
0

>  <Q_VSA_FHYD>
1

>  <Q_VSA_FNEG>
0

>  <Q_VSA_FPNEG>
0

>  <Q_VSA_FPOL>
0

>  <Q_VSA_FPOS>
1

>  <Q_VSA_FPPOS>
0

>  <Q_VSA_HYD>
226.81738

>  <Q_VSA_NEG>
0

>  <Q_VSA_PNEG>
0

>  <Q_VSA_POL>
0

>  <Q_VSA_POS>
226.81738

>  <Q_VSA_PPOS>
0

>  <radius>
4

>  <reactive>
0

>  <rings>
1

>  <RPC+>
0

>  <RPC->
0

>  <rsynth>
1

>  <SlogP>
3.0869

>  <SlogP_VSA0>
0

>  <SlogP_VSA1>
25.965021

>  <SlogP_VSA2>
0

>  <SlogP_VSA3>
0

>  <SlogP_VSA4>
0

>  <SlogP_VSA5>
65.794373

>  <SlogP_VSA6>
7.0012131

>  <SlogP_VSA7>
52.929554

>  <SlogP_VSA8>
0

>  <SlogP_VSA9>
104.91625

>  <SMR>
5.91677

>  <SMR_VSA0>
23.862217

>  <SMR_VSA1>
3.1243138

>  <SMR_VSA2>
0

>  <SMR_VSA3>
7.0012131

>  <SMR_VSA4>
20.767498

>  <SMR_VSA5>
52.929554

>  <SMR_VSA6>
4.8299561

>  <SMR_VSA7>
144.09166

>  <TPSA>
32.34

>  <VAdjEq>
0.59167278

>  <VAdjMa>
4.8073549

>  <VDistEq>
2.813458

>  <VDistMa>
7.2928128

>  <vdw_area>
226.81738

>  <vdw_vol>
238.99615

>  <vsa_acc>
13.566921

>  <vsa_acid>
0

>  <vsa_base>
0

>  <vsa_don>
5.6825762

>  <vsa_hyd>
190.12735

>  <vsa_other>
17.440542

>  <vsa_pol>
19.249496

>  <Weight>
233.09799

>  <weinerPath>
321

>  <weinerPol>
18

>  <zagreb>
66

$$$$
O=[C@](O[C@@H](C2)C(C)=C(C2=O)CC=C)[C@H]1C(C)(C)[C@@H]1/C=C(C)/C
  MOE2011           2D

 22 23  0  0  1  0  0  0  0  0999 V2000
    0.0000    0.0000    0.0000 O   0  0  0  0  0  0  0  0  0  0  0  0
   -0.0110   -1.5000    0.0000 C   0  0  0  0  0  0  0  0  0  0  0  0
    1.2830   -2.2590    0.0000 O   0  0  0  0  0  0  0  0  0  0  0  0
    2.5870   -1.5180    0.0000 C   0  0  1  0  0  0  0  0  0  0  0  0
    2.7550   -0.0280    0.0000 C   0  0  0  0  0  0  0  0  0  0  0  0
    3.9530   -2.1380    0.0000 C   0  0  0  0  0  0  0  0  0  0  0  0
    4.2550   -3.6080    0.0000 C   0  0  0  0  0  0  0  0  0  0  0  0
    4.9650   -1.0310    0.0000 C   0  0  0  0  0  0  0  0  0  0  0  0
    4.2240    0.2740    0.0000 C   0  0  0  0  0  0  0  0  0  0  0  0
    4.8440    1.6390    0.0000 O   0  0  0  0  0  0  0  0  0  0  0  0
    6.4550   -1.1980    0.0000 C   0  0  0  0  0  0  0  0  0  0  0  0
    7.3460    0.0090    0.0000 C   0  0  0  0  0  0  0  0  0  0  0  0
    8.8360   -0.1580    0.0000 C   0  0  0  0  0  0  0  0  0  0  0  0
   -1.3150   -2.2410    0.0000 C   0  0  1  0  0  0  0  0  0  0  0  0
   -2.8150   -2.2300    0.0000 C   0  0  0  0  0  0  0  0  0  0  0  0
   -4.3040   -2.4150    0.0000 C   0  0  0  0  0  0  0  0  0  0  0  0
   -3.3790   -0.8400    0.0000 C   0  0  0  0  0  0  0  0  0  0  0  0
   -2.0740   -3.5340    0.0000 C   0  0  2  0  0  0  0  0  0  0  0  0
   -2.0850   -5.0340    0.0000 C   0  0  0  0  0  0  0  0  0  0  0  0
   -3.3890   -5.7750    0.0000 C   0  0  0  0  0  0  0  0  0  0  0  0
   -4.6830   -5.0160    0.0000 C   0  0  0  0  0  0  0  0  0  0  0  0
   -3.4000   -7.2750    0.0000 C   0  0  0  0  0  0  0  0  0  0  0  0
  1  2  2  0  0  0  0
  2  3  1  0  0  0  0
 14  2  1  6  0  0  0
  4  3  1  1  0  0  0
  4  5  1  0  0  0  0
  4  6  1  0  0  0  0
  5  9  1  0  0  0  0
  6  7  1  0  0  0  0
  6  8  2  0  0  0  0
  8  9  1  0  0  0  0
  8 11  1  0  0  0  0
  9 10  2  0  0  0  0
 11 12  1  0  0  0  0
 12 13  2  0  0  0  0
 14 15  1  0  0  0  0
 14 18  1  0  0  0  0
 15 16  1  0  0  0  0
 15 17  1  0  0  0  0
 15 18  1  0  0  0  0
 18 19  1  1  0  0  0
 19 20  2  0  0  0  0
 20 21  1  0  0  0  0
 20 22  1  0  0  0  0
M  END
>  <DSSTox_RID>
40440

>  <DSSTox_CID>
19336

>  <apol>
53.182617

>  <a_acc>
2

>  <a_acid>
0

>  <a_aro>
0

>  <a_base>
0

>  <a_count>
48

>  <a_don>
0

>  <a_heavy>
22

>  <a_hyd>
17

>  <a_IC>
60.401257

>  <a_ICM>
1.2583596

>  <a_nB>
0

>  <a_nBr>
0

>  <a_nC>
19

>  <a_nCl>
0

>  <a_nF>
0

>  <a_nH>
26

>  <a_nI>
0

>  <a_nN>
0

>  <a_nO>
3

>  <a_nP>
0

>  <a_nS>
0

>  <balabanJ>
1.9189283

>  <BCUT_PEOE_0>
-2.4818976

>  <BCUT_PEOE_1>
-0.23993671

>  <BCUT_PEOE_2>
0.095803559

>  <BCUT_PEOE_3>
2.8994913

>  <BCUT_SLOGP_0>
-2.4828126

>  <BCUT_SLOGP_1>
-0.11713529

>  <BCUT_SLOGP_2>
0.17655294

>  <BCUT_SLOGP_3>
2.9253578

>  <BCUT_SMR_0>
-2.2401245

>  <BCUT_SMR_1>
0.0056885607

>  <BCUT_SMR_2>
0.2817165

>  <BCUT_SMR_3>
3.136744

>  <bpol>
32.255383

>  <b_1rotN>
5

>  <b_1rotR>
0.2173913

>  <b_ar>
0

>  <b_count>
49

>  <b_double>
5

>  <b_heavy>
23

>  <b_rotN>
6

>  <b_rotR>
0.26086956

>  <b_single>
44

>  <b_triple>
0

>  <chi0>
16.654337

>  <chi0v>
14.232817

>  <chi0v_C>
13.008072

>  <chi0_C>
13.947229

>  <chi1>
10.195613

>  <chi1v>
7.8899689

>  <chi1v_C>
7.041894

>  <chi1_C>
8.2244158

>  <chiral>
3

>  <chiral_u>
0

>  <density>
0.74883002

>  <diameter>
12

>  <FCharge>
0

>  <GCUT_PEOE_0>
-0.78224009

>  <GCUT_PEOE_1>
-0.33981118

>  <GCUT_PEOE_2>
-0.11037621

>  <GCUT_PEOE_3>
2.7348499

>  <GCUT_SLOGP_0>
-0.85617876

>  <GCUT_SLOGP_1>
-0.24366534

>  <GCUT_SLOGP_2>
-0.037

>  <GCUT_SLOGP_3>
2.7844455

>  <GCUT_SMR_0>
-0.51123333

>  <GCUT_SMR_1>
-0.1341444

>  <GCUT_SMR_2>
0.028416315

>  <GCUT_SMR_3>
2.9720006

>  <Kier1>
18.340265

>  <Kier2>
6.8571429

>  <Kier3>
3.4404707

>  <KierA1>
15.004827

>  <KierA2>
5.5529308

>  <KierA3>
2.7654738

>  <KierFlex>
3.7873077

>  <lip_acc>
3

>  <lip_don>
0

>  <lip_druglike>
1

>  <lip_violation>
0

>  <logP(o/w)>
2.5079999

>  <logS>
-4.57617

>  <mr>
8.7611351

>  <mutagenic>
0

>  <nmol>
1

>  <opr_brigid>
9

>  <opr_leadlike>
1

>  <opr_nring>
2

>  <opr_nrot>
5

>  <opr_violation>
0

>  <PC+>
0

>  <PC->
0

>  <PEOE_PC+>
0.98037708

>  <PEOE_PC->
-0.98037708

>  <PEOE_RPC+>
0.27735391

>  <PEOE_RPC->
0.30522615

>  <PEOE_VSA+0>
151.45932

>  <PEOE_VSA+1>
18.017035

>  <PEOE_VSA+2>
24.267014

>  <PEOE_VSA+3>
8.458519

>  <PEOE_VSA+4>
0

>  <PEOE_VSA+5>
14.708499

>  <PEOE_VSA+6>
0

>  <PEOE_VSA-0>
65.44252

>  <PEOE_VSA-1>
0

>  <PEOE_VSA-2>
0

>  <PEOE_VSA-3>
0

>  <PEOE_VSA-4>
0

>  <PEOE_VSA-5>
29.637598

>  <PEOE_VSA-6>
0

>  <PEOE_VSA_FHYD>
0.85786074

>  <PEOE_VSA_FNEG>
0.30475324

>  <PEOE_VSA_FPNEG>
0.094995193

>  <PEOE_VSA_FPOL>
0.14213926

>  <PEOE_VSA_FPOS>
0.69524676

>  <PEOE_VSA_FPPOS>
0.047144059

>  <PEOE_VSA_HYD>
267.64441

>  <PEOE_VSA_NEG>
95.080116

>  <PEOE_VSA_PNEG>
29.637598

>  <PEOE_VSA_POL>
44.346096

>  <PEOE_VSA_POS>
216.9104

>  <PEOE_VSA_PPOS>
14.708499

>  <petitjean>
0.5

>  <petitjeanSC>
1

>  <Q_PC+>
0

>  <Q_PC->
0

>  <Q_RPC+>
0

>  <Q_RPC->
0

>  <Q_VSA_FHYD>
1

>  <Q_VSA_FNEG>
0

>  <Q_VSA_FPNEG>
0

>  <Q_VSA_FPOL>
0

>  <Q_VSA_FPOS>
1

>  <Q_VSA_FPPOS>
0

>  <Q_VSA_HYD>
311.99051

>  <Q_VSA_NEG>
0

>  <Q_VSA_PNEG>
0

>  <Q_VSA_POL>
0

>  <Q_VSA_POS>
311.99051

>  <Q_VSA_PPOS>
0

>  <radius>
6

>  <reactive>
1

>  <rings>
2

>  <RPC+>
0

>  <RPC->
0

>  <rsynth>
0.5

>  <SlogP>
4.0019999

>  <SlogP_VSA0>
0

>  <SlogP_VSA1>
13.433075

>  <SlogP_VSA2>
65.19297

>  <SlogP_VSA3>
0

>  <SlogP_VSA4>
8.8215923

>  <SlogP_VSA5>
9.5567245

>  <SlogP_VSA6>
0

>  <SlogP_VSA7>
35.286369

>  <SlogP_VSA8>
37.736813

>  <SlogP_VSA9>
198.73087

>  <SMR>
8.7209997

>  <SMR_VSA0>
58.724319

>  <SMR_VSA1>
0

>  <SMR_VSA2>
8.8215923

>  <SMR_VSA3>
16.025373

>  <SMR_VSA4>
0

>  <SMR_VSA5>
73.023178

>  <SMR_VSA6>
13.433075

>  <SMR_VSA7>
198.73087

>  <TPSA>
43.369999

>  <VAdjEq>
0.4530769

>  <VAdjMa>
5.523562

>  <VDistEq>
3.3295152

>  <VDistMa>
8.6197844

>  <vdw_area>
311.99051

>  <vdw_vol>
368.85007

>  <vsa_acc>
27.133842

>  <vsa_acid>
0

>  <vsa_base>
0

>  <vsa_don>
0

>  <vsa_hyd>
259.18588

>  <vsa_other>
25.670774

>  <vsa_pol>
27.133842

>  <Weight>
302.414

>  <weinerPath>
1112

>  <weinerPol>
31

>  <zagreb>
116

$$$$
O=S1OCC(C3(Cl)C(Cl)=C(Cl)C(Cl)2C(Cl)3Cl)C2CO1
  MOE2011           2D

 19 21  0  0  1  0  0  0  0  0999 V2000
    0.0000    0.0000    0.0000 O   0  0  0  0  0  0  0  0  0  0  0  0
   -1.4990   -0.0560    0.0000 S   0  0  0  0  0  0  0  0  0  0  0  0
   -2.1990    1.2700    0.0000 O   0  0  0  0  0  0  0  0  0  0  0  0
   -3.6730    1.5480    0.0000 C   0  0  0  0  0  0  0  0  0  0  0  0
   -4.8460    0.2490    0.0000 C   0  0  3  0  0  0  0  0  0  0  0  0
   -6.3780    0.1840    0.0000 C   0  0  3  0  0  0  0  0  0  0  0  0
   -5.8710    1.5950    0.0000 Cl  0  0  0  0  0  0  0  0  0  0  0  0
   -6.8710   -1.0250    0.0000 C   0  0  0  0  0  0  0  0  0  0  0  0
   -8.3520   -0.7870    0.0000 Cl  0  0  0  0  0  0  0  0  0  0  0  0
   -6.7850   -2.2770    0.0000 C   0  0  0  0  0  0  0  0  0  0  0  0
   -7.1270   -3.7370    0.0000 Cl  0  0  0  0  0  0  0  0  0  0  0  0
   -6.0570   -1.0320    0.0000 C   0  0  3  0  0  0  0  0  0  0  0  0
   -5.3010   -2.3280    0.0000 Cl  0  0  0  0  0  0  0  0  0  0  0  0
   -7.3330    1.1830    0.0000 C   0  0  0  0  0  0  0  0  0  0  0  0
   -8.8000    1.4920    0.0000 Cl  0  0  0  0  0  0  0  0  0  0  0  0
   -7.1330    2.6700    0.0000 Cl  0  0  0  0  0  0  0  0  0  0  0  0
   -4.6940   -0.8970    0.0000 C   0  0  3  0  0  0  0  0  0  0  0  0
   -3.5470   -1.8200    0.0000 C   0  0  0  0  0  0  0  0  0  0  0  0
   -2.0990   -1.4310    0.0000 O   0  0  0  0  0  0  0  0  0  0  0  0
  1  2  2  0  0  0  0
  2  3  1  0  0  0  0
  2 19  1  0  0  0  0
  3  4  1  0  0  0  0
  4  5  1  0  0  0  0
  5  6  1  0  0  0  0
  5 17  1  0  0  0  0
  6  7  1  0  0  0  0
  6  8  1  0  0  0  0
  6 14  1  0  0  0  0
  8  9  1  0  0  0  0
  8 10  2  0  0  0  0
 10 11  1  0  0  0  0
 10 12  1  0  0  0  0
 12 13  1  0  0  0  0
 12 14  1  0  0  0  0
 12 17  1  0  0  0  0
 14 15  1  0  0  0  0
 14 16  1  0  0  0  0
 17 18  1  0  0  0  0
 18 19  1  0  0  0  0
M  END
>  <DSSTox_RID>
40442

>  <DSSTox_CID>
560

>  <apol>
38.226757

>  <a_acc>
3

>  <a_acid>
0

>  <a_aro>
0

>  <a_base>
0

>  <a_count>
25

>  <a_don>
0

>  <a_heavy>
19

>  <a_hyd>
14

>  <a_IC>
51.792641

>  <a_ICM>
2.0717056

>  <a_nB>
0

>  <a_nBr>
0

>  <a_nC>
9

>  <a_nCl>
6

>  <a_nF>
0

>  <a_nH>
6

>  <a_nI>
0

>  <a_nN>
0

>  <a_nO>
3

>  <a_nP>
0

>  <a_nS>
1

>  <balabanJ>
2.1118207

>  <BCUT_PEOE_0>
-2.6234989

>  <BCUT_PEOE_1>
-0.63399553

>  <BCUT_PEOE_2>
0.45630816

>  <BCUT_PEOE_3>
2.9312515

>  <BCUT_SLOGP_0>
-2.685909

>  <BCUT_SLOGP_1>
-0.24706192

>  <BCUT_SLOGP_2>
0.94298542

>  <BCUT_SLOGP_3>
2.8654797

>  <BCUT_SMR_0>
-2.4011178

>  <BCUT_SMR_1>
-0.16495574

>  <BCUT_SMR_2>
0.96953136

>  <BCUT_SMR_3>
3.1639268

>  <bpol>
17.289242

>  <b_1rotN>
0

>  <b_1rotR>
0

>  <b_ar>
0

>  <b_count>
27

>  <b_double>
1

>  <b_heavy>
21

>  <b_rotN>
0

>  <b_rotR>
0

>  <b_single>
26

>  <b_triple>
0

>  <chi0>
14.215178

>  <chi0v>
14.321764

>  <chi0v_C>
5.0689139

>  <chi0_C>
5.2236147

>  <chi1>
8.6864109

>  <chi1v>
8.4562111

>  <chi1v_C>
2.9771802

>  <chi1_C>
3.1378639

>  <chiral>
4

>  <chiral_u>
4

>  <density>
1.2728387

>  <diameter>
7

>  <FCharge>
0

>  <GCUT_PEOE_0>
-0.74973845

>  <GCUT_PEOE_1>
-0.40564212

>  <GCUT_PEOE_2>
-0.058817554

>  <GCUT_PEOE_3>
2.7180991

>  <GCUT_SLOGP_0>
-0.90079558

>  <GCUT_SLOGP_1>
-0.25302961

>  <GCUT_SLOGP_2>
0.52950001

>  <GCUT_SLOGP_3>
2.7572348

>  <GCUT_SMR_0>
-0.52664232

>  <GCUT_SMR_1>
-0.091364212

>  <GCUT_SMR_2>
0.4253

>  <GCUT_SMR_3>
2.9878643

>  <Kier1>
13.959184

>  <Kier2>
3.7998538

>  <Kier3>
1.28

>  <KierA1>
21.923618

>  <KierA2>
6.1135149

>  <KierA3>
2.0978894

>  <KierFlex>
7.0542297

>  <lip_acc>
3

>  <lip_don>
0

>  <lip_druglike>
1

>  <lip_violation>
0

>  <logP(o/w)>
3.83236

>  <logS>
-6.24405

>  <mr>
7.6182494

>  <mutagenic>
1

>  <nmol>
1

>  <opr_brigid>
14

>  <opr_leadlike>
1

>  <opr_nring>
3

>  <opr_nrot>
0

>  <opr_violation>
0

>  <PC+>
0

>  <PC->
0

>  <PEOE_PC+>
1.1602054

>  <PEOE_PC->
-1.1602054

>  <PEOE_RPC+>
0.28314346

>  <PEOE_RPC->
0.19857274

>  <PEOE_VSA+0>
4.4170794

>  <PEOE_VSA+1>
9.0394926

>  <PEOE_VSA+2>
44.116947

>  <PEOE_VSA+3>
0

>  <PEOE_VSA+4>
0

>  <PEOE_VSA+5>
0

>  <PEOE_VSA+6>
23.136677

>  <PEOE_VSA-0>
0

>  <PEOE_VSA-1>
118.32779

>  <PEOE_VSA-2>
75.172157

>  <PEOE_VSA-3>
0

>  <PEOE_VSA-4>
9.8901939

>  <PEOE_VSA-5>
0

>  <PEOE_VSA-6>
0

>  <PEOE_VSA_FHYD>
0.88374925

>  <PEOE_VSA_FNEG>
0.71590954

>  <PEOE_VSA_FPNEG>
0.034812327

>  <PEOE_VSA_FPOL>
0.11625072

>  <PEOE_VSA_FPOS>
0.28409046

>  <PEOE_VSA_FPPOS>
0.0814384

>  <PEOE_VSA_HYD>
251.07347

>  <PEOE_VSA_NEG>
203.39014

>  <PEOE_VSA_PNEG>
9.8901939

>  <PEOE_VSA_POL>
33.026871

>  <PEOE_VSA_POS>
80.710197

>  <PEOE_VSA_PPOS>
23.136677

>  <petitjean>
0.42857143

>  <petitjeanSC>
0.75

>  <Q_PC+>
0

>  <Q_PC->
0

>  <Q_RPC+>
0

>  <Q_RPC->
0

>  <Q_VSA_FHYD>
1

>  <Q_VSA_FNEG>
0

>  <Q_VSA_FPNEG>
0

>  <Q_VSA_FPOL>
0

>  <Q_VSA_FPOS>
1

>  <Q_VSA_FPPOS>
0

>  <Q_VSA_HYD>
284.10034

>  <Q_VSA_NEG>
0

>  <Q_VSA_PNEG>
0

>  <Q_VSA_POL>
0

>  <Q_VSA_POS>
284.10034

>  <Q_VSA_PPOS>
0

>  <radius>
4

>  <reactive>
0

>  <rings>
3

>  <RPC+>
0

>  <RPC->
0

>  <rsynth>
0.21052632

>  <SlogP>
3.6898

>  <SlogP_VSA0>
0

>  <SlogP_VSA1>
24.085844

>  <SlogP_VSA2>
40.047993

>  <SlogP_VSA3>
41.852516

>  <SlogP_VSA4>
8.8215923

>  <SlogP_VSA5>
7.0012131

>  <SlogP_VSA6>
0

>  <SlogP_VSA7>
0

>  <SlogP_VSA8>
0

>  <SlogP_VSA9>
234.89186

>  <SMR>
7.73634

>  <SMR_VSA0>
41.17667

>  <SMR_VSA1>
0

>  <SMR_VSA2>
8.8215923

>  <SMR_VSA3>
7.0012131

>  <SMR_VSA4>
0

>  <SMR_VSA5>
0

>  <SMR_VSA6>
41.852516

>  <SMR_VSA7>
257.84903

>  <TPSA>
54.740002

>  <VAdjEq>
0.51875818

>  <VAdjMa>
5.3923173

>  <VDistEq>
2.5441034

>  <VDistMa>
8.2606421

>  <vdw_area>
284.10034

>  <vdw_vol>
314.94955

>  <vsa_acc>
25.898455

>  <vsa_acid>
0

>  <vsa_base>
0

>  <vsa_don>
0

>  <vsa_hyd>
235.0652

>  <vsa_other>
23.136677

>  <vsa_pol>
25.898455

>  <Weight>
406.92798

>  <weinerPath>
552

>  <weinerPol>
48

>  <zagreb>
116

$$$$
CCCN(CCC)C(=O)SCC
  MOE2011           2D

 12 11  0  0  0  0  0  0  0  0999 V2000
    0.0000    0.0000    0.0000 C   0  0  0  0  0  0  0  0  0  0  0  0
    0.7560    1.2950    0.0000 C   0  0  0  0  0  0  0  0  0  0  0  0
    0.0130    2.5980    0.0000 C   0  0  0  0  0  0  0  0  0  0  0  0
    0.7690    3.8930    0.0000 N   0  0  0  0  0  0  0  0  0  0  0  0
    0.0260    5.1960    0.0000 C   0  0  0  0  0  0  0  0  0  0  0  0
   -1.4740    5.2040    0.0000 C   0  0  0  0  0  0  0  0  0  0  0  0
   -2.2180    6.5060    0.0000 C   0  0  0  0  0  0  0  0  0  0  0  0
    2.2690    3.8860    0.0000 C   0  0  0  0  0  0  0  0  0  0  0  0
    3.0130    2.5830    0.0000 O   0  0  0  0  0  0  0  0  0  0  0  0
    3.0260    5.1810    0.0000 S   0  0  0  0  0  0  0  0  0  0  0  0
    4.5260    5.1740    0.0000 C   0  0  0  0  0  0  0  0  0  0  0  0
    5.2820    6.4690    0.0000 C   0  0  0  0  0  0  0  0  0  0  0  0
  1  2  1  0  0  0  0
  2  3  1  0  0  0  0
  3  4  1  0  0  0  0
  4  5  1  0  0  0  0
  4  8  1  0  0  0  0
  5  6  1  0  0  0  0
  6  7  1  0  0  0  0
  8  9  2  0  0  0  0
  8 10  1  0  0  0  0
 10 11  1  0  0  0  0
 11 12  1  0  0  0  0
M  END
>  <DSSTox_RID>
40376

>  <DSSTox_CID>
4091

>  <apol>
33.311066

>  <a_acc>
1

>  <a_acid>
0

>  <a_aro>
0

>  <a_base>
0

>  <a_count>
31

>  <a_don>
0

>  <a_heavy>
12

>  <a_hyd>
9

>  <a_IC>
44.340137

>  <a_ICM>
1.4303271

>  <a_nB>
0

>  <a_nBr>
0

>  <a_nC>
9

>  <a_nCl>
0

>  <a_nF>
0

>  <a_nH>
19

>  <a_nI>
0

>  <a_nN>
1

>  <a_nO>
1

>  <a_nP>
0

>  <a_nS>
1

>  <balabanJ>
3.735352

>  <BCUT_PEOE_0>
-2.6484339

>  <BCUT_PEOE_1>
-0.08548826

>  <BCUT_PEOE_2>
0.048857328

>  <BCUT_PEOE_3>
2.5743923

>  <BCUT_SLOGP_0>
-2.6750903

>  <BCUT_SLOGP_1>
0.123

>  <BCUT_SLOGP_2>
0.123

>  <BCUT_SLOGP_3>
2.6077247

>  <BCUT_SMR_0>
-2.3757298

>  <BCUT_SMR_1>
0.1057

>  <BCUT_SMR_2>
0.1057

>  <BCUT_SMR_3>
2.8542089

>  <bpol>
25.988934

>  <b_1rotN>
6

>  <b_1rotR>
0.54545456

>  <b_ar>
0

>  <b_count>
30

>  <b_double>
1

>  <b_heavy>
11

>  <b_rotN>
7

>  <b_rotR>
0.63636363

>  <b_single>
29

>  <b_triple>
0

>  <chi0>
9.3973408

>  <chi0v>
9.1157408

>  <chi0v_C>
7.0355339

>  <chi0_C>
7.112884

>  <chi1>
5.7567487

>  <chi1v>
5.6599045

>  <chi1v_C>
3.1213202

>  <chi1_C>
3.1213202

>  <chiral>
0

>  <chiral_u>
0

>  <density>
0.77647954

>  <diameter>
7

>  <FCharge>
0

>  <GCUT_PEOE_0>
-0.8458221

>  <GCUT_PEOE_1>
-0.29418242

>  <GCUT_PEOE_2>
-0.11114267

>  <GCUT_PEOE_3>
2.371011

>  <GCUT_SLOGP_0>
-0.95556378

>  <GCUT_SLOGP_1>
-0.037

>  <GCUT_SLOGP_2>
-0.037

>  <GCUT_SLOGP_3>
2.4280496

>  <GCUT_SMR_0>
-0.52522135

>  <GCUT_SMR_1>
-0.054299999

>  <GCUT_SMR_2>
-0.054299999

>  <GCUT_SMR_3>
2.6278608

>  <Kier1>
12

>  <Kier2>
7.6388888

>  <Kier3>
5.3254437

>  <KierA1>
12.095708

>  <KierA2>
7.7057495

>  <KierA3>
5.3753023

>  <KierFlex>
7.7672076

>  <lip_acc>
2

>  <lip_don>
0

>  <lip_druglike>
1

>  <lip_violation>
0

>  <logP(o/w)>
3.085

>  <logS>
-2.0901301

>  <mr>
5.5741653

>  <mutagenic>
0

>  <nmol>
1

>  <opr_brigid>
0

>  <opr_leadlike>
1

>  <opr_nring>
0

>  <opr_nrot>
6

>  <opr_violation>
0

>  <PC+>
0

>  <PC->
0

>  <PEOE_PC+>
0.62625754

>  <PEOE_PC->
-0.62625754

>  <PEOE_RPC+>
0.45395681

>  <PEOE_RPC->
0.49721053

>  <PEOE_VSA+0>
119.84234

>  <PEOE_VSA+1>
17.784555

>  <PEOE_VSA+2>
40.59901

>  <PEOE_VSA+3>
0

>  <PEOE_VSA+4>
0

>  <PEOE_VSA+5>
14.925592

>  <PEOE_VSA+6>
0

>  <PEOE_VSA-0>
0

>  <PEOE_VSA-1>
19.760618

>  <PEOE_VSA-2>
0

>  <PEOE_VSA-3>
0

>  <PEOE_VSA-4>
0

>  <PEOE_VSA-5>
13.566921

>  <PEOE_VSA-6>
0

>  <PEOE_VSA_FHYD>
0.87419361

>  <PEOE_VSA_FNEG>
0.14715508

>  <PEOE_VSA_FPNEG>
0.059903648

>  <PEOE_VSA_FPOL>
0.12580641

>  <PEOE_VSA_FPOS>
0.85284495

>  <PEOE_VSA_FPPOS>
0.065902755

>  <PEOE_VSA_HYD>
197.98653

>  <PEOE_VSA_NEG>
33.327538

>  <PEOE_VSA_PNEG>
13.566921

>  <PEOE_VSA_POL>
28.492514

>  <PEOE_VSA_POS>
193.1515

>  <PEOE_VSA_PPOS>
14.925592

>  <petitjean>
0.42857143

>  <petitjeanSC>
0.75

>  <Q_PC+>
0

>  <Q_PC->
0

>  <Q_RPC+>
0

>  <Q_RPC->
0

>  <Q_VSA_FHYD>
1

>  <Q_VSA_FNEG>
0

>  <Q_VSA_FPNEG>
0

>  <Q_VSA_FPOL>
0

>  <Q_VSA_FPOS>
1

>  <Q_VSA_FPPOS>
0

>  <Q_VSA_HYD>
226.47903

>  <Q_VSA_NEG>
0

>  <Q_VSA_PNEG>
0

>  <Q_VSA_POL>
0

>  <Q_VSA_POS>
226.47903

>  <Q_VSA_PPOS>
0

>  <radius>
4

>  <reactive>
0

>  <rings>
0

>  <RPC+>
0

>  <RPC->
0

>  <rsynth>
1

>  <SlogP>
2.9814999

>  <SlogP_VSA0>
0

>  <SlogP_VSA1>
6.7482567

>  <SlogP_VSA2>
0

>  <SlogP_VSA3>
54.11272

>  <SlogP_VSA4>
0

>  <SlogP_VSA5>
0

>  <SlogP_VSA6>
0

>  <SlogP_VSA7>
0

>  <SlogP_VSA8>
37.736813

>  <SlogP_VSA9>
156.0598

>  <SMR>
5.5683999

>  <SMR_VSA0>
23.862217

>  <SMR_VSA1>
3.1243138

>  <SMR_VSA2>
0

>  <SMR_VSA3>
0

>  <SMR_VSA4>
0

>  <SMR_VSA5>
37.736813

>  <SMR_VSA6>
57.736664

>  <SMR_VSA7>
132.19759

>  <TPSA>
20.309999

>  <VAdjEq>
0.61674827

>  <VAdjMa>
4.4594316

>  <VDistEq>
2.6487327

>  <VDistMa>
6.8597155

>  <vdw_area>
226.47903

>  <vdw_vol>
219.1571

>  <vsa_acc>
13.566921

>  <vsa_acid>
0

>  <vsa_base>
0

>  <vsa_don>
0

>  <vsa_hyd>
197.98653

>  <vsa_other>
14.925592

>  <vsa_pol>
13.566921

>  <Weight>
189.323

>  <weinerPath>
220

>  <weinerPol>
13

>  <zagreb>
46

$$$$
O=C(O[C@H](C#N)C2=CC=CC(OC3=CC=CC=C3)=C2)[C@@H]([C@H](C)C)C1=CC=C(Cl)C=C1
  MOE2011           2D

 30 32  0  0  1  0  0  0  0  0999 V2000
    0.0000    0.0000    0.0000 O   0  0  0  0  0  0  0  0  0  0  0  0
   -0.7510    1.2990    0.0000 C   0  0  0  0  0  0  0  0  0  0  0  0
   -2.2510    1.2980    0.0000 O   0  0  0  0  0  0  0  0  0  0  0  0
   -3.0000   -0.0010    0.0000 C   0  0  2  0  0  0  0  0  0  0  0  0
   -2.2490   -1.3000    0.0000 C   0  0  0  0  0  0  0  0  0  0  0  0
   -1.4990   -2.5990    0.0000 N   0  0  0  0  0  0  0  0  0  0  0  0
   -4.5000   -0.0020    0.0000 C   0  0  0  0  0  0  0  0  0  0  0  0
   -5.2510    1.2970    0.0000 C   0  0  0  0  0  0  0  0  0  0  0  0
   -6.7510    1.2960    0.0000 C   0  0  0  0  0  0  0  0  0  0  0  0
   -7.5000   -0.0030    0.0000 C   0  0  0  0  0  0  0  0  0  0  0  0
   -6.7490   -1.3020    0.0000 C   0  0  0  0  0  0  0  0  0  0  0  0
   -7.4990   -2.6010    0.0000 O   0  0  0  0  0  0  0  0  0  0  0  0
   -8.9990   -2.6020    0.0000 C   0  0  0  0  0  0  0  0  0  0  0  0
   -9.7480   -3.9010    0.0000 C   0  0  0  0  0  0  0  0  0  0  0  0
  -11.2480   -3.9020    0.0000 C   0  0  0  0  0  0  0  0  0  0  0  0
  -11.9990   -2.6030    0.0000 C   0  0  0  0  0  0  0  0  0  0  0  0
  -11.2490   -1.3040    0.0000 C   0  0  0  0  0  0  0  0  0  0  0  0
   -9.7490   -1.3030    0.0000 C   0  0  0  0  0  0  0  0  0  0  0  0
   -5.2490   -1.3010    0.0000 C   0  0  0  0  0  0  0  0  0  0  0  0
   -0.0010    2.5980    0.0000 C   0  0  1  0  0  0  0  0  0  0  0  0
   -0.7520    3.8970    0.0000 C   0  0  2  0  0  0  0  0  0  0  0  0
   -0.0020    5.1960    0.0000 C   0  0  0  0  0  0  0  0  0  0  0  0
   -2.2520    3.8960    0.0000 C   0  0  0  0  0  0  0  0  0  0  0  0
    1.4990    2.5990    0.0000 C   0  0  0  0  0  0  0  0  0  0  0  0
    2.2490    1.3000    0.0000 C   0  0  0  0  0  0  0  0  0  0  0  0
    3.7490    1.3010    0.0000 C   0  0  0  0  0  0  0  0  0  0  0  0
    4.4990    2.6000    0.0000 C   0  0  0  0  0  0  0  0  0  0  0  0
    5.9990    2.6010    0.0000 Cl  0  0  0  0  0  0  0  0  0  0  0  0
    3.7480    3.8990    0.0000 C   0  0  0  0  0  0  0  0  0  0  0  0
    2.2480    3.8980    0.0000 C   0  0  0  0  0  0  0  0  0  0  0  0
  1  2  2  0  0  0  0
  2  3  1  0  0  0  0
 20  2  1  1  0  0  0
  4  3  1  6  0  0  0
  4  5  1  0  0  0  0
  4  7  1  0  0  0  0
  5  6  3  0  0  0  0
  7  8  1  0  0  0  0
  7 19  2  0  0  0  0
  8  9  2  0  0  0  0
  9 10  1  0  0  0  0
 10 11  2  0  0  0  0
 11 12  1  0  0  0  0
 11 19  1  0  0  0  0
 12 13  1  0  0  0  0
 13 14  1  0  0  0  0
 13 18  2  0  0  0  0
 14 15  2  0  0  0  0
 15 16  1  0  0  0  0
 16 17  2  0  0  0  0
 17 18  1  0  0  0  0
 20 21  1  0  0  0  0
 20 24  1  0  0  0  0
 21 22  1  1  0  0  0
 21 23  1  0  0  0  0
 24 25  1  0  0  0  0
 24 30  2  0  0  0  0
 25 26  2  0  0  0  0
 26 27  1  0  0  0  0
 27 28  1  0  0  0  0
 27 29  2  0  0  0  0
 29 30  1  0  0  0  0
M  END
>  <DSSTox_RID>
40443

>  <DSSTox_CID>
12667

>  <apol>
64.355446

>  <a_acc>
2

>  <a_acid>
0

>  <a_aro>
18

>  <a_base>
0

>  <a_count>
52

>  <a_don>
0

>  <a_heavy>
30

>  <a_hyd>
24

>  <a_IC>
77.464081

>  <a_ICM>
1.4896938

>  <a_nB>
0

>  <a_nBr>
0

>  <a_nC>
25

>  <a_nCl>
1

>  <a_nF>
0

>  <a_nH>
22

>  <a_nI>
0

>  <a_nN>
1

>  <a_nO>
3

>  <a_nP>
0

>  <a_nS>
0

>  <balabanJ>
1.5429199

>  <BCUT_PEOE_0>
-2.6115348

>  <BCUT_PEOE_1>
-0.60729837

>  <BCUT_PEOE_2>
0.63854975

>  <BCUT_PEOE_3>
2.6196113

>  <BCUT_SLOGP_0>
-2.5445926

>  <BCUT_SLOGP_1>
-0.48817682

>  <BCUT_SLOGP_2>
0.80591482

>  <BCUT_SLOGP_3>
2.6914485

>  <BCUT_SMR_0>
-2.3724985

>  <BCUT_SMR_1>
-0.44214186

>  <BCUT_SMR_2>
0.85431087

>  <BCUT_SMR_3>
2.860651

>  <bpol>
29.920553

>  <b_1rotN>
7

>  <b_1rotR>
0.21875

>  <b_ar>
18

>  <b_count>
54

>  <b_double>
1

>  <b_heavy>
32

>  <b_rotN>
9

>  <b_rotR>
0.28125

>  <b_single>
34

>  <b_triple>
1

>  <chi0>
21.509861

>  <chi0v>
17.543457

>  <chi0v_C>
14.737604

>  <chi0_C>
17.095648

>  <chi1>
14.473565

>  <chi1v>
10.038905

>  <chi1v_C>
8.1961527

>  <chi1_C>
10.978765

>  <chiral>
2

>  <chiral_u>
0

>  <density>
0.78858489

>  <diameter>
16

>  <FCharge>
0

>  <GCUT_PEOE_0>
-0.7816624

>  <GCUT_PEOE_1>
-0.38493714

>  <GCUT_PEOE_2>
0.072848484

>  <GCUT_PEOE_3>
2.644186

>  <GCUT_SLOGP_0>
-0.83264267

>  <GCUT_SLOGP_1>
-0.26386139

>  <GCUT_SLOGP_2>
0.16445385

>  <GCUT_SLOGP_3>
2.7596624

>  <GCUT_SMR_0>
-0.52830613

>  <GCUT_SMR_1>
-0.21605732

>  <GCUT_SMR_2>
0.19305076

>  <GCUT_SMR_3>
2.9052918

>  <Kier1>
24.638672

>  <Kier2>
12.296376

>  <Kier3>
7.2592592

>  <KierA1>
18.515221

>  <KierA2>
9.1428804

>  <KierA3>
5.3571234

>  <KierFlex>
5.6427479

>  <lip_acc>
4

>  <lip_don>
0

>  <lip_druglike>
1

>  <lip_violation>
1

>  <logP(o/w)>
6.7410002

>  <logS>
-7.7225599

>  <mr>
12.087238

>  <mutagenic>
0

>  <nmol>
1

>  <opr_brigid>
18

>  <opr_leadlike>
1

>  <opr_nring>
3

>  <opr_nrot>
8

>  <opr_violation>
1

>  <PC+>
0

>  <PC->
0

>  <PEOE_PC+>
1.1489486

>  <PEOE_PC->
-1.1489486

>  <PEOE_RPC+>
0.24081317

>  <PEOE_RPC->
0.26702249

>  <PEOE_VSA+0>
221.31892

>  <PEOE_VSA+1>
21.436785

>  <PEOE_VSA+2>
22.508045

>  <PEOE_VSA+3>
0

>  <PEOE_VSA+4>
8.458519

>  <PEOE_VSA+5>
14.708499

>  <PEOE_VSA+6>
0

>  <PEOE_VSA-0>
49.634022

>  <PEOE_VSA-1>
29.581947

>  <PEOE_VSA-2>
0

>  <PEOE_VSA-3>
17.742489

>  <PEOE_VSA-4>
0

>  <PEOE_VSA-5>
16.070677

>  <PEOE_VSA-6>
2.503756

>  <PEOE_VSA_FHYD>
0.89667028

>  <PEOE_VSA_FNEG>
0.28599823

>  <PEOE_VSA_FPNEG>
0.045980453

>  <PEOE_VSA_FPOL>
0.10332972

>  <PEOE_VSA_FPOS>
0.71400177

>  <PEOE_VSA_FPPOS>
0.057349265

>  <PEOE_VSA_HYD>
362.22223

>  <PEOE_VSA_NEG>
115.53289

>  <PEOE_VSA_PNEG>
18.574432

>  <PEOE_VSA_POL>
41.741451

>  <PEOE_VSA_POS>
288.43079

>  <PEOE_VSA_PPOS>
23.167019

>  <petitjean>
0.5

>  <petitjeanSC>
1

>  <Q_PC+>
0

>  <Q_PC->
0

>  <Q_RPC+>
0

>  <Q_RPC->
0

>  <Q_VSA_FHYD>
1

>  <Q_VSA_FNEG>
0

>  <Q_VSA_FPNEG>
0

>  <Q_VSA_FPOL>
0

>  <Q_VSA_FPOS>
1

>  <Q_VSA_FPPOS>
0

>  <Q_VSA_HYD>
403.96365

>  <Q_VSA_NEG>
0

>  <Q_VSA_PNEG>
0

>  <Q_VSA_POL>
0

>  <Q_VSA_POS>
403.96365

>  <Q_VSA_PPOS>
0

>  <radius>
8

>  <reactive>
0

>  <rings>
3

>  <RPC+>
0

>  <RPC->
0

>  <rsynth>
1

>  <SlogP>
6.7754841

>  <SlogP_VSA0>
10.999887

>  <SlogP_VSA1>
7.7454643

>  <SlogP_VSA2>
34.862103

>  <SlogP_VSA3>
47.661102

>  <SlogP_VSA4>
10.781946

>  <SlogP_VSA5>
0

>  <SlogP_VSA6>
7.9114027

>  <SlogP_VSA7>
229.36139

>  <SlogP_VSA8>
6.4686494

>  <SlogP_VSA9>
116.28753

>  <SMR>
11.6546

>  <SMR_VSA0>
34.862103

>  <SMR_VSA1>
42.059242

>  <SMR_VSA2>
4.4107962

>  <SMR_VSA3>
47.839806

>  <SMR_VSA4>
0

>  <SMR_VSA5>
229.36139

>  <SMR_VSA6>
7.7454643

>  <SMR_VSA7>
105.80067

>  <TPSA>
59.32

>  <VAdjEq>
0.37005648

>  <VAdjMa>
6

>  <VDistEq>
3.708365

>  <VDistMa>
9.5212688

>  <vdw_area>
403.96365

>  <vdw_vol>
504.36166

>  <vsa_acc>
31.30941

>  <vsa_acid>
0

>  <vsa_base>
0

>  <vsa_don>
0

>  <vsa_hyd>
332.63873

>  <vsa_other>
40.015518

>  <vsa_pol>
31.30941

>  <Weight>
419.90799

>  <weinerPath>
2659

>  <weinerPol>
45

>  <zagreb>
150

$$$$
[O-][N+](C1=CC(C(F)(F)F)=CC([N+]([O-])=O)=C1N(CC)CC(C)=C)=O
  MOE2011           2D

 23 23  0  0  1  0  0  0  0  0999 V2000
    0.0000    0.0000    0.0000 O   0  5  0  0  0  0  0  0  0  0  0  0
    1.5000   -0.0080    0.0000 N   0  3  0  0  0  0  0  0  0  0  0  0
    2.2570    1.2870    0.0000 C   0  0  0  0  0  0  0  0  0  0  0  0
    3.7570    1.2800    0.0000 C   0  0  0  0  0  0  0  0  0  0  0  0
    4.5130    2.5750    0.0000 C   0  0  0  0  0  0  0  0  0  0  0  0
    6.0130    2.5670    0.0000 C   0  0  0  0  0  0  0  0  0  0  0  0
    7.5130    2.5590    0.0000 F   0  0  0  0  0  0  0  0  0  0  0  0
    6.0210    4.0670    0.0000 F   0  0  0  0  0  0  0  0  0  0  0  0
    6.0060    1.0670    0.0000 F   0  0  0  0  0  0  0  0  0  0  0  0
    3.7700    3.8780    0.0000 C   0  0  0  0  0  0  0  0  0  0  0  0
    2.2700    3.8850    0.0000 C   0  0  0  0  0  0  0  0  0  0  0  0
    1.5270    5.1880    0.0000 N   0  3  0  0  0  0  0  0  0  0  0  0
    2.2830    6.4830    0.0000 O   0  5  0  0  0  0  0  0  0  0  0  0
    0.0270    5.1960    0.0000 O   0  0  0  0  0  0  0  0  0  0  0  0
    1.5130    2.5900    0.0000 C   0  0  0  0  0  0  0  0  0  0  0  0
    0.0130    2.5980    0.0000 N   0  0  0  0  0  0  0  0  0  0  0  0
   -0.7430    1.3030    0.0000 C   0  0  0  0  0  0  0  0  0  0  0  0
   -2.2430    1.3110    0.0000 C   0  0  0  0  0  0  0  0  0  0  0  0
   -0.7300    3.9010    0.0000 C   0  0  0  0  0  0  0  0  0  0  0  0
   -2.2300    3.9090    0.0000 C   0  0  0  0  0  0  0  0  0  0  0  0
   -2.9730    5.2120    0.0000 C   0  0  0  0  0  0  0  0  0  0  0  0
   -2.9870    2.6140    0.0000 C   0  0  0  0  0  0  0  0  0  0  0  0
    2.2430   -1.3110    0.0000 O   0  0  0  0  0  0  0  0  0  0  0  0
  1  2  1  0  0  0  0
  2  3  1  0  0  0  0
  2 23  2  0  0  0  0
  3  4  1  0  0  0  0
  3 15  2  0  0  0  0
  4  5  2  0  0  0  0
  5  6  1  0  0  0  0
  5 10  1  0  0  0  0
  6  7  1  0  0  0  0
  6  8  1  0  0  0  0
  6  9  1  0  0  0  0
 10 11  2  0  0  0  0
 11 12  1  0  0  0  0
 11 15  1  0  0  0  0
 12 13  1  0  0  0  0
 12 14  2  0  0  0  0
 15 16  1  0  0  0  0
 16 17  1  0  0  0  0
 16 19  1  0  0  0  0
 17 18  1  0  0  0  0
 19 20  1  0  0  0  0
 20 21  1  0  0  0  0
 20 22  2  0  0  0  0
M  CHG  1   1  -1
M  CHG  1   2   1
M  CHG  1  12   1
M  CHG  1  13  -1
M  END
>  <DSSTox_RID>
40444

>  <DSSTox_CID>
12386

>  <apol>
40.3941

>  <a_acc>
0

>  <a_acid>
0

>  <a_aro>
6

>  <a_base>
0

>  <a_count>
37

>  <a_don>
0

>  <a_heavy>
23

>  <a_hyd>
18

>  <a_IC>
73.831314

>  <a_ICM>
1.995441

>  <a_nB>
0

>  <a_nBr>
0

>  <a_nC>
13

>  <a_nCl>
0

>  <a_nF>
3

>  <a_nH>
14

>  <a_nI>
0

>  <a_nN>
3

>  <a_nO>
4

>  <a_nP>
0

>  <a_nS>
0

>  <balabanJ>
3.1683481

>  <BCUT_PEOE_0>
-2.5645876

>  <BCUT_PEOE_1>
-0.25828469

>  <BCUT_PEOE_2>
0.053471763

>  <BCUT_PEOE_3>
2.5268593

>  <BCUT_SLOGP_0>
-2.6215847

>  <BCUT_SLOGP_1>
0.033500001

>  <BCUT_SLOGP_2>
0.42019999

>  <BCUT_SLOGP_3>
2.5654616

>  <BCUT_SMR_0>
-2.2751517

>  <BCUT_SMR_1>
0.1057

>  <BCUT_SMR_2>
0.33669999

>  <BCUT_SMR_3>
2.7997546

>  <bpol>
23.405897

>  <b_1rotN>
6

>  <b_1rotR>
0.26086956

>  <b_ar>
6

>  <b_count>
37

>  <b_double>
3

>  <b_heavy>
23

>  <b_rotN>
7

>  <b_rotR>
0.30434781

>  <b_single>
28

>  <b_triple>
0

>  <chi0>
17.947229

>  <chi0v>
12.384548

>  <chi0v_C>
8.276021

>  <chi0_C>
9.2151785

>  <chi1>
10.484288

>  <chi1v>
6.4194336

>  <chi1v_C>
3.8189142

>  <chi1_C>
4.8583908

>  <chiral>
0

>  <chiral_u>
0

>  <density>
0.97364116

>  <diameter>
9

>  <FCharge>
0

>  <GCUT_PEOE_0>
-0.81809306

>  <GCUT_PEOE_1>
-0.41828468

>  <GCUT_PEOE_2>
-0.11239371

>  <GCUT_PEOE_3>
2.5977414

>  <GCUT_SLOGP_0>
-0.9809804

>  <GCUT_SLOGP_1>
-0.1265

>  <GCUT_SLOGP_2>
0.26019999

>  <GCUT_SLOGP_3>
2.6749487

>  <GCUT_SMR_0>
-0.50881773

>  <GCUT_SMR_1>
-0.054299999

>  <GCUT_SMR_2>
0.1767

>  <GCUT_SMR_3>
2.8228903

>  <Kier1>
21.043478

>  <Kier2>
8.3927336

>  <Kier3>
5.5

>  <KierA1>
15.723716

>  <KierA2>
6.181438

>  <KierA3>
4.0067825

>  <KierFlex>
4.2258773

>  <lip_acc>
7

>  <lip_don>
0

>  <lip_druglike>
1

>  <lip_violation>
0

>  <logP(o/w)>
3.7427599

>  <logS>
-4.78969

>  <mr>
7.4339776

>  <mutagenic>
0

>  <nmol>
1

>  <opr_brigid>
6

>  <opr_leadlike>
1

>  <opr_nring>
1

>  <opr_nrot>
6

>  <opr_violation>
0

>  <PC+>
0

>  <PC->
0

>  <PEOE_PC+>
1.8045095

>  <PEOE_PC->
-1.8045095

>  <PEOE_RPC+>
0.23218212

>  <PEOE_RPC->
0.14312412

>  <PEOE_VSA+0>
58.816898

>  <PEOE_VSA+1>
82.480606

>  <PEOE_VSA+2>
0

>  <PEOE_VSA+3>
6.6995511

>  <PEOE_VSA+4>
0

>  <PEOE_VSA+5>
0

>  <PEOE_VSA+6>
22.444605

>  <PEOE_VSA-0>
31.616989

>  <PEOE_VSA-1>
0

>  <PEOE_VSA-2>
0

>  <PEOE_VSA-3>
35.725906

>  <PEOE_VSA-4>
0

>  <PEOE_VSA-5>
67.862099

>  <PEOE_VSA-6>
0

>  <PEOE_VSA_FHYD>
0.70453888

>  <PEOE_VSA_FNEG>
0.44235718

>  <PEOE_VSA_FPNEG>
0.22202794

>  <PEOE_VSA_FPOL>
0.29546112

>  <PEOE_VSA_FPOS>
0.55764282

>  <PEOE_VSA_FPPOS>
0.073433176

>  <PEOE_VSA_HYD>
215.33995

>  <PEOE_VSA_NEG>
135.20499

>  <PEOE_VSA_PNEG>
67.862099

>  <PEOE_VSA_POL>
90.306702

>  <PEOE_VSA_POS>
170.44167

>  <PEOE_VSA_PPOS>
22.444605

>  <petitjean>
0.44444445

>  <petitjeanSC>
0.80000001

>  <Q_PC+>
0

>  <Q_PC->
0

>  <Q_RPC+>
0

>  <Q_RPC->
0

>  <Q_VSA_FHYD>
1

>  <Q_VSA_FNEG>
0

>  <Q_VSA_FPNEG>
0

>  <Q_VSA_FPOL>
0

>  <Q_VSA_FPOS>
1

>  <Q_VSA_FPPOS>
0

>  <Q_VSA_HYD>
305.64667

>  <Q_VSA_NEG>
0

>  <Q_VSA_PNEG>
0

>  <Q_VSA_POL>
0

>  <Q_VSA_POS>
305.64667

>  <Q_VSA_PPOS>
0

>  <radius>
5

>  <reactive>
0

>  <rings>
1

>  <RPC+>
0

>  <RPC->
0

>  <rsynth>
1

>  <SlogP>
4.2357001

>  <SlogP_VSA0>
3.1243138

>  <SlogP_VSA1>
14.171232

>  <SlogP_VSA2>
0

>  <SlogP_VSA3>
138.74918

>  <SlogP_VSA4>
3.185575

>  <SlogP_VSA5>
3.185575

>  <SlogP_VSA6>
7.7595162

>  <SlogP_VSA7>
35.286369

>  <SlogP_VSA8>
0

>  <SlogP_VSA9>
151.90341

>  <SMR>
7.7570801

>  <SMR_VSA0>
14.171232

>  <SMR_VSA1>
44.880341

>  <SMR_VSA2>
112.75385

>  <SMR_VSA3>
6.37115

>  <SMR_VSA4>
8.2702427

>  <SMR_VSA5>
35.286369

>  <SMR_VSA6>
36.879158

>  <SMR_VSA7>
98.752823

>  <TPSA>
94.879997

>  <VAdjEq>
0.42622864

>  <VAdjMa>
5.523562

>  <VDistEq>
2.9591765

>  <VDistMa>
8.8146257

>  <vdw_area>
305.64667

>  <vdw_vol>
327.79425

>  <vsa_acc>
0

>  <vsa_acid>
0

>  <vsa_base>
0

>  <vsa_don>
0

>  <vsa_hyd>
237.78456

>  <vsa_other>
67.862099

>  <vsa_pol>
0

>  <Weight>
333.26599

>  <weinerPath>
1078

>  <weinerPol>
37

>  <zagreb>
114

$$$$
O=S(OC2=CC1=C(C=C2)OC(OCC)C(C)1C)(C)=O
  MOE2011           2D

 19 20  0  0  1  0  0  0  0  0999 V2000
    0.0000    0.0000    0.0000 O   0  0  0  0  0  0  0  0  0  0  0  0
   -0.8770   -1.2170    0.0000 S   0  0  0  0  0  0  0  0  0  0  0  0
    0.3390   -2.0940    0.0000 O   0  0  0  0  0  0  0  0  0  0  0  0
    1.7080   -1.4790    0.0000 C   0  0  0  0  0  0  0  0  0  0  0  0
    2.9240   -2.3560    0.0000 C   0  0  0  0  0  0  0  0  0  0  0  0
    4.2920   -1.7410    0.0000 C   0  0  0  0  0  0  0  0  0  0  0  0
    4.4440   -0.2490    0.0000 C   0  0  0  0  0  0  0  0  0  0  0  0
    3.2270    0.6280    0.0000 C   0  0  0  0  0  0  0  0  0  0  0  0
    1.8590    0.0130    0.0000 C   0  0  0  0  0  0  0  0  0  0  0  0
    5.9100    0.0680    0.0000 O   0  0  0  0  0  0  0  0  0  0  0  0
    6.6650   -1.2280    0.0000 C   0  0  3  0  0  0  0  0  0  0  0  0
    8.1570   -1.3790    0.0000 O   0  0  0  0  0  0  0  0  0  0  0  0
    9.0340   -0.1630    0.0000 C   0  0  0  0  0  0  0  0  0  0  0  0
   10.5260   -0.3140    0.0000 C   0  0  0  0  0  0  0  0  0  0  0  0
    5.6650   -2.3460    0.0000 C   0  0  0  0  0  0  0  0  0  0  0  0
    6.7010   -3.4310    0.0000 C   0  0  0  0  0  0  0  0  0  0  0  0
    5.1690   -3.7620    0.0000 C   0  0  0  0  0  0  0  0  0  0  0  0
   -2.0940   -0.3390    0.0000 C   0  0  0  0  0  0  0  0  0  0  0  0
   -1.7550   -2.4330    0.0000 O   0  0  0  0  0  0  0  0  0  0  0  0
  1  2  2  0  0  0  0
  2  3  1  0  0  0  0
  2 18  1  0  0  0  0
  2 19  2  0  0  0  0
  3  4  1  0  0  0  0
  4  5  1  0  0  0  0
  4  9  2  0  0  0  0
  5  6  2  0  0  0  0
  6  7  1  0  0  0  0
  6 15  1  0  0  0  0
  7  8  2  0  0  0  0
  7 10  1  0  0  0  0
  8  9  1  0  0  0  0
 10 11  1  0  0  0  0
 11 12  1  0  0  0  0
 11 15  1  0  0  0  0
 12 13  1  0  0  0  0
 13 14  1  0  0  0  0
 15 16  1  0  0  0  0
 15 17  1  0  0  0  0
M  END
>  <DSSTox_RID>
40447

>  <DSSTox_CID>
14580

>  <apol>
41.792274

>  <a_acc>
5

>  <a_acid>
0

>  <a_aro>
6

>  <a_base>
0

>  <a_count>
37

>  <a_don>
0

>  <a_heavy>
19

>  <a_hyd>
12

>  <a_IC>
57.975769

>  <a_ICM>
1.5669127

>  <a_nB>
0

>  <a_nBr>
0

>  <a_nC>
13

>  <a_nCl>
0

>  <a_nF>
0

>  <a_nH>
18

>  <a_nI>
0

>  <a_nN>
0

>  <a_nO>
5

>  <a_nP>
0

>  <a_nS>
1

>  <balabanJ>
2.0306075

>  <BCUT_PEOE_0>
-2.6065917

>  <BCUT_PEOE_1>
-0.35026732

>  <BCUT_PEOE_2>
0.36700326

>  <BCUT_PEOE_3>
2.6858945

>  <BCUT_SLOGP_0>
-2.6443286

>  <BCUT_SLOGP_1>
-0.3339

>  <BCUT_SLOGP_2>
0.42849049

>  <BCUT_SLOGP_3>
2.7016356

>  <BCUT_SMR_0>
-2.3794248

>  <BCUT_SMR_1>
-0.12107559

>  <BCUT_SMR_2>
0.57757652

>  <BCUT_SMR_3>
2.9233904

>  <bpol>
31.901726

>  <b_1rotN>
4

>  <b_1rotR>
0.2

>  <b_ar>
6

>  <b_count>
38

>  <b_double>
0

>  <b_heavy>
20

>  <b_rotN>
4

>  <b_rotR>
0.2

>  <b_single>
32

>  <b_triple>
0

>  <chi0>
14.259149

>  <chi0v>
12.282495

>  <chi0v_C>
9.0165081

>  <chi0_C>
9.6378279

>  <chi1>
8.7373304

>  <chi1v>
7.8768888

>  <chi1v_C>
3.9838157

>  <chi1_C>
4.7507834

>  <chiral>
1

>  <chiral_u>
1

>  <density>
0.88433647

>  <diameter>
10

>  <FCharge>
0

>  <GCUT_PEOE_0>
-0.79073912

>  <GCUT_PEOE_1>
-0.38921529

>  <GCUT_PEOE_2>
-0.021114478

>  <GCUT_PEOE_3>
2.6209028

>  <GCUT_SLOGP_0>
-0.91832304

>  <GCUT_SLOGP_1>
-0.32961065

>  <GCUT_SLOGP_2>
-0.037

>  <GCUT_SLOGP_3>
2.7066002

>  <GCUT_SMR_0>
-0.5235706

>  <GCUT_SMR_1>
-0.15963091

>  <GCUT_SMR_2>
0.082931794

>  <GCUT_SMR_3>
2.8776822

>  <Kier1>
15.39

>  <Kier2>
5.4131112

>  <Kier3>
3.3659606

>  <KierA1>
14.695125

>  <KierA2>
5.1548123

>  <KierA3>
3.1986399

>  <KierFlex>
3.9868743

>  <lip_acc>
5

>  <lip_don>
0

>  <lip_druglike>
1

>  <lip_violation>
0

>  <logP(o/w)>
2.3280001

>  <logS>
-2.6467199

>  <mr>
7.1547327

>  <mutagenic>
0

>  <nmol>
1

>  <opr_brigid>
10

>  <opr_leadlike>
1

>  <opr_nring>
2

>  <opr_nrot>
4

>  <opr_violation>
0

>  <PC+>
0

>  <PC->
0

>  <PEOE_PC+>
1.3463149

>  <PEOE_PC->
-1.3463149

>  <PEOE_RPC+>
0.42213237

>  <PEOE_RPC->
0.24513277

>  <PEOE_VSA+0>
130.5094

>  <PEOE_VSA+1>
8.458519

>  <PEOE_VSA+2>
33.571259

>  <PEOE_VSA+3>
0

>  <PEOE_VSA+4>
14.708499

>  <PEOE_VSA+5>
0

>  <PEOE_VSA+6>
31.384512

>  <PEOE_VSA-0>
15.808495

>  <PEOE_VSA-1>
0

>  <PEOE_VSA-2>
0

>  <PEOE_VSA-3>
0

>  <PEOE_VSA-4>
32.016521

>  <PEOE_VSA-5>
4.945097

>  <PEOE_VSA-6>
5.0075121

>  <PEOE_VSA_FHYD>
0.68140733

>  <PEOE_VSA_FNEG>
0.20902885

>  <PEOE_VSA_FPNEG>
0.15183662

>  <PEOE_VSA_FPOL>
0.31859267

>  <PEOE_VSA_FPOS>
0.79097116

>  <PEOE_VSA_FPPOS>
0.16675606

>  <PEOE_VSA_HYD>
188.34767

>  <PEOE_VSA_NEG>
57.777626

>  <PEOE_VSA_PNEG>
41.969131

>  <PEOE_VSA_POL>
88.062141

>  <PEOE_VSA_POS>
218.63219

>  <PEOE_VSA_PPOS>
46.09301

>  <petitjean>
0.5

>  <petitjeanSC>
1

>  <Q_PC+>
0

>  <Q_PC->
0

>  <Q_RPC+>
0

>  <Q_RPC->
0

>  <Q_VSA_FHYD>
1

>  <Q_VSA_FNEG>
0

>  <Q_VSA_FPNEG>
0

>  <Q_VSA_FPOL>
0

>  <Q_VSA_FPOS>
1

>  <Q_VSA_FPPOS>
0

>  <Q_VSA_HYD>
276.40982

>  <Q_VSA_NEG>
0

>  <Q_VSA_PNEG>
0

>  <Q_VSA_POL>
0

>  <Q_VSA_POS>
276.40982

>  <Q_VSA_PPOS>
0

>  <radius>
5

>  <reactive>
0

>  <rings>
2

>  <RPC+>
0

>  <RPC->
0

>  <rsynth>
1

>  <SlogP>
2.0576

>  <SlogP_VSA0>
19.545301

>  <SlogP_VSA1>
48.171688

>  <SlogP_VSA2>
28.109539

>  <SlogP_VSA3>
20.926258

>  <SlogP_VSA4>
3.185575

>  <SlogP_VSA5>
31.691174

>  <SlogP_VSA6>
0

>  <SlogP_VSA7>
52.929554

>  <SlogP_VSA8>
0

>  <SlogP_VSA9>
110.4649

>  <SMR>
7.0981798

>  <SMR_VSA0>
59.171577

>  <SMR_VSA1>
19.545301

>  <SMR_VSA2>
0

>  <SMR_VSA3>
22.198933

>  <SMR_VSA4>
0

>  <SMR_VSA5>
52.929554

>  <SMR_VSA6>
20.926258

>  <SMR_VSA7>
140.25237

>  <TPSA>
61.830002

>  <VAdjEq>
0.5023343

>  <VAdjMa>
5.321928

>  <VDistEq>
3.0424905

>  <VDistMa>
8.1978827

>  <vdw_area>
276.40982

>  <vdw_vol>
303.28275

>  <vsa_acc>
41.969131

>  <vsa_acid>
0

>  <vsa_base>
0

>  <vsa_don>
0

>  <vsa_hyd>
208.21939

>  <vsa_other>
26.221283

>  <vsa_pol>
41.969131

>  <Weight>
286.34799

>  <weinerPath>
691

>  <weinerPol>
29

>  <zagreb>
102

$$$$
O=P(SCCC)(OCC)SCCC
  MOE2011           2D

 13 12  0  0  0  0  0  0  0  0999 V2000
    0.0000    0.0000    0.0000 O   0  0  0  0  0  0  0  0  0  0  0  0
   -0.2820   -1.4730    0.0000 P   0  0  0  0  0  0  0  0  0  0  0  0
    1.1920   -1.7550    0.0000 S   0  0  0  0  0  0  0  0  0  0  0  0
    2.1720   -0.6200    0.0000 C   0  0  0  0  0  0  0  0  0  0  0  0
    3.6460   -0.9010    0.0000 C   0  0  0  0  0  0  0  0  0  0  0  0
    4.6260    0.2340    0.0000 C   0  0  0  0  0  0  0  0  0  0  0  0
   -0.5630   -2.9470    0.0000 O   0  0  0  0  0  0  0  0  0  0  0  0
   -1.9800   -3.4390    0.0000 C   0  0  0  0  0  0  0  0  0  0  0  0
   -2.2620   -4.9130    0.0000 C   0  0  0  0  0  0  0  0  0  0  0  0
   -1.7550   -1.1920    0.0000 S   0  0  0  0  0  0  0  0  0  0  0  0
   -2.2480    0.2250    0.0000 C   0  0  0  0  0  0  0  0  0  0  0  0
   -3.7210    0.5070    0.0000 C   0  0  0  0  0  0  0  0  0  0  0  0
   -4.2140    1.9230    0.0000 C   0  0  0  0  0  0  0  0  0  0  0  0
  1  2  2  0  0  0  0
  2  3  1  0  0  0  0
  2  7  1  0  0  0  0
  2 10  1  0  0  0  0
  3  4  1  0  0  0  0
  4  5  1  0  0  0  0
  5  6  1  0  0  0  0
  7  8  1  0  0  0  0
  8  9  1  0  0  0  0
 10 11  1  0  0  0  0
 11 12  1  0  0  0  0
 12 13  1  0  0  0  0
M  END
>  <DSSTox_RID>
40448

>  <DSSTox_CID>
12611

>  <apol>
37.783066

>  <a_acc>
2

>  <a_acid>
0

>  <a_aro>
0

>  <a_base>
0

>  <a_count>
32

>  <a_don>
0

>  <a_heavy>
13

>  <a_hyd>
8

>  <a_IC>
51.289379

>  <a_ICM>
1.6027931

>  <a_nB>
0

>  <a_nBr>
0

>  <a_nC>
8

>  <a_nCl>
0

>  <a_nF>
0

>  <a_nH>
19

>  <a_nI>
0

>  <a_nN>
0

>  <a_nO>
2

>  <a_nP>
1

>  <a_nS>
2

>  <balabanJ>
3.8351126

>  <BCUT_PEOE_0>
-2.5479689

>  <BCUT_PEOE_1>
-0.058054015

>  <BCUT_PEOE_2>
0.042359665

>  <BCUT_PEOE_3>
2.5705864

>  <BCUT_SLOGP_0>
-2.4432557

>  <BCUT_SLOGP_1>
0.123

>  <BCUT_SLOGP_2>
0.16955452

>  <BCUT_SLOGP_3>
2.8375642

>  <BCUT_SMR_0>
-2.2627673

>  <BCUT_SMR_1>
0.1057

>  <BCUT_SMR_2>
0.25551412

>  <BCUT_SMR_3>
2.9481175

>  <bpol>
31.124933

>  <b_1rotN>
8

>  <b_1rotR>
0.66666669

>  <b_ar>
0

>  <b_count>
31

>  <b_double>
0

>  <b_heavy>
12

>  <b_rotN>
8

>  <b_rotR>
0.66666669

>  <b_single>
31

>  <b_triple>
0

>  <chi0>
10.156855

>  <chi0v>
11.143161

>  <chi0v_C>
6.5355339

>  <chi0_C>
6.5355339

>  <chi1>
6.1819806

>  <chi1v>
9.5238266

>  <chi1v_C>
3.1213202

>  <chi1_C>
3.1213202

>  <chiral>
0

>  <chiral_u>
0

>  <density>
0.91124547

>  <diameter>
8

>  <FCharge>
0

>  <GCUT_PEOE_0>
-0.81696767

>  <GCUT_PEOE_1>
-0.24779293

>  <GCUT_PEOE_2>
-0.12128537

>  <GCUT_PEOE_3>
2.3233712

>  <GCUT_SLOGP_0>
-1.29133

>  <GCUT_SLOGP_1>
-0.037

>  <GCUT_SLOGP_2>
0.081066474

>  <GCUT_SLOGP_3>
2.5267279

>  <GCUT_SMR_0>
-0.5206989

>  <GCUT_SMR_1>
-0.054299999

>  <GCUT_SMR_2>
0.11445532

>  <GCUT_SMR_3>
2.6442196

>  <Kier1>
13

>  <Kier2>
7.4081631

>  <Kier3>
6.1224489

>  <KierA1>
18.527905

>  <KierA2>
10.873638

>  <KierA3>
9.2090769

>  <KierFlex>
15.497363

>  <lip_acc>
2

>  <lip_don>
0

>  <lip_druglike>
1

>  <lip_violation>
0

>  <logP(o/w)>
3.4660001

>  <logS>
-2.94959

>  <mr>
6.5343223

>  <mutagenic>
0

>  <nmol>
1

>  <opr_brigid>
0

>  <opr_leadlike>
1

>  <opr_nring>
0

>  <opr_nrot>
8

>  <opr_violation>
0

>  <PC+>
0

>  <PC->
0

>  <PEOE_PC+>
0.70886528

>  <PEOE_PC->
-0.70886528

>  <PEOE_RPC+>
0.38032582

>  <PEOE_RPC->
0.53598869

>  <PEOE_VSA+0>
119.84234

>  <PEOE_VSA+1>
64.82766

>  <PEOE_VSA+2>
35.569111

>  <PEOE_VSA+3>
0

>  <PEOE_VSA+4>
0

>  <PEOE_VSA+5>
12.467347

>  <PEOE_VSA+6>
0

>  <PEOE_VSA-0>
0

>  <PEOE_VSA-1>
0

>  <PEOE_VSA-2>
0

>  <PEOE_VSA-3>
0

>  <PEOE_VSA-4>
0

>  <PEOE_VSA-5>
0

>  <PEOE_VSA-6>
20.395109

>  <PEOE_VSA_FHYD>
0.870161

>  <PEOE_VSA_FNEG>
0.080580726

>  <PEOE_VSA_FPNEG>
0.080580726

>  <PEOE_VSA_FPOL>
0.129839

>  <PEOE_VSA_FPOS>
0.91941929

>  <PEOE_VSA_FPPOS>
0.049258277

>  <PEOE_VSA_HYD>
220.23911

>  <PEOE_VSA_NEG>
20.395109

>  <PEOE_VSA_PNEG>
20.395109

>  <PEOE_VSA_POL>
32.862453

>  <PEOE_VSA_POS>
232.70647

>  <PEOE_VSA_PPOS>
12.467347

>  <petitjean>
0.5

>  <petitjeanSC>
1

>  <Q_PC+>
0

>  <Q_PC->
0

>  <Q_RPC+>
0

>  <Q_RPC->
0

>  <Q_VSA_FHYD>
1

>  <Q_VSA_FNEG>
0

>  <Q_VSA_FPNEG>
0

>  <Q_VSA_FPOL>
0

>  <Q_VSA_FPOS>
1

>  <Q_VSA_FPPOS>
0

>  <Q_VSA_HYD>
253.10156

>  <Q_VSA_NEG>
0

>  <Q_VSA_PNEG>
0

>  <Q_VSA_POL>
0

>  <Q_VSA_POS>
253.10156

>  <Q_VSA_PPOS>
0

>  <radius>
4

>  <reactive>
0

>  <rings>
0

>  <RPC+>
0

>  <RPC->
0

>  <rsynth>
1

>  <SlogP>
3.3471999

>  <SlogP_VSA0>
22.433765

>  <SlogP_VSA1>
0

>  <SlogP_VSA2>
6.9216304

>  <SlogP_VSA3>
55.393387

>  <SlogP_VSA4>
0

>  <SlogP_VSA5>
0

>  <SlogP_VSA6>
0

>  <SlogP_VSA7>
0

>  <SlogP_VSA8>
37.736813

>  <SlogP_VSA9>
165.73198

>  <SMR>
6.4046001

>  <SMR_VSA0>
29.355396

>  <SMR_VSA1>
0

>  <SMR_VSA2>
0

>  <SMR_VSA3>
0

>  <SMR_VSA4>
0

>  <SMR_VSA5>
37.736813

>  <SMR_VSA6>
55.393387

>  <SMR_VSA7>
165.73198

>  <TPSA>
26.299999

>  <VAdjEq>
0.5894835

>  <VAdjMa>
4.5849624

>  <VDistEq>
2.7777164

>  <VDistMa>
7.0901966

>  <vdw_area>
253.10156

>  <vdw_vol>
244.93071

>  <vsa_acc>
20.395109

>  <vsa_acid>
0

>  <vsa_base>
0

>  <vsa_don>
0

>  <vsa_hyd>
177.46992

>  <vsa_other>
55.236534

>  <vsa_pol>
20.395109

>  <Weight>
242.34399

>  <weinerPath>
276

>  <weinerPol>
14

>  <zagreb>
52

$$$$
FC2=C(C(F)=CC=C2)C1=NC(C3=C(OCC)C=C(C(C)(C)C)C=C3)CO1
  MOE2011           2D

 26 28  0  0  1  0  0  0  0  0999 V2000
    0.0000    0.0000    0.0000 F   0  0  0  0  0  0  0  0  0  0  0  0
   -1.3000    0.7480    0.0000 C   0  0  0  0  0  0  0  0  0  0  0  0
   -1.3020    2.2480    0.0000 C   0  0  0  0  0  0  0  0  0  0  0  0
   -2.6020    2.9970    0.0000 C   0  0  0  0  0  0  0  0  0  0  0  0
   -2.6040    4.4970    0.0000 F   0  0  0  0  0  0  0  0  0  0  0  0
   -3.9000    2.2450    0.0000 C   0  0  0  0  0  0  0  0  0  0  0  0
   -3.8980    0.7450    0.0000 C   0  0  0  0  0  0  0  0  0  0  0  0
   -2.5980   -0.0030    0.0000 C   0  0  0  0  0  0  0  0  0  0  0  0
   -0.0040    3.0000    0.0000 C   0  0  0  0  0  0  0  0  0  0  0  0
    1.3670    2.3920    0.0000 N   0  0  0  0  0  0  0  0  0  0  0  0
    2.3690    3.5080    0.0000 C   0  0  3  0  0  0  0  0  0  0  0  0
    3.8610    3.3530    0.0000 C   0  0  0  0  0  0  0  0  0  0  0  0
    4.7420    4.5670    0.0000 C   0  0  0  0  0  0  0  0  0  0  0  0
    4.1300    5.9370    0.0000 O   0  0  0  0  0  0  0  0  0  0  0  0
    5.0100    7.1520    0.0000 C   0  0  0  0  0  0  0  0  0  0  0  0
    4.3980    8.5210    0.0000 C   0  0  0  0  0  0  0  0  0  0  0  0
    6.2340    4.4130    0.0000 C   0  0  0  0  0  0  0  0  0  0  0  0
    6.8450    3.0430    0.0000 C   0  0  0  0  0  0  0  0  0  0  0  0
    8.3370    2.8880    0.0000 C   0  0  0  0  0  0  0  0  0  0  0  0
    9.8290    2.7330    0.0000 C   0  0  0  0  0  0  0  0  0  0  0  0
    8.1830    1.3960    0.0000 C   0  0  0  0  0  0  0  0  0  0  0  0
    8.4920    4.3800    0.0000 C   0  0  0  0  0  0  0  0  0  0  0  0
    5.9650    1.8280    0.0000 C   0  0  0  0  0  0  0  0  0  0  0  0
    4.4730    1.9830    0.0000 C   0  0  0  0  0  0  0  0  0  0  0  0
    1.6180    4.8060    0.0000 C   0  0  0  0  0  0  0  0  0  0  0  0
    0.1510    4.4920    0.0000 O   0  0  0  0  0  0  0  0  0  0  0  0
  1  2  1  0  0  0  0
  2  3  1  0  0  0  0
  2  8  2  0  0  0  0
  3  4  2  0  0  0  0
  3  9  1  0  0  0  0
  4  5  1  0  0  0  0
  4  6  1  0  0  0  0
  6  7  2  0  0  0  0
  7  8  1  0  0  0  0
  9 10  2  0  0  0  0
  9 26  1  0  0  0  0
 10 11  1  0  0  0  0
 11 12  1  0  0  0  0
 11 25  1  0  0  0  0
 12 13  1  0  0  0  0
 12 24  2  0  0  0  0
 13 14  1  0  0  0  0
 13 17  2  0  0  0  0
 14 15  1  0  0  0  0
 15 16  1  0  0  0  0
 17 18  1  0  0  0  0
 18 19  1  0  0  0  0
 18 23  2  0  0  0  0
 19 20  1  0  0  0  0
 19 21  1  0  0  0  0
 19 22  1  0  0  0  0
 23 24  1  0  0  0  0
 25 26  1  0  0  0  0
M  END
>  <DSSTox_RID>
40452

>  <DSSTox_CID>
14586

>  <apol>
56.114239

>  <a_acc>
2

>  <a_acid>
0

>  <a_aro>
12

>  <a_base>
0

>  <a_count>
49

>  <a_don>
0

>  <a_heavy>
26

>  <a_hyd>
22

>  <a_IC>
74.840195

>  <a_ICM>
1.5273509

>  <a_nB>
0

>  <a_nBr>
0

>  <a_nC>
21

>  <a_nCl>
0

>  <a_nF>
2

>  <a_nH>
23

>  <a_nI>
0

>  <a_nN>
1

>  <a_nO>
2

>  <a_nP>
0

>  <a_nS>
0

>  <balabanJ>
1.6360084

>  <BCUT_PEOE_0>
-2.6324711

>  <BCUT_PEOE_1>
-0.51445097

>  <BCUT_PEOE_2>
0.56994289

>  <BCUT_PEOE_3>
2.5845451

>  <BCUT_SLOGP_0>
-2.5374329

>  <BCUT_SLOGP_1>
-0.40369105

>  <BCUT_SLOGP_2>
0.68576986

>  <BCUT_SLOGP_3>
2.6881232

>  <BCUT_SMR_0>
-2.370486

>  <BCUT_SMR_1>
-0.37851331

>  <BCUT_SMR_2>
0.70788848

>  <BCUT_SMR_3>
2.8528674

>  <bpol>
32.701759

>  <b_1rotN>
4

>  <b_1rotR>
0.14285715

>  <b_ar>
12

>  <b_count>
51

>  <b_double>
1

>  <b_heavy>
28

>  <b_rotN>
5

>  <b_rotR>
0.17857143

>  <b_single>
38

>  <b_triple>
0

>  <chi0>
18.896976

>  <chi0v>
15.475305

>  <chi0v_C>
13.455666

>  <chi0_C>
14.775657

>  <chi1>
12.30788

>  <chi1v>
8.7314501

>  <chi1v_C>
6.8860812

>  <chi1_C>
8.5201864

>  <chiral>
1

>  <chiral_u>
1

>  <density>
0.80246311

>  <diameter>
12

>  <FCharge>
0

>  <GCUT_PEOE_0>
-0.79565561

>  <GCUT_PEOE_1>
-0.3859973

>  <GCUT_PEOE_2>
0.016370049

>  <GCUT_PEOE_3>
2.7019281

>  <GCUT_SLOGP_0>
-0.88770503

>  <GCUT_SLOGP_1>
-0.24010549

>  <GCUT_SLOGP_2>
0.15234862

>  <GCUT_SLOGP_3>
2.8147941

>  <GCUT_SMR_0>
-0.52241224

>  <GCUT_SMR_1>
-0.17821006

>  <GCUT_SMR_2>
0.15679021

>  <GCUT_SMR_3>
2.9652293

>  <Kier1>
20.727041

>  <Kier2>
8.56633

>  <Kier3>
4.716269

>  <KierA1>
16.24048

>  <KierA2>
6.6421614

>  <KierA3>
3.6295853

>  <KierFlex>
4.1489191

>  <lip_acc>
3

>  <lip_don>
0

>  <lip_druglike>
1

>  <lip_violation>
1

>  <logP(o/w)>
5.5879998

>  <logS>
-6.7652502

>  <mr>
9.9035597

>  <mutagenic>
0

>  <nmol>
1

>  <opr_brigid>
17

>  <opr_leadlike>
1

>  <opr_nring>
3

>  <opr_nrot>
5

>  <opr_violation>
1

>  <PC+>
0

>  <PC->
0

>  <PEOE_PC+>
1.3196088

>  <PEOE_PC->
-1.3196088

>  <PEOE_RPC+>
0.13572469

>  <PEOE_RPC->
0.25056526

>  <PEOE_VSA+0>
183.07631

>  <PEOE_VSA+1>
10.667059

>  <PEOE_VSA+2>
40.100166

>  <PEOE_VSA+3>
41.707558

>  <PEOE_VSA+4>
0

>  <PEOE_VSA+5>
0

>  <PEOE_VSA+6>
0

>  <PEOE_VSA-0>
33.825527

>  <PEOE_VSA-1>
0

>  <PEOE_VSA-2>
0

>  <PEOE_VSA-3>
0

>  <PEOE_VSA-4>
29.499847

>  <PEOE_VSA-5>
0

>  <PEOE_VSA-6>
5.0075121

>  <PEOE_VSA_FHYD>
0.89965409

>  <PEOE_VSA_FNEG>
0.19870913

>  <PEOE_VSA_FPNEG>
0.10034593

>  <PEOE_VSA_FPOL>
0.10034593

>  <PEOE_VSA_FPOS>
0.80129087

>  <PEOE_VSA_FPPOS>
0

>  <PEOE_VSA_HYD>
309.37662

>  <PEOE_VSA_NEG>
68.332886

>  <PEOE_VSA_PNEG>
34.507359

>  <PEOE_VSA_POL>
34.507359

>  <PEOE_VSA_POS>
275.55109

>  <PEOE_VSA_PPOS>
0

>  <petitjean>
0.5

>  <petitjeanSC>
1

>  <Q_PC+>
0

>  <Q_PC->
0

>  <Q_RPC+>
0

>  <Q_RPC->
0

>  <Q_VSA_FHYD>
1

>  <Q_VSA_FNEG>
0

>  <Q_VSA_FPNEG>
0

>  <Q_VSA_FPOL>
0

>  <Q_VSA_FPOS>
1

>  <Q_VSA_FPPOS>
0

>  <Q_VSA_HYD>
343.88397

>  <Q_VSA_NEG>
0

>  <Q_VSA_PNEG>
0

>  <Q_VSA_POL>
0

>  <Q_VSA_POS>
343.88397

>  <Q_VSA_PPOS>
0

>  <radius>
6

>  <reactive>
0

>  <rings>
3

>  <RPC+>
0

>  <RPC->
0

>  <rsynth>
0.5

>  <SlogP>
5.2746

>  <SlogP_VSA0>
10.999887

>  <SlogP_VSA1>
4.8146005

>  <SlogP_VSA2>
29.241924

>  <SlogP_VSA3>
41.852516

>  <SlogP_VSA4>
9.5567245

>  <SlogP_VSA5>
16.78553

>  <SlogP_VSA6>
0

>  <SlogP_VSA7>
105.85911

>  <SlogP_VSA8>
3.9819686

>  <SlogP_VSA9>
168.46771

>  <SMR>
9.8009996

>  <SMR_VSA0>
10.999887

>  <SMR_VSA1>
57.705643

>  <SMR_VSA2>
18.242037

>  <SMR_VSA3>
18.782122

>  <SMR_VSA4>
0

>  <SMR_VSA5>
105.85911

>  <SMR_VSA6>
46.667118

>  <SMR_VSA7>
133.30406

>  <TPSA>
30.82

>  <VAdjEq>
0.41210872

>  <VAdjMa>
5.8073549

>  <VDistEq>
3.4189

>  <VDistMa>
9.1110115

>  <vdw_area>
343.88397

>  <vdw_vol>
418.99991

>  <vsa_acc>
8.1863317

>  <vsa_acid>
0

>  <vsa_base>
0

>  <vsa_don>
0

>  <vsa_hyd>
320.24435

>  <vsa_other>
15.453287

>  <vsa_pol>
8.1863317

>  <Weight>
359.41599

>  <weinerPath>
1688

>  <weinerPol>
42

>  <zagreb>
138

$$$$
ClC(Cl)(Cl)C1=NSC(OCC)=N1
  MOE2011           2D

 12 12  0  0  0  0  0  0  0  0999 V2000
    0.0000    0.0000    0.0000 Cl  0  0  0  0  0  0  0  0  0  0  0  0
   -0.7440    1.3020    0.0000 C   0  0  0  0  0  0  0  0  0  0  0  0
   -1.4890    2.6050    0.0000 Cl  0  0  0  0  0  0  0  0  0  0  0  0
   -2.0470    0.5580    0.0000 Cl  0  0  0  0  0  0  0  0  0  0  0  0
    0.5580    2.0470    0.0000 C   0  0  0  0  0  0  0  0  0  0  0  0
    0.7210    3.5380    0.0000 N   0  0  0  0  0  0  0  0  0  0  0  0
    2.1900    3.8430    0.0000 S   0  0  0  0  0  0  0  0  0  0  0  0
    2.9340    2.5410    0.0000 C   0  0  0  0  0  0  0  0  0  0  0  0
    4.4250    2.3780    0.0000 O   0  0  0  0  0  0  0  0  0  0  0  0
    5.3120    3.5870    0.0000 C   0  0  0  0  0  0  0  0  0  0  0  0
    6.8030    3.4240    0.0000 C   0  0  0  0  0  0  0  0  0  0  0  0
    1.9260    1.4310    0.0000 N   0  0  0  0  0  0  0  0  0  0  0  0
  1  2  1  0  0  0  0
  2  3  1  0  0  0  0
  2  4  1  0  0  0  0
  2  5  1  0  0  0  0
  5  6  2  0  0  0  0
  5 12  1  0  0  0  0
  6  7  1  0  0  0  0
  7  8  1  0  0  0  0
  8  9  1  0  0  0  0
  8 12  2  0  0  0  0
  9 10  1  0  0  0  0
 10 11  1  0  0  0  0
M  END
>  <DSSTox_RID>
40453

>  <DSSTox_CID>
12547

>  <apol>
24.575966

>  <a_acc>
2

>  <a_acid>
0

>  <a_aro>
5

>  <a_base>
0

>  <a_count>
17

>  <a_don>
0

>  <a_heavy>
12

>  <a_hyd>
5

>  <a_IC>
39.512699

>  <a_ICM>
2.3242764

>  <a_nB>
0

>  <a_nBr>
0

>  <a_nC>
5

>  <a_nCl>
3

>  <a_nF>
0

>  <a_nH>
5

>  <a_nI>
0

>  <a_nN>
2

>  <a_nO>
1

>  <a_nP>
0

>  <a_nS>
1

>  <balabanJ>
2.3734694

>  <BCUT_PEOE_0>
-2.368891

>  <BCUT_PEOE_1>
-0.24878524

>  <BCUT_PEOE_2>
0.35849532

>  <BCUT_PEOE_3>
2.3521874

>  <BCUT_SLOGP_0>
-2.3918273

>  <BCUT_SLOGP_1>
-0.19702727

>  <BCUT_SLOGP_2>
0.68949997

>  <BCUT_SLOGP_3>
2.4851367

>  <BCUT_SMR_0>
-2.1390591

>  <BCUT_SMR_1>
0.046870507

>  <BCUT_SMR_2>
0.79420733

>  <BCUT_SMR_3>
2.5935991

>  <bpol>
13.562035

>  <b_1rotN>
2

>  <b_1rotR>
0.16666667

>  <b_ar>
5

>  <b_count>
17

>  <b_double>
0

>  <b_heavy>
12

>  <b_rotN>
3

>  <b_rotR>
0.25

>  <b_single>
12

>  <b_triple>
0

>  <chi0>
9.1902342

>  <chi0v>
9.1362076

>  <chi0v_C>
3.2071068

>  <chi0_C>
3.3618073

>  <chi1>
5.5370235

>  <chi1v>
4.9816618

>  <chi1v_C>
0.95710677

>  <chi1_C>
0.9957819

>  <chiral>
0

>  <chiral_u>
0

>  <density>
1.1727724

>  <diameter>
7

>  <FCharge>
0

>  <GCUT_PEOE_0>
-0.78000689

>  <GCUT_PEOE_1>
-0.35184512

>  <GCUT_PEOE_2>
-0.01828284

>  <GCUT_PEOE_3>
1.9379232

>  <GCUT_SLOGP_0>
-0.88749838

>  <GCUT_SLOGP_1>
-0.24173698

>  <GCUT_SLOGP_2>
0.38985127

>  <GCUT_SLOGP_3>
2.0987234

>  <GCUT_SMR_0>
-0.51331306

>  <GCUT_SMR_1>
-0.085961469

>  <GCUT_SMR_2>
0.42508805

>  <GCUT_SMR_3>
2.2307799

>  <Kier1>
10.083333

>  <Kier2>
3.8062284

>  <Kier3>
2.7777777

>  <KierA1>
13.866088

>  <KierA2>
5.3892694

>  <KierA3>
4.0233922

>  <KierFlex>
6.2273402

>  <lip_acc>
3

>  <lip_don>
0

>  <lip_druglike>
1

>  <lip_violation>
0

>  <logP(o/w)>
2.47908

>  <logS>
-3.91382

>  <mr>
5.2123051

>  <mutagenic>
1

>  <nmol>
1

>  <opr_brigid>
5

>  <opr_leadlike>
1

>  <opr_nring>
1

>  <opr_nrot>
2

>  <opr_violation>
0

>  <PC+>
0

>  <PC->
0

>  <PEOE_PC+>
1.0405393

>  <PEOE_PC->
-1.0405393

>  <PEOE_RPC+>
0.27932888

>  <PEOE_RPC->
0.30956918

>  <PEOE_VSA+0>
29.408449

>  <PEOE_VSA+1>
0

>  <PEOE_VSA+2>
36.984066

>  <PEOE_VSA+3>
11.190562

>  <PEOE_VSA+4>
0

>  <PEOE_VSA+5>
23.353428

>  <PEOE_VSA+6>
0

>  <PEOE_VSA-0>
0

>  <PEOE_VSA-1>
88.745842

>  <PEOE_VSA-2>
0

>  <PEOE_VSA-3>
0

>  <PEOE_VSA-4>
5.6825762

>  <PEOE_VSA-5>
8.0752068

>  <PEOE_VSA-6>
2.503756

>  <PEOE_VSA_FHYD>
0.80764192

>  <PEOE_VSA_FNEG>
0.50988346

>  <PEOE_VSA_FPNEG>
0.078961015

>  <PEOE_VSA_FPOL>
0.19235806

>  <PEOE_VSA_FPOS>
0.49011654

>  <PEOE_VSA_FPPOS>
0.11339704

>  <PEOE_VSA_HYD>
166.32892

>  <PEOE_VSA_NEG>
105.00738

>  <PEOE_VSA_PNEG>
16.261539

>  <PEOE_VSA_POL>
39.614967

>  <PEOE_VSA_POS>
100.93651

>  <PEOE_VSA_PPOS>
23.353428

>  <petitjean>
0.42857143

>  <petitjeanSC>
0.75

>  <Q_PC+>
0

>  <Q_PC->
0

>  <Q_RPC+>
0

>  <Q_RPC->
0

>  <Q_VSA_FHYD>
1

>  <Q_VSA_FNEG>
0

>  <Q_VSA_FPNEG>
0

>  <Q_VSA_FPOL>
0

>  <Q_VSA_FPOS>
1

>  <Q_VSA_FPPOS>
0

>  <Q_VSA_HYD>
205.94389

>  <Q_VSA_NEG>
0

>  <Q_VSA_PNEG>
0

>  <Q_VSA_POL>
0

>  <Q_VSA_POS>
205.94389

>  <Q_VSA_PPOS>
0

>  <radius>
4

>  <reactive>
0

>  <rings>
1

>  <RPC+>
0

>  <RPC->
0

>  <rsynth>
1

>  <SlogP>
3.075

>  <SlogP_VSA0>
10.999887

>  <SlogP_VSA1>
31.761551

>  <SlogP_VSA2>
0

>  <SlogP_VSA3>
20.926258

>  <SlogP_VSA4>
2.3279202

>  <SlogP_VSA5>
0

>  <SlogP_VSA6>
0

>  <SlogP_VSA7>
0

>  <SlogP_VSA8>
0

>  <SlogP_VSA9>
184.81134

>  <SMR>
5.0432

>  <SMR_VSA0>
0

>  <SMR_VSA1>
42.76144

>  <SMR_VSA2>
0

>  <SMR_VSA3>
5.3153472

>  <SMR_VSA4>
0

>  <SMR_VSA5>
0

>  <SMR_VSA6>
20.926258

>  <SMR_VSA7>
181.82391

>  <TPSA>
35.009998

>  <VAdjEq>
0.65002245

>  <VAdjMa>
4.5849624

>  <VDistEq>
2.6060526

>  <VDistMa>
6.836813

>  <vdw_area>
205.94389

>  <vdw_vol>
206.76901

>  <vsa_acc>
13.757783

>  <vsa_acid>
0

>  <vsa_base>
0

>  <vsa_don>
0

>  <vsa_hyd>
140.21277

>  <vsa_other>
51.973339

>  <vsa_pol>
13.757783

>  <Weight>
247.533

>  <weinerPath>
204

>  <weinerPol>
13

>  <zagreb>
58

$$$$
O=C(OC(C2=CC=C(OC3=CC=CC=C3)C=C2)1C)N(NC4=CC=CC=C4)C1=O
  MOE2011           2D

 28 31  0  0  1  0  0  0  0  0999 V2000
    0.0000    0.0000    0.0000 O   0  0  0  0  0  0  0  0  0  0  0  0
   -1.0210    1.0980    0.0000 C   0  0  0  0  0  0  0  0  0  0  0  0
   -2.5110    0.9180    0.0000 O   0  0  0  0  0  0  0  0  0  0  0  0
   -3.1430    2.2780    0.0000 C   0  0  3  0  0  0  0  0  0  0  0  0
   -4.5410    1.7360    0.0000 C   0  0  0  0  0  0  0  0  0  0  0  0
   -4.7720    0.2540    0.0000 C   0  0  0  0  0  0  0  0  0  0  0  0
   -6.1700   -0.2870    0.0000 C   0  0  0  0  0  0  0  0  0  0  0  0
   -7.3390    0.6530    0.0000 C   0  0  0  0  0  0  0  0  0  0  0  0
   -8.7380    0.1110    0.0000 O   0  0  0  0  0  0  0  0  0  0  0  0
   -9.9060    1.0520    0.0000 C   0  0  0  0  0  0  0  0  0  0  0  0
  -11.3050    0.5100    0.0000 C   0  0  0  0  0  0  0  0  0  0  0  0
  -12.4730    1.4510    0.0000 C   0  0  0  0  0  0  0  0  0  0  0  0
  -12.2430    2.9330    0.0000 C   0  0  0  0  0  0  0  0  0  0  0  0
  -10.8440    3.4750    0.0000 C   0  0  0  0  0  0  0  0  0  0  0  0
   -9.6760    2.5340    0.0000 C   0  0  0  0  0  0  0  0  0  0  0  0
   -7.1090    2.1350    0.0000 C   0  0  0  0  0  0  0  0  0  0  0  0
   -5.7100    2.6770    0.0000 C   0  0  0  0  0  0  0  0  0  0  0  0
   -4.2690    3.2690    0.0000 C   0  0  0  0  0  0  0  0  0  0  0  0
   -0.7330    2.5710    0.0000 N   0  0  0  0  0  0  0  0  0  0  0  0
    0.6270    3.2030    0.0000 N   0  0  0  0  0  0  0  0  0  0  0  0
    1.8550    2.3400    0.0000 C   0  0  0  0  0  0  0  0  0  0  0  0
    1.7220    0.8460    0.0000 C   0  0  0  0  0  0  0  0  0  0  0  0
    2.9490   -0.0160    0.0000 C   0  0  0  0  0  0  0  0  0  0  0  0
    4.3100    0.6160    0.0000 C   0  0  0  0  0  0  0  0  0  0  0  0
    4.4430    2.1100    0.0000 C   0  0  0  0  0  0  0  0  0  0  0  0
    3.2150    2.9720    0.0000 C   0  0  0  0  0  0  0  0  0  0  0  0
   -2.0440    3.3000    0.0000 C   0  0  0  0  0  0  0  0  0  0  0  0
   -2.2250    4.7890    0.0000 O   0  0  0  0  0  0  0  0  0  0  0  0
  1  2  2  0  0  0  0
  2  3  1  0  0  0  0
  2 19  1  0  0  0  0
  3  4  1  0  0  0  0
  4  5  1  0  0  0  0
  4 18  1  0  0  0  0
  4 27  1  0  0  0  0
  5  6  1  0  0  0  0
  5 17  2  0  0  0  0
  6  7  2  0  0  0  0
  7  8  1  0  0  0  0
  8  9  1  0  0  0  0
  8 16  2  0  0  0  0
  9 10  1  0  0  0  0
 10 11  1  0  0  0  0
 10 15  2  0  0  0  0
 11 12  2  0  0  0  0
 12 13  1  0  0  0  0
 13 14  2  0  0  0  0
 14 15  1  0  0  0  0
 16 17  1  0  0  0  0
 19 20  1  0  0  0  0
 19 27  1  0  0  0  0
 20 21  1  0  0  0  0
 21 22  1  0  0  0  0
 21 26  2  0  0  0  0
 22 23  2  0  0  0  0
 23 24  1  0  0  0  0
 24 25  2  0  0  0  0
 25 26  1  0  0  0  0
 27 28  2  0  0  0  0
M  END
>  <DSSTox_RID>
40454

>  <DSSTox_CID>
14588

>  <apol>
56.130276

>  <a_acc>
2

>  <a_acid>
0

>  <a_aro>
18

>  <a_base>
0

>  <a_count>
46

>  <a_don>
1

>  <a_heavy>
28

>  <a_hyd>
20

>  <a_IC>
70.917702

>  <a_ICM>
1.5416893

>  <a_nB>
0

>  <a_nBr>
0

>  <a_nC>
22

>  <a_nCl>
0

>  <a_nF>
0

>  <a_nH>
18

>  <a_nI>
0

>  <a_nN>
2

>  <a_nO>
4

>  <a_nP>
0

>  <a_nS>
0

>  <balabanJ>
1.2968177

>  <BCUT_PEOE_0>
-2.4112082

>  <BCUT_PEOE_1>
-0.64360768

>  <BCUT_PEOE_2>
0.70236534

>  <BCUT_PEOE_3>
2.618804

>  <BCUT_SLOGP_0>
-2.4714134

>  <BCUT_SLOGP_1>
-0.53807992

>  <BCUT_SLOGP_2>
0.80591482

>  <BCUT_SLOGP_3>
2.6125929

>  <BCUT_SMR_0>
-2.1857202

>  <BCUT_SMR_1>
-0.49986199

>  <BCUT_SMR_2>
0.85431087

>  <BCUT_SMR_3>
2.8483472

>  <bpol>
26.745726

>  <b_1rotN>
5

>  <b_1rotR>
0.16129032

>  <b_ar>
18

>  <b_count>
49

>  <b_double>
2

>  <b_heavy>
31

>  <b_rotN>
5

>  <b_rotR>
0.16129032

>  <b_single>
29

>  <b_triple>
0

>  <chi0>
19.562267

>  <chi0v>
15.163111

>  <chi0v_C>
12.582904

>  <chi0_C>
14.863597

>  <chi1>
13.559499

>  <chi1v>
8.7882996

>  <chi1v_C>
6.6427345

>  <chi1_C>
9.3433371

>  <chiral>
1

>  <chiral_u>
1

>  <density>
0.79940242

>  <diameter>
16

>  <FCharge>
0

>  <GCUT_PEOE_0>
-0.80049849

>  <GCUT_PEOE_1>
-0.3868292

>  <GCUT_PEOE_2>
0.08099243

>  <GCUT_PEOE_3>
2.5869641

>  <GCUT_SLOGP_0>
-1.0363072

>  <GCUT_SLOGP_1>
-0.26386139

>  <GCUT_SLOGP_2>
0.16445385

>  <GCUT_SLOGP_3>
2.6775749

>  <GCUT_SMR_0>
-0.50186104

>  <GCUT_SMR_1>
-0.21605732

>  <GCUT_SMR_2>
0.19305076

>  <GCUT_SMR_3>
2.8569715

>  <Kier1>
21.240376

>  <Kier2>
9.4276857

>  <Kier3>
4.8549266

>  <KierA1>
14.472863

>  <KierA2>
6.3244967

>  <KierA3>
3.2208645

>  <KierFlex>
3.2690563

>  <lip_acc>
6

>  <lip_don>
1

>  <lip_druglike>
1

>  <lip_violation>
1

>  <logP(o/w)>
5.0019999

>  <logS>
-5.6690602

>  <mr>
10.528476

>  <mutagenic>
0

>  <nmol>
1

>  <opr_brigid>
23

>  <opr_leadlike>
1

>  <opr_nring>
4

>  <opr_nrot>
5

>  <opr_violation>
1

>  <PC+>
0

>  <PC->
0

>  <PEOE_PC+>
1.3313148

>  <PEOE_PC->
-1.3313148

>  <PEOE_RPC+>
0.291049

>  <PEOE_RPC->
0.23043878

>  <PEOE_VSA+0>
252.93591

>  <PEOE_VSA+1>
23.61659

>  <PEOE_VSA+2>
0

>  <PEOE_VSA+3>
0

>  <PEOE_VSA+4>
0

>  <PEOE_VSA+5>
12.949531

>  <PEOE_VSA+6>
19.199511

>  <PEOE_VSA-0>
0

>  <PEOE_VSA-1>
9.4210396

>  <PEOE_VSA-2>
0

>  <PEOE_VSA-3>
0

>  <PEOE_VSA-4>
13.566921

>  <PEOE_VSA-5>
16.070677

>  <PEOE_VSA-6>
2.503756

>  <PEOE_VSA_FHYD>
0.81645155

>  <PEOE_VSA_FNEG>
0.11866021

>  <PEOE_VSA_FPNEG>
0.091763243

>  <PEOE_VSA_FPOL>
0.18354844

>  <PEOE_VSA_FPOS>
0.88133979

>  <PEOE_VSA_FPPOS>
0.091785192

>  <PEOE_VSA_HYD>
285.97354

>  <PEOE_VSA_NEG>
41.562393

>  <PEOE_VSA_PNEG>
32.141354

>  <PEOE_VSA_POL>
64.290398

>  <PEOE_VSA_POS>
308.70154

>  <PEOE_VSA_PPOS>
32.14904

>  <petitjean>
0.5

>  <petitjeanSC>
1

>  <Q_PC+>
0

>  <Q_PC->
0

>  <Q_RPC+>
0

>  <Q_RPC->
0

>  <Q_VSA_FHYD>
1

>  <Q_VSA_FNEG>
0

>  <Q_VSA_FPNEG>
0

>  <Q_VSA_FPOL>
0

>  <Q_VSA_FPOS>
1

>  <Q_VSA_FPPOS>
0

>  <Q_VSA_HYD>
350.26395

>  <Q_VSA_NEG>
0

>  <Q_VSA_PNEG>
0

>  <Q_VSA_POL>
0

>  <Q_VSA_POS>
350.26395

>  <Q_VSA_PPOS>
0

>  <radius>
8

>  <reactive>
0

>  <rings>
4

>  <RPC+>
0

>  <RPC->
0

>  <rsynth>
1

>  <SlogP>
5.0114999

>  <SlogP_VSA0>
10.999887

>  <SlogP_VSA1>
33.465439

>  <SlogP_VSA2>
34.862103

>  <SlogP_VSA3>
0

>  <SlogP_VSA4>
3.185575

>  <SlogP_VSA5>
0

>  <SlogP_VSA6>
0

>  <SlogP_VSA7>
247.00458

>  <SlogP_VSA8>
0

>  <SlogP_VSA9>
70.431831

>  <SMR>
10.38187

>  <SMR_VSA0>
58.724319

>  <SMR_VSA1>
14.001679

>  <SMR_VSA2>
0

>  <SMR_VSA3>
13.672431

>  <SMR_VSA4>
20.644976

>  <SMR_VSA5>
247.00458

>  <SMR_VSA6>
12.57542

>  <SMR_VSA7>
33.326015

>  <TPSA>
67.870003

>  <VAdjEq>
0.39893496

>  <VAdjMa>
5.9541965

>  <VDistEq>
3.7038543

>  <VDistMa>
9.2903147

>  <vdw_area>
350.26395

>  <vdw_vol>
445.64786

>  <vsa_acc>
27.133842

>  <vsa_acid>
0

>  <vsa_base>
0

>  <vsa_don>
9.4210396

>  <vsa_hyd>
276.55249

>  <vsa_other>
37.156555

>  <vsa_pol>
36.554882

>  <Weight>
374.396

>  <weinerPath>
2231

>  <weinerPol>
45

>  <zagreb>
150

$$$$
O=C1N(NC2=CC=CC=C2)C(SC)=N[C@@]([C@@]3=CC=CC=C3)1C
  MOE2011           2D

 22 24  0  0  1  0  0  0  0  0999 V2000
    0.0000    0.0000    0.0000 O   0  0  0  0  0  0  0  0  0  0  0  0
    0.7580    1.2940    0.0000 C   0  0  0  0  0  0  0  0  0  0  0  0
    0.1570    2.6680    0.0000 N   0  0  0  0  0  0  0  0  0  0  0  0
   -1.3080    2.9900    0.0000 N   0  0  0  0  0  0  0  0  0  0  0  0
   -2.3190    1.8820    0.0000 C   0  0  0  0  0  0  0  0  0  0  0  0
   -3.7840    2.2030    0.0000 C   0  0  0  0  0  0  0  0  0  0  0  0
   -4.7950    1.0950    0.0000 C   0  0  0  0  0  0  0  0  0  0  0  0
   -4.3410   -0.3350    0.0000 C   0  0  0  0  0  0  0  0  0  0  0  0
   -2.8760   -0.6560    0.0000 C   0  0  0  0  0  0  0  0  0  0  0  0
   -1.8650    0.4520    0.0000 C   0  0  0  0  0  0  0  0  0  0  0  0
    1.2790    3.6650    0.0000 C   0  0  0  0  0  0  0  0  0  0  0  0
    1.1310    5.1580    0.0000 S   0  0  0  0  0  0  0  0  0  0  0  0
    2.3510    6.0310    0.0000 C   0  0  0  0  0  0  0  0  0  0  0  0
    2.5730    2.9060    0.0000 N   0  0  0  0  0  0  0  0  0  0  0  0
    2.2510    1.4410    0.0000 C   0  0  1  0  0  0  0  0  0  0  0  0
    3.6870    1.0060    0.0000 C   0  0  0  0  0  0  0  0  0  0  0  0
    4.0270   -0.4550    0.0000 C   0  0  0  0  0  0  0  0  0  0  0  0
    5.4630   -0.8900    0.0000 C   0  0  0  0  0  0  0  0  0  0  0  0
    6.5570    0.1350    0.0000 C   0  0  0  0  0  0  0  0  0  0  0  0
    6.2170    1.5960    0.0000 C   0  0  0  0  0  0  0  0  0  0  0  0
    4.7810    2.0310    0.0000 C   0  0  0  0  0  0  0  0  0  0  0  0
    2.5150   -0.0350    0.0000 C   0  0  0  0  0  0  0  0  0  0  0  0
  1  2  2  0  0  0  0
  2  3  1  0  0  0  0
  2 15  1  0  0  0  0
  3  4  1  0  0  0  0
  3 11  1  0  0  0  0
  4  5  1  0  0  0  0
  5  6  1  0  0  0  0
  5 10  2  0  0  0  0
  6  7  2  0  0  0  0
  7  8  1  0  0  0  0
  8  9  2  0  0  0  0
  9 10  1  0  0  0  0
 11 12  1  0  0  0  0
 11 14  2  0  0  0  0
 12 13  1  0  0  0  0
 14 15  1  0  0  0  0
 15 16  1  1  0  0  0
 15 22  1  6  0  0  0
 16 17  1  0  0  0  0
 16 21  2  0  0  0  0
 17 18  2  0  0  0  0
 18 19  1  0  0  0  0
 19 20  2  0  0  0  0
 20 21  1  0  0  0  0
M  END
>  <DSSTox_RID>
40455

>  <DSSTox_CID>
14590

>  <apol>
48.257481

>  <a_acc>
2

>  <a_acid>
0

>  <a_aro>
12

>  <a_base>
0

>  <a_count>
39

>  <a_don>
1

>  <a_heavy>
22

>  <a_hyd>
16

>  <a_IC>
62.402061

>  <a_ICM>
1.6000528

>  <a_nB>
0

>  <a_nBr>
0

>  <a_nC>
17

>  <a_nCl>
0

>  <a_nF>
0

>  <a_nH>
17

>  <a_nI>
0

>  <a_nN>
3

>  <a_nO>
1

>  <a_nP>
0

>  <a_nS>
1

>  <balabanJ>
1.6947924

>  <BCUT_PEOE_0>
-2.4195433

>  <BCUT_PEOE_1>
-0.5946669

>  <BCUT_PEOE_2>
0.67513585

>  <BCUT_PEOE_3>
2.5805182

>  <BCUT_SLOGP_0>
-2.4941425

>  <BCUT_SLOGP_1>
-0.49695534

>  <BCUT_SLOGP_2>
0.74278307

>  <BCUT_SLOGP_3>
2.6144497

>  <BCUT_SMR_0>
-2.1755049

>  <BCUT_SMR_1>
-0.43329015

>  <BCUT_SMR_2>
0.85431087

>  <BCUT_SMR_3>
2.8561673

>  <bpol>
24.462519

>  <b_1rotN>
3

>  <b_1rotR>
0.125

>  <b_ar>
12

>  <b_count>
41

>  <b_double>
2

>  <b_heavy>
24

>  <b_rotN>
4

>  <b_rotR>
0.16666667

>  <b_single>
27

>  <b_triple>
0

>  <chi0>
15.57914

>  <chi0v>
13.300923

>  <chi0v_C>
10.273502

>  <chi0_C>
11.880469

>  <chi1>
10.648014

>  <chi1v>
8.2306423

>  <chi1v_C>
4.8213673

>  <chi1_C>
6.7103434

>  <chiral>
1

>  <chiral_u>
0

>  <density>
0.80098867

>  <diameter>
11

>  <FCharge>
0

>  <GCUT_PEOE_0>
-0.81991315

>  <GCUT_PEOE_1>
-0.38684168

>  <GCUT_PEOE_2>
0.067523964

>  <GCUT_PEOE_3>
2.5583577

>  <GCUT_SLOGP_0>
-1.0355089

>  <GCUT_SLOGP_1>
-0.26386139

>  <GCUT_SLOGP_2>
0.14961469

>  <GCUT_SLOGP_3>
2.6390462

>  <GCUT_SMR_0>
-0.49555293

>  <GCUT_SMR_1>
-0.19745858

>  <GCUT_SMR_2>
0.19305076

>  <GCUT_SMR_3>
2.8604972

>  <Kier1>
16.84375

>  <Kier2>
7.2664361

>  <Kier3>
3.4404707

>  <KierA1>
12.534722

>  <KierA2>
5.3252597

>  <KierA3>
2.4934359

>  <KierFlex>
3.0341203

>  <lip_acc>
4

>  <lip_don>
1

>  <lip_druglike>
1

>  <lip_violation>
0

>  <logP(o/w)>
4.079

>  <logS>
-4.9521399

>  <mr>
9.0267439

>  <mutagenic>
0

>  <nmol>
1

>  <opr_brigid>
17

>  <opr_leadlike>
1

>  <opr_nring>
3

>  <opr_nrot>
4

>  <opr_violation>
0

>  <PC+>
0

>  <PC->
0

>  <PEOE_PC+>
0.86861485

>  <PEOE_PC->
-0.86861485

>  <PEOE_RPC+>
0.32017419

>  <PEOE_RPC->
0.30866838

>  <PEOE_VSA+0>
110.65946

>  <PEOE_VSA+1>
38.084061

>  <PEOE_VSA+2>
0

>  <PEOE_VSA+3>
13.166624

>  <PEOE_VSA+4>
0

>  <PEOE_VSA+5>
12.949531

>  <PEOE_VSA+6>
0

>  <PEOE_VSA-0>
79.042473

>  <PEOE_VSA-1>
29.181658

>  <PEOE_VSA-2>
0

>  <PEOE_VSA-3>
0

>  <PEOE_VSA-4>
5.6825762

>  <PEOE_VSA-5>
13.566921

>  <PEOE_VSA-6>
0

>  <PEOE_VSA_FHYD>
0.89349824

>  <PEOE_VSA_FNEG>
0.42163277

>  <PEOE_VSA_FPNEG>
0.063669786

>  <PEOE_VSA_FPOL>
0.10650176

>  <PEOE_VSA_FPOS>
0.57836723

>  <PEOE_VSA_FPPOS>
0.042831969

>  <PEOE_VSA_HYD>
270.13428

>  <PEOE_VSA_NEG>
127.47363

>  <PEOE_VSA_PNEG>
19.249496

>  <PEOE_VSA_POL>
32.199028

>  <PEOE_VSA_POS>
174.85968

>  <PEOE_VSA_PPOS>
12.949531

>  <petitjean>
0.45454547

>  <petitjeanSC>
0.83333331

>  <Q_PC+>
0

>  <Q_PC->
0

>  <Q_RPC+>
0

>  <Q_RPC->
0

>  <Q_VSA_FHYD>
1

>  <Q_VSA_FNEG>
0

>  <Q_VSA_FPNEG>
0

>  <Q_VSA_FPOL>
0

>  <Q_VSA_FPOS>
1

>  <Q_VSA_FPPOS>
0

>  <Q_VSA_HYD>
302.33331

>  <Q_VSA_NEG>
0

>  <Q_VSA_PNEG>
0

>  <Q_VSA_POL>
0

>  <Q_VSA_POS>
302.33331

>  <Q_VSA_PPOS>
0

>  <radius>
6

>  <reactive>
0

>  <rings>
3

>  <RPC+>
0

>  <RPC->
0

>  <rsynth>
1

>  <SlogP>
3.8016

>  <SlogP_VSA0>
0

>  <SlogP_VSA1>
26.841883

>  <SlogP_VSA2>
23.862217

>  <SlogP_VSA3>
0

>  <SlogP_VSA4>
3.185575

>  <SlogP_VSA5>
48.476704

>  <SlogP_VSA6>
0

>  <SlogP_VSA7>
176.43184

>  <SlogP_VSA8>
0

>  <SlogP_VSA9>
68.302307

>  <SMR>
9.1772699

>  <SMR_VSA0>
23.862217

>  <SMR_VSA1>
19.787321

>  <SMR_VSA2>
0

>  <SMR_VSA3>
3.185575

>  <SMR_VSA4>
20.644976

>  <SMR_VSA5>
176.43184

>  <SMR_VSA6>
5.9518628

>  <SMR_VSA7>
97.236732

>  <TPSA>
44.700001

>  <VAdjEq>
0.46637034

>  <VAdjMa>
5.5849624

>  <VDistEq>
3.1588643

>  <VDistMa>
8.6404057

>  <vdw_area>
302.33331

>  <vdw_vol>
367.38721

>  <vsa_acc>
19.249496

>  <vsa_acid>
0

>  <vsa_base>
0

>  <vsa_don>
9.4210396

>  <vsa_hyd>
247.54662

>  <vsa_other>
26.116156

>  <vsa_pol>
28.670536

>  <Weight>
311.409

>  <weinerPath>
1017

>  <weinerPol>
36

>  <zagreb>
116

$$$$
Cc1cc(ccc1SC)OP(=O)(NC(C)C)OCC
  MOE2011           2D

 19 19  0  0  1  0  0  0  0  0999 V2000
    0.0000    0.0000    0.0000 C   0  0  0  0  0  0  0  0  0  0  0  0
    0.7410    1.3040    0.0000 C   0  0  0  0  0  0  0  0  0  0  0  0
    2.2410    1.3140    0.0000 C   0  0  0  0  0  0  0  0  0  0  0  0
    2.9820    2.6180    0.0000 C   0  0  0  0  0  0  0  0  0  0  0  0
    2.2240    3.9120    0.0000 C   0  0  0  0  0  0  0  0  0  0  0  0
    0.7240    3.9020    0.0000 C   0  0  0  0  0  0  0  0  0  0  0  0
   -0.0180    2.5980    0.0000 C   0  0  0  0  0  0  0  0  0  0  0  0
   -1.5180    2.5880    0.0000 S   0  0  0  0  0  0  0  0  0  0  0  0
   -2.2760    3.8820    0.0000 C   0  0  0  0  0  0  0  0  0  0  0  0
    4.4820    2.6290    0.0000 O   0  0  0  0  0  0  0  0  0  0  0  0
    5.2230    3.9330    0.0000 P   0  0  3  0  0  0  0  0  0  0  0  0
    3.9190    4.6740    0.0000 O   0  0  0  0  0  0  0  0  0  0  0  0
    6.5280    3.1910    0.0000 N   0  0  0  0  0  0  0  0  0  0  0  0
    7.8210    3.9500    0.0000 C   0  0  0  0  0  0  0  0  0  0  0  0
    7.8110    5.4500    0.0000 C   0  0  0  0  0  0  0  0  0  0  0  0
    9.1260    3.2090    0.0000 C   0  0  0  0  0  0  0  0  0  0  0  0
    5.9650    5.2370    0.0000 O   0  0  0  0  0  0  0  0  0  0  0  0
    5.2060    6.5310    0.0000 C   0  0  0  0  0  0  0  0  0  0  0  0
    5.9470    7.8350    0.0000 C   0  0  0  0  0  0  0  0  0  0  0  0
  1  2  1  0  0  0  0
  2  3  1  0  0  0  0
  2  7  2  0  0  0  0
  3  4  2  0  0  0  0
  4  5  1  0  0  0  0
  4 10  1  0  0  0  0
  5  6  2  0  0  0  0
  6  7  1  0  0  0  0
  7  8  1  0  0  0  0
  8  9  1  0  0  0  0
 10 11  1  0  0  0  0
 11 12  2  0  0  0  0
 11 13  1  0  0  0  0
 11 17  1  0  0  0  0
 13 14  1  0  0  0  0
 14 15  1  0  0  0  0
 14 16  1  0  0  0  0
 17 18  1  0  0  0  0
 18 19  1  0  0  0  0
M  END
>  <DSSTox_RID>
40456

>  <DSSTox_CID>
4102

>  <apol>
47.585445

>  <a_acc>
3

>  <a_acid>
0

>  <a_aro>
6

>  <a_base>
0

>  <a_count>
41

>  <a_don>
1

>  <a_heavy>
19

>  <a_hyd>
14

>  <a_IC>
68.691536

>  <a_ICM>
1.6754032

>  <a_nB>
0

>  <a_nBr>
0

>  <a_nC>
13

>  <a_nCl>
0

>  <a_nF>
0

>  <a_nH>
22

>  <a_nI>
0

>  <a_nN>
1

>  <a_nO>
3

>  <a_nP>
1

>  <a_nS>
1

>  <balabanJ>
2.5583036

>  <BCUT_PEOE_0>
-2.5923405

>  <BCUT_PEOE_1>
-0.36744571

>  <BCUT_PEOE_2>
0.30066845

>  <BCUT_PEOE_3>
2.5829258

>  <BCUT_SLOGP_0>
-2.6706843

>  <BCUT_SLOGP_1>
-0.33309752

>  <BCUT_SLOGP_2>
0.43547478

>  <BCUT_SLOGP_3>
2.6376636

>  <BCUT_SMR_0>
-2.3285015

>  <BCUT_SMR_1>
-0.17553109

>  <BCUT_SMR_2>
0.51670319

>  <BCUT_SMR_3>
2.8635244

>  <bpol>
39.260555

>  <b_1rotN>
7

>  <b_1rotR>
0.36842105

>  <b_ar>
6

>  <b_count>
41

>  <b_double>
0

>  <b_heavy>
19

>  <b_rotN>
7

>  <b_rotR>
0.36842105

>  <b_single>
35

>  <b_triple>
0

>  <chi0>
14.466255

>  <chi0v>
13.807638

>  <chi0v_C>
9.5165081

>  <chi0_C>
10.137828

>  <chi1>
8.8979959

>  <chi1v>
9.0324211

>  <chi1v_C>
4.0998411

>  <chi1_C>
4.9054842

>  <chiral>
1

>  <chiral_u>
1

>  <density>
0.85298723

>  <diameter>
10

>  <FCharge>
0

>  <GCUT_PEOE_0>
-0.78546011

>  <GCUT_PEOE_1>
-0.35556358

>  <GCUT_PEOE_2>
-0.085041963

>  <GCUT_PEOE_3>
2.4852695

>  <GCUT_SLOGP_0>
-1.2997121

>  <GCUT_SLOGP_1>
-0.25059167

>  <GCUT_SLOGP_2>
0.074586935

>  <GCUT_SLOGP_3>
2.6121802

>  <GCUT_SMR_0>
-0.5212906

>  <GCUT_SMR_1>
-0.1558267

>  <GCUT_SMR_2>
0.093735225

>  <GCUT_SMR_3>
2.7616644

>  <Kier1>
17.052631

>  <Kier2>
7.6952662

>  <Kier3>
5.4791913

>  <KierA1>
17.800791

>  <KierA2>
8.0526857

>  <KierA3>
5.7446518

>  <KierFlex>
7.5444307

>  <lip_acc>
4

>  <lip_don>
1

>  <lip_druglike>
1

>  <lip_violation>
0

>  <logP(o/w)>
3.073

>  <logS>
-3.1742499

>  <mr>
8.4137783

>  <mutagenic>
0

>  <nmol>
1

>  <opr_brigid>
6

>  <opr_leadlike>
1

>  <opr_nring>
1

>  <opr_nrot>
7

>  <opr_violation>
0

>  <PC+>
0

>  <PC->
0

>  <PEOE_PC+>
0.88377845

>  <PEOE_PC->
-0.88377845

>  <PEOE_RPC+>
0.43874097

>  <PEOE_RPC->
0.30117255

>  <PEOE_VSA+0>
169.24388

>  <PEOE_VSA+1>
46.542583

>  <PEOE_VSA+2>
22.058474

>  <PEOE_VSA+3>
0

>  <PEOE_VSA+4>
0

>  <PEOE_VSA+5>
0

>  <PEOE_VSA+6>
17.292923

>  <PEOE_VSA-0>
2.2085397

>  <PEOE_VSA-1>
0

>  <PEOE_VSA-2>
43.23761

>  <PEOE_VSA-3>
0

>  <PEOE_VSA-4>
4.6659718

>  <PEOE_VSA-5>
4.6659718

>  <PEOE_VSA-6>
0

>  <PEOE_VSA_FHYD>
0.91409004

>  <PEOE_VSA_FNEG>
0.17675145

>  <PEOE_VSA_FPNEG>
0.030111207

>  <PEOE_VSA_FPOL>
0.085909963

>  <PEOE_VSA_FPOS>
0.82324857

>  <PEOE_VSA_FPPOS>
0.055798754

>  <PEOE_VSA_HYD>
283.29108

>  <PEOE_VSA_NEG>
54.778095

>  <PEOE_VSA_PNEG>
9.3319435

>  <PEOE_VSA_POL>
26.624866

>  <PEOE_VSA_POS>
255.13786

>  <PEOE_VSA_PPOS>
17.292923

>  <petitjean>
0.5

>  <petitjeanSC>
1

>  <Q_PC+>
0

>  <Q_PC->
0

>  <Q_RPC+>
0

>  <Q_RPC->
0

>  <Q_VSA_FHYD>
1

>  <Q_VSA_FNEG>
0

>  <Q_VSA_FPNEG>
0

>  <Q_VSA_FPOL>
0

>  <Q_VSA_FPOS>
1

>  <Q_VSA_FPPOS>
0

>  <Q_VSA_HYD>
309.91595

>  <Q_VSA_NEG>
0

>  <Q_VSA_PNEG>
0

>  <Q_VSA_POL>
0

>  <Q_VSA_POS>
309.91595

>  <Q_VSA_PPOS>
0

>  <radius>
5

>  <reactive>
0

>  <rings>
1

>  <RPC+>
0

>  <RPC->
0

>  <rsynth>
1

>  <SlogP>
3.1681199

>  <SlogP_VSA0>
43.445915

>  <SlogP_VSA1>
0

>  <SlogP_VSA2>
10.903599

>  <SlogP_VSA3>
20.926258

>  <SlogP_VSA4>
3.185575

>  <SlogP_VSA5>
33.241909

>  <SlogP_VSA6>
0

>  <SlogP_VSA7>
52.929554

>  <SlogP_VSA8>
0

>  <SlogP_VSA9>
184.90622

>  <SMR>
8.0406704

>  <SMR_VSA0>
29.355396

>  <SMR_VSA1>
6.9216304

>  <SMR_VSA2>
15.641254

>  <SMR_VSA3>
12.410972

>  <SMR_VSA4>
0

>  <SMR_VSA5>
52.929554

>  <SMR_VSA6>
20.926258

>  <SMR_VSA7>
211.35397

>  <TPSA>
47.560001

>  <VAdjEq>
0.48546076

>  <VAdjMa>
5.2479277

>  <VDistEq>
3.1247892

>  <VDistMa>
8.2030315

>  <vdw_area>
309.91595

>  <vdw_vol>
329.64972

>  <vsa_acc>
25.061081

>  <vsa_acid>
0

>  <vsa_base>
0

>  <vsa_don>
7.7478561

>  <vsa_hyd>
259.81409

>  <vsa_other>
17.292923

>  <vsa_pol>
32.808937

>  <Weight>
303.36301

>  <weinerPath>
738

>  <weinerPol>
26

>  <zagreb>
90

$$$$
OC(C2=CN=CN=C2)(C3=CC=C(Cl)C=C3)C1=CC=CC=C1Cl
  MOE2011           2D

 22 24  0  0  1  0  0  0  0  0999 V2000
    0.0000    0.0000    0.0000 O   0  0  0  0  0  0  0  0  0  0  0  0
    0.7420   -1.3030    0.0000 C   0  0  3  0  0  0  0  0  0  0  0  0
    1.4850   -2.6070    0.0000 C   0  0  0  0  0  0  0  0  0  0  0  0
    2.9850   -2.6160    0.0000 C   0  0  0  0  0  0  0  0  0  0  0  0
    3.7270   -3.9190    0.0000 N   0  0  0  0  0  0  0  0  0  0  0  0
    2.9690   -5.2140    0.0000 C   0  0  0  0  0  0  0  0  0  0  0  0
    1.4690   -5.2050    0.0000 N   0  0  0  0  0  0  0  0  0  0  0  0
    0.7270   -3.9010    0.0000 C   0  0  0  0  0  0  0  0  0  0  0  0
    2.0460   -0.5610    0.0000 C   0  0  0  0  0  0  0  0  0  0  0  0
    2.0550    0.9390    0.0000 C   0  0  0  0  0  0  0  0  0  0  0  0
    3.3580    1.6810    0.0000 C   0  0  0  0  0  0  0  0  0  0  0  0
    4.6530    0.9240    0.0000 C   0  0  0  0  0  0  0  0  0  0  0  0
    5.9560    1.6660    0.0000 Cl  0  0  0  0  0  0  0  0  0  0  0  0
    4.6440   -0.5760    0.0000 C   0  0  0  0  0  0  0  0  0  0  0  0
    3.3400   -1.3190    0.0000 C   0  0  0  0  0  0  0  0  0  0  0  0
   -0.5610   -2.0460    0.0000 C   0  0  0  0  0  0  0  0  0  0  0  0
   -0.5700   -3.5460    0.0000 C   0  0  0  0  0  0  0  0  0  0  0  0
   -1.8730   -4.2880    0.0000 C   0  0  0  0  0  0  0  0  0  0  0  0
   -3.1680   -3.5300    0.0000 C   0  0  0  0  0  0  0  0  0  0  0  0
   -3.1590   -2.0300    0.0000 C   0  0  0  0  0  0  0  0  0  0  0  0
   -1.8560   -1.2880    0.0000 C   0  0  0  0  0  0  0  0  0  0  0  0
   -1.8470    0.2120    0.0000 Cl  0  0  0  0  0  0  0  0  0  0  0  0
  1  2  1  0  0  0  0
  2  3  1  0  0  0  0
  2  9  1  0  0  0  0
  2 16  1  0  0  0  0
  3  4  1  0  0  0  0
  3  8  2  0  0  0  0
  4  5  2  0  0  0  0
  5  6  1  0  0  0  0
  6  7  2  0  0  0  0
  7  8  1  0  0  0  0
  9 10  1  0  0  0  0
  9 15  2  0  0  0  0
 10 11  2  0  0  0  0
 11 12  1  0  0  0  0
 12 13  1  0  0  0  0
 12 14  2  0  0  0  0
 14 15  1  0  0  0  0
 16 17  1  0  0  0  0
 16 21  2  0  0  0  0
 17 18  2  0  0  0  0
 18 19  1  0  0  0  0
 19 20  2  0  0  0  0
 20 21  1  0  0  0  0
 21 22  1  0  0  0  0
M  END
>  <DSSTox_RID>
40457

>  <DSSTox_CID>
12390

>  <apol>
45.283516

>  <a_acc>
3

>  <a_acid>
0

>  <a_aro>
18

>  <a_base>
0

>  <a_count>
34

>  <a_don>
1

>  <a_heavy>
22

>  <a_hyd>
18

>  <a_IC>
56.467319

>  <a_ICM>
1.6608034

>  <a_nB>
0

>  <a_nBr>
0

>  <a_nC>
17

>  <a_nCl>
2

>  <a_nF>
0

>  <a_nH>
12

>  <a_nI>
0

>  <a_nN>
2

>  <a_nO>
1

>  <a_nP>
0

>  <a_nS>
0

>  <balabanJ>
1.8366959

>  <BCUT_PEOE_0>
-2.412194

>  <BCUT_PEOE_1>
-0.65133691

>  <BCUT_PEOE_2>
0.70120913

>  <BCUT_PEOE_3>
2.442266

>  <BCUT_SLOGP_0>
-2.3060625

>  <BCUT_SLOGP_1>
-0.53807992

>  <BCUT_SLOGP_2>
0.87229288

>  <BCUT_SLOGP_3>
2.5647326

>  <BCUT_SMR_0>
-2.1297922

>  <BCUT_SMR_1>
-0.47706261

>  <BCUT_SMR_2>
0.92507529

>  <BCUT_SMR_3>
2.7214098

>  <bpol>
16.598484

>  <b_1rotN>
3

>  <b_1rotR>
0.125

>  <b_ar>
18

>  <b_count>
36

>  <b_double>
0

>  <b_heavy>
24

>  <b_rotN>
3

>  <b_rotR>
0.125

>  <b_single>
18

>  <b_triple>
0

>  <chi0>
15.57914

>  <chi0v>
12.96028

>  <chi0v_C>
9.350853

>  <chi0_C>
11.164926

>  <chi1>
10.620046

>  <chi1v>
7.3663635

>  <chi1v_C>
4.9760675

>  <chi1_C>
6.9653449

>  <chiral>
1

>  <chiral_u>
1

>  <density>
0.8655414

>  <diameter>
9

>  <FCharge>
0

>  <GCUT_PEOE_0>
-0.76451099

>  <GCUT_PEOE_1>
-0.40198734

>  <GCUT_PEOE_2>
0.081463404

>  <GCUT_PEOE_3>
2.5343578

>  <GCUT_SLOGP_0>
-0.78089517

>  <GCUT_SLOGP_1>
-0.26386139

>  <GCUT_SLOGP_2>
0.26229638

>  <GCUT_SLOGP_3>
2.6767809

>  <GCUT_SMR_0>
-0.47851467

>  <GCUT_SMR_1>
-0.21605732

>  <GCUT_SMR_2>
0.36560947

>  <GCUT_SMR_3>
2.8306062

>  <Kier1>
16.84375

>  <Kier2>
7.2664361

>  <Kier3>
3.4404707

>  <KierA1>
13.516343

>  <KierA2>
5.7656736

>  <KierA3>
2.7076631

>  <KierFlex>
3.54231

>  <lip_acc>
3

>  <lip_don>
1

>  <lip_druglike>
1

>  <lip_violation>
0

>  <logP(o/w)>
3.951

>  <logS>
-5.0631399

>  <mr>
8.9926882

>  <mutagenic>
0

>  <nmol>
1

>  <opr_brigid>
18

>  <opr_leadlike>
1

>  <opr_nring>
3

>  <opr_nrot>
3

>  <opr_violation>
0

>  <PC+>
0

>  <PC->
0

>  <PEOE_PC+>
0.82342875

>  <PEOE_PC->
-0.82342875

>  <PEOE_RPC+>
0.2415542

>  <PEOE_RPC->
0.27039373

>  <PEOE_VSA+0>
67.651054

>  <PEOE_VSA+1>
11.248033

>  <PEOE_VSA+2>
40.59901

>  <PEOE_VSA+3>
24.790518

>  <PEOE_VSA+4>
0

>  <PEOE_VSA+5>
0

>  <PEOE_VSA+6>
0

>  <PEOE_VSA-0>
63.233978

>  <PEOE_VSA-1>
59.163895

>  <PEOE_VSA-2>
0

>  <PEOE_VSA-3>
0

>  <PEOE_VSA-4>
24.932074

>  <PEOE_VSA-5>
0

>  <PEOE_VSA-6>
0

>  <PEOE_VSA_FHYD>
0.91450453

>  <PEOE_VSA_FNEG>
0.50521457

>  <PEOE_VSA_FPNEG>
0.085495494

>  <PEOE_VSA_FPOL>
0.085495494

>  <PEOE_VSA_FPOS>
0.49478543

>  <PEOE_VSA_FPPOS>
0

>  <PEOE_VSA_HYD>
266.68649

>  <PEOE_VSA_NEG>
147.32994

>  <PEOE_VSA_PNEG>
24.932074

>  <PEOE_VSA_POL>
24.932074

>  <PEOE_VSA_POS>
144.28862

>  <PEOE_VSA_PPOS>
0

>  <petitjean>
0.44444445

>  <petitjeanSC>
0.80000001

>  <Q_PC+>
0

>  <Q_PC->
0

>  <Q_RPC+>
0

>  <Q_RPC->
0

>  <Q_VSA_FHYD>
1

>  <Q_VSA_FNEG>
0

>  <Q_VSA_FPNEG>
0

>  <Q_VSA_FPOL>
0

>  <Q_VSA_FPOS>
1

>  <Q_VSA_FPPOS>
0

>  <Q_VSA_HYD>
291.61856

>  <Q_VSA_NEG>
0

>  <Q_VSA_PNEG>
0

>  <Q_VSA_POL>
0

>  <Q_VSA_POS>
291.61856

>  <Q_VSA_PPOS>
0

>  <radius>
5

>  <reactive>
0

>  <rings>
3

>  <RPC+>
0

>  <RPC->
0

>  <rsynth>
1

>  <SlogP>
4.3790998

>  <SlogP_VSA0>
25.385227

>  <SlogP_VSA1>
33.57106

>  <SlogP_VSA2>
0

>  <SlogP_VSA3>
0

>  <SlogP_VSA4>
9.5567245

>  <SlogP_VSA5>
0

>  <SlogP_VSA6>
7.0012131

>  <SlogP_VSA7>
192.35971

>  <SlogP_VSA8>
0

>  <SlogP_VSA9>
78.297287

>  <SMR>
8.7153797

>  <SMR_VSA0>
0

>  <SMR_VSA1>
58.956287

>  <SMR_VSA2>
0

>  <SMR_VSA3>
16.557938

>  <SMR_VSA4>
0

>  <SMR_VSA5>
192.35971

>  <SMR_VSA6>
0

>  <SMR_VSA7>
78.297287

>  <TPSA>
46.009998

>  <VAdjEq>
0.46637034

>  <VAdjMa>
5.5849624

>  <VDistEq>
2.9343667

>  <VDistMa>
8.6742325

>  <vdw_area>
291.61856

>  <vdw_vol>
368.67792

>  <vsa_acc>
11.365152

>  <vsa_acid>
0

>  <vsa_base>
0

>  <vsa_don>
0

>  <vsa_hyd>
241.89598

>  <vsa_other>
24.790518

>  <vsa_pol>
24.932074

>  <Weight>
331.202

>  <weinerPath>
942

>  <weinerPol>
38

>  <zagreb>
116

$$$$
ClC1=CC=C(CCC(C#N)(CN3N=CN=C3)C2=CC=CC=C2)C=C1
  MOE2011           2D

 24 26  0  0  1  0  0  0  0  0999 V2000
    0.0000    0.0000    0.0000 Cl  0  0  0  0  0  0  0  0  0  0  0  0
   -1.5000    0.0050    0.0000 C   0  0  0  0  0  0  0  0  0  0  0  0
   -2.2540   -1.2910    0.0000 C   0  0  0  0  0  0  0  0  0  0  0  0
   -3.7540   -1.2860    0.0000 C   0  0  0  0  0  0  0  0  0  0  0  0
   -4.5000    0.0160    0.0000 C   0  0  0  0  0  0  0  0  0  0  0  0
   -6.0000    0.0210    0.0000 C   0  0  0  0  0  0  0  0  0  0  0  0
   -6.7540   -1.2760    0.0000 C   0  0  0  0  0  0  0  0  0  0  0  0
   -8.2540   -1.2710    0.0000 C   0  0  3  0  0  0  0  0  0  0  0  0
   -9.7540   -1.2650    0.0000 C   0  0  0  0  0  0  0  0  0  0  0  0
  -11.2540   -1.2600    0.0000 N   0  0  0  0  0  0  0  0  0  0  0  0
   -8.2490    0.2290    0.0000 C   0  0  0  0  0  0  0  0  0  0  0  0
   -9.5460    0.9840    0.0000 N   0  0  0  0  0  0  0  0  0  0  0  0
   -9.6970    2.4760    0.0000 N   0  0  0  0  0  0  0  0  0  0  0  0
  -11.1630    2.7930    0.0000 C   0  0  0  0  0  0  0  0  0  0  0  0
  -11.9180    1.4970    0.0000 N   0  0  0  0  0  0  0  0  0  0  0  0
  -10.9180    0.3780    0.0000 C   0  0  0  0  0  0  0  0  0  0  0  0
   -8.2600   -2.7710    0.0000 C   0  0  0  0  0  0  0  0  0  0  0  0
   -6.9630   -3.5250    0.0000 C   0  0  0  0  0  0  0  0  0  0  0  0
   -6.9680   -5.0250    0.0000 C   0  0  0  0  0  0  0  0  0  0  0  0
   -8.2700   -5.7710    0.0000 C   0  0  0  0  0  0  0  0  0  0  0  0
   -9.5660   -5.0160    0.0000 C   0  0  0  0  0  0  0  0  0  0  0  0
   -9.5610   -3.5160    0.0000 C   0  0  0  0  0  0  0  0  0  0  0  0
   -3.7460    1.3120    0.0000 C   0  0  0  0  0  0  0  0  0  0  0  0
   -2.2460    1.3070    0.0000 C   0  0  0  0  0  0  0  0  0  0  0  0
  1  2  1  0  0  0  0
  2  3  1  0  0  0  0
  2 24  2  0  0  0  0
  3  4  2  0  0  0  0
  4  5  1  0  0  0  0
  5  6  1  0  0  0  0
  5 23  2  0  0  0  0
  6  7  1  0  0  0  0
  7  8  1  0  0  0  0
  8  9  1  0  0  0  0
  8 11  1  0  0  0  0
  8 17  1  0  0  0  0
  9 10  3  0  0  0  0
 11 12  1  0  0  0  0
 12 13  1  0  0  0  0
 12 16  1  0  0  0  0
 13 14  2  0  0  0  0
 14 15  1  0  0  0  0
 15 16  2  0  0  0  0
 17 18  1  0  0  0  0
 17 22  2  0  0  0  0
 18 19  2  0  0  0  0
 19 20  1  0  0  0  0
 20 21  2  0  0  0  0
 21 22  1  0  0  0  0
 23 24  1  0  0  0  0
M  END
>  <DSSTox_RID>
40458

>  <DSSTox_CID>
12548

>  <apol>
51.35548

>  <a_acc>
3

>  <a_acid>
0

>  <a_aro>
17

>  <a_base>
0

>  <a_count>
41

>  <a_don>
0

>  <a_heavy>
24

>  <a_hyd>
17

>  <a_IC>
61.462143

>  <a_ICM>
1.4990766

>  <a_nB>
0

>  <a_nBr>
0

>  <a_nC>
19

>  <a_nCl>
1

>  <a_nF>
0

>  <a_nH>
17

>  <a_nI>
0

>  <a_nN>
4

>  <a_nO>
0

>  <a_nP>
0

>  <a_nS>
0

>  <balabanJ>
1.627925

>  <BCUT_PEOE_0>
-2.5953333

>  <BCUT_PEOE_1>
-0.61432862

>  <BCUT_PEOE_2>
0.66003406

>  <BCUT_PEOE_3>
2.630547

>  <BCUT_SLOGP_0>
-2.5626621

>  <BCUT_SLOGP_1>
-0.50587898

>  <BCUT_SLOGP_2>
0.80591482

>  <BCUT_SLOGP_3>
2.6702421

>  <BCUT_SMR_0>
-2.3588665

>  <BCUT_SMR_1>
-0.46355498

>  <BCUT_SMR_2>
0.85431087

>  <BCUT_SMR_3>
2.8669081

>  <bpol>
22.96452

>  <b_1rotN>
6

>  <b_1rotR>
0.23076923

>  <b_ar>
17

>  <b_count>
43

>  <b_double>
0

>  <b_heavy>
26

>  <b_rotN>
7

>  <b_rotR>
0.26923078

>  <b_single>
25

>  <b_triple>
1

>  <chi0>
16.830215

>  <chi0v>
13.894921

>  <chi0v_C>
10.972174

>  <chi0_C>
12.838653

>  <chi1>
11.716275

>  <chi1v>
8.132288

>  <chi1v_C>
5.7927108

>  <chi1_C>
7.7070732

>  <chiral>
1

>  <chiral_u>
1

>  <density>
0.79182339

>  <diameter>
11

>  <FCharge>
0

>  <GCUT_PEOE_0>
-0.82400209

>  <GCUT_PEOE_1>
-0.38174132

>  <GCUT_PEOE_2>
0.072849967

>  <GCUT_PEOE_3>
2.6601272

>  <GCUT_SLOGP_0>
-0.89598167

>  <GCUT_SLOGP_1>
-0.28869119

>  <GCUT_SLOGP_2>
0.16445385

>  <GCUT_SLOGP_3>
2.7508538

>  <GCUT_SMR_0>
-0.51581514

>  <GCUT_SMR_1>
-0.20488553

>  <GCUT_SMR_2>
0.19310746

>  <GCUT_SMR_3>
2.9239106

>  <Kier1>
18.781065

>  <Kier2>
9.087347

>  <Kier3>
5.0192595

>  <KierA1>
13.648832

>  <KierA2>
6.5048971

>  <KierA3>
3.5538654

>  <KierFlex>
3.6993437

>  <lip_acc>
4

>  <lip_don>
0

>  <lip_druglike>
1

>  <lip_violation>
0

>  <logP(o/w)>
3.3959999

>  <logS>
-4.9121299

>  <mr>
9.7752676

>  <mutagenic>
0

>  <nmol>
1

>  <opr_brigid>
17

>  <opr_leadlike>
1

>  <opr_nring>
3

>  <opr_nrot>
7

>  <opr_violation>
0

>  <PC+>
0

>  <PC->
0

>  <PEOE_PC+>
0.89608198

>  <PEOE_PC->
-0.89608198

>  <PEOE_RPC+>
0.24661595

>  <PEOE_RPC->
0.2552335

>  <PEOE_VSA+0>
63.233978

>  <PEOE_VSA+1>
24.819252

>  <PEOE_VSA+2>
20.299505

>  <PEOE_VSA+3>
24.790518

>  <PEOE_VSA+4>
24.790518

>  <PEOE_VSA+5>
0

>  <PEOE_VSA+6>
0

>  <PEOE_VSA-0>
115.07654

>  <PEOE_VSA-1>
29.581947

>  <PEOE_VSA-2>
9.4210396

>  <PEOE_VSA-3>
17.742489

>  <PEOE_VSA-4>
5.6825762

>  <PEOE_VSA-5>
0

>  <PEOE_VSA-6>
0

>  <PEOE_VSA_FHYD>
0.90915442

>  <PEOE_VSA_FNEG>
0.529172

>  <PEOE_VSA_FPNEG>
0.016940746

>  <PEOE_VSA_FPOL>
0.090845585

>  <PEOE_VSA_FPOS>
0.470828

>  <PEOE_VSA_FPPOS>
0.073904835

>  <PEOE_VSA_HYD>
304.96527

>  <PEOE_VSA_NEG>
177.50459

>  <PEOE_VSA_PNEG>
5.6825762

>  <PEOE_VSA_POL>
30.473093

>  <PEOE_VSA_POS>
157.93378

>  <PEOE_VSA_PPOS>
24.790518

>  <petitjean>
0.45454547

>  <petitjeanSC>
0.83333331

>  <Q_PC+>
0

>  <Q_PC->
0

>  <Q_RPC+>
0

>  <Q_RPC->
0

>  <Q_VSA_FHYD>
1

>  <Q_VSA_FNEG>
0

>  <Q_VSA_FPNEG>
0

>  <Q_VSA_FPOL>
0

>  <Q_VSA_FPOS>
1

>  <Q_VSA_FPPOS>
0

>  <Q_VSA_HYD>
335.43835

>  <Q_VSA_NEG>
0

>  <Q_VSA_PNEG>
0

>  <Q_VSA_POL>
0

>  <Q_VSA_POS>
335.43835

>  <Q_VSA_PPOS>
0

>  <radius>
6

>  <reactive>
0

>  <rings>
3

>  <RPC+>
0

>  <RPC->
0

>  <rsynth>
0.58333331

>  <SlogP>
4.292254

>  <SlogP_VSA0>
0

>  <SlogP_VSA1>
35.225109

>  <SlogP_VSA2>
0

>  <SlogP_VSA3>
47.661102

>  <SlogP_VSA4>
6.37115

>  <SlogP_VSA5>
18.868406

>  <SlogP_VSA6>
3.5006065

>  <SlogP_VSA7>
192.35971

>  <SlogP_VSA8>
18.868406

>  <SlogP_VSA9>
57.588223

>  <SMR>
9.3732996

>  <SMR_VSA0>
0

>  <SMR_VSA1>
66.284462

>  <SMR_VSA2>
0

>  <SMR_VSA3>
26.473503

>  <SMR_VSA4>
0

>  <SMR_VSA5>
248.5361

>  <SMR_VSA6>
0

>  <SMR_VSA7>
39.148643

>  <TPSA>
54.5

>  <VAdjEq>
0.43739632

>  <VAdjMa>
5.7004399

>  <VDistEq>
3.2676458

>  <VDistMa>
8.9013491

>  <vdw_area>
335.43835

>  <vdw_vol>
403.73901

>  <vsa_acc>
32.846104

>  <vsa_acid>
0

>  <vsa_base>
0

>  <vsa_don>
0

>  <vsa_hyd>
232.71172

>  <vsa_other>
69.880539

>  <vsa_pol>
32.846104

>  <Weight>
336.82599

>  <weinerPath>
1341

>  <weinerPol>
34

>  <zagreb>
122

$$$$
O=C(NC2=C(Cl)C(Cl)=C(O)C=C2)C1(C)CCCCC1
  MOE2011           2D

 19 20  0  0  0  0  0  0  0  0999 V2000
    0.0000    0.0000    0.0000 O   0  0  0  0  0  0  0  0  0  0  0  0
   -0.0110    1.5000    0.0000 C   0  0  0  0  0  0  0  0  0  0  0  0
   -1.3150    2.2400    0.0000 N   0  0  0  0  0  0  0  0  0  0  0  0
   -2.6090    1.4810    0.0000 C   0  0  0  0  0  0  0  0  0  0  0  0
   -3.9130    2.2210    0.0000 C   0  0  0  0  0  0  0  0  0  0  0  0
   -3.9240    3.7210    0.0000 Cl  0  0  0  0  0  0  0  0  0  0  0  0
   -5.2070    1.4620    0.0000 C   0  0  0  0  0  0  0  0  0  0  0  0
   -6.5110    2.2020    0.0000 Cl  0  0  0  0  0  0  0  0  0  0  0  0
   -5.1960   -0.0380    0.0000 C   0  0  0  0  0  0  0  0  0  0  0  0
   -6.4900   -0.7980    0.0000 O   0  0  0  0  0  0  0  0  0  0  0  0
   -3.8920   -0.7790    0.0000 C   0  0  0  0  0  0  0  0  0  0  0  0
   -2.5980   -0.0190    0.0000 C   0  0  0  0  0  0  0  0  0  0  0  0
    1.2830    2.2590    0.0000 C   0  0  0  0  0  0  0  0  0  0  0  0
   -0.0220    3.0000    0.0000 C   0  0  0  0  0  0  0  0  0  0  0  0
    2.0230    3.5640    0.0000 C   0  0  0  0  0  0  0  0  0  0  0  0
    3.5230    3.5750    0.0000 C   0  0  0  0  0  0  0  0  0  0  0  0
    4.2820    2.2810    0.0000 C   0  0  0  0  0  0  0  0  0  0  0  0
    3.5420    0.9770    0.0000 C   0  0  0  0  0  0  0  0  0  0  0  0
    2.0420    0.9660    0.0000 C   0  0  0  0  0  0  0  0  0  0  0  0
  1  2  2  0  0  0  0
  2  3  1  0  0  0  0
  2 13  1  0  0  0  0
  3  4  1  0  0  0  0
  4  5  1  0  0  0  0
  4 12  2  0  0  0  0
  5  6  1  0  0  0  0
  5  7  2  0  0  0  0
  7  8  1  0  0  0  0
  7  9  1  0  0  0  0
  9 10  1  0  0  0  0
  9 11  2  0  0  0  0
 11 12  1  0  0  0  0
 13 14  1  0  0  0  0
 13 15  1  0  0  0  0
 13 19  1  0  0  0  0
 15 16  1  0  0  0  0
 16 17  1  0  0  0  0
 17 18  1  0  0  0  0
 18 19  1  0  0  0  0
M  END
>  <DSSTox_RID>
40459

>  <DSSTox_CID>
12549

>  <apol>
43.039482

>  <a_acc>
2

>  <a_acid>
0

>  <a_aro>
6

>  <a_base>
0

>  <a_count>
36

>  <a_don>
2

>  <a_heavy>
19

>  <a_hyd>
15

>  <a_IC>
59.327461

>  <a_ICM>
1.6479851

>  <a_nB>
0

>  <a_nBr>
0

>  <a_nC>
14

>  <a_nCl>
2

>  <a_nF>
0

>  <a_nH>
17

>  <a_nI>
0

>  <a_nN>
1

>  <a_nO>
2

>  <a_nP>
0

>  <a_nS>
0

>  <balabanJ>
1.9329077

>  <BCUT_PEOE_0>
-2.7991409

>  <BCUT_PEOE_1>
-0.65842324

>  <BCUT_PEOE_2>
0.65463799

>  <BCUT_PEOE_3>
2.7773025

>  <BCUT_SLOGP_0>
-2.7097931

>  <BCUT_SLOGP_1>
-0.41667235

>  <BCUT_SLOGP_2>
0.71053511

>  <BCUT_SLOGP_3>
2.888618

>  <BCUT_SMR_0>
-2.5538955

>  <BCUT_SMR_1>
-0.35129064

>  <BCUT_SMR_2>
0.86502868

>  <BCUT_SMR_3>
3.0244625

>  <bpol>
21.042519

>  <b_1rotN>
2

>  <b_1rotR>
0.1

>  <b_ar>
6

>  <b_count>
37

>  <b_double>
1

>  <b_heavy>
20

>  <b_rotN>
3

>  <b_rotR>
0.15000001

>  <b_single>
30

>  <b_triple>
0

>  <chi0>
14.043606

>  <chi0v>
12.313483

>  <chi0v_C>
8.6902342

>  <chi0_C>
9.3364992

>  <chi1>
8.9381762

>  <chi1v>
7.1794147

>  <chi1v_C>
5.1177902

>  <chi1_C>
5.8122783

>  <chiral>
0

>  <chiral_u>
0

>  <density>
0.90276825

>  <diameter>
10

>  <FCharge>
0

>  <GCUT_PEOE_0>
-0.80950105

>  <GCUT_PEOE_1>
-0.42300871

>  <GCUT_PEOE_2>
0.074869305

>  <GCUT_PEOE_3>
2.667501

>  <GCUT_SLOGP_0>
-1.0001802

>  <GCUT_SLOGP_1>
-0.23633796

>  <GCUT_SLOGP_2>
0.17226154

>  <GCUT_SLOGP_3>
2.7773747

>  <GCUT_SMR_0>
-0.52735269

>  <GCUT_SMR_1>
-0.1511158

>  <GCUT_SMR_2>
0.25867766

>  <GCUT_SMR_3>
2.9130549

>  <Kier1>
15.39

>  <Kier2>
6.1854935

>  <Kier3>
3.3659606

>  <KierA1>
14.553281

>  <KierA2>
5.8301549

>  <KierA3>
3.1645505

>  <KierFlex>
4.4656777

>  <lip_acc>
3

>  <lip_don>
2

>  <lip_druglike>
1

>  <lip_violation>
0

>  <logP(o/w)>
4.0999999

>  <logS>
-4.7498899

>  <mr>
7.778966

>  <mutagenic>
0

>  <nmol>
1

>  <opr_brigid>
12

>  <opr_leadlike>
1

>  <opr_nring>
2

>  <opr_nrot>
4

>  <opr_violation>
1

>  <PC+>
0

>  <PC->
0

>  <PEOE_PC+>
0.82891095

>  <PEOE_PC->
-0.82891095

>  <PEOE_RPC+>
0.30736855

>  <PEOE_RPC->
0.32599646

>  <PEOE_VSA+0>
140.06792

>  <PEOE_VSA+1>
15.739044

>  <PEOE_VSA+2>
8.458519

>  <PEOE_VSA+3>
0

>  <PEOE_VSA+4>
0

>  <PEOE_VSA+5>
12.949531

>  <PEOE_VSA+6>
0

>  <PEOE_VSA-0>
0

>  <PEOE_VSA-1>
59.163895

>  <PEOE_VSA-2>
0

>  <PEOE_VSA-3>
13.566921

>  <PEOE_VSA-4>
5.6825762

>  <PEOE_VSA-5>
13.566921

>  <PEOE_VSA-6>
0

>  <PEOE_VSA_FHYD>
0.88038784

>  <PEOE_VSA_FNEG>
0.34168616

>  <PEOE_VSA_FPNEG>
0.071507551

>  <PEOE_VSA_FPOL>
0.11961214

>  <PEOE_VSA_FPOS>
0.65831387

>  <PEOE_VSA_FPPOS>
0.048104592

>  <PEOE_VSA_HYD>
236.99629

>  <PEOE_VSA_NEG>
91.980309

>  <PEOE_VSA_PNEG>
19.249496

>  <PEOE_VSA_POL>
32.199028

>  <PEOE_VSA_POS>
177.21501

>  <PEOE_VSA_PPOS>
12.949531

>  <petitjean>
0.5

>  <petitjeanSC>
1

>  <Q_PC+>
0

>  <Q_PC->
0

>  <Q_RPC+>
0

>  <Q_RPC->
0

>  <Q_VSA_FHYD>
1

>  <Q_VSA_FNEG>
0

>  <Q_VSA_FPNEG>
0

>  <Q_VSA_FPOL>
0

>  <Q_VSA_FPOS>
1

>  <Q_VSA_FPPOS>
0

>  <Q_VSA_HYD>
269.19531

>  <Q_VSA_NEG>
0

>  <Q_VSA_PNEG>
0

>  <Q_VSA_POL>
0

>  <Q_VSA_POS>
269.19531

>  <Q_VSA_PPOS>
0

>  <radius>
5

>  <reactive>
0

>  <rings>
2

>  <RPC+>
0

>  <RPC->
0

>  <rsynth>
1

>  <SlogP>
4.6079001

>  <SlogP_VSA0>
25.385227

>  <SlogP_VSA1>
23.269535

>  <SlogP_VSA2>
23.862217

>  <SlogP_VSA3>
0

>  <SlogP_VSA4>
0

>  <SlogP_VSA5>
0

>  <SlogP_VSA6>
7.0012131

>  <SlogP_VSA7>
35.286369

>  <SlogP_VSA8>
94.342026

>  <SlogP_VSA9>
119.62348

>  <SMR>
7.7948499

>  <SMR_VSA0>
23.862217

>  <SMR_VSA1>
25.385227

>  <SMR_VSA2>
0

>  <SMR_VSA3>
12.244641

>  <SMR_VSA4>
20.767498

>  <SMR_VSA5>
129.6284

>  <SMR_VSA6>
5.2587838

>  <SMR_VSA7>
111.62331

>  <TPSA>
49.330002

>  <VAdjEq>
0.5023343

>  <VAdjMa>
5.321928

>  <VDistEq>
3.0573373

>  <VDistMa>
8.1994581

>  <vdw_area>
269.19531

>  <vdw_vol>
315.76764

>  <vsa_acc>
13.566921

>  <vsa_acid>
0

>  <vsa_base>
0

>  <vsa_don>
5.6825762

>  <vsa_hyd>
223.42937

>  <vsa_other>
12.949531

>  <vsa_pol>
32.816418

>  <Weight>
302.20099

>  <weinerPath>
706

>  <weinerPol>
31

>  <zagreb>
98

$$$$
S=P(OC)(OC)OC1=CC=C([N+]([O-])=O)C(C)=C1
  MOE2011           2D

 17 17  0  0  0  0  0  0  0  0999 V2000
    0.0000    0.0000    0.0000 S   0  0  0  0  0  0  0  0  0  0  0  0
    0.7570   -1.2950    0.0000 P   0  0  0  0  0  0  0  0  0  0  0  0
    1.5130   -2.5900    0.0000 O   0  0  0  0  0  0  0  0  0  0  0  0
    0.7700   -3.8930    0.0000 C   0  0  0  0  0  0  0  0  0  0  0  0
    2.0520   -0.5390    0.0000 O   0  0  0  0  0  0  0  0  0  0  0  0
    3.3550   -1.2820    0.0000 C   0  0  0  0  0  0  0  0  0  0  0  0
   -0.5390   -2.0520    0.0000 O   0  0  0  0  0  0  0  0  0  0  0  0
   -1.8410   -1.3080    0.0000 C   0  0  0  0  0  0  0  0  0  0  0  0
   -1.8490    0.1920    0.0000 C   0  0  0  0  0  0  0  0  0  0  0  0
   -3.1520    0.9350    0.0000 C   0  0  0  0  0  0  0  0  0  0  0  0
   -4.4470    0.1780    0.0000 C   0  0  0  0  0  0  0  0  0  0  0  0
   -5.7500    0.9220    0.0000 N   0  3  0  0  0  0  0  0  0  0  0  0
   -7.0450    0.1650    0.0000 O   0  5  0  0  0  0  0  0  0  0  0  0
   -5.7580    2.4220    0.0000 O   0  0  0  0  0  0  0  0  0  0  0  0
   -4.4400   -1.3220    0.0000 C   0  0  0  0  0  0  0  0  0  0  0  0
   -5.7350   -2.0780    0.0000 C   0  0  0  0  0  0  0  0  0  0  0  0
   -3.1370   -2.0650    0.0000 C   0  0  0  0  0  0  0  0  0  0  0  0
  1  2  2  0  0  0  0
  2  3  1  0  0  0  0
  2  5  1  0  0  0  0
  2  7  1  0  0  0  0
  3  4  1  0  0  0  0
  5  6  1  0  0  0  0
  7  8  1  0  0  0  0
  8  9  1  0  0  0  0
  8 17  2  0  0  0  0
  9 10  2  0  0  0  0
 10 11  1  0  0  0  0
 11 12  1  0  0  0  0
 11 15  2  0  0  0  0
 12 13  1  0  0  0  0
 12 14  2  0  0  0  0
 15 16  1  0  0  0  0
 15 17  1  0  0  0  0
M  CHG  1  12   1
M  CHG  1  13  -1
M  END
>  <DSSTox_RID>
40460

>  <DSSTox_CID>
12613

>  <apol>
35.481518

>  <a_acc>
3

>  <a_acid>
0

>  <a_aro>
6

>  <a_base>
0

>  <a_count>
29

>  <a_don>
0

>  <a_heavy>
17

>  <a_hyd>
10

>  <a_IC>
57.722935

>  <a_ICM>
1.990446

>  <a_nB>
0

>  <a_nBr>
0

>  <a_nC>
9

>  <a_nCl>
0

>  <a_nF>
0

>  <a_nH>
12

>  <a_nI>
0

>  <a_nN>
1

>  <a_nO>
5

>  <a_nP>
1

>  <a_nS>
1

>  <balabanJ>
2.5103528

>  <BCUT_PEOE_0>
-2.3659916

>  <BCUT_PEOE_1>
-0.31246454

>  <BCUT_PEOE_2>
0.27364904

>  <BCUT_PEOE_3>
2.4191151

>  <BCUT_SLOGP_0>
-2.2853889

>  <BCUT_SLOGP_1>
-0.12859391

>  <BCUT_SLOGP_2>
0.37251684

>  <BCUT_SLOGP_3>
2.6392555

>  <BCUT_SMR_0>
-2.0767288

>  <BCUT_SMR_1>
-0.033221461

>  <BCUT_SMR_2>
0.54959577

>  <BCUT_SMR_3>
2.7536278

>  <bpol>
26.462484

>  <b_1rotN>
5

>  <b_1rotR>
0.29411766

>  <b_ar>
6

>  <b_count>
29

>  <b_double>
1

>  <b_heavy>
17

>  <b_rotN>
5

>  <b_rotR>
0.29411766

>  <b_single>
22

>  <b_triple>
0

>  <chi0>
13.052042

>  <chi0v>
11.286892

>  <chi0v_C>
6.2320509

>  <chi0_C>
6.8533711

>  <chi1>
7.9148326

>  <chi1v>
7.1337452

>  <chi1v_C>
2.2380338

>  <chi1_C>
3.0436769

>  <chiral>
0

>  <chiral_u>
0

>  <density>
0.97531658

>  <diameter>
9

>  <FCharge>
0

>  <GCUT_PEOE_0>
-0.71349585

>  <GCUT_PEOE_1>
-0.41385669

>  <GCUT_PEOE_2>
-0.066298552

>  <GCUT_PEOE_3>
2.3011608

>  <GCUT_SLOGP_0>
-0.809268

>  <GCUT_SLOGP_1>
-0.23840719

>  <GCUT_SLOGP_2>
0.050505564

>  <GCUT_SLOGP_3>
2.4552102

>  <GCUT_SMR_0>
-0.49127558

>  <GCUT_SMR_1>
-0.12434843

>  <GCUT_SMR_2>
0.16028954

>  <GCUT_SMR_3>
2.5701828

>  <Kier1>
15.058824

>  <Kier2>
6.25

>  <Kier3>
4

>  <KierA1>
14.849743

>  <KierA2>
6.1575823

>  <KierA3>
3.9379907

>  <KierFlex>
5.378736

>  <lip_acc>
6

>  <lip_don>
0

>  <lip_druglike>
1

>  <lip_violation>
0

>  <logP(o/w)>
2.717

>  <logS>
-3.7720001

>  <mr>
6.7883029

>  <mutagenic>
1

>  <nmol>
1

>  <opr_brigid>
6

>  <opr_leadlike>
1

>  <opr_nring>
1

>  <opr_nrot>
5

>  <opr_violation>
0

>  <PC+>
0

>  <PC->
0

>  <PEOE_PC+>
1.5502996

>  <PEOE_PC->
-1.5502996

>  <PEOE_RPC+>
0.21490271

>  <PEOE_RPC->
0.29526207

>  <PEOE_VSA+0>
63.233978

>  <PEOE_VSA+1>
19.836529

>  <PEOE_VSA+2>
0

>  <PEOE_VSA+3>
8.458519

>  <PEOE_VSA+4>
71.316856

>  <PEOE_VSA+5>
6.6995511

>  <PEOE_VSA+6>
15.590208

>  <PEOE_VSA-0>
0

>  <PEOE_VSA-1>
0

>  <PEOE_VSA-2>
0

>  <PEOE_VSA-3>
13.997915

>  <PEOE_VSA-4>
0

>  <PEOE_VSA-5>
33.931049

>  <PEOE_VSA-6>
33.008488

>  <PEOE_VSA_FHYD>
0.39660883

>  <PEOE_VSA_FNEG>
0.30419254

>  <PEOE_VSA_FPNEG>
0.25158325

>  <PEOE_VSA_FPOL>
0.60339117

>  <PEOE_VSA_FPOS>
0.69580746

>  <PEOE_VSA_FPPOS>
0.35180789

>  <PEOE_VSA_HYD>
105.52694

>  <PEOE_VSA_NEG>
80.937454

>  <PEOE_VSA_PNEG>
66.939537

>  <PEOE_VSA_POL>
160.54616

>  <PEOE_VSA_POS>
185.13565

>  <PEOE_VSA_PPOS>
93.606621

>  <petitjean>
0.44444445

>  <petitjeanSC>
0.80000001

>  <Q_PC+>
0

>  <Q_PC->
0

>  <Q_RPC+>
0

>  <Q_RPC->
0

>  <Q_VSA_FHYD>
1

>  <Q_VSA_FNEG>
0

>  <Q_VSA_FPNEG>
0

>  <Q_VSA_FPOL>
0

>  <Q_VSA_FPOS>
1

>  <Q_VSA_FPPOS>
0

>  <Q_VSA_HYD>
266.07309

>  <Q_VSA_NEG>
0

>  <Q_VSA_PNEG>
0

>  <Q_VSA_POL>
0

>  <Q_VSA_POS>
266.07309

>  <Q_VSA_PPOS>
0

>  <radius>
5

>  <reactive>
0

>  <rings>
1

>  <RPC+>
0

>  <RPC->
0

>  <rsynth>
1

>  <SlogP>
2.79932

>  <SlogP_VSA0>
6.9216304

>  <SlogP_VSA1>
7.0856161

>  <SlogP_VSA2>
56.537235

>  <SlogP_VSA3>
50.935009

>  <SlogP_VSA4>
3.185575

>  <SlogP_VSA5>
70.767738

>  <SlogP_VSA6>
0

>  <SlogP_VSA7>
52.929554

>  <SlogP_VSA8>
0

>  <SlogP_VSA9>
54.253326

>  <SMR>
6.6764398

>  <SMR_VSA0>
20.928877

>  <SMR_VSA1>
6.9216304

>  <SMR_VSA2>
50.935009

>  <SMR_VSA3>
8.4290028

>  <SMR_VSA4>
2.7567475

>  <SMR_VSA5>
52.929554

>  <SMR_VSA6>
0

>  <SMR_VSA7>
159.71486

>  <TPSA>
105.6

>  <VAdjEq>
0.52255934

>  <VAdjMa>
5.0874629

>  <VDistEq>
3.0058494

>  <VDistMa>
7.8663998

>  <vdw_area>
266.07309

>  <vdw_vol>
271.8512

>  <vsa_acc>
13.997915

>  <vsa_acid>
0

>  <vsa_base>
0

>  <vsa_don>
0

>  <vsa_hyd>
169.54544

>  <vsa_other>
82.529739

>  <vsa_pol>
13.997915

>  <Weight>
277.237

>  <weinerPath>
540

>  <weinerPol>
25

>  <zagreb>
82

$$$$
O=C(OCC)C(OC1=CC=C(OC2=NC3=C(C=C(Cl)C=C3)O2)C=C1)C
  MOE2011           2D

 25 27  0  0  1  0  0  0  0  0999 V2000
    0.0000    0.0000    0.0000 O   0  0  0  0  0  0  0  0  0  0  0  0
   -0.7410    1.3040    0.0000 C   0  0  0  0  0  0  0  0  0  0  0  0
    0.0170    2.5980    0.0000 O   0  0  0  0  0  0  0  0  0  0  0  0
    1.5170    2.5880    0.0000 C   0  0  0  0  0  0  0  0  0  0  0  0
    2.2760    3.8820    0.0000 C   0  0  0  0  0  0  0  0  0  0  0  0
   -2.2410    1.3140    0.0000 C   0  0  3  0  0  0  0  0  0  0  0  0
   -3.0000    0.0200    0.0000 O   0  0  0  0  0  0  0  0  0  0  0  0
   -4.5000    0.0300    0.0000 C   0  0  0  0  0  0  0  0  0  0  0  0
   -5.2410    1.3340    0.0000 C   0  0  0  0  0  0  0  0  0  0  0  0
   -6.7410    1.3440    0.0000 C   0  0  0  0  0  0  0  0  0  0  0  0
   -7.5000    0.0500    0.0000 C   0  0  0  0  0  0  0  0  0  0  0  0
   -9.0000    0.0600    0.0000 O   0  0  0  0  0  0  0  0  0  0  0  0
   -9.7590   -1.2340    0.0000 C   0  0  0  0  0  0  0  0  0  0  0  0
   -9.1580   -2.6080    0.0000 N   0  0  0  0  0  0  0  0  0  0  0  0
  -10.2790   -3.6040    0.0000 C   0  0  0  0  0  0  0  0  0  0  0  0
  -11.5730   -2.8450    0.0000 C   0  0  0  0  0  0  0  0  0  0  0  0
  -12.8770   -3.5870    0.0000 C   0  0  0  0  0  0  0  0  0  0  0  0
  -12.8870   -5.0870    0.0000 C   0  0  0  0  0  0  0  0  0  0  0  0
  -14.1910   -5.8280    0.0000 Cl  0  0  0  0  0  0  0  0  0  0  0  0
  -11.5930   -5.8450    0.0000 C   0  0  0  0  0  0  0  0  0  0  0  0
  -10.2890   -5.1040    0.0000 C   0  0  0  0  0  0  0  0  0  0  0  0
  -11.2510   -1.3800    0.0000 O   0  0  0  0  0  0  0  0  0  0  0  0
   -6.7590   -1.2540    0.0000 C   0  0  0  0  0  0  0  0  0  0  0  0
   -5.2590   -1.2640    0.0000 C   0  0  0  0  0  0  0  0  0  0  0  0
   -2.9820    2.6180    0.0000 C   0  0  0  0  0  0  0  0  0  0  0  0
  1  2  2  0  0  0  0
  2  3  1  0  0  0  0
  2  6  1  0  0  0  0
  3  4  1  0  0  0  0
  4  5  1  0  0  0  0
  6  7  1  0  0  0  0
  6 25  1  0  0  0  0
  7  8  1  0  0  0  0
  8  9  1  0  0  0  0
  8 24  2  0  0  0  0
  9 10  2  0  0  0  0
 10 11  1  0  0  0  0
 11 12  1  0  0  0  0
 11 23  2  0  0  0  0
 12 13  1  0  0  0  0
 13 14  2  0  0  0  0
 13 22  1  0  0  0  0
 14 15  1  0  0  0  0
 15 16  1  0  0  0  0
 15 21  2  0  0  0  0
 16 17  2  0  0  0  0
 16 22  1  0  0  0  0
 17 18  1  0  0  0  0
 18 19  1  0  0  0  0
 18 20  2  0  0  0  0
 20 21  1  0  0  0  0
 23 24  1  0  0  0  0
M  END
>  <DSSTox_RID>
40461

>  <DSSTox_CID>
12392

>  <apol>
49.638687

>  <a_acc>
3

>  <a_acid>
0

>  <a_aro>
15

>  <a_base>
0

>  <a_count>
41

>  <a_don>
0

>  <a_heavy>
25

>  <a_hyd>
16

>  <a_IC>
68.991341

>  <a_ICM>
1.6827157

>  <a_nB>
0

>  <a_nBr>
0

>  <a_nC>
18

>  <a_nCl>
1

>  <a_nF>
0

>  <a_nH>
16

>  <a_nI>
0

>  <a_nN>
1

>  <a_nO>
5

>  <a_nP>
0

>  <a_nS>
0

>  <balabanJ>
1.359516

>  <BCUT_PEOE_0>
-2.4415221

>  <BCUT_PEOE_1>
-0.63717544

>  <BCUT_PEOE_2>
0.60917127

>  <BCUT_PEOE_3>
2.4918177

>  <BCUT_SLOGP_0>
-2.5438023

>  <BCUT_SLOGP_1>
-0.52511734

>  <BCUT_SLOGP_2>
0.74434823

>  <BCUT_SLOGP_3>
2.4501274

>  <BCUT_SMR_0>
-2.2177861

>  <BCUT_SMR_1>
-0.41689444

>  <BCUT_SMR_2>
0.83624142

>  <BCUT_SMR_3>
2.7052798

>  <bpol>
27.853312

>  <b_1rotN>
6

>  <b_1rotR>
0.22222222

>  <b_ar>
16

>  <b_count>
43

>  <b_double>
1

>  <b_heavy>
27

>  <b_rotN>
7

>  <b_rotR>
0.25925925

>  <b_single>
26

>  <b_triple>
0

>  <chi0>
17.81119

>  <chi0v>
14.448257

>  <chi0v_C>
10.825909

>  <chi0_C>
12.275657

>  <chi1>
12.046045

>  <chi1v>
8.0999403

>  <chi1v_C>
5.1325331

>  <chi1_C>
6.7171102

>  <chiral>
1

>  <chiral_u>
1

>  <density>
0.86729509

>  <diameter>
16

>  <FCharge>
0

>  <GCUT_PEOE_0>
-0.77299803

>  <GCUT_PEOE_1>
-0.42455751

>  <GCUT_PEOE_2>
0.032076515

>  <GCUT_PEOE_3>
2.3844781

>  <GCUT_SLOGP_0>
-0.93331337

>  <GCUT_SLOGP_1>
-0.29703116

>  <GCUT_SLOGP_2>
0.13874955

>  <GCUT_SLOGP_3>
2.5194597

>  <GCUT_SMR_0>
-0.51570117

>  <GCUT_SMR_1>
-0.21087448

>  <GCUT_SMR_2>
0.18636803

>  <GCUT_SMR_3>
2.6520247

>  <Kier1>
19.753086

>  <Kier2>
9.2739229

>  <Kier3>
5.489603

>  <KierA1>
15.885503

>  <KierA2>
7.386054

>  <KierA3>
4.3403511

>  <KierFlex>
4.6932473

>  <lip_acc>
6

>  <lip_don>
0

>  <lip_druglike>
1

>  <lip_violation>
0

>  <logP(o/w)>
4.2367401

>  <logS>
-6.2466002

>  <mr>
9.4496555

>  <mutagenic>
0

>  <nmol>
1

>  <opr_brigid>
16

>  <opr_leadlike>
1

>  <opr_nring>
3

>  <opr_nrot>
6

>  <opr_violation>
1

>  <PC+>
0

>  <PC->
0

>  <PEOE_PC+>
1.8284882

>  <PEOE_PC->
-1.8284882

>  <PEOE_RPC+>
0.19125234

>  <PEOE_RPC->
0.22785208

>  <PEOE_VSA+0>
153.66786

>  <PEOE_VSA+1>
28.78676

>  <PEOE_VSA+2>
15.158071

>  <PEOE_VSA+3>
30.516994

>  <PEOE_VSA+4>
8.458519

>  <PEOE_VSA+5>
14.708499

>  <PEOE_VSA+6>
19.199511

>  <PEOE_VSA-0>
0

>  <PEOE_VSA-1>
29.581947

>  <PEOE_VSA-2>
0

>  <PEOE_VSA-3>
5.6825762

>  <PEOE_VSA-4>
0

>  <PEOE_VSA-5>
18.574432

>  <PEOE_VSA-6>
5.0075121

>  <PEOE_VSA_FHYD>
0.7997573

>  <PEOE_VSA_FNEG>
0.17867853

>  <PEOE_VSA_FPNEG>
0.07160306

>  <PEOE_VSA_FPOL>
0.20024271

>  <PEOE_VSA_FPOS>
0.82132149

>  <PEOE_VSA_FPPOS>
0.12863965

>  <PEOE_VSA_HYD>
263.39423

>  <PEOE_VSA_NEG>
58.84647

>  <PEOE_VSA_PNEG>
23.581945

>  <PEOE_VSA_POL>
65.948471

>  <PEOE_VSA_POS>
270.49622

>  <PEOE_VSA_PPOS>
42.366531

>  <petitjean>
0.5

>  <petitjeanSC>
1

>  <Q_PC+>
0

>  <Q_PC->
0

>  <Q_RPC+>
0

>  <Q_RPC->
0

>  <Q_VSA_FHYD>
1

>  <Q_VSA_FNEG>
0

>  <Q_VSA_FPNEG>
0

>  <Q_VSA_FPOL>
0

>  <Q_VSA_FPOS>
1

>  <Q_VSA_FPPOS>
0

>  <Q_VSA_HYD>
329.34268

>  <Q_VSA_NEG>
0

>  <Q_VSA_PNEG>
0

>  <Q_VSA_POL>
0

>  <Q_VSA_POS>
329.34268

>  <Q_VSA_PPOS>
0

>  <radius>
8

>  <reactive>
0

>  <rings>
3

>  <RPC+>
0

>  <RPC->
0

>  <rsynth>
1

>  <SlogP>
4.6039

>  <SlogP_VSA0>
21.999775

>  <SlogP_VSA1>
24.530994

>  <SlogP_VSA2>
41.330753

>  <SlogP_VSA3>
20.926258

>  <SlogP_VSA4>
0

>  <SlogP_VSA5>
9.5073462

>  <SlogP_VSA6>
3.5006065

>  <SlogP_VSA7>
130.48264

>  <SlogP_VSA8>
0

>  <SlogP_VSA9>
123.36538

>  <SMR>
9.2257996

>  <SMR_VSA0>
44.36945

>  <SMR_VSA1>
38.785305

>  <SMR_VSA2>
0

>  <SMR_VSA3>
27.533958

>  <SMR_VSA4>
6.9803472

>  <SMR_VSA5>
123.50229

>  <SMR_VSA6>
28.671722

>  <SMR_VSA7>
105.80067

>  <TPSA>
70.790001

>  <VAdjEq>
0.42433795

>  <VAdjMa>
5.7548876

>  <VDistEq>
3.7327437

>  <VDistMa>
8.9387331

>  <vdw_area>
329.34268

>  <vdw_vol>
398.54141

>  <vsa_acc>
21.753254

>  <vsa_acid>
0

>  <vsa_base>
0

>  <vsa_don>
0

>  <vsa_hyd>
257.71164

>  <vsa_other>
49.877796

>  <vsa_pol>
21.753254

>  <Weight>
361.78101

>  <weinerPath>
1795

>  <weinerPol>
35

>  <zagreb>
128

$$$$
O=C(NCCOC1=CC=C(OC2=CC=CC=C2)C=C1)OCC
  MOE2011           2D

 22 23  0  0  0  0  0  0  0  0999 V2000
    0.0000    0.0000    0.0000 O   0  0  0  0  0  0  0  0  0  0  0  0
   -0.7390    1.3050    0.0000 C   0  0  0  0  0  0  0  0  0  0  0  0
   -2.2390    1.3180    0.0000 N   0  0  0  0  0  0  0  0  0  0  0  0
   -3.0000    0.0260    0.0000 C   0  0  0  0  0  0  0  0  0  0  0  0
   -4.5000    0.0390    0.0000 C   0  0  0  0  0  0  0  0  0  0  0  0
   -5.2610   -1.2540    0.0000 O   0  0  0  0  0  0  0  0  0  0  0  0
   -6.7610   -1.2410    0.0000 C   0  0  0  0  0  0  0  0  0  0  0  0
   -7.5220   -2.5330    0.0000 C   0  0  0  0  0  0  0  0  0  0  0  0
   -9.0220   -2.5200    0.0000 C   0  0  0  0  0  0  0  0  0  0  0  0
   -9.7610   -1.2150    0.0000 C   0  0  0  0  0  0  0  0  0  0  0  0
  -11.2610   -1.2020    0.0000 O   0  0  0  0  0  0  0  0  0  0  0  0
  -12.0220   -2.4940    0.0000 C   0  0  0  0  0  0  0  0  0  0  0  0
  -13.5220   -2.4810    0.0000 C   0  0  0  0  0  0  0  0  0  0  0  0
  -14.2830   -3.7740    0.0000 C   0  0  0  0  0  0  0  0  0  0  0  0
  -13.5440   -5.0790    0.0000 C   0  0  0  0  0  0  0  0  0  0  0  0
  -12.0440   -5.0920    0.0000 C   0  0  0  0  0  0  0  0  0  0  0  0
  -11.2830   -3.8000    0.0000 C   0  0  0  0  0  0  0  0  0  0  0  0
   -9.0000    0.0780    0.0000 C   0  0  0  0  0  0  0  0  0  0  0  0
   -7.5000    0.0650    0.0000 C   0  0  0  0  0  0  0  0  0  0  0  0
    0.0220    2.5980    0.0000 O   0  0  0  0  0  0  0  0  0  0  0  0
    1.5220    2.5850    0.0000 C   0  0  0  0  0  0  0  0  0  0  0  0
    2.2840    3.8780    0.0000 C   0  0  0  0  0  0  0  0  0  0  0  0
  1  2  2  0  0  0  0
  2  3  1  0  0  0  0
  2 20  1  0  0  0  0
  3  4  1  0  0  0  0
  4  5  1  0  0  0  0
  5  6  1  0  0  0  0
  6  7  1  0  0  0  0
  7  8  1  0  0  0  0
  7 19  2  0  0  0  0
  8  9  2  0  0  0  0
  9 10  1  0  0  0  0
 10 11  1  0  0  0  0
 10 18  2  0  0  0  0
 11 12  1  0  0  0  0
 12 13  1  0  0  0  0
 12 17  2  0  0  0  0
 13 14  2  0  0  0  0
 14 15  1  0  0  0  0
 15 16  2  0  0  0  0
 16 17  1  0  0  0  0
 18 19  1  0  0  0  0
 20 21  1  0  0  0  0
 21 22  1  0  0  0  0
M  END
>  <DSSTox_RID>
40462

>  <DSSTox_CID>
12393

>  <apol>
46.897068

>  <a_acc>
2

>  <a_acid>
0

>  <a_aro>
12

>  <a_base>
0

>  <a_count>
41

>  <a_don>
1

>  <a_heavy>
22

>  <a_hyd>
16

>  <a_IC>
61.462143

>  <a_ICM>
1.4990766

>  <a_nB>
0

>  <a_nBr>
0

>  <a_nC>
17

>  <a_nCl>
0

>  <a_nF>
0

>  <a_nH>
19

>  <a_nI>
0

>  <a_nN>
1

>  <a_nO>
4

>  <a_nP>
0

>  <a_nS>
0

>  <balabanJ>
1.4992039

>  <BCUT_PEOE_0>
-2.479636

>  <BCUT_PEOE_1>
-0.62731874

>  <BCUT_PEOE_2>
0.67400938

>  <BCUT_PEOE_3>
2.4545243

>  <BCUT_SLOGP_0>
-2.6854444

>  <BCUT_SLOGP_1>
-0.53807992

>  <BCUT_SLOGP_2>
0.76280558

>  <BCUT_SLOGP_3>
2.4304695

>  <BCUT_SMR_0>
-2.226032

>  <BCUT_SMR_1>
-0.48049799

>  <BCUT_SMR_2>
0.8140673

>  <BCUT_SMR_3>
2.6968689

>  <bpol>
28.136932

>  <b_1rotN>
7

>  <b_1rotR>
0.30434781

>  <b_ar>
12

>  <b_count>
42

>  <b_double>
1

>  <b_heavy>
23

>  <b_rotN>
9

>  <b_rotR>
0.39130434

>  <b_single>
29

>  <b_triple>
0

>  <chi0>
15.62311

>  <chi0v>
12.450466

>  <chi0v_C>
10.317472

>  <chi0_C>
11.794683

>  <chi1>
10.775188

>  <chi1v>
7.1406817

>  <chi1v_C>
4.9391575

>  <chi1_C>
6.6565967

>  <chiral>
0

>  <chiral_u>
0

>  <density>
0.78727233

>  <diameter>
16

>  <FCharge>
0

>  <GCUT_PEOE_0>
-0.81149596

>  <GCUT_PEOE_1>
-0.38101321

>  <GCUT_PEOE_2>
0.075788632

>  <GCUT_PEOE_3>
2.3385477

>  <GCUT_SLOGP_0>
-1.1612329

>  <GCUT_SLOGP_1>
-0.29640797

>  <GCUT_SLOGP_2>
0.16445385

>  <GCUT_SLOGP_3>
2.4763939

>  <GCUT_SMR_0>
-0.5153231

>  <GCUT_SMR_1>
-0.21605732

>  <GCUT_SMR_2>
0.19218576

>  <GCUT_SMR_3>
2.6113989

>  <Kier1>
18.340265

>  <Kier2>
10.714286

>  <Kier3>
7.421875

>  <KierA1>
13.584919

>  <KierA2>
7.8135324

>  <KierA3>
5.351531

>  <KierFlex>
4.8248277

>  <lip_acc>
5

>  <lip_don>
1

>  <lip_druglike>
1

>  <lip_violation>
0

>  <logP(o/w)>
3.352

>  <logS>
-3.79457

>  <mr>
8.5449715

>  <mutagenic>
0

>  <nmol>
1

>  <opr_brigid>
12

>  <opr_leadlike>
1

>  <opr_nring>
2

>  <opr_nrot>
7

>  <opr_violation>
0

>  <PC+>
0

>  <PC->
0

>  <PEOE_PC+>
1.3643726

>  <PEOE_PC->
-1.3643726

>  <PEOE_RPC+>
0.28114507

>  <PEOE_RPC->
0.24058084

>  <PEOE_VSA+0>
171.68491

>  <PEOE_VSA+1>
16.917038

>  <PEOE_VSA+2>
8.458519

>  <PEOE_VSA+3>
64.416458

>  <PEOE_VSA+4>
0

>  <PEOE_VSA+5>
0

>  <PEOE_VSA+6>
19.199511

>  <PEOE_VSA-0>
0

>  <PEOE_VSA-1>
0

>  <PEOE_VSA-2>
0

>  <PEOE_VSA-3>
0

>  <PEOE_VSA-4>
19.249496

>  <PEOE_VSA-5>
2.503756

>  <PEOE_VSA-6>
5.0075121

>  <PEOE_VSA_FHYD>
0.85050517

>  <PEOE_VSA_FNEG>
0.087044656

>  <PEOE_VSA_FPNEG>
0.087044656

>  <PEOE_VSA_FPOL>
0.14949484

>  <PEOE_VSA_FPOS>
0.91295534

>  <PEOE_VSA_FPPOS>
0.062450189

>  <PEOE_VSA_HYD>
261.47693

>  <PEOE_VSA_NEG>
26.760765

>  <PEOE_VSA_PNEG>
26.760765

>  <PEOE_VSA_POL>
45.960278

>  <PEOE_VSA_POS>
280.67642

>  <PEOE_VSA_PPOS>
19.199511

>  <petitjean>
0.5

>  <petitjeanSC>
1

>  <Q_PC+>
0

>  <Q_PC->
0

>  <Q_RPC+>
0

>  <Q_RPC->
0

>  <Q_VSA_FHYD>
1

>  <Q_VSA_FNEG>
0

>  <Q_VSA_FPNEG>
0

>  <Q_VSA_FPOL>
0

>  <Q_VSA_FPOS>
1

>  <Q_VSA_FPPOS>
0

>  <Q_VSA_HYD>
307.43719

>  <Q_VSA_NEG>
0

>  <Q_VSA_PNEG>
0

>  <Q_VSA_POL>
0

>  <Q_VSA_POS>
307.43719

>  <Q_VSA_PPOS>
0

>  <radius>
8

>  <reactive>
0

>  <rings>
2

>  <RPC+>
0

>  <RPC->
0

>  <rsynth>
1

>  <SlogP>
3.6038001

>  <SlogP_VSA0>
40.010525

>  <SlogP_VSA1>
7.3166366

>  <SlogP_VSA2>
10.999887

>  <SlogP_VSA3>
60.292095

>  <SlogP_VSA4>
0

>  <SlogP_VSA5>
0

>  <SlogP_VSA6>
0

>  <SlogP_VSA7>
158.78867

>  <SlogP_VSA8>
0

>  <SlogP_VSA9>
72.918518

>  <SMR>
8.3477697

>  <SMR_VSA0>
34.862103

>  <SMR_VSA1>
21.999775

>  <SMR_VSA2>
18.01075

>  <SMR_VSA3>
15.730285

>  <SMR_VSA4>
0

>  <SMR_VSA5>
158.78867

>  <SMR_VSA6>
67.608734

>  <SMR_VSA7>
33.326015

>  <TPSA>
56.790001

>  <VAdjEq>
0.4530769

>  <VAdjMa>
5.523562

>  <VDistEq>
3.7500646

>  <VDistMa>
8.5517063

>  <vdw_area>
307.43719

>  <vdw_vol>
358.44012

>  <vsa_acc>
16.070677

>  <vsa_acid>
0

>  <vsa_base>
0

>  <vsa_don>
5.6825762

>  <vsa_hyd>
261.47693

>  <vsa_other>
24.207024

>  <vsa_pol>
21.753254

>  <Weight>
301.34198

>  <weinerPath>
1386

>  <weinerPol>
26

>  <zagreb>
102

$$$$
O=C(OC(C#N)c2cccc(Oc1ccccc1)c2)C3C(C)(C)C3(C)C
  MOE2011           2D

 26 28  0  0  1  0  0  0  0  0999 V2000
    0.0000    0.0000    0.0000 O   0  0  0  0  0  0  0  0  0  0  0  0
   -0.7390   -1.3050    0.0000 C   0  0  0  0  0  0  0  0  0  0  0  0
   -2.2390   -1.3180    0.0000 O   0  0  0  0  0  0  0  0  0  0  0  0
   -3.0000   -0.0260    0.0000 C   0  0  3  0  0  0  0  0  0  0  0  0
   -2.2610    1.2800    0.0000 C   0  0  0  0  0  0  0  0  0  0  0  0
   -1.5220    2.5850    0.0000 N   0  0  0  0  0  0  0  0  0  0  0  0
   -4.5000   -0.0390    0.0000 C   0  0  0  0  0  0  0  0  0  0  0  0
   -5.2390   -1.3440    0.0000 C   0  0  0  0  0  0  0  0  0  0  0  0
   -6.7390   -1.3570    0.0000 C   0  0  0  0  0  0  0  0  0  0  0  0
   -7.5000   -0.0640    0.0000 C   0  0  0  0  0  0  0  0  0  0  0  0
   -6.7610    1.2410    0.0000 C   0  0  0  0  0  0  0  0  0  0  0  0
   -7.5220    2.5340    0.0000 O   0  0  0  0  0  0  0  0  0  0  0  0
   -9.0220    2.5210    0.0000 C   0  0  0  0  0  0  0  0  0  0  0  0
   -9.7830    3.8130    0.0000 C   0  0  0  0  0  0  0  0  0  0  0  0
  -11.2830    3.8010    0.0000 C   0  0  0  0  0  0  0  0  0  0  0  0
  -12.0220    2.4950    0.0000 C   0  0  0  0  0  0  0  0  0  0  0  0
  -11.2610    1.2030    0.0000 C   0  0  0  0  0  0  0  0  0  0  0  0
   -9.7610    1.2150    0.0000 C   0  0  0  0  0  0  0  0  0  0  0  0
   -5.2610    1.2540    0.0000 C   0  0  0  0  0  0  0  0  0  0  0  0
    0.0220   -2.5980    0.0000 C   0  0  0  0  0  0  0  0  0  0  0  0
    1.3280   -3.3370    0.0000 C   0  0  0  0  0  0  0  0  0  0  0  0
    2.5250   -4.2400    0.0000 C   0  0  0  0  0  0  0  0  0  0  0  0
    2.5100   -2.4140    0.0000 C   0  0  0  0  0  0  0  0  0  0  0  0
    0.0350   -4.0980    0.0000 C   0  0  0  0  0  0  0  0  0  0  0  0
    0.2440   -5.5830    0.0000 C   0  0  0  0  0  0  0  0  0  0  0  0
   -1.3460   -4.6840    0.0000 C   0  0  0  0  0  0  0  0  0  0  0  0
  1  2  2  0  0  0  0
  2  3  1  0  0  0  0
  2 20  1  0  0  0  0
  3  4  1  0  0  0  0
  4  5  1  0  0  0  0
  4  7  1  0  0  0  0
  5  6  3  0  0  0  0
  7  8  1  0  0  0  0
  7 19  2  0  0  0  0
  8  9  2  0  0  0  0
  9 10  1  0  0  0  0
 10 11  2  0  0  0  0
 11 12  1  0  0  0  0
 11 19  1  0  0  0  0
 12 13  1  0  0  0  0
 13 14  1  0  0  0  0
 13 18  2  0  0  0  0
 14 15  2  0  0  0  0
 15 16  1  0  0  0  0
 16 17  2  0  0  0  0
 17 18  1  0  0  0  0
 20 21  1  0  0  0  0
 20 24  1  0  0  0  0
 21 22  1  0  0  0  0
 21 23  1  0  0  0  0
 21 24  1  0  0  0  0
 24 25  1  0  0  0  0
 24 26  1  0  0  0  0
M  END
>  <DSSTox_RID>
40414

>  <DSSTox_CID>
4002

>  <apol>
57.562241

>  <a_acc>
2

>  <a_acid>
0

>  <a_aro>
12

>  <a_base>
0

>  <a_count>
49

>  <a_don>
0

>  <a_heavy>
26

>  <a_hyd>
20

>  <a_IC>
68.216476

>  <a_ICM>
1.3921729

>  <a_nB>
0

>  <a_nBr>
0

>  <a_nC>
22

>  <a_nCl>
0

>  <a_nF>
0

>  <a_nH>
23

>  <a_nI>
0

>  <a_nN>
1

>  <a_nO>
3

>  <a_nP>
0

>  <a_nS>
0

>  <balabanJ>
1.5246489

>  <BCUT_PEOE_0>
-2.5407538

>  <BCUT_PEOE_1>
-0.5733512

>  <BCUT_PEOE_2>
0.54966635

>  <BCUT_PEOE_3>
2.9505241

>  <BCUT_SLOGP_0>
-2.4298317

>  <BCUT_SLOGP_1>
-0.48191416

>  <BCUT_SLOGP_2>
0.64268589

>  <BCUT_SLOGP_3>
2.9909139

>  <BCUT_SMR_0>
-2.2968915

>  <BCUT_SMR_1>
-0.38849238

>  <BCUT_SMR_2>
0.69513601

>  <BCUT_SMR_3>
3.1893315

>  <bpol>
30.593761

>  <b_1rotN>
5

>  <b_1rotR>
0.17857143

>  <b_ar>
12

>  <b_count>
51

>  <b_double>
1

>  <b_heavy>
28

>  <b_rotN>
7

>  <b_rotR>
0.25

>  <b_single>
37

>  <b_triple>
1

>  <chi0>
18.949383

>  <chi0v>
15.522812

>  <chi0v_C>
13.850853

>  <chi0_C>
15.53517

>  <chi1>
12.269205

>  <chi1v>
8.701232

>  <chi1v_C>
7.4254265

>  <chi1_C>
9.3517551

>  <chiral>
1

>  <chiral_u>
1

>  <density>
0.75893676

>  <diameter>
13

>  <FCharge>
0

>  <GCUT_PEOE_0>
-0.76997292

>  <GCUT_PEOE_1>
-0.38246748

>  <GCUT_PEOE_2>
0.062597319

>  <GCUT_PEOE_3>
2.6930883

>  <GCUT_SLOGP_0>
-0.84558338

>  <GCUT_SLOGP_1>
-0.26386139

>  <GCUT_SLOGP_2>
0.12875846

>  <GCUT_SLOGP_3>
2.7777698

>  <GCUT_SMR_0>
-0.51155066

>  <GCUT_SMR_1>
-0.19809085

>  <GCUT_SMR_2>
0.17285733

>  <GCUT_SMR_3>
2.9276385

>  <Kier1>
20.727041

>  <Kier2>
8.1632652

>  <Kier3>
4.0775623

>  <KierA1>
15.49596

>  <KierA2>
6.0266814

>  <KierA3>
2.983304

>  <KierFlex>
3.5918927

>  <lip_acc>
4

>  <lip_don>
0

>  <lip_druglike>
1

>  <lip_violation>
1

>  <logP(o/w)>
5.0939999

>  <logS>
-6.2964301

>  <mr>
10.189341

>  <mutagenic>
0

>  <nmol>
1

>  <opr_brigid>
15

>  <opr_leadlike>
1

>  <opr_nring>
3

>  <opr_nrot>
6

>  <opr_violation>
1

>  <PC+>
0

>  <PC->
0

>  <PEOE_PC+>
1.0484294

>  <PEOE_PC->
-1.0484294

>  <PEOE_RPC+>
0.25995579

>  <PEOE_RPC->
0.29262352

>  <PEOE_VSA+0>
246.31029

>  <PEOE_VSA+1>
19.125578

>  <PEOE_VSA+2>
20.299505

>  <PEOE_VSA+3>
0

>  <PEOE_VSA+4>
8.458519

>  <PEOE_VSA+5>
14.708499

>  <PEOE_VSA+6>
0

>  <PEOE_VSA-0>
15.808495

>  <PEOE_VSA-1>
0

>  <PEOE_VSA-2>
0

>  <PEOE_VSA-3>
17.742489

>  <PEOE_VSA-4>
0

>  <PEOE_VSA-5>
16.070677

>  <PEOE_VSA-6>
2.503756

>  <PEOE_VSA_FHYD>
0.88438159

>  <PEOE_VSA_FNEG>
0.14438061

>  <PEOE_VSA_FPNEG>
0.051448759

>  <PEOE_VSA_FPOL>
0.11561839

>  <PEOE_VSA_FPOS>
0.85561937

>  <PEOE_VSA_FPPOS>
0.064169623

>  <PEOE_VSA_HYD>
319.28638

>  <PEOE_VSA_NEG>
52.125416

>  <PEOE_VSA_PNEG>
18.574432

>  <PEOE_VSA_POL>
41.741451

>  <PEOE_VSA_POS>
308.9024

>  <PEOE_VSA_PPOS>
23.167019

>  <petitjean>
0.46153846

>  <petitjeanSC>
0.85714287

>  <Q_PC+>
0

>  <Q_PC->
0

>  <Q_RPC+>
0

>  <Q_RPC->
0

>  <Q_VSA_FHYD>
1

>  <Q_VSA_FNEG>
0

>  <Q_VSA_FPNEG>
0

>  <Q_VSA_FPOL>
0

>  <Q_VSA_FPOS>
1

>  <Q_VSA_FPPOS>
0

>  <Q_VSA_HYD>
361.0278

>  <Q_VSA_NEG>
0

>  <Q_VSA_PNEG>
0

>  <Q_VSA_POL>
0

>  <Q_VSA_POS>
361.0278

>  <Q_VSA_PPOS>
0

>  <radius>
7

>  <reactive>
0

>  <rings>
3

>  <RPC+>
0

>  <RPC->
0

>  <rsynth>
1

>  <SlogP>
5.3644838

>  <SlogP_VSA0>
10.999887

>  <SlogP_VSA1>
7.7454643

>  <SlogP_VSA2>
34.862103

>  <SlogP_VSA3>
47.661102

>  <SlogP_VSA4>
7.5963712

>  <SlogP_VSA5>
0

>  <SlogP_VSA6>
0

>  <SlogP_VSA7>
158.78867

>  <SlogP_VSA8>
6.4686494

>  <SlogP_VSA9>
143.79091

>  <SMR>
9.8566999

>  <SMR_VSA0>
34.862103

>  <SMR_VSA1>
42.059242

>  <SMR_VSA2>
4.4107962

>  <SMR_VSA3>
36.742828

>  <SMR_VSA4>
0

>  <SMR_VSA5>
158.78867

>  <SMR_VSA6>
7.7454643

>  <SMR_VSA7>
133.30406

>  <TPSA>
59.32

>  <VAdjEq>
0.41210872

>  <VAdjMa>
5.8073549

>  <VDistEq>
3.5337594

>  <VDistMa>
9.1013508

>  <vdw_area>
361.0278

>  <vdw_vol>
429.87244

>  <vsa_acc>
31.30941

>  <vsa_acid>
0

>  <vsa_base>
0

>  <vsa_don>
0

>  <vsa_hyd>
289.70288

>  <vsa_other>
40.015518

>  <vsa_pol>
31.30941

>  <Weight>
349.42999

>  <weinerPath>
1791

>  <weinerPol>
38

>  <zagreb>
140

$$$$
O=C(OC(C)(C)C)C2=CC=C(C=C2)CO/N=C/C(C(C)=N1)=C(OC3=CC=CC=C3)N1C
  MOE2011           2D

 31 33  0  0  0  0  0  0  0  0999 V2000
    0.0000    0.0000    0.0000 O   0  0  0  0  0  0  0  0  0  0  0  0
   -0.7470   -1.3010    0.0000 C   0  0  0  0  0  0  0  0  0  0  0  0
    0.0060   -2.5980    0.0000 O   0  0  0  0  0  0  0  0  0  0  0  0
    1.5060   -2.5950    0.0000 C   0  0  0  0  0  0  0  0  0  0  0  0
    1.5090   -4.0950    0.0000 C   0  0  0  0  0  0  0  0  0  0  0  0
    1.5020   -1.0950    0.0000 C   0  0  0  0  0  0  0  0  0  0  0  0
    3.0060   -2.5920    0.0000 C   0  0  0  0  0  0  0  0  0  0  0  0
   -2.2470   -1.3040    0.0000 C   0  0  0  0  0  0  0  0  0  0  0  0
   -3.0000   -0.0060    0.0000 C   0  0  0  0  0  0  0  0  0  0  0  0
   -4.5000   -0.0100    0.0000 C   0  0  0  0  0  0  0  0  0  0  0  0
   -5.2470   -1.3100    0.0000 C   0  0  0  0  0  0  0  0  0  0  0  0
   -4.4940   -2.6080    0.0000 C   0  0  0  0  0  0  0  0  0  0  0  0
   -2.9940   -2.6040    0.0000 C   0  0  0  0  0  0  0  0  0  0  0  0
   -6.7470   -1.3130    0.0000 C   0  0  0  0  0  0  0  0  0  0  0  0
   -7.5000   -0.0160    0.0000 O   0  0  0  0  0  0  0  0  0  0  0  0
   -9.0000   -0.0190    0.0000 N   0  0  0  0  0  0  0  0  0  0  0  0
   -9.7530    1.2780    0.0000 C   0  0  0  0  0  0  0  0  0  0  0  0
  -11.2530    1.2750    0.0000 C   0  0  0  0  0  0  0  0  0  0  0  0
  -12.1320    0.0600    0.0000 C   0  0  0  0  0  0  0  0  0  0  0  0
  -11.6650   -1.3660    0.0000 C   0  0  0  0  0  0  0  0  0  0  0  0
  -13.5590    0.5200    0.0000 N   0  0  0  0  0  0  0  0  0  0  0  0
  -12.1370    2.4870    0.0000 C   0  0  0  0  0  0  0  0  0  0  0  0
  -11.6770    3.9140    0.0000 O   0  0  0  0  0  0  0  0  0  0  0  0
  -12.6830    5.0270    0.0000 C   0  0  0  0  0  0  0  0  0  0  0  0
  -14.1490    4.7120    0.0000 C   0  0  0  0  0  0  0  0  0  0  0  0
  -15.1550    5.8240    0.0000 C   0  0  0  0  0  0  0  0  0  0  0  0
  -14.6950    7.2520    0.0000 C   0  0  0  0  0  0  0  0  0  0  0  0
  -13.2280    7.5670    0.0000 C   0  0  0  0  0  0  0  0  0  0  0  0
  -12.2220    6.4540    0.0000 C   0  0  0  0  0  0  0  0  0  0  0  0
  -13.5630    2.0200    0.0000 N   0  0  0  0  0  0  0  0  0  0  0  0
  -14.7780    2.8990    0.0000 C   0  0  0  0  0  0  0  0  0  0  0  0
  1  2  2  0  0  0  0
  2  3  1  0  0  0  0
  2  8  1  0  0  0  0
  3  4  1  0  0  0  0
  4  5  1  0  0  0  0
  4  6  1  0  0  0  0
  4  7  1  0  0  0  0
  8  9  1  0  0  0  0
  8 13  2  0  0  0  0
  9 10  2  0  0  0  0
 10 11  1  0  0  0  0
 11 12  2  0  0  0  0
 11 14  1  0  0  0  0
 12 13  1  0  0  0  0
 14 15  1  0  0  0  0
 15 16  1  0  0  0  0
 16 17  2  0  0  0  0
 17 18  1  0  0  0  0
 18 19  1  0  0  0  0
 18 22  2  0  0  0  0
 19 20  1  0  0  0  0
 19 21  2  0  0  0  0
 21 30  1  0  0  0  0
 22 23  1  0  0  0  0
 22 30  1  0  0  0  0
 23 24  1  0  0  0  0
 24 25  1  0  0  0  0
 24 29  2  0  0  0  0
 25 26  2  0  0  0  0
 26 27  1  0  0  0  0
 27 28  2  0  0  0  0
 28 29  1  0  0  0  0
 30 31  1  0  0  0  0
M  END
>  <DSSTox_RID>
40463

>  <DSSTox_CID>
12550

>  <apol>
66.751411

>  <a_acc>
3

>  <a_acid>
0

>  <a_aro>
17

>  <a_base>
0

>  <a_count>
58

>  <a_don>
0

>  <a_heavy>
31

>  <a_hyd>
21

>  <a_IC>
88.586945

>  <a_ICM>
1.5273612

>  <a_nB>
0

>  <a_nBr>
0

>  <a_nC>
24

>  <a_nCl>
0

>  <a_nF>
0

>  <a_nH>
27

>  <a_nI>
0

>  <a_nN>
3

>  <a_nO>
4

>  <a_nP>
0

>  <a_nS>
0

>  <balabanJ>
1.3420403

>  <BCUT_PEOE_0>
-2.5961003

>  <BCUT_PEOE_1>
-0.54373264

>  <BCUT_PEOE_2>
0.58241987

>  <BCUT_PEOE_3>
2.5854681

>  <BCUT_SLOGP_0>
-2.5835385

>  <BCUT_SLOGP_1>
-0.46116972

>  <BCUT_SLOGP_2>
0.68268114

>  <BCUT_SLOGP_3>
2.6155453

>  <BCUT_SMR_0>
-2.3651655

>  <BCUT_SMR_1>
-0.39341083

>  <BCUT_SMR_2>
0.72709131

>  <BCUT_SMR_3>
2.8162365

>  <bpol>
38.202587

>  <b_1rotN>
7

>  <b_1rotR>
0.21212122

>  <b_ar>
17

>  <b_count>
60

>  <b_double>
2

>  <b_heavy>
33

>  <b_rotN>
9

>  <b_rotR>
0.27272728

>  <b_single>
41

>  <b_triple>
0

>  <chi0>
22.43251

>  <chi0v>
18.455244

>  <chi0v_C>
15.48061

>  <chi0_C>
17.319626

>  <chi1>
14.726166

>  <chi1v>
9.9687757

>  <chi1v_C>
7.1242795

>  <chi1_C>
9.3433371

>  <chiral>
0

>  <chiral_u>
0

>  <density>
0.77990395

>  <diameter>
18

>  <FCharge>
0

>  <GCUT_PEOE_0>
-0.82631993

>  <GCUT_PEOE_1>
-0.3861821

>  <GCUT_PEOE_2>
-0.052346516

>  <GCUT_PEOE_3>
2.525738

>  <GCUT_SLOGP_0>
-0.88438576

>  <GCUT_SLOGP_1>
-0.26386139

>  <GCUT_SLOGP_2>
0.086890206

>  <GCUT_SLOGP_3>
2.6268659

>  <GCUT_SMR_0>
-0.52503562

>  <GCUT_SMR_1>
-0.21605732

>  <GCUT_SMR_2>
0.16039263

>  <GCUT_SMR_3>
2.7949092

>  <Kier1>
25.619835

>  <Kier2>
11.92344

>  <Kier3>
8.0658436

>  <KierA1>
18.971077

>  <KierA2>
8.7342901

>  <KierA3>
5.8618598

>  <KierFlex>
5.3451257

>  <lip_acc>
7

>  <lip_don>
0

>  <lip_druglike>
1

>  <lip_violation>
1

>  <logP(o/w)>
5.7080002

>  <logS>
-5.4872098

>  <mr>
12.034528

>  <mutagenic>
0

>  <nmol>
1

>  <opr_brigid>
18

>  <opr_leadlike>
1

>  <opr_nring>
3

>  <opr_nrot>
8

>  <opr_violation>
1

>  <PC+>
0

>  <PC->
0

>  <PEOE_PC+>
1.6148127

>  <PEOE_PC->
-1.6148127

>  <PEOE_RPC+>
0.18305115

>  <PEOE_RPC->
0.18758519

>  <PEOE_VSA+0>
201.09335

>  <PEOE_VSA+1>
40.525082

>  <PEOE_VSA+2>
28.758026

>  <PEOE_VSA+3>
46.848991

>  <PEOE_VSA+4>
22.058474

>  <PEOE_VSA+5>
14.708499

>  <PEOE_VSA+6>
0

>  <PEOE_VSA-0>
31.616989

>  <PEOE_VSA-1>
0

>  <PEOE_VSA-2>
10.885262

>  <PEOE_VSA-3>
9.4210396

>  <PEOE_VSA-4>
5.9023595

>  <PEOE_VSA-5>
16.070677

>  <PEOE_VSA-6>
2.503756

>  <PEOE_VSA_FHYD>
0.85770255

>  <PEOE_VSA_FNEG>
0.17751257

>  <PEOE_VSA_FPNEG>
0.056870863

>  <PEOE_VSA_FPOL>
0.14229748

>  <PEOE_VSA_FPOS>
0.82248741

>  <PEOE_VSA_FPPOS>
0.085426614

>  <PEOE_VSA_HYD>
369.14874

>  <PEOE_VSA_NEG>
76.400085

>  <PEOE_VSA_PNEG>
24.476793

>  <PEOE_VSA_POL>
61.243767

>  <PEOE_VSA_POS>
353.99243

>  <PEOE_VSA_PPOS>
36.766975

>  <petitjean>
0.5

>  <petitjeanSC>
1

>  <Q_PC+>
0

>  <Q_PC->
0

>  <Q_RPC+>
0

>  <Q_RPC->
0

>  <Q_VSA_FHYD>
1

>  <Q_VSA_FNEG>
0

>  <Q_VSA_FPNEG>
0

>  <Q_VSA_FPOL>
0

>  <Q_VSA_FPOS>
1

>  <Q_VSA_FPPOS>
0

>  <Q_VSA_HYD>
430.39252

>  <Q_VSA_NEG>
0

>  <Q_VSA_PNEG>
0

>  <Q_VSA_POL>
0

>  <Q_VSA_POS>
430.39252

>  <Q_VSA_PPOS>
0

>  <radius>
9

>  <reactive>
0

>  <rings>
3

>  <RPC+>
0

>  <RPC->
0

>  <rsynth>
1

>  <SlogP>
5.65242

>  <SlogP_VSA0>
10.999887

>  <SlogP_VSA1>
26.185041

>  <SlogP_VSA2>
39.43301

>  <SlogP_VSA3>
0

>  <SlogP_VSA4>
36.17569

>  <SlogP_VSA5>
19.399862

>  <SlogP_VSA6>
0

>  <SlogP_VSA7>
158.78867

>  <SlogP_VSA8>
0

>  <SlogP_VSA9>
197.18553

>  <SMR>
11.89405

>  <SMR_VSA0>
46.080868

>  <SMR_VSA1>
48.839329

>  <SMR_VSA2>
0

>  <SMR_VSA3>
22.371502

>  <SMR_VSA4>
0

>  <SMR_VSA5>
179.71492

>  <SMR_VSA6>
7.7454643

>  <SMR_VSA7>
183.4156

>  <TPSA>
74.940002

>  <VAdjEq>
0.36097246

>  <VAdjMa>
6.044394

>  <VDistEq>
3.9875507

>  <VDistMa>
9.5708904

>  <vdw_area>
430.39252

>  <vdw_vol>
505.55072

>  <vsa_acc>
33.873222

>  <vsa_acid>
0

>  <vsa_base>
0

>  <vsa_don>
0

>  <vsa_hyd>
337.65189

>  <vsa_other>
58.867409

>  <vsa_pol>
33.873222

>  <Weight>
421.49698

>  <weinerPath>
3340

>  <weinerPol>
43

>  <zagreb>
158

$$$$
S=P(OC1=CC(=C(C=C1)SC)C)(OC)OC
  MOE2011           2D

 16 16  0  0  0  0  0  0  0  0999 V2000
    0.0000    0.0000    0.0000 S   0  0  0  0  0  0  0  0  0  0  0  0
    0.7470   -1.3010    0.0000 P   0  0  0  0  0  0  0  0  0  0  0  0
   -0.5540   -2.0480    0.0000 O   0  0  0  0  0  0  0  0  0  0  0  0
   -1.8510   -1.2950    0.0000 C   0  0  0  0  0  0  0  0  0  0  0  0
   -3.1520   -2.0420    0.0000 C   0  0  0  0  0  0  0  0  0  0  0  0
   -4.4490   -1.2890    0.0000 C   0  0  0  0  0  0  0  0  0  0  0  0
   -4.4460    0.2110    0.0000 C   0  0  0  0  0  0  0  0  0  0  0  0
   -3.1450    0.9580    0.0000 C   0  0  0  0  0  0  0  0  0  0  0  0
   -1.8480    0.2050    0.0000 C   0  0  0  0  0  0  0  0  0  0  0  0
   -5.7430    0.9640    0.0000 S   0  0  0  0  0  0  0  0  0  0  0  0
   -5.7390    2.4640    0.0000 C   0  0  0  0  0  0  0  0  0  0  0  0
   -5.7500   -2.0360    0.0000 C   0  0  0  0  0  0  0  0  0  0  0  0
    2.0480   -0.5540    0.0000 O   0  0  0  0  0  0  0  0  0  0  0  0
    2.0510    0.9460    0.0000 C   0  0  0  0  0  0  0  0  0  0  0  0
    1.4940   -2.6020    0.0000 O   0  0  0  0  0  0  0  0  0  0  0  0
    2.9940   -2.6050    0.0000 C   0  0  0  0  0  0  0  0  0  0  0  0
  1  2  2  0  0  0  0
  2  3  1  0  0  0  0
  2 13  1  0  0  0  0
  2 15  1  0  0  0  0
  3  4  1  0  0  0  0
  4  5  1  0  0  0  0
  4  9  2  0  0  0  0
  5  6  2  0  0  0  0
  6  7  1  0  0  0  0
  6 12  1  0  0  0  0
  7  8  2  0  0  0  0
  7 10  1  0  0  0  0
  8  9  1  0  0  0  0
 10 11  1  0  0  0  0
 13 14  1  0  0  0  0
 15 16  1  0  0  0  0
M  END
>  <DSSTox_RID>
40464

>  <DSSTox_CID>
620

>  <apol>
39.437897

>  <a_acc>
3

>  <a_acid>
0

>  <a_aro>
6

>  <a_base>
0

>  <a_count>
31

>  <a_don>
0

>  <a_heavy>
16

>  <a_hyd>
11

>  <a_IC>
55.00256

>  <a_ICM>
1.774276

>  <a_nB>
0

>  <a_nBr>
0

>  <a_nC>
10

>  <a_nCl>
0

>  <a_nF>
0

>  <a_nH>
15

>  <a_nI>
0

>  <a_nN>
0

>  <a_nO>
3

>  <a_nP>
1

>  <a_nS>
2

>  <balabanJ>
2.4705942

>  <BCUT_PEOE_0>
-2.3747358

>  <BCUT_PEOE_1>
-0.31567964

>  <BCUT_PEOE_2>
0.057900582

>  <BCUT_PEOE_3>
2.4141293

>  <BCUT_SLOGP_0>
-2.2856126

>  <BCUT_SLOGP_1>
-0.020862259

>  <BCUT_SLOGP_2>
0.24275433

>  <BCUT_SLOGP_3>
2.639508

>  <BCUT_SMR_0>
-2.0769501

>  <BCUT_SMR_1>
0.1057

>  <BCUT_SMR_2>
0.47064295

>  <BCUT_SMR_3>
2.7549412

>  <bpol>
30.766106

>  <b_1rotN>
5

>  <b_1rotR>
0.3125

>  <b_ar>
6

>  <b_count>
31

>  <b_double>
0

>  <b_heavy>
16

>  <b_rotN>
5

>  <b_rotR>
0.3125

>  <b_single>
25

>  <b_triple>
0

>  <chi0>
12.181798

>  <chi0v>
12.247926

>  <chi0v_C>
7.2320509

>  <chi0_C>
7.8533711

>  <chi1>
7.5421538

>  <chi1v>
8.3821068

>  <chi1v_C>
2.2380338

>  <chi1_C>
3.0436769

>  <chiral>
0

>  <chiral_u>
0

>  <density>
0.92061913

>  <diameter>
9

>  <FCharge>
0

>  <GCUT_PEOE_0>
-0.74605298

>  <GCUT_PEOE_1>
-0.37389505

>  <GCUT_PEOE_2>
-0.10209942

>  <GCUT_PEOE_3>
2.2915988

>  <GCUT_SLOGP_0>
-0.80443555

>  <GCUT_SLOGP_1>
-0.22047244

>  <GCUT_SLOGP_2>
0.0093096886

>  <GCUT_SLOGP_3>
2.4844267

>  <GCUT_SMR_0>
-0.48716274

>  <GCUT_SMR_1>
-0.12904929

>  <GCUT_SMR_2>
0.107811

>  <GCUT_SMR_3>
2.6041522

>  <Kier1>
14.0625

>  <Kier2>
6.0743804

>  <Kier3>
3.7692308

>  <KierA1>
16.273466

>  <KierA2>
7.0996885

>  <KierA3>
4.4383001

>  <KierFlex>
7.2210336

>  <lip_acc>
3

>  <lip_don>
0

>  <lip_druglike>
1

>  <lip_violation>
0

>  <logP(o/w)>
3.3740001

>  <logS>
-4.00317

>  <mr>
7.4092531

>  <mutagenic>
0

>  <nmol>
1

>  <opr_brigid>
6

>  <opr_leadlike>
1

>  <opr_nring>
1

>  <opr_nrot>
5

>  <opr_violation>
0

>  <PC+>
0

>  <PC->
0

>  <PEOE_PC+>
1.1607732

>  <PEOE_PC->
-1.1607732

>  <PEOE_RPC+>
0.28701869

>  <PEOE_RPC->
0.39434466

>  <PEOE_VSA+0>
81.018532

>  <PEOE_VSA+1>
31.384512

>  <PEOE_VSA+2>
0

>  <PEOE_VSA+3>
8.458519

>  <PEOE_VSA+4>
71.316856

>  <PEOE_VSA+5>
0

>  <PEOE_VSA+6>
15.590208

>  <PEOE_VSA-0>
2.2085397

>  <PEOE_VSA-1>
0

>  <PEOE_VSA-2>
19.760618

>  <PEOE_VSA-3>
13.997915

>  <PEOE_VSA-4>
0

>  <PEOE_VSA-5>
0

>  <PEOE_VSA-6>
33.008488

>  <PEOE_VSA_FHYD>
0.5666917

>  <PEOE_VSA_FNEG>
0.24923941

>  <PEOE_VSA_FPNEG>
0.11927436

>  <PEOE_VSA_FPOL>
0.4333083

>  <PEOE_VSA_FPOS>
0.75076061

>  <PEOE_VSA_FPPOS>
0.31403393

>  <PEOE_VSA_HYD>
156.82864

>  <PEOE_VSA_NEG>
68.975563

>  <PEOE_VSA_PNEG>
33.008488

>  <PEOE_VSA_POL>
119.91555

>  <PEOE_VSA_POS>
207.76863

>  <PEOE_VSA_PPOS>
86.907066

>  <petitjean>
0.44444445

>  <petitjeanSC>
0.80000001

>  <Q_PC+>
0

>  <Q_PC->
0

>  <Q_RPC+>
0

>  <Q_RPC->
0

>  <Q_VSA_FHYD>
1

>  <Q_VSA_FNEG>
0

>  <Q_VSA_FPNEG>
0

>  <Q_VSA_FPOL>
0

>  <Q_VSA_FPOS>
1

>  <Q_VSA_FPPOS>
0

>  <Q_VSA_HYD>
276.7442

>  <Q_VSA_NEG>
0

>  <Q_VSA_PNEG>
0

>  <Q_VSA_POL>
0

>  <Q_VSA_POS>
276.7442

>  <Q_VSA_PPOS>
0

>  <radius>
5

>  <reactive>
0

>  <rings>
1

>  <RPC+>
0

>  <RPC->
0

>  <rsynth>
1

>  <SlogP>
3.6130199

>  <SlogP_VSA0>
6.9216304

>  <SlogP_VSA1>
0

>  <SlogP_VSA2>
56.537235

>  <SlogP_VSA3>
0

>  <SlogP_VSA4>
3.185575

>  <SlogP_VSA5>
104.00964

>  <SlogP_VSA6>
0

>  <SlogP_VSA7>
52.929554

>  <SlogP_VSA8>
0

>  <SlogP_VSA9>
83.716118

>  <SMR>
7.1891999

>  <SMR_VSA0>
13.843261

>  <SMR_VSA1>
6.9216304

>  <SMR_VSA2>
1.5507339

>  <SMR_VSA3>
8.4290028

>  <SMR_VSA4>
0

>  <SMR_VSA5>
52.929554

>  <SMR_VSA6>
0

>  <SMR_VSA7>
223.62558

>  <TPSA>
59.779999

>  <VAdjEq>
0.54356444

>  <VAdjMa>
5

>  <VDistEq>
2.9473886

>  <VDistMa>
7.6910062

>  <vdw_area>
276.7442

>  <vdw_vol>
285.90869

>  <vsa_acc>
13.997915

>  <vsa_acid>
0

>  <vsa_base>
0

>  <vsa_don>
0

>  <vsa_hyd>
214.14758

>  <vsa_other>
48.598694

>  <vsa_pol>
13.997915

>  <Weight>
278.33301

>  <weinerPath>
457

>  <weinerPol>
23

>  <zagreb>
76

$$$$
NC(N(N=C2C#N)C1=C(Cl)C=C(C(F)(F)F)C=C1Cl)=C2S(C(F)(F)F)=O
  MOE2011           2D

 26 27  0  0  1  0  0  0  0  0999 V2000
    0.0000    0.0000    0.0000 N   0  0  0  0  0  0  0  0  0  0  0  0
   -0.2190   -1.4840    0.0000 C   0  0  0  0  0  0  0  0  0  0  0  0
    0.8530   -2.5330    0.0000 N   0  0  0  0  0  0  0  0  0  0  0  0
    0.1860   -3.8770    0.0000 N   0  0  0  0  0  0  0  0  0  0  0  0
   -1.2980   -3.6580    0.0000 C   0  0  0  0  0  0  0  0  0  0  0  0
   -2.3470   -4.7300    0.0000 C   0  0  0  0  0  0  0  0  0  0  0  0
   -3.3970   -5.8020    0.0000 N   0  0  0  0  0  0  0  0  0  0  0  0
    2.3320   -2.2830    0.0000 C   0  0  0  0  0  0  0  0  0  0  0  0
    2.8550   -0.8770    0.0000 C   0  0  0  0  0  0  0  0  0  0  0  0
    1.8980    0.2790    0.0000 Cl  0  0  0  0  0  0  0  0  0  0  0  0
    4.3330   -0.6270    0.0000 C   0  0  0  0  0  0  0  0  0  0  0  0
    5.2900   -1.7820    0.0000 C   0  0  0  0  0  0  0  0  0  0  0  0
    6.7690   -1.5320    0.0000 C   0  0  0  0  0  0  0  0  0  0  0  0
    8.2480   -1.2820    0.0000 F   0  0  0  0  0  0  0  0  0  0  0  0
    7.0190   -3.0110    0.0000 F   0  0  0  0  0  0  0  0  0  0  0  0
    6.5180   -0.0530    0.0000 F   0  0  0  0  0  0  0  0  0  0  0  0
    4.7670   -3.1880    0.0000 C   0  0  0  0  0  0  0  0  0  0  0  0
    3.2880   -3.4390    0.0000 C   0  0  0  0  0  0  0  0  0  0  0  0
    2.7650   -4.8450    0.0000 Cl  0  0  0  0  0  0  0  0  0  0  0  0
   -1.5480   -2.1790    0.0000 C   0  0  0  0  0  0  0  0  0  0  0  0
   -2.8920   -1.5120    0.0000 S   0  0  3  0  0  0  0  0  0  0  0  0
   -2.9860   -0.0150    0.0000 C   0  0  0  0  0  0  0  0  0  0  0  0
   -1.4890    0.0790    0.0000 F   0  0  0  0  0  0  0  0  0  0  0  0
   -3.0810    1.4820    0.0000 F   0  0  0  0  0  0  0  0  0  0  0  0
   -4.4830   -0.1100    0.0000 F   0  0  0  0  0  0  0  0  0  0  0  0
   -4.1410   -2.3420    0.0000 O   0  0  0  0  0  0  0  0  0  0  0  0
  1  2  1  0  0  0  0
  2  3  1  0  0  0  0
  2 20  2  0  0  0  0
  3  4  1  0  0  0  0
  3  8  1  0  0  0  0
  4  5  2  0  0  0  0
  5  6  1  0  0  0  0
  5 20  1  0  0  0  0
  6  7  3  0  0  0  0
  8  9  1  0  0  0  0
  8 18  2  0  0  0  0
  9 10  1  0  0  0  0
  9 11  2  0  0  0  0
 11 12  1  0  0  0  0
 12 13  1  0  0  0  0
 12 17  2  0  0  0  0
 13 14  1  0  0  0  0
 13 15  1  0  0  0  0
 13 16  1  0  0  0  0
 17 18  1  0  0  0  0
 18 19  1  0  0  0  0
 20 21  1  0  0  0  0
 21 22  1  0  0  0  0
 21 26  2  0  0  0  0
 22 23  1  0  0  0  0
 22 24  1  0  0  0  0
 22 25  1  0  0  0  0
M  END
>  <DSSTox_RID>
40466

>  <DSSTox_CID>
14609

>  <apol>
39.591171

>  <a_acc>
3

>  <a_acid>
0

>  <a_aro>
11

>  <a_base>
0

>  <a_count>
30

>  <a_don>
1

>  <a_heavy>
26

>  <a_hyd>
18

>  <a_IC>
70.677391

>  <a_ICM>
2.3559132

>  <a_nB>
0

>  <a_nBr>
0

>  <a_nC>
12

>  <a_nCl>
2

>  <a_nF>
6

>  <a_nH>
4

>  <a_nI>
0

>  <a_nN>
4

>  <a_nO>
1

>  <a_nP>
0

>  <a_nS>
1

>  <balabanJ>
2.215404

>  <BCUT_PEOE_0>
-2.2187047

>  <BCUT_PEOE_1>
-0.59853941

>  <BCUT_PEOE_2>
0.42075756

>  <BCUT_PEOE_3>
2.4976299

>  <BCUT_SLOGP_0>
-2.3647211

>  <BCUT_SLOGP_1>
-0.38165626

>  <BCUT_SLOGP_2>
0.68647552

>  <BCUT_SLOGP_3>
2.4915161

>  <BCUT_SMR_0>
-1.9766041

>  <BCUT_SMR_1>
-0.25925931

>  <BCUT_SMR_2>
0.77997059

>  <BCUT_SMR_3>
2.6881258

>  <bpol>
18.788828

>  <b_1rotN>
2

>  <b_1rotR>
0.074074075

>  <b_ar>
11

>  <b_count>
31

>  <b_double>
0

>  <b_heavy>
27

>  <b_rotN>
5

>  <b_rotR>
0.18518518

>  <b_single>
19

>  <b_triple>
1

>  <chi0>
20.02458

>  <chi0v>
14.242258

>  <chi0v_C>
6.1547008

>  <chi0_C>
7.1627722

>  <chi1>
11.784929

>  <chi1v>
8.0303345

>  <chi1v_C>
2.6547005

>  <chi1_C>
3.66325

>  <chiral>
0

>  <chiral_u>
0

>  <density>
1.1843762

>  <diameter>
11

>  <FCharge>
0

>  <GCUT_PEOE_0>
-0.82611436

>  <GCUT_PEOE_1>
-0.40872979

>  <GCUT_PEOE_2>
-0.0096898172

>  <GCUT_PEOE_3>
2.4076376

>  <GCUT_SLOGP_0>
-1.3349303

>  <GCUT_SLOGP_1>
-0.25199625

>  <GCUT_SLOGP_2>
0.293955

>  <GCUT_SLOGP_3>
2.5033731

>  <GCUT_SMR_0>
-0.46450934

>  <GCUT_SMR_1>
-0.1060171

>  <GCUT_SMR_2>
0.33111015

>  <GCUT_SMR_3>
2.6794741

>  <Kier1>
22.29081

>  <Kier2>
7.7879934

>  <Kier3>
4.54321

>  <KierA1>
19.507622

>  <KierA2>
6.7774439

>  <KierA3>
3.9378538

>  <KierFlex>
5.0850697

>  <lip_acc>
5

>  <lip_don>
2

>  <lip_druglike>
1

>  <lip_violation>
0

>  <logP(o/w)>
3.1235199

>  <logS>
-6.0290298

>  <mr>
8.1590452

>  <mutagenic>
1

>  <nmol>
1

>  <opr_brigid>
11

>  <opr_leadlike>
1

>  <opr_nring>
2

>  <opr_nrot>
3

>  <opr_violation>
1

>  <PC+>
0

>  <PC->
0

>  <PEOE_PC+>
2.2563117

>  <PEOE_PC->
-2.2563117

>  <PEOE_RPC+>
0.2577208

>  <PEOE_RPC->
0.2687501

>  <PEOE_VSA+0>
31.616989

>  <PEOE_VSA+1>
11.248033

>  <PEOE_VSA+2>
40.135765

>  <PEOE_VSA+3>
0

>  <PEOE_VSA+4>
22.074715

>  <PEOE_VSA+5>
0

>  <PEOE_VSA+6>
20.067066

>  <PEOE_VSA-0>
0

>  <PEOE_VSA-1>
76.90638

>  <PEOE_VSA-2>
45.146946

>  <PEOE_VSA-3>
53.468395

>  <PEOE_VSA-4>
0

>  <PEOE_VSA-5>
0

>  <PEOE_VSA-6>
16.008261

>  <PEOE_VSA_FHYD>
0.81637168

>  <PEOE_VSA_FNEG>
0.60482031

>  <PEOE_VSA_FPNEG>
0.050551467

>  <PEOE_VSA_FPOL>
0.18362829

>  <PEOE_VSA_FPOS>
0.39517972

>  <PEOE_VSA_FPPOS>
0.13307683

>  <PEOE_VSA_HYD>
258.52252

>  <PEOE_VSA_NEG>
191.52998

>  <PEOE_VSA_PNEG>
16.008261

>  <PEOE_VSA_POL>
58.150043

>  <PEOE_VSA_POS>
125.14257

>  <PEOE_VSA_PPOS>
42.141781

>  <petitjean>
0.45454547

>  <petitjeanSC>
0.83333331

>  <Q_PC+>
0

>  <Q_PC->
0

>  <Q_RPC+>
0

>  <Q_RPC->
0

>  <Q_VSA_FHYD>
1

>  <Q_VSA_FNEG>
0

>  <Q_VSA_FPNEG>
0

>  <Q_VSA_FPOL>
0

>  <Q_VSA_FPOS>
1

>  <Q_VSA_FPPOS>
0

>  <Q_VSA_HYD>
316.67255

>  <Q_VSA_NEG>
0

>  <Q_VSA_PNEG>
0

>  <Q_VSA_POL>
0

>  <Q_VSA_POS>
316.67255

>  <Q_VSA_PPOS>
0

>  <radius>
6

>  <reactive>
0

>  <rings>
2

>  <RPC+>
0

>  <RPC->
0

>  <rsynth>
1

>  <SlogP>
4.5906839

>  <SlogP_VSA0>
32.897186

>  <SlogP_VSA1>
48.650097

>  <SlogP_VSA2>
19.549404

>  <SlogP_VSA3>
47.661102

>  <SlogP_VSA4>
5.9423227

>  <SlogP_VSA5>
1.5507339

>  <SlogP_VSA6>
14.760729

>  <SlogP_VSA7>
38.043118

>  <SlogP_VSA8>
0

>  <SlogP_VSA9>
170.38589

>  <SMR>
8.0293798

>  <SMR_VSA0>
24.085844

>  <SMR_VSA1>
139.25961

>  <SMR_VSA2>
15.434925

>  <SMR_VSA3>
29.545282

>  <SMR_VSA4>
5.0846677

>  <SMR_VSA5>
68.183556

>  <SMR_VSA6>
0

>  <SMR_VSA7>
97.846695

>  <TPSA>
103.91

>  <VAdjEq>
0.40176207

>  <VAdjMa>
5.7548876

>  <VDistEq>
3.288259

>  <VDistMa>
9.1281824

>  <vdw_area>
316.67255

>  <vdw_vol>
365.69376

>  <vsa_acc>
43.171791

>  <vsa_acid>
0

>  <vsa_base>
0

>  <vsa_don>
17.742489

>  <vsa_hyd>
211.1315

>  <vsa_other>
44.626778

>  <vsa_pol>
60.91428

>  <Weight>
437.151

>  <weinerPath>
1575

>  <weinerPol>
46

>  <zagreb>
140

$$$$
O=C(OCCCC)C(C)OC(C=C2)=CC=C2OC1=NC=C(C=C1)C(F)(F)F
  MOE2011           2D

 27 28  0  0  1  0  0  0  0  0999 V2000
    0.0000    0.0000    0.0000 O   0  0  0  0  0  0  0  0  0  0  0  0
   -0.7400    1.3050    0.0000 C   0  0  0  0  0  0  0  0  0  0  0  0
    0.0200    2.5980    0.0000 O   0  0  0  0  0  0  0  0  0  0  0  0
    1.5200    2.5870    0.0000 C   0  0  0  0  0  0  0  0  0  0  0  0
    2.2800    3.8800    0.0000 C   0  0  0  0  0  0  0  0  0  0  0  0
    3.7800    3.8680    0.0000 C   0  0  0  0  0  0  0  0  0  0  0  0
    4.5400    5.1620    0.0000 C   0  0  0  0  0  0  0  0  0  0  0  0
   -2.2400    1.3160    0.0000 C   0  0  3  0  0  0  0  0  0  0  0  0
   -2.9800    2.6210    0.0000 C   0  0  0  0  0  0  0  0  0  0  0  0
   -3.0000    0.0230    0.0000 O   0  0  0  0  0  0  0  0  0  0  0  0
   -4.5000    0.0340    0.0000 C   0  0  0  0  0  0  0  0  0  0  0  0
   -5.2400    1.3390    0.0000 C   0  0  0  0  0  0  0  0  0  0  0  0
   -6.7400    1.3510    0.0000 C   0  0  0  0  0  0  0  0  0  0  0  0
   -5.2600   -1.2590    0.0000 C   0  0  0  0  0  0  0  0  0  0  0  0
   -6.7600   -1.2470    0.0000 C   0  0  0  0  0  0  0  0  0  0  0  0
   -7.5000    0.0570    0.0000 C   0  0  0  0  0  0  0  0  0  0  0  0
   -9.0000    0.0690    0.0000 O   0  0  0  0  0  0  0  0  0  0  0  0
   -9.7600   -1.2250    0.0000 C   0  0  0  0  0  0  0  0  0  0  0  0
   -9.0200   -2.5290    0.0000 N   0  0  0  0  0  0  0  0  0  0  0  0
   -9.7790   -3.8230    0.0000 C   0  0  0  0  0  0  0  0  0  0  0  0
  -11.2790   -3.8110    0.0000 C   0  0  0  0  0  0  0  0  0  0  0  0
  -12.0190   -2.5060    0.0000 C   0  0  0  0  0  0  0  0  0  0  0  0
  -11.2600   -1.2130    0.0000 C   0  0  0  0  0  0  0  0  0  0  0  0
  -12.0390   -5.1040    0.0000 C   0  0  0  0  0  0  0  0  0  0  0  0
  -10.7460   -5.8640    0.0000 F   0  0  0  0  0  0  0  0  0  0  0  0
  -13.3330   -4.3440    0.0000 F   0  0  0  0  0  0  0  0  0  0  0  0
  -12.7990   -6.3980    0.0000 F   0  0  0  0  0  0  0  0  0  0  0  0
  1  2  2  0  0  0  0
  2  3  1  0  0  0  0
  2  8  1  0  0  0  0
  3  4  1  0  0  0  0
  4  5  1  0  0  0  0
  5  6  1  0  0  0  0
  6  7  1  0  0  0  0
  8  9  1  0  0  0  0
  8 10  1  0  0  0  0
 10 11  1  0  0  0  0
 11 12  2  0  0  0  0
 11 14  1  0  0  0  0
 12 13  1  0  0  0  0
 13 16  2  0  0  0  0
 14 15  2  0  0  0  0
 15 16  1  0  0  0  0
 16 17  1  0  0  0  0
 17 18  1  0  0  0  0
 18 19  1  0  0  0  0
 18 23  2  0  0  0  0
 19 20  2  0  0  0  0
 20 21  1  0  0  0  0
 21 22  2  0  0  0  0
 21 24  1  0  0  0  0
 22 23  1  0  0  0  0
 24 25  1  0  0  0  0
 24 26  1  0  0  0  0
 24 27  1  0  0  0  0
M  END
>  <DSSTox_RID>
40573

>  <DSSTox_CID>
14612

>  <apol>
52.75486

>  <a_acc>
3

>  <a_acid>
0

>  <a_aro>
12

>  <a_base>
0

>  <a_count>
47

>  <a_don>
0

>  <a_heavy>
27

>  <a_hyd>
20

>  <a_IC>
81.161606

>  <a_ICM>
1.7268426

>  <a_nB>
0

>  <a_nBr>
0

>  <a_nC>
19

>  <a_nCl>
0

>  <a_nF>
3

>  <a_nH>
20

>  <a_nI>
0

>  <a_nN>
1

>  <a_nO>
4

>  <a_nP>
0

>  <a_nS>
0

>  <balabanJ>
1.6175575

>  <BCUT_PEOE_0>
-2.5735576

>  <BCUT_PEOE_1>
-0.5552038

>  <BCUT_PEOE_2>
0.57909685

>  <BCUT_PEOE_3>
2.5514426

>  <BCUT_SLOGP_0>
-2.5653262

>  <BCUT_SLOGP_1>
-0.47404975

>  <BCUT_SLOGP_2>
0.63494802

>  <BCUT_SLOGP_3>
2.6392949

>  <BCUT_SMR_0>
-2.3381393

>  <BCUT_SMR_1>
-0.40327662

>  <BCUT_SMR_2>
0.74917656

>  <BCUT_SMR_3>
2.7817895

>  <bpol>
33.499142

>  <b_1rotN>
8

>  <b_1rotR>
0.2857143

>  <b_ar>
12

>  <b_count>
48

>  <b_double>
1

>  <b_heavy>
28

>  <b_rotN>
10

>  <b_rotR>
0.35714287

>  <b_single>
35

>  <b_triple>
0

>  <chi0>
19.863596

>  <chi0v>
14.954223

>  <chi0v_C>
11.740123

>  <chi0_C>
13.03517

>  <chi1>
12.791043

>  <chi1v>
8.4376087

>  <chi1v_C>
5.8438582

>  <chi1_C>
7.2642035

>  <chiral>
1

>  <chiral_u>
1

>  <density>
0.87778759

>  <diameter>
18

>  <FCharge>
0

>  <GCUT_PEOE_0>
-0.78567964

>  <GCUT_PEOE_1>
-0.37378266

>  <GCUT_PEOE_2>
0.017955482

>  <GCUT_PEOE_3>
2.4425123

>  <GCUT_SLOGP_0>
-0.93333286

>  <GCUT_SLOGP_1>
-0.29352781

>  <GCUT_SLOGP_2>
0.16404228

>  <GCUT_SLOGP_3>
2.5504222

>  <GCUT_SMR_0>
-0.52898133

>  <GCUT_SMR_1>
-0.19973308

>  <GCUT_SMR_2>
0.15529843

>  <GCUT_SMR_3>
2.6879709

>  <Kier1>
23.280613

>  <Kier2>
11.253463

>  <Kier3>
8.0995131

>  <KierA1>
18.194662

>  <KierA2>
8.7060471

>  <KierA3>
6.2188387

>  <KierFlex>
5.8667994

>  <lip_acc>
5

>  <lip_don>
0

>  <lip_druglike>
1

>  <lip_violation>
1

>  <logP(o/w)>
4.9584999

>  <logS>
-5.1072202

>  <mr>
9.5840759

>  <mutagenic>
0

>  <nmol>
1

>  <opr_brigid>
12

>  <opr_leadlike>
1

>  <opr_nring>
2

>  <opr_nrot>
8

>  <opr_violation>
1

>  <PC+>
0

>  <PC->
0

>  <PEOE_PC+>
1.8907878

>  <PEOE_PC->
-1.8907878

>  <PEOE_RPC+>
0.22214141

>  <PEOE_RPC->
0.17074148

>  <PEOE_VSA+0>
185.28485

>  <PEOE_VSA+1>
10.667059

>  <PEOE_VSA+2>
28.758026

>  <PEOE_VSA+3>
35.008007

>  <PEOE_VSA+4>
8.458519

>  <PEOE_VSA+5>
14.708499

>  <PEOE_VSA+6>
9.0455017

>  <PEOE_VSA-0>
0

>  <PEOE_VSA-1>
0

>  <PEOE_VSA-2>
0

>  <PEOE_VSA-3>
35.725906

>  <PEOE_VSA-4>
5.6825762

>  <PEOE_VSA-5>
18.574432

>  <PEOE_VSA-6>
2.503756

>  <PEOE_VSA_FHYD>
0.83360487

>  <PEOE_VSA_FNEG>
0.17630827

>  <PEOE_VSA_FPNEG>
0.075506411

>  <PEOE_VSA_FPOL>
0.16639513

>  <PEOE_VSA_FPOS>
0.82369173

>  <PEOE_VSA_FPPOS>
0.090888724

>  <PEOE_VSA_HYD>
295.44385

>  <PEOE_VSA_NEG>
62.486671

>  <PEOE_VSA_PNEG>
26.760765

>  <PEOE_VSA_POL>
58.973286

>  <PEOE_VSA_POS>
291.93048

>  <PEOE_VSA_PPOS>
32.212521

>  <petitjean>
0.5

>  <petitjeanSC>
1

>  <Q_PC+>
0

>  <Q_PC->
0

>  <Q_RPC+>
0

>  <Q_RPC->
0

>  <Q_VSA_FHYD>
1

>  <Q_VSA_FNEG>
0

>  <Q_VSA_FPNEG>
0

>  <Q_VSA_FPOL>
0

>  <Q_VSA_FPOS>
1

>  <Q_VSA_FPPOS>
0

>  <Q_VSA_HYD>
354.41714

>  <Q_VSA_NEG>
0

>  <Q_VSA_PNEG>
0

>  <Q_VSA_POL>
0

>  <Q_VSA_POS>
354.41714

>  <Q_VSA_PPOS>
0

>  <radius>
9

>  <reactive>
0

>  <rings>
2

>  <RPC+>
0

>  <RPC->
0

>  <rsynth>
1

>  <SlogP>
5.3147998

>  <SlogP_VSA0>
21.999775

>  <SlogP_VSA1>
24.530994

>  <SlogP_VSA2>
41.330753

>  <SlogP_VSA3>
20.926258

>  <SlogP_VSA4>
3.185575

>  <SlogP_VSA5>
0

>  <SlogP_VSA6>
7.7595162

>  <SlogP_VSA7>
123.07346

>  <SlogP_VSA8>
37.736813

>  <SlogP_VSA9>
126.83382

>  <SMR>
9.1829004

>  <SMR_VSA0>
34.862103

>  <SMR_VSA1>
83.665642

>  <SMR_VSA2>
7.7595162

>  <SMR_VSA3>
24.955681

>  <SMR_VSA4>
0

>  <SMR_VSA5>
160.81027

>  <SMR_VSA6>
28.671722

>  <SMR_VSA7>
66.652031

>  <TPSA>
57.650002

>  <VAdjEq>
0.39086518

>  <VAdjMa>
5.8073549

>  <VDistEq>
3.9235232

>  <VDistMa>
9.1541262

>  <vdw_area>
354.41714

>  <vdw_vol>
413.77435

>  <vsa_acc>
21.753254

>  <vsa_acid>
0

>  <vsa_base>
0

>  <vsa_don>
0

>  <vsa_hyd>
299.99835

>  <vsa_other>
32.665543

>  <vsa_pol>
21.753254

>  <Weight>
383.366

>  <weinerPath>
2356

>  <weinerPol>
37

>  <zagreb>
132

$$$$
ClC1=C(NC2=C([N+]([O-])=O)C(Cl)=C(C(F)(F)F)C=C2[N+]([O-])=O)N=CC(C(F)(F)F)=C1
  MOE2011           2D

 29 30  0  0  0  0  0  0  0  0999 V2000
    0.0000    0.0000    0.0000 Cl  0  0  0  0  0  0  0  0  0  0  0  0
    0.7400    1.3050    0.0000 C   0  0  0  0  0  0  0  0  0  0  0  0
   -0.0190    2.5980    0.0000 C   0  0  0  0  0  0  0  0  0  0  0  0
   -1.5190    2.5870    0.0000 N   0  0  0  0  0  0  0  0  0  0  0  0
   -2.2790    3.8800    0.0000 C   0  0  0  0  0  0  0  0  0  0  0  0
   -3.6840    3.3570    0.0000 C   0  0  0  0  0  0  0  0  0  0  0  0
   -3.9340    1.8780    0.0000 N   0  3  0  0  0  0  0  0  0  0  0  0
   -2.7780    0.9220    0.0000 O   0  5  0  0  0  0  0  0  0  0  0  0
   -5.3400    1.3550    0.0000 O   0  0  0  0  0  0  0  0  0  0  0  0
   -4.8400    4.3130    0.0000 C   0  0  0  0  0  0  0  0  0  0  0  0
   -6.2460    3.7890    0.0000 Cl  0  0  0  0  0  0  0  0  0  0  0  0
   -4.5910    5.7920    0.0000 C   0  0  0  0  0  0  0  0  0  0  0  0
   -5.7470    6.7480    0.0000 C   0  0  0  0  0  0  0  0  0  0  0  0
   -4.7910    7.9040    0.0000 F   0  0  0  0  0  0  0  0  0  0  0  0
   -6.7030    5.5920    0.0000 F   0  0  0  0  0  0  0  0  0  0  0  0
   -6.9030    7.7030    0.0000 F   0  0  0  0  0  0  0  0  0  0  0  0
   -3.1850    6.3150    0.0000 C   0  0  0  0  0  0  0  0  0  0  0  0
   -2.0290    5.3600    0.0000 C   0  0  0  0  0  0  0  0  0  0  0  0
   -0.6230    5.8830    0.0000 N   0  3  0  0  0  0  0  0  0  0  0  0
    0.5330    4.9270    0.0000 O   0  5  0  0  0  0  0  0  0  0  0  0
   -0.3740    7.3620    0.0000 O   0  0  0  0  0  0  0  0  0  0  0  0
    0.7210    3.9030    0.0000 N   0  0  0  0  0  0  0  0  0  0  0  0
    2.2210    3.9140    0.0000 C   0  0  0  0  0  0  0  0  0  0  0  0
    2.9810    2.6200    0.0000 C   0  0  0  0  0  0  0  0  0  0  0  0
    4.4810    2.6310    0.0000 C   0  0  0  0  0  0  0  0  0  0  0  0
    4.4700    4.1310    0.0000 F   0  0  0  0  0  0  0  0  0  0  0  0
    5.9810    2.6420    0.0000 F   0  0  0  0  0  0  0  0  0  0  0  0
    4.4920    1.1310    0.0000 F   0  0  0  0  0  0  0  0  0  0  0  0
    2.2400    1.3160    0.0000 C   0  0  0  0  0  0  0  0  0  0  0  0
  1  2  1  0  0  0  0
  2  3  1  0  0  0  0
  2 29  2  0  0  0  0
  3  4  1  0  0  0  0
  3 22  2  0  0  0  0
  4  5  1  0  0  0  0
  5  6  1  0  0  0  0
  5 18  2  0  0  0  0
  6  7  1  0  0  0  0
  6 10  2  0  0  0  0
  7  8  1  0  0  0  0
  7  9  2  0  0  0  0
 10 11  1  0  0  0  0
 10 12  1  0  0  0  0
 12 13  1  0  0  0  0
 12 17  2  0  0  0  0
 13 14  1  0  0  0  0
 13 15  1  0  0  0  0
 13 16  1  0  0  0  0
 17 18  1  0  0  0  0
 18 19  1  0  0  0  0
 19 20  1  0  0  0  0
 19 21  2  0  0  0  0
 22 23  1  0  0  0  0
 23 24  2  0  0  0  0
 24 25  1  0  0  0  0
 24 29  1  0  0  0  0
 25 26  1  0  0  0  0
 25 27  1  0  0  0  0
 25 28  1  0  0  0  0
M  CHG  1   7   1
M  CHG  1   8  -1
M  CHG  1  19   1
M  CHG  1  20  -1
M  END
>  <DSSTox_RID>
40468

>  <DSSTox_CID>
12551

>  <apol>
40.85717

>  <a_acc>
1

>  <a_acid>
0

>  <a_aro>
12

>  <a_base>
0

>  <a_count>
33

>  <a_don>
1

>  <a_heavy>
29

>  <a_hyd>
22

>  <a_IC>
76.849518

>  <a_ICM>
2.3287733

>  <a_nB>
0

>  <a_nBr>
0

>  <a_nC>
13

>  <a_nCl>
2

>  <a_nF>
6

>  <a_nH>
4

>  <a_nI>
0

>  <a_nN>
4

>  <a_nO>
4

>  <a_nP>
0

>  <a_nS>
0

>  <balabanJ>
2.2468717

>  <BCUT_PEOE_0>
-2.2336364

>  <BCUT_PEOE_1>
-0.41236839

>  <BCUT_PEOE_2>
0.43735129

>  <BCUT_PEOE_3>
2.4458873

>  <BCUT_SLOGP_0>
-2.189044

>  <BCUT_SLOGP_1>
-0.24935995

>  <BCUT_SLOGP_2>
0.64426482

>  <BCUT_SLOGP_3>
2.5475569

>  <BCUT_SMR_0>
-2.0108428

>  <BCUT_SMR_1>
-0.14305618

>  <BCUT_SMR_2>
0.71295166

>  <BCUT_SMR_3>
2.6344302

>  <bpol>
16.922829

>  <b_1rotN>
4

>  <b_1rotR>
0.13333334

>  <b_ar>
12

>  <b_count>
34

>  <b_double>
2

>  <b_heavy>
30

>  <b_rotN>
6

>  <b_rotR>
0.2

>  <b_single>
20

>  <b_triple>
0

>  <chi0>
22.309036

>  <chi0v>
14.742258

>  <chi0v_C>
6.7320509

>  <chi0_C>
7.7401223

>  <chi1>
13.140772

>  <chi1v>
7.6204786

>  <chi1v_C>
3.1933756

>  <chi1_C>
4.2852583

>  <chiral>
0

>  <chiral_u>
0

>  <density>
1.1952443

>  <diameter>
12

>  <FCharge>
0

>  <GCUT_PEOE_0>
-0.75186557

>  <GCUT_PEOE_1>
-0.41825923

>  <GCUT_PEOE_2>
-0.011956841

>  <GCUT_PEOE_3>
2.4728405

>  <GCUT_SLOGP_0>
-0.89529765

>  <GCUT_SLOGP_1>
-0.14951234

>  <GCUT_SLOGP_2>
0.28917518

>  <GCUT_SLOGP_3>
2.608402

>  <GCUT_SMR_0>
-0.49522579

>  <GCUT_SMR_1>
-0.098855823

>  <GCUT_SMR_2>
0.28317776

>  <GCUT_SMR_3>
2.7054346

>  <Kier1>
25.262222

>  <Kier2>
9.2403803

>  <Kier3>
5.8257928

>  <KierA1>
20.532543

>  <KierA2>
7.4515104

>  <KierA3>
4.6707821

>  <KierFlex>
5.2758088

>  <lip_acc>
8

>  <lip_don>
1

>  <lip_druglike>
1

>  <lip_violation>
1

>  <logP(o/w)>
5.4475198

>  <logS>
-7.2204599

>  <mr>
8.3620806

>  <mutagenic>
0

>  <nmol>
1

>  <opr_brigid>
12

>  <opr_leadlike>
0

>  <opr_nring>
2

>  <opr_nrot>
4

>  <opr_violation>
2

>  <PC+>
0

>  <PC->
0

>  <PEOE_PC+>
2.5503004

>  <PEOE_PC->
-2.5503004

>  <PEOE_RPC+>
0.16470522

>  <PEOE_RPC->
0.10126973

>  <PEOE_VSA+0>
15.808495

>  <PEOE_VSA+1>
32.801388

>  <PEOE_VSA+2>
36.009815

>  <PEOE_VSA+3>
6.6995511

>  <PEOE_VSA+4>
0

>  <PEOE_VSA+5>
0

>  <PEOE_VSA+6>
31.490107

>  <PEOE_VSA-0>
0

>  <PEOE_VSA-1>
59.163895

>  <PEOE_VSA-2>
5.6825762

>  <PEOE_VSA-3>
71.451813

>  <PEOE_VSA-4>
5.6825762

>  <PEOE_VSA-5>
67.862099

>  <PEOE_VSA-6>
0

>  <PEOE_VSA_FHYD>
0.68425059

>  <PEOE_VSA_FNEG>
0.63081765

>  <PEOE_VSA_FPNEG>
0.22108571

>  <PEOE_VSA_FPOL>
0.31574944

>  <PEOE_VSA_FPOS>
0.36918232

>  <PEOE_VSA_FPPOS>
0.094663724

>  <PEOE_VSA_HYD>
227.61754

>  <PEOE_VSA_NEG>
209.84296

>  <PEOE_VSA_PNEG>
73.54467

>  <PEOE_VSA_POL>
105.03478

>  <PEOE_VSA_POS>
122.80936

>  <PEOE_VSA_PPOS>
31.490107

>  <petitjean>
0.5

>  <petitjeanSC>
1

>  <Q_PC+>
0

>  <Q_PC->
0

>  <Q_RPC+>
0

>  <Q_RPC->
0

>  <Q_VSA_FHYD>
1

>  <Q_VSA_FNEG>
0

>  <Q_VSA_FPNEG>
0

>  <Q_VSA_FPOL>
0

>  <Q_VSA_FPOS>
1

>  <Q_VSA_FPPOS>
0

>  <Q_VSA_HYD>
332.65231

>  <Q_VSA_NEG>
0

>  <Q_VSA_PNEG>
0

>  <Q_VSA_POL>
0

>  <Q_VSA_POS>
332.65231

>  <Q_VSA_PPOS>
0

>  <radius>
6

>  <reactive>
0

>  <rings>
2

>  <RPC+>
0

>  <RPC->
0

>  <rsynth>
1

>  <SlogP>
6.6090002

>  <SlogP_VSA0>
0

>  <SlogP_VSA1>
48.967514

>  <SlogP_VSA2>
0

>  <SlogP_VSA3>
101.87002

>  <SlogP_VSA4>
6.37115

>  <SlogP_VSA5>
0

>  <SlogP_VSA6>
22.520245

>  <SlogP_VSA7>
52.500725

>  <SlogP_VSA8>
0

>  <SlogP_VSA9>
178.65613

>  <SMR>
8.7528496

>  <SMR_VSA0>
14.171232

>  <SMR_VSA1>
106.54621

>  <SMR_VSA2>
117.38905

>  <SMR_VSA3>
13.372363

>  <SMR_VSA4>
28.608913

>  <SMR_VSA5>
52.500725

>  <SMR_VSA6>
0

>  <SMR_VSA7>
78.297287

>  <TPSA>
116.56

>  <VAdjEq>
0.37091795

>  <VAdjMa>
5.9068904

>  <VDistEq>
3.3951108

>  <VDistMa>
9.4513435

>  <vdw_area>
332.65231

>  <vdw_vol>
385.74622

>  <vsa_acc>
5.6825762

>  <vsa_acid>
0

>  <vsa_base>
0

>  <vsa_don>
5.6825762

>  <vsa_hyd>
242.2345

>  <vsa_other>
79.052658

>  <vsa_pol>
11.365152

>  <Weight>
465.09299

>  <weinerPath>
2126

>  <weinerPol>
51

>  <zagreb>
154

$$$$
FC3(F)OC(C(O3)=CC=C2)=C2C1=CNC=C1C#N
  MOE2011           2D

 18 20  0  0  0  0  0  0  0  0999 V2000
    0.0000    0.0000    0.0000 F   0  0  0  0  0  0  0  0  0  0  0  0
   -0.5080    1.4110    0.0000 C   0  0  0  0  0  0  0  0  0  0  0  0
    0.9800    1.2230    0.0000 F   0  0  0  0  0  0  0  0  0  0  0  0
   -1.9550    1.0160    0.0000 O   0  0  0  0  0  0  0  0  0  0  0  0
   -2.7780    2.2700    0.0000 C   0  0  0  0  0  0  0  0  0  0  0  0
   -1.8400    3.4400    0.0000 C   0  0  0  0  0  0  0  0  0  0  0  0
   -0.4370    2.9100    0.0000 O   0  0  0  0  0  0  0  0  0  0  0  0
   -2.3850    4.8380    0.0000 C   0  0  0  0  0  0  0  0  0  0  0  0
   -3.8680    5.0650    0.0000 C   0  0  0  0  0  0  0  0  0  0  0  0
   -4.8060    3.8940    0.0000 C   0  0  0  0  0  0  0  0  0  0  0  0
   -4.2610    2.4970    0.0000 C   0  0  0  0  0  0  0  0  0  0  0  0
   -5.1990    1.3260    0.0000 C   0  0  0  0  0  0  0  0  0  0  0  0
   -4.8030   -0.1210    0.0000 C   0  0  0  0  0  0  0  0  0  0  0  0
   -6.0570   -0.9440    0.0000 N   0  0  0  0  0  0  0  0  0  0  0  0
   -7.2280   -0.0060    0.0000 C   0  0  0  0  0  0  0  0  0  0  0  0
   -6.6970    1.3970    0.0000 C   0  0  0  0  0  0  0  0  0  0  0  0
   -7.5210    2.6510    0.0000 C   0  0  0  0  0  0  0  0  0  0  0  0
   -8.3440    3.9040    0.0000 N   0  0  0  0  0  0  0  0  0  0  0  0
  1  2  1  0  0  0  0
  2  3  1  0  0  0  0
  2  4  1  0  0  0  0
  2  7  1  0  0  0  0
  4  5  1  0  0  0  0
  5  6  1  0  0  0  0
  5 11  2  0  0  0  0
  6  7  1  0  0  0  0
  6  8  2  0  0  0  0
  8  9  1  0  0  0  0
  9 10  2  0  0  0  0
 10 11  1  0  0  0  0
 11 12  1  0  0  0  0
 12 13  2  0  0  0  0
 12 16  1  0  0  0  0
 13 14  1  0  0  0  0
 14 15  1  0  0  0  0
 15 16  2  0  0  0  0
 16 17  1  0  0  0  0
 17 18  3  0  0  0  0
M  END
>  <DSSTox_RID>
40470

>  <DSSTox_CID>
12398

>  <apol>
30.038757

>  <a_acc>
3

>  <a_acid>
0

>  <a_aro>
11

>  <a_base>
0

>  <a_count>
24

>  <a_don>
1

>  <a_heavy>
18

>  <a_hyd>
12

>  <a_IC>
45.509773

>  <a_ICM>
1.8962406

>  <a_nB>
0

>  <a_nBr>
0

>  <a_nC>
12

>  <a_nCl>
0

>  <a_nF>
2

>  <a_nH>
6

>  <a_nI>
0

>  <a_nN>
2

>  <a_nO>
2

>  <a_nP>
0

>  <a_nS>
0

>  <balabanJ>
1.764596

>  <BCUT_PEOE_0>
-2.1598351

>  <BCUT_PEOE_1>
-0.60845309

>  <BCUT_PEOE_2>
0.65272027

>  <BCUT_PEOE_3>
2.4405258

>  <BCUT_SLOGP_0>
-2.2587214

>  <BCUT_SLOGP_1>
-0.51524353

>  <BCUT_SLOGP_2>
0.73745173

>  <BCUT_SLOGP_3>
2.5213251

>  <BCUT_SMR_0>
-1.9183418

>  <BCUT_SMR_1>
-0.45168197

>  <BCUT_SMR_2>
0.85925227

>  <BCUT_SMR_3>
2.6453102

>  <bpol>
14.117242

>  <b_1rotN>
1

>  <b_1rotR>
0.050000001

>  <b_ar>
11

>  <b_count>
26

>  <b_double>
0

>  <b_heavy>
20

>  <b_rotN>
2

>  <b_rotR>
0.1

>  <b_single>
14

>  <b_triple>
1

>  <chi0>
12.750712

>  <chi0v>
8.9063902

>  <chi0v_C>
6.3867512

>  <chi0_C>
7.6293921

>  <chi1>
8.6052847

>  <chi1v>
5.0667853

>  <chi1v_C>
3.0713673

>  <chi1_C>
4.3745747

>  <chiral>
0

>  <chiral_u>
0

>  <density>
0.92382419

>  <diameter>
8

>  <FCharge>
0

>  <GCUT_PEOE_0>
-0.86708069

>  <GCUT_PEOE_1>
-0.41089651

>  <GCUT_PEOE_2>
0.089388408

>  <GCUT_PEOE_3>
2.3251228

>  <GCUT_SLOGP_0>
-0.93564063

>  <GCUT_SLOGP_1>
-0.30179018

>  <GCUT_SLOGP_2>
0.23464778

>  <GCUT_SLOGP_3>
2.4830067

>  <GCUT_SMR_0>
-0.49740234

>  <GCUT_SMR_1>
-0.20281079

>  <GCUT_SMR_2>
0.22619806

>  <GCUT_SMR_3>
2.6058698

>  <Kier1>
13.005

>  <Kier2>
4.8355556

>  <Kier3>
2.4000001

>  <KierA1>
8.8812971

>  <KierA2>
3.2205842

>  <KierA3>
1.5689405

>  <KierFlex>
1.5890538

>  <lip_acc>
4

>  <lip_don>
1

>  <lip_druglike>
1

>  <lip_violation>
0

>  <logP(o/w)>
3.20192

>  <logS>
-3.67027

>  <mr>
5.9381366

>  <mutagenic>
0

>  <nmol>
1

>  <opr_brigid>
15

>  <opr_leadlike>
1

>  <opr_nring>
3

>  <opr_nrot>
2

>  <opr_violation>
0

>  <PC+>
0

>  <PC->
0

>  <PEOE_PC+>
1.2355914

>  <PEOE_PC->
-1.2355914

>  <PEOE_RPC+>
0.40284839

>  <PEOE_RPC->
0.20592947

>  <PEOE_VSA+0>
51.842564

>  <PEOE_VSA+1>
22.508045

>  <PEOE_VSA+2>
57.516052

>  <PEOE_VSA+3>
0

>  <PEOE_VSA+4>
0

>  <PEOE_VSA+5>
0

>  <PEOE_VSA+6>
14.733156

>  <PEOE_VSA-0>
0

>  <PEOE_VSA-1>
0

>  <PEOE_VSA-2>
23.817272

>  <PEOE_VSA-3>
17.742489

>  <PEOE_VSA-4>
5.6825762

>  <PEOE_VSA-5>
5.0075121

>  <PEOE_VSA-6>
0

>  <PEOE_VSA_FHYD>
0.87214839

>  <PEOE_VSA_FNEG>
0.26276055

>  <PEOE_VSA_FPNEG>
0.053759649

>  <PEOE_VSA_FPOL>
0.12785158

>  <PEOE_VSA_FPOS>
0.73723942

>  <PEOE_VSA_FPPOS>
0.074091934

>  <PEOE_VSA_HYD>
173.42642

>  <PEOE_VSA_NEG>
52.249847

>  <PEOE_VSA_PNEG>
10.690088

>  <PEOE_VSA_POL>
25.423244

>  <PEOE_VSA_POS>
146.59982

>  <PEOE_VSA_PPOS>
14.733156

>  <petitjean>
0.5

>  <petitjeanSC>
1

>  <Q_PC+>
0

>  <Q_PC->
0

>  <Q_RPC+>
0

>  <Q_RPC->
0

>  <Q_VSA_FHYD>
1

>  <Q_VSA_FNEG>
0

>  <Q_VSA_FPNEG>
0

>  <Q_VSA_FPOL>
0

>  <Q_VSA_FPOS>
1

>  <Q_VSA_FPPOS>
0

>  <Q_VSA_HYD>
198.84967

>  <Q_VSA_NEG>
0

>  <Q_VSA_PNEG>
0

>  <Q_VSA_POL>
0

>  <Q_VSA_POS>
198.84967

>  <Q_VSA_PPOS>
0

>  <radius>
4

>  <reactive>
0

>  <rings>
3

>  <RPC+>
0

>  <RPC->
0

>  <rsynth>
1

>  <SlogP>
2.8748839

>  <SlogP_VSA0>
21.999775

>  <SlogP_VSA1>
5.9397793

>  <SlogP_VSA2>
16.78553

>  <SlogP_VSA3>
47.661102

>  <SlogP_VSA4>
3.185575

>  <SlogP_VSA5>
0

>  <SlogP_VSA6>
0

>  <SlogP_VSA7>
93.729416

>  <SlogP_VSA8>
0

>  <SlogP_VSA9>
40.407082

>  <SMR>
5.7146702

>  <SMR_VSA0>
0

>  <SMR_VSA1>
82.979355

>  <SMR_VSA2>
22.725309

>  <SMR_VSA3>
30.274178

>  <SMR_VSA4>
6.37115

>  <SMR_VSA5>
87.358269

>  <SMR_VSA6>
0

>  <SMR_VSA7>
0

>  <TPSA>
58.040001

>  <VAdjEq>
0.53921634

>  <VAdjMa>
5.321928

>  <VDistEq>
2.7945778

>  <VDistMa>
8.0687342

>  <vdw_area>
198.84967

>  <vdw_vol>
262.10614

>  <vsa_acc>
22.750002

>  <vsa_acid>
0

>  <vsa_base>
0

>  <vsa_don>
5.6825762

>  <vsa_hyd>
135.38443

>  <vsa_other>
35.032661

>  <vsa_pol>
28.432577

>  <Weight>
248.18799

>  <weinerPath>
555

>  <weinerPol>
27

>  <zagreb>
100

$$$$
O=C(COC2=NN=C(C(F)(F)F)S2)N(C(C)C)C1=CC=C(F)C=C1
  MOE2011           2D

 24 25  0  0  0  0  0  0  0  0999 V2000
    0.0000    0.0000    0.0000 O   0  0  0  0  0  0  0  0  0  0  0  0
    0.7520    1.2980    0.0000 C   0  0  0  0  0  0  0  0  0  0  0  0
    2.2520    1.2950    0.0000 C   0  0  0  0  0  0  0  0  0  0  0  0
    3.0000   -0.0060    0.0000 O   0  0  0  0  0  0  0  0  0  0  0  0
    4.5000   -0.0080    0.0000 C   0  0  0  0  0  0  0  0  0  0  0  0
    5.3840    1.2030    0.0000 N   0  0  0  0  0  0  0  0  0  0  0  0
    6.8100    0.7370    0.0000 N   0  0  0  0  0  0  0  0  0  0  0  0
    6.8070   -0.7630    0.0000 C   0  0  0  0  0  0  0  0  0  0  0  0
    8.0190   -1.6470    0.0000 C   0  0  0  0  0  0  0  0  0  0  0  0
    9.2310   -2.5310    0.0000 F   0  0  0  0  0  0  0  0  0  0  0  0
    7.1350   -2.8590    0.0000 F   0  0  0  0  0  0  0  0  0  0  0  0
    8.9030   -0.4350    0.0000 F   0  0  0  0  0  0  0  0  0  0  0  0
    5.3790   -1.2240    0.0000 S   0  0  0  0  0  0  0  0  0  0  0  0
    0.0050    2.5980    0.0000 N   0  0  0  0  0  0  0  0  0  0  0  0
    0.7570    3.8960    0.0000 C   0  0  0  0  0  0  0  0  0  0  0  0
    0.0100    5.1960    0.0000 C   0  0  0  0  0  0  0  0  0  0  0  0
    2.2570    3.8930    0.0000 C   0  0  0  0  0  0  0  0  0  0  0  0
   -1.4950    2.6010    0.0000 C   0  0  0  0  0  0  0  0  0  0  0  0
   -2.2480    1.3030    0.0000 C   0  0  0  0  0  0  0  0  0  0  0  0
   -3.7480    1.3060    0.0000 C   0  0  0  0  0  0  0  0  0  0  0  0
   -4.4950    2.6070    0.0000 C   0  0  0  0  0  0  0  0  0  0  0  0
   -5.9950    2.6090    0.0000 F   0  0  0  0  0  0  0  0  0  0  0  0
   -3.7430    3.9040    0.0000 C   0  0  0  0  0  0  0  0  0  0  0  0
   -2.2430    3.9010    0.0000 C   0  0  0  0  0  0  0  0  0  0  0  0
  1  2  2  0  0  0  0
  2  3  1  0  0  0  0
  2 14  1  0  0  0  0
  3  4  1  0  0  0  0
  4  5  1  0  0  0  0
  5  6  2  0  0  0  0
  5 13  1  0  0  0  0
  6  7  1  0  0  0  0
  7  8  2  0  0  0  0
  8  9  1  0  0  0  0
  8 13  1  0  0  0  0
  9 10  1  0  0  0  0
  9 11  1  0  0  0  0
  9 12  1  0  0  0  0
 14 15  1  0  0  0  0
 14 18  1  0  0  0  0
 15 16  1  0  0  0  0
 15 17  1  0  0  0  0
 18 19  1  0  0  0  0
 18 24  2  0  0  0  0
 19 20  2  0  0  0  0
 20 21  1  0  0  0  0
 21 22  1  0  0  0  0
 21 23  2  0  0  0  0
 23 24  1  0  0  0  0
M  END
>  <DSSTox_RID>
40471

>  <DSSTox_CID>
12552

>  <apol>
43.340309

>  <a_acc>
3

>  <a_acid>
0

>  <a_aro>
11

>  <a_base>
0

>  <a_count>
37

>  <a_don>
0

>  <a_heavy>
24

>  <a_hyd>
17

>  <a_IC>
76.586205

>  <a_ICM>
2.0698974

>  <a_nB>
0

>  <a_nBr>
0

>  <a_nC>
14

>  <a_nCl>
0

>  <a_nF>
4

>  <a_nH>
13

>  <a_nI>
0

>  <a_nN>
3

>  <a_nO>
2

>  <a_nP>
0

>  <a_nS>
1

>  <balabanJ>
1.8246938

>  <BCUT_PEOE_0>
-2.5899036

>  <BCUT_PEOE_1>
-0.60324794

>  <BCUT_PEOE_2>
0.53544331

>  <BCUT_PEOE_3>
2.5435679

>  <BCUT_SLOGP_0>
-2.6590626

>  <BCUT_SLOGP_1>
-0.37593478

>  <BCUT_SLOGP_2>
0.62878078

>  <BCUT_SLOGP_3>
2.5445008

>  <BCUT_SMR_0>
-2.3103092

>  <BCUT_SMR_1>
-0.39477277

>  <BCUT_SMR_2>
0.83102345

>  <BCUT_SMR_3>
2.8246777

>  <bpol>
27.477692

>  <b_1rotN>
6

>  <b_1rotR>
0.23999999

>  <b_ar>
11

>  <b_count>
38

>  <b_double>
1

>  <b_heavy>
25

>  <b_rotN>
7

>  <b_rotR>
0.28

>  <b_single>
26

>  <b_triple>
0

>  <chi0>
17.905413

>  <chi0v>
13.488598

>  <chi0v_C>
8.5938578

>  <chi0_C>
9.4996357

>  <chi1>
11.180559

>  <chi1v>
7.6098447

>  <chi1v_C>
3.5796211

>  <chi1_C>
4.4846172

>  <chiral>
0

>  <chiral_u>
0

>  <density>
0.98703063

>  <diameter>
13

>  <FCharge>
0

>  <GCUT_PEOE_0>
-0.82711679

>  <GCUT_PEOE_1>
-0.37525901

>  <GCUT_PEOE_2>
0.038328085

>  <GCUT_PEOE_3>
2.4694929

>  <GCUT_SLOGP_0>
-1.0029533

>  <GCUT_SLOGP_1>
-0.30976757

>  <GCUT_SLOGP_2>
0.22737962

>  <GCUT_SLOGP_3>
2.5246975

>  <GCUT_SMR_0>
-0.51630586

>  <GCUT_SMR_1>
-0.18117231

>  <GCUT_SMR_2>
0.19305076

>  <GCUT_SMR_3>
2.7384353

>  <Kier1>
20.313601

>  <Kier2>
8.5895061

>  <Kier3>
5.7619047

>  <KierA1>
16.446642

>  <KierA2>
6.8864174

>  <KierA3>
4.5868917

>  <KierFlex>
4.7191019

>  <lip_acc>
5

>  <lip_don>
0

>  <lip_druglike>
1

>  <lip_violation>
0

>  <logP(o/w)>
3.8427601

>  <logS>
-5.1016798

>  <mr>
8.2974424

>  <mutagenic>
0

>  <nmol>
1

>  <opr_brigid>
11

>  <opr_leadlike>
1

>  <opr_nring>
2

>  <opr_nrot>
5

>  <opr_violation>
0

>  <PC+>
0

>  <PC->
0

>  <PEOE_PC+>
1.8715656

>  <PEOE_PC->
-1.8715656

>  <PEOE_RPC+>
0.22765845

>  <PEOE_RPC->
0.16657117

>  <PEOE_VSA+0>
122.05088

>  <PEOE_VSA+1>
13.399102

>  <PEOE_VSA+2>
32.622051

>  <PEOE_VSA+3>
0

>  <PEOE_VSA+4>
41.819092

>  <PEOE_VSA+5>
12.949531

>  <PEOE_VSA+6>
9.0455017

>  <PEOE_VSA-0>
0

>  <PEOE_VSA-1>
0

>  <PEOE_VSA-2>
9.4210396

>  <PEOE_VSA-3>
45.146946

>  <PEOE_VSA-4>
11.908636

>  <PEOE_VSA-5>
13.566921

>  <PEOE_VSA-6>
2.503756

>  <PEOE_VSA_FHYD>
0.70806718

>  <PEOE_VSA_FNEG>
0.26252708

>  <PEOE_VSA_FPNEG>
0.088983253

>  <PEOE_VSA_FPOL>
0.29193279

>  <PEOE_VSA_FPOS>
0.73747289

>  <PEOE_VSA_FPPOS>
0.20294954

>  <PEOE_VSA_HYD>
222.64001

>  <PEOE_VSA_NEG>
82.547302

>  <PEOE_VSA_PNEG>
27.979313

>  <PEOE_VSA_POL>
91.793434

>  <PEOE_VSA_POS>
231.88615

>  <PEOE_VSA_PPOS>
63.814125

>  <petitjean>
0.46153846

>  <petitjeanSC>
0.85714287

>  <Q_PC+>
0

>  <Q_PC->
0

>  <Q_RPC+>
0

>  <Q_RPC->
0

>  <Q_VSA_FHYD>
1

>  <Q_VSA_FNEG>
0

>  <Q_VSA_FPNEG>
0

>  <Q_VSA_FPOL>
0

>  <Q_VSA_FPOS>
1

>  <Q_VSA_FPPOS>
0

>  <Q_VSA_HYD>
314.43344

>  <Q_VSA_NEG>
0

>  <Q_VSA_PNEG>
0

>  <Q_VSA_POL>
0

>  <Q_VSA_POS>
314.43344

>  <Q_VSA_PPOS>
0

>  <radius>
7

>  <reactive>
0

>  <rings>
2

>  <RPC+>
0

>  <RPC->
0

>  <rsynth>
1

>  <SlogP>
3.8278999

>  <SlogP_VSA0>
14.124202

>  <SlogP_VSA1>
38.584797

>  <SlogP_VSA2>
36.965202

>  <SlogP_VSA3>
20.926258

>  <SlogP_VSA4>
0.92957383

>  <SlogP_VSA5>
0

>  <SlogP_VSA6>
7.7595162

>  <SlogP_VSA7>
70.572739

>  <SlogP_VSA8>
0

>  <SlogP_VSA9>
163.51434

>  <SMR>
7.9545002

>  <SMR_VSA0>
23.862217

>  <SMR_VSA1>
104.16636

>  <SMR_VSA2>
20.004848

>  <SMR_VSA3>
7.8989697

>  <SMR_VSA4>
2.7567475

>  <SMR_VSA5>
70.572739

>  <SMR_VSA6>
26.185041

>  <SMR_VSA7>
97.929718

>  <TPSA>
55.32

>  <VAdjEq>
0.42571631

>  <VAdjMa>
5.643856

>  <VDistEq>
3.4924018

>  <VDistMa>
8.860033

>  <vdw_area>
314.43344

>  <vdw_vol>
354.83295

>  <vsa_acc>
32.409

>  <vsa_acid>
0

>  <vsa_base>
0

>  <vsa_don>
0

>  <vsa_hyd>
251.64557

>  <vsa_other>
30.37888

>  <vsa_pol>
32.409

>  <Weight>
363.33499

>  <weinerPath>
1473

>  <weinerPol>
34

>  <zagreb>
122

$$$$
ClC1=CC(F)=C(N2N=CC(C(F)(F)F)=C(C)C2=O)C=C1OCC(OCC)=O
  MOE2011           2D

 27 28  0  0  0  0  0  0  0  0999 V2000
    0.0000    0.0000    0.0000 Cl  0  0  0  0  0  0  0  0  0  0  0  0
   -1.5000    0.0050    0.0000 C   0  0  0  0  0  0  0  0  0  0  0  0
   -2.2540   -1.2920    0.0000 C   0  0  0  0  0  0  0  0  0  0  0  0
   -3.7540   -1.2870    0.0000 C   0  0  0  0  0  0  0  0  0  0  0  0
   -4.5080   -2.5840    0.0000 F   0  0  0  0  0  0  0  0  0  0  0  0
   -4.5000    0.0140    0.0000 C   0  0  0  0  0  0  0  0  0  0  0  0
   -6.0000    0.0190    0.0000 N   0  0  0  0  0  0  0  0  0  0  0  0
   -6.7540   -1.2780    0.0000 N   0  0  0  0  0  0  0  0  0  0  0  0
   -8.2540   -1.2730    0.0000 C   0  0  0  0  0  0  0  0  0  0  0  0
   -9.0000    0.0280    0.0000 C   0  0  0  0  0  0  0  0  0  0  0  0
  -10.5000    0.0330    0.0000 C   0  0  0  0  0  0  0  0  0  0  0  0
  -10.4950    1.5330    0.0000 F   0  0  0  0  0  0  0  0  0  0  0  0
  -12.0000    0.0370    0.0000 F   0  0  0  0  0  0  0  0  0  0  0  0
  -10.5050   -1.4670    0.0000 F   0  0  0  0  0  0  0  0  0  0  0  0
   -8.2460    1.3250    0.0000 C   0  0  0  0  0  0  0  0  0  0  0  0
   -8.9920    2.6260    0.0000 C   0  0  0  0  0  0  0  0  0  0  0  0
   -6.7460    1.3200    0.0000 C   0  0  0  0  0  0  0  0  0  0  0  0
   -5.9920    2.6170    0.0000 O   0  0  0  0  0  0  0  0  0  0  0  0
   -3.7460    1.3110    0.0000 C   0  0  0  0  0  0  0  0  0  0  0  0
   -2.2460    1.3060    0.0000 C   0  0  0  0  0  0  0  0  0  0  0  0
   -1.4920    2.6030    0.0000 O   0  0  0  0  0  0  0  0  0  0  0  0
    0.0080    2.5980    0.0000 C   0  0  0  0  0  0  0  0  0  0  0  0
    0.7620    3.8950    0.0000 C   0  0  0  0  0  0  0  0  0  0  0  0
    2.2620    3.8900    0.0000 O   0  0  0  0  0  0  0  0  0  0  0  0
    3.0160    5.1870    0.0000 C   0  0  0  0  0  0  0  0  0  0  0  0
    4.5160    5.1820    0.0000 C   0  0  0  0  0  0  0  0  0  0  0  0
    0.0160    5.1960    0.0000 O   0  0  0  0  0  0  0  0  0  0  0  0
  1  2  1  0  0  0  0
  2  3  1  0  0  0  0
  2 20  2  0  0  0  0
  3  4  2  0  0  0  0
  4  5  1  0  0  0  0
  4  6  1  0  0  0  0
  6  7  1  0  0  0  0
  6 19  2  0  0  0  0
  7  8  1  0  0  0  0
  7 17  1  0  0  0  0
  8  9  2  0  0  0  0
  9 10  1  0  0  0  0
 10 11  1  0  0  0  0
 10 15  2  0  0  0  0
 11 12  1  0  0  0  0
 11 13  1  0  0  0  0
 11 14  1  0  0  0  0
 15 16  1  0  0  0  0
 15 17  1  0  0  0  0
 17 18  2  0  0  0  0
 19 20  1  0  0  0  0
 20 21  1  0  0  0  0
 21 22  1  0  0  0  0
 22 23  1  0  0  0  0
 23 24  1  0  0  0  0
 23 27  2  0  0  0  0
 24 25  1  0  0  0  0
 25 26  1  0  0  0  0
M  END
>  <DSSTox_RID>
40472

>  <DSSTox_CID>
14618

>  <apol>
46.64431

>  <a_acc>
4

>  <a_acid>
0

>  <a_aro>
6

>  <a_base>
0

>  <a_count>
40

>  <a_don>
0

>  <a_heavy>
27

>  <a_hyd>
18

>  <a_IC>
82.771408

>  <a_ICM>
2.0692852

>  <a_nB>
0

>  <a_nBr>
0

>  <a_nC>
16

>  <a_nCl>
1

>  <a_nF>
4

>  <a_nH>
13

>  <a_nI>
0

>  <a_nN>
2

>  <a_nO>
4

>  <a_nP>
0

>  <a_nS>
0

>  <balabanJ>
2.0197711

>  <BCUT_PEOE_0>
-2.390573

>  <BCUT_PEOE_1>
-0.52482122

>  <BCUT_PEOE_2>
0.42279264

>  <BCUT_PEOE_3>
2.4596848

>  <BCUT_SLOGP_0>
-2.474385

>  <BCUT_SLOGP_1>
-0.28954798

>  <BCUT_SLOGP_2>
0.66743618

>  <BCUT_SLOGP_3>
2.4514852

>  <BCUT_SMR_0>
-2.1637163

>  <BCUT_SMR_1>
-0.19102612

>  <BCUT_SMR_2>
0.74138349

>  <BCUT_SMR_3>
2.7063384

>  <bpol>
27.171692

>  <b_1rotN>
5

>  <b_1rotR>
0.17857143

>  <b_ar>
6

>  <b_count>
41

>  <b_double>
4

>  <b_heavy>
28

>  <b_rotN>
7

>  <b_rotR>
0.25

>  <b_single>
31

>  <b_triple>
0

>  <chi0>
20.353006

>  <chi0v>
14.819436

>  <chi0v_C>
9.6462641

>  <chi0_C>
10.654336

>  <chi1>
12.556767

>  <chi1v>
7.8761706

>  <chi1v_C>
4.2540359

>  <chi1_C>
5.3559551

>  <chiral>
0

>  <chiral_u>
0

>  <density>
1.0047747

>  <diameter>
14

>  <FCharge>
0

>  <GCUT_PEOE_0>
-0.77725607

>  <GCUT_PEOE_1>
-0.40845647

>  <GCUT_PEOE_2>
-0.089691907

>  <GCUT_PEOE_3>
2.4560227

>  <GCUT_SLOGP_0>
-0.95927829

>  <GCUT_SLOGP_1>
-0.30448255

>  <GCUT_SLOGP_2>
0.26019999

>  <GCUT_SLOGP_3>
2.5250087

>  <GCUT_SMR_0>
-0.51369226

>  <GCUT_SMR_1>
-0.15109088

>  <GCUT_SMR_2>
0.1602352

>  <GCUT_SMR_3>
2.7247944

>  <Kier1>
23.280613

>  <Kier2>
9.6668653

>  <Kier3>
5.7577853

>  <KierA1>
18.619003

>  <KierA2>
7.6605878

>  <KierA3>
4.5317717

>  <KierFlex>
5.2826853

>  <lip_acc>
6

>  <lip_don>
0

>  <lip_druglike>
1

>  <lip_violation>
0

>  <logP(o/w)>
3.7474999

>  <logS>
-5.2994399

>  <mr>
8.9124899

>  <mutagenic>
0

>  <nmol>
1

>  <opr_brigid>
12

>  <opr_leadlike>
1

>  <opr_nring>
2

>  <opr_nrot>
5

>  <opr_violation>
0

>  <PC+>
0

>  <PC->
0

>  <PEOE_PC+>
2.2788055

>  <PEOE_PC->
-2.2788055

>  <PEOE_RPC+>
0.18427786

>  <PEOE_RPC->
0.13994107

>  <PEOE_VSA+0>
92.642426

>  <PEOE_VSA+1>
6.7282863

>  <PEOE_VSA+2>
35.457577

>  <PEOE_VSA+3>
31.079319

>  <PEOE_VSA+4>
22.058474

>  <PEOE_VSA+5>
12.949531

>  <PEOE_VSA+6>
23.754002

>  <PEOE_VSA-0>
0

>  <PEOE_VSA-1>
29.581947

>  <PEOE_VSA-2>
0

>  <PEOE_VSA-3>
45.146946

>  <PEOE_VSA-4>
11.908636

>  <PEOE_VSA-5>
29.637598

>  <PEOE_VSA-6>
2.503756

>  <PEOE_VSA_FHYD>
0.70064801

>  <PEOE_VSA_FNEG>
0.34584191

>  <PEOE_VSA_FPNEG>
0.12825792

>  <PEOE_VSA_FPOL>
0.29935199

>  <PEOE_VSA_FPOS>
0.65415812

>  <PEOE_VSA_FPPOS>
0.17109409

>  <PEOE_VSA_HYD>
240.63651

>  <PEOE_VSA_NEG>
118.77888

>  <PEOE_VSA_PNEG>
44.049988

>  <PEOE_VSA_POL>
102.812

>  <PEOE_VSA_POS>
224.66962

>  <PEOE_VSA_PPOS>
58.762005

>  <petitjean>
0.5

>  <petitjeanSC>
1

>  <Q_PC+>
0

>  <Q_PC->
0

>  <Q_RPC+>
0

>  <Q_RPC->
0

>  <Q_VSA_FHYD>
1

>  <Q_VSA_FNEG>
0

>  <Q_VSA_FPNEG>
0

>  <Q_VSA_FPOL>
0

>  <Q_VSA_FPOS>
1

>  <Q_VSA_FPPOS>
0

>  <Q_VSA_HYD>
343.44849

>  <Q_VSA_NEG>
0

>  <Q_VSA_PNEG>
0

>  <Q_VSA_POL>
0

>  <Q_VSA_POS>
343.44849

>  <Q_VSA_PPOS>
0

>  <radius>
7

>  <reactive>
1

>  <rings>
2

>  <RPC+>
0

>  <RPC->
0

>  <rsynth>
0.62962961

>  <SlogP>
3.6322

>  <SlogP_VSA0>
14.001679

>  <SlogP_VSA1>
20.763763

>  <SlogP_VSA2>
85.059692

>  <SlogP_VSA3>
41.852516

>  <SlogP_VSA4>
0

>  <SlogP_VSA5>
23.034157

>  <SlogP_VSA6>
3.5006065

>  <SlogP_VSA7>
35.286369

>  <SlogP_VSA8>
0

>  <SlogP_VSA9>
173.6413

>  <SMR>
8.8270998

>  <SMR_VSA0>
58.724319

>  <SMR_VSA1>
87.503349

>  <SMR_VSA2>
19.882326

>  <SMR_VSA3>
15.115185

>  <SMR_VSA4>
2.7567475

>  <SMR_VSA5>
35.286369

>  <SMR_VSA6>
54.856766

>  <SMR_VSA7>
123.01503

>  <TPSA>
68.199997

>  <VAdjEq>
0.39086518

>  <VAdjMa>
5.8073549

>  <VDistEq>
3.541841

>  <VDistMa>
9.2139559

>  <vdw_area>
343.44849

>  <vdw_vol>
393.75095

>  <vsa_acc>
39.058636

>  <vsa_acid>
0

>  <vsa_base>
0

>  <vsa_don>
0

>  <vsa_hyd>
253.92857

>  <vsa_other>
50.461292

>  <vsa_pol>
39.058636

>  <Weight>
408.73499

>  <weinerPath>
1920

>  <weinerPol>
45

>  <zagreb>
138

$$$$
ClC1=C(CN(CC)C2=C([N+]([O-])=O)C=C(C(F)(F)F)C=C2[N+]([O-])=O)C(F)=CC=C1
  MOE2011           2D

 28 29  0  0  1  0  0  0  0  0999 V2000
    0.0000    0.0000    0.0000 Cl  0  0  0  0  0  0  0  0  0  0  0  0
   -0.7420    1.3040    0.0000 C   0  0  0  0  0  0  0  0  0  0  0  0
    0.0170    2.5980    0.0000 C   0  0  0  0  0  0  0  0  0  0  0  0
    1.5170    2.5880    0.0000 C   0  0  0  0  0  0  0  0  0  0  0  0
    2.2750    3.8820    0.0000 N   0  0  0  0  0  0  0  0  0  0  0  0
    1.5340    5.1860    0.0000 C   0  0  0  0  0  0  0  0  0  0  0  0
    2.2920    6.4800    0.0000 C   0  0  0  0  0  0  0  0  0  0  0  0
    3.7750    3.8730    0.0000 C   0  0  0  0  0  0  0  0  0  0  0  0
    4.9300    4.8290    0.0000 C   0  0  0  0  0  0  0  0  0  0  0  0
    4.9400    6.3290    0.0000 N   0  3  0  0  0  0  0  0  0  0  0  0
    3.6460    7.0880    0.0000 O   0  5  0  0  0  0  0  0  0  0  0  0
    6.2440    7.0710    0.0000 O   0  0  0  0  0  0  0  0  0  0  0  0
    6.3370    4.3070    0.0000 C   0  0  0  0  0  0  0  0  0  0  0  0
    6.5880    2.8280    0.0000 C   0  0  0  0  0  0  0  0  0  0  0  0
    7.9940    2.3060    0.0000 C   0  0  0  0  0  0  0  0  0  0  0  0
    9.4000    1.7840    0.0000 F   0  0  0  0  0  0  0  0  0  0  0  0
    7.4720    0.9000    0.0000 F   0  0  0  0  0  0  0  0  0  0  0  0
    8.5160    3.7130    0.0000 F   0  0  0  0  0  0  0  0  0  0  0  0
    5.4320    1.8720    0.0000 C   0  0  0  0  0  0  0  0  0  0  0  0
    4.0260    2.3940    0.0000 C   0  0  0  0  0  0  0  0  0  0  0  0
    2.8710    1.4370    0.0000 N   0  3  0  0  0  0  0  0  0  0  0  0
    3.1220   -0.0420    0.0000 O   0  5  0  0  0  0  0  0  0  0  0  0
    1.4650    1.9590    0.0000 O   0  0  0  0  0  0  0  0  0  0  0  0
   -0.7250    3.9020    0.0000 C   0  0  0  0  0  0  0  0  0  0  0  0
    0.0340    5.1960    0.0000 F   0  0  0  0  0  0  0  0  0  0  0  0
   -2.2250    3.9120    0.0000 C   0  0  0  0  0  0  0  0  0  0  0  0
   -2.9830    2.6170    0.0000 C   0  0  0  0  0  0  0  0  0  0  0  0
   -2.2420    1.3140    0.0000 C   0  0  0  0  0  0  0  0  0  0  0  0
  1  2  1  0  0  0  0
  2  3  1  0  0  0  0
  2 28  2  0  0  0  0
  3  4  1  0  0  0  0
  3 24  2  0  0  0  0
  4  5  1  0  0  0  0
  5  6  1  0  0  0  0
  5  8  1  0  0  0  0
  6  7  1  0  0  0  0
  8  9  1  0  0  0  0
  8 20  2  0  0  0  0
  9 10  1  0  0  0  0
  9 13  2  0  0  0  0
 10 11  1  0  0  0  0
 10 12  2  0  0  0  0
 13 14  1  0  0  0  0
 14 15  1  0  0  0  0
 14 19  2  0  0  0  0
 15 16  1  0  0  0  0
 15 17  1  0  0  0  0
 15 18  1  0  0  0  0
 19 20  1  0  0  0  0
 20 21  1  0  0  0  0
 21 22  1  0  0  0  0
 21 23  2  0  0  0  0
 24 25  1  0  0  0  0
 24 26  1  0  0  0  0
 26 27  2  0  0  0  0
 27 28  1  0  0  0  0
M  CHG  1  10   1
M  CHG  1  11  -1
M  CHG  1  21   1
M  CHG  1  22  -1
M  END
>  <DSSTox_RID>
40473

>  <DSSTox_CID>
12553

>  <apol>
47.077515

>  <a_acc>
0

>  <a_acid>
0

>  <a_aro>
12

>  <a_base>
0

>  <a_count>
40

>  <a_don>
0

>  <a_heavy>
28

>  <a_hyd>
23

>  <a_IC>
85.102684

>  <a_ICM>
2.1275671

>  <a_nB>
0

>  <a_nBr>
0

>  <a_nC>
16

>  <a_nCl>
1

>  <a_nF>
4

>  <a_nH>
12

>  <a_nI>
0

>  <a_nN>
3

>  <a_nO>
4

>  <a_nP>
0

>  <a_nS>
0

>  <balabanJ>
2.3067157

>  <BCUT_PEOE_0>
-2.5424225

>  <BCUT_PEOE_1>
-0.51759112

>  <BCUT_PEOE_2>
0.58246446

>  <BCUT_PEOE_3>
2.5235469

>  <BCUT_SLOGP_0>
-2.5549936

>  <BCUT_SLOGP_1>
-0.38811716

>  <BCUT_SLOGP_2>
0.69656581

>  <BCUT_SLOGP_3>
2.5902212

>  <BCUT_SMR_0>
-2.2604039

>  <BCUT_SMR_1>
-0.36837

>  <BCUT_SMR_2>
0.71951449

>  <BCUT_SMR_3>
2.789474

>  <bpol>
22.842484

>  <b_1rotN>
6

>  <b_1rotR>
0.20689656

>  <b_ar>
12

>  <b_count>
41

>  <b_double>
2

>  <b_heavy>
29

>  <b_rotN>
7

>  <b_rotR>
0.24137931

>  <b_single>
27

>  <b_triple>
0

>  <chi0>
21.223249

>  <chi0v>
14.92135

>  <chi0v_C>
9.3009653

>  <chi0_C>
10.491199

>  <chi1>
12.967451

>  <chi1v>
8.0658264

>  <chi1v_C>
4.7093778

>  <chi1_C>
6.1868534

>  <chiral>
0

>  <chiral_u>
0

>  <density>
1.0231174

>  <diameter>
11

>  <FCharge>
0

>  <GCUT_PEOE_0>
-0.81552368

>  <GCUT_PEOE_1>
-0.41828468

>  <GCUT_PEOE_2>
0.027260717

>  <GCUT_PEOE_3>
2.6442564

>  <GCUT_SLOGP_0>
-0.9395647

>  <GCUT_SLOGP_1>
-0.18351571

>  <GCUT_SLOGP_2>
0.26019999

>  <GCUT_SLOGP_3>
2.7490597

>  <GCUT_SMR_0>
-0.50871992

>  <GCUT_SMR_1>
-0.15500318

>  <GCUT_SMR_2>
0.1767

>  <GCUT_SMR_3>
2.8796201

>  <Kier1>
24.271107

>  <Kier2>
9.8712816

>  <Kier3>
5.7956104

>  <KierA1>
18.891916

>  <KierA2>
7.6074724

>  <KierA3>
4.4349551

>  <KierFlex>
5.1328478

>  <lip_acc>
7

>  <lip_don>
0

>  <lip_druglike>
1

>  <lip_violation>
1

>  <logP(o/w)>
5.5657601

>  <logS>
-7.0736799

>  <mr>
9.1442986

>  <mutagenic>
0

>  <nmol>
1

>  <opr_brigid>
12

>  <opr_leadlike>
1

>  <opr_nring>
2

>  <opr_nrot>
6

>  <opr_violation>
1

>  <PC+>
0

>  <PC->
0

>  <PEOE_PC+>
2.0555558

>  <PEOE_PC->
-2.0555558

>  <PEOE_RPC+>
0.20382556

>  <PEOE_RPC->
0.12564428

>  <PEOE_VSA+0>
79.042473

>  <PEOE_VSA+1>
66.700851

>  <PEOE_VSA+2>
29.320351

>  <PEOE_VSA+3>
6.6995511

>  <PEOE_VSA+4>
0

>  <PEOE_VSA+5>
0

>  <PEOE_VSA+6>
22.444605

>  <PEOE_VSA-0>
0

>  <PEOE_VSA-1>
29.581947

>  <PEOE_VSA-2>
0

>  <PEOE_VSA-3>
35.725906

>  <PEOE_VSA-4>
11.908636

>  <PEOE_VSA-5>
67.862099

>  <PEOE_VSA-6>
0

>  <PEOE_VSA_FHYD>
0.70735955

>  <PEOE_VSA_FNEG>
0.41535708

>  <PEOE_VSA_FPNEG>
0.22838201

>  <PEOE_VSA_FPOL>
0.29264045

>  <PEOE_VSA_FPOS>
0.58464295

>  <PEOE_VSA_FPPOS>
0.064258449

>  <PEOE_VSA_HYD>
247.07108

>  <PEOE_VSA_NEG>
145.07858

>  <PEOE_VSA_PNEG>
79.770729

>  <PEOE_VSA_POL>
102.21534

>  <PEOE_VSA_POS>
204.20782

>  <PEOE_VSA_PPOS>
22.444605

>  <petitjean>
0.45454547

>  <petitjeanSC>
0.83333331

>  <Q_PC+>
0

>  <Q_PC->
0

>  <Q_RPC+>
0

>  <Q_RPC->
0

>  <Q_VSA_FHYD>
1

>  <Q_VSA_FNEG>
0

>  <Q_VSA_FPNEG>
0

>  <Q_VSA_FPOL>
0

>  <Q_VSA_FPOS>
1

>  <Q_VSA_FPPOS>
0

>  <Q_VSA_HYD>
349.28641

>  <Q_VSA_NEG>
0

>  <Q_VSA_PNEG>
0

>  <Q_VSA_POL>
0

>  <Q_VSA_POS>
349.28641

>  <Q_VSA_PPOS>
0

>  <radius>
6

>  <reactive>
0

>  <rings>
2

>  <RPC+>
0

>  <RPC->
0

>  <rsynth>
1

>  <SlogP>
5.9187002

>  <SlogP_VSA0>
3.1243138

>  <SlogP_VSA1>
14.171232

>  <SlogP_VSA2>
9.1210184

>  <SlogP_VSA3>
120.30959

>  <SlogP_VSA4>
6.37115

>  <SlogP_VSA5>
0

>  <SlogP_VSA6>
11.260122

>  <SlogP_VSA7>
88.215919

>  <SlogP_VSA8>
0

>  <SlogP_VSA9>
159.02493

>  <SMR>
9.3208799

>  <SMR_VSA0>
14.171232

>  <SMR_VSA1>
59.840454

>  <SMR_VSA2>
121.87486

>  <SMR_VSA3>
9.8717566

>  <SMR_VSA4>
8.2702427

>  <SMR_VSA5>
106.6555

>  <SMR_VSA6>
18.439579

>  <SMR_VSA7>
72.474655

>  <TPSA>
94.879997

>  <VAdjEq>
0.38060221

>  <VAdjMa>
5.8579812

>  <VDistEq>
3.2441204

>  <VDistMa>
9.3749657

>  <vdw_area>
349.28641

>  <vdw_vol>
400.3822

>  <vsa_acc>
0

>  <vsa_acid>
0

>  <vsa_base>
0

>  <vsa_don>
0

>  <vsa_hyd>
281.42432

>  <vsa_other>
67.862099

>  <vsa_pol>
0

>  <Weight>
421.73398

>  <weinerPath>
1865

>  <weinerPol>
48

>  <zagreb>
144

$$$$
O=C(C3=C2CCCC3)N(C2=O)C1=CC(OCC(OCCCCC)=O)=C(Cl)C=C1F
  MOE2011           2D

 29 31  0  0  0  0  0  0  0  0999 V2000
    0.0000    0.0000    0.0000 O   0  0  0  0  0  0  0  0  0  0  0  0
   -0.9890    1.1280    0.0000 C   0  0  0  0  0  0  0  0  0  0  0  0
   -2.4830    0.9900    0.0000 C   0  0  0  0  0  0  0  0  0  0  0  0
   -3.0750    2.3680    0.0000 C   0  0  0  0  0  0  0  0  0  0  0  0
   -4.5650    2.5440    0.0000 C   0  0  0  0  0  0  0  0  0  0  0  0
   -5.4620    1.3420    0.0000 C   0  0  0  0  0  0  0  0  0  0  0  0
   -4.8700   -0.0360    0.0000 C   0  0  0  0  0  0  0  0  0  0  0  0
   -3.3800   -0.2120    0.0000 C   0  0  0  0  0  0  0  0  0  0  0  0
   -0.6590    2.5910    0.0000 N   0  0  0  0  0  0  0  0  0  0  0  0
   -1.9480    3.3570    0.0000 C   0  0  0  0  0  0  0  0  0  0  0  0
   -2.0850    4.8510    0.0000 O   0  0  0  0  0  0  0  0  0  0  0  0
    0.7190    3.1830    0.0000 C   0  0  0  0  0  0  0  0  0  0  0  0
    1.9220    2.2860    0.0000 C   0  0  0  0  0  0  0  0  0  0  0  0
    3.3000    2.8780    0.0000 C   0  0  0  0  0  0  0  0  0  0  0  0
    4.5020    1.9810    0.0000 O   0  0  0  0  0  0  0  0  0  0  0  0
    5.8800    2.5740    0.0000 C   0  0  0  0  0  0  0  0  0  0  0  0
    7.0820    1.6760    0.0000 C   0  0  0  0  0  0  0  0  0  0  0  0
    8.4600    2.2690    0.0000 O   0  0  0  0  0  0  0  0  0  0  0  0
    9.6620    1.3720    0.0000 C   0  0  0  0  0  0  0  0  0  0  0  0
   11.0400    1.9640    0.0000 C   0  0  0  0  0  0  0  0  0  0  0  0
   12.2420    1.0670    0.0000 C   0  0  0  0  0  0  0  0  0  0  0  0
   13.6200    1.6590    0.0000 C   0  0  0  0  0  0  0  0  0  0  0  0
   14.8220    0.7620    0.0000 C   0  0  0  0  0  0  0  0  0  0  0  0
    6.9060    0.1870    0.0000 O   0  0  0  0  0  0  0  0  0  0  0  0
    3.4760    4.3680    0.0000 C   0  0  0  0  0  0  0  0  0  0  0  0
    4.8540    4.9600    0.0000 Cl  0  0  0  0  0  0  0  0  0  0  0  0
    2.2730    5.2650    0.0000 C   0  0  0  0  0  0  0  0  0  0  0  0
    0.8950    4.6730    0.0000 C   0  0  0  0  0  0  0  0  0  0  0  0
   -0.3070    5.5700    0.0000 F   0  0  0  0  0  0  0  0  0  0  0  0
  1  2  2  0  0  0  0
  2  3  1  0  0  0  0
  2  9  1  0  0  0  0
  3  4  2  0  0  0  0
  3  8  1  0  0  0  0
  4  5  1  0  0  0  0
  4 10  1  0  0  0  0
  5  6  1  0  0  0  0
  6  7  1  0  0  0  0
  7  8  1  0  0  0  0
  9 10  1  0  0  0  0
  9 12  1  0  0  0  0
 10 11  2  0  0  0  0
 12 13  1  0  0  0  0
 12 28  2  0  0  0  0
 13 14  2  0  0  0  0
 14 15  1  0  0  0  0
 14 25  1  0  0  0  0
 15 16  1  0  0  0  0
 16 17  1  0  0  0  0
 17 18  1  0  0  0  0
 17 24  2  0  0  0  0
 18 19  1  0  0  0  0
 19 20  1  0  0  0  0
 20 21  1  0  0  0  0
 21 22  1  0  0  0  0
 22 23  1  0  0  0  0
 25 26  1  0  0  0  0
 25 27  2  0  0  0  0
 27 28  1  0  0  0  0
 28 29  1  0  0  0  0
M  END
>  <DSSTox_RID>
40475

>  <DSSTox_CID>
12554

>  <apol>
60.143238

>  <a_acc>
4

>  <a_acid>
0

>  <a_aro>
6

>  <a_base>
0

>  <a_count>
52

>  <a_don>
0

>  <a_heavy>
29

>  <a_hyd>
20

>  <a_IC>
88.532631

>  <a_ICM>
1.7025506

>  <a_nB>
0

>  <a_nBr>
0

>  <a_nC>
21

>  <a_nCl>
1

>  <a_nF>
1

>  <a_nH>
23

>  <a_nI>
0

>  <a_nN>
1

>  <a_nO>
5

>  <a_nP>
0

>  <a_nS>
0

>  <balabanJ>
1.5523006

>  <BCUT_PEOE_0>
-2.6258647

>  <BCUT_PEOE_1>
-0.55133301

>  <BCUT_PEOE_2>
0.50903189

>  <BCUT_PEOE_3>
2.6513844

>  <BCUT_SLOGP_0>
-2.5413105

>  <BCUT_SLOGP_1>
-0.36376065

>  <BCUT_SLOGP_2>
0.70364511

>  <BCUT_SLOGP_3>
2.7637398

>  <BCUT_SMR_0>
-2.3778594

>  <BCUT_SMR_1>
-0.20678528

>  <BCUT_SMR_2>
0.780406

>  <BCUT_SMR_3>
2.9217355

>  <bpol>
35.452763

>  <b_1rotN>
8

>  <b_1rotR>
0.25806451

>  <b_ar>
6

>  <b_count>
54

>  <b_double>
4

>  <b_heavy>
31

>  <b_rotN>
9

>  <b_rotR>
0.29032257

>  <b_single>
44

>  <b_triple>
0

>  <chi0>
20.965891

>  <chi0v>
17.018974

>  <chi0v_C>
13.018661

>  <chi0_C>
13.974327

>  <chi1>
13.934759

>  <chi1v>
10.197187

>  <chi1v_C>
7.1724677

>  <chi1_C>
8.2315111

>  <chiral>
0

>  <chiral_u>
0

>  <density>
0.8794558

>  <diameter>
16

>  <FCharge>
0

>  <GCUT_PEOE_0>
-0.79363382

>  <GCUT_PEOE_1>
-0.4221378

>  <GCUT_PEOE_2>
-0.061075915

>  <GCUT_PEOE_3>
2.6486402

>  <GCUT_SLOGP_0>
-1.0112256

>  <GCUT_SLOGP_1>
-0.32281989

>  <GCUT_SLOGP_2>
0.12971215

>  <GCUT_SLOGP_3>
2.7182882

>  <GCUT_SMR_0>
-0.53047013

>  <GCUT_SMR_1>
-0.17462444

>  <GCUT_SMR_2>
0.17611544

>  <GCUT_SMR_3>
2.9114096

>  <Kier1>
23.658689

>  <Kier2>
11.039481

>  <Kier3>
5.6266351

>  <KierA1>
19.620829

>  <KierA2>
9.0907917

>  <KierA3>
4.6093092

>  <KierFlex>
6.1506505

>  <lip_acc>
6

>  <lip_don>
0

>  <lip_druglike>
1

>  <lip_violation>
0

>  <logP(o/w)>
4.2157402

>  <logS>
-6.5324898

>  <mr>
10.832982

>  <mutagenic>
0

>  <nmol>
1

>  <opr_brigid>
16

>  <opr_leadlike>
1

>  <opr_nring>
3

>  <opr_nrot>
9

>  <opr_violation>
0

>  <PC+>
0

>  <PC->
0

>  <PEOE_PC+>
1.9363486

>  <PEOE_PC->
-1.9363486

>  <PEOE_RPC+>
0.15638505

>  <PEOE_RPC->
0.164691

>  <PEOE_VSA+0>
176.10197

>  <PEOE_VSA+1>
11.219297

>  <PEOE_VSA+2>
8.458519

>  <PEOE_VSA+3>
31.079319

>  <PEOE_VSA+4>
22.058474

>  <PEOE_VSA+5>
25.899061

>  <PEOE_VSA+6>
14.708499

>  <PEOE_VSA-0>
0

>  <PEOE_VSA-1>
29.581947

>  <PEOE_VSA-2>
0

>  <PEOE_VSA-3>
0

>  <PEOE_VSA-4>
11.908636

>  <PEOE_VSA-5>
43.204517

>  <PEOE_VSA-6>
2.503756

>  <PEOE_VSA_FHYD>
0.68071336

>  <PEOE_VSA_FNEG>
0.23146616

>  <PEOE_VSA_FPNEG>
0.15294197

>  <PEOE_VSA_FPOL>
0.31928664

>  <PEOE_VSA_FPOS>
0.76853383

>  <PEOE_VSA_FPPOS>
0.16634469

>  <PEOE_VSA_HYD>
256.44107

>  <PEOE_VSA_NEG>
87.19886

>  <PEOE_VSA_PNEG>
57.616909

>  <PEOE_VSA_POL>
120.28294

>  <PEOE_VSA_POS>
289.52515

>  <PEOE_VSA_PPOS>
62.666035

>  <petitjean>
0.5

>  <petitjeanSC>
1

>  <Q_PC+>
0

>  <Q_PC->
0

>  <Q_RPC+>
0

>  <Q_RPC->
0

>  <Q_VSA_FHYD>
1

>  <Q_VSA_FNEG>
0

>  <Q_VSA_FPNEG>
0

>  <Q_VSA_FPOL>
0

>  <Q_VSA_FPOS>
1

>  <Q_VSA_FPPOS>
0

>  <Q_VSA_HYD>
376.724

>  <Q_VSA_NEG>
0

>  <Q_VSA_PNEG>
0

>  <Q_VSA_POL>
0

>  <Q_VSA_POS>
376.724

>  <Q_VSA_PPOS>
0

>  <radius>
8

>  <reactive>
1

>  <rings>
3

>  <RPC+>
0

>  <RPC->
0

>  <rsynth>
1

>  <SlogP>
4.3351002

>  <SlogP_VSA0>
14.124202

>  <SlogP_VSA1>
18.263031

>  <SlogP_VSA2>
91.707558

>  <SlogP_VSA3>
41.852516

>  <SlogP_VSA4>
0

>  <SlogP_VSA5>
6.37115

>  <SlogP_VSA6>
3.5006065

>  <SlogP_VSA7>
35.286369

>  <SlogP_VSA8>
132.07884

>  <SlogP_VSA9>
95.434944

>  <SMR>
10.5376

>  <SMR_VSA0>
82.58654

>  <SMR_VSA1>
25.960001

>  <SMR_VSA2>
12.245332

>  <SMR_VSA3>
15.115185

>  <SMR_VSA4>
2.7567475

>  <SMR_VSA5>
167.3652

>  <SMR_VSA6>
60.115547

>  <SMR_VSA7>
72.474655

>  <TPSA>
72.910004

>  <VAdjEq>
0.3796615

>  <VAdjMa>
5.9541965

>  <VDistEq>
3.7235138

>  <VDistMa>
9.4031668

>  <vdw_area>
376.724

>  <vdw_vol>
455.60446

>  <vsa_acc>
43.204517

>  <vsa_acid>
0

>  <vsa_base>
0

>  <vsa_don>
0

>  <vsa_hyd>
290.40817

>  <vsa_other>
43.111317

>  <vsa_pol>
43.204517

>  <Weight>
423.86798

>  <weinerPath>
2447

>  <weinerPol>
47

>  <zagreb>
148

$$$$
FC1=CC(OCC2=O)=C(N2CC#C)C=C1N3C(C4=C(CCCC4)C3=O)=O
  MOE2011           2D

 26 29  0  0  0  0  0  0  0  0999 V2000
    0.0000    0.0000    0.0000 F   0  0  0  0  0  0  0  0  0  0  0  0
   -0.7600   -1.2930    0.0000 C   0  0  0  0  0  0  0  0  0  0  0  0
   -2.2600   -1.2820    0.0000 C   0  0  0  0  0  0  0  0  0  0  0  0
   -3.0190   -2.5760    0.0000 C   0  0  0  0  0  0  0  0  0  0  0  0
   -4.5190   -2.5650    0.0000 O   0  0  0  0  0  0  0  0  0  0  0  0
   -5.2790   -3.8580    0.0000 C   0  0  0  0  0  0  0  0  0  0  0  0
   -4.5380   -5.1630    0.0000 C   0  0  0  0  0  0  0  0  0  0  0  0
   -5.2980   -6.4560    0.0000 O   0  0  0  0  0  0  0  0  0  0  0  0
   -2.2790   -3.8800    0.0000 C   0  0  0  0  0  0  0  0  0  0  0  0
   -3.0380   -5.1740    0.0000 N   0  0  0  0  0  0  0  0  0  0  0  0
   -2.2980   -6.4780    0.0000 C   0  0  0  0  0  0  0  0  0  0  0  0
   -3.0580   -7.7720    0.0000 C   0  0  0  0  0  0  0  0  0  0  0  0
   -3.8170   -9.0650    0.0000 C   0  0  0  0  0  0  0  0  0  0  0  0
   -0.7790   -3.8910    0.0000 C   0  0  0  0  0  0  0  0  0  0  0  0
   -0.0190   -2.5980    0.0000 C   0  0  0  0  0  0  0  0  0  0  0  0
    1.4810   -2.6090    0.0000 N   0  0  0  0  0  0  0  0  0  0  0  0
    2.3710   -1.4020    0.0000 C   0  0  0  0  0  0  0  0  0  0  0  0
    3.7950   -1.8760    0.0000 C   0  0  0  0  0  0  0  0  0  0  0  0
    3.7830   -3.3760    0.0000 C   0  0  0  0  0  0  0  0  0  0  0  0
    5.0770   -4.1360    0.0000 C   0  0  0  0  0  0  0  0  0  0  0  0
    6.3810   -3.3950    0.0000 C   0  0  0  0  0  0  0  0  0  0  0  0
    6.3930   -1.8950    0.0000 C   0  0  0  0  0  0  0  0  0  0  0  0
    5.0990   -1.1360    0.0000 C   0  0  0  0  0  0  0  0  0  0  0  0
    2.3530   -3.8290    0.0000 C   0  0  0  0  0  0  0  0  0  0  0  0
    1.8790   -5.2520    0.0000 O   0  0  0  0  0  0  0  0  0  0  0  0
    1.9180    0.0280    0.0000 O   0  0  0  0  0  0  0  0  0  0  0  0
  1  2  1  0  0  0  0
  2  3  1  0  0  0  0
  2 15  2  0  0  0  0
  3  4  2  0  0  0  0
  4  5  1  0  0  0  0
  4  9  1  0  0  0  0
  5  6  1  0  0  0  0
  6  7  1  0  0  0  0
  7  8  2  0  0  0  0
  7 10  1  0  0  0  0
  9 10  1  0  0  0  0
  9 14  2  0  0  0  0
 10 11  1  0  0  0  0
 11 12  1  0  0  0  0
 12 13  3  0  0  0  0
 14 15  1  0  0  0  0
 15 16  1  0  0  0  0
 16 17  1  0  0  0  0
 16 24  1  0  0  0  0
 17 18  1  0  0  0  0
 17 26  2  0  0  0  0
 18 19  2  0  0  0  0
 18 23  1  0  0  0  0
 19 20  1  0  0  0  0
 19 24  1  0  0  0  0
 20 21  1  0  0  0  0
 21 22  1  0  0  0  0
 22 23  1  0  0  0  0
 24 25  2  0  0  0  0
M  END
>  <DSSTox_RID>
40476

>  <DSSTox_CID>
12555

>  <apol>
49.406895

>  <a_acc>
4

>  <a_acid>
0

>  <a_aro>
6

>  <a_base>
0

>  <a_count>
41

>  <a_don>
0

>  <a_heavy>
26

>  <a_hyd>
17

>  <a_IC>
70.34565

>  <a_ICM>
1.7157476

>  <a_nB>
0

>  <a_nBr>
0

>  <a_nC>
19

>  <a_nCl>
0

>  <a_nF>
1

>  <a_nH>
15

>  <a_nI>
0

>  <a_nN>
2

>  <a_nO>
4

>  <a_nP>
0

>  <a_nS>
0

>  <balabanJ>
1.5481633

>  <BCUT_PEOE_0>
-2.6258647

>  <BCUT_PEOE_1>
-0.57280791

>  <BCUT_PEOE_2>
0.57059962

>  <BCUT_PEOE_3>
2.6516666

>  <BCUT_SLOGP_0>
-2.5971627

>  <BCUT_SLOGP_1>
-0.46115461

>  <BCUT_SLOGP_2>
0.71196067

>  <BCUT_SLOGP_3>
2.7637994

>  <BCUT_SMR_0>
-2.3777153

>  <BCUT_SMR_1>
-0.34140146

>  <BCUT_SMR_2>
0.78499031

>  <BCUT_SMR_3>
2.9225307

>  <bpol>
26.351105

>  <b_1rotN>
2

>  <b_1rotR>
0.068965517

>  <b_ar>
6

>  <b_count>
44

>  <b_double>
4

>  <b_heavy>
29

>  <b_rotN>
3

>  <b_rotR>
0.10344828

>  <b_single>
33

>  <b_triple>
1

>  <chi0>
18.421921

>  <chi0v>
13.880076

>  <chi0v_C>
10.974691

>  <chi0_C>
12.560114

>  <chi1>
12.524076

>  <chi1v>
8.3360052

>  <chi1v_C>
5.6075892

>  <chi1_C>
7.2315116

>  <chiral>
0

>  <chiral_u>
0

>  <density>
0.85674047

>  <diameter>
11

>  <FCharge>
0

>  <GCUT_PEOE_0>
-0.80470198

>  <GCUT_PEOE_1>
-0.4570733

>  <GCUT_PEOE_2>
-0.0031742919

>  <GCUT_PEOE_3>
2.6797776

>  <GCUT_SLOGP_0>
-1.0119929

>  <GCUT_SLOGP_1>
-0.37986615

>  <GCUT_SLOGP_2>
0.13355401

>  <GCUT_SLOGP_3>
2.7370663

>  <GCUT_SMR_0>
-0.52199572

>  <GCUT_SMR_1>
-0.1942149

>  <GCUT_SMR_2>
0.17644513

>  <GCUT_SMR_3>
2.9545233

>  <Kier1>
19.322235

>  <Kier2>
7.7879934

>  <Kier3>
3.3378685

>  <KierA1>
13.633969

>  <KierA2>
5.4121404

>  <KierA3>
2.294374

>  <KierFlex>
2.8380368

>  <lip_acc>
6

>  <lip_don>
0

>  <lip_druglike>
1

>  <lip_violation>
0

>  <logP(o/w)>
1.58

>  <logS>
-4.9942002

>  <mr>
9.1235542

>  <mutagenic>
0

>  <nmol>
1

>  <opr_brigid>
21

>  <opr_leadlike>
1

>  <opr_nring>
4

>  <opr_nrot>
4

>  <opr_violation>
0

>  <PC+>
0

>  <PC->
0

>  <PEOE_PC+>
1.9119768

>  <PEOE_PC->
-1.9119768

>  <PEOE_RPC+>
0.14065544

>  <PEOE_RPC->
0.16675204

>  <PEOE_VSA+0>
83.459549

>  <PEOE_VSA+1>
29.207598

>  <PEOE_VSA+2>
8.458519

>  <PEOE_VSA+3>
29.320351

>  <PEOE_VSA+4>
22.058474

>  <PEOE_VSA+5>
38.848595

>  <PEOE_VSA+6>
0

>  <PEOE_VSA-0>
29.408449

>  <PEOE_VSA-1>
15.808495

>  <PEOE_VSA-2>
0

>  <PEOE_VSA-3>
0

>  <PEOE_VSA-4>
11.908636

>  <PEOE_VSA-5>
40.700764

>  <PEOE_VSA-6>
2.503756

>  <PEOE_VSA_FHYD>
0.62776232

>  <PEOE_VSA_FNEG>
0.32189769

>  <PEOE_VSA_FPNEG>
0.17682427

>  <PEOE_VSA_FPOL>
0.37223765

>  <PEOE_VSA_FPOS>
0.67810231

>  <PEOE_VSA_FPPOS>
0.19541338

>  <PEOE_VSA_HYD>
195.66296

>  <PEOE_VSA_NEG>
100.3301

>  <PEOE_VSA_PNEG>
55.113155

>  <PEOE_VSA_POL>
116.02022

>  <PEOE_VSA_POS>
211.35309

>  <PEOE_VSA_PPOS>
60.907066

>  <petitjean>
0.45454547

>  <petitjeanSC>
0.83333331

>  <Q_PC+>
0

>  <Q_PC->
0

>  <Q_RPC+>
0

>  <Q_RPC->
0

>  <Q_VSA_FHYD>
1

>  <Q_VSA_FNEG>
0

>  <Q_VSA_FPNEG>
0

>  <Q_VSA_FPOL>
0

>  <Q_VSA_FPOS>
1

>  <Q_VSA_FPPOS>
0

>  <Q_VSA_HYD>
311.6832

>  <Q_VSA_NEG>
0

>  <Q_VSA_PNEG>
0

>  <Q_VSA_POL>
0

>  <Q_VSA_POS>
311.6832

>  <Q_VSA_PPOS>
0

>  <radius>
6

>  <reactive>
1

>  <rings>
4

>  <RPC+>
0

>  <RPC->
0

>  <rsynth>
0.69230771

>  <SlogP>
1.928108

>  <SlogP_VSA0>
17.248516

>  <SlogP_VSA1>
15.776351

>  <SlogP_VSA2>
80.707664

>  <SlogP_VSA3>
56.396412

>  <SlogP_VSA4>
31.488184

>  <SlogP_VSA5>
6.37115

>  <SlogP_VSA6>
0

>  <SlogP_VSA7>
35.286369

>  <SlogP_VSA8>
75.473625

>  <SlogP_VSA9>
25.717037

>  <SMR>
9.1068001

>  <SMR_VSA0>
71.586647

>  <SMR_VSA1>
25.960001

>  <SMR_VSA2>
15.369646

>  <SMR_VSA3>
28.645151

>  <SMR_VSA4>
5.513495

>  <SMR_VSA5>
110.75999

>  <SMR_VSA6>
86.630371

>  <SMR_VSA7>
0

>  <TPSA>
66.919998

>  <VAdjEq>
0.42228913

>  <VAdjMa>
5.8579812

>  <VDistEq>
3.2300029

>  <VDistMa>
9.1368914

>  <vdw_area>
311.6832

>  <vdw_vol>
395.93903

>  <vsa_acc>
43.204517

>  <vsa_acid>
0

>  <vsa_base>
0

>  <vsa_don>
0

>  <vsa_hyd>
229.63008

>  <vsa_other>
38.848595

>  <vsa_pol>
43.204517

>  <Weight>
354.33701

>  <weinerPath>
1525

>  <weinerPol>
49

>  <zagreb>
144

$$$$
O=C(NC1=CC=CC(=C1)C(F)(F)F)N(C)C
  MOE2011           2D

 16 16  0  0  0  0  0  0  0  0999 V2000
    0.0000    0.0000    0.0000 O   0  0  0  0  0  0  0  0  0  0  0  0
    0.0050    1.5000    0.0000 C   0  0  0  0  0  0  0  0  0  0  0  0
   -1.2910    2.2550    0.0000 N   0  0  0  0  0  0  0  0  0  0  0  0
   -2.5930    1.5090    0.0000 C   0  0  0  0  0  0  0  0  0  0  0  0
   -2.5980    0.0090    0.0000 C   0  0  0  0  0  0  0  0  0  0  0  0
   -3.9000   -0.7360    0.0000 C   0  0  0  0  0  0  0  0  0  0  0  0
   -5.1960    0.0190    0.0000 C   0  0  0  0  0  0  0  0  0  0  0  0
   -5.1910    1.5190    0.0000 C   0  0  0  0  0  0  0  0  0  0  0  0
   -3.8890    2.2640    0.0000 C   0  0  0  0  0  0  0  0  0  0  0  0
   -6.4870    2.2730    0.0000 C   0  0  0  0  0  0  0  0  0  0  0  0
   -7.7830    3.0280    0.0000 F   0  0  0  0  0  0  0  0  0  0  0  0
   -7.2420    0.9770    0.0000 F   0  0  0  0  0  0  0  0  0  0  0  0
   -5.7320    3.5700    0.0000 F   0  0  0  0  0  0  0  0  0  0  0  0
    1.3070    2.2450    0.0000 N   0  0  0  0  0  0  0  0  0  0  0  0
    2.6030    1.4910    0.0000 C   0  0  0  0  0  0  0  0  0  0  0  0
    1.3120    3.7450    0.0000 C   0  0  0  0  0  0  0  0  0  0  0  0
  1  2  2  0  0  0  0
  2  3  1  0  0  0  0
  2 14  1  0  0  0  0
  3  4  1  0  0  0  0
  4  5  1  0  0  0  0
  4  9  2  0  0  0  0
  5  6  2  0  0  0  0
  6  7  1  0  0  0  0
  7  8  2  0  0  0  0
  8  9  1  0  0  0  0
  8 10  1  0  0  0  0
 10 11  1  0  0  0  0
 10 12  1  0  0  0  0
 10 13  1  0  0  0  0
 14 15  1  0  0  0  0
 14 16  1  0  0  0  0
M  END
>  <DSSTox_RID>
40477

>  <DSSTox_CID>
628

>  <apol>
29.607723

>  <a_acc>
1

>  <a_acid>
0

>  <a_aro>
6

>  <a_base>
0

>  <a_count>
27

>  <a_don>
1

>  <a_heavy>
16

>  <a_hyd>
12

>  <a_IC>
50.354046

>  <a_ICM>
1.8649647

>  <a_nB>
0

>  <a_nBr>
0

>  <a_nC>
10

>  <a_nCl>
0

>  <a_nF>
3

>  <a_nH>
11

>  <a_nI>
0

>  <a_nN>
2

>  <a_nO>
1

>  <a_nP>
0

>  <a_nS>
0

>  <balabanJ>
2.4646084

>  <BCUT_PEOE_0>
-2.4687629

>  <BCUT_PEOE_1>
-0.33589056

>  <BCUT_PEOE_2>
0.27175683

>  <BCUT_PEOE_3>
2.3892851

>  <BCUT_SLOGP_0>
-2.5945311

>  <BCUT_SLOGP_1>
-0.07665886

>  <BCUT_SLOGP_2>
0.52535373

>  <BCUT_SLOGP_3>
2.4781041

>  <BCUT_SMR_0>
-2.1682882

>  <BCUT_SMR_1>
-0.085478894

>  <BCUT_SMR_2>
0.40788099

>  <BCUT_SMR_3>
2.6771841

>  <bpol>
19.232277

>  <b_1rotN>
2

>  <b_1rotR>
0.125

>  <b_ar>
6

>  <b_count>
27

>  <b_double>
1

>  <b_heavy>
16

>  <b_rotN>
4

>  <b_rotR>
0.25

>  <b_single>
20

>  <b_triple>
0

>  <chi0>
12.344935

>  <chi0v>
8.7987566

>  <chi0v_C>
6.309401

>  <chi0_C>
7.0604777

>  <chi1>
7.3035488

>  <chi1v>
4.4604721

>  <chi1v_C>
2.0713673

>  <chi1_C>
2.9216683

>  <chiral>
0

>  <chiral_u>
0

>  <density>
0.92910457

>  <diameter>
8

>  <FCharge>
0

>  <GCUT_PEOE_0>
-0.84231716

>  <GCUT_PEOE_1>
-0.37351432

>  <GCUT_PEOE_2>
-0.052730508

>  <GCUT_PEOE_3>
2.2599564

>  <GCUT_SLOGP_0>
-1.0109357

>  <GCUT_SLOGP_1>
-0.22341749

>  <GCUT_SLOGP_2>
0.26019999

>  <GCUT_SLOGP_3>
2.3626585

>  <GCUT_SMR_0>
-0.49895602

>  <GCUT_SMR_1>
-0.13688669

>  <GCUT_SMR_2>
0.055233754

>  <GCUT_SMR_3>
2.5290816

>  <Kier1>
14.0625

>  <Kier2>
5.5576558

>  <Kier3>
4.4236112

>  <KierA1>
10.108047

>  <KierA2>
3.8981097

>  <KierA3>
3.0458419

>  <KierFlex>
2.4626424

>  <lip_acc>
3

>  <lip_don>
1

>  <lip_druglike>
1

>  <lip_violation>
0

>  <logP(o/w)>
2.0097599

>  <logS>
-2.3787501

>  <mr>
5.4119072

>  <mutagenic>
0

>  <nmol>
1

>  <opr_brigid>
6

>  <opr_leadlike>
1

>  <opr_nring>
1

>  <opr_nrot>
1

>  <opr_violation>
0

>  <PC+>
0

>  <PC->
0

>  <PEOE_PC+>
1.2317777

>  <PEOE_PC->
-1.2317777

>  <PEOE_RPC+>
0.33985507

>  <PEOE_RPC->
0.24100053

>  <PEOE_VSA+0>
63.233978

>  <PEOE_VSA+1>
8.9080906

>  <PEOE_VSA+2>
67.79892

>  <PEOE_VSA+3>
0

>  <PEOE_VSA+4>
0

>  <PEOE_VSA+5>
0

>  <PEOE_VSA+6>
26.486044

>  <PEOE_VSA-0>
0

>  <PEOE_VSA-1>
0

>  <PEOE_VSA-2>
0

>  <PEOE_VSA-3>
41.408482

>  <PEOE_VSA-4>
13.566921

>  <PEOE_VSA-5>
0

>  <PEOE_VSA-6>
0

>  <PEOE_VSA_FHYD>
0.8190943

>  <PEOE_VSA_FNEG>
0.24830532

>  <PEOE_VSA_FPNEG>
0.061277196

>  <PEOE_VSA_FPOL>
0.18090571

>  <PEOE_VSA_FPOS>
0.75169468

>  <PEOE_VSA_FPPOS>
0.11962851

>  <PEOE_VSA_HYD>
181.34947

>  <PEOE_VSA_NEG>
54.975403

>  <PEOE_VSA_PNEG>
13.566921

>  <PEOE_VSA_POL>
40.052967

>  <PEOE_VSA_POS>
166.42703

>  <PEOE_VSA_PPOS>
26.486044

>  <petitjean>
0.5

>  <petitjeanSC>
1

>  <Q_PC+>
0

>  <Q_PC->
0

>  <Q_RPC+>
0

>  <Q_RPC->
0

>  <Q_VSA_FHYD>
1

>  <Q_VSA_FNEG>
0

>  <Q_VSA_FPNEG>
0

>  <Q_VSA_FPOL>
0

>  <Q_VSA_FPOS>
1

>  <Q_VSA_FPPOS>
0

>  <Q_VSA_HYD>
221.40244

>  <Q_VSA_NEG>
0

>  <Q_VSA_PNEG>
0

>  <Q_VSA_POL>
0

>  <Q_VSA_POS>
221.40244

>  <Q_VSA_PPOS>
0

>  <radius>
4

>  <reactive>
0

>  <rings>
1

>  <RPC+>
0

>  <RPC->
0

>  <rsynth>
1

>  <SlogP>
3.1104

>  <SlogP_VSA0>
0

>  <SlogP_VSA1>
25.965021

>  <SlogP_VSA2>
0

>  <SlogP_VSA3>
0

>  <SlogP_VSA4>
3.185575

>  <SlogP_VSA5>
65.794373

>  <SlogP_VSA6>
7.7595162

>  <SlogP_VSA7>
70.572739

>  <SlogP_VSA8>
0

>  <SlogP_VSA9>
71.499306

>  <SMR>
5.4266701

>  <SMR_VSA0>
23.862217

>  <SMR_VSA1>
48.004654

>  <SMR_VSA2>
7.7595162

>  <SMR_VSA3>
3.185575

>  <SMR_VSA4>
20.767498

>  <SMR_VSA5>
70.572739

>  <SMR_VSA6>
4.8299561

>  <SMR_VSA7>
65.794373

>  <TPSA>
32.34

>  <VAdjEq>
0.54356444

>  <VAdjMa>
5

>  <VDistEq>
2.9023051

>  <VDistMa>
7.6944108

>  <vdw_area>
221.40244

>  <vdw_vol>
237.98935

>  <vsa_acc>
13.566921

>  <vsa_acid>
0

>  <vsa_base>
0

>  <vsa_don>
5.6825762

>  <vsa_hyd>
184.7124

>  <vsa_other>
17.440542

>  <vsa_pol>
19.249496

>  <Weight>
232.20499

>  <weinerPath>
457

>  <weinerPol>
21

>  <zagreb>
78

$$$$
ClC1=C(OC2=NC=NC(OC3=C(\C(C4=NOCCO4)=N/OC)C=CC=C3)=C2F)C=CC=C1
  MOE2011           2D

 32 35  0  0  0  0  0  0  0  0999 V2000
    0.0000    0.0000    0.0000 Cl  0  0  0  0  0  0  0  0  0  0  0  0
    0.0020    1.5000    0.0000 C   0  0  0  0  0  0  0  0  0  0  0  0
   -1.2960    2.2520    0.0000 C   0  0  0  0  0  0  0  0  0  0  0  0
   -2.5960    1.5030    0.0000 O   0  0  0  0  0  0  0  0  0  0  0  0
   -3.8940    2.2550    0.0000 C   0  0  0  0  0  0  0  0  0  0  0  0
   -3.8920    3.7550    0.0000 N   0  0  0  0  0  0  0  0  0  0  0  0
   -5.1900    4.5070    0.0000 C   0  0  0  0  0  0  0  0  0  0  0  0
   -6.4900    3.7590    0.0000 N   0  0  0  0  0  0  0  0  0  0  0  0
   -6.4920    2.2590    0.0000 C   0  0  0  0  0  0  0  0  0  0  0  0
   -7.7920    1.5100    0.0000 O   0  0  0  0  0  0  0  0  0  0  0  0
   -9.0900    2.2620    0.0000 C   0  0  0  0  0  0  0  0  0  0  0  0
  -10.3900    1.5140    0.0000 C   0  0  0  0  0  0  0  0  0  0  0  0
  -10.3920    0.0140    0.0000 C   0  0  0  0  0  0  0  0  0  0  0  0
  -11.6920   -0.7340    0.0000 C   0  0  0  0  0  0  0  0  0  0  0  0
  -11.6940   -2.2340    0.0000 N   0  0  0  0  0  0  0  0  0  0  0  0
  -12.9940   -2.9830    0.0000 O   0  0  0  0  0  0  0  0  0  0  0  0
  -14.2920   -2.2310    0.0000 C   0  0  0  0  0  0  0  0  0  0  0  0
  -14.2900   -0.7310    0.0000 C   0  0  0  0  0  0  0  0  0  0  0  0
  -12.9900    0.0170    0.0000 O   0  0  0  0  0  0  0  0  0  0  0  0
   -9.0940   -0.7380    0.0000 N   0  0  0  0  0  0  0  0  0  0  0  0
   -7.7940    0.0100    0.0000 O   0  0  0  0  0  0  0  0  0  0  0  0
   -6.4960   -0.7410    0.0000 C   0  0  0  0  0  0  0  0  0  0  0  0
  -11.6880    2.2660    0.0000 C   0  0  0  0  0  0  0  0  0  0  0  0
  -11.6860    3.7660    0.0000 C   0  0  0  0  0  0  0  0  0  0  0  0
  -10.3860    4.5140    0.0000 C   0  0  0  0  0  0  0  0  0  0  0  0
   -9.0880    3.7620    0.0000 C   0  0  0  0  0  0  0  0  0  0  0  0
   -5.1940    1.5070    0.0000 C   0  0  0  0  0  0  0  0  0  0  0  0
   -5.1960    0.0070    0.0000 F   0  0  0  0  0  0  0  0  0  0  0  0
   -1.2940    3.7520    0.0000 C   0  0  0  0  0  0  0  0  0  0  0  0
    0.0060    4.5000    0.0000 C   0  0  0  0  0  0  0  0  0  0  0  0
    1.3040    3.7480    0.0000 C   0  0  0  0  0  0  0  0  0  0  0  0
    1.3020    2.2480    0.0000 C   0  0  0  0  0  0  0  0  0  0  0  0
  1  2  1  0  0  0  0
  2  3  1  0  0  0  0
  2 32  2  0  0  0  0
  3  4  1  0  0  0  0
  3 29  2  0  0  0  0
  4  5  1  0  0  0  0
  5  6  1  0  0  0  0
  5 27  2  0  0  0  0
  6  7  2  0  0  0  0
  7  8  1  0  0  0  0
  8  9  2  0  0  0  0
  9 10  1  0  0  0  0
  9 27  1  0  0  0  0
 10 11  1  0  0  0  0
 11 12  1  0  0  0  0
 11 26  2  0  0  0  0
 12 13  1  0  0  0  0
 12 23  2  0  0  0  0
 13 14  1  0  0  0  0
 13 20  2  0  0  0  0
 14 15  2  0  0  0  0
 14 19  1  0  0  0  0
 15 16  1  0  0  0  0
 16 17  1  0  0  0  0
 17 18  1  0  0  0  0
 18 19  1  0  0  0  0
 20 21  1  0  0  0  0
 21 22  1  0  0  0  0
 23 24  1  0  0  0  0
 24 25  2  0  0  0  0
 25 26  1  0  0  0  0
 27 28  1  0  0  0  0
 29 30  1  0  0  0  0
 30 31  2  0  0  0  0
 31 32  1  0  0  0  0
M  END
>  <DSSTox_RID>
40478

>  <DSSTox_CID>
14625

>  <apol>
58.775688

>  <a_acc>
4

>  <a_acid>
0

>  <a_aro>
18

>  <a_base>
0

>  <a_count>
48

>  <a_don>
0

>  <a_heavy>
32

>  <a_hyd>
18

>  <a_IC>
92.229897

>  <a_ICM>
1.9214561

>  <a_nB>
0

>  <a_nBr>
0

>  <a_nC>
21

>  <a_nCl>
1

>  <a_nF>
1

>  <a_nH>
16

>  <a_nI>
0

>  <a_nN>
4

>  <a_nO>
5

>  <a_nP>
0

>  <a_nS>
0

>  <balabanJ>
1.3858633

>  <BCUT_PEOE_0>
-2.414711

>  <BCUT_PEOE_1>
-0.6472581

>  <BCUT_PEOE_2>
0.63266098

>  <BCUT_PEOE_3>
2.4507344

>  <BCUT_SLOGP_0>
-2.5380695

>  <BCUT_SLOGP_1>
-0.53977847

>  <BCUT_SLOGP_2>
0.77152276

>  <BCUT_SLOGP_3>
2.4031012

>  <BCUT_SMR_0>
-2.1939631

>  <BCUT_SMR_1>
-0.43249166

>  <BCUT_SMR_2>
0.85041362

>  <BCUT_SMR_3>
2.6799428

>  <bpol>
31.334312

>  <b_1rotN>
7

>  <b_1rotR>
0.2

>  <b_ar>
18

>  <b_count>
51

>  <b_double>
2

>  <b_heavy>
35

>  <b_rotN>
7

>  <b_rotR>
0.2

>  <b_single>
31

>  <b_triple>
0

>  <chi0>
22.338287

>  <chi0v>
17.45232

>  <chi0v_C>
12.110366

>  <chi0_C>
13.974327

>  <chi1>
15.669035

>  <chi1v>
9.6928225

>  <chi1v_C>
5.1547008

>  <chi1_C>
7.1329932

>  <chiral>
0

>  <chiral_u>
0

>  <density>
0.90209609

>  <diameter>
15

>  <FCharge>
0

>  <GCUT_PEOE_0>
-0.76451212

>  <GCUT_PEOE_1>
-0.43314829

>  <GCUT_PEOE_2>
0.061164193

>  <GCUT_PEOE_3>
2.4668157

>  <GCUT_SLOGP_0>
-0.88900352

>  <GCUT_SLOGP_1>
-0.36066365

>  <GCUT_SLOGP_2>
0.19781746

>  <GCUT_SLOGP_3>
2.5732253

>  <GCUT_SMR_0>
-0.50540096

>  <GCUT_SMR_1>
-0.19874488

>  <GCUT_SMR_2>
0.18091619

>  <GCUT_SMR_3>
2.7488434

>  <Kier1>
25.103674

>  <Kier2>
12.63015

>  <Kier3>
6.5759635

>  <KierA1>
19.311098

>  <KierA2>
9.6282034

>  <KierA3>
4.9810266

>  <KierFlex>
5.8103495

>  <lip_acc>
9

>  <lip_don>
0

>  <lip_druglike>
1

>  <lip_violation>
0

>  <logP(o/w)>
4.8189998

>  <logS>
-6.82197

>  <mr>
11.546063

>  <mutagenic>
0

>  <nmol>
1

>  <opr_brigid>
25

>  <opr_leadlike>
0

>  <opr_nring>
4

>  <opr_nrot>
8

>  <opr_violation>
3

>  <PC+>
0

>  <PC->
0

>  <PEOE_PC+>
2.2516532

>  <PEOE_PC->
-2.2516532

>  <PEOE_RPC+>
0.099388994

>  <PEOE_RPC->
0.13717256

>  <PEOE_VSA+0>
128.6765

>  <PEOE_VSA+1>
4.5197463

>  <PEOE_VSA+2>
16.917038

>  <PEOE_VSA+3>
28.758026

>  <PEOE_VSA+4>
130.37686

>  <PEOE_VSA+5>
0

>  <PEOE_VSA+6>
0

>  <PEOE_VSA-0>
0

>  <PEOE_VSA-1>
29.581947

>  <PEOE_VSA-2>
21.770523

>  <PEOE_VSA-3>
23.273788

>  <PEOE_VSA-4>
11.804719

>  <PEOE_VSA-5>
5.0075121

>  <PEOE_VSA-6>
2.503756

>  <PEOE_VSA_FHYD>
0.62872916

>  <PEOE_VSA_FNEG>
0.23299722

>  <PEOE_VSA_FPNEG>
0.047907852

>  <PEOE_VSA_FPOL>
0.37127084

>  <PEOE_VSA_FPOS>
0.76700276

>  <PEOE_VSA_FPPOS>
0.32336301

>  <PEOE_VSA_HYD>
253.49756

>  <PEOE_VSA_NEG>
93.942245

>  <PEOE_VSA_PNEG>
19.315987

>  <PEOE_VSA_POL>
149.69284

>  <PEOE_VSA_POS>
309.24817

>  <PEOE_VSA_PPOS>
130.37686

>  <petitjean>
0.46666667

>  <petitjeanSC>
0.875

>  <Q_PC+>
0

>  <Q_PC->
0

>  <Q_RPC+>
0

>  <Q_RPC->
0

>  <Q_VSA_FHYD>
1

>  <Q_VSA_FNEG>
0

>  <Q_VSA_FPNEG>
0

>  <Q_VSA_FPOL>
0

>  <Q_VSA_FPOS>
1

>  <Q_VSA_FPPOS>
0

>  <Q_VSA_HYD>
403.1904

>  <Q_VSA_NEG>
0

>  <Q_VSA_PNEG>
0

>  <Q_VSA_POL>
0

>  <Q_VSA_POS>
403.1904

>  <Q_VSA_PPOS>
0

>  <radius>
8

>  <reactive>
0

>  <rings>
4

>  <RPC+>
0

>  <RPC->
0

>  <rsynth>
1

>  <SlogP>
4.5644999

>  <SlogP_VSA0>
21.999775

>  <SlogP_VSA1>
41.142406

>  <SlogP_VSA2>
42.558434

>  <SlogP_VSA3>
41.852516

>  <SlogP_VSA4>
3.185575

>  <SlogP_VSA5>
74.183594

>  <SlogP_VSA6>
3.5006065

>  <SlogP_VSA7>
157.931

>  <SlogP_VSA8>
0

>  <SlogP_VSA9>
74.224815

>  <SMR>
11.2917

>  <SMR_VSA0>
33.437416

>  <SMR_VSA1>
109.33067

>  <SMR_VSA2>
9.1210184

>  <SMR_VSA3>
26.802238

>  <SMR_VSA4>
0

>  <SMR_VSA5>
157.931

>  <SMR_VSA6>
49.423866

>  <SMR_VSA7>
74.532509

>  <TPSA>
96.650002

>  <VAdjEq>
0.3597711

>  <VAdjMa>
6.129283

>  <VDistEq>
3.6686997

>  <VDistMa>
9.7212372

>  <vdw_area>
403.1904

>  <vdw_vol>
490.75146

>  <vsa_acc>
33.135677

>  <vsa_acid>
0

>  <vsa_base>
0

>  <vsa_don>
0

>  <vsa_hyd>
280.40009

>  <vsa_other>
89.654648

>  <vsa_pol>
33.135677

>  <Weight>
458.83298

>  <weinerPath>
3020

>  <weinerPol>
51

>  <zagreb>
164

$$$$
O=C(CSC1=C(Cl)C=C(F)C(/N=C(SC3=O)/N2N3CCCC2)=C1)OC
  MOE2011           2D

 25 27  0  0  0  0  0  0  0  0999 V2000
    0.0000    0.0000    0.0000 O   0  0  0  0  0  0  0  0  0  0  0  0
    0.7490   -1.3000    0.0000 C   0  0  0  0  0  0  0  0  0  0  0  0
   -0.0020   -2.5980    0.0000 C   0  0  0  0  0  0  0  0  0  0  0  0
   -1.5020   -2.5970    0.0000 S   0  0  0  0  0  0  0  0  0  0  0  0
   -2.2530   -3.8950    0.0000 C   0  0  0  0  0  0  0  0  0  0  0  0
   -1.5040   -5.1950    0.0000 C   0  0  0  0  0  0  0  0  0  0  0  0
   -0.0040   -5.1960    0.0000 Cl  0  0  0  0  0  0  0  0  0  0  0  0
   -2.2550   -6.4930    0.0000 C   0  0  0  0  0  0  0  0  0  0  0  0
   -3.7550   -6.4920    0.0000 C   0  0  0  0  0  0  0  0  0  0  0  0
   -4.5060   -7.7910    0.0000 F   0  0  0  0  0  0  0  0  0  0  0  0
   -4.5040   -5.1930    0.0000 C   0  0  0  0  0  0  0  0  0  0  0  0
   -6.0040   -5.1920    0.0000 N   0  0  0  0  0  0  0  0  0  0  0  0
   -6.7530   -3.8920    0.0000 C   0  0  0  0  0  0  0  0  0  0  0  0
   -6.1420   -2.5220    0.0000 S   0  0  0  0  0  0  0  0  0  0  0  0
   -7.2560   -1.5180    0.0000 C   0  0  0  0  0  0  0  0  0  0  0  0
   -7.0980   -0.0260    0.0000 O   0  0  0  0  0  0  0  0  0  0  0  0
   -8.2450   -3.7340    0.0000 N   0  0  0  0  0  0  0  0  0  0  0  0
   -8.5550   -2.2670    0.0000 N   0  0  0  0  0  0  0  0  0  0  0  0
   -9.9820   -1.8020    0.0000 C   0  0  0  0  0  0  0  0  0  0  0  0
  -11.0970   -2.8050    0.0000 C   0  0  0  0  0  0  0  0  0  0  0  0
  -10.7860   -4.2720    0.0000 C   0  0  0  0  0  0  0  0  0  0  0  0
   -9.3600   -4.7370    0.0000 C   0  0  0  0  0  0  0  0  0  0  0  0
   -3.7530   -3.8940    0.0000 C   0  0  0  0  0  0  0  0  0  0  0  0
    2.2490   -1.3010    0.0000 O   0  0  0  0  0  0  0  0  0  0  0  0
    3.0000   -0.0020    0.0000 C   0  0  0  0  0  0  0  0  0  0  0  0
  1  2  2  0  0  0  0
  2  3  1  0  0  0  0
  2 24  1  0  0  0  0
  3  4  1  0  0  0  0
  4  5  1  0  0  0  0
  5  6  1  0  0  0  0
  5 23  2  0  0  0  0
  6  7  1  0  0  0  0
  6  8  2  0  0  0  0
  8  9  1  0  0  0  0
  9 10  1  0  0  0  0
  9 11  2  0  0  0  0
 11 12  1  0  0  0  0
 11 23  1  0  0  0  0
 12 13  2  0  0  0  0
 13 14  1  0  0  0  0
 13 17  1  0  0  0  0
 14 15  1  0  0  0  0
 15 16  2  0  0  0  0
 15 18  1  0  0  0  0
 17 18  1  0  0  0  0
 17 22  1  0  0  0  0
 18 19  1  0  0  0  0
 19 20  1  0  0  0  0
 20 21  1  0  0  0  0
 21 22  1  0  0  0  0
 24 25  1  0  0  0  0
M  END
>  <DSSTox_RID>
40481

>  <DSSTox_CID>
12556

>  <apol>
50.644894

>  <a_acc>
3

>  <a_acid>
0

>  <a_aro>
6

>  <a_base>
0

>  <a_count>
40

>  <a_don>
0

>  <a_heavy>
25

>  <a_hyd>
16

>  <a_IC>
84.160629

>  <a_ICM>
2.1040158

>  <a_nB>
0

>  <a_nBr>
0

>  <a_nC>
15

>  <a_nCl>
1

>  <a_nF>
1

>  <a_nH>
15

>  <a_nI>
0

>  <a_nN>
3

>  <a_nO>
3

>  <a_nP>
0

>  <a_nS>
2

>  <balabanJ>
1.5727177

>  <BCUT_PEOE_0>
-2.6937938

>  <BCUT_PEOE_1>
-0.6442672

>  <BCUT_PEOE_2>
0.49753794

>  <BCUT_PEOE_3>
2.6702929

>  <BCUT_SLOGP_0>
-2.746592

>  <BCUT_SLOGP_1>
-0.38292444

>  <BCUT_SLOGP_2>
0.73028821

>  <BCUT_SLOGP_3>
2.6645782

>  <BCUT_SMR_0>
-2.4321082

>  <BCUT_SMR_1>
-0.35081393

>  <BCUT_SMR_2>
0.8351174

>  <BCUT_SMR_3>
2.9536641

>  <bpol>
30.373104

>  <b_1rotN>
4

>  <b_1rotR>
0.14814815

>  <b_ar>
6

>  <b_count>
42

>  <b_double>
3

>  <b_heavy>
27

>  <b_rotN>
5

>  <b_rotR>
0.18518518

>  <b_single>
33

>  <b_triple>
0

>  <chi0>
17.974327

>  <chi0v>
15.717968

>  <chi0v_C>
9.1902342

>  <chi0_C>
9.9911995

>  <chi1>
11.990402

>  <chi1v>
9.7148294

>  <chi1v_C>
3.5082538

>  <chi1_C>
4.2079082

>  <chiral>
0

>  <chiral_u>
0

>  <density>
0.97678363

>  <diameter>
13

>  <FCharge>
0

>  <GCUT_PEOE_0>
-0.86419284

>  <GCUT_PEOE_1>
-0.4225207

>  <GCUT_PEOE_2>
-0.075904123

>  <GCUT_PEOE_3>
2.5172315

>  <GCUT_SLOGP_0>
-0.99985719

>  <GCUT_SLOGP_1>
-0.28310776

>  <GCUT_SLOGP_2>
0.26085064

>  <GCUT_SLOGP_3>
2.5912423

>  <GCUT_SMR_0>
-0.52100265

>  <GCUT_SMR_1>
-0.17919846

>  <GCUT_SMR_2>
0.2754876

>  <GCUT_SMR_3>
2.813776

>  <Kier1>
19.753086

>  <Kier2>
8.792244

>  <Kier3>
4.6464

>  <KierA1>
18.273994

>  <KierA2>
8.1064119

>  <KierA3>
4.2731266

>  <KierFlex>
5.9254613

>  <lip_acc>
6

>  <lip_don>
0

>  <lip_druglike>
1

>  <lip_violation>
0

>  <logP(o/w)>
3.6159999

>  <logS>
-5.4224

>  <mr>
9.8156185

>  <mutagenic>
0

>  <nmol>
1

>  <opr_brigid>
17

>  <opr_leadlike>
1

>  <opr_nring>
3

>  <opr_nrot>
5

>  <opr_violation>
0

>  <PC+>
0

>  <PC->
0

>  <PEOE_PC+>
1.8995712

>  <PEOE_PC->
-1.8995712

>  <PEOE_RPC+>
0.16268004

>  <PEOE_RPC->
0.15685898

>  <PEOE_VSA+0>
87.179199

>  <PEOE_VSA+1>
4.5197463

>  <PEOE_VSA+2>
47.298565

>  <PEOE_VSA+3>
75.630455

>  <PEOE_VSA+4>
0

>  <PEOE_VSA+5>
14.708499

>  <PEOE_VSA+6>
14.925592

>  <PEOE_VSA-0>
0

>  <PEOE_VSA-1>
29.581947

>  <PEOE_VSA-2>
19.760618

>  <PEOE_VSA-3>
0

>  <PEOE_VSA-4>
17.591211

>  <PEOE_VSA-5>
29.637598

>  <PEOE_VSA-6>
0

>  <PEOE_VSA_FHYD>
0.77448541

>  <PEOE_VSA_FNEG>
0.2833389

>  <PEOE_VSA_FPNEG>
0.1385686

>  <PEOE_VSA_FPOL>
0.22551456

>  <PEOE_VSA_FPOS>
0.7166611

>  <PEOE_VSA_FPPOS>
0.086945966

>  <PEOE_VSA_HYD>
263.97052

>  <PEOE_VSA_NEG>
96.571373

>  <PEOE_VSA_PNEG>
47.228809

>  <PEOE_VSA_POL>
76.8629

>  <PEOE_VSA_POS>
244.26205

>  <PEOE_VSA_PPOS>
29.634092

>  <petitjean>
0.46153846

>  <petitjeanSC>
0.85714287

>  <Q_PC+>
0

>  <Q_PC->
0

>  <Q_RPC+>
0

>  <Q_RPC->
0

>  <Q_VSA_FHYD>
1

>  <Q_VSA_FNEG>
0

>  <Q_VSA_FPNEG>
0

>  <Q_VSA_FPOL>
0

>  <Q_VSA_FPOS>
1

>  <Q_VSA_FPPOS>
0

>  <Q_VSA_HYD>
340.83344

>  <Q_VSA_NEG>
0

>  <Q_VSA_PNEG>
0

>  <Q_VSA_POL>
0

>  <Q_VSA_POS>
340.83344

>  <Q_VSA_PPOS>
0

>  <radius>
7

>  <reactive>
1

>  <rings>
3

>  <RPC+>
0

>  <RPC->
0

>  <rsynth>
0.60000002

>  <SlogP>
3.9112999

>  <SlogP_VSA0>
0

>  <SlogP_VSA1>
18.066069

>  <SlogP_VSA2>
43.983124

>  <SlogP_VSA3>
54.11272

>  <SlogP_VSA4>
0

>  <SlogP_VSA5>
53.720131

>  <SlogP_VSA6>
3.5006065

>  <SlogP_VSA7>
35.286369

>  <SlogP_VSA8>
37.736813

>  <SlogP_VSA9>
145.16681

>  <SMR>
9.6879997

>  <SMR_VSA0>
58.724319

>  <SMR_VSA1>
37.749226

>  <SMR_VSA2>
10.671752

>  <SMR_VSA3>
3.5006065

>  <SMR_VSA4>
2.7567475

>  <SMR_VSA5>
73.023178

>  <SMR_VSA6>
66.175209

>  <SMR_VSA7>
138.97159

>  <TPSA>
62.209999

>  <VAdjEq>
0.42433795

>  <VAdjMa>
5.7548876

>  <VDistEq>
3.4484382

>  <VDistMa>
8.992588

>  <vdw_area>
340.83344

>  <vdw_vol>
398.00626

>  <vsa_acc>
32.816418

>  <vsa_acid>
0

>  <vsa_base>
0

>  <vsa_don>
0

>  <vsa_hyd>
262.71252

>  <vsa_other>
45.304474

>  <vsa_pol>
32.816418

>  <Weight>
403.88599

>  <weinerPath>
1565

>  <weinerPol>
39

>  <zagreb>
130

$$$$
CC(C)Oc1cccc(c1)NC(=O)c2ccccc2C(F)(F)F
  MOE2011           2D

 23 24  0  0  0  0  0  0  0  0999 V2000
    0.0000    0.0000    0.0000 C   0  0  0  0  0  0  0  0  0  0  0  0
   -1.3030   -0.7420    0.0000 C   0  0  0  0  0  0  0  0  0  0  0  0
   -1.3120   -2.2420    0.0000 C   0  0  0  0  0  0  0  0  0  0  0  0
   -2.5980    0.0150    0.0000 O   0  0  0  0  0  0  0  0  0  0  0  0
   -3.9010   -0.7270    0.0000 C   0  0  0  0  0  0  0  0  0  0  0  0
   -3.9100   -2.2270    0.0000 C   0  0  0  0  0  0  0  0  0  0  0  0
   -5.2140   -2.9700    0.0000 C   0  0  0  0  0  0  0  0  0  0  0  0
   -6.5080   -2.2120    0.0000 C   0  0  0  0  0  0  0  0  0  0  0  0
   -6.4990   -0.7120    0.0000 C   0  0  0  0  0  0  0  0  0  0  0  0
   -5.1960    0.0300    0.0000 C   0  0  0  0  0  0  0  0  0  0  0  0
   -7.7940    0.0460    0.0000 N   0  0  0  0  0  0  0  0  0  0  0  0
   -9.0970   -0.6970    0.0000 C   0  0  0  0  0  0  0  0  0  0  0  0
   -9.1060   -2.1970    0.0000 O   0  0  0  0  0  0  0  0  0  0  0  0
  -10.3920    0.0610    0.0000 C   0  0  0  0  0  0  0  0  0  0  0  0
  -10.3830    1.5610    0.0000 C   0  0  0  0  0  0  0  0  0  0  0  0
  -11.6780    2.3180    0.0000 C   0  0  0  0  0  0  0  0  0  0  0  0
  -12.9810    1.5760    0.0000 C   0  0  0  0  0  0  0  0  0  0  0  0
  -12.9900    0.0760    0.0000 C   0  0  0  0  0  0  0  0  0  0  0  0
  -11.6960   -0.6820    0.0000 C   0  0  0  0  0  0  0  0  0  0  0  0
  -11.7040   -2.1820    0.0000 C   0  0  0  0  0  0  0  0  0  0  0  0
  -13.2040   -2.1730    0.0000 F   0  0  0  0  0  0  0  0  0  0  0  0
  -11.7130   -3.6820    0.0000 F   0  0  0  0  0  0  0  0  0  0  0  0
  -10.2040   -2.1900    0.0000 F   0  0  0  0  0  0  0  0  0  0  0  0
  1  2  1  0  0  0  0
  2  3  1  0  0  0  0
  2  4  1  0  0  0  0
  4  5  1  0  0  0  0
  5  6  1  0  0  0  0
  5 10  2  0  0  0  0
  6  7  2  0  0  0  0
  7  8  1  0  0  0  0
  8  9  2  0  0  0  0
  9 10  1  0  0  0  0
  9 11  1  0  0  0  0
 11 12  1  0  0  0  0
 12 13  2  0  0  0  0
 12 14  1  0  0  0  0
 14 15  1  0  0  0  0
 14 19  2  0  0  0  0
 15 16  2  0  0  0  0
 16 17  1  0  0  0  0
 17 18  2  0  0  0  0
 18 19  1  0  0  0  0
 19 20  1  0  0  0  0
 20 21  1  0  0  0  0
 20 22  1  0  0  0  0
 20 23  1  0  0  0  0
M  END
>  <DSSTox_RID>
40482

>  <DSSTox_CID>
4109

>  <apol>
44.963688

>  <a_acc>
2

>  <a_acid>
0

>  <a_aro>
12

>  <a_base>
0

>  <a_count>
39

>  <a_don>
1

>  <a_heavy>
23

>  <a_hyd>
19

>  <a_IC>
65.888931

>  <a_ICM>
1.6894598

>  <a_nB>
0

>  <a_nBr>
0

>  <a_nC>
17

>  <a_nCl>
0

>  <a_nF>
3

>  <a_nH>
16

>  <a_nI>
0

>  <a_nN>
1

>  <a_nO>
2

>  <a_nP>
0

>  <a_nS>
0

>  <balabanJ>
1.9077928

>  <BCUT_PEOE_0>
-2.5097368

>  <BCUT_PEOE_1>
-0.54485613

>  <BCUT_PEOE_2>
0.60859156

>  <BCUT_PEOE_3>
2.4783688

>  <BCUT_SLOGP_0>
-2.5089848

>  <BCUT_SLOGP_1>
-0.44448051

>  <BCUT_SLOGP_2>
0.70088923

>  <BCUT_SLOGP_3>
2.5200939

>  <BCUT_SMR_0>
-2.2717266

>  <BCUT_SMR_1>
-0.41250598

>  <BCUT_SMR_2>
0.74539435

>  <BCUT_SMR_3>
2.7154779

>  <bpol>
24.634312

>  <b_1rotN>
4

>  <b_1rotR>
0.16666667

>  <b_ar>
12

>  <b_count>
40

>  <b_double>
1

>  <b_heavy>
24

>  <b_rotN>
6

>  <b_rotR>
0.25

>  <b_single>
27

>  <b_triple>
0

>  <chi0>
17.03517

>  <chi0v>
12.646543

>  <chi0v_C>
10.196153

>  <chi0_C>
11.620955

>  <chi1>
10.769876

>  <chi1v>
7.0143151

>  <chi1v_C>
5.3034182

>  <chi1_C>
7.0595322

>  <chiral>
0

>  <chiral_u>
0

>  <density>
0.86434692

>  <diameter>
11

>  <FCharge>
0

>  <GCUT_PEOE_0>
-0.8093577

>  <GCUT_PEOE_1>
-0.34752908

>  <GCUT_PEOE_2>
0.065048143

>  <GCUT_PEOE_3>
2.4381793

>  <GCUT_SLOGP_0>
-0.99315566

>  <GCUT_SLOGP_1>
-0.26886523

>  <GCUT_SLOGP_2>
0.20046005

>  <GCUT_SLOGP_3>
2.5590043

>  <GCUT_SMR_0>
-0.52177644

>  <GCUT_SMR_1>
-0.18967372

>  <GCUT_SMR_2>
0.16606729

>  <GCUT_SMR_3>
2.7144668

>  <Kier1>
19.326389

>  <Kier2>
8.3927336

>  <Kier3>
5.7856674

>  <KierA1>
14.143347

>  <KierA2>
6.0475864

>  <KierA3>
4.1201992

>  <KierFlex>
3.7188311

>  <lip_acc>
3

>  <lip_don>
1

>  <lip_druglike>
1

>  <lip_violation>
1

>  <logP(o/w)>
4.58776

>  <logS>
-5.11622

>  <mr>
8.2646046

>  <mutagenic>
0

>  <nmol>
1

>  <opr_brigid>
12

>  <opr_leadlike>
1

>  <opr_nring>
2

>  <opr_nrot>
4

>  <opr_violation>
1

>  <PC+>
0

>  <PC->
0

>  <PEOE_PC+>
1.3034608

>  <PEOE_PC->
-1.3034608

>  <PEOE_RPC+>
0.32124329

>  <PEOE_RPC->
0.25534287

>  <PEOE_VSA+0>
169.47636

>  <PEOE_VSA+1>
19.57515

>  <PEOE_VSA+2>
8.458519

>  <PEOE_VSA+3>
0

>  <PEOE_VSA+4>
0

>  <PEOE_VSA+5>
12.949531

>  <PEOE_VSA+6>
9.0455017

>  <PEOE_VSA-0>
15.808495

>  <PEOE_VSA-1>
0

>  <PEOE_VSA-2>
0

>  <PEOE_VSA-3>
35.725906

>  <PEOE_VSA-4>
5.6825762

>  <PEOE_VSA-5>
13.566921

>  <PEOE_VSA-6>
2.503756

>  <PEOE_VSA_FHYD>
0.85058272

>  <PEOE_VSA_FNEG>
0.25030559

>  <PEOE_VSA_FPNEG>
0.074295744

>  <PEOE_VSA_FPOL>
0.14941727

>  <PEOE_VSA_FPOS>
0.74969441

>  <PEOE_VSA_FPPOS>
0.075121514

>  <PEOE_VSA_HYD>
249.04443

>  <PEOE_VSA_NEG>
73.287651

>  <PEOE_VSA_PNEG>
21.753254

>  <PEOE_VSA_POL>
43.748287

>  <PEOE_VSA_POS>
219.50507

>  <PEOE_VSA_PPOS>
21.995033

>  <petitjean>
0.45454547

>  <petitjeanSC>
0.83333331

>  <Q_PC+>
0

>  <Q_PC->
0

>  <Q_RPC+>
0

>  <Q_RPC->
0

>  <Q_VSA_FHYD>
1

>  <Q_VSA_FNEG>
0

>  <Q_VSA_FPNEG>
0

>  <Q_VSA_FPOL>
0

>  <Q_VSA_FPOS>
1

>  <Q_VSA_FPPOS>
0

>  <Q_VSA_HYD>
292.79272

>  <Q_VSA_NEG>
0

>  <Q_VSA_PNEG>
0

>  <Q_VSA_POL>
0

>  <Q_VSA_POS>
292.79272

>  <Q_VSA_PPOS>
0

>  <radius>
6

>  <reactive>
0

>  <rings>
2

>  <RPC+>
0

>  <RPC->
0

>  <rsynth>
1

>  <SlogP>
5.0563998

>  <SlogP_VSA0>
10.999887

>  <SlogP_VSA1>
23.269535

>  <SlogP_VSA2>
6.4686494

>  <SlogP_VSA3>
0

>  <SlogP_VSA4>
30.233366

>  <SlogP_VSA5>
0

>  <SlogP_VSA6>
7.7595162

>  <SlogP_VSA7>
141.14548

>  <SlogP_VSA8>
0

>  <SlogP_VSA9>
119.53255

>  <SMR>
8.17202

>  <SMR_VSA0>
23.862217

>  <SMR_VSA1>
55.880226

>  <SMR_VSA2>
7.7595162

>  <SMR_VSA3>
18.083227

>  <SMR_VSA4>
20.767498

>  <SMR_VSA5>
141.14548

>  <SMR_VSA6>
5.2587838

>  <SMR_VSA7>
66.652031

>  <TPSA>
38.330002

>  <VAdjEq>
0.43892586

>  <VAdjMa>
5.5849624

>  <VDistEq>
3.3424048

>  <VDistMa>
8.7510242

>  <vdw_area>
292.79272

>  <vdw_vol>
355.39664

>  <vsa_acc>
16.070677

>  <vsa_acid>
0

>  <vsa_base>
0

>  <vsa_don>
5.6825762

>  <vsa_hyd>
258.08994

>  <vsa_other>
12.949531

>  <vsa_pol>
21.753254

>  <Weight>
323.314

>  <weinerPath>
1252

>  <weinerPol>
33

>  <zagreb>
116

$$$$
O=C1N(C(=O)C2=C1C=CC=C2)SC(Cl)(Cl)Cl
  MOE2011           2D

 16 17  0  0  0  0  0  0  0  0999 V2000
    0.0000    0.0000    0.0000 O   0  0  0  0  0  0  0  0  0  0  0  0
    0.0930   -1.4970    0.0000 C   0  0  0  0  0  0  0  0  0  0  0  0
   -1.0640   -2.4520    0.0000 N   0  0  0  0  0  0  0  0  0  0  0  0
   -0.5130   -3.8470    0.0000 C   0  0  0  0  0  0  0  0  0  0  0  0
   -1.3180   -5.1130    0.0000 O   0  0  0  0  0  0  0  0  0  0  0  0
    0.9840   -3.7550    0.0000 C   0  0  0  0  0  0  0  0  0  0  0  0
    1.3590   -2.3020    0.0000 C   0  0  0  0  0  0  0  0  0  0  0  0
    2.8040   -1.9000    0.0000 C   0  0  0  0  0  0  0  0  0  0  0  0
    3.8750   -2.9500    0.0000 C   0  0  0  0  0  0  0  0  0  0  0  0
    3.5000   -4.4030    0.0000 C   0  0  0  0  0  0  0  0  0  0  0  0
    2.0550   -4.8050    0.0000 C   0  0  0  0  0  0  0  0  0  0  0  0
   -2.5160   -2.0780    0.0000 S   0  0  0  0  0  0  0  0  0  0  0  0
   -3.5670   -3.1490    0.0000 C   0  0  0  0  0  0  0  0  0  0  0  0
   -4.6170   -4.2190    0.0000 Cl  0  0  0  0  0  0  0  0  0  0  0  0
   -2.4960   -4.1990    0.0000 Cl  0  0  0  0  0  0  0  0  0  0  0  0
   -4.6380   -2.0980    0.0000 Cl  0  0  0  0  0  0  0  0  0  0  0  0
  1  2  2  0  0  0  0
  2  3  1  0  0  0  0
  2  7  1  0  0  0  0
  3  4  1  0  0  0  0
  3 12  1  0  0  0  0
  4  5  2  0  0  0  0
  4  6  1  0  0  0  0
  6  7  1  0  0  0  0
  6 11  2  0  0  0  0
  7  8  2  0  0  0  0
  8  9  1  0  0  0  0
  9 10  2  0  0  0  0
 10 11  1  0  0  0  0
 12 13  1  0  0  0  0
 13 14  1  0  0  0  0
 13 15  1  0  0  0  0
 13 16  1  0  0  0  0
M  END
>  <DSSTox_RID>
40483

>  <DSSTox_CID>
1385

>  <apol>
30.651173

>  <a_acc>
2

>  <a_acid>
0

>  <a_aro>
6

>  <a_base>
0

>  <a_count>
20

>  <a_don>
0

>  <a_heavy>
16

>  <a_hyd>
9

>  <a_IC>
43.15435

>  <a_ICM>
2.1577175

>  <a_nB>
0

>  <a_nBr>
0

>  <a_nC>
9

>  <a_nCl>
3

>  <a_nF>
0

>  <a_nH>
4

>  <a_nI>
0

>  <a_nN>
1

>  <a_nO>
2

>  <a_nP>
0

>  <a_nS>
1

>  <balabanJ>
2.102649

>  <BCUT_PEOE_0>
-2.1705112

>  <BCUT_PEOE_1>
-0.53604782

>  <BCUT_PEOE_2>
0.57399243

>  <BCUT_PEOE_3>
2.4188325

>  <BCUT_SLOGP_0>
-2.2541196

>  <BCUT_SLOGP_1>
-0.36984071

>  <BCUT_SLOGP_2>
0.75787961

>  <BCUT_SLOGP_3>
2.4428291

>  <BCUT_SMR_0>
-1.8058943

>  <BCUT_SMR_1>
-0.31051278

>  <BCUT_SMR_2>
0.83639205

>  <BCUT_SMR_3>
2.7585628

>  <bpol>
11.808828

>  <b_1rotN>
1

>  <b_1rotR>
0.05882353

>  <b_ar>
6

>  <b_count>
21

>  <b_double>
2

>  <b_heavy>
17

>  <b_rotN>
2

>  <b_rotR>
0.11764706

>  <b_single>
13

>  <b_triple>
0

>  <chi0>
11.922285

>  <chi0v>
10.699536

>  <chi0v_C>
4.809401

>  <chi0_C>
5.6378284

>  <chi1>
7.3996654

>  <chi1v>
6.0437474

>  <chi1v_C>
2.3273504

>  <chi1_C>
3.3164966

>  <chiral>
0

>  <chiral_u>
0

>  <density>
1.0975432

>  <diameter>
7

>  <FCharge>
0

>  <GCUT_PEOE_0>
-0.73878807

>  <GCUT_PEOE_1>
-0.43652564

>  <GCUT_PEOE_2>
0.03457091

>  <GCUT_PEOE_3>
2.2077184

>  <GCUT_SLOGP_0>
-0.94100142

>  <GCUT_SLOGP_1>
-0.3150472

>  <GCUT_SLOGP_2>
0.45088363

>  <GCUT_SLOGP_3>
2.2762485

>  <GCUT_SMR_0>
-0.39894781

>  <GCUT_SMR_1>
-0.17495984

>  <GCUT_SMR_2>
0.4253

>  <GCUT_SMR_3>
2.5321226

>  <Kier1>
12.456747

>  <Kier2>
4.3491125

>  <Kier3>
2.4882813

>  <KierA1>
13.247801

>  <KierA2>
4.6450315

>  <KierA3>
2.6660657

>  <KierFlex>
3.8460283

>  <lip_acc>
3

>  <lip_don>
0

>  <lip_druglike>
1

>  <lip_violation>
0

>  <logP(o/w)>
4.2110801

>  <logS>
-5.5022502

>  <mr>
6.5097919

>  <mutagenic>
1

>  <nmol>
1

>  <opr_brigid>
10

>  <opr_leadlike>
1

>  <opr_nring>
2

>  <opr_nrot>
1

>  <opr_violation>
0

>  <PC+>
0

>  <PC->
0

>  <PEOE_PC+>
0.95357609

>  <PEOE_PC->
-0.95357609

>  <PEOE_RPC+>
0.28595766

>  <PEOE_RPC->
0.27896607

>  <PEOE_VSA+0>
86.587402

>  <PEOE_VSA+1>
4.4170794

>  <PEOE_VSA+2>
0

>  <PEOE_VSA+3>
0

>  <PEOE_VSA+4>
0

>  <PEOE_VSA+5>
25.899061

>  <PEOE_VSA+6>
0

>  <PEOE_VSA-0>
0

>  <PEOE_VSA-1>
88.745842

>  <PEOE_VSA-2>
0

>  <PEOE_VSA-3>
0

>  <PEOE_VSA-4>
0

>  <PEOE_VSA-5>
27.133842

>  <PEOE_VSA-6>
0

>  <PEOE_VSA_FHYD>
0.77217901

>  <PEOE_VSA_FNEG>
0.49780083

>  <PEOE_VSA_FPNEG>
0.1165627

>  <PEOE_VSA_FPOL>
0.22782098

>  <PEOE_VSA_FPOS>
0.50219917

>  <PEOE_VSA_FPPOS>
0.11125828

>  <PEOE_VSA_HYD>
179.75032

>  <PEOE_VSA_NEG>
115.87968

>  <PEOE_VSA_PNEG>
27.133842

>  <PEOE_VSA_POL>
53.032902

>  <PEOE_VSA_POS>
116.90355

>  <PEOE_VSA_PPOS>
25.899061

>  <petitjean>
0.42857143

>  <petitjeanSC>
0.75

>  <Q_PC+>
0

>  <Q_PC->
0

>  <Q_RPC+>
0

>  <Q_RPC->
0

>  <Q_VSA_FHYD>
1

>  <Q_VSA_FNEG>
0

>  <Q_VSA_FPNEG>
0

>  <Q_VSA_FPOL>
0

>  <Q_VSA_FPOS>
1

>  <Q_VSA_FPPOS>
0

>  <Q_VSA_HYD>
232.78323

>  <Q_VSA_NEG>
0

>  <Q_VSA_PNEG>
0

>  <Q_VSA_POL>
0

>  <Q_VSA_POS>
232.78323

>  <Q_VSA_PPOS>
0

>  <radius>
4

>  <reactive>
0

>  <rings>
2

>  <RPC+>
0

>  <RPC->
0

>  <rsynth>
1

>  <SlogP>
3.2585001

>  <SlogP_VSA0>
0

>  <SlogP_VSA1>
12.036128

>  <SlogP_VSA2>
0

>  <SlogP_VSA3>
0

>  <SlogP_VSA4>
54.095581

>  <SlogP_VSA5>
0

>  <SlogP_VSA6>
0

>  <SlogP_VSA7>
70.572739

>  <SlogP_VSA8>
0

>  <SlogP_VSA9>
149.42696

>  <SMR>
6.4823999

>  <SMR_VSA0>
47.724434

>  <SMR_VSA1>
1.5185606

>  <SMR_VSA2>
0

>  <SMR_VSA3>
6.37115

>  <SMR_VSA4>
0

>  <SMR_VSA5>
70.572739

>  <SMR_VSA6>
10.517568

>  <SMR_VSA7>
149.42696

>  <TPSA>
37.380001

>  <VAdjEq>
0.56510133

>  <VAdjMa>
5.0874629

>  <VDistEq>
2.6690199

>  <VDistMa>
7.7233143

>  <vdw_area>
232.78323

>  <vdw_vol>
266.53073

>  <vsa_acc>
27.133842

>  <vsa_acid>
0

>  <vsa_base>
0

>  <vsa_don>
0

>  <vsa_hyd>
156.3969

>  <vsa_other>
49.252491

>  <vsa_pol>
27.133842

>  <Weight>
296.561

>  <weinerPath>
405

>  <weinerPol>
24

>  <zagreb>
86

$$$$
O=C(NC2=CC=CC=C2)NC1=CC(Cl)=NC=C1
  MOE2011           2D

 17 18  0  0  0  0  0  0  0  0999 V2000
    0.0000    0.0000    0.0000 O   0  0  0  0  0  0  0  0  0  0  0  0
    0.0030    1.5000    0.0000 C   0  0  0  0  0  0  0  0  0  0  0  0
   -1.2950    2.2520    0.0000 N   0  0  0  0  0  0  0  0  0  0  0  0
   -2.5950    1.5040    0.0000 C   0  0  0  0  0  0  0  0  0  0  0  0
   -3.8930    2.2570    0.0000 C   0  0  0  0  0  0  0  0  0  0  0  0
   -5.1940    1.5090    0.0000 C   0  0  0  0  0  0  0  0  0  0  0  0
   -5.1960    0.0090    0.0000 C   0  0  0  0  0  0  0  0  0  0  0  0
   -3.8980   -0.7430    0.0000 C   0  0  0  0  0  0  0  0  0  0  0  0
   -2.5980    0.0040    0.0000 C   0  0  0  0  0  0  0  0  0  0  0  0
    1.3030    2.2480    0.0000 N   0  0  0  0  0  0  0  0  0  0  0  0
    2.6010    1.4960    0.0000 C   0  0  0  0  0  0  0  0  0  0  0  0
    3.9010    2.2430    0.0000 C   0  0  0  0  0  0  0  0  0  0  0  0
    5.1990    1.4910    0.0000 C   0  0  0  0  0  0  0  0  0  0  0  0
    6.4990    2.2390    0.0000 Cl  0  0  0  0  0  0  0  0  0  0  0  0
    5.1960   -0.0090    0.0000 N   0  0  0  0  0  0  0  0  0  0  0  0
    3.8960   -0.7570    0.0000 C   0  0  0  0  0  0  0  0  0  0  0  0
    2.5980   -0.0040    0.0000 C   0  0  0  0  0  0  0  0  0  0  0  0
  1  2  2  0  0  0  0
  2  3  1  0  0  0  0
  2 10  1  0  0  0  0
  3  4  1  0  0  0  0
  4  5  1  0  0  0  0
  4  9  2  0  0  0  0
  5  6  2  0  0  0  0
  6  7  1  0  0  0  0
  7  8  2  0  0  0  0
  8  9  1  0  0  0  0
 10 11  1  0  0  0  0
 11 12  1  0  0  0  0
 11 17  2  0  0  0  0
 12 13  2  0  0  0  0
 13 14  1  0  0  0  0
 13 15  1  0  0  0  0
 15 16  2  0  0  0  0
 16 17  1  0  0  0  0
M  END
>  <DSSTox_RID>
40484

>  <DSSTox_CID>
14634

>  <apol>
34.069931

>  <a_acc>
2

>  <a_acid>
0

>  <a_aro>
12

>  <a_base>
0

>  <a_count>
27

>  <a_don>
2

>  <a_heavy>
17

>  <a_hyd>
11

>  <a_IC>
47.388245

>  <a_ICM>
1.7551202

>  <a_nB>
0

>  <a_nBr>
0

>  <a_nC>
12

>  <a_nCl>
1

>  <a_nF>
0

>  <a_nH>
10

>  <a_nI>
0

>  <a_nN>
3

>  <a_nO>
1

>  <a_nP>
0

>  <a_nS>
0

>  <balabanJ>
1.6756332

>  <BCUT_PEOE_0>
-2.3064694

>  <BCUT_PEOE_1>
-0.64013875

>  <BCUT_PEOE_2>
0.70460933

>  <BCUT_PEOE_3>
2.2420053

>  <BCUT_SLOGP_0>
-2.4025619

>  <BCUT_SLOGP_1>
-0.48629338

>  <BCUT_SLOGP_2>
0.83703059

>  <BCUT_SLOGP_3>
2.3443451

>  <BCUT_SMR_0>
-1.935258

>  <BCUT_SMR_1>
-0.44848126

>  <BCUT_SMR_2>
0.88498992

>  <BCUT_SMR_3>
2.6009655

>  <bpol>
14.95007

>  <b_1rotN>
2

>  <b_1rotR>
0.11111111

>  <b_ar>
12

>  <b_count>
28

>  <b_double>
1

>  <b_heavy>
18

>  <b_rotN>
4

>  <b_rotR>
0.22222222

>  <b_single>
15

>  <b_triple>
0

>  <chi0>
12.087576

>  <chi0v>
9.6081572

>  <chi0v_C>
6.6188021

>  <chi0_C>
7.9662552

>  <chi1>
8.2371836

>  <chi1v>
5.3629189

>  <chi1v_C>
3.1100423

>  <chi1_C>
4.5412416

>  <chiral>
0

>  <chiral_u>
0

>  <density>
0.85613889

>  <diameter>
10

>  <FCharge>
0

>  <GCUT_PEOE_0>
-0.79767972

>  <GCUT_PEOE_1>
-0.41362777

>  <GCUT_PEOE_2>
0.088725291

>  <GCUT_PEOE_3>
2.1913998

>  <GCUT_SLOGP_0>
-1.0358607

>  <GCUT_SLOGP_1>
-0.29739803

>  <GCUT_SLOGP_2>
0.26924136

>  <GCUT_SLOGP_3>
2.3209012

>  <GCUT_SMR_0>
-0.40108356

>  <GCUT_SMR_1>
-0.21360549

>  <GCUT_SMR_2>
0.24280274

>  <GCUT_SMR_3>
2.509532

>  <Kier1>
13.432098

>  <Kier2>
6.8052931

>  <Kier3>
4.6390533

>  <KierA1>
9.4907331

>  <KierA2>
4.6936474

>  <KierA3>
3.1381724

>  <KierFlex>
2.6203623

>  <lip_acc>
4

>  <lip_don>
2

>  <lip_druglike>
1

>  <lip_violation>
0

>  <logP(o/w)>
2.2969999

>  <logS>
-3.0394599

>  <mr>
6.7558322

>  <mutagenic>
0

>  <nmol>
1

>  <opr_brigid>
12

>  <opr_leadlike>
1

>  <opr_nring>
2

>  <opr_nrot>
2

>  <opr_violation>
0

>  <PC+>
0

>  <PC->
0

>  <PEOE_PC+>
0.91778594

>  <PEOE_PC->
-0.91778594

>  <PEOE_RPC+>
0.40176499

>  <PEOE_RPC->
0.26433721

>  <PEOE_VSA+0>
94.850967

>  <PEOE_VSA+1>
29.207598

>  <PEOE_VSA+2>
29.310265

>  <PEOE_VSA+3>
0

>  <PEOE_VSA+4>
0

>  <PEOE_VSA+5>
0

>  <PEOE_VSA+6>
17.440542

>  <PEOE_VSA-0>
0

>  <PEOE_VSA-1>
29.581947

>  <PEOE_VSA-2>
0

>  <PEOE_VSA-3>
11.365152

>  <PEOE_VSA-4>
19.249496

>  <PEOE_VSA-5>
0

>  <PEOE_VSA-6>
0

>  <PEOE_VSA_FHYD>
0.84117275

>  <PEOE_VSA_FNEG>
0.26058459

>  <PEOE_VSA_FPNEG>
0.083329

>  <PEOE_VSA_FPOL>
0.15882723

>  <PEOE_VSA_FPOS>
0.73941541

>  <PEOE_VSA_FPPOS>
0.075498231

>  <PEOE_VSA_HYD>
194.31593

>  <PEOE_VSA_NEG>
60.196594

>  <PEOE_VSA_PNEG>
19.249496

>  <PEOE_VSA_POL>
36.690041

>  <PEOE_VSA_POS>
170.80937

>  <PEOE_VSA_PPOS>
17.440542

>  <petitjean>
0.5

>  <petitjeanSC>
1

>  <Q_PC+>
0

>  <Q_PC->
0

>  <Q_RPC+>
0

>  <Q_RPC->
0

>  <Q_VSA_FHYD>
1

>  <Q_VSA_FNEG>
0

>  <Q_VSA_FPNEG>
0

>  <Q_VSA_FPOL>
0

>  <Q_VSA_FPOS>
1

>  <Q_VSA_FPPOS>
0

>  <Q_VSA_HYD>
231.00597

>  <Q_VSA_NEG>
0

>  <Q_VSA_PNEG>
0

>  <Q_VSA_POL>
0

>  <Q_VSA_POS>
231.00597

>  <Q_VSA_PPOS>
0

>  <radius>
5

>  <reactive>
0

>  <rings>
2

>  <RPC+>
0

>  <RPC->
0

>  <rsynth>
1

>  <SlogP>
3.3789999

>  <SlogP_VSA0>
0

>  <SlogP_VSA1>
57.636986

>  <SlogP_VSA2>
0

>  <SlogP_VSA3>
0

>  <SlogP_VSA4>
0

>  <SlogP_VSA5>
0

>  <SlogP_VSA6>
3.0717793

>  <SlogP_VSA7>
140.71664

>  <SlogP_VSA8>
0

>  <SlogP_VSA9>
68.524353

>  <SMR>
6.8330402

>  <SMR_VSA0>
23.862217

>  <SMR_VSA1>
16.78553

>  <SMR_VSA2>
0

>  <SMR_VSA3>
3.0717793

>  <SMR_VSA4>
41.534996

>  <SMR_VSA5>
140.71664

>  <SMR_VSA6>
4.8299561

>  <SMR_VSA7>
39.148643

>  <TPSA>
54.02

>  <VAdjEq>
0.54234898

>  <VAdjMa>
5.1699252

>  <VDistEq>
3.148381

>  <VDistMa>
7.8443942

>  <vdw_area>
231.00597

>  <vdw_vol>
277.53088

>  <vsa_acc>
19.249496

>  <vsa_acid>
0

>  <vsa_base>
0

>  <vsa_don>
11.365152

>  <vsa_hyd>
173.94002

>  <vsa_other>
26.4513

>  <vsa_pol>
30.614649

>  <Weight>
247.685

>  <weinerPath>
582

>  <weinerPol>
20

>  <zagreb>
82

$$$$
O=C(NC)OC1=CC=CC(/N=C/N(C)C)=C1.Cl
  MOE2011           2D

 17 16  0  0  0  0  0  0  0  0999 V2000
    0.0000    0.0000    0.0000 O   0  0  0  0  0  0  0  0  0  0  0  0
    0.0070   -1.5000    0.0000 C   0  0  0  0  0  0  0  0  0  0  0  0
    1.3100   -2.2440    0.0000 N   0  0  0  0  0  0  0  0  0  0  0  0
    2.6050   -1.4880    0.0000 C   0  0  0  0  0  0  0  0  0  0  0  0
   -1.2880   -2.2560    0.0000 O   0  0  0  0  0  0  0  0  0  0  0  0
   -2.5910   -1.5120    0.0000 C   0  0  0  0  0  0  0  0  0  0  0  0
   -2.5980   -0.0120    0.0000 C   0  0  0  0  0  0  0  0  0  0  0  0
   -3.9010    0.7310    0.0000 C   0  0  0  0  0  0  0  0  0  0  0  0
   -5.1960   -0.0250    0.0000 C   0  0  0  0  0  0  0  0  0  0  0  0
   -5.1890   -1.5250    0.0000 C   0  0  0  0  0  0  0  0  0  0  0  0
   -6.4840   -2.2810    0.0000 N   0  0  0  0  0  0  0  0  0  0  0  0
   -7.7870   -1.5370    0.0000 C   0  0  0  0  0  0  0  0  0  0  0  0
   -9.0820   -2.2940    0.0000 N   0  0  0  0  0  0  0  0  0  0  0  0
  -10.3850   -1.5500    0.0000 C   0  0  0  0  0  0  0  0  0  0  0  0
   -9.0750   -3.7940    0.0000 C   0  0  0  0  0  0  0  0  0  0  0  0
   -3.8860   -2.2690    0.0000 C   0  0  0  0  0  0  0  0  0  0  0  0
    1.9320    0.5180    0.0000 Cl  0  0  0  0  0  0  0  0  0  0  0  0
  1  2  2  0  0  0  0
  2  3  1  0  0  0  0
  2  5  1  0  0  0  0
  3  4  1  0  0  0  0
  5  6  1  0  0  0  0
  6  7  1  0  0  0  0
  6 16  2  0  0  0  0
  7  8  2  0  0  0  0
  8  9  1  0  0  0  0
  9 10  2  0  0  0  0
 10 11  1  0  0  0  0
 10 16  1  0  0  0  0
 11 12  2  0  0  0  0
 12 13  1  0  0  0  0
 13 14  1  0  0  0  0
 13 15  1  0  0  0  0
M  END
>  <DSSTox_RID>
40485

>  <DSSTox_CID>
12405

>  <apol>
37.112686

>  <a_acc>
2

>  <a_acid>
0

>  <a_aro>
6

>  <a_base>
0

>  <a_count>
33

>  <a_don>
1

>  <a_heavy>
17

>  <a_hyd>
9

>  <a_IC>
57.656372

>  <a_ICM>
1.7471627

>  <a_nB>
0

>  <a_nBr>
0

>  <a_nC>
11

>  <a_nCl>
1

>  <a_nF>
0

>  <a_nH>
16

>  <a_nI>
0

>  <a_nN>
3

>  <a_nO>
2

>  <a_nP>
0

>  <a_nS>
0

>  <balabanJ>
3.4489944

>  <BCUT_PEOE_0>
-2.4668298

>  <BCUT_PEOE_1>
-0.564143

>  <BCUT_PEOE_2>
0.55294025

>  <BCUT_PEOE_3>
2.3197474

>  <BCUT_SLOGP_0>
-2.5500338

>  <BCUT_SLOGP_1>
-0.39324927

>  <BCUT_SLOGP_2>
0.70370239

>  <BCUT_SLOGP_3>
2.3856802

>  <BCUT_SMR_0>
-2.1525438

>  <BCUT_SMR_1>
-0.3547492

>  <BCUT_SMR_2>
0.74816149

>  <BCUT_SMR_3>
2.6252155

>  <bpol>
24.745312

>  <b_1rotN>
3

>  <b_1rotR>
0.1875

>  <b_ar>
6

>  <b_count>
32

>  <b_double>
2

>  <b_heavy>
16

>  <b_rotN>
5

>  <b_rotR>
0.3125

>  <b_single>
24

>  <b_triple>
0

>  <chi0>
11.966255

>  <chi0v>
10.82242

>  <chi0v_C>
7.3867512

>  <chi0_C>
8.2675848

>  <chi1>
7.6133924

>  <chi1v>
4.8181715

>  <chi1v_C>
1.8213673

>  <chi1_C>
2.6329932

>  <chiral>
0

>  <chiral_u>
0

>  <density>
0.84431708

>  <diameter>
17

>  <FCharge>
0

>  <GCUT_PEOE_0>
-0.87939543

>  <GCUT_PEOE_1>
-0.44799921

>  <GCUT_PEOE_2>
-0.0067672455

>  <GCUT_PEOE_3>
2.2051392

>  <GCUT_SLOGP_0>
-1.1624497

>  <GCUT_SLOGP_1>
-0.25051963

>  <GCUT_SLOGP_2>
0.14622591

>  <GCUT_SLOGP_3>
2.3263233

>  <GCUT_SMR_0>
-0.49900344

>  <GCUT_SMR_1>
-0.16499053

>  <GCUT_SMR_2>
0.15449609

>  <GCUT_SMR_3>
2.4972997

>  <Kier1>
17

>  <Kier2>
9

>  <Kier3>
7.1111112

>  <KierA1>
13.347608

>  <KierA2>
6.9507117

>  <KierA3>
5.4199543

>  <KierFlex>
5.457375

>  <lip_acc>
5

>  <lip_don>
1

>  <lip_druglike>
1

>  <lip_violation>
0

>  <logP(o/w)>
2.5339999

>  <logS>
-2.8871801

>  <mr>
7.0039773

>  <mutagenic>
0

>  <nmol>
2

>  <opr_brigid>
7

>  <opr_leadlike>
1

>  <opr_nring>
1

>  <opr_nrot>
3

>  <opr_violation>
0

>  <PC+>
0

>  <PC->
0

>  <PEOE_PC+>
1.2564428

>  <PEOE_PC->
-1.2564428

>  <PEOE_RPC+>
0.30873868

>  <PEOE_RPC->
0.26033813

>  <PEOE_VSA+0>
104.40266

>  <PEOE_VSA+1>
6.6995511

>  <PEOE_VSA+2>
76.257439

>  <PEOE_VSA+3>
58.68998

>  <PEOE_VSA+4>
0

>  <PEOE_VSA+5>
0

>  <PEOE_VSA+6>
19.199511

>  <PEOE_VSA-0>
41.168686

>  <PEOE_VSA-1>
0

>  <PEOE_VSA-2>
0

>  <PEOE_VSA-3>
0

>  <PEOE_VSA-4>
24.932074

>  <PEOE_VSA-5>
2.503756

>  <PEOE_VSA-6>
0

>  <PEOE_VSA_FHYD>
0.84066373

>  <PEOE_VSA_FNEG>
0.093738429

>  <PEOE_VSA_FPNEG>
0.093738429

>  <PEOE_VSA_FPOL>
0.1593363

>  <PEOE_VSA_FPOS>
0.90626156

>  <PEOE_VSA_FPPOS>
0.065597869

>  <PEOE_VSA_HYD>
246.04964

>  <PEOE_VSA_NEG>
27.435829

>  <PEOE_VSA_PNEG>
27.435829

>  <PEOE_VSA_POL>
46.635342

>  <PEOE_VSA_POS>
265.24915

>  <PEOE_VSA_PPOS>
19.199511

>  <petitjean>
0

>  <petitjeanSC>
0

>  <Q_PC+>
0

>  <Q_PC->
0

>  <Q_RPC+>
0

>  <Q_RPC->
0

>  <Q_VSA_FHYD>
1

>  <Q_VSA_FNEG>
0

>  <Q_VSA_FPNEG>
0

>  <Q_VSA_FPOL>
0

>  <Q_VSA_FPOS>
1

>  <Q_VSA_FPPOS>
0

>  <Q_VSA_HYD>
292.68497

>  <Q_VSA_NEG>
0

>  <Q_VSA_PNEG>
0

>  <Q_VSA_POL>
0

>  <Q_VSA_POS>
292.68497

>  <Q_VSA_PPOS>
0

>  <radius>
17

>  <reactive>
0

>  <rings>
1

>  <RPC+>
0

>  <RPC->
0

>  <rsynth>
1

>  <SlogP>
2.4282

>  <SlogP_VSA0>
29.010639

>  <SlogP_VSA1>
10.44095

>  <SlogP_VSA2>
16.78553

>  <SlogP_VSA3>
0

>  <SlogP_VSA4>
0

>  <SlogP_VSA5>
115.47709

>  <SlogP_VSA6>
0

>  <SlogP_VSA7>
70.572739

>  <SlogP_VSA8>
0

>  <SlogP_VSA9>
84.363884

>  <SMR>
7.03297

>  <SMR_VSA0>
23.862217

>  <SMR_VSA1>
30.909731

>  <SMR_VSA2>
18.01075

>  <SMR_VSA3>
5.2434282

>  <SMR_VSA4>
2.7567475

>  <SMR_VSA5>
70.572739

>  <SMR_VSA6>
7.3166366

>  <SMR_VSA7>
167.97858

>  <TPSA>
53.93

>  <VAdjEq>
0.50210387

>  <VAdjMa>
5

>  <VDistEq>
3.2687016

>  <VDistMa>
7.6666698

>  <vdw_area>
292.68497

>  <vdw_vol>
286.14011

>  <vsa_acc>
19.249496

>  <vsa_acid>
0

>  <vsa_base>
0

>  <vsa_don>
5.6825762

>  <vsa_hyd>
180.09044

>  <vsa_other>
87.662468

>  <vsa_pol>
24.932074

>  <Weight>
257.72101

>  <weinerPath>
772

>  <weinerPol>
18

>  <zagreb>
72

$$$$
O=P(SC(C)CC)(N(CCS1)C1=O)OCC
  MOE2011           2D

 16 16  0  0  1  0  0  0  0  0999 V2000
    0.0000    0.0000    0.0000 O   0  0  0  0  0  0  0  0  0  0  0  0
   -0.7480   -1.3000    0.0000 P   0  0  3  0  0  0  0  0  0  0  0  0
    0.5530   -2.0480    0.0000 S   0  0  0  0  0  0  0  0  0  0  0  0
    1.8500   -1.2960    0.0000 C   0  0  3  0  0  0  0  0  0  0  0  0
    1.8480    0.2040    0.0000 C   0  0  0  0  0  0  0  0  0  0  0  0
    3.1510   -2.0430    0.0000 C   0  0  0  0  0  0  0  0  0  0  0  0
    4.4490   -1.2910    0.0000 C   0  0  0  0  0  0  0  0  0  0  0  0
   -2.0480   -0.5530    0.0000 N   0  0  0  0  0  0  0  0  0  0  0  0
   -3.4170   -1.1650    0.0000 C   0  0  0  0  0  0  0  0  0  0  0  0
   -4.4230   -0.0520    0.0000 C   0  0  0  0  0  0  0  0  0  0  0  0
   -3.6750    1.2480    0.0000 S   0  0  0  0  0  0  0  0  0  0  0  0
   -2.2080    0.9390    0.0000 C   0  0  0  0  0  0  0  0  0  0  0  0
   -1.0950    1.9440    0.0000 O   0  0  0  0  0  0  0  0  0  0  0  0
   -1.4950   -2.6010    0.0000 O   0  0  0  0  0  0  0  0  0  0  0  0
   -0.7430   -3.8980    0.0000 C   0  0  0  0  0  0  0  0  0  0  0  0
   -1.4910   -5.1990    0.0000 C   0  0  0  0  0  0  0  0  0  0  0  0
  1  2  2  0  0  0  0
  2  3  1  0  0  0  0
  2  8  1  0  0  0  0
  2 14  1  0  0  0  0
  3  4  1  0  0  0  0
  4  5  1  0  0  0  0
  4  6  1  0  0  0  0
  6  7  1  0  0  0  0
  8  9  1  0  0  0  0
  8 12  1  0  0  0  0
  9 10  1  0  0  0  0
 10 11  1  0  0  0  0
 11 12  1  0  0  0  0
 12 13  2  0  0  0  0
 14 15  1  0  0  0  0
 15 16  1  0  0  0  0
M  END
>  <DSSTox_RID>
40597

>  <DSSTox_CID>
14930

>  <apol>
40.778275

>  <a_acc>
3

>  <a_acid>
0

>  <a_aro>
0

>  <a_base>
0

>  <a_count>
34

>  <a_don>
0

>  <a_heavy>
16

>  <a_hyd>
9

>  <a_IC>
62.630875

>  <a_ICM>
1.8420845

>  <a_nB>
0

>  <a_nBr>
0

>  <a_nC>
9

>  <a_nCl>
0

>  <a_nF>
0

>  <a_nH>
18

>  <a_nI>
0

>  <a_nN>
1

>  <a_nO>
3

>  <a_nP>
1

>  <a_nS>
2

>  <balabanJ>
2.6977832

>  <BCUT_PEOE_0>
-2.5877469

>  <BCUT_PEOE_1>
-0.16482083

>  <BCUT_PEOE_2>
0.042246833

>  <BCUT_PEOE_3>
2.6686273

>  <BCUT_SLOGP_0>
-2.5583639

>  <BCUT_SLOGP_1>
0.02634001

>  <BCUT_SLOGP_2>
0.28381178

>  <BCUT_SLOGP_3>
2.8102279

>  <BCUT_SMR_0>
-2.3262293

>  <BCUT_SMR_1>
0.093397968

>  <BCUT_SMR_2>
0.32271525

>  <BCUT_SMR_3>
3.0031943

>  <bpol>
35.249725

>  <b_1rotN>
6

>  <b_1rotR>
0.375

>  <b_ar>
0

>  <b_count>
34

>  <b_double>
1

>  <b_heavy>
16

>  <b_rotN>
6

>  <b_rotR>
0.375

>  <b_single>
33

>  <b_triple>
0

>  <chi0>
12.181798

>  <chi0v>
12.368866

>  <chi0v_C>
6.9057775

>  <chi0_C>
6.9831276

>  <chi1>
7.5310225

>  <chi1v>
9.456563

>  <chi1v_C>
2.8998122

>  <chi1_C>
2.8998122

>  <chiral>
2

>  <chiral_u>
2

>  <density>
0.95643789

>  <diameter>
7

>  <FCharge>
0

>  <GCUT_PEOE_0>
-0.77629745

>  <GCUT_PEOE_1>
-0.34105286

>  <GCUT_PEOE_2>
-0.11775316

>  <GCUT_PEOE_3>
2.5024602

>  <GCUT_SLOGP_0>
-1.2934273

>  <GCUT_SLOGP_1>
-0.25873357

>  <GCUT_SLOGP_2>
0.097545765

>  <GCUT_SLOGP_3>
2.6224663

>  <GCUT_SMR_0>
-0.52146089

>  <GCUT_SMR_1>
-0.11634329

>  <GCUT_SMR_2>
0.14271808

>  <GCUT_SMR_3>
2.7987885

>  <Kier1>
14.0625

>  <Kier2>
6.0743804

>  <Kier3>
3.495199

>  <KierA1>
17.23267

>  <KierA2>
7.5464997

>  <KierA3>
4.3868971

>  <KierFlex>
8.1278963

>  <lip_acc>
4

>  <lip_don>
0

>  <lip_druglike>
1

>  <lip_violation>
0

>  <logP(o/w)>
2.6110001

>  <logS>
-3.0192001

>  <mr>
7.256062

>  <mutagenic>
0

>  <nmol>
1

>  <opr_brigid>
5

>  <opr_leadlike>
1

>  <opr_nring>
1

>  <opr_nrot>
6

>  <opr_violation>
0

>  <PC+>
0

>  <PC->
0

>  <PEOE_PC+>
1.1358262

>  <PEOE_PC->
-1.1358262

>  <PEOE_RPC+>
0.3231045

>  <PEOE_RPC->
0.35399517

>  <PEOE_VSA+0>
104.03384

>  <PEOE_VSA+1>
39.169151

>  <PEOE_VSA+2>
46.542583

>  <PEOE_VSA+3>
0

>  <PEOE_VSA+4>
14.925592

>  <PEOE_VSA+5>
0

>  <PEOE_VSA+6>
14.170063

>  <PEOE_VSA-0>
0

>  <PEOE_VSA-1>
19.760618

>  <PEOE_VSA-2>
0

>  <PEOE_VSA-3>
15.729136

>  <PEOE_VSA-4>
0

>  <PEOE_VSA-5>
4.6659718

>  <PEOE_VSA-6>
13.566921

>  <PEOE_VSA_FHYD>
0.82635796

>  <PEOE_VSA_FNEG>
0.19710113

>  <PEOE_VSA_FPNEG>
0.066894017

>  <PEOE_VSA_FPOL>
0.17364204

>  <PEOE_VSA_FPOS>
0.80289888

>  <PEOE_VSA_FPPOS>
0.10674802

>  <PEOE_VSA_HYD>
225.23534

>  <PEOE_VSA_NEG>
53.722649

>  <PEOE_VSA_PNEG>
18.232893

>  <PEOE_VSA_POL>
47.328548

>  <PEOE_VSA_POS>
218.84123

>  <PEOE_VSA_PPOS>
29.095655

>  <petitjean>
0.42857143

>  <petitjeanSC>
0.75

>  <Q_PC+>
0

>  <Q_PC->
0

>  <Q_RPC+>
0

>  <Q_RPC->
0

>  <Q_VSA_FHYD>
1

>  <Q_VSA_FNEG>
0

>  <Q_VSA_FPNEG>
0

>  <Q_VSA_FPOL>
0

>  <Q_VSA_FPOS>
1

>  <Q_VSA_FPPOS>
0

>  <Q_VSA_HYD>
272.56387

>  <Q_VSA_NEG>
0

>  <Q_VSA_PNEG>
0

>  <Q_VSA_POL>
0

>  <Q_VSA_POS>
272.56387

>  <Q_VSA_PPOS>
0

>  <radius>
4

>  <reactive>
0

>  <rings>
1

>  <RPC+>
0

>  <RPC->
0

>  <rsynth>
1

>  <SlogP>
2.7613001

>  <SlogP_VSA0>
22.433765

>  <SlogP_VSA1>
3.6239426

>  <SlogP_VSA2>
9.6975851

>  <SlogP_VSA3>
56.5994

>  <SlogP_VSA4>
0

>  <SlogP_VSA5>
0

>  <SlogP_VSA6>
0

>  <SlogP_VSA7>
0

>  <SlogP_VSA8>
18.868406

>  <SlogP_VSA9>
194.72855

>  <SMR>
7.0451999

>  <SMR_VSA0>
53.217613

>  <SMR_VSA1>
0

>  <SMR_VSA2>
0

>  <SMR_VSA3>
2.7759552

>  <SMR_VSA4>
0

>  <SMR_VSA5>
18.868406

>  <SMR_VSA6>
60.223343

>  <SMR_VSA7>
170.86632

>  <TPSA>
46.610001

>  <VAdjEq>
0.54356444

>  <VAdjMa>
5

>  <VDistEq>
2.6850929

>  <VDistMa>
7.7342319

>  <vdw_area>
272.56387

>  <vdw_vol>
277.28827

>  <vsa_acc>
33.962029

>  <vsa_acid>
0

>  <vsa_base>
0

>  <vsa_don>
0

>  <vsa_hyd>
188.1216

>  <vsa_other>
50.480247

>  <vsa_pol>
33.962029

>  <Weight>
283.353

>  <weinerPath>
424

>  <weinerPol>
22

>  <zagreb>
76

$$$$
ClC1=CC(Cl)=CC=C1C(CCCC)(O)CN2C=NC=N2
  MOE2011           2D

 20 21  0  0  1  0  0  0  0  0999 V2000
    0.0000    0.0000    0.0000 Cl  0  0  0  0  0  0  0  0  0  0  0  0
    0.7520    1.2980    0.0000 C   0  0  0  0  0  0  0  0  0  0  0  0
    2.2520    1.2960    0.0000 C   0  0  0  0  0  0  0  0  0  0  0  0
    3.0030    2.5940    0.0000 C   0  0  0  0  0  0  0  0  0  0  0  0
    4.5030    2.5930    0.0000 Cl  0  0  0  0  0  0  0  0  0  0  0  0
    2.2550    3.8940    0.0000 C   0  0  0  0  0  0  0  0  0  0  0  0
    0.7550    3.8960    0.0000 C   0  0  0  0  0  0  0  0  0  0  0  0
    0.0030    2.5980    0.0000 C   0  0  0  0  0  0  0  0  0  0  0  0
   -1.4970    2.6000    0.0000 C   0  0  3  0  0  0  0  0  0  0  0  0
   -1.4950    4.1000    0.0000 C   0  0  0  0  0  0  0  0  0  0  0  0
   -2.7930    4.8510    0.0000 C   0  0  0  0  0  0  0  0  0  0  0  0
   -2.7910    6.3510    0.0000 C   0  0  0  0  0  0  0  0  0  0  0  0
   -4.0890    7.1030    0.0000 C   0  0  0  0  0  0  0  0  0  0  0  0
   -1.4990    1.1000    0.0000 O   0  0  0  0  0  0  0  0  0  0  0  0
   -2.9970    2.6020    0.0000 C   0  0  0  0  0  0  0  0  0  0  0  0
   -3.7480    1.3040    0.0000 N   0  0  0  0  0  0  0  0  0  0  0  0
   -3.1400   -0.0670    0.0000 C   0  0  0  0  0  0  0  0  0  0  0  0
   -4.2560   -1.0700    0.0000 N   0  0  0  0  0  0  0  0  0  0  0  0
   -5.5540   -0.3180    0.0000 C   0  0  0  0  0  0  0  0  0  0  0  0
   -5.2400    1.1490    0.0000 N   0  0  0  0  0  0  0  0  0  0  0  0
  1  2  1  0  0  0  0
  2  3  1  0  0  0  0
  2  8  2  0  0  0  0
  3  4  2  0  0  0  0
  4  5  1  0  0  0  0
  4  6  1  0  0  0  0
  6  7  2  0  0  0  0
  7  8  1  0  0  0  0
  8  9  1  0  0  0  0
  9 10  1  0  0  0  0
  9 14  1  0  0  0  0
  9 15  1  0  0  0  0
 10 11  1  0  0  0  0
 11 12  1  0  0  0  0
 12 13  1  0  0  0  0
 15 16  1  0  0  0  0
 16 17  1  0  0  0  0
 16 20  1  0  0  0  0
 17 18  2  0  0  0  0
 18 19  1  0  0  0  0
 19 20  2  0  0  0  0
M  END
>  <DSSTox_RID>
40487

>  <DSSTox_CID>
14653

>  <apol>
44.437481

>  <a_acc>
3

>  <a_acid>
0

>  <a_aro>
11

>  <a_base>
0

>  <a_count>
37

>  <a_don>
1

>  <a_heavy>
20

>  <a_hyd>
14

>  <a_IC>
63.205051

>  <a_ICM>
1.7082446

>  <a_nB>
0

>  <a_nBr>
0

>  <a_nC>
14

>  <a_nCl>
2

>  <a_nF>
0

>  <a_nH>
17

>  <a_nI>
0

>  <a_nN>
3

>  <a_nO>
1

>  <a_nP>
0

>  <a_nS>
0

>  <balabanJ>
2.0411284

>  <BCUT_PEOE_0>
-2.6654689

>  <BCUT_PEOE_1>
-0.57768321

>  <BCUT_PEOE_2>
0.57818675

>  <BCUT_PEOE_3>
2.6590624

>  <BCUT_SLOGP_0>
-2.5328128

>  <BCUT_SLOGP_1>
-0.44031423

>  <BCUT_SLOGP_2>
0.85104167

>  <BCUT_SLOGP_3>
2.7969644

>  <BCUT_SMR_0>
-2.4272363

>  <BCUT_SMR_1>
-0.25791651

>  <BCUT_SMR_2>
0.90880704

>  <BCUT_SMR_3>
2.8947663

>  <bpol>
22.72452

>  <b_1rotN>
6

>  <b_1rotR>
0.2857143

>  <b_ar>
11

>  <b_count>
38

>  <b_double>
0

>  <b_heavy>
21

>  <b_rotN>
6

>  <b_rotR>
0.2857143

>  <b_single>
27

>  <b_triple>
0

>  <chi0>
14.587576

>  <chi0v>
12.77182

>  <chi0v_C>
8.7151785

>  <chi0_C>
9.5960121

>  <chi1>
9.5486603

>  <chi1v>
7.3087711

>  <chi1v_C>
4.4022474

>  <chi1_C>
5.1692152

>  <chiral>
1

>  <chiral_u>
1

>  <density>
0.88619787

>  <diameter>
9

>  <FCharge>
0

>  <GCUT_PEOE_0>
-0.82222342

>  <GCUT_PEOE_1>
-0.38342905

>  <GCUT_PEOE_2>
0.017926678

>  <GCUT_PEOE_3>
2.6228278

>  <GCUT_SLOGP_0>
-0.89609462

>  <GCUT_SLOGP_1>
-0.29387558

>  <GCUT_SLOGP_2>
0.1941392

>  <GCUT_SLOGP_3>
2.7547028

>  <GCUT_SMR_0>
-0.53019083

>  <GCUT_SMR_1>
-0.17688991

>  <GCUT_SMR_2>
0.2901378

>  <GCUT_SMR_3>
2.8734627

>  <Kier1>
16.371881

>  <Kier2>
7.3198571

>  <Kier3>
4.25

>  <KierA1>
14.802504

>  <KierA2>
6.5812163

>  <KierA3>
3.80551

>  <KierFlex>
4.870924

>  <lip_acc>
4

>  <lip_don>
1

>  <lip_druglike>
1

>  <lip_violation>
0

>  <logP(o/w)>
3.1110001

>  <logS>
-4.4707499

>  <mr>
8.2676411

>  <mutagenic>
0

>  <nmol>
1

>  <opr_brigid>
11

>  <opr_leadlike>
1

>  <opr_nring>
2

>  <opr_nrot>
6

>  <opr_violation>
0

>  <PC+>
0

>  <PC->
0

>  <PEOE_PC+>
0.95691526

>  <PEOE_PC->
-0.95691526

>  <PEOE_RPC+>
0.23093875

>  <PEOE_RPC->
0.23742139

>  <PEOE_VSA+0>
110.65946

>  <PEOE_VSA+1>
9.0394926

>  <PEOE_VSA+2>
0

>  <PEOE_VSA+3>
45.090023

>  <PEOE_VSA+4>
24.790518

>  <PEOE_VSA+5>
0

>  <PEOE_VSA+6>
0

>  <PEOE_VSA-0>
15.808495

>  <PEOE_VSA-1>
59.163895

>  <PEOE_VSA-2>
9.4210396

>  <PEOE_VSA-3>
0

>  <PEOE_VSA-4>
19.249496

>  <PEOE_VSA-5>
0

>  <PEOE_VSA-6>
0

>  <PEOE_VSA_FHYD>
0.84980679

>  <PEOE_VSA_FNEG>
0.3534618

>  <PEOE_VSA_FPNEG>
0.065648109

>  <PEOE_VSA_FPOL>
0.1501932

>  <PEOE_VSA_FPOS>
0.6465382

>  <PEOE_VSA_FPPOS>
0.084545098

>  <PEOE_VSA_HYD>
249.1824

>  <PEOE_VSA_NEG>
103.64292

>  <PEOE_VSA_PNEG>
19.249496

>  <PEOE_VSA_POL>
44.040016

>  <PEOE_VSA_POS>
189.5795

>  <PEOE_VSA_PPOS>
24.790518

>  <petitjean>
0.44444445

>  <petitjeanSC>
0.80000001

>  <Q_PC+>
0

>  <Q_PC->
0

>  <Q_RPC+>
0

>  <Q_RPC->
0

>  <Q_VSA_FHYD>
1

>  <Q_VSA_FNEG>
0

>  <Q_VSA_FPNEG>
0

>  <Q_VSA_FPOL>
0

>  <Q_VSA_FPOS>
1

>  <Q_VSA_FPPOS>
0

>  <Q_VSA_HYD>
293.22241

>  <Q_VSA_NEG>
0

>  <Q_VSA_PNEG>
0

>  <Q_VSA_POL>
0

>  <Q_VSA_POS>
293.22241

>  <Q_VSA_PPOS>
0

>  <radius>
5

>  <reactive>
0

>  <rings>
2

>  <RPC+>
0

>  <RPC->
0

>  <rsynth>
0.30000001

>  <SlogP>
4.2407999

>  <SlogP_VSA0>
25.385227

>  <SlogP_VSA1>
35.225109

>  <SlogP_VSA2>
0

>  <SlogP_VSA3>
0

>  <SlogP_VSA4>
3.185575

>  <SlogP_VSA5>
0

>  <SlogP_VSA6>
7.0012131

>  <SlogP_VSA7>
86.50061

>  <SlogP_VSA8>
56.605217

>  <SlogP_VSA9>
130.06288

>  <SMR>
8.0227804

>  <SMR_VSA0>
0

>  <SMR_VSA1>
60.610332

>  <SMR_VSA2>
0

>  <SMR_VSA3>
10.186788

>  <SMR_VSA4>
0

>  <SMR_VSA5>
161.54541

>  <SMR_VSA6>
0

>  <SMR_VSA7>
111.62331

>  <TPSA>
50.939999

>  <VAdjEq>
0.48464775

>  <VAdjMa>
5.3923173

>  <VDistEq>
2.9938102

>  <VDistMa>
8.3785372

>  <vdw_area>
293.22241

>  <vdw_vol>
335.22986

>  <vsa_acc>
15.103616

>  <vsa_acid>
0

>  <vsa_base>
0

>  <vsa_don>
0

>  <vsa_hyd>
214.97086

>  <vsa_other>
49.581036

>  <vsa_pol>
28.670536

>  <Weight>
314.216

>  <weinerPath>
790

>  <weinerPol>
28

>  <zagreb>
100

$$$$
C[C@H]2[C@@H](SC(=O)N2C(=O)NC1CCCCC1)c3ccc(Cl)cc3
  MOE2011           2D

 23 25  0  0  1  0  0  0  0  0999 V2000
    0.0000    0.0000    0.0000 C   0  0  0  0  0  0  0  0  0  0  0  0
   -0.1010   -1.4970    0.0000 C   0  0  1  0  0  0  0  0  0  0  0  0
    1.0500   -2.4580    0.0000 C   0  0  1  0  0  0  0  0  0  0  0  0
    0.4910   -3.8500    0.0000 S   0  0  0  0  0  0  0  0  0  0  0  0
   -1.0060   -3.7490    0.0000 C   0  0  0  0  0  0  0  0  0  0  0  0
   -1.9680   -4.9000    0.0000 O   0  0  0  0  0  0  0  0  0  0  0  0
   -1.3720   -2.2940    0.0000 N   0  0  0  0  0  0  0  0  0  0  0  0
   -2.7640   -1.7350    0.0000 C   0  0  0  0  0  0  0  0  0  0  0  0
   -2.9760   -0.2500    0.0000 O   0  0  0  0  0  0  0  0  0  0  0  0
   -3.9440   -2.6610    0.0000 N   0  0  0  0  0  0  0  0  0  0  0  0
   -5.3360   -2.1020    0.0000 C   0  0  0  0  0  0  0  0  0  0  0  0
   -5.5480   -0.6170    0.0000 C   0  0  0  0  0  0  0  0  0  0  0  0
   -6.9400   -0.0580    0.0000 C   0  0  0  0  0  0  0  0  0  0  0  0
   -8.1200   -0.9840    0.0000 C   0  0  0  0  0  0  0  0  0  0  0  0
   -7.9080   -2.4690    0.0000 C   0  0  0  0  0  0  0  0  0  0  0  0
   -6.5160   -3.0280    0.0000 C   0  0  0  0  0  0  0  0  0  0  0  0
    2.5040   -2.0920    0.0000 C   0  0  0  0  0  0  0  0  0  0  0  0
    2.9150   -0.6500    0.0000 C   0  0  0  0  0  0  0  0  0  0  0  0
    4.3690   -0.2840    0.0000 C   0  0  0  0  0  0  0  0  0  0  0  0
    5.4140   -1.3600    0.0000 C   0  0  0  0  0  0  0  0  0  0  0  0
    6.8680   -0.9940    0.0000 Cl  0  0  0  0  0  0  0  0  0  0  0  0
    5.0030   -2.8030    0.0000 C   0  0  0  0  0  0  0  0  0  0  0  0
    3.5490   -3.1690    0.0000 C   0  0  0  0  0  0  0  0  0  0  0  0
  2  1  1  1  0  0  0
  2  3  1  0  0  0  0
  2  7  1  0  0  0  0
  3  4  1  6  0  0  0
  3 17  1  0  0  0  0
  4  5  1  0  0  0  0
  5  6  2  0  0  0  0
  5  7  1  0  0  0  0
  7  8  1  0  0  0  0
  8  9  2  0  0  0  0
  8 10  1  0  0  0  0
 10 11  1  0  0  0  0
 11 12  1  0  0  0  0
 11 16  1  0  0  0  0
 12 13  1  0  0  0  0
 13 14  1  0  0  0  0
 14 15  1  0  0  0  0
 15 16  1  0  0  0  0
 17 18  1  0  0  0  0
 17 23  2  0  0  0  0
 18 19  2  0  0  0  0
 19 20  1  0  0  0  0
 20 21  1  0  0  0  0
 20 22  2  0  0  0  0
 22 23  1  0  0  0  0
M  END
>  <DSSTox_RID>
40489

>  <DSSTox_CID>
4299

>  <apol>
52.806652

>  <a_acc>
2

>  <a_acid>
0

>  <a_aro>
6

>  <a_base>
0

>  <a_count>
44

>  <a_don>
1

>  <a_heavy>
23

>  <a_hyd>
17

>  <a_IC>
74.489456

>  <a_ICM>
1.6929423

>  <a_nB>
0

>  <a_nBr>
0

>  <a_nC>
17

>  <a_nCl>
1

>  <a_nF>
0

>  <a_nH>
21

>  <a_nI>
0

>  <a_nN>
2

>  <a_nO>
2

>  <a_nP>
0

>  <a_nS>
1

>  <balabanJ>
1.5667138

>  <BCUT_PEOE_0>
-2.7851174

>  <BCUT_PEOE_1>
-0.60510665

>  <BCUT_PEOE_2>
0.63814747

>  <BCUT_PEOE_3>
2.7359581

>  <BCUT_SLOGP_0>
-2.7867804

>  <BCUT_SLOGP_1>
-0.49410975

>  <BCUT_SLOGP_2>
0.79612178

>  <BCUT_SLOGP_3>
2.8325791

>  <BCUT_SMR_0>
-2.529834

>  <BCUT_SMR_1>
-0.43032122

>  <BCUT_SMR_2>
0.83804542

>  <BCUT_SMR_3>
2.9987535

>  <bpol>
30.213346

>  <b_1rotN>
3

>  <b_1rotR>
0.12

>  <b_ar>
6

>  <b_count>
46

>  <b_double>
2

>  <b_heavy>
25

>  <b_rotN>
4

>  <b_rotR>
0.16

>  <b_single>
38

>  <b_triple>
0

>  <chi0>
16.396976

>  <chi0v>
14.699334

>  <chi0v_C>
10.576985

>  <chi0_C>
11.405413

>  <chi1>
11.058551

>  <chi1v>
9.3759842

>  <chi1v_C>
5.8372226

>  <chi1_C>
6.6935067

>  <chiral>
2

>  <chiral_u>
0

>  <density>
0.8688634

>  <diameter>
13

>  <FCharge>
0

>  <GCUT_PEOE_0>
-0.82455802

>  <GCUT_PEOE_1>
-0.38246515

>  <GCUT_PEOE_2>
0.080017738

>  <GCUT_PEOE_3>
2.7209146

>  <GCUT_SLOGP_0>
-1.1623493

>  <GCUT_SLOGP_1>
-0.27299836

>  <GCUT_SLOGP_2>
0.23522988

>  <GCUT_SLOGP_3>
2.7885129

>  <GCUT_SMR_0>
-0.52758247

>  <GCUT_SMR_1>
-0.21050434

>  <GCUT_SMR_2>
0.2361646

>  <GCUT_SMR_3>
2.9846623

>  <Kier1>
17.811199

>  <Kier2>
7.9200001

>  <Kier3>
4.1587901

>  <KierA1>
16.044086

>  <KierA2>
7.0986948

>  <KierA3>
3.7134609

>  <KierFlex>
4.951829

>  <lip_acc>
4

>  <lip_don>
1

>  <lip_druglike>
1

>  <lip_violation>
1

>  <logP(o/w)>
4.8730001

>  <logS>
-5.3828702

>  <mr>
9.5133924

>  <mutagenic>
0

>  <nmol>
1

>  <opr_brigid>
17

>  <opr_leadlike>
1

>  <opr_nring>
3

>  <opr_nrot>
4

>  <opr_violation>
1

>  <PC+>
0

>  <PC->
0

>  <PEOE_PC+>
1.1142601

>  <PEOE_PC->
-1.1142601

>  <PEOE_RPC+>
0.31263387

>  <PEOE_RPC->
0.23299763

>  <PEOE_VSA+0>
140.06792

>  <PEOE_VSA+1>
8.7043476

>  <PEOE_VSA+2>
13.399102

>  <PEOE_VSA+3>
0

>  <PEOE_VSA+4>
0

>  <PEOE_VSA+5>
14.925592

>  <PEOE_VSA+6>
17.440542

>  <PEOE_VSA-0>
53.586147

>  <PEOE_VSA-1>
29.581947

>  <PEOE_VSA-2>
0

>  <PEOE_VSA-3>
0

>  <PEOE_VSA-4>
19.249496

>  <PEOE_VSA-5>
13.566921

>  <PEOE_VSA-6>
0

>  <PEOE_VSA_FHYD>
0.79008716

>  <PEOE_VSA_FNEG>
0.37351462

>  <PEOE_VSA_FPNEG>
0.10568146

>  <PEOE_VSA_FPOL>
0.20991282

>  <PEOE_VSA_FPOS>
0.62648535

>  <PEOE_VSA_FPPOS>
0.10423137

>  <PEOE_VSA_HYD>
245.33946

>  <PEOE_VSA_NEG>
115.98451

>  <PEOE_VSA_PNEG>
32.816418

>  <PEOE_VSA_POL>
65.182556

>  <PEOE_VSA_POS>
194.53749

>  <PEOE_VSA_PPOS>
32.366135

>  <petitjean>
0.46153846

>  <petitjeanSC>
0.85714287

>  <Q_PC+>
0

>  <Q_PC->
0

>  <Q_RPC+>
0

>  <Q_RPC->
0

>  <Q_VSA_FHYD>
1

>  <Q_VSA_FNEG>
0

>  <Q_VSA_FPNEG>
0

>  <Q_VSA_FPOL>
0

>  <Q_VSA_FPOS>
1

>  <Q_VSA_FPPOS>
0

>  <Q_VSA_HYD>
310.522

>  <Q_VSA_NEG>
0

>  <Q_VSA_PNEG>
0

>  <Q_VSA_POL>
0

>  <Q_VSA_POS>
310.522

>  <Q_VSA_PPOS>
0

>  <radius>
7

>  <reactive>
0

>  <rings>
3

>  <RPC+>
0

>  <RPC->
0

>  <rsynth>
0.56521738

>  <SlogP>
5.0762

>  <SlogP_VSA0>
18.01075

>  <SlogP_VSA1>
11.578213

>  <SlogP_VSA2>
7.9639373

>  <SlogP_VSA3>
0

>  <SlogP_VSA4>
3.185575

>  <SlogP_VSA5>
0

>  <SlogP_VSA6>
3.5006065

>  <SlogP_VSA7>
70.572739

>  <SlogP_VSA8>
97.117981

>  <SlogP_VSA9>
152.41864

>  <SMR>
9.3997698

>  <SMR_VSA0>
47.724434

>  <SMR_VSA1>
3.1243138

>  <SMR_VSA2>
18.01075

>  <SMR_VSA3>
17.426073

>  <SMR_VSA4>
0

>  <SMR_VSA5>
164.91476

>  <SMR_VSA6>
8.4538984

>  <SMR_VSA7>
104.6942

>  <TPSA>
49.41

>  <VAdjEq>
0.45137304

>  <VAdjMa>
5.643856

>  <VDistEq>
3.3813589

>  <VDistMa>
8.7418404

>  <vdw_area>
310.522

>  <vdw_vol>
381.78381

>  <vsa_acc>
27.133842

>  <vsa_acid>
0

>  <vsa_base>
0

>  <vsa_don>
5.6825762

>  <vsa_hyd>
245.33946

>  <vsa_other>
32.366135

>  <vsa_pol>
32.816418

>  <Weight>
352.88599

>  <weinerPath>
1238

>  <weinerPol>
35

>  <zagreb>
120

$$$$
O=C(OC(C)CC)N1C(CCO)CCCC1
  MOE2011           2D

 16 16  0  0  1  0  0  0  0  0999 V2000
    0.0000    0.0000    0.0000 O   0  0  0  0  0  0  0  0  0  0  0  0
    0.7390   -1.3050    0.0000 C   0  0  0  0  0  0  0  0  0  0  0  0
    2.2390   -1.3170    0.0000 O   0  0  0  0  0  0  0  0  0  0  0  0
    3.0000   -0.0240    0.0000 C   0  0  3  0  0  0  0  0  0  0  0  0
    2.2600    1.2810    0.0000 C   0  0  0  0  0  0  0  0  0  0  0  0
    4.5000   -0.0360    0.0000 C   0  0  0  0  0  0  0  0  0  0  0  0
    5.2600    1.2570    0.0000 C   0  0  0  0  0  0  0  0  0  0  0  0
   -0.0210   -2.5980    0.0000 N   0  0  0  0  0  0  0  0  0  0  0  0
   -1.5210   -2.5860    0.0000 C   0  0  3  0  0  0  0  0  0  0  0  0
   -2.2600   -1.2810    0.0000 C   0  0  0  0  0  0  0  0  0  0  0  0
   -3.7600   -1.2690    0.0000 C   0  0  0  0  0  0  0  0  0  0  0  0
   -4.5000    0.0360    0.0000 O   0  0  0  0  0  0  0  0  0  0  0  0
   -2.2810   -3.8790    0.0000 C   0  0  0  0  0  0  0  0  0  0  0  0
   -1.5420   -5.1840    0.0000 C   0  0  0  0  0  0  0  0  0  0  0  0
   -0.0420   -5.1960    0.0000 C   0  0  0  0  0  0  0  0  0  0  0  0
    0.7190   -3.9030    0.0000 C   0  0  0  0  0  0  0  0  0  0  0  0
  1  2  2  0  0  0  0
  2  3  1  0  0  0  0
  2  8  1  0  0  0  0
  3  4  1  0  0  0  0
  4  5  1  0  0  0  0
  4  6  1  0  0  0  0
  6  7  1  0  0  0  0
  8  9  1  0  0  0  0
  8 16  1  0  0  0  0
  9 10  1  0  0  0  0
  9 13  1  0  0  0  0
 10 11  1  0  0  0  0
 11 12  1  0  0  0  0
 13 14  1  0  0  0  0
 14 15  1  0  0  0  0
 15 16  1  0  0  0  0
M  END
>  <DSSTox_RID>
40304

>  <DSSTox_CID>
14227

>  <apol>
39.962238

>  <a_acc>
2

>  <a_acid>
0

>  <a_aro>
0

>  <a_base>
0

>  <a_count>
39

>  <a_don>
1

>  <a_heavy>
16

>  <a_hyd>
11

>  <a_IC>
54.314323

>  <a_ICM>
1.3926749

>  <a_nB>
0

>  <a_nBr>
0

>  <a_nC>
12

>  <a_nCl>
0

>  <a_nF>
0

>  <a_nH>
23

>  <a_nI>
0

>  <a_nN>
1

>  <a_nO>
3

>  <a_nP>
0

>  <a_nS>
0

>  <balabanJ>
2.462436

>  <BCUT_PEOE_0>
-2.7858176

>  <BCUT_PEOE_1>
-0.33189678

>  <BCUT_PEOE_2>
0.26762593

>  <BCUT_PEOE_3>
2.7367635

>  <BCUT_SLOGP_0>
-2.8041959

>  <BCUT_SLOGP_1>
-0.20972894

>  <BCUT_SLOGP_2>
0.38242218

>  <BCUT_SLOGP_3>
2.7686832

>  <BCUT_SMR_0>
-2.5283709

>  <BCUT_SMR_1>
-0.12130824

>  <BCUT_SMR_2>
0.35036287

>  <BCUT_SMR_3>
2.9895916

>  <bpol>
29.997761

>  <b_1rotN>
5

>  <b_1rotR>
0.3125

>  <b_ar>
0

>  <b_count>
39

>  <b_double>
1

>  <b_heavy>
16

>  <b_rotN>
6

>  <b_rotR>
0.375

>  <b_single>
38

>  <b_triple>
0

>  <chi0>
11.966255

>  <chi0v>
10.315372

>  <chi0v_C>
8.6044483

>  <chi0_C>
8.681798

>  <chi1>
7.6850705

>  <chi1v>
6.2674136

>  <chi1v_C>
4.509202

>  <chi1_C>
4.509202

>  <chiral>
2

>  <chiral_u>
2

>  <density>
0.78646594

>  <diameter>
9

>  <FCharge>
0

>  <GCUT_PEOE_0>
-0.82823879

>  <GCUT_PEOE_1>
-0.34173518

>  <GCUT_PEOE_2>
-0.034781184

>  <GCUT_PEOE_3>
2.6632903

>  <GCUT_SLOGP_0>
-0.95929092

>  <GCUT_SLOGP_1>
-0.27598962

>  <GCUT_SLOGP_2>
-0.024773283

>  <GCUT_SLOGP_3>
2.6860349

>  <GCUT_SMR_0>
-0.53000474

>  <GCUT_SMR_1>
-0.15253071

>  <GCUT_SMR_2>
0.031919863

>  <GCUT_SMR_3>
2.8821902

>  <Kier1>
14.0625

>  <Kier2>
7.3499999

>  <Kier3>
4.4236112

>  <KierA1>
12.807451

>  <KierA2>
6.6496873

>  <KierA3>
3.9822102

>  <KierFlex>
5.3228464

>  <lip_acc>
4

>  <lip_don>
1

>  <lip_druglike>
1

>  <lip_violation>
0

>  <logP(o/w)>
2.286

>  <logS>
-1.34351

>  <mr>
6.3543186

>  <mutagenic>
0

>  <nmol>
1

>  <opr_brigid>
6

>  <opr_leadlike>
1

>  <opr_nring>
1

>  <opr_nrot>
6

>  <opr_violation>
0

>  <PC+>
0

>  <PC->
0

>  <PEOE_PC+>
1.0440097

>  <PEOE_PC->
-1.0440097

>  <PEOE_RPC+>
0.34966856

>  <PEOE_RPC->
0.28563881

>  <PEOE_VSA+0>
122.05088

>  <PEOE_VSA+1>
22.508045

>  <PEOE_VSA+2>
28.758026

>  <PEOE_VSA+3>
22.058474

>  <PEOE_VSA+4>
0

>  <PEOE_VSA+5>
0

>  <PEOE_VSA+6>
19.199511

>  <PEOE_VSA-0>
0

>  <PEOE_VSA-1>
0

>  <PEOE_VSA-2>
0

>  <PEOE_VSA-3>
0

>  <PEOE_VSA-4>
27.133842

>  <PEOE_VSA-5>
2.503756

>  <PEOE_VSA-6>
0

>  <PEOE_VSA_FHYD>
0.80002213

>  <PEOE_VSA_FNEG>
0.12135985

>  <PEOE_VSA_FPNEG>
0.12135985

>  <PEOE_VSA_FPOL>
0.1999779

>  <PEOE_VSA_FPOS>
0.87864012

>  <PEOE_VSA_FPPOS>
0.078618042

>  <PEOE_VSA_HYD>
195.37543

>  <PEOE_VSA_NEG>
29.637598

>  <PEOE_VSA_PNEG>
29.637598

>  <PEOE_VSA_POL>
48.837109

>  <PEOE_VSA_POS>
214.57494

>  <PEOE_VSA_PPOS>
19.199511

>  <petitjean>
0.44444445

>  <petitjeanSC>
0.80000001

>  <Q_PC+>
0

>  <Q_PC->
0

>  <Q_RPC+>
0

>  <Q_RPC->
0

>  <Q_VSA_FHYD>
1

>  <Q_VSA_FNEG>
0

>  <Q_VSA_FPNEG>
0

>  <Q_VSA_FPOL>
0

>  <Q_VSA_FPOS>
1

>  <Q_VSA_FPPOS>
0

>  <Q_VSA_HYD>
244.21252

>  <Q_VSA_NEG>
0

>  <Q_VSA_PNEG>
0

>  <Q_VSA_POL>
0

>  <Q_VSA_POS>
244.21252

>  <Q_VSA_PPOS>
0

>  <radius>
5

>  <reactive>
0

>  <rings>
1

>  <RPC+>
0

>  <RPC->
0

>  <rsynth>
1

>  <SlogP>
2.1584001

>  <SlogP_VSA0>
25.385227

>  <SlogP_VSA1>
10.44095

>  <SlogP_VSA2>
21.450506

>  <SlogP_VSA3>
39.365837

>  <SlogP_VSA4>
0

>  <SlogP_VSA5>
0

>  <SlogP_VSA6>
0

>  <SlogP_VSA7>
0

>  <SlogP_VSA8>
94.342026

>  <SlogP_VSA9>
90.514244

>  <SMR>
6.2281799

>  <SMR_VSA0>
34.862103

>  <SMR_VSA1>
28.509541

>  <SMR_VSA2>
0

>  <SMR_VSA3>
10.450618

>  <SMR_VSA4>
0

>  <SMR_VSA5>
94.342026

>  <SMR_VSA6>
46.682472

>  <SMR_VSA7>
66.652031

>  <TPSA>
49.77

>  <VAdjEq>
0.54356444

>  <VAdjMa>
5

>  <VDistEq>
2.917654

>  <VDistMa>
7.7059999

>  <vdw_area>
244.21252

>  <vdw_vol>
262.10416

>  <vsa_acc>
13.566921

>  <vsa_acid>
0

>  <vsa_base>
0

>  <vsa_don>
0

>  <vsa_hyd>
195.37543

>  <vsa_other>
21.703266

>  <vsa_pol>
27.133842

>  <Weight>
229.31999

>  <weinerPath>
459

>  <weinerPol>
21

>  <zagreb>
72

$$$$
Clc2ccc(C(OCC=C)Cn1ccnc1)c(Cl)c2
  MOE2011           2D

 19 20  0  0  1  0  0  0  0  0999 V2000
    0.0000    0.0000    0.0000 Cl  0  0  0  0  0  0  0  0  0  0  0  0
   -1.3030    0.7420    0.0000 C   0  0  0  0  0  0  0  0  0  0  0  0
   -1.3120    2.2420    0.0000 C   0  0  0  0  0  0  0  0  0  0  0  0
   -2.6150    2.9850    0.0000 C   0  0  0  0  0  0  0  0  0  0  0  0
   -3.9100    2.2270    0.0000 C   0  0  0  0  0  0  0  0  0  0  0  0
   -5.2140    2.9700    0.0000 C   0  0  3  0  0  0  0  0  0  0  0  0
   -5.2220    4.4700    0.0000 O   0  0  0  0  0  0  0  0  0  0  0  0
   -3.9280    5.2270    0.0000 C   0  0  0  0  0  0  0  0  0  0  0  0
   -3.9360    6.7270    0.0000 C   0  0  0  0  0  0  0  0  0  0  0  0
   -2.6420    7.4850    0.0000 C   0  0  0  0  0  0  0  0  0  0  0  0
   -6.5080    2.2120    0.0000 C   0  0  0  0  0  0  0  0  0  0  0  0
   -7.8120    2.9550    0.0000 N   0  0  0  0  0  0  0  0  0  0  0  0
   -9.1780    2.3370    0.0000 C   0  0  0  0  0  0  0  0  0  0  0  0
  -10.1880    3.4450    0.0000 C   0  0  0  0  0  0  0  0  0  0  0  0
   -9.4460    4.7490    0.0000 N   0  0  0  0  0  0  0  0  0  0  0  0
   -7.9770    4.4450    0.0000 C   0  0  0  0  0  0  0  0  0  0  0  0
   -3.9010    0.7270    0.0000 C   0  0  0  0  0  0  0  0  0  0  0  0
   -5.1960   -0.0300    0.0000 Cl  0  0  0  0  0  0  0  0  0  0  0  0
   -2.5980   -0.0150    0.0000 C   0  0  0  0  0  0  0  0  0  0  0  0
  1  2  1  0  0  0  0
  2  3  1  0  0  0  0
  2 19  2  0  0  0  0
  3  4  2  0  0  0  0
  4  5  1  0  0  0  0
  5  6  1  0  0  0  0
  5 17  2  0  0  0  0
  6  7  1  0  0  0  0
  6 11  1  0  0  0  0
  7  8  1  0  0  0  0
  8  9  1  0  0  0  0
  9 10  2  0  0  0  0
 11 12  1  0  0  0  0
 12 13  1  0  0  0  0
 12 16  1  0  0  0  0
 13 14  2  0  0  0  0
 14 15  1  0  0  0  0
 15 16  2  0  0  0  0
 17 18  1  0  0  0  0
 17 19  1  0  0  0  0
M  END
>  <DSSTox_RID>
40490

>  <DSSTox_CID>
4151

>  <apol>
41.337101

>  <a_acc>
2

>  <a_acid>
0

>  <a_aro>
11

>  <a_base>
0

>  <a_count>
33

>  <a_don>
0

>  <a_heavy>
19

>  <a_hyd>
15

>  <a_IC>
55.85907

>  <a_ICM>
1.6926991

>  <a_nB>
0

>  <a_nBr>
0

>  <a_nC>
14

>  <a_nCl>
2

>  <a_nF>
0

>  <a_nH>
14

>  <a_nI>
0

>  <a_nN>
2

>  <a_nO>
1

>  <a_nP>
0

>  <a_nS>
0

>  <balabanJ>
1.9130282

>  <BCUT_PEOE_0>
-2.5123537

>  <BCUT_PEOE_1>
-0.66585684

>  <BCUT_PEOE_2>
0.70851398

>  <BCUT_PEOE_3>
2.501946

>  <BCUT_SLOGP_0>
-2.4165144

>  <BCUT_SLOGP_1>
-0.49478674

>  <BCUT_SLOGP_2>
0.89737374

>  <BCUT_SLOGP_3>
2.6233442

>  <BCUT_SMR_0>
-2.2544079

>  <BCUT_SMR_1>
-0.46181393

>  <BCUT_SMR_2>
0.93623793

>  <BCUT_SMR_3>
2.753607

>  <bpol>
21.360897

>  <b_1rotN>
6

>  <b_1rotR>
0.30000001

>  <b_ar>
11

>  <b_count>
34

>  <b_double>
1

>  <b_heavy>
20

>  <b_rotN>
6

>  <b_rotR>
0.30000001

>  <b_single>
22

>  <b_triple>
0

>  <chi0>
13.664926

>  <chi0v>
11.810585

>  <chi0v_C>
8.2401228

>  <chi0_C>
9.6733618

>  <chi1>
9.2027082

>  <chi1v>
6.5920815

>  <chi1v_C>
3.5847871

>  <chi1_C>
4.9150147

>  <chiral>
1

>  <chiral_u>
1

>  <density>
0.86508459

>  <diameter>
9

>  <FCharge>
0

>  <GCUT_PEOE_0>
-0.85164952

>  <GCUT_PEOE_1>
-0.3774938

>  <GCUT_PEOE_2>
0.081499681

>  <GCUT_PEOE_3>
2.4404442

>  <GCUT_SLOGP_0>
-0.80948913

>  <GCUT_SLOGP_1>
-0.2775141

>  <GCUT_SLOGP_2>
0.24668522

>  <GCUT_SLOGP_3>
2.580214

>  <GCUT_SMR_0>
-0.50785375

>  <GCUT_SMR_1>
-0.1812387

>  <GCUT_SMR_2>
0.29873276

>  <GCUT_SMR_3>
2.716367

>  <Kier1>
15.39

>  <Kier2>
7.6952662

>  <Kier3>
4.5

>  <KierA1>
13.326944

>  <KierA2>
6.6070995

>  <KierA3>
3.8380318

>  <KierFlex>
4.6343398

>  <lip_acc>
3

>  <lip_don>
0

>  <lip_druglike>
1

>  <lip_violation>
0

>  <logP(o/w)>
3.74

>  <logS>
-3.75846

>  <mr>
7.9714332

>  <mutagenic>
0

>  <nmol>
1

>  <opr_brigid>
11

>  <opr_leadlike>
1

>  <opr_nring>
2

>  <opr_nrot>
6

>  <opr_violation>
0

>  <PC+>
0

>  <PC->
0

>  <PEOE_PC+>
1.0395187

>  <PEOE_PC->
-1.0395187

>  <PEOE_RPC+>
0.17188719

>  <PEOE_RPC->
0.3319557

>  <PEOE_VSA+0>
49.634022

>  <PEOE_VSA+1>
29.338999

>  <PEOE_VSA+2>
40.59901

>  <PEOE_VSA+3>
55.30751

>  <PEOE_VSA+4>
0

>  <PEOE_VSA+5>
0

>  <PEOE_VSA+6>
0

>  <PEOE_VSA-0>
45.216946

>  <PEOE_VSA-1>
59.163895

>  <PEOE_VSA-2>
0

>  <PEOE_VSA-3>
0

>  <PEOE_VSA-4>
5.6825762

>  <PEOE_VSA-5>
0

>  <PEOE_VSA-6>
2.503756

>  <PEOE_VSA_FHYD>
0.97152054

>  <PEOE_VSA_FNEG>
0.39161056

>  <PEOE_VSA_FPNEG>
0.028479477

>  <PEOE_VSA_FPOL>
0.028479477

>  <PEOE_VSA_FPOS>
0.60838944

>  <PEOE_VSA_FPPOS>
0

>  <PEOE_VSA_HYD>
279.26038

>  <PEOE_VSA_NEG>
112.56717

>  <PEOE_VSA_PNEG>
8.1863317

>  <PEOE_VSA_POL>
8.1863317

>  <PEOE_VSA_POS>
174.87955

>  <PEOE_VSA_PPOS>
0

>  <petitjean>
0.44444445

>  <petitjeanSC>
0.80000001

>  <Q_PC+>
0

>  <Q_PC->
0

>  <Q_RPC+>
0

>  <Q_RPC->
0

>  <Q_VSA_FHYD>
1

>  <Q_VSA_FNEG>
0

>  <Q_VSA_FPNEG>
0

>  <Q_VSA_FPOL>
0

>  <Q_VSA_FPOS>
1

>  <Q_VSA_FPPOS>
0

>  <Q_VSA_HYD>
287.44672

>  <Q_VSA_NEG>
0

>  <Q_VSA_PNEG>
0

>  <Q_VSA_POL>
0

>  <Q_VSA_POS>
287.44672

>  <Q_VSA_PPOS>
0

>  <radius>
5

>  <reactive>
0

>  <rings>
2

>  <RPC+>
0

>  <RPC->
0

>  <rsynth>
1

>  <SlogP>
4.4956999

>  <SlogP_VSA0>
0

>  <SlogP_VSA1>
18.684622

>  <SlogP_VSA2>
10.999887

>  <SlogP_VSA3>
20.926258

>  <SlogP_VSA4>
3.185575

>  <SlogP_VSA5>
0

>  <SlogP_VSA6>
7.0012131

>  <SlogP_VSA7>
121.78698

>  <SlogP_VSA8>
6.4686494

>  <SlogP_VSA9>
128.83766

>  <SMR>
7.7895002

>  <SMR_VSA0>
10.999887

>  <SMR_VSA1>
18.684622

>  <SMR_VSA2>
0

>  <SMR_VSA3>
16.655437

>  <SMR_VSA4>
0

>  <SMR_VSA5>
140.22656

>  <SMR_VSA6>
20.926258

>  <SMR_VSA7>
110.39808

>  <TPSA>
27.049999

>  <VAdjEq>
0.5023343

>  <VAdjMa>
5.321928

>  <VDistEq>
3.0165663

>  <VDistMa>
8.2188234

>  <vdw_area>
287.44672

>  <vdw_vol>
327.22

>  <vsa_acc>
8.1863317

>  <vsa_acid>
0

>  <vsa_base>
0

>  <vsa_don>
0

>  <vsa_hyd>
254.46986

>  <vsa_other>
24.790518

>  <vsa_pol>
8.1863317

>  <Weight>
297.185

>  <weinerPath>
721

>  <weinerPol>
24

>  <zagreb>
92

$$$$
O=C(N(C(C=C4)=CC=C4OC(F)(F)F)C(OC)=O)N1N=C(C(C=CC(Cl)=C3)=C3C2)[C@@]2([C@](OC)=O)OC1
  MOE2011           2D

 36 39  0  0  1  0  0  0  0  0999 V2000
    0.0000    0.0000    0.0000 O   0  0  0  0  0  0  0  0  0  0  0  0
    0.0080    1.5000    0.0000 C   0  0  0  0  0  0  0  0  0  0  0  0
    1.3110    2.2430    0.0000 N   0  0  0  0  0  0  0  0  0  0  0  0
    2.6060    1.4860    0.0000 C   0  0  0  0  0  0  0  0  0  0  0  0
    3.9090    2.2300    0.0000 C   0  0  0  0  0  0  0  0  0  0  0  0
    5.2040    1.4730    0.0000 C   0  0  0  0  0  0  0  0  0  0  0  0
    2.5980   -0.0140    0.0000 C   0  0  0  0  0  0  0  0  0  0  0  0
    3.8930   -0.7700    0.0000 C   0  0  0  0  0  0  0  0  0  0  0  0
    5.1960   -0.0270    0.0000 C   0  0  0  0  0  0  0  0  0  0  0  0
    6.4910   -0.7840    0.0000 O   0  0  0  0  0  0  0  0  0  0  0  0
    7.7940   -0.0410    0.0000 C   0  0  0  0  0  0  0  0  0  0  0  0
    8.5370   -1.3440    0.0000 F   0  0  0  0  0  0  0  0  0  0  0  0
    7.0510    1.2620    0.0000 F   0  0  0  0  0  0  0  0  0  0  0  0
    9.0970    0.7020    0.0000 F   0  0  0  0  0  0  0  0  0  0  0  0
    1.3190    3.7430    0.0000 C   0  0  0  0  0  0  0  0  0  0  0  0
    2.6220    4.4860    0.0000 O   0  0  0  0  0  0  0  0  0  0  0  0
    2.6300    5.9860    0.0000 C   0  0  0  0  0  0  0  0  0  0  0  0
    0.0240    4.5000    0.0000 O   0  0  0  0  0  0  0  0  0  0  0  0
   -1.2870    2.2570    0.0000 N   0  0  0  0  0  0  0  0  0  0  0  0
   -2.5900    1.5140    0.0000 N   0  0  0  0  0  0  0  0  0  0  0  0
   -3.8850    2.2700    0.0000 C   0  0  0  0  0  0  0  0  0  0  0  0
   -5.3140    1.8140    0.0000 C   0  0  0  0  0  0  0  0  0  0  0  0
   -5.9320    0.4470    0.0000 C   0  0  0  0  0  0  0  0  0  0  0  0
   -7.4240    0.2980    0.0000 C   0  0  0  0  0  0  0  0  0  0  0  0
   -8.2990    1.5160    0.0000 C   0  0  0  0  0  0  0  0  0  0  0  0
   -9.7920    1.3680    0.0000 Cl  0  0  0  0  0  0  0  0  0  0  0  0
   -7.6820    2.8840    0.0000 C   0  0  0  0  0  0  0  0  0  0  0  0
   -6.1900    3.0330    0.0000 C   0  0  0  0  0  0  0  0  0  0  0  0
   -5.3010    4.2410    0.0000 C   0  0  0  0  0  0  0  0  0  0  0  0
   -3.8770    3.7700    0.0000 C   0  0  1  0  0  0  0  0  0  0  0  0
   -4.0260    5.2630    0.0000 C   0  0  0  0  0  0  0  0  0  0  0  0
   -2.8080    6.1380    0.0000 O   0  0  0  0  0  0  0  0  0  0  0  0
   -2.9570    7.6310    0.0000 C   0  0  0  0  0  0  0  0  0  0  0  0
   -5.3930    5.8800    0.0000 O   0  0  0  0  0  0  0  0  0  0  0  0
   -2.5740    4.5140    0.0000 O   0  0  0  0  0  0  0  0  0  0  0  0
   -1.2790    3.7570    0.0000 C   0  0  0  0  0  0  0  0  0  0  0  0
  1  2  2  0  0  0  0
  2  3  1  0  0  0  0
  2 19  1  0  0  0  0
  3  4  1  0  0  0  0
  3 15  1  0  0  0  0
  4  5  2  0  0  0  0
  4  7  1  0  0  0  0
  5  6  1  0  0  0  0
  6  9  2  0  0  0  0
  7  8  2  0  0  0  0
  8  9  1  0  0  0  0
  9 10  1  0  0  0  0
 10 11  1  0  0  0  0
 11 12  1  0  0  0  0
 11 13  1  0  0  0  0
 11 14  1  0  0  0  0
 15 16  1  0  0  0  0
 15 18  2  0  0  0  0
 16 17  1  0  0  0  0
 19 20  1  0  0  0  0
 19 36  1  0  0  0  0
 20 21  2  0  0  0  0
 21 22  1  0  0  0  0
 21 30  1  0  0  0  0
 22 23  1  0  0  0  0
 22 28  2  0  0  0  0
 23 24  2  0  0  0  0
 24 25  1  0  0  0  0
 25 26  1  0  0  0  0
 25 27  2  0  0  0  0
 27 28  1  0  0  0  0
 28 29  1  0  0  0  0
 30 29  1  6  0  0  0
 30 31  1  1  0  0  0
 30 35  1  0  0  0  0
 31 32  1  0  0  0  0
 31 34  2  0  0  0  0
 32 33  1  0  0  0  0
 35 36  1  0  0  0  0
M  END
>  <DSSTox_RID>
40496

>  <DSSTox_CID>
12690

>  <apol>
62.82048

>  <a_acc>
6

>  <a_acid>
0

>  <a_aro>
12

>  <a_base>
0

>  <a_count>
53

>  <a_don>
0

>  <a_heavy>
36

>  <a_hyd>
21

>  <a_IC>
106.82416

>  <a_ICM>
2.0155501

>  <a_nB>
0

>  <a_nBr>
0

>  <a_nC>
22

>  <a_nCl>
1

>  <a_nF>
3

>  <a_nH>
17

>  <a_nI>
0

>  <a_nN>
3

>  <a_nO>
7

>  <a_nP>
0

>  <a_nS>
0

>  <balabanJ>
1.4807162

>  <BCUT_PEOE_0>
-2.5069304

>  <BCUT_PEOE_1>
-0.56837881

>  <BCUT_PEOE_2>
0.51960683

>  <BCUT_PEOE_3>
2.6762822

>  <BCUT_SLOGP_0>
-2.6881332

>  <BCUT_SLOGP_1>
-0.43028957

>  <BCUT_SLOGP_2>
0.64671081

>  <BCUT_SLOGP_3>
2.5532792

>  <BCUT_SMR_0>
-2.2734118

>  <BCUT_SMR_1>
-0.30644199

>  <BCUT_SMR_2>
0.78427249

>  <BCUT_SMR_3>
2.9152541

>  <bpol>
37.111519

>  <b_1rotN>
6

>  <b_1rotR>
0.15384616

>  <b_ar>
12

>  <b_count>
56

>  <b_double>
4

>  <b_heavy>
39

>  <b_rotN>
9

>  <b_rotR>
0.23076923

>  <b_single>
40

>  <b_triple>
0

>  <chi0>
26.250347

>  <chi0v>
19.422831

>  <chi0v_C>
12.955666

>  <chi0_C>
14.560114

>  <chi1>
16.98535

>  <chi1v>
10.522828

>  <chi1v_C>
5.0165076

>  <chi1_C>
6.7718048

>  <chiral>
1

>  <chiral_u>
0

>  <density>
0.97056895

>  <diameter>
16

>  <FCharge>
0

>  <GCUT_PEOE_0>
-0.76632547

>  <GCUT_PEOE_1>
-0.41662276

>  <GCUT_PEOE_2>
-0.054690331

>  <GCUT_PEOE_3>
2.7401788

>  <GCUT_SLOGP_0>
-1.0080322

>  <GCUT_SLOGP_1>
-0.30757469

>  <GCUT_SLOGP_2>
0.2239975

>  <GCUT_SLOGP_3>
2.7371593

>  <GCUT_SMR_0>
-0.50088131

>  <GCUT_SMR_1>
-0.1847938

>  <GCUT_SMR_2>
0.16535394

>  <GCUT_SMR_3>
3.0078108

>  <Kier1>
28.994083

>  <Kier2>
11.623096

>  <Kier3>
6.1124821

>  <KierA1>
22.58893

>  <KierA2>
8.9869003

>  <KierA3>
4.7010236

>  <KierFlex>
5.6390128

>  <lip_acc>
10

>  <lip_don>
0

>  <lip_druglike>
1

>  <lip_violation>
1

>  <logP(o/w)>
5.3517599

>  <logS>
-6.49892

>  <mr>
11.956821

>  <mutagenic>
0

>  <nmol>
1

>  <opr_brigid>
21

>  <opr_leadlike>
0

>  <opr_nring>
4

>  <opr_nrot>
3

>  <opr_violation>
2

>  <PC+>
0

>  <PC->
0

>  <PEOE_PC+>
2.9665177

>  <PEOE_PC->
-2.9665177

>  <PEOE_RPC+>
0.17842434

>  <PEOE_RPC->
0.10788021

>  <PEOE_VSA+0>
112.868

>  <PEOE_VSA+1>
27.027792

>  <PEOE_VSA+2>
15.158071

>  <PEOE_VSA+3>
71.316856

>  <PEOE_VSA+4>
0

>  <PEOE_VSA+5>
26.549486

>  <PEOE_VSA+6>
66.644035

>  <PEOE_VSA-0>
2.2085397

>  <PEOE_VSA-1>
29.581947

>  <PEOE_VSA-2>
35.725906

>  <PEOE_VSA-3>
9.4210396

>  <PEOE_VSA-4>
27.133842

>  <PEOE_VSA-5>
21.07819

>  <PEOE_VSA-6>
2.503756

>  <PEOE_VSA_FHYD>
0.67821181

>  <PEOE_VSA_FNEG>
0.28543881

>  <PEOE_VSA_FPNEG>
0.11340297

>  <PEOE_VSA_FPOL>
0.32178822

>  <PEOE_VSA_FPOS>
0.71456116

>  <PEOE_VSA_FPPOS>
0.20838524

>  <PEOE_VSA_HYD>
303.30817

>  <PEOE_VSA_NEG>
127.65322

>  <PEOE_VSA_PNEG>
50.715786

>  <PEOE_VSA_POL>
143.9093

>  <PEOE_VSA_POS>
319.56424

>  <PEOE_VSA_PPOS>
93.19352

>  <petitjean>
0.5

>  <petitjeanSC>
1

>  <Q_PC+>
0

>  <Q_PC->
0

>  <Q_RPC+>
0

>  <Q_RPC->
0

>  <Q_VSA_FHYD>
1

>  <Q_VSA_FNEG>
0

>  <Q_VSA_FPNEG>
0

>  <Q_VSA_FPOL>
0

>  <Q_VSA_FPOS>
1

>  <Q_VSA_FPPOS>
0

>  <Q_VSA_HYD>
447.21747

>  <Q_VSA_NEG>
0

>  <Q_VSA_PNEG>
0

>  <Q_VSA_POL>
0

>  <Q_VSA_POS>
447.21747

>  <Q_VSA_PPOS>
0

>  <radius>
8

>  <reactive>
0

>  <rings>
4

>  <RPC+>
0

>  <RPC->
0

>  <rsynth>
1

>  <SlogP>
4.0932698

>  <SlogP_VSA0>
14.124202

>  <SlogP_VSA1>
35.467964

>  <SlogP_VSA2>
56.861881

>  <SlogP_VSA3>
20.497431

>  <SlogP_VSA4>
6.37115

>  <SlogP_VSA5>
106.29915

>  <SlogP_VSA6>
3.5006065

>  <SlogP_VSA7>
123.50229

>  <SlogP_VSA8>
0

>  <SlogP_VSA9>
139.75359

>  <SMR>
11.7636

>  <SMR_VSA0>
104.58631

>  <SMR_VSA1>
75.545029

>  <SMR_VSA2>
12.941683

>  <SMR_VSA3>
15.115185

>  <SMR_VSA4>
2.7567475

>  <SMR_VSA5>
142.3707

>  <SMR_VSA6>
43.146236

>  <SMR_VSA7>
109.91638

>  <TPSA>
106.97

>  <VAdjEq>
0.3281796

>  <VAdjMa>
6.2854023

>  <VDistEq>
3.7540154

>  <VDistMa>
10.059954

>  <vdw_area>
447.21747

>  <vdw_vol>
526.18927

>  <vsa_acc>
55.129314

>  <vsa_acid>
0

>  <vsa_base>
0

>  <vsa_don>
0

>  <vsa_hyd>
302.48306

>  <vsa_other>
89.605103

>  <vsa_pol>
55.129314

>  <Weight>
527.83899

>  <weinerPath>
4014

>  <weinerPol>
65

>  <zagreb>
196

$$$$
O=C2N(c1cc(Cl)cc(Cl)c1)C(=O)CN2C(=O)NC(C)C
  MOE2011           2D

 21 22  0  0  0  0  0  0  0  0999 V2000
    0.0000    0.0000    0.0000 O   0  0  0  0  0  0  0  0  0  0  0  0
    0.1220    1.4950    0.0000 C   0  0  0  0  0  0  0  0  0  0  0  0
   -1.0170    2.4720    0.0000 N   0  0  0  0  0  0  0  0  0  0  0  0
   -2.4760    2.1260    0.0000 C   0  0  0  0  0  0  0  0  0  0  0  0
   -3.5060    3.2160    0.0000 C   0  0  0  0  0  0  0  0  0  0  0  0
   -4.9650    2.8700    0.0000 C   0  0  0  0  0  0  0  0  0  0  0  0
   -5.9950    3.9610    0.0000 Cl  0  0  0  0  0  0  0  0  0  0  0  0
   -5.3950    1.4330    0.0000 C   0  0  0  0  0  0  0  0  0  0  0  0
   -4.3650    0.3420    0.0000 C   0  0  0  0  0  0  0  0  0  0  0  0
   -4.7950   -1.0950    0.0000 Cl  0  0  0  0  0  0  0  0  0  0  0  0
   -2.9060    0.6890    0.0000 C   0  0  0  0  0  0  0  0  0  0  0  0
   -0.4390    3.8570    0.0000 C   0  0  0  0  0  0  0  0  0  0  0  0
   -1.2190    5.1370    0.0000 O   0  0  0  0  0  0  0  0  0  0  0  0
    1.0560    3.7350    0.0000 C   0  0  0  0  0  0  0  0  0  0  0  0
    1.4030    2.2760    0.0000 N   0  0  0  0  0  0  0  0  0  0  0  0
    2.7870    1.6980    0.0000 C   0  0  0  0  0  0  0  0  0  0  0  0
    2.9790    0.2100    0.0000 O   0  0  0  0  0  0  0  0  0  0  0  0
    3.9790    2.6080    0.0000 N   0  0  0  0  0  0  0  0  0  0  0  0
    5.3640    2.0300    0.0000 C   0  0  0  0  0  0  0  0  0  0  0  0
    6.5560    2.9410    0.0000 C   0  0  0  0  0  0  0  0  0  0  0  0
    5.5560    0.5430    0.0000 C   0  0  0  0  0  0  0  0  0  0  0  0
  1  2  2  0  0  0  0
  2  3  1  0  0  0  0
  2 15  1  0  0  0  0
  3  4  1  0  0  0  0
  3 12  1  0  0  0  0
  4  5  1  0  0  0  0
  4 11  2  0  0  0  0
  5  6  2  0  0  0  0
  6  7  1  0  0  0  0
  6  8  1  0  0  0  0
  8  9  2  0  0  0  0
  9 10  1  0  0  0  0
  9 11  1  0  0  0  0
 12 13  2  0  0  0  0
 12 14  1  0  0  0  0
 14 15  1  0  0  0  0
 15 16  1  0  0  0  0
 16 17  2  0  0  0  0
 16 18  1  0  0  0  0
 18 19  1  0  0  0  0
 19 20  1  0  0  0  0
 19 21  1  0  0  0  0
M  END
>  <DSSTox_RID>
40498

>  <DSSTox_CID>
4154

>  <apol>
41.614307

>  <a_acc>
3

>  <a_acid>
0

>  <a_aro>
6

>  <a_base>
0

>  <a_count>
34

>  <a_don>
1

>  <a_heavy>
21

>  <a_hyd>
12

>  <a_IC>
65.252525

>  <a_ICM>
1.9191921

>  <a_nB>
0

>  <a_nBr>
0

>  <a_nC>
13

>  <a_nCl>
2

>  <a_nF>
0

>  <a_nH>
13

>  <a_nI>
0

>  <a_nN>
3

>  <a_nO>
3

>  <a_nP>
0

>  <a_nS>
0

>  <balabanJ>
2.0427036

>  <BCUT_PEOE_0>
-2.5672488

>  <BCUT_PEOE_1>
-0.57592738

>  <BCUT_PEOE_2>
0.55349797

>  <BCUT_PEOE_3>
2.5761361

>  <BCUT_SLOGP_0>
-2.7097981

>  <BCUT_SLOGP_1>
-0.33550924

>  <BCUT_SLOGP_2>
0.75764775

>  <BCUT_SLOGP_3>
2.4991724

>  <BCUT_SMR_0>
-2.305099

>  <BCUT_SMR_1>
-0.32925081

>  <BCUT_SMR_2>
0.90336609

>  <BCUT_SMR_3>
2.8493297

>  <bpol>
22.545691

>  <b_1rotN>
3

>  <b_1rotR>
0.13636364

>  <b_ar>
6

>  <b_count>
35

>  <b_double>
3

>  <b_heavy>
22

>  <b_rotN>
4

>  <b_rotR>
0.18181819

>  <b_single>
26

>  <b_triple>
0

>  <chi0>
15.731687

>  <chi0v>
12.903467

>  <chi0v_C>
8.0165081

>  <chi0_C>
8.8698788

>  <chi1>
9.7906017

>  <chi1v>
6.9595075

>  <chi1v_C>
3.2403047

>  <chi1_C>
4.0124388

>  <chiral>
0

>  <chiral_u>
0

>  <density>
0.94866395

>  <diameter>
10

>  <FCharge>
0

>  <GCUT_PEOE_0>
-0.82716161

>  <GCUT_PEOE_1>
-0.40939781

>  <GCUT_PEOE_2>
0.036849074

>  <GCUT_PEOE_3>
2.4564435

>  <GCUT_SLOGP_0>
-1.1620742

>  <GCUT_SLOGP_1>
-0.35394236

>  <GCUT_SLOGP_2>
0.16978157

>  <GCUT_SLOGP_3>
2.4559622

>  <GCUT_SMR_0>
-0.51931435

>  <GCUT_SMR_1>
-0.16746384

>  <GCUT_SMR_2>
0.31659067

>  <GCUT_SMR_3>
2.7308147

>  <Kier1>
17.355371

>  <Kier2>
7.0507813

>  <Kier3>
4.0500002

>  <KierA1>
14.282163

>  <KierA2>
5.7419677

>  <KierA3>
3.2718322

>  <KierFlex>
3.9051294

>  <lip_acc>
6

>  <lip_don>
1

>  <lip_druglike>
1

>  <lip_violation>
0

>  <logP(o/w)>
2.4530001

>  <logS>
-4.1038899

>  <mr>
7.947546

>  <mutagenic>
0

>  <nmol>
1

>  <opr_brigid>
11

>  <opr_leadlike>
1

>  <opr_nring>
2

>  <opr_nrot>
2

>  <opr_violation>
0

>  <PC+>
0

>  <PC->
0

>  <PEOE_PC+>
1.5970217

>  <PEOE_PC->
-1.5970217

>  <PEOE_RPC+>
0.21886943

>  <PEOE_RPC->
0.16866942

>  <PEOE_VSA+0>
106.24239

>  <PEOE_VSA+1>
15.739044

>  <PEOE_VSA+2>
6.6995511

>  <PEOE_VSA+3>
0

>  <PEOE_VSA+4>
20.299505

>  <PEOE_VSA+5>
12.949531

>  <PEOE_VSA+6>
34.881084

>  <PEOE_VSA-0>
0

>  <PEOE_VSA-1>
59.163895

>  <PEOE_VSA-2>
0

>  <PEOE_VSA-3>
0

>  <PEOE_VSA-4>
32.816418

>  <PEOE_VSA-5>
13.566921

>  <PEOE_VSA-6>
0

>  <PEOE_VSA_FHYD>
0.62126571

>  <PEOE_VSA_FNEG>
0.34907997

>  <PEOE_VSA_FPNEG>
0.15340519

>  <PEOE_VSA_FPOL>
0.37873426

>  <PEOE_VSA_FPOS>
0.65092003

>  <PEOE_VSA_FPPOS>
0.22532907

>  <PEOE_VSA_HYD>
187.84488

>  <PEOE_VSA_NEG>
105.54723

>  <PEOE_VSA_PNEG>
46.383339

>  <PEOE_VSA_POL>
114.51346

>  <PEOE_VSA_POS>
196.8111

>  <PEOE_VSA_PPOS>
68.130119

>  <petitjean>
0.5

>  <petitjeanSC>
1

>  <Q_PC+>
0

>  <Q_PC->
0

>  <Q_RPC+>
0

>  <Q_RPC->
0

>  <Q_VSA_FHYD>
1

>  <Q_VSA_FNEG>
0

>  <Q_VSA_FPNEG>
0

>  <Q_VSA_FPOL>
0

>  <Q_VSA_FPOS>
1

>  <Q_VSA_FPPOS>
0

>  <Q_VSA_HYD>
302.35834

>  <Q_VSA_NEG>
0

>  <Q_VSA_PNEG>
0

>  <Q_VSA_POL>
0

>  <Q_VSA_POS>
302.35834

>  <Q_VSA_PPOS>
0

>  <radius>
5

>  <reactive>
0

>  <rings>
2

>  <RPC+>
0

>  <RPC->
0

>  <rsynth>
1

>  <SlogP>
2.8800001

>  <SlogP_VSA0>
21.135065

>  <SlogP_VSA1>
18.043011

>  <SlogP_VSA2>
27.844185

>  <SlogP_VSA3>
18.439579

>  <SlogP_VSA4>
0

>  <SlogP_VSA5>
0

>  <SlogP_VSA6>
7.0012131

>  <SlogP_VSA7>
52.929554

>  <SlogP_VSA8>
0

>  <SlogP_VSA9>
195.4305

>  <SMR>
7.9717698

>  <SMR_VSA0>
71.586647

>  <SMR_VSA1>
3.1243138

>  <SMR_VSA2>
21.135065

>  <SMR_VSA3>
10.983182

>  <SMR_VSA4>
2.7567475

>  <SMR_VSA5>
52.929554

>  <SMR_VSA6>
33.358273

>  <SMR_VSA7>
144.94931

>  <TPSA>
69.720001

>  <VAdjEq>
0.46827638

>  <VAdjMa>
5.4594316

>  <VDistEq>
3.1359007

>  <VDistMa>
8.4995279

>  <vdw_area>
302.35834

>  <vdw_vol>
334.22476

>  <vsa_acc>
40.700764

>  <vsa_acid>
0

>  <vsa_base>
0

>  <vsa_don>
5.6825762

>  <vsa_hyd>
208.14438

>  <vsa_other>
47.830616

>  <vsa_pol>
46.383339

>  <Weight>
330.17099

>  <weinerPath>
915

>  <weinerPol>
32

>  <zagreb>
108

$$$$
S=P(OCC)(OCC)OC1=NN(C(C)C)C(Cl)=N1
  MOE2011           2D

 18 18  0  0  0  0  0  0  0  0999 V2000
    0.0000    0.0000    0.0000 S   0  0  0  0  0  0  0  0  0  0  0  0
   -0.7510    1.2990    0.0000 P   0  0  0  0  0  0  0  0  0  0  0  0
   -1.5020    2.5970    0.0000 O   0  0  0  0  0  0  0  0  0  0  0  0
   -3.0020    2.5960    0.0000 C   0  0  0  0  0  0  0  0  0  0  0  0
   -3.7520    3.8950    0.0000 C   0  0  0  0  0  0  0  0  0  0  0  0
   -2.0490    0.5480    0.0000 O   0  0  0  0  0  0  0  0  0  0  0  0
   -2.0480   -0.9520    0.0000 C   0  0  0  0  0  0  0  0  0  0  0  0
   -3.3470   -1.7030    0.0000 C   0  0  0  0  0  0  0  0  0  0  0  0
    0.5480    2.0490    0.0000 O   0  0  0  0  0  0  0  0  0  0  0  0
    1.8470    1.3000    0.0000 C   0  0  0  0  0  0  0  0  0  0  0  0
    3.2170    1.9110    0.0000 N   0  0  0  0  0  0  0  0  0  0  0  0
    4.2220    0.7970    0.0000 N   0  0  0  0  0  0  0  0  0  0  0  0
    5.7130    0.9550    0.0000 C   0  0  0  0  0  0  0  0  0  0  0  0
    6.5960   -0.2580    0.0000 C   0  0  0  0  0  0  0  0  0  0  0  0
    6.3230    2.3260    0.0000 C   0  0  0  0  0  0  0  0  0  0  0  0
    3.4720   -0.5020    0.0000 C   0  0  0  0  0  0  0  0  0  0  0  0
    4.0830   -1.8720    0.0000 Cl  0  0  0  0  0  0  0  0  0  0  0  0
    2.0050   -0.1910    0.0000 N   0  0  0  0  0  0  0  0  0  0  0  0
  1  2  2  0  0  0  0
  2  3  1  0  0  0  0
  2  6  1  0  0  0  0
  2  9  1  0  0  0  0
  3  4  1  0  0  0  0
  4  5  1  0  0  0  0
  6  7  1  0  0  0  0
  7  8  1  0  0  0  0
  9 10  1  0  0  0  0
 10 11  2  0  0  0  0
 10 18  1  0  0  0  0
 11 12  1  0  0  0  0
 12 13  1  0  0  0  0
 12 16  1  0  0  0  0
 13 14  1  0  0  0  0
 13 15  1  0  0  0  0
 16 17  1  0  0  0  0
 16 18  2  0  0  0  0
M  END
>  <DSSTox_RID>
40499

>  <DSSTox_CID>
14676

>  <apol>
41.59148

>  <a_acc>
4

>  <a_acid>
0

>  <a_aro>
5

>  <a_base>
0

>  <a_count>
35

>  <a_don>
0

>  <a_heavy>
18

>  <a_hyd>
8

>  <a_IC>
71.99894

>  <a_ICM>
2.0571125

>  <a_nB>
0

>  <a_nBr>
0

>  <a_nC>
9

>  <a_nCl>
1

>  <a_nF>
0

>  <a_nH>
17

>  <a_nI>
0

>  <a_nN>
3

>  <a_nO>
3

>  <a_nP>
1

>  <a_nS>
1

>  <balabanJ>
2.562999

>  <BCUT_PEOE_0>
-2.5076241

>  <BCUT_PEOE_1>
-0.23743439

>  <BCUT_PEOE_2>
0.061251573

>  <BCUT_PEOE_3>
2.511312

>  <BCUT_SLOGP_0>
-2.4145451

>  <BCUT_SLOGP_1>
-0.0045206863

>  <BCUT_SLOGP_2>
0.123

>  <BCUT_SLOGP_3>
2.6632752

>  <BCUT_SMR_0>
-2.2717526

>  <BCUT_SMR_1>
0.1057

>  <BCUT_SMR_2>
0.43161488

>  <BCUT_SMR_3>
2.7969892

>  <bpol>
34.392521

>  <b_1rotN>
7

>  <b_1rotR>
0.3888889

>  <b_ar>
5

>  <b_count>
35

>  <b_double>
0

>  <b_heavy>
18

>  <b_rotN>
7

>  <b_rotR>
0.3888889

>  <b_single>
30

>  <b_triple>
0

>  <chi0>
13.759149

>  <chi0v>
13.258228

>  <chi0v_C>
6.9915638

>  <chi0_C>
7.1462646

>  <chi1>
8.4148331

>  <chi1v>
8.5562963

>  <chi1v_C>
2.5689142

>  <chi1_C>
2.5689142

>  <chiral>
0

>  <chiral_u>
0

>  <density>
0.97939378

>  <diameter>
9

>  <FCharge>
0

>  <GCUT_PEOE_0>
-0.80267036

>  <GCUT_PEOE_1>
-0.35478598

>  <GCUT_PEOE_2>
-0.10733921

>  <GCUT_PEOE_3>
2.3464913

>  <GCUT_SLOGP_0>
-0.88359207

>  <GCUT_SLOGP_1>
-0.23019615

>  <GCUT_SLOGP_2>
-0.037

>  <GCUT_SLOGP_3>
2.4572155

>  <GCUT_SMR_0>
-0.52001369

>  <GCUT_SMR_1>
-0.098568045

>  <GCUT_SMR_2>
0.12968756

>  <GCUT_SMR_3>
2.6059701

>  <Kier1>
16.055555

>  <Kier2>
6.9632001

>  <Kier3>
4.5659928

>  <KierA1>
18.172314

>  <KierA2>
7.9400015

>  <KierA3>
5.2350955

>  <KierFlex>
8.0160112

>  <lip_acc>
6

>  <lip_don>
0

>  <lip_druglike>
1

>  <lip_violation>
0

>  <logP(o/w)>
2.1259999

>  <logS>
-4.56042

>  <mr>
7.725915

>  <mutagenic>
0

>  <nmol>
1

>  <opr_brigid>
5

>  <opr_leadlike>
1

>  <opr_nring>
1

>  <opr_nrot>
7

>  <opr_violation>
0

>  <PC+>
0

>  <PC->
0

>  <PEOE_PC+>
1.5519954

>  <PEOE_PC->
-1.5519954

>  <PEOE_RPC+>
0.21822137

>  <PEOE_RPC->
0.29483294

>  <PEOE_VSA+0>
117.6338

>  <PEOE_VSA+1>
0

>  <PEOE_VSA+2>
6.6995511

>  <PEOE_VSA+3>
0

>  <PEOE_VSA+4>
57.618717

>  <PEOE_VSA+5>
0

>  <PEOE_VSA+6>
33.03075

>  <PEOE_VSA-0>
29.581947

>  <PEOE_VSA-1>
0

>  <PEOE_VSA-2>
14.087011

>  <PEOE_VSA-3>
5.6825762

>  <PEOE_VSA-4>
9.3319435

>  <PEOE_VSA-5>
0

>  <PEOE_VSA-6>
33.008488

>  <PEOE_VSA_FHYD>
0.56634879

>  <PEOE_VSA_FNEG>
0.29898763

>  <PEOE_VSA_FPNEG>
0.13806297

>  <PEOE_VSA_FPOL>
0.43365124

>  <PEOE_VSA_FPOS>
0.70101237

>  <PEOE_VSA_FPPOS>
0.29558828

>  <PEOE_VSA_HYD>
173.68489

>  <PEOE_VSA_NEG>
91.691963

>  <PEOE_VSA_PNEG>
42.340431

>  <PEOE_VSA_POL>
132.9899

>  <PEOE_VSA_POS>
214.98282

>  <PEOE_VSA_PPOS>
90.649467

>  <petitjean>
0.44444445

>  <petitjeanSC>
0.80000001

>  <Q_PC+>
0

>  <Q_PC->
0

>  <Q_RPC+>
0

>  <Q_RPC->
0

>  <Q_VSA_FHYD>
1

>  <Q_VSA_FNEG>
0

>  <Q_VSA_FPNEG>
0

>  <Q_VSA_FPOL>
0

>  <Q_VSA_FPOS>
1

>  <Q_VSA_FPPOS>
0

>  <Q_VSA_HYD>
306.67477

>  <Q_VSA_NEG>
0

>  <Q_VSA_PNEG>
0

>  <Q_VSA_POL>
0

>  <Q_VSA_POS>
306.67477

>  <Q_VSA_PPOS>
0

>  <radius>
5

>  <reactive>
0

>  <rings>
1

>  <RPC+>
0

>  <RPC->
0

>  <rsynth>
1

>  <SlogP>
3.2842

>  <SlogP_VSA0>
6.9216304

>  <SlogP_VSA1>
35.225109

>  <SlogP_VSA2>
56.537235

>  <SlogP_VSA3>
41.852516

>  <SlogP_VSA4>
0

>  <SlogP_VSA5>
0

>  <SlogP_VSA6>
2.6429517

>  <SlogP_VSA7>
0

>  <SlogP_VSA8>
3.9819686

>  <SlogP_VSA9>
189.76561

>  <SMR>
7.3692999

>  <SMR_VSA0>
13.843261

>  <SMR_VSA1>
42.146736

>  <SMR_VSA2>
0

>  <SMR_VSA3>
11.010694

>  <SMR_VSA4>
0

>  <SMR_VSA5>
0

>  <SMR_VSA6>
41.852516

>  <SMR_VSA7>
228.07382

>  <TPSA>
90.489998

>  <VAdjEq>
0.50325835

>  <VAdjMa>
5.1699252

>  <VDistEq>
3.0277209

>  <VDistMa>
8.0484219

>  <vdw_area>
306.67477

>  <vdw_vol>
302.85062

>  <vsa_acc>
24.43556

>  <vsa_acid>
0

>  <vsa_base>
0

>  <vsa_don>
0

>  <vsa_hyd>
198.03224

>  <vsa_other>
84.206978

>  <vsa_pol>
24.43556

>  <Weight>
313.746

>  <weinerPath>
630

>  <weinerPol>
24

>  <zagreb>
86

$$$$
CCC(C)(CC)c2cc(NC(=O)c1c(OC)cccc1OC)on2
  MOE2011           2D

 24 25  0  0  0  0  0  0  0  0999 V2000
    0.0000    0.0000    0.0000 C   0  0  0  0  0  0  0  0  0  0  0  0
   -0.3940   -1.4470    0.0000 C   0  0  0  0  0  0  0  0  0  0  0  0
   -1.8450   -1.8300    0.0000 C   0  0  0  0  0  0  0  0  0  0  0  0
   -2.2270   -0.3790    0.0000 C   0  0  0  0  0  0  0  0  0  0  0  0
   -1.4620   -3.2800    0.0000 C   0  0  0  0  0  0  0  0  0  0  0  0
   -0.0150   -3.6740    0.0000 C   0  0  0  0  0  0  0  0  0  0  0  0
   -3.2950   -2.2120    0.0000 C   0  0  0  0  0  0  0  0  0  0  0  0
   -4.4570   -1.2630    0.0000 C   0  0  0  0  0  0  0  0  0  0  0  0
   -5.7180   -2.0750    0.0000 C   0  0  0  0  0  0  0  0  0  0  0  0
   -7.1160   -1.5320    0.0000 N   0  0  0  0  0  0  0  0  0  0  0  0
   -8.2860   -2.4710    0.0000 C   0  0  0  0  0  0  0  0  0  0  0  0
   -8.0570   -3.9540    0.0000 O   0  0  0  0  0  0  0  0  0  0  0  0
   -9.6840   -1.9280    0.0000 C   0  0  0  0  0  0  0  0  0  0  0  0
   -9.9130   -0.4460    0.0000 C   0  0  0  0  0  0  0  0  0  0  0  0
   -8.7430    0.4940    0.0000 O   0  0  0  0  0  0  0  0  0  0  0  0
   -8.9720    1.9760    0.0000 C   0  0  0  0  0  0  0  0  0  0  0  0
  -11.3110    0.0980    0.0000 C   0  0  0  0  0  0  0  0  0  0  0  0
  -12.4800   -0.8420    0.0000 C   0  0  0  0  0  0  0  0  0  0  0  0
  -12.2520   -2.3240    0.0000 C   0  0  0  0  0  0  0  0  0  0  0  0
  -10.8540   -2.8670    0.0000 C   0  0  0  0  0  0  0  0  0  0  0  0
  -10.6250   -4.3500    0.0000 O   0  0  0  0  0  0  0  0  0  0  0  0
  -11.7940   -5.2890    0.0000 C   0  0  0  0  0  0  0  0  0  0  0  0
   -5.3360   -3.5260    0.0000 O   0  0  0  0  0  0  0  0  0  0  0  0
   -3.8380   -3.6100    0.0000 N   0  0  0  0  0  0  0  0  0  0  0  0
  1  2  1  0  0  0  0
  2  3  1  0  0  0  0
  3  4  1  0  0  0  0
  3  5  1  0  0  0  0
  3  7  1  0  0  0  0
  5  6  1  0  0  0  0
  7  8  1  0  0  0  0
  7 24  2  0  0  0  0
  8  9  2  0  0  0  0
  9 10  1  0  0  0  0
  9 23  1  0  0  0  0
 10 11  1  0  0  0  0
 11 12  2  0  0  0  0
 11 13  1  0  0  0  0
 13 14  1  0  0  0  0
 13 20  2  0  0  0  0
 14 15  1  0  0  0  0
 14 17  2  0  0  0  0
 15 16  1  0  0  0  0
 17 18  1  0  0  0  0
 18 19  2  0  0  0  0
 19 20  1  0  0  0  0
 20 21  1  0  0  0  0
 21 22  1  0  0  0  0
 23 24  1  0  0  0  0
M  END
>  <DSSTox_RID>
40500

>  <DSSTox_CID>
4159

>  <apol>
53.09103

>  <a_acc>
4

>  <a_acid>
0

>  <a_aro>
11

>  <a_base>
0

>  <a_count>
48

>  <a_don>
1

>  <a_heavy>
24

>  <a_hyd>
16

>  <a_IC>
72.980453

>  <a_ICM>
1.520426

>  <a_nB>
0

>  <a_nBr>
0

>  <a_nC>
18

>  <a_nCl>
0

>  <a_nF>
0

>  <a_nH>
24

>  <a_nI>
0

>  <a_nN>
2

>  <a_nO>
4

>  <a_nP>
0

>  <a_nS>
0

>  <balabanJ>
1.9547275

>  <BCUT_PEOE_0>
-2.6912572

>  <BCUT_PEOE_1>
-0.44788644

>  <BCUT_PEOE_2>
0.49831483

>  <BCUT_PEOE_3>
2.667881

>  <BCUT_SLOGP_0>
-2.6020689

>  <BCUT_SLOGP_1>
-0.3494336

>  <BCUT_SLOGP_2>
0.58893079

>  <BCUT_SLOGP_3>
2.7637372

>  <BCUT_SMR_0>
-2.4455965

>  <BCUT_SMR_1>
-0.2708548

>  <BCUT_SMR_2>
0.67022294

>  <BCUT_SMR_3>
2.9166472

>  <bpol>
33.602966

>  <b_1rotN>
7

>  <b_1rotR>
0.28

>  <b_ar>
11

>  <b_count>
49

>  <b_double>
1

>  <b_heavy>
25

>  <b_rotN>
8

>  <b_rotR>
0.31999999

>  <b_single>
37

>  <b_triple>
0

>  <chi0>
17.742277

>  <chi0v>
14.803822

>  <chi0v_C>
12.223615

>  <chi0_C>
13.206742

>  <chi1>
11.484042

>  <chi1v>
7.9818616

>  <chi1v_C>
5.4426875

>  <chi1_C>
6.5429888

>  <chiral>
0

>  <chiral_u>
0

>  <density>
0.79385895

>  <diameter>
11

>  <FCharge>
0

>  <GCUT_PEOE_0>
-0.79068458

>  <GCUT_PEOE_1>
-0.36880764

>  <GCUT_PEOE_2>
-0.025594762

>  <GCUT_PEOE_3>
2.6329231

>  <GCUT_SLOGP_0>
-0.9934721

>  <GCUT_SLOGP_1>
-0.26356623

>  <GCUT_SLOGP_2>
0.13169752

>  <GCUT_SLOGP_3>
2.7289395

>  <GCUT_SMR_0>
-0.52696514

>  <GCUT_SMR_1>
-0.17771026

>  <GCUT_SMR_2>
0.14308429

>  <GCUT_SMR_3>
2.8790751

>  <Kier1>
20.313601

>  <Kier2>
9.087347

>  <Kier3>
4.6011772

>  <KierA1>
15.941868

>  <KierA2>
7.0512724

>  <KierA3>
3.5412118

>  <KierFlex>
4.6837687

>  <lip_acc>
6

>  <lip_don>
1

>  <lip_druglike>
1

>  <lip_violation>
0

>  <logP(o/w)>
3.6889999

>  <logS>
-4.36238

>  <mr>
9.3178558

>  <mutagenic>
0

>  <nmol>
1

>  <opr_brigid>
11

>  <opr_leadlike>
1

>  <opr_nring>
2

>  <opr_nrot>
7

>  <opr_violation>
0

>  <PC+>
0

>  <PC->
0

>  <PEOE_PC+>
1.5038925

>  <PEOE_PC->
-1.5038925

>  <PEOE_RPC+>
0.18988134

>  <PEOE_RPC->
0.22216459

>  <PEOE_VSA+0>
167.26782

>  <PEOE_VSA+1>
15.808495

>  <PEOE_VSA+2>
25.82513

>  <PEOE_VSA+3>
71.316856

>  <PEOE_VSA+4>
0

>  <PEOE_VSA+5>
25.899061

>  <PEOE_VSA+6>
0

>  <PEOE_VSA-0>
0

>  <PEOE_VSA-1>
10.885262

>  <PEOE_VSA-2>
0

>  <PEOE_VSA-3>
5.6825762

>  <PEOE_VSA-4>
0

>  <PEOE_VSA-5>
13.566921

>  <PEOE_VSA-6>
10.909872

>  <PEOE_VSA_FHYD>
0.85489237

>  <PEOE_VSA_FNEG>
0.11822904

>  <PEOE_VSA_FPNEG>
0.070505388

>  <PEOE_VSA_FPOL>
0.14510763

>  <PEOE_VSA_FPOS>
0.88177097

>  <PEOE_VSA_FPPOS>
0.074602239

>  <PEOE_VSA_HYD>
296.78613

>  <PEOE_VSA_NEG>
41.044632

>  <PEOE_VSA_PNEG>
24.476793

>  <PEOE_VSA_POL>
50.375854

>  <PEOE_VSA_POS>
306.11737

>  <PEOE_VSA_PPOS>
25.899061

>  <petitjean>
0.45454547

>  <petitjeanSC>
0.83333331

>  <Q_PC+>
0

>  <Q_PC->
0

>  <Q_RPC+>
0

>  <Q_RPC->
0

>  <Q_VSA_FHYD>
1

>  <Q_VSA_FNEG>
0

>  <Q_VSA_FPNEG>
0

>  <Q_VSA_FPOL>
0

>  <Q_VSA_FPOS>
1

>  <Q_VSA_FPPOS>
0

>  <Q_VSA_HYD>
347.16199

>  <Q_VSA_NEG>
0

>  <Q_VSA_PNEG>
0

>  <Q_VSA_POL>
0

>  <Q_VSA_POS>
347.16199

>  <Q_VSA_PPOS>
0

>  <radius>
6

>  <reactive>
0

>  <rings>
2

>  <RPC+>
0

>  <RPC->
0

>  <rsynth>
0.70833331

>  <SlogP>
4.0218

>  <SlogP_VSA0>
21.999775

>  <SlogP_VSA1>
42.866131

>  <SlogP_VSA2>
0

>  <SlogP_VSA3>
0

>  <SlogP_VSA4>
29.804539

>  <SlogP_VSA5>
80.501854

>  <SlogP_VSA6>
0

>  <SlogP_VSA7>
70.572739

>  <SlogP_VSA8>
37.736813

>  <SlogP_VSA9>
115.48489

>  <SMR>
9.1936197

>  <SMR_VSA0>
33.596336

>  <SMR_VSA1>
41.596371

>  <SMR_VSA2>
0

>  <SMR_VSA3>
16.429178

>  <SMR_VSA4>
23.030745

>  <SMR_VSA5>
108.30955

>  <SMR_VSA6>
5.2587838

>  <SMR_VSA7>
170.74577

>  <TPSA>
73.589996

>  <VAdjEq>
0.42571631

>  <VAdjMa>
5.643856

>  <VDistEq>
3.3454564

>  <VDistMa>
8.877408

>  <vdw_area>
347.16199

>  <vdw_vol>
388.24026

>  <vsa_acc>
29.459696

>  <vsa_acid>
0

>  <vsa_base>
0

>  <vsa_don>
5.6825762

>  <vsa_hyd>
280.21829

>  <vsa_other>
31.801422

>  <vsa_pol>
35.142269

>  <Weight>
332.39999

>  <weinerPath>
1387

>  <weinerPol>
39

>  <zagreb>
120

$$$$
O=C(C3=C(S(=O)(C)=O)C=C(C(F)(F)F)C=C3)C1=C(C2CC2)ON=C1
  MOE2011           2D

 24 26  0  0  0  0  0  0  0  0999 V2000
    0.0000    0.0000    0.0000 O   0  0  0  0  0  0  0  0  0  0  0  0
   -0.0110   -1.5000    0.0000 C   0  0  0  0  0  0  0  0  0  0  0  0
    1.2820   -2.2600    0.0000 C   0  0  0  0  0  0  0  0  0  0  0  0
    2.5870   -1.5190    0.0000 C   0  0  0  0  0  0  0  0  0  0  0  0
    2.5980   -0.0200    0.0000 S   0  0  0  0  0  0  0  0  0  0  0  0
    1.0980   -0.0080    0.0000 O   0  0  0  0  0  0  0  0  0  0  0  0
    2.6090    1.4800    0.0000 C   0  0  0  0  0  0  0  0  0  0  0  0
    4.0980   -0.0310    0.0000 O   0  0  0  0  0  0  0  0  0  0  0  0
    3.8800   -2.2790    0.0000 C   0  0  0  0  0  0  0  0  0  0  0  0
    3.8690   -3.7790    0.0000 C   0  0  0  0  0  0  0  0  0  0  0  0
    5.1620   -4.5390    0.0000 C   0  0  0  0  0  0  0  0  0  0  0  0
    5.9220   -3.2460    0.0000 F   0  0  0  0  0  0  0  0  0  0  0  0
    6.4560   -5.2990    0.0000 F   0  0  0  0  0  0  0  0  0  0  0  0
    4.4020   -5.8320    0.0000 F   0  0  0  0  0  0  0  0  0  0  0  0
    2.5640   -4.5190    0.0000 C   0  0  0  0  0  0  0  0  0  0  0  0
    1.2710   -3.7600    0.0000 C   0  0  0  0  0  0  0  0  0  0  0  0
   -1.3160   -2.2400    0.0000 C   0  0  0  0  0  0  0  0  0  0  0  0
   -2.6820   -1.6200    0.0000 C   0  0  0  0  0  0  0  0  0  0  0  0
   -2.9820   -0.1500    0.0000 C   0  0  0  0  0  0  0  0  0  0  0  0
   -3.9780    0.9720    0.0000 C   0  0  0  0  0  0  0  0  0  0  0  0
   -2.5080    1.2730    0.0000 C   0  0  0  0  0  0  0  0  0  0  0  0
   -3.6940   -2.7270    0.0000 O   0  0  0  0  0  0  0  0  0  0  0  0
   -2.9530   -4.0320    0.0000 N   0  0  0  0  0  0  0  0  0  0  0  0
   -1.4840   -3.7310    0.0000 C   0  0  0  0  0  0  0  0  0  0  0  0
  1  2  2  0  0  0  0
  2  3  1  0  0  0  0
  2 17  1  0  0  0  0
  3  4  1  0  0  0  0
  3 16  2  0  0  0  0
  4  5  1  0  0  0  0
  4  9  2  0  0  0  0
  5  6  2  0  0  0  0
  5  7  1  0  0  0  0
  5  8  2  0  0  0  0
  9 10  1  0  0  0  0
 10 11  1  0  0  0  0
 10 15  2  0  0  0  0
 11 12  1  0  0  0  0
 11 13  1  0  0  0  0
 11 14  1  0  0  0  0
 15 16  1  0  0  0  0
 17 18  2  0  0  0  0
 17 24  1  0  0  0  0
 18 19  1  0  0  0  0
 18 22  1  0  0  0  0
 19 20  1  0  0  0  0
 19 21  1  0  0  0  0
 20 21  1  0  0  0  0
 22 23  1  0  0  0  0
 23 24  2  0  0  0  0
M  END
>  <DSSTox_RID>
40519

>  <DSSTox_CID>
14723

>  <apol>
43.280518

>  <a_acc>
4

>  <a_acid>
0

>  <a_aro>
11

>  <a_base>
0

>  <a_count>
36

>  <a_don>
0

>  <a_heavy>
24

>  <a_hyd>
16

>  <a_IC>
71.739502

>  <a_ICM>
1.992764

>  <a_nB>
0

>  <a_nBr>
0

>  <a_nC>
15

>  <a_nCl>
0

>  <a_nF>
3

>  <a_nH>
12

>  <a_nI>
0

>  <a_nN>
1

>  <a_nO>
4

>  <a_nP>
0

>  <a_nS>
1

>  <balabanJ>
1.7550206

>  <BCUT_PEOE_0>
-2.4193811

>  <BCUT_PEOE_1>
-0.5162223

>  <BCUT_PEOE_2>
0.47904974

>  <BCUT_PEOE_3>
2.7600372

>  <BCUT_SLOGP_0>
-2.4432337

>  <BCUT_SLOGP_1>
-0.38837984

>  <BCUT_SLOGP_2>
0.56164151

>  <BCUT_SLOGP_3>
2.89329

>  <BCUT_SMR_0>
-2.0697796

>  <BCUT_SMR_1>
-0.25006703

>  <BCUT_SMR_2>
0.67990261

>  <BCUT_SMR_3>
2.9988151

>  <bpol>
26.077484

>  <b_1rotN>
4

>  <b_1rotR>
0.15384616

>  <b_ar>
11

>  <b_count>
38

>  <b_double>
1

>  <b_heavy>
26

>  <b_rotN>
5

>  <b_rotR>
0.1923077

>  <b_single>
26

>  <b_triple>
0

>  <chi0>
17.698307

>  <chi0v>
13.23981

>  <chi0v_C>
8.8009653

>  <chi0_C>
9.7840929

>  <chi1>
11.087354

>  <chi1v>
8.8849659

>  <chi1v_C>
4.6318808

>  <chi1_C>
5.8130798

>  <chiral>
0

>  <chiral_u>
0

>  <density>
0.99690062

>  <diameter>
10

>  <FCharge>
0

>  <GCUT_PEOE_0>
-0.88695091

>  <GCUT_PEOE_1>
-0.4413237

>  <GCUT_PEOE_2>
0.0017115436

>  <GCUT_PEOE_3>
2.5537851

>  <GCUT_SLOGP_0>
-0.83074903

>  <GCUT_SLOGP_1>
-0.3243649

>  <GCUT_SLOGP_2>
0.21871743

>  <GCUT_SLOGP_3>
2.6043246

>  <GCUT_SMR_0>
-0.46451122

>  <GCUT_SMR_1>
-0.17008504

>  <GCUT_SMR_2>
0.16276501

>  <GCUT_SMR_3>
2.8051996

>  <Kier1>
18.781065

>  <Kier2>
6.6222486

>  <Kier3>
3.7588758

>  <KierA1>
15.776979

>  <KierA2>
5.5183792

>  <KierA3>
3.1141934

>  <KierFlex>
3.62764

>  <lip_acc>
5

>  <lip_don>
0

>  <lip_druglike>
1

>  <lip_violation>
0

>  <logP(o/w)>
2.44276

>  <logS>
-3.9161699

>  <mr>
8.0971832

>  <mutagenic>
0

>  <nmol>
1

>  <opr_brigid>
14

>  <opr_leadlike>
1

>  <opr_nring>
3

>  <opr_nrot>
4

>  <opr_violation>
0

>  <PC+>
0

>  <PC->
0

>  <PEOE_PC+>
2.2390273

>  <PEOE_PC->
-2.2390273

>  <PEOE_RPC+>
0.23396571

>  <PEOE_RPC->
0.2105028

>  <PEOE_VSA+0>
63.233978

>  <PEOE_VSA+1>
6.6256189

>  <PEOE_VSA+2>
38.31654

>  <PEOE_VSA+3>
8.458519

>  <PEOE_VSA+4>
8.458519

>  <PEOE_VSA+5>
4.1846013

>  <PEOE_VSA+6>
40.430012

>  <PEOE_VSA-0>
0

>  <PEOE_VSA-1>
17.398062

>  <PEOE_VSA-2>
0

>  <PEOE_VSA-3>
35.725906

>  <PEOE_VSA-4>
0

>  <PEOE_VSA-5>
13.566921

>  <PEOE_VSA-6>
37.918884

>  <PEOE_VSA_FHYD>
0.6188398

>  <PEOE_VSA_FNEG>
0.38134551

>  <PEOE_VSA_FPNEG>
0.18768686

>  <PEOE_VSA_FPOL>
0.3811602

>  <PEOE_VSA_FPOS>
0.61865449

>  <PEOE_VSA_FPPOS>
0.19347334

>  <PEOE_VSA_HYD>
169.75862

>  <PEOE_VSA_NEG>
104.60977

>  <PEOE_VSA_PNEG>
51.485802

>  <PEOE_VSA_POL>
104.55894

>  <PEOE_VSA_POS>
169.70779

>  <PEOE_VSA_PPOS>
53.073135

>  <petitjean>
0.5

>  <petitjeanSC>
1

>  <Q_PC+>
0

>  <Q_PC->
0

>  <Q_RPC+>
0

>  <Q_RPC->
0

>  <Q_VSA_FHYD>
1

>  <Q_VSA_FNEG>
0

>  <Q_VSA_FPNEG>
0

>  <Q_VSA_FPOL>
0

>  <Q_VSA_FPOS>
1

>  <Q_VSA_FPPOS>
0

>  <Q_VSA_HYD>
274.31757

>  <Q_VSA_NEG>
0

>  <Q_VSA_PNEG>
0

>  <Q_VSA_POL>
0

>  <Q_VSA_POS>
274.31757

>  <Q_VSA_PPOS>
0

>  <radius>
5

>  <reactive>
0

>  <rings>
3

>  <RPC+>
0

>  <RPC->
0

>  <rsynth>
1

>  <SlogP>
3.5167999

>  <SlogP_VSA0>
0

>  <SlogP_VSA1>
73.455894

>  <SlogP_VSA2>
6.8792672

>  <SlogP_VSA3>
0

>  <SlogP_VSA4>
38.867764

>  <SlogP_VSA5>
42.976028

>  <SlogP_VSA6>
12.170312

>  <SlogP_VSA7>
70.143913

>  <SlogP_VSA8>
37.736813

>  <SlogP_VSA9>
44.880341

>  <SMR>
7.6581302

>  <SMR_VSA0>
81.768028

>  <SMR_VSA1>
64.476936

>  <SMR_VSA2>
9.3102503

>  <SMR_VSA3>
19.416342

>  <SMR_VSA4>
0

>  <SMR_VSA5>
107.88072

>  <SMR_VSA6>
5.6876111

>  <SMR_VSA7>
38.570442

>  <TPSA>
77.239998

>  <VAdjEq>
0.43739632

>  <VAdjMa>
5.7004399

>  <VDistEq>
3.1630189

>  <VDistMa>
8.9078808

>  <vdw_area>
274.31757

>  <vdw_vol>
348.30753

>  <vsa_acc>
56.468704

>  <vsa_acid>
0

>  <vsa_base>
0

>  <vsa_don>
0

>  <vsa_hyd>
188.51666

>  <vsa_other>
29.332197

>  <vsa_pol>
56.468704

>  <Weight>
359.32401

>  <weinerPath>
1255

>  <weinerPol>
39

>  <zagreb>
134

$$$$
Clc2cc(ccc2Oc1cc(C(=O)OC(C)C(=O)OCC)c(cc1)[N+]([O-])=O)C(F)(F)F
  MOE2011           2D

 31 32  0  0  1  0  0  0  0  0999 V2000
    0.0000    0.0000    0.0000 Cl  0  0  0  0  0  0  0  0  0  0  0  0
   -0.7530    1.2970    0.0000 C   0  0  0  0  0  0  0  0  0  0  0  0
   -2.2530    1.2930    0.0000 C   0  0  0  0  0  0  0  0  0  0  0  0
   -3.0070    2.5900    0.0000 C   0  0  0  0  0  0  0  0  0  0  0  0
   -2.2600    3.8910    0.0000 C   0  0  0  0  0  0  0  0  0  0  0  0
   -0.7600    3.8950    0.0000 C   0  0  0  0  0  0  0  0  0  0  0  0
   -0.0070    2.5980    0.0000 C   0  0  0  0  0  0  0  0  0  0  0  0
    1.4930    2.6020    0.0000 O   0  0  0  0  0  0  0  0  0  0  0  0
    2.2400    3.9030    0.0000 C   0  0  0  0  0  0  0  0  0  0  0  0
    3.7400    3.9070    0.0000 C   0  0  0  0  0  0  0  0  0  0  0  0
    4.4870    5.2080    0.0000 C   0  0  0  0  0  0  0  0  0  0  0  0
    5.9870    5.2110    0.0000 C   0  0  0  0  0  0  0  0  0  0  0  0
    6.7330    6.5120    0.0000 O   0  0  0  0  0  0  0  0  0  0  0  0
    6.7400    3.9140    0.0000 O   0  0  0  0  0  0  0  0  0  0  0  0
    8.2400    3.9180    0.0000 C   0  0  3  0  0  0  0  0  0  0  0  0
    8.9870    5.2190    0.0000 C   0  0  0  0  0  0  0  0  0  0  0  0
    8.9930    2.6210    0.0000 C   0  0  0  0  0  0  0  0  0  0  0  0
    8.2470    1.3200    0.0000 O   0  0  0  0  0  0  0  0  0  0  0  0
   10.4930    2.6250    0.0000 O   0  0  0  0  0  0  0  0  0  0  0  0
   11.2470    1.3280    0.0000 C   0  0  0  0  0  0  0  0  0  0  0  0
   12.7470    1.3320    0.0000 C   0  0  0  0  0  0  0  0  0  0  0  0
    3.7330    6.5050    0.0000 C   0  0  0  0  0  0  0  0  0  0  0  0
    2.2330    6.5010    0.0000 C   0  0  0  0  0  0  0  0  0  0  0  0
    1.4870    5.2000    0.0000 C   0  0  0  0  0  0  0  0  0  0  0  0
    4.4800    7.8060    0.0000 N   0  3  0  0  0  0  0  0  0  0  0  0
    3.7270    9.1030    0.0000 O   0  5  0  0  0  0  0  0  0  0  0  0
    5.9800    7.8100    0.0000 O   0  0  0  0  0  0  0  0  0  0  0  0
   -4.5070    2.5870    0.0000 C   0  0  0  0  0  0  0  0  0  0  0  0
   -4.5100    4.0870    0.0000 F   0  0  0  0  0  0  0  0  0  0  0  0
   -6.0070    2.5830    0.0000 F   0  0  0  0  0  0  0  0  0  0  0  0
   -4.5030    1.0870    0.0000 F   0  0  0  0  0  0  0  0  0  0  0  0
  1  2  1  0  0  0  0
  2  3  1  0  0  0  0
  2  7  2  0  0  0  0
  3  4  2  0  0  0  0
  4  5  1  0  0  0  0
  4 28  1  0  0  0  0
  5  6  2  0  0  0  0
  6  7  1  0  0  0  0
  7  8  1  0  0  0  0
  8  9  1  0  0  0  0
  9 10  2  0  0  0  0
  9 24  1  0  0  0  0
 10 11  1  0  0  0  0
 11 12  1  0  0  0  0
 11 22  2  0  0  0  0
 12 13  2  0  0  0  0
 12 14  1  0  0  0  0
 14 15  1  0  0  0  0
 15 16  1  0  0  0  0
 15 17  1  0  0  0  0
 17 18  2  0  0  0  0
 17 19  1  0  0  0  0
 19 20  1  0  0  0  0
 20 21  1  0  0  0  0
 22 23  1  0  0  0  0
 22 25  1  0  0  0  0
 23 24  2  0  0  0  0
 25 26  1  0  0  0  0
 25 27  2  0  0  0  0
 28 29  1  0  0  0  0
 28 30  1  0  0  0  0
 28 31  1  0  0  0  0
M  CHG  1  25   1
M  CHG  1  26  -1
M  END
>  <DSSTox_RID>
40501

>  <DSSTox_CID>
4160

>  <apol>
54.006893

>  <a_acc>
2

>  <a_acid>
0

>  <a_aro>
12

>  <a_base>
0

>  <a_count>
46

>  <a_don>
0

>  <a_heavy>
31

>  <a_hyd>
22

>  <a_IC>
90.363495

>  <a_ICM>
1.9644238

>  <a_nB>
0

>  <a_nBr>
0

>  <a_nC>
19

>  <a_nCl>
1

>  <a_nF>
3

>  <a_nH>
15

>  <a_nI>
0

>  <a_nN>
1

>  <a_nO>
7

>  <a_nP>
0

>  <a_nS>
0

>  <balabanJ>
1.9705031

>  <BCUT_PEOE_0>
-2.4319623

>  <BCUT_PEOE_1>
-0.65404588

>  <BCUT_PEOE_2>
0.62251484

>  <BCUT_PEOE_3>
2.5035167

>  <BCUT_SLOGP_0>
-2.5322793

>  <BCUT_SLOGP_1>
-0.40818739

>  <BCUT_SLOGP_2>
0.65106112

>  <BCUT_SLOGP_3>
2.4985521

>  <BCUT_SMR_0>
-2.2163646

>  <BCUT_SMR_1>
-0.36616969

>  <BCUT_SMR_2>
0.84676546

>  <BCUT_SMR_3>
2.7091663

>  <bpol>
29.347105

>  <b_1rotN>
7

>  <b_1rotR>
0.21875

>  <b_ar>
12

>  <b_count>
47

>  <b_double>
3

>  <b_heavy>
32

>  <b_rotN>
10

>  <b_rotR>
0.3125

>  <b_single>
32

>  <b_triple>
0

>  <chi0>
23.34457

>  <chi0v>
16.821297

>  <chi0v_C>
11.248559

>  <chi0_C>
12.6459

>  <chi1>
14.433778

>  <chi1v>
9.0209703

>  <chi1v_C>
5.5492001

>  <chi1_C>
7.172452

>  <chiral>
1

>  <chiral_u>
1

>  <density>
0.983365

>  <diameter>
16

>  <FCharge>
0

>  <GCUT_PEOE_0>
-0.76202613

>  <GCUT_PEOE_1>
-0.41831201

>  <GCUT_PEOE_2>
-0.00093966722

>  <GCUT_PEOE_3>
2.4900348

>  <GCUT_SLOGP_0>
-0.90395075

>  <GCUT_SLOGP_1>
-0.26891899

>  <GCUT_SLOGP_2>
0.26019999

>  <GCUT_SLOGP_3>
2.5962856

>  <GCUT_SMR_0>
-0.51569122

>  <GCUT_SMR_1>
-0.1372748

>  <GCUT_SMR_2>
0.19153099

>  <GCUT_SMR_3>
2.7345095

>  <Kier1>
27.246094

>  <Kier2>
11.92344

>  <Kier3>
7.7752066

>  <KierA1>
21.688427

>  <KierA2>
9.4147644

>  <KierA3>
6.103004

>  <KierFlex>
6.5868201

>  <lip_acc>
8

>  <lip_don>
0

>  <lip_druglike>
1

>  <lip_violation>
1

>  <logP(o/w)>
5.3125

>  <logS>
-7.1929798

>  <mr>
10.355042

>  <mutagenic>
1

>  <nmol>
1

>  <opr_brigid>
12

>  <opr_leadlike>
0

>  <opr_nring>
2

>  <opr_nrot>
7

>  <opr_violation>
2

>  <PC+>
0

>  <PC->
0

>  <PEOE_PC+>
2.5105064

>  <PEOE_PC->
-2.5105064

>  <PEOE_RPC+>
0.16674159

>  <PEOE_RPC->
0.12185969

>  <PEOE_VSA+0>
137.85938

>  <PEOE_VSA+1>
26.564816

>  <PEOE_VSA+2>
19.125578

>  <PEOE_VSA+3>
22.058474

>  <PEOE_VSA+4>
8.458519

>  <PEOE_VSA+5>
21.408051

>  <PEOE_VSA+6>
23.754002

>  <PEOE_VSA-0>
0

>  <PEOE_VSA-1>
29.581947

>  <PEOE_VSA-2>
0

>  <PEOE_VSA-3>
35.725906

>  <PEOE_VSA-4>
0

>  <PEOE_VSA-5>
66.072403

>  <PEOE_VSA-6>
2.503756

>  <PEOE_VSA_FHYD>
0.68915606

>  <PEOE_VSA_FNEG>
0.34057403

>  <PEOE_VSA_FPNEG>
0.17444396

>  <PEOE_VSA_FPOL>
0.31084391

>  <PEOE_VSA_FPOS>
0.65942597

>  <PEOE_VSA_FPPOS>
0.13639995

>  <PEOE_VSA_HYD>
270.91611

>  <PEOE_VSA_NEG>
133.88402

>  <PEOE_VSA_PNEG>
68.576157

>  <PEOE_VSA_POL>
122.19673

>  <PEOE_VSA_POS>
259.22882

>  <PEOE_VSA_PPOS>
53.620571

>  <petitjean>
0.5

>  <petitjeanSC>
1

>  <Q_PC+>
0

>  <Q_PC->
0

>  <Q_RPC+>
0

>  <Q_RPC->
0

>  <Q_VSA_FHYD>
1

>  <Q_VSA_FNEG>
0

>  <Q_VSA_FPNEG>
0

>  <Q_VSA_FPOL>
0

>  <Q_VSA_FPOS>
1

>  <Q_VSA_FPPOS>
0

>  <Q_VSA_HYD>
393.11282

>  <Q_VSA_NEG>
0

>  <Q_VSA_PNEG>
0

>  <Q_VSA_POL>
0

>  <Q_VSA_POS>
393.11282

>  <Q_VSA_PPOS>
0

>  <radius>
8

>  <reactive>
0

>  <rings>
2

>  <RPC+>
0

>  <RPC->
0

>  <rsynth>
1

>  <SlogP>
5.4791999

>  <SlogP_VSA0>
10.999887

>  <SlogP_VSA1>
22.576544

>  <SlogP_VSA2>
52.330643

>  <SlogP_VSA3>
71.861267

>  <SlogP_VSA4>
30.233366

>  <SlogP_VSA5>
0

>  <SlogP_VSA6>
11.260122

>  <SlogP_VSA7>
105.85911

>  <SlogP_VSA8>
0

>  <SlogP_VSA9>
163.92462

>  <SMR>
10.12519

>  <SMR_VSA0>
76.809822

>  <SMR_VSA1>
55.880226

>  <SMR_VSA2>
58.694523

>  <SMR_VSA3>
26.827261

>  <SMR_VSA4>
2.7567475

>  <SMR_VSA5>
105.85911

>  <SMR_VSA6>
36.417187

>  <SMR_VSA7>
105.80067

>  <TPSA>
107.65

>  <VAdjEq>
0.35309514

>  <VAdjMa>
6

>  <VDistEq>
3.7507617

>  <VDistMa>
9.6146383

>  <vdw_area>
393.11282

>  <vdw_vol>
454.21179

>  <vsa_acc>
27.133842

>  <vsa_acid>
0

>  <vsa_base>
0

>  <vsa_don>
0

>  <vsa_hyd>
295.11966

>  <vsa_other>
70.859314

>  <vsa_pol>
27.133842

>  <Weight>
461.776

>  <weinerPath>
2924

>  <weinerPol>
49

>  <zagreb>
156

$$$$
Cl[C@@H]1[C@@H](Cl)[C@H](Cl)[C@H](Cl)[C@@H](Cl)[C@@H]1Cl
  MOE2011           2D

 12 12  0  0  0  0  0  0  0  0999 V2000
    0.0000    0.0000    0.0000 Cl  0  0  0  0  0  0  0  0  0  0  0  0
    1.5000    0.0000    0.0000 C   0  0  2  0  0  0  0  0  0  0  0  0
    2.2500   -1.2990    0.0000 C   0  0  1  0  0  0  0  0  0  0  0  0
    1.5000   -2.5980    0.0000 Cl  0  0  0  0  0  0  0  0  0  0  0  0
    3.7500   -1.2990    0.0000 C   0  0  2  0  0  0  0  0  0  0  0  0
    4.5000   -2.5980    0.0000 Cl  0  0  0  0  0  0  0  0  0  0  0  0
    4.5000    0.0000    0.0000 C   0  0  2  0  0  0  0  0  0  0  0  0
    6.0000    0.0000    0.0000 Cl  0  0  0  0  0  0  0  0  0  0  0  0
    3.7500    1.2990    0.0000 C   0  0  1  0  0  0  0  0  0  0  0  0
    4.5000    2.5980    0.0000 Cl  0  0  0  0  0  0  0  0  0  0  0  0
    2.2500    1.2990    0.0000 C   0  0  2  0  0  0  0  0  0  0  0  0
    1.5000    2.5980    0.0000 Cl  0  0  0  0  0  0  0  0  0  0  0  0
  2  1  1  1  0  0  0
  2  3  1  0  0  0  0
  2 11  1  0  0  0  0
  3  4  1  6  0  0  0
  3  5  1  0  0  0  0
  5  6  1  1  0  0  0
  5  7  1  0  0  0  0
  7  8  1  1  0  0  0
  7  9  1  0  0  0  0
  9 10  1  6  0  0  0
  9 11  1  0  0  0  0
 11 12  1  1  0  0  0
M  END
>  <DSSTox_RID>
40502

>  <DSSTox_CID>
686

>  <apol>
27.640759

>  <a_acc>
0

>  <a_acid>
0

>  <a_aro>
0

>  <a_base>
0

>  <a_count>
18

>  <a_don>
0

>  <a_heavy>
12

>  <a_hyd>
12

>  <a_IC>
28.529325

>  <a_ICM>
1.5849625

>  <a_nB>
0

>  <a_nBr>
0

>  <a_nC>
6

>  <a_nCl>
6

>  <a_nF>
0

>  <a_nH>
6

>  <a_nI>
0

>  <a_nN>
0

>  <a_nO>
0

>  <a_nP>
0

>  <a_nS>
0

>  <balabanJ>
2.760252

>  <BCUT_PEOE_0>
-2.6859431

>  <BCUT_PEOE_1>
-0.27849883

>  <BCUT_PEOE_2>
0.22424017

>  <BCUT_PEOE_3>
2.7802918

>  <BCUT_SLOGP_0>
-2.8282182

>  <BCUT_SLOGP_1>
0.031460579

>  <BCUT_SLOGP_2>
0.67875636

>  <BCUT_SLOGP_3>
2.6859603

>  <BCUT_SMR_0>
-2.4481289

>  <BCUT_SMR_1>
0.040936008

>  <BCUT_SMR_2>
0.63853508

>  <BCUT_SMR_3>
3.0254157

>  <bpol>
9.0792418

>  <b_1rotN>
0

>  <b_1rotR>
0

>  <b_ar>
0

>  <b_count>
18

>  <b_double>
0

>  <b_heavy>
12

>  <b_rotN>
0

>  <b_rotR>
0

>  <b_single>
18

>  <b_triple>
0

>  <chi0>
9.4641018

>  <chi0v>
10.267462

>  <chi0v_C>
3.4641016

>  <chi0_C>
3.4641016

>  <chi1>
5.4641018

>  <chi1v>
5.9279222

>  <chi1v_C>
2

>  <chi1_C>
2

>  <chiral>
0

>  <chiral_u>
0

>  <density>
1.2679294

>  <diameter>
5

>  <FCharge>
0

>  <GCUT_PEOE_0>
-0.70564032

>  <GCUT_PEOE_1>
-0.28172526

>  <GCUT_PEOE_2>
-0.074098647

>  <GCUT_PEOE_3>
2.3467641

>  <GCUT_SLOGP_0>
-0.9138031

>  <GCUT_SLOGP_1>
-0.068441726

>  <GCUT_SLOGP_2>
0.42139411

>  <GCUT_SLOGP_3>
2.3960767

>  <GCUT_SMR_0>
-0.48533362

>  <GCUT_SMR_1>
-0.015444394

>  <GCUT_SMR_2>
0.3786678

>  <GCUT_SMR_3>
2.6258676

>  <Kier1>
10.083333

>  <Kier2>
3.3950617

>  <Kier3>
1.5625

>  <KierA1>
19.305109

>  <KierA2>
6.8756051

>  <KierA3>
3.3043759

>  <KierFlex>
11.061192

>  <lip_acc>
0

>  <lip_don>
0

>  <lip_druglike>
1

>  <lip_violation>
0

>  <logP(o/w)>
3.9879999

>  <logS>
-4.3310599

>  <mr>
5.4818521

>  <mutagenic>
1

>  <nmol>
1

>  <opr_brigid>
6

>  <opr_leadlike>
1

>  <opr_nring>
1

>  <opr_nrot>
2

>  <opr_violation>
0

>  <PC+>
0

>  <PC->
0

>  <PEOE_PC+>
0.67395049

>  <PEOE_PC->
-0.67395049

>  <PEOE_RPC+>
0.16666667

>  <PEOE_RPC->
0.16666667

>  <PEOE_VSA+0>
0

>  <PEOE_VSA+1>
0

>  <PEOE_VSA+2>
27.118479

>  <PEOE_VSA+3>
0

>  <PEOE_VSA+4>
0

>  <PEOE_VSA+5>
0

>  <PEOE_VSA+6>
0

>  <PEOE_VSA-0>
0

>  <PEOE_VSA-1>
0

>  <PEOE_VSA-2>
177.49168

>  <PEOE_VSA-3>
0

>  <PEOE_VSA-4>
0

>  <PEOE_VSA-5>
0

>  <PEOE_VSA-6>
0

>  <PEOE_VSA_FHYD>
1

>  <PEOE_VSA_FNEG>
0.86746269

>  <PEOE_VSA_FPNEG>
0

>  <PEOE_VSA_FPOL>
0

>  <PEOE_VSA_FPOS>
0.13253731

>  <PEOE_VSA_FPPOS>
0

>  <PEOE_VSA_HYD>
204.61015

>  <PEOE_VSA_NEG>
177.49168

>  <PEOE_VSA_PNEG>
0

>  <PEOE_VSA_POL>
0

>  <PEOE_VSA_POS>
27.118479

>  <PEOE_VSA_PPOS>
0

>  <petitjean>
0.2

>  <petitjeanSC>
0.25

>  <Q_PC+>
0

>  <Q_PC->
0

>  <Q_RPC+>
0

>  <Q_RPC->
0

>  <Q_VSA_FHYD>
1

>  <Q_VSA_FNEG>
0

>  <Q_VSA_FPNEG>
0

>  <Q_VSA_FPOL>
0

>  <Q_VSA_FPOS>
1

>  <Q_VSA_FPPOS>
0

>  <Q_VSA_HYD>
204.61015

>  <Q_VSA_NEG>
0

>  <Q_VSA_PNEG>
0

>  <Q_VSA_POL>
0

>  <Q_VSA_POS>
204.61015

>  <Q_VSA_PPOS>
0

>  <radius>
4

>  <reactive>
0

>  <rings>
1

>  <RPC+>
0

>  <RPC->
0

>  <rsynth>
0

>  <SlogP>
3.6443999

>  <SlogP_VSA0>
0

>  <SlogP_VSA1>
0

>  <SlogP_VSA2>
28.354965

>  <SlogP_VSA3>
0

>  <SlogP_VSA4>
0

>  <SlogP_VSA5>
0

>  <SlogP_VSA6>
0

>  <SlogP_VSA7>
0

>  <SlogP_VSA8>
0

>  <SlogP_VSA9>
234.89186

>  <SMR>
5.7845998

>  <SMR_VSA0>
0

>  <SMR_VSA1>
0

>  <SMR_VSA2>
0

>  <SMR_VSA3>
28.354965

>  <SMR_VSA4>
0

>  <SMR_VSA5>
0

>  <SMR_VSA6>
0

>  <SMR_VSA7>
234.89186

>  <TPSA>
0

>  <VAdjEq>
0.65002245

>  <VAdjMa>
4.5849624

>  <VDistEq>
2.1339197

>  <VDistMa>
6.9102907

>  <vdw_area>
204.61015

>  <vdw_vol>
224.60556

>  <vsa_acc>
0

>  <vsa_acid>
0

>  <vsa_base>
0

>  <vsa_don>
0

>  <vsa_hyd>
204.61015

>  <vsa_other>
0

>  <vsa_pol>
0

>  <Weight>
290.832

>  <weinerPath>
174

>  <weinerPol>
21

>  <zagreb>
60

$$$$
Clc1ccc(NC(=O)N(C)OC)cc1Cl
  MOE2011           2D

 15 15  0  0  0  0  0  0  0  0999 V2000
    0.0000    0.0000    0.0000 Cl  0  0  0  0  0  0  0  0  0  0  0  0
    1.5000   -0.0100    0.0000 C   0  0  0  0  0  0  0  0  0  0  0  0
    2.2410   -1.3140    0.0000 C   0  0  0  0  0  0  0  0  0  0  0  0
    3.7410   -1.3240    0.0000 C   0  0  0  0  0  0  0  0  0  0  0  0
    4.5000   -0.0300    0.0000 C   0  0  0  0  0  0  0  0  0  0  0  0
    6.0000   -0.0400    0.0000 N   0  0  0  0  0  0  0  0  0  0  0  0
    6.7410   -1.3440    0.0000 C   0  0  0  0  0  0  0  0  0  0  0  0
    5.9830   -2.6380    0.0000 O   0  0  0  0  0  0  0  0  0  0  0  0
    8.2410   -1.3540    0.0000 N   0  0  0  0  0  0  0  0  0  0  0  0
    9.0000   -0.0600    0.0000 C   0  0  0  0  0  0  0  0  0  0  0  0
    8.9830   -2.6580    0.0000 O   0  0  0  0  0  0  0  0  0  0  0  0
   10.4820   -2.6680    0.0000 C   0  0  0  0  0  0  0  0  0  0  0  0
    3.7590    1.2740    0.0000 C   0  0  0  0  0  0  0  0  0  0  0  0
    2.2590    1.2840    0.0000 C   0  0  0  0  0  0  0  0  0  0  0  0
    1.5170    2.5880    0.0000 Cl  0  0  0  0  0  0  0  0  0  0  0  0
  1  2  1  0  0  0  0
  2  3  1  0  0  0  0
  2 14  2  0  0  0  0
  3  4  2  0  0  0  0
  4  5  1  0  0  0  0
  5  6  1  0  0  0  0
  5 13  2  0  0  0  0
  6  7  1  0  0  0  0
  7  8  2  0  0  0  0
  7  9  1  0  0  0  0
  9 10  1  0  0  0  0
  9 11  1  0  0  0  0
 11 12  1  0  0  0  0
 13 14  1  0  0  0  0
 14 15  1  0  0  0  0
M  END
>  <DSSTox_RID>
40503

>  <DSSTox_CID>
4163

>  <apol>
30.67193

>  <a_acc>
2

>  <a_acid>
0

>  <a_aro>
6

>  <a_base>
0

>  <a_count>
25

>  <a_don>
1

>  <a_heavy>
15

>  <a_hyd>
10

>  <a_IC>
48.347797

>  <a_ICM>
1.9339119

>  <a_nB>
0

>  <a_nBr>
0

>  <a_nC>
9

>  <a_nCl>
2

>  <a_nF>
0

>  <a_nH>
10

>  <a_nI>
0

>  <a_nN>
2

>  <a_nO>
2

>  <a_nP>
0

>  <a_nS>
0

>  <balabanJ>
2.3468037

>  <BCUT_PEOE_0>
-2.4055066

>  <BCUT_PEOE_1>
-0.56985801

>  <BCUT_PEOE_2>
0.52498829

>  <BCUT_PEOE_3>
2.3414271

>  <BCUT_SLOGP_0>
-2.5382731

>  <BCUT_SLOGP_1>
-0.27149579

>  <BCUT_SLOGP_2>
0.7938832

>  <BCUT_SLOGP_3>
2.3894668

>  <BCUT_SMR_0>
-2.1284037

>  <BCUT_SMR_1>
-0.25018558

>  <BCUT_SMR_2>
0.85264909

>  <BCUT_SMR_3>
2.6285148

>  <bpol>
15.96607

>  <b_1rotN>
3

>  <b_1rotR>
0.2

>  <b_ar>
6

>  <b_count>
25

>  <b_double>
1

>  <b_heavy>
15

>  <b_rotN>
4

>  <b_rotR>
0.26666668

>  <b_single>
18

>  <b_triple>
0

>  <chi0>
11.422285

>  <chi0v>
9.7635479

>  <chi0v_C>
5.7320509

>  <chi0_C>
6.4307213

>  <chi1>
7.0409126

>  <chi1v>
4.8376942

>  <chi1v_C>
1.7380339

>  <chi1_C>
2.4663265

>  <chiral>
0

>  <chiral_u>
0

>  <density>
0.9617328

>  <diameter>
9

>  <FCharge>
0

>  <GCUT_PEOE_0>
-0.82382292

>  <GCUT_PEOE_1>
-0.40062508

>  <GCUT_PEOE_2>
-0.019227756

>  <GCUT_PEOE_3>
2.1545117

>  <GCUT_SLOGP_0>
-1.0086735

>  <GCUT_SLOGP_1>
-0.21271157

>  <GCUT_SLOGP_2>
0.24857982

>  <GCUT_SLOGP_3>
2.281121

>  <GCUT_SMR_0>
-0.50910407

>  <GCUT_SMR_1>
-0.17043388

>  <GCUT_SMR_2>
0.25799832

>  <GCUT_SMR_3>
2.4562583

>  <Kier1>
13.066667

>  <Kier2>
5.915

>  <Kier3>
3.8109641

>  <KierA1>
11.724012

>  <KierA2>
5.2632785

>  <KierA3>
3.3681121

>  <KierFlex>
4.1137829

>  <lip_acc>
4

>  <lip_don>
1

>  <lip_druglike>
1

>  <lip_violation>
0

>  <logP(o/w)>
2.3989999

>  <logS>
-3.0453401

>  <mr>
6.0032859

>  <mutagenic>
0

>  <nmol>
1

>  <opr_brigid>
6

>  <opr_leadlike>
1

>  <opr_nring>
1

>  <opr_nrot>
2

>  <opr_violation>
0

>  <PC+>
0

>  <PC->
0

>  <PEOE_PC+>
1.0325997

>  <PEOE_PC->
-1.0325997

>  <PEOE_RPC+>
0.3576946

>  <PEOE_RPC->
0.24268506

>  <PEOE_VSA+0>
47.425484

>  <PEOE_VSA+1>
15.739044

>  <PEOE_VSA+2>
0

>  <PEOE_VSA+3>
33.89946

>  <PEOE_VSA+4>
35.658428

>  <PEOE_VSA+5>
0

>  <PEOE_VSA+6>
17.440542

>  <PEOE_VSA-0>
0

>  <PEOE_VSA-1>
59.163895

>  <PEOE_VSA-2>
0

>  <PEOE_VSA-3>
5.6825762

>  <PEOE_VSA-4>
13.566921

>  <PEOE_VSA-5>
5.9023595

>  <PEOE_VSA-6>
0

>  <PEOE_VSA_FHYD>
0.69051242

>  <PEOE_VSA_FNEG>
0.35958809

>  <PEOE_VSA_FPNEG>
0.083032183

>  <PEOE_VSA_FPOL>
0.30948758

>  <PEOE_VSA_FPOS>
0.64041191

>  <PEOE_VSA_FPPOS>
0.22645541

>  <PEOE_VSA_HYD>
161.91046

>  <PEOE_VSA_NEG>
84.31575

>  <PEOE_VSA_PNEG>
19.46928

>  <PEOE_VSA_POL>
72.568253

>  <PEOE_VSA_POS>
150.16296

>  <PEOE_VSA_PPOS>
53.098972

>  <petitjean>
0.44444445

>  <petitjeanSC>
0.80000001

>  <Q_PC+>
0

>  <Q_PC->
0

>  <Q_RPC+>
0

>  <Q_RPC->
0

>  <Q_VSA_FHYD>
1

>  <Q_VSA_FNEG>
0

>  <Q_VSA_FPNEG>
0

>  <Q_VSA_FPOL>
0

>  <Q_VSA_FPOS>
1

>  <Q_VSA_FPPOS>
0

>  <Q_VSA_HYD>
234.47871

>  <Q_VSA_NEG>
0

>  <Q_VSA_PNEG>
0

>  <Q_VSA_POL>
0

>  <Q_VSA_POS>
234.47871

>  <Q_VSA_PPOS>
0

>  <radius>
5

>  <reactive>
1

>  <rings>
1

>  <RPC+>
0

>  <RPC->
0

>  <rsynth>
1

>  <SlogP>
3.0185001

>  <SlogP_VSA0>
0

>  <SlogP_VSA1>
28.579353

>  <SlogP_VSA2>
11.218763

>  <SlogP_VSA3>
0

>  <SlogP_VSA4>
0

>  <SlogP_VSA5>
68.281059

>  <SlogP_VSA6>
7.0012131

>  <SlogP_VSA7>
52.929554

>  <SlogP_VSA8>
0

>  <SlogP_VSA9>
104.91625

>  <SMR>
6.02527

>  <SMR_VSA0>
35.080978

>  <SMR_VSA1>
5.7386465

>  <SMR_VSA2>
0

>  <SMR_VSA3>
7.0012131

>  <SMR_VSA4>
20.767498

>  <SMR_VSA5>
52.929554

>  <SMR_VSA6>
4.8299561

>  <SMR_VSA7>
146.57834

>  <TPSA>
41.57

>  <VAdjEq>
0.56650949

>  <VAdjMa>
4.9068904

>  <VDistEq>
2.9251337

>  <VDistMa>
7.4932137

>  <vdw_area>
234.47871

>  <vdw_vol>
248.52745

>  <vsa_acc>
19.46928

>  <vsa_acid>
0

>  <vsa_base>
0

>  <vsa_don>
5.6825762

>  <vsa_hyd>
191.88631

>  <vsa_other>
17.440542

>  <vsa_pol>
25.151855

>  <Weight>
249.097

>  <weinerPath>
394

>  <weinerPol>
20

>  <zagreb>
70

$$$$
Cc1cccc(C)c1N(C(=O)COC)C(C)C(=O)OC
  MOE2011           2D

 20 20  0  0  1  0  0  0  0  0999 V2000
    0.0000    0.0000    0.0000 C   0  0  0  0  0  0  0  0  0  0  0  0
    0.7500   -1.2990    0.0000 C   0  0  0  0  0  0  0  0  0  0  0  0
    2.2500   -1.2990    0.0000 C   0  0  0  0  0  0  0  0  0  0  0  0
    3.0000   -2.5980    0.0000 C   0  0  0  0  0  0  0  0  0  0  0  0
    2.2500   -3.8970    0.0000 C   0  0  0  0  0  0  0  0  0  0  0  0
    0.7500   -3.8970    0.0000 C   0  0  0  0  0  0  0  0  0  0  0  0
    0.0000   -5.1960    0.0000 C   0  0  0  0  0  0  0  0  0  0  0  0
    0.0000   -2.5980    0.0000 C   0  0  0  0  0  0  0  0  0  0  0  0
   -1.5000   -2.5980    0.0000 N   0  0  0  0  0  0  0  0  0  0  0  0
   -2.2500   -1.2990    0.0000 C   0  0  0  0  0  0  0  0  0  0  0  0
   -1.5000    0.0000    0.0000 O   0  0  0  0  0  0  0  0  0  0  0  0
   -3.7500   -1.2990    0.0000 C   0  0  0  0  0  0  0  0  0  0  0  0
   -4.5000    0.0000    0.0000 O   0  0  0  0  0  0  0  0  0  0  0  0
   -6.0000    0.0000    0.0000 C   0  0  0  0  0  0  0  0  0  0  0  0
   -2.2500   -3.8970    0.0000 C   0  0  3  0  0  0  0  0  0  0  0  0
   -1.5000   -5.1960    0.0000 C   0  0  0  0  0  0  0  0  0  0  0  0
   -3.7500   -3.8970    0.0000 C   0  0  0  0  0  0  0  0  0  0  0  0
   -4.5000   -2.5980    0.0000 O   0  0  0  0  0  0  0  0  0  0  0  0
   -4.5000   -5.1960    0.0000 O   0  0  0  0  0  0  0  0  0  0  0  0
   -6.0000   -5.1960    0.0000 C   0  0  0  0  0  0  0  0  0  0  0  0
  1  2  1  0  0  0  0
  2  3  1  0  0  0  0
  2  8  2  0  0  0  0
  3  4  2  0  0  0  0
  4  5  1  0  0  0  0
  5  6  2  0  0  0  0
  6  7  1  0  0  0  0
  6  8  1  0  0  0  0
  8  9  1  0  0  0  0
  9 10  1  0  0  0  0
  9 15  1  0  0  0  0
 10 11  2  0  0  0  0
 10 12  1  0  0  0  0
 12 13  1  0  0  0  0
 13 14  1  0  0  0  0
 15 16  1  0  0  0  0
 15 17  1  0  0  0  0
 17 18  2  0  0  0  0
 17 19  1  0  0  0  0
 19 20  1  0  0  0  0
M  END
>  <DSSTox_RID>
40513

>  <DSSTox_CID>
4175

>  <apol>
44.710651

>  <a_acc>
3

>  <a_acid>
0

>  <a_aro>
6

>  <a_base>
0

>  <a_count>
41

>  <a_don>
0

>  <a_heavy>
20

>  <a_hyd>
13

>  <a_IC>
60.817608

>  <a_ICM>
1.4833562

>  <a_nB>
0

>  <a_nBr>
0

>  <a_nC>
15

>  <a_nCl>
0

>  <a_nF>
0

>  <a_nH>
21

>  <a_nI>
0

>  <a_nN>
1

>  <a_nO>
4

>  <a_nP>
0

>  <a_nS>
0

>  <balabanJ>
2.9633145

>  <BCUT_PEOE_0>
-2.5310352

>  <BCUT_PEOE_1>
-0.22267398

>  <BCUT_PEOE_2>
0.061567754

>  <BCUT_PEOE_3>
2.5536699

>  <BCUT_SLOGP_0>
-2.6684916

>  <BCUT_SLOGP_1>
-0.089395843

>  <BCUT_SLOGP_2>
0.12733354

>  <BCUT_SLOGP_3>
2.5189664

>  <BCUT_SMR_0>
-2.2542479

>  <BCUT_SMR_1>
0.06476745

>  <BCUT_SMR_2>
0.19860911

>  <BCUT_SMR_3>
2.8228414

>  <bpol>
30.685347

>  <b_1rotN>
6

>  <b_1rotR>
0.30000001

>  <b_ar>
6

>  <b_count>
41

>  <b_double>
2

>  <b_heavy>
20

>  <b_rotN>
7

>  <b_rotR>
0.34999999

>  <b_single>
33

>  <b_triple>
0

>  <chi0>
15.284093

>  <chi0v>
12.596715

>  <chi0v_C>
10.516508

>  <chi0_C>
11.292529

>  <chi1>
9.4339581

>  <chi1v>
6.3865523

>  <chi1v_C>
3.9635956

>  <chi1_C>
4.9567957

>  <chiral>
1

>  <chiral_u>
1

>  <density>
0.78626341

>  <diameter>
8

>  <FCharge>
0

>  <GCUT_PEOE_0>
-0.80339766

>  <GCUT_PEOE_1>
-0.3535811

>  <GCUT_PEOE_2>
-0.09843225

>  <GCUT_PEOE_3>
2.5999966

>  <GCUT_SLOGP_0>
-1.0058541

>  <GCUT_SLOGP_1>
-0.25914714

>  <GCUT_SLOGP_2>
-0.037

>  <GCUT_SLOGP_3>
2.638773

>  <GCUT_SMR_0>
-0.50328022

>  <GCUT_SMR_1>
-0.12674306

>  <GCUT_SMR_2>
-0.035332419

>  <GCUT_SMR_3>
2.8696828

>  <Kier1>
18.049999

>  <Kier2>
8.4444447

>  <Kier3>
4.4963264

>  <KierA1>
14.045177

>  <KierA2>
6.477385

>  <KierA3>
3.412905

>  <KierFlex>
4.5488009

>  <lip_acc>
5

>  <lip_don>
0

>  <lip_druglike>
1

>  <lip_violation>
0

>  <logP(o/w)>
2.0090001

>  <logS>
-2.67994

>  <mr>
7.7784452

>  <mutagenic>
0

>  <nmol>
1

>  <opr_brigid>
6

>  <opr_leadlike>
1

>  <opr_nring>
1

>  <opr_nrot>
5

>  <opr_violation>
0

>  <PC+>
0

>  <PC->
0

>  <PEOE_PC+>
1.479152

>  <PEOE_PC->
-1.479152

>  <PEOE_RPC+>
0.19794652

>  <PEOE_RPC->
0.23092884

>  <PEOE_VSA+0>
88.225349

>  <PEOE_VSA+1>
6.6995511

>  <PEOE_VSA+2>
0

>  <PEOE_VSA+3>
78.016411

>  <PEOE_VSA+4>
22.058474

>  <PEOE_VSA+5>
27.65803

>  <PEOE_VSA+6>
0

>  <PEOE_VSA-0>
51.842564

>  <PEOE_VSA-1>
0

>  <PEOE_VSA-2>
0

>  <PEOE_VSA-3>
0

>  <PEOE_VSA-4>
0

>  <PEOE_VSA-5>
29.637598

>  <PEOE_VSA-6>
2.503756

>  <PEOE_VSA_FHYD>
0.73305047

>  <PEOE_VSA_FNEG>
0.27388287

>  <PEOE_VSA_FPNEG>
0.10481729

>  <PEOE_VSA_FPOL>
0.2669495

>  <PEOE_VSA_FPOS>
0.72611713

>  <PEOE_VSA_FPPOS>
0.16213222

>  <PEOE_VSA_HYD>
224.78387

>  <PEOE_VSA_NEG>
83.983917

>  <PEOE_VSA_PNEG>
32.141354

>  <PEOE_VSA_POL>
81.857857

>  <PEOE_VSA_POS>
222.65782

>  <PEOE_VSA_PPOS>
49.716503

>  <petitjean>
0.5

>  <petitjeanSC>
1

>  <Q_PC+>
0

>  <Q_PC->
0

>  <Q_RPC+>
0

>  <Q_RPC->
0

>  <Q_VSA_FHYD>
1

>  <Q_VSA_FNEG>
0

>  <Q_VSA_FPNEG>
0

>  <Q_VSA_FPOL>
0

>  <Q_VSA_FPOS>
1

>  <Q_VSA_FPPOS>
0

>  <Q_VSA_HYD>
306.64172

>  <Q_VSA_NEG>
0

>  <Q_VSA_PNEG>
0

>  <Q_VSA_POL>
0

>  <Q_VSA_POS>
306.64172

>  <Q_VSA_PPOS>
0

>  <radius>
4

>  <reactive>
0

>  <rings>
1

>  <RPC+>
0

>  <RPC->
0

>  <rsynth>
1

>  <SlogP>
1.84434

>  <SlogP_VSA0>
3.1243138

>  <SlogP_VSA1>
13.004248

>  <SlogP_VSA2>
73.706177

>  <SlogP_VSA3>
20.926258

>  <SlogP_VSA4>
6.37115

>  <SlogP_VSA5>
70.767738

>  <SlogP_VSA6>
0

>  <SlogP_VSA7>
52.929554

>  <SlogP_VSA8>
0

>  <SlogP_VSA9>
102.73479

>  <SMR>
7.6756001

>  <SMR_VSA0>
69.724205

>  <SMR_VSA1>
0

>  <SMR_VSA2>
3.1243138

>  <SMR_VSA3>
10.353119

>  <SMR_VSA4>
2.7567475

>  <SMR_VSA5>
52.929554

>  <SMR_VSA6>
33.930508

>  <SMR_VSA7>
170.74577

>  <TPSA>
55.84

>  <VAdjEq>
0.4689956

>  <VAdjMa>
5.321928

>  <VDistEq>
2.827554

>  <VDistMa>
8.4055576

>  <vdw_area>
306.64172

>  <vdw_vol>
328.34796

>  <vsa_acc>
29.637598

>  <vsa_acid>
0

>  <vsa_base>
0

>  <vsa_don>
0

>  <vsa_hyd>
246.84235

>  <vsa_other>
30.161787

>  <vsa_pol>
29.637598

>  <Weight>
279.336

>  <weinerPath>
754

>  <weinerPol>
32

>  <zagreb>
94

$$$$
S=P(SCN1C(=O)SC(=N1)OC)(OC)OC
  MOE2011           2D

 16 16  0  0  0  0  0  0  0  0999 V2000
    0.0000    0.0000    0.0000 S   0  0  0  0  0  0  0  0  0  0  0  0
   -0.7520    1.2980    0.0000 P   0  0  0  0  0  0  0  0  0  0  0  0
    0.5460    2.0500    0.0000 S   0  0  0  0  0  0  0  0  0  0  0  0
    1.8460    1.3020    0.0000 C   0  0  0  0  0  0  0  0  0  0  0  0
    3.1440    2.0540    0.0000 N   0  0  0  0  0  0  0  0  0  0  0  0
    4.5150    1.4460    0.0000 C   0  0  0  0  0  0  0  0  0  0  0  0
    4.8290   -0.0210    0.0000 O   0  0  0  0  0  0  0  0  0  0  0  0
    5.5170    2.5630    0.0000 S   0  0  0  0  0  0  0  0  0  0  0  0
    4.7650    3.8600    0.0000 C   0  0  0  0  0  0  0  0  0  0  0  0
    3.2980    3.5460    0.0000 N   0  0  0  0  0  0  0  0  0  0  0  0
    5.3730    5.2320    0.0000 O   0  0  0  0  0  0  0  0  0  0  0  0
    6.8640    5.3910    0.0000 C   0  0  0  0  0  0  0  0  0  0  0  0
   -2.0500    0.5460    0.0000 O   0  0  0  0  0  0  0  0  0  0  0  0
   -2.0480   -0.9540    0.0000 C   0  0  0  0  0  0  0  0  0  0  0  0
   -1.5040    2.5960    0.0000 O   0  0  0  0  0  0  0  0  0  0  0  0
   -3.0040    2.5930    0.0000 C   0  0  0  0  0  0  0  0  0  0  0  0
  1  2  2  0  0  0  0
  2  3  1  0  0  0  0
  2 13  1  0  0  0  0
  2 15  1  0  0  0  0
  3  4  1  0  0  0  0
  4  5  1  0  0  0  0
  5  6  1  0  0  0  0
  5 10  1  0  0  0  0
  6  7  2  0  0  0  0
  6  8  1  0  0  0  0
  8  9  1  0  0  0  0
  9 10  2  0  0  0  0
  9 11  1  0  0  0  0
 11 12  1  0  0  0  0
 13 14  1  0  0  0  0
 15 16  1  0  0  0  0
M  END
>  <DSSTox_RID>
40520

>  <DSSTox_CID>
819

>  <apol>
35.632725

>  <a_acc>
4

>  <a_acid>
0

>  <a_aro>
0

>  <a_base>
0

>  <a_count>
27

>  <a_don>
0

>  <a_heavy>
16

>  <a_hyd>
5

>  <a_IC>
60.063553

>  <a_ICM>
2.224576

>  <a_nB>
0

>  <a_nBr>
0

>  <a_nC>
6

>  <a_nCl>
0

>  <a_nF>
0

>  <a_nH>
11

>  <a_nI>
0

>  <a_nN>
2

>  <a_nO>
4

>  <a_nP>
1

>  <a_nS>
3

>  <balabanJ>
2.3837988

>  <BCUT_PEOE_0>
-2.4077954

>  <BCUT_PEOE_1>
-0.24482429

>  <BCUT_PEOE_2>
0.0610101

>  <BCUT_PEOE_3>
2.4901316

>  <BCUT_SLOGP_0>
-2.3891582

>  <BCUT_SLOGP_1>
-0.013480434

>  <BCUT_SLOGP_2>
0.34646618

>  <BCUT_SLOGP_3>
2.7561567

>  <BCUT_SMR_0>
-2.0825689

>  <BCUT_SMR_1>
0.1057

>  <BCUT_SMR_2>
0.44483724

>  <BCUT_SMR_3>
2.8793886

>  <bpol>
29.331278

>  <b_1rotN>
5

>  <b_1rotR>
0.3125

>  <b_ar>
0

>  <b_count>
27

>  <b_double>
2

>  <b_heavy>
16

>  <b_rotN>
6

>  <b_rotR>
0.375

>  <b_single>
25

>  <b_triple>
0

>  <chi0>
12.181798

>  <chi0v>
12.250402

>  <chi0v_C>
4.7071066

>  <chi0_C>
4.8618073

>  <chi1>
7.5421538

>  <chi1v>
9.068985

>  <chi1v_C>
0

>  <chi1_C>
0

>  <chiral>
0

>  <chiral_u>
0

>  <density>
1.0859274

>  <diameter>
9

>  <FCharge>
0

>  <GCUT_PEOE_0>
-0.77241188

>  <GCUT_PEOE_1>
-0.40581706

>  <GCUT_PEOE_2>
-0.10130776

>  <GCUT_PEOE_3>
2.1739793

>  <GCUT_SLOGP_0>
-0.92535895

>  <GCUT_SLOGP_1>
-0.2069848

>  <GCUT_SLOGP_2>
0.038186707

>  <GCUT_SLOGP_3>
2.3177423

>  <GCUT_SMR_0>
-0.48716274

>  <GCUT_SMR_1>
-0.079216428

>  <GCUT_SMR_2>
0.25479257

>  <GCUT_SMR_3>
2.5231392

>  <Kier1>
14.0625

>  <Kier2>
6.0743804

>  <Kier3>
3.7692308

>  <KierA1>
17.87108

>  <KierA2>
7.8444834

>  <KierA3>
4.9262314

>  <KierFlex>
8.7618361

>  <lip_acc>
6

>  <lip_don>
0

>  <lip_druglike>
1

>  <lip_violation>
0

>  <logP(o/w)>
2.9430001

>  <logS>
-3.0123301

>  <mr>
6.9588895

>  <mutagenic>
0

>  <nmol>
1

>  <opr_brigid>
5

>  <opr_leadlike>
1

>  <opr_nring>
1

>  <opr_nrot>
6

>  <opr_violation>
0

>  <PC+>
0

>  <PC->
0

>  <PEOE_PC+>
1.8220079

>  <PEOE_PC->
-1.8220079

>  <PEOE_RPC+>
0.17121634

>  <PEOE_RPC->
0.26735729

>  <PEOE_VSA+0>
19.760618

>  <PEOE_VSA+1>
21.384594

>  <PEOE_VSA+2>
0

>  <PEOE_VSA+3>
35.658428

>  <PEOE_VSA+4>
108.51802

>  <PEOE_VSA+5>
12.467347

>  <PEOE_VSA+6>
14.925592

>  <PEOE_VSA-0>
0

>  <PEOE_VSA-1>
0

>  <PEOE_VSA-2>
9.4210396

>  <PEOE_VSA-3>
0

>  <PEOE_VSA-4>
9.3319435

>  <PEOE_VSA-5>
13.566921

>  <PEOE_VSA-6>
35.512245

>  <PEOE_VSA_FHYD>
0.30734515

>  <PEOE_VSA_FNEG>
0.24178554

>  <PEOE_VSA_FPNEG>
0.20820454

>  <PEOE_VSA_FPOL>
0.69265485

>  <PEOE_VSA_FPOS>
0.75821447

>  <PEOE_VSA_FPPOS>
0.48445031

>  <PEOE_VSA_HYD>
86.224678

>  <PEOE_VSA_NEG>
67.832146

>  <PEOE_VSA_PNEG>
58.411106

>  <PEOE_VSA_POL>
194.32207

>  <PEOE_VSA_POS>
212.7146

>  <PEOE_VSA_PPOS>
135.91096

>  <petitjean>
0.44444445

>  <petitjeanSC>
0.80000001

>  <Q_PC+>
0

>  <Q_PC->
0

>  <Q_RPC+>
0

>  <Q_RPC->
0

>  <Q_VSA_FHYD>
1

>  <Q_VSA_FNEG>
0

>  <Q_VSA_FPNEG>
0

>  <Q_VSA_FPOL>
0

>  <Q_VSA_FPOS>
1

>  <Q_VSA_FPPOS>
0

>  <Q_VSA_HYD>
280.54675

>  <Q_VSA_NEG>
0

>  <Q_VSA_PNEG>
0

>  <Q_VSA_POL>
0

>  <Q_VSA_POS>
280.54675

>  <Q_VSA_PPOS>
0

>  <radius>
5

>  <reactive>
0

>  <rings>
1

>  <RPC+>
0

>  <RPC->
0

>  <rsynth>
1

>  <SlogP>
2.2806001

>  <SlogP_VSA0>
0

>  <SlogP_VSA1>
9.8054943

>  <SlogP_VSA2>
67.537125

>  <SlogP_VSA3>
16.804737

>  <SlogP_VSA4>
0

>  <SlogP_VSA5>
122.81461

>  <SlogP_VSA6>
0

>  <SlogP_VSA7>
0

>  <SlogP_VSA8>
0

>  <SlogP_VSA9>
93.538437

>  <SMR>
7.0033002

>  <SMR_VSA0>
48.705364

>  <SMR_VSA1>
19.664799

>  <SMR_VSA2>
0

>  <SMR_VSA3>
0

>  <SMR_VSA4>
0

>  <SMR_VSA5>
0

>  <SMR_VSA6>
23.608438

>  <SMR_VSA7>
218.5218

>  <TPSA>
92.449997

>  <VAdjEq>
0.54356444

>  <VAdjMa>
5

>  <VDistEq>
2.9761841

>  <VDistMa>
7.6872101

>  <vdw_area>
280.54675

>  <vdw_vol>
268.20209

>  <vsa_acc>
32.319904

>  <vsa_acid>
0

>  <vsa_base>
0

>  <vsa_don>
0

>  <vsa_hyd>
149.01147

>  <vsa_other>
99.21537

>  <vsa_pol>
32.319904

>  <Weight>
302.336

>  <weinerPath>
471

>  <weinerPol>
21

>  <zagreb>
76

$$$$
O=C(NN(C(C)(C)C)C(C2=CC(C)=CC(C)=C2)=O)C1=C(C)C(OC)=CC=C1
  MOE2011           2D

 27 28  0  0  0  0  0  0  0  0999 V2000
    0.0000    0.0000    0.0000 O   0  0  0  0  0  0  0  0  0  0  0  0
   -0.0130   -1.5000    0.0000 C   0  0  0  0  0  0  0  0  0  0  0  0
   -1.3180   -2.2390    0.0000 N   0  0  0  0  0  0  0  0  0  0  0  0
   -2.6110   -1.4780    0.0000 N   0  0  0  0  0  0  0  0  0  0  0  0
   -2.5980    0.0220    0.0000 C   0  0  0  0  0  0  0  0  0  0  0  0
   -2.5850    1.5220    0.0000 C   0  0  0  0  0  0  0  0  0  0  0  0
   -1.0980    0.0090    0.0000 C   0  0  0  0  0  0  0  0  0  0  0  0
   -4.0980    0.0350    0.0000 C   0  0  0  0  0  0  0  0  0  0  0  0
   -3.9160   -2.2170    0.0000 C   0  0  0  0  0  0  0  0  0  0  0  0
   -3.9290   -3.7170    0.0000 C   0  0  0  0  0  0  0  0  0  0  0  0
   -5.2340   -4.4560    0.0000 C   0  0  0  0  0  0  0  0  0  0  0  0
   -5.2470   -5.9560    0.0000 C   0  0  0  0  0  0  0  0  0  0  0  0
   -6.5520   -6.6950    0.0000 C   0  0  0  0  0  0  0  0  0  0  0  0
   -3.9540   -6.7170    0.0000 C   0  0  0  0  0  0  0  0  0  0  0  0
   -2.6490   -5.9780    0.0000 C   0  0  0  0  0  0  0  0  0  0  0  0
   -1.3560   -6.7390    0.0000 C   0  0  0  0  0  0  0  0  0  0  0  0
   -2.6360   -4.4780    0.0000 C   0  0  0  0  0  0  0  0  0  0  0  0
   -5.2090   -1.4560    0.0000 O   0  0  0  0  0  0  0  0  0  0  0  0
    1.2800   -2.2610    0.0000 C   0  0  0  0  0  0  0  0  0  0  0  0
    2.5850   -1.5220    0.0000 C   0  0  0  0  0  0  0  0  0  0  0  0
    2.5980   -0.0220    0.0000 C   0  0  0  0  0  0  0  0  0  0  0  0
    3.8780   -2.2830    0.0000 C   0  0  0  0  0  0  0  0  0  0  0  0
    5.1830   -1.5440    0.0000 O   0  0  0  0  0  0  0  0  0  0  0  0
    6.4760   -2.3050    0.0000 C   0  0  0  0  0  0  0  0  0  0  0  0
    3.8650   -3.7830    0.0000 C   0  0  0  0  0  0  0  0  0  0  0  0
    2.5600   -4.5220    0.0000 C   0  0  0  0  0  0  0  0  0  0  0  0
    1.2670   -3.7610    0.0000 C   0  0  0  0  0  0  0  0  0  0  0  0
  1  2  2  0  0  0  0
  2  3  1  0  0  0  0
  2 19  1  0  0  0  0
  3  4  1  0  0  0  0
  4  5  1  0  0  0  0
  4  9  1  0  0  0  0
  5  6  1  0  0  0  0
  5  7  1  0  0  0  0
  5  8  1  0  0  0  0
  9 10  1  0  0  0  0
  9 18  2  0  0  0  0
 10 11  1  0  0  0  0
 10 17  2  0  0  0  0
 11 12  2  0  0  0  0
 12 13  1  0  0  0  0
 12 14  1  0  0  0  0
 14 15  2  0  0  0  0
 15 16  1  0  0  0  0
 15 17  1  0  0  0  0
 19 20  1  0  0  0  0
 19 27  2  0  0  0  0
 20 21  1  0  0  0  0
 20 22  2  0  0  0  0
 22 23  1  0  0  0  0
 22 25  1  0  0  0  0
 23 24  1  0  0  0  0
 25 26  2  0  0  0  0
 26 27  1  0  0  0  0
M  END
>  <DSSTox_RID>
40523

>  <DSSTox_CID>
12628

>  <apol>
61.996204

>  <a_acc>
3

>  <a_acid>
0

>  <a_aro>
12

>  <a_base>
0

>  <a_count>
55

>  <a_don>
1

>  <a_heavy>
27

>  <a_hyd>
20

>  <a_IC>
78.506462

>  <a_ICM>
1.4273902

>  <a_nB>
0

>  <a_nBr>
0

>  <a_nC>
22

>  <a_nCl>
0

>  <a_nF>
0

>  <a_nH>
28

>  <a_nI>
0

>  <a_nN>
2

>  <a_nO>
3

>  <a_nP>
0

>  <a_nS>
0

>  <balabanJ>
2.0991077

>  <BCUT_PEOE_0>
-2.6670673

>  <BCUT_PEOE_1>
-0.36003825

>  <BCUT_PEOE_2>
0.17704198

>  <BCUT_PEOE_3>
2.624608

>  <BCUT_SLOGP_0>
-2.759927

>  <BCUT_SLOGP_1>
-0.22249562

>  <BCUT_SLOGP_2>
0.31646922

>  <BCUT_SLOGP_3>
2.6246178

>  <BCUT_SMR_0>
-2.4082794

>  <BCUT_SMR_1>
-0.096334726

>  <BCUT_SMR_2>
0.41962451

>  <BCUT_SMR_3>
2.8809235

>  <bpol>
35.761795

>  <b_1rotN>
5

>  <b_1rotR>
0.17857143

>  <b_ar>
12

>  <b_count>
56

>  <b_double>
2

>  <b_heavy>
28

>  <b_rotN>
7

>  <b_rotR>
0.25

>  <b_single>
42

>  <b_triple>
0

>  <chi0>
20.353006

>  <chi0v>
17.136061

>  <chi0v_C>
14.964102

>  <chi0_C>
16.361443

>  <chi1>
12.539931

>  <chi1v>
8.9175091

>  <chi1v_C>
6.9760675

>  <chi1_C>
8.8313704

>  <chiral>
0

>  <chiral_u>
0

>  <density>
0.75448269

>  <diameter>
12

>  <FCharge>
0

>  <GCUT_PEOE_0>
-0.8537612

>  <GCUT_PEOE_1>
-0.33271226

>  <GCUT_PEOE_2>
-0.10713036

>  <GCUT_PEOE_3>
2.7229018

>  <GCUT_SLOGP_0>
-1.1775274

>  <GCUT_SLOGP_1>
-0.22155046

>  <GCUT_SLOGP_2>
-0.037

>  <GCUT_SLOGP_3>
2.7651043

>  <GCUT_SMR_0>
-0.52407575

>  <GCUT_SMR_1>
-0.14918369

>  <GCUT_SMR_2>
0.046934873

>  <GCUT_SMR_3>
2.9886959

>  <Kier1>
23.280613

>  <Kier2>
9.6668653

>  <Kier3>
5.9903998

>  <KierA1>
17.257813

>  <KierA2>
7.0772605

>  <KierA3>
4.34515

>  <KierFlex>
4.5236311

>  <lip_acc>
5

>  <lip_don>
1

>  <lip_druglike>
1

>  <lip_violation>
0

>  <logP(o/w)>
4.882

>  <logS>
-5.6177301

>  <mr>
10.788226

>  <mutagenic>
0

>  <nmol>
1

>  <opr_brigid>
12

>  <opr_leadlike>
1

>  <opr_nring>
2

>  <opr_nrot>
5

>  <opr_violation>
0

>  <PC+>
0

>  <PC->
0

>  <PEOE_PC+>
1.2520655

>  <PEOE_PC->
-1.2520655

>  <PEOE_RPC+>
0.23553656

>  <PEOE_RPC->
0.26196697

>  <PEOE_VSA+0>
257.70172

>  <PEOE_VSA+1>
12.875599

>  <PEOE_VSA+2>
0

>  <PEOE_VSA+3>
35.658428

>  <PEOE_VSA+4>
0

>  <PEOE_VSA+5>
25.899061

>  <PEOE_VSA+6>
0

>  <PEOE_VSA-0>
20.225574

>  <PEOE_VSA-1>
0

>  <PEOE_VSA-2>
9.4210396

>  <PEOE_VSA-3>
0

>  <PEOE_VSA-4>
0

>  <PEOE_VSA-5>
27.133842

>  <PEOE_VSA-6>
2.503756

>  <PEOE_VSA_FHYD>
0.85811454

>  <PEOE_VSA_FNEG>
0.15145971

>  <PEOE_VSA_FPNEG>
0.075718343

>  <PEOE_VSA_FPOL>
0.14188544

>  <PEOE_VSA_FPOS>
0.84854031

>  <PEOE_VSA_FPPOS>
0.066167101

>  <PEOE_VSA_HYD>
335.88235

>  <PEOE_VSA_NEG>
59.28421

>  <PEOE_VSA_PNEG>
29.637598

>  <PEOE_VSA_POL>
55.536659

>  <PEOE_VSA_POS>
332.1348

>  <PEOE_VSA_PPOS>
25.899061

>  <petitjean>
0.5

>  <petitjeanSC>
1

>  <Q_PC+>
0

>  <Q_PC->
0

>  <Q_RPC+>
0

>  <Q_RPC->
0

>  <Q_VSA_FHYD>
1

>  <Q_VSA_FNEG>
0

>  <Q_VSA_FPNEG>
0

>  <Q_VSA_FPOL>
0

>  <Q_VSA_FPOS>
1

>  <Q_VSA_FPPOS>
0

>  <Q_VSA_HYD>
391.41901

>  <Q_VSA_NEG>
0

>  <Q_VSA_PNEG>
0

>  <Q_VSA_POL>
0

>  <Q_VSA_POS>
391.41901

>  <Q_VSA_PPOS>
0

>  <radius>
6

>  <reactive>
0

>  <rings>
2

>  <RPC+>
0

>  <RPC->
0

>  <rsynth>
1

>  <SlogP>
4.2061601

>  <SlogP_VSA0>
28.888117

>  <SlogP_VSA1>
13.519359

>  <SlogP_VSA2>
0

>  <SlogP_VSA3>
0

>  <SlogP_VSA4>
63.652306

>  <SlogP_VSA5>
35.383869

>  <SlogP_VSA6>
0

>  <SlogP_VSA7>
105.85911

>  <SlogP_VSA8>
0

>  <SlogP_VSA9>
205.19952

>  <SMR>
10.70357

>  <SMR_VSA0>
47.724434

>  <SMR_VSA1>
14.001679

>  <SMR_VSA2>
17.888229

>  <SMR_VSA3>
21.171303

>  <SMR_VSA4>
0

>  <SMR_VSA5>
105.85911

>  <SMR_VSA6>
10.517568

>  <SMR_VSA7>
235.33995

>  <TPSA>
58.639999

>  <VAdjEq>
0.39086518

>  <VAdjMa>
5.8073549

>  <VDistEq>
3.3816624

>  <VDistMa>
9.2442341

>  <vdw_area>
391.41901

>  <vdw_vol>
450.97522

>  <vsa_acc>
29.637598

>  <vsa_acid>
0

>  <vsa_base>
0

>  <vsa_don>
9.4210396

>  <vsa_hyd>
326.4613

>  <vsa_other>
25.899061

>  <vsa_pol>
39.058636

>  <Weight>
368.47699

>  <weinerPath>
1818

>  <weinerPol>
44

>  <zagreb>
138

$$$$
N(C1C(=CC=CC=1CC)C)(C(=O)CCl)C(COC)C
  MOE2011           2D

 19 19  0  0  1  0  0  0  0  0999 V2000
    0.0000    0.0000    0.0000 N   0  0  0  0  0  0  0  0  0  0  0  0
   -1.3000   -0.7490    0.0000 C   0  0  0  0  0  0  0  0  0  0  0  0
   -1.3010   -2.2490    0.0000 C   0  0  0  0  0  0  0  0  0  0  0  0
   -2.6010   -2.9980    0.0000 C   0  0  0  0  0  0  0  0  0  0  0  0
   -3.8990   -2.2470    0.0000 C   0  0  0  0  0  0  0  0  0  0  0  0
   -3.8980   -0.7470    0.0000 C   0  0  0  0  0  0  0  0  0  0  0  0
   -2.5980    0.0020    0.0000 C   0  0  0  0  0  0  0  0  0  0  0  0
   -2.5970    1.5020    0.0000 C   0  0  0  0  0  0  0  0  0  0  0  0
   -3.8950    2.2530    0.0000 C   0  0  0  0  0  0  0  0  0  0  0  0
   -0.0030   -3.0000    0.0000 C   0  0  0  0  0  0  0  0  0  0  0  0
    0.0010    1.5000    0.0000 C   0  0  0  0  0  0  0  0  0  0  0  0
   -1.2970    2.2510    0.0000 O   0  0  0  0  0  0  0  0  0  0  0  0
    1.3010    2.2490    0.0000 C   0  0  0  0  0  0  0  0  0  0  0  0
    1.3020    3.7490    0.0000 Cl  0  0  0  0  0  0  0  0  0  0  0  0
    1.2980   -0.7510    0.0000 C   0  0  3  0  0  0  0  0  0  0  0  0
    2.5980   -0.0020    0.0000 C   0  0  0  0  0  0  0  0  0  0  0  0
    3.8960   -0.7530    0.0000 O   0  0  0  0  0  0  0  0  0  0  0  0
    5.1960   -0.0050    0.0000 C   0  0  0  0  0  0  0  0  0  0  0  0
    1.2970   -2.2510    0.0000 C   0  0  0  0  0  0  0  0  0  0  0  0
  1  2  1  0  0  0  0
  1 11  1  0  0  0  0
  1 15  1  0  0  0  0
  2  3  1  0  0  0  0
  2  7  2  0  0  0  0
  3  4  2  0  0  0  0
  3 10  1  0  0  0  0
  4  5  1  0  0  0  0
  5  6  2  0  0  0  0
  6  7  1  0  0  0  0
  7  8  1  0  0  0  0
  8  9  1  0  0  0  0
 11 12  2  0  0  0  0
 11 13  1  0  0  0  0
 13 14  1  0  0  0  0
 15 16  1  0  0  0  0
 15 19  1  0  0  0  0
 16 17  1  0  0  0  0
 17 18  1  0  0  0  0
M  END
>  <DSSTox_RID>
40528

>  <DSSTox_CID>
2448

>  <apol>
45.953445

>  <a_acc>
2

>  <a_acid>
0

>  <a_aro>
6

>  <a_base>
0

>  <a_count>
41

>  <a_don>
0

>  <a_heavy>
19

>  <a_hyd>
15

>  <a_IC>
60.948776

>  <a_ICM>
1.4865556

>  <a_nB>
0

>  <a_nBr>
0

>  <a_nC>
15

>  <a_nCl>
1

>  <a_nF>
0

>  <a_nH>
22

>  <a_nI>
0

>  <a_nN>
1

>  <a_nO>
2

>  <a_nP>
0

>  <a_nS>
0

>  <balabanJ>
2.9269798

>  <BCUT_PEOE_0>
-2.611912

>  <BCUT_PEOE_1>
-0.16233541

>  <BCUT_PEOE_2>
0.056246702

>  <BCUT_PEOE_3>
2.5803764

>  <BCUT_SLOGP_0>
-2.7101581

>  <BCUT_SLOGP_1>
-0.037112422

>  <BCUT_SLOGP_2>
0.3385345

>  <BCUT_SLOGP_3>
2.566139

>  <BCUT_SMR_0>
-2.3381152

>  <BCUT_SMR_1>
0.1057

>  <BCUT_SMR_2>
0.35198611

>  <BCUT_SMR_3>
2.8561633

>  <bpol>
29.324554

>  <b_1rotN>
7

>  <b_1rotR>
0.36842105

>  <b_ar>
6

>  <b_count>
41

>  <b_double>
1

>  <b_heavy>
19

>  <b_rotN>
7

>  <b_rotR>
0.36842105

>  <b_single>
34

>  <b_triple>
0

>  <chi0>
14.413849

>  <chi0v>
12.828325

>  <chi0v_C>
10.430721

>  <chi0_C>
11.129392

>  <chi1>
9.0612793

>  <chi1v>
7.052073

>  <chi1v_C>
4.6438289

>  <chi1_C>
5.5697155

>  <chiral>
1

>  <chiral_u>
1

>  <density>
0.79396904

>  <diameter>
8

>  <FCharge>
0

>  <GCUT_PEOE_0>
-0.81947505

>  <GCUT_PEOE_1>
-0.31472403

>  <GCUT_PEOE_2>
-0.1037533

>  <GCUT_PEOE_3>
2.6421325

>  <GCUT_SLOGP_0>
-1.0036794

>  <GCUT_SLOGP_1>
-0.19755925

>  <GCUT_SLOGP_2>
0.027511626

>  <GCUT_SLOGP_3>
2.7093289

>  <GCUT_SMR_0>
-0.51699173

>  <GCUT_SMR_1>
-0.088696964

>  <GCUT_SMR_2>
0.098227024

>  <GCUT_SMR_3>
2.9176459

>  <Kier1>
17.052631

>  <Kier2>
8.3232002

>  <Kier3>
4.2314048

>  <KierA1>
14.929953

>  <KierA2>
7.2300668

>  <KierA3>
3.6531906

>  <KierFlex>
5.6812921

>  <lip_acc>
3

>  <lip_don>
0

>  <lip_druglike>
1

>  <lip_violation>
0

>  <logP(o/w)>
3.2690001

>  <logS>
-3.5522699

>  <mr>
8.0289698

>  <mutagenic>
1

>  <nmol>
1

>  <opr_brigid>
6

>  <opr_leadlike>
1

>  <opr_nring>
1

>  <opr_nrot>
6

>  <opr_violation>
0

>  <PC+>
0

>  <PC->
0

>  <PEOE_PC+>
1.039884

>  <PEOE_PC->
-1.039884

>  <PEOE_RPC+>
0.24424461

>  <PEOE_RPC->
0.33571452

>  <PEOE_VSA+0>
104.03384

>  <PEOE_VSA+1>
6.6995511

>  <PEOE_VSA+2>
6.6995511

>  <PEOE_VSA+3>
75.836609

>  <PEOE_VSA+4>
0

>  <PEOE_VSA+5>
12.949531

>  <PEOE_VSA+6>
0

>  <PEOE_VSA-0>
51.842564

>  <PEOE_VSA-1>
0

>  <PEOE_VSA-2>
29.581947

>  <PEOE_VSA-3>
0

>  <PEOE_VSA-4>
0

>  <PEOE_VSA-5>
13.566921

>  <PEOE_VSA-6>
2.503756

>  <PEOE_VSA_FHYD>
0.90444899

>  <PEOE_VSA_FNEG>
0.32100958

>  <PEOE_VSA_FPNEG>
0.052913804

>  <PEOE_VSA_FPOL>
0.095551021

>  <PEOE_VSA_FPOS>
0.67899042

>  <PEOE_VSA_FPPOS>
0.042637218

>  <PEOE_VSA_HYD>
274.69406

>  <PEOE_VSA_NEG>
97.495186

>  <PEOE_VSA_PNEG>
16.070677

>  <PEOE_VSA_POL>
29.020208

>  <PEOE_VSA_POS>
206.21909

>  <PEOE_VSA_PPOS>
12.949531

>  <petitjean>
0.5

>  <petitjeanSC>
1

>  <Q_PC+>
0

>  <Q_PC->
0

>  <Q_RPC+>
0

>  <Q_RPC->
0

>  <Q_VSA_FHYD>
1

>  <Q_VSA_FNEG>
0

>  <Q_VSA_FPNEG>
0

>  <Q_VSA_FPOL>
0

>  <Q_VSA_FPOS>
1

>  <Q_VSA_FPPOS>
0

>  <Q_VSA_HYD>
303.71426

>  <Q_VSA_NEG>
0

>  <Q_VSA_PNEG>
0

>  <Q_VSA_POL>
0

>  <Q_VSA_POS>
303.71426

>  <Q_VSA_PPOS>
0

>  <radius>
4

>  <reactive>
1

>  <rings>
1

>  <RPC+>
0

>  <RPC->
0

>  <rsynth>
1

>  <SlogP>
3.1640899

>  <SlogP_VSA0>
3.1243138

>  <SlogP_VSA1>
5.2587838

>  <SlogP_VSA2>
38.844074

>  <SlogP_VSA3>
40.109695

>  <SlogP_VSA4>
6.37115

>  <SlogP_VSA5>
54.252274

>  <SlogP_VSA6>
0

>  <SlogP_VSA7>
52.929554

>  <SlogP_VSA8>
0

>  <SlogP_VSA9>
141.88344

>  <SMR>
8.0101004

>  <SMR_VSA0>
34.862103

>  <SMR_VSA1>
0

>  <SMR_VSA2>
3.1243138

>  <SMR_VSA3>
10.353119

>  <SMR_VSA4>
2.7567475

>  <SMR_VSA5>
71.797958

>  <SMR_VSA6>
45.368481

>  <SMR_VSA7>
174.51056

>  <TPSA>
29.540001

>  <VAdjEq>
0.48546076

>  <VAdjMa>
5.2479277

>  <VDistEq>
2.7789826

>  <VDistMa>
8.2558393

>  <vdw_area>
303.71426

>  <vdw_vol>
329.51285

>  <vsa_acc>
16.070677

>  <vsa_acid>
0

>  <vsa_base>
0

>  <vsa_don>
0

>  <vsa_hyd>
274.69406

>  <vsa_other>
12.949531

>  <vsa_pol>
16.070677

>  <Weight>
283.79898

>  <weinerPath>
656

>  <weinerPol>
30

>  <zagreb>
88

$$$$
NN1C(=O)/C(=N\N=C1\SC)C(C)(C)C
  MOE2011           2D

 14 14  0  0  0  0  0  0  0  0999 V2000
    0.0000    0.0000    0.0000 N   0  0  0  0  0  0  0  0  0  0  0  0
   -0.7450    1.3020    0.0000 N   0  0  0  0  0  0  0  0  0  0  0  0
   -2.2450    1.3080    0.0000 C   0  0  0  0  0  0  0  0  0  0  0  0
   -3.0000    0.0120    0.0000 O   0  0  0  0  0  0  0  0  0  0  0  0
   -2.9900    2.6100    0.0000 C   0  0  0  0  0  0  0  0  0  0  0  0
   -2.2350    3.9060    0.0000 N   0  0  0  0  0  0  0  0  0  0  0  0
   -0.7350    3.9000    0.0000 N   0  0  0  0  0  0  0  0  0  0  0  0
    0.0100    2.5980    0.0000 C   0  0  0  0  0  0  0  0  0  0  0  0
    1.5100    2.5920    0.0000 S   0  0  0  0  0  0  0  0  0  0  0  0
    2.2650    3.8880    0.0000 C   0  0  0  0  0  0  0  0  0  0  0  0
   -4.4900    2.6160    0.0000 C   0  0  0  0  0  0  0  0  0  0  0  0
   -5.9900    2.6220    0.0000 C   0  0  0  0  0  0  0  0  0  0  0  0
   -4.4960    1.1160    0.0000 C   0  0  0  0  0  0  0  0  0  0  0  0
   -4.4840    4.1160    0.0000 C   0  0  0  0  0  0  0  0  0  0  0  0
  1  2  1  0  0  0  0
  2  3  1  0  0  0  0
  2  8  1  0  0  0  0
  3  4  2  0  0  0  0
  3  5  1  0  0  0  0
  5  6  2  0  0  0  0
  5 11  1  0  0  0  0
  6  7  1  0  0  0  0
  7  8  2  0  0  0  0
  8  9  1  0  0  0  0
  9 10  1  0  0  0  0
 11 12  1  0  0  0  0
 11 13  1  0  0  0  0
 11 14  1  0  0  0  0
M  END
>  <DSSTox_RID>
40529

>  <DSSTox_CID>
4204

>  <apol>
31.517101

>  <a_acc>
4

>  <a_acid>
0

>  <a_aro>
0

>  <a_base>
0

>  <a_count>
28

>  <a_don>
1

>  <a_heavy>
14

>  <a_hyd>
6

>  <a_IC>
49.302967

>  <a_ICM>
1.7608203

>  <a_nB>
0

>  <a_nBr>
0

>  <a_nC>
8

>  <a_nCl>
0

>  <a_nF>
0

>  <a_nH>
14

>  <a_nI>
0

>  <a_nN>
4

>  <a_nO>
1

>  <a_nP>
0

>  <a_nS>
1

>  <balabanJ>
2.7109814

>  <BCUT_PEOE_0>
-2.6136487

>  <BCUT_PEOE_1>
-0.14455411

>  <BCUT_PEOE_2>
0.1434827

>  <BCUT_PEOE_3>
2.6165032

>  <BCUT_SLOGP_0>
-2.6821728

>  <BCUT_SLOGP_1>
0.017155087

>  <BCUT_SLOGP_2>
0.2142

>  <BCUT_SLOGP_3>
2.6700172

>  <BCUT_SMR_0>
-2.3667445

>  <BCUT_SMR_1>
0.096270002

>  <BCUT_SMR_2>
0.2283503

>  <BCUT_SMR_3>
2.8773592

>  <bpol>
19.862898

>  <b_1rotN>
0

>  <b_1rotR>
0

>  <b_ar>
0

>  <b_count>
28

>  <b_double>
3

>  <b_heavy>
14

>  <b_rotN>
2

>  <b_rotR>
0.14285715

>  <b_single>
25

>  <b_triple>
0

>  <chi0>
10.930721

>  <chi0v>
9.5519838

>  <chi0v_C>
6

>  <chi0_C>
6.2320509

>  <chi1>
6.3752275

>  <chi1v>
5.3938675

>  <chi1v_C>
2

>  <chi1_C>
2.1220086

>  <chiral>
0

>  <chiral_u>
0

>  <density>
0.88705134

>  <diameter>
7

>  <FCharge>
0

>  <GCUT_PEOE_0>
-0.83002782

>  <GCUT_PEOE_1>
-0.34238419

>  <GCUT_PEOE_2>
-0.12551962

>  <GCUT_PEOE_3>
2.387507

>  <GCUT_SLOGP_0>
-1.3751384

>  <GCUT_SLOGP_1>
-0.19883046

>  <GCUT_SLOGP_2>
-0.018253475

>  <GCUT_SLOGP_3>
2.3956361

>  <GCUT_SMR_0>
-0.52304286

>  <GCUT_SMR_1>
-0.063730001

>  <GCUT_SMR_2>
0.025437402

>  <GCUT_SMR_3>
2.659508

>  <Kier1>
12.071428

>  <Kier2>
4.2448978

>  <Kier3>
2.5344

>  <KierA1>
10.586739

>  <KierA2>
3.6823494

>  <KierA3>
2.180202

>  <KierFlex>
2.7845764

>  <lip_acc>
5

>  <lip_don>
2

>  <lip_druglike>
1

>  <lip_violation>
0

>  <logP(o/w)>
1.765

>  <logS>
-2.57251

>  <mr>
5.5726118

>  <mutagenic>
1

>  <nmol>
1

>  <opr_brigid>
6

>  <opr_leadlike>
1

>  <opr_nring>
1

>  <opr_nrot>
2

>  <opr_violation>
0

>  <PC+>
0

>  <PC->
0

>  <PEOE_PC+>
0.78354073

>  <PEOE_PC->
-0.78354073

>  <PEOE_RPC+>
0.37502101

>  <PEOE_RPC->
0.33706254

>  <PEOE_VSA+0>
109.7063

>  <PEOE_VSA+1>
31.384512

>  <PEOE_VSA+2>
6.6995511

>  <PEOE_VSA+3>
0

>  <PEOE_VSA+4>
13.166624

>  <PEOE_VSA+5>
12.949531

>  <PEOE_VSA+6>
0

>  <PEOE_VSA-0>
0

>  <PEOE_VSA-1>
19.760618

>  <PEOE_VSA-2>
18.842079

>  <PEOE_VSA-3>
0

>  <PEOE_VSA-4>
0

>  <PEOE_VSA-5>
13.566921

>  <PEOE_VSA-6>
0

>  <PEOE_VSA_FHYD>
0.82447028

>  <PEOE_VSA_FNEG>
0.23076127

>  <PEOE_VSA_FPNEG>
0.060010407

>  <PEOE_VSA_FPOL>
0.1755297

>  <PEOE_VSA_FPOS>
0.76923871

>  <PEOE_VSA_FPPOS>
0.11551929

>  <PEOE_VSA_HYD>
186.39307

>  <PEOE_VSA_NEG>
52.169617

>  <PEOE_VSA_PNEG>
13.566921

>  <PEOE_VSA_POL>
39.683075

>  <PEOE_VSA_POS>
173.90652

>  <PEOE_VSA_PPOS>
26.116156

>  <petitjean>
0.42857143

>  <petitjeanSC>
0.75

>  <Q_PC+>
0

>  <Q_PC->
0

>  <Q_RPC+>
0

>  <Q_RPC->
0

>  <Q_VSA_FHYD>
1

>  <Q_VSA_FNEG>
0

>  <Q_VSA_FPNEG>
0

>  <Q_VSA_FPOL>
0

>  <Q_VSA_FPOS>
1

>  <Q_VSA_FPPOS>
0

>  <Q_VSA_HYD>
226.07614

>  <Q_VSA_NEG>
0

>  <Q_VSA_PNEG>
0

>  <Q_VSA_POL>
0

>  <Q_VSA_POS>
226.07614

>  <Q_VSA_PPOS>
0

>  <radius>
4

>  <reactive>
0

>  <rings>
1

>  <RPC+>
0

>  <RPC->
0

>  <rsynth>
1

>  <SlogP>
0.82340002

>  <SlogP_VSA0>
32.774666

>  <SlogP_VSA1>
11.710402

>  <SlogP_VSA2>
23.862217

>  <SlogP_VSA3>
0

>  <SlogP_VSA4>
0

>  <SlogP_VSA5>
65.017189

>  <SlogP_VSA6>
0

>  <SlogP_VSA7>
0

>  <SlogP_VSA8>
0

>  <SlogP_VSA9>
132.19759

>  <SMR>
5.8874402

>  <SMR_VSA0>
23.862217

>  <SMR_VSA1>
36.327808

>  <SMR_VSA2>
0

>  <SMR_VSA3>
0

>  <SMR_VSA4>
32.774666

>  <SMR_VSA5>
0

>  <SMR_VSA6>
8.7086105

>  <SMR_VSA7>
163.88876

>  <TPSA>
71.050003

>  <VAdjEq>
0.59167278

>  <VAdjMa>
4.8073549

>  <VDistEq>
2.5518386

>  <VDistMa>
7.3325362

>  <vdw_area>
226.07614

>  <vdw_vol>
225.67014

>  <vsa_acc>
32.409

>  <vsa_acid>
0

>  <vsa_base>
0

>  <vsa_don>
0

>  <vsa_hyd>
139.37048

>  <vsa_other>
32.815708

>  <vsa_pol>
53.889954

>  <Weight>
214.293

>  <weinerPath>
284

>  <weinerPol>
22

>  <zagreb>
70

$$$$
O=C(OC)\C=C(OP(OC)(OC)=O)/C
  MOE2011           2D

 14 13  0  0  0  0  0  0  0  0999 V2000
    0.0000    0.0000    0.0000 O   0  0  0  0  0  0  0  0  0  0  0  0
    0.7430    1.3030    0.0000 C   0  0  0  0  0  0  0  0  0  0  0  0
    2.2430    1.3110    0.0000 O   0  0  0  0  0  0  0  0  0  0  0  0
    3.0000    0.0160    0.0000 C   0  0  0  0  0  0  0  0  0  0  0  0
   -0.0140    2.5980    0.0000 C   0  0  0  0  0  0  0  0  0  0  0  0
   -1.5140    2.5900    0.0000 C   0  0  0  0  0  0  0  0  0  0  0  0
   -2.2710    3.8850    0.0000 O   0  0  0  0  0  0  0  0  0  0  0  0
   -3.7710    3.8770    0.0000 P   0  0  0  0  0  0  0  0  0  0  0  0
   -5.2710    3.8690    0.0000 O   0  0  0  0  0  0  0  0  0  0  0  0
   -6.0140    2.5660    0.0000 C   0  0  0  0  0  0  0  0  0  0  0  0
   -3.7790    5.3770    0.0000 O   0  0  0  0  0  0  0  0  0  0  0  0
   -5.0820    6.1200    0.0000 C   0  0  0  0  0  0  0  0  0  0  0  0
   -3.7630    2.3770    0.0000 O   0  0  0  0  0  0  0  0  0  0  0  0
   -2.2570    1.2870    0.0000 C   0  0  0  0  0  0  0  0  0  0  0  0
  1  2  2  0  0  0  0
  2  3  1  0  0  0  0
  2  5  1  0  0  0  0
  3  4  1  0  0  0  0
  5  6  2  0  0  0  0
  6  7  1  0  0  0  0
  6 14  1  0  0  0  0
  7  8  1  0  0  0  0
  8  9  1  0  0  0  0
  8 11  1  0  0  0  0
  8 13  2  0  0  0  0
  9 10  1  0  0  0  0
 11 12  1  0  0  0  0
M  END
>  <DSSTox_RID>
40312

>  <DSSTox_CID>
12683

>  <apol>
29.430309

>  <a_acc>
5

>  <a_acid>
0

>  <a_aro>
0

>  <a_base>
0

>  <a_count>
27

>  <a_don>
0

>  <a_heavy>
14

>  <a_hyd>
6

>  <a_IC>
45.114986

>  <a_ICM>
1.6709254

>  <a_nB>
0

>  <a_nBr>
0

>  <a_nC>
7

>  <a_nCl>
0

>  <a_nF>
0

>  <a_nH>
13

>  <a_nI>
0

>  <a_nN>
0

>  <a_nO>
6

>  <a_nP>
1

>  <a_nS>
0

>  <balabanJ>
3.9821613

>  <BCUT_PEOE_0>
-2.3786311

>  <BCUT_PEOE_1>
-0.20678857

>  <BCUT_PEOE_2>
0.052972078

>  <BCUT_PEOE_3>
2.4426684

>  <BCUT_SLOGP_0>
-2.3456681

>  <BCUT_SLOGP_1>
-0.19191836

>  <BCUT_SLOGP_2>
0.123

>  <BCUT_SLOGP_3>
2.6113825

>  <BCUT_SMR_0>
-2.1154828

>  <BCUT_SMR_1>
0.04433012

>  <BCUT_SMR_2>
0.10640002

>  <BCUT_SMR_3>
2.7140172

>  <bpol>
31.27169

>  <b_1rotN>
5

>  <b_1rotR>
0.38461539

>  <b_ar>
0

>  <b_count>
26

>  <b_double>
2

>  <b_heavy>
13

>  <b_rotN>
6

>  <b_rotR>
0.46153846

>  <b_single>
24

>  <b_triple>
0

>  <chi0>
11.190234

>  <chi0v>
9.3684807

>  <chi0v_C>
5.5773501

>  <chi0_C>
5.8618073

>  <chi1>
6.4696741

>  <chi1v>
5.1053576

>  <chi1v_C>
1.0773503

>  <chi1_C>
1.3938469

>  <chiral>
0

>  <chiral_u>
0

>  <density>
0.95969731

>  <diameter>
8

>  <FCharge>
0

>  <GCUT_PEOE_0>
-0.74699438

>  <GCUT_PEOE_1>
-0.40891987

>  <GCUT_PEOE_2>
-0.10702793

>  <GCUT_PEOE_3>
2.142519

>  <GCUT_SLOGP_0>
-1.2931477

>  <GCUT_SLOGP_1>
-0.28978854

>  <GCUT_SLOGP_2>
-0.037

>  <GCUT_SLOGP_3>
2.231606

>  <GCUT_SMR_0>
-0.48716274

>  <GCUT_SMR_1>
-0.13850105

>  <GCUT_SMR_2>
-0.054299999

>  <GCUT_SMR_3>
2.3856764

>  <Kier1>
14

>  <Kier2>
6.4775085

>  <Kier3>
5.480969

>  <KierA1>
13.949969

>  <KierA2>
6.4524808

>  <KierA3>
5.4585772

>  <KierFlex>
6.4294219

>  <lip_acc>
6

>  <lip_don>
0

>  <lip_druglike>
1

>  <lip_violation>
0

>  <logP(o/w)>
0.25099999

>  <logS>
-0.73106003

>  <mr>
5.2341504

>  <mutagenic>
0

>  <nmol>
1

>  <opr_brigid>
1

>  <opr_leadlike>
1

>  <opr_nring>
0

>  <opr_nrot>
5

>  <opr_violation>
0

>  <PC+>
0

>  <PC->
0

>  <PEOE_PC+>
1.4112195

>  <PEOE_PC->
-1.4112195

>  <PEOE_RPC+>
0.2994065

>  <PEOE_RPC->
0.20924781

>  <PEOE_VSA+0>
29.408449

>  <PEOE_VSA+1>
24.267014

>  <PEOE_VSA+2>
0

>  <PEOE_VSA+3>
106.97529

>  <PEOE_VSA+4>
0

>  <PEOE_VSA+5>
14.708499

>  <PEOE_VSA+6>
18.713068

>  <PEOE_VSA-0>
0

>  <PEOE_VSA-1>
0

>  <PEOE_VSA-2>
15.729136

>  <PEOE_VSA-3>
0

>  <PEOE_VSA-4>
4.6659718

>  <PEOE_VSA-5>
25.40262

>  <PEOE_VSA-6>
0

>  <PEOE_VSA_FHYD>
0.73531437

>  <PEOE_VSA_FNEG>
0.19092725

>  <PEOE_VSA_FPNEG>
0.12535368

>  <PEOE_VSA_FPOL>
0.26468566

>  <PEOE_VSA_FPOS>
0.80907273

>  <PEOE_VSA_FPPOS>
0.13933198

>  <PEOE_VSA_HYD>
176.37988

>  <PEOE_VSA_NEG>
45.797729

>  <PEOE_VSA_PNEG>
30.068592

>  <PEOE_VSA_POL>
63.490162

>  <PEOE_VSA_POS>
194.07233

>  <PEOE_VSA_PPOS>
33.42157

>  <petitjean>
0.5

>  <petitjeanSC>
1

>  <Q_PC+>
0

>  <Q_PC->
0

>  <Q_RPC+>
0

>  <Q_RPC->
0

>  <Q_VSA_FHYD>
1

>  <Q_VSA_FNEG>
0

>  <Q_VSA_FPNEG>
0

>  <Q_VSA_FPOL>
0

>  <Q_VSA_FPOS>
1

>  <Q_VSA_FPPOS>
0

>  <Q_VSA_HYD>
239.87006

>  <Q_VSA_NEG>
0

>  <Q_VSA_PNEG>
0

>  <Q_VSA_POL>
0

>  <Q_VSA_POS>
239.87006

>  <Q_VSA_PPOS>
0

>  <radius>
4

>  <reactive>
0

>  <rings>
0

>  <RPC+>
0

>  <RPC->
0

>  <rsynth>
1

>  <SlogP>
0.41049999

>  <SlogP_VSA0>
22.433765

>  <SlogP_VSA1>
7.7454643

>  <SlogP_VSA2>
55.626995

>  <SlogP_VSA3>
0

>  <SlogP_VSA4>
0

>  <SlogP_VSA5>
111.39503

>  <SlogP_VSA6>
0

>  <SlogP_VSA7>
17.643185

>  <SlogP_VSA8>
0

>  <SlogP_VSA9>
50.020855

>  <SMR>
4.7796001

>  <SMR_VSA0>
78.06076

>  <SMR_VSA1>
0

>  <SMR_VSA2>
0

>  <SMR_VSA3>
5.2434282

>  <SMR_VSA4>
0

>  <SMR_VSA5>
17.643185

>  <SMR_VSA6>
7.7454643

>  <SMR_VSA7>
156.17245

>  <TPSA>
71.059998

>  <VAdjEq>
0.56466961

>  <VAdjMa>
4.7004399

>  <VDistEq>
2.8383729

>  <VDistMa>
7.3036914

>  <vdw_area>
239.87006

>  <vdw_vol>
219.90788

>  <vsa_acc>
43.293972

>  <vsa_acid>
0

>  <vsa_base>
0

>  <vsa_don>
0

>  <vsa_hyd>
160.65076

>  <vsa_other>
35.925323

>  <vsa_pol>
43.293972

>  <Weight>
224.149

>  <weinerPath>
332

>  <weinerPol>
17

>  <zagreb>
60

$$$$
O=C(N3CC(CC)CCCC)C1C(C3=O)C2CC1C=C2
  MOE2011           2D

 20 22  0  0  1  0  0  0  0  0999 V2000
    0.0000    0.0000    0.0000 O   0  0  0  0  0  0  0  0  0  0  0  0
   -0.4020    1.4450    0.0000 C   0  0  0  0  0  0  0  0  0  0  0  0
    0.5090    2.6370    0.0000 N   0  0  0  0  0  0  0  0  0  0  0  0
    2.0080    2.6000    0.0000 C   0  0  0  0  0  0  0  0  0  0  0  0
    2.7260    1.2830    0.0000 C   0  0  3  0  0  0  0  0  0  0  0  0
    1.9450    0.0030    0.0000 C   0  0  0  0  0  0  0  0  0  0  0  0
    2.6630   -1.3140    0.0000 C   0  0  0  0  0  0  0  0  0  0  0  0
    4.2260    1.2470    0.0000 C   0  0  0  0  0  0  0  0  0  0  0  0
    5.0070    2.5270    0.0000 C   0  0  0  0  0  0  0  0  0  0  0  0
    6.5070    2.4900    0.0000 C   0  0  0  0  0  0  0  0  0  0  0  0
    7.2890    3.7710    0.0000 C   0  0  0  0  0  0  0  0  0  0  0  0
   -1.7620    1.9810    0.0000 C   0  0  3  0  0  0  0  0  0  0  0  0
   -1.8330    3.2330    0.0000 C   0  0  3  0  0  0  0  0  0  0  0  0
   -0.3430    3.8710    0.0000 C   0  0  0  0  0  0  0  0  0  0  0  0
    0.0730    5.3130    0.0000 O   0  0  0  0  0  0  0  0  0  0  0  0
   -2.4730    4.3700    0.0000 C   0  0  3  0  0  0  0  0  0  0  0  0
   -1.6510    5.4810    0.0000 C   0  0  0  0  0  0  0  0  0  0  0  0
   -2.6420    3.1230    0.0000 C   0  0  3  0  0  0  0  0  0  0  0  0
   -4.0100    3.0850    0.0000 C   0  0  0  0  0  0  0  0  0  0  0  0
   -4.0040    4.2410    0.0000 C   0  0  0  0  0  0  0  0  0  0  0  0
  1  2  2  0  0  0  0
  2  3  1  0  0  0  0
  2 12  1  0  0  0  0
  3  4  1  0  0  0  0
  3 14  1  0  0  0  0
  4  5  1  0  0  0  0
  5  6  1  0  0  0  0
  5  8  1  0  0  0  0
  6  7  1  0  0  0  0
  8  9  1  0  0  0  0
  9 10  1  0  0  0  0
 10 11  1  0  0  0  0
 12 13  1  0  0  0  0
 12 18  1  0  0  0  0
 13 14  1  0  0  0  0
 13 16  1  0  0  0  0
 14 15  2  0  0  0  0
 16 17  1  0  0  0  0
 16 20  1  0  0  0  0
 17 18  1  0  0  0  0
 18 19  1  0  0  0  0
 19 20  2  0  0  0  0
M  END
>  <DSSTox_RID>
40327

>  <DSSTox_CID>
12562

>  <apol>
49.293823

>  <a_acc>
2

>  <a_acid>
0

>  <a_aro>
0

>  <a_base>
0

>  <a_count>
45

>  <a_don>
0

>  <a_heavy>
20

>  <a_hyd>
15

>  <a_IC>
59.550117

>  <a_ICM>
1.3233359

>  <a_nB>
0

>  <a_nBr>
0

>  <a_nC>
17

>  <a_nCl>
0

>  <a_nF>
0

>  <a_nH>
25

>  <a_nI>
0

>  <a_nN>
1

>  <a_nO>
2

>  <a_nP>
0

>  <a_nS>
0

>  <balabanJ>
1.65474

>  <BCUT_PEOE_0>
-2.7330153

>  <BCUT_PEOE_1>
-0.53701693

>  <BCUT_PEOE_2>
0.53823709

>  <BCUT_PEOE_3>
2.8881915

>  <BCUT_SLOGP_0>
-2.6931279

>  <BCUT_SLOGP_1>
-0.4707348

>  <BCUT_SLOGP_2>
0.60305917

>  <BCUT_SLOGP_3>
2.8873398

>  <BCUT_SMR_0>
-2.4819896

>  <BCUT_SMR_1>
-0.37608117

>  <BCUT_SMR_2>
0.66156983

>  <BCUT_SMR_3>
3.130461

>  <bpol>
31.226175

>  <b_1rotN>
6

>  <b_1rotR>
0.27272728

>  <b_ar>
0

>  <b_count>
47

>  <b_double>
3

>  <b_heavy>
22

>  <b_rotN>
6

>  <b_rotR>
0.27272728

>  <b_single>
44

>  <b_triple>
0

>  <chi0>
14.275657

>  <chi0v>
12.547803

>  <chi0v_C>
11.284093

>  <chi0_C>
11.698306

>  <chi1>
9.6682339

>  <chi1v>
8.2044945

>  <chi1v_C>
7.0328054

>  <chi1_C>
7.4386182

>  <chiral>
5

>  <chiral_u>
5

>  <density>
0.762568

>  <diameter>
10

>  <FCharge>
0

>  <GCUT_PEOE_0>
-0.80006313

>  <GCUT_PEOE_1>
-0.39364871

>  <GCUT_PEOE_2>
0.033571217

>  <GCUT_PEOE_3>
2.8914764

>  <GCUT_SLOGP_0>
-0.98208034

>  <GCUT_SLOGP_1>
-0.31356159

>  <GCUT_SLOGP_2>
0.10566314

>  <GCUT_SLOGP_3>
2.9121625

>  <GCUT_SMR_0>
-0.53629732

>  <GCUT_SMR_1>
-0.22679289

>  <GCUT_SMR_2>
0.1325682

>  <GCUT_SMR_3>
3.1210277

>  <Kier1>
14.917356

>  <Kier2>
6.0117188

>  <Kier3>
2.4934359

>  <KierA1>
12.656631

>  <KierA2>
5.0537271

>  <KierA3>
2.0819623

>  <KierFlex>
3.198158

>  <lip_acc>
3

>  <lip_don>
0

>  <lip_druglike>
1

>  <lip_violation>
0

>  <logP(o/w)>
2.3559999

>  <logS>
-3.32954

>  <mr>
7.9646454

>  <mutagenic>
0

>  <nmol>
1

>  <opr_brigid>
12

>  <opr_leadlike>
1

>  <opr_nring>
3

>  <opr_nrot>
6

>  <opr_violation>
0

>  <PC+>
0

>  <PC->
0

>  <PEOE_PC+>
0.87504005

>  <PEOE_PC->
-0.87504005

>  <PEOE_RPC+>
0.27397475

>  <PEOE_RPC->
0.31070328

>  <PEOE_VSA+0>
144.48499

>  <PEOE_VSA+1>
4.4170794

>  <PEOE_VSA+2>
20.299505

>  <PEOE_VSA+3>
0

>  <PEOE_VSA+4>
25.899061

>  <PEOE_VSA+5>
0

>  <PEOE_VSA+6>
0

>  <PEOE_VSA-0>
31.616989

>  <PEOE_VSA-1>
0

>  <PEOE_VSA-2>
0

>  <PEOE_VSA-3>
0

>  <PEOE_VSA-4>
0

>  <PEOE_VSA-5>
27.133842

>  <PEOE_VSA-6>
0

>  <PEOE_VSA_FHYD>
0.79108685

>  <PEOE_VSA_FNEG>
0.23143782

>  <PEOE_VSA_FPNEG>
0.10688865

>  <PEOE_VSA_FPOL>
0.20891312

>  <PEOE_VSA_FPOS>
0.7685622

>  <PEOE_VSA_FPPOS>
0.10202447

>  <PEOE_VSA_HYD>
200.81857

>  <PEOE_VSA_NEG>
58.750832

>  <PEOE_VSA_PNEG>
27.133842

>  <PEOE_VSA_POL>
53.032902

>  <PEOE_VSA_POS>
195.10063

>  <PEOE_VSA_PPOS>
25.899061

>  <petitjean>
0.5

>  <petitjeanSC>
1

>  <Q_PC+>
0

>  <Q_PC->
0

>  <Q_RPC+>
0

>  <Q_RPC->
0

>  <Q_VSA_FHYD>
1

>  <Q_VSA_FNEG>
0

>  <Q_VSA_FPNEG>
0

>  <Q_VSA_FPOL>
0

>  <Q_VSA_FPOS>
1

>  <Q_VSA_FPPOS>
0

>  <Q_VSA_HYD>
253.85147

>  <Q_VSA_NEG>
0

>  <Q_VSA_PNEG>
0

>  <Q_VSA_POL>
0

>  <Q_VSA_POS>
253.85147

>  <Q_VSA_PPOS>
0

>  <radius>
5

>  <reactive>
0

>  <rings>
3

>  <RPC+>
0

>  <RPC->
0

>  <rsynth>
1

>  <SlogP>
3.0099001

>  <SlogP_VSA0>
0

>  <SlogP_VSA1>
13.641881

>  <SlogP_VSA2>
47.724434

>  <SlogP_VSA3>
18.439579

>  <SlogP_VSA4>
22.05398

>  <SlogP_VSA5>
0

>  <SlogP_VSA6>
0

>  <SlogP_VSA7>
35.286369

>  <SlogP_VSA8>
94.342026

>  <SlogP_VSA9>
66.652031

>  <SMR>
7.7743001

>  <SMR_VSA0>
47.724434

>  <SMR_VSA1>
3.1243138

>  <SMR_VSA2>
22.05398

>  <SMR_VSA3>
0

>  <SMR_VSA4>
0

>  <SMR_VSA5>
129.6284

>  <SMR_VSA6>
28.957146

>  <SMR_VSA7>
66.652031

>  <TPSA>
37.380001

>  <VAdjEq>
0.49991596

>  <VAdjMa>
5.4594316

>  <VDistEq>
3.1063988

>  <VDistMa>
8.3475037

>  <vdw_area>
253.85147

>  <vdw_vol>
328.0914

>  <vsa_acc>
27.133842

>  <vsa_acid>
0

>  <vsa_base>
0

>  <vsa_don>
0

>  <vsa_hyd>
200.81857

>  <vsa_other>
25.899061

>  <vsa_pol>
27.133842

>  <Weight>
275.392

>  <weinerPath>
800

>  <weinerPol>
30

>  <zagreb>
108

$$$$
O=C(SCC)N1CCCCCC1
  MOE2011           2D

 12 12  0  0  0  0  0  0  0  0999 V2000
    0.0000    0.0000    0.0000 O   0  0  0  0  0  0  0  0  0  0  0  0
   -0.7580   -1.2940    0.0000 C   0  0  0  0  0  0  0  0  0  0  0  0
   -0.0160   -2.5980    0.0000 S   0  0  0  0  0  0  0  0  0  0  0  0
    1.4840   -2.6070    0.0000 C   0  0  0  0  0  0  0  0  0  0  0  0
    2.2250   -3.9110    0.0000 C   0  0  0  0  0  0  0  0  0  0  0  0
   -2.2580   -1.2850    0.0000 N   0  0  0  0  0  0  0  0  0  0  0  0
   -2.9170   -2.6320    0.0000 C   0  0  0  0  0  0  0  0  0  0  0  0
   -4.3820   -2.9550    0.0000 C   0  0  0  0  0  0  0  0  0  0  0  0
   -5.5480   -2.0120    0.0000 C   0  0  0  0  0  0  0  0  0  0  0  0
   -5.5390   -0.5120    0.0000 C   0  0  0  0  0  0  0  0  0  0  0  0
   -4.3600    0.4150    0.0000 C   0  0  0  0  0  0  0  0  0  0  0  0
   -2.9000    0.0710    0.0000 C   0  0  0  0  0  0  0  0  0  0  0  0
  1  2  2  0  0  0  0
  2  3  1  0  0  0  0
  2  6  1  0  0  0  0
  3  4  1  0  0  0  0
  4  5  1  0  0  0  0
  6  7  1  0  0  0  0
  6 12  1  0  0  0  0
  7  8  1  0  0  0  0
  8  9  1  0  0  0  0
  9 10  1  0  0  0  0
 10 11  1  0  0  0  0
 11 12  1  0  0  0  0
M  END
>  <DSSTox_RID>
40531

>  <DSSTox_CID>
4206

>  <apol>
31.977482

>  <a_acc>
1

>  <a_acid>
0

>  <a_aro>
0

>  <a_base>
0

>  <a_count>
29

>  <a_don>
0

>  <a_heavy>
12

>  <a_hyd>
9

>  <a_IC>
42.865257

>  <a_ICM>
1.4781122

>  <a_nB>
0

>  <a_nBr>
0

>  <a_nC>
9

>  <a_nCl>
0

>  <a_nF>
0

>  <a_nH>
17

>  <a_nI>
0

>  <a_nN>
1

>  <a_nO>
1

>  <a_nP>
0

>  <a_nS>
1

>  <balabanJ>
2.2742698

>  <BCUT_PEOE_0>
-2.6006045

>  <BCUT_PEOE_1>
-0.16840029

>  <BCUT_PEOE_2>
0.048866045

>  <BCUT_PEOE_3>
2.6779611

>  <BCUT_SLOGP_0>
-2.639986

>  <BCUT_SLOGP_1>
0.081708506

>  <BCUT_SLOGP_2>
0.35498482

>  <BCUT_SLOGP_3>
2.760993

>  <BCUT_SMR_0>
-2.3600838

>  <BCUT_SMR_1>
0.094492838

>  <BCUT_SMR_2>
0.27987254

>  <BCUT_SMR_3>
2.9437342

>  <bpol>
23.802519

>  <b_1rotN>
2

>  <b_1rotR>
0.16666667

>  <b_ar>
0

>  <b_count>
29

>  <b_double>
1

>  <b_heavy>
12

>  <b_rotN>
3

>  <b_rotR>
0.25

>  <b_single>
28

>  <b_triple>
0

>  <chi0>
8.8115549

>  <chi0v>
8.529954

>  <chi0v_C>
6.4497476

>  <chi0_C>
6.5270977

>  <chi1>
5.842535

>  <chi1v>
5.7456913

>  <chi1v_C>
3.2071068

>  <chi1_C>
3.2071068

>  <chiral>
0

>  <chiral_u>
0

>  <density>
0.80587614

>  <diameter>
7

>  <FCharge>
0

>  <GCUT_PEOE_0>
-0.84521139

>  <GCUT_PEOE_1>
-0.33191055

>  <GCUT_PEOE_2>
-0.11113396

>  <GCUT_PEOE_3>
2.48962

>  <GCUT_SLOGP_0>
-0.95510644

>  <GCUT_SLOGP_1>
-0.16899027

>  <GCUT_SLOGP_2>
0.14203447

>  <GCUT_SLOGP_3>
2.559236

>  <GCUT_SMR_0>
-0.53036267

>  <GCUT_SMR_1>
-0.083576761

>  <GCUT_SMR_2>
0.13168254

>  <GCUT_SMR_3>
2.738328

>  <Kier1>
10.083333

>  <Kier2>
5.6122451

>  <Kier3>
3.515625

>  <KierA1>
10.163754

>  <KierA2>
5.6613669

>  <KierA3>
3.5485394

>  <KierFlex>
4.7950616

>  <lip_acc>
2

>  <lip_don>
0

>  <lip_druglike>
1

>  <lip_violation>
0

>  <logP(o/w)>
2.5910001

>  <logS>
-1.98809

>  <mr>
5.3833323

>  <mutagenic>
0

>  <nmol>
1

>  <opr_brigid>
7

>  <opr_leadlike>
1

>  <opr_nring>
1

>  <opr_nrot>
5

>  <opr_violation>
0

>  <PC+>
0

>  <PC->
0

>  <PEOE_PC+>
0.62625754

>  <PEOE_PC->
-0.62625754

>  <PEOE_RPC+>
0.45395681

>  <PEOE_RPC->
0.49721053

>  <PEOE_VSA+0>
92.642426

>  <PEOE_VSA+1>
17.784555

>  <PEOE_VSA+2>
40.59901

>  <PEOE_VSA+3>
0

>  <PEOE_VSA+4>
0

>  <PEOE_VSA+5>
14.925592

>  <PEOE_VSA+6>
0

>  <PEOE_VSA-0>
0

>  <PEOE_VSA-1>
19.760618

>  <PEOE_VSA-2>
0

>  <PEOE_VSA-3>
0

>  <PEOE_VSA-4>
0

>  <PEOE_VSA-5>
13.566921

>  <PEOE_VSA-6>
0

>  <PEOE_VSA_FHYD>
0.85702211

>  <PEOE_VSA_FNEG>
0.16724049

>  <PEOE_VSA_FPNEG>
0.068079986

>  <PEOE_VSA_FPOL>
0.14297791

>  <PEOE_VSA_FPOS>
0.8327595

>  <PEOE_VSA_FPPOS>
0.074897923

>  <PEOE_VSA_HYD>
170.78662

>  <PEOE_VSA_NEG>
33.327538

>  <PEOE_VSA_PNEG>
13.566921

>  <PEOE_VSA_POL>
28.492514

>  <PEOE_VSA_POS>
165.95158

>  <PEOE_VSA_PPOS>
14.925592

>  <petitjean>
0.42857143

>  <petitjeanSC>
0.75

>  <Q_PC+>
0

>  <Q_PC->
0

>  <Q_RPC+>
0

>  <Q_RPC->
0

>  <Q_VSA_FHYD>
1

>  <Q_VSA_FNEG>
0

>  <Q_VSA_FPNEG>
0

>  <Q_VSA_FPOL>
0

>  <Q_VSA_FPOS>
1

>  <Q_VSA_FPPOS>
0

>  <Q_VSA_HYD>
199.27913

>  <Q_VSA_NEG>
0

>  <Q_VSA_PNEG>
0

>  <Q_VSA_POL>
0

>  <Q_VSA_POS>
199.27913

>  <Q_VSA_PPOS>
0

>  <radius>
4

>  <reactive>
0

>  <rings>
1

>  <RPC+>
0

>  <RPC->
0

>  <rsynth>
1

>  <SlogP>
2.7355001

>  <SlogP_VSA0>
0

>  <SlogP_VSA1>
6.7482567

>  <SlogP_VSA2>
0

>  <SlogP_VSA3>
54.11272

>  <SlogP_VSA4>
0

>  <SlogP_VSA5>
0

>  <SlogP_VSA6>
0

>  <SlogP_VSA7>
0

>  <SlogP_VSA8>
75.473625

>  <SlogP_VSA9>
89.407776

>  <SMR>
5.3569999

>  <SMR_VSA0>
23.862217

>  <SMR_VSA1>
3.1243138

>  <SMR_VSA2>
0

>  <SMR_VSA3>
0

>  <SMR_VSA4>
0

>  <SMR_VSA5>
75.473625

>  <SMR_VSA6>
57.736664

>  <SMR_VSA7>
65.545555

>  <TPSA>
20.309999

>  <VAdjEq>
0.65002245

>  <VAdjMa>
4.5849624

>  <VDistEq>
2.596791

>  <VDistMa>
6.8501053

>  <vdw_area>
199.27913

>  <vdw_vol>
211.16272

>  <vsa_acc>
13.566921

>  <vsa_acid>
0

>  <vsa_base>
0

>  <vsa_don>
0

>  <vsa_hyd>
170.78662

>  <vsa_other>
14.925592

>  <vsa_pol>
13.566921

>  <Weight>
187.30699

>  <weinerPath>
206

>  <weinerPol>
16

>  <zagreb>
52

$$$$
Clc1ccc(cc1)C(CCCC)(Cn2cncn2)C#N
  MOE2011           2D

 20 21  0  0  1  0  0  0  0  0999 V2000
    0.0000    0.0000    0.0000 Cl  0  0  0  0  0  0  0  0  0  0  0  0
   -1.5000   -0.0080    0.0000 C   0  0  0  0  0  0  0  0  0  0  0  0
   -2.2570    1.2870    0.0000 C   0  0  0  0  0  0  0  0  0  0  0  0
   -3.7570    1.2790    0.0000 C   0  0  0  0  0  0  0  0  0  0  0  0
   -4.5000   -0.0240    0.0000 C   0  0  0  0  0  0  0  0  0  0  0  0
   -3.7430   -1.3190    0.0000 C   0  0  0  0  0  0  0  0  0  0  0  0
   -2.2430   -1.3110    0.0000 C   0  0  0  0  0  0  0  0  0  0  0  0
   -6.0000   -0.0310    0.0000 C   0  0  3  0  0  0  0  0  0  0  0  0
   -7.5000   -0.0390    0.0000 C   0  0  0  0  0  0  0  0  0  0  0  0
   -8.2570    1.2560    0.0000 C   0  0  0  0  0  0  0  0  0  0  0  0
   -9.7570    1.2480    0.0000 C   0  0  0  0  0  0  0  0  0  0  0  0
  -10.5130    2.5430    0.0000 C   0  0  0  0  0  0  0  0  0  0  0  0
   -5.9920   -1.5310    0.0000 C   0  0  0  0  0  0  0  0  0  0  0  0
   -7.2870   -2.2880    0.0000 N   0  0  0  0  0  0  0  0  0  0  0  0
   -8.6610   -1.6850    0.0000 C   0  0  0  0  0  0  0  0  0  0  0  0
   -9.6590   -2.8050    0.0000 N   0  0  0  0  0  0  0  0  0  0  0  0
   -8.9020   -4.1000    0.0000 C   0  0  0  0  0  0  0  0  0  0  0  0
   -7.4360   -3.7810    0.0000 N   0  0  0  0  0  0  0  0  0  0  0  0
   -6.0080    1.4690    0.0000 C   0  0  0  0  0  0  0  0  0  0  0  0
   -6.0160    2.9690    0.0000 N   0  0  0  0  0  0  0  0  0  0  0  0
  1  2  1  0  0  0  0
  2  3  1  0  0  0  0
  2  7  2  0  0  0  0
  3  4  2  0  0  0  0
  4  5  1  0  0  0  0
  5  6  2  0  0  0  0
  5  8  1  0  0  0  0
  6  7  1  0  0  0  0
  8  9  1  0  0  0  0
  8 13  1  0  0  0  0
  8 19  1  0  0  0  0
  9 10  1  0  0  0  0
 10 11  1  0  0  0  0
 11 12  1  0  0  0  0
 13 14  1  0  0  0  0
 14 15  1  0  0  0  0
 14 18  1  0  0  0  0
 15 16  2  0  0  0  0
 16 17  1  0  0  0  0
 17 18  2  0  0  0  0
 19 20  3  0  0  0  0
M  END
>  <DSSTox_RID>
40535

>  <DSSTox_CID>
4315

>  <apol>
44.315479

>  <a_acc>
3

>  <a_acid>
0

>  <a_aro>
11

>  <a_base>
0

>  <a_count>
37

>  <a_don>
0

>  <a_heavy>
20

>  <a_hyd>
13

>  <a_IC>
56.659546

>  <a_ICM>
1.5313392

>  <a_nB>
0

>  <a_nBr>
0

>  <a_nC>
15

>  <a_nCl>
1

>  <a_nF>
0

>  <a_nH>
17

>  <a_nI>
0

>  <a_nN>
4

>  <a_nO>
0

>  <a_nP>
0

>  <a_nS>
0

>  <balabanJ>
2.041249

>  <BCUT_PEOE_0>
-2.65272

>  <BCUT_PEOE_1>
-0.56870168

>  <BCUT_PEOE_2>
0.55318147

>  <BCUT_PEOE_3>
2.6565237

>  <BCUT_SLOGP_0>
-2.5689516

>  <BCUT_SLOGP_1>
-0.43967807

>  <BCUT_SLOGP_2>
0.80591482

>  <BCUT_SLOGP_3>
2.7510059

>  <BCUT_SMR_0>
-2.4144635

>  <BCUT_SMR_1>
-0.24156493

>  <BCUT_SMR_2>
0.85431087

>  <BCUT_SMR_3>
2.8934009

>  <bpol>
22.96452

>  <b_1rotN>
6

>  <b_1rotR>
0.2857143

>  <b_ar>
11

>  <b_count>
38

>  <b_double>
0

>  <b_heavy>
21

>  <b_rotN>
7

>  <b_rotR>
0.33333334

>  <b_single>
26

>  <b_triple>
1

>  <chi0>
14.424439

>  <chi0v>
12.215277

>  <chi0v_C>
9.2925291

>  <chi0_C>
10.432875

>  <chi1>
9.698637

>  <chi1v>
7.0751576

>  <chi1v_C>
4.7355809

>  <chi1_C>
5.6894355

>  <chiral>
1

>  <chiral_u>
1

>  <density>
0.8045826

>  <diameter>
9

>  <FCharge>
0

>  <GCUT_PEOE_0>
-0.82421142

>  <GCUT_PEOE_1>
-0.38475031

>  <GCUT_PEOE_2>
0.0177217

>  <GCUT_PEOE_3>
2.6251824

>  <GCUT_SLOGP_0>
-0.89595377

>  <GCUT_SLOGP_1>
-0.29917157

>  <GCUT_SLOGP_2>
0.16445385

>  <GCUT_SLOGP_3>
2.722307

>  <GCUT_SMR_0>
-0.5299865

>  <GCUT_SMR_1>
-0.18009889

>  <GCUT_SMR_2>
0.19305076

>  <GCUT_SMR_3>
2.8751664

>  <Kier1>
16.371881

>  <Kier2>
7.8520408

>  <Kier3>
4.25

>  <KierA1>
12.687593

>  <KierA2>
5.9970288

>  <KierA3>
3.2114594

>  <KierFlex>
3.8043933

>  <lip_acc>
4

>  <lip_don>
0

>  <lip_druglike>
1

>  <lip_violation>
0

>  <logP(o/w)>
2.9170001

>  <logS>
-4.4404101

>  <mr>
8.208704

>  <mutagenic>
0

>  <nmol>
1

>  <opr_brigid>
11

>  <opr_leadlike>
1

>  <opr_nring>
2

>  <opr_nrot>
7

>  <opr_violation>
0

>  <PC+>
0

>  <PC->
0

>  <PEOE_PC+>
0.86481488

>  <PEOE_PC->
-0.86481488

>  <PEOE_RPC+>
0.25553226

>  <PEOE_RPC->
0.26446158

>  <PEOE_VSA+0>
108.45092

>  <PEOE_VSA+1>
24.819252

>  <PEOE_VSA+2>
20.299505

>  <PEOE_VSA+3>
24.790518

>  <PEOE_VSA+4>
24.790518

>  <PEOE_VSA+5>
0

>  <PEOE_VSA+6>
0

>  <PEOE_VSA-0>
33.825527

>  <PEOE_VSA-1>
29.581947

>  <PEOE_VSA-2>
9.4210396

>  <PEOE_VSA-3>
17.742489

>  <PEOE_VSA-4>
5.6825762

>  <PEOE_VSA-5>
0

>  <PEOE_VSA-6>
0

>  <PEOE_VSA_FHYD>
0.8982209

>  <PEOE_VSA_FNEG>
0.32148364

>  <PEOE_VSA_FPNEG>
0.018979607

>  <PEOE_VSA_FPOL>
0.10177908

>  <PEOE_VSA_FPOS>
0.67851639

>  <PEOE_VSA_FPPOS>
0.082799472

>  <PEOE_VSA_HYD>
268.93121

>  <PEOE_VSA_NEG>
96.253578

>  <PEOE_VSA_PNEG>
5.6825762

>  <PEOE_VSA_POL>
30.473093

>  <PEOE_VSA_POS>
203.15071

>  <PEOE_VSA_PPOS>
24.790518

>  <petitjean>
0.44444445

>  <petitjeanSC>
0.80000001

>  <Q_PC+>
0

>  <Q_PC->
0

>  <Q_RPC+>
0

>  <Q_RPC->
0

>  <Q_VSA_FHYD>
1

>  <Q_VSA_FNEG>
0

>  <Q_VSA_FPNEG>
0

>  <Q_VSA_FPOL>
0

>  <Q_VSA_FPOS>
1

>  <Q_VSA_FPPOS>
0

>  <Q_VSA_HYD>
299.4043

>  <Q_VSA_NEG>
0

>  <Q_VSA_PNEG>
0

>  <Q_VSA_POL>
0

>  <Q_VSA_POS>
299.4043

>  <Q_VSA_PPOS>
0

>  <radius>
5

>  <reactive>
0

>  <rings>
2

>  <RPC+>
0

>  <RPC->
0

>  <rsynth>
0.34999999

>  <SlogP>
3.849684

>  <SlogP_VSA0>
0

>  <SlogP_VSA1>
35.225109

>  <SlogP_VSA2>
0

>  <SlogP_VSA3>
47.661102

>  <SlogP_VSA4>
3.185575

>  <SlogP_VSA5>
0

>  <SlogP_VSA6>
3.5006065

>  <SlogP_VSA7>
104.1438

>  <SlogP_VSA8>
56.605217

>  <SlogP_VSA9>
90.914238

>  <SMR>
7.8495002

>  <SMR_VSA0>
0

>  <SMR_VSA1>
66.284462

>  <SMR_VSA2>
0

>  <SMR_VSA3>
23.287928

>  <SMR_VSA4>
0

>  <SMR_VSA5>
179.18858

>  <SMR_VSA6>
0

>  <SMR_VSA7>
72.474655

>  <TPSA>
54.5

>  <VAdjEq>
0.48464775

>  <VAdjMa>
5.3923173

>  <VDistEq>
2.9862852

>  <VDistMa>
8.3818932

>  <vdw_area>
299.4043

>  <vdw_vol>
337.6235

>  <vsa_acc>
32.846104

>  <vsa_acid>
0

>  <vsa_base>
0

>  <vsa_don>
0

>  <vsa_hyd>
196.67766

>  <vsa_other>
69.880539

>  <vsa_pol>
32.846104

>  <Weight>
288.78198

>  <weinerPath>
791

>  <weinerPol>
28

>  <zagreb>
98

$$$$
O=P(OC)(OC)OC(Br)C(Cl)(Cl)Br
  MOE2011           2D

 13 12  0  0  1  0  0  0  0  0999 V2000
    0.0000    0.0000    0.0000 O   0  0  0  0  0  0  0  0  0  0  0  0
   -0.7610   -1.2930    0.0000 P   0  0  0  0  0  0  0  0  0  0  0  0
   -1.5210   -2.5860    0.0000 O   0  0  0  0  0  0  0  0  0  0  0  0
   -3.0210   -2.5730    0.0000 C   0  0  0  0  0  0  0  0  0  0  0  0
   -2.0530   -0.5320    0.0000 O   0  0  0  0  0  0  0  0  0  0  0  0
   -2.0410    0.9680    0.0000 C   0  0  0  0  0  0  0  0  0  0  0  0
    0.5320   -2.0530    0.0000 O   0  0  0  0  0  0  0  0  0  0  0  0
    1.8370   -1.3140    0.0000 C   0  0  3  0  0  0  0  0  0  0  0  0
    1.8500    0.1860    0.0000 Br  0  0  0  0  0  0  0  0  0  0  0  0
    3.1300   -2.0750    0.0000 C   0  0  0  0  0  0  0  0  0  0  0  0
    2.3690   -3.3680    0.0000 Cl  0  0  0  0  0  0  0  0  0  0  0  0
    3.8910   -0.7820    0.0000 Cl  0  0  0  0  0  0  0  0  0  0  0  0
    4.4230   -2.8360    0.0000 Br  0  0  0  0  0  0  0  0  0  0  0  0
  1  2  2  0  0  0  0
  2  3  1  0  0  0  0
  2  5  1  0  0  0  0
  2  7  1  0  0  0  0
  3  4  1  0  0  0  0
  5  6  1  0  0  0  0
  7  8  1  0  0  0  0
  8  9  1  0  0  0  0
  8 10  1  0  0  0  0
 10 11  1  0  0  0  0
 10 12  1  0  0  0  0
 10 13  1  0  0  0  0
M  END
>  <DSSTox_RID>
40537

>  <DSSTox_CID>
4209

>  <apol>
29.00555

>  <a_acc>
4

>  <a_acid>
0

>  <a_aro>
0

>  <a_base>
0

>  <a_count>
20

>  <a_don>
0

>  <a_heavy>
13

>  <a_hyd>
6

>  <a_IC>
46.787079

>  <a_ICM>
2.3393538

>  <a_nB>
0

>  <a_nBr>
2

>  <a_nC>
4

>  <a_nCl>
2

>  <a_nF>
0

>  <a_nH>
7

>  <a_nI>
0

>  <a_nN>
0

>  <a_nO>
4

>  <a_nP>
1

>  <a_nS>
0

>  <balabanJ>
4.253809

>  <BCUT_PEOE_0>
-2.407021

>  <BCUT_PEOE_1>
-0.16503219

>  <BCUT_PEOE_2>
0.042671893

>  <BCUT_PEOE_3>
2.5240593

>  <BCUT_SLOGP_0>
-2.4201133

>  <BCUT_SLOGP_1>
-0.010375473

>  <BCUT_SLOGP_2>
0.6320588

>  <BCUT_SLOGP_3>
2.6362371

>  <BCUT_SMR_0>
-2.1445587

>  <BCUT_SMR_1>
0.1057

>  <BCUT_SMR_2>
0.58512759

>  <BCUT_SMR_3>
2.8041489

>  <bpol>
25.25845

>  <b_1rotN>
5

>  <b_1rotR>
0.41666666

>  <b_ar>
0

>  <b_count>
19

>  <b_double>
0

>  <b_heavy>
12

>  <b_rotN>
5

>  <b_rotR>
0.41666666

>  <b_single>
19

>  <b_triple>
0

>  <chi0>
10.69867

>  <chi0v>
12.247693

>  <chi0v_C>
3.0773504

>  <chi0_C>
3.0773504

>  <chi1>
5.7491474

>  <chi1v>
6.7815313

>  <chi1v_C>
0.28867513

>  <chi1_C>
0.28867513

>  <chiral>
1

>  <chiral_u>
1

>  <density>
1.5053051

>  <diameter>
6

>  <FCharge>
0

>  <GCUT_PEOE_0>
-0.72286701

>  <GCUT_PEOE_1>
-0.35319433

>  <GCUT_PEOE_2>
-0.11732811

>  <GCUT_PEOE_3>
2.0533712

>  <GCUT_SLOGP_0>
-1.2931024

>  <GCUT_SLOGP_1>
-0.24960843

>  <GCUT_SLOGP_2>
0.43457872

>  <GCUT_SLOGP_3>
2.2061188

>  <GCUT_SMR_0>
-0.48716274

>  <GCUT_SMR_1>
-0.12163161

>  <GCUT_SMR_2>
0.39391193

>  <GCUT_SMR_3>
2.3542819

>  <Kier1>
13

>  <Kier2>
4.4814816

>  <Kier3>
4.1522493

>  <KierA1>
25.072067

>  <KierA2>
9.1020622

>  <KierA3>
8.8001022

>  <KierFlex>
17.554424

>  <lip_acc>
4

>  <lip_don>
0

>  <lip_druglike>
1

>  <lip_violation>
0

>  <logP(o/w)>
2.2670801

>  <logS>
-3.57621

>  <mr>
6.0039573

>  <mutagenic>
1

>  <nmol>
1

>  <opr_brigid>
0

>  <opr_leadlike>
1

>  <opr_nring>
0

>  <opr_nrot>
5

>  <opr_violation>
0

>  <PC+>
0

>  <PC->
0

>  <PEOE_PC+>
1.1399608

>  <PEOE_PC->
-1.1399608

>  <PEOE_RPC+>
0.36797017

>  <PEOE_RPC->
0.22019465

>  <PEOE_VSA+0>
0

>  <PEOE_VSA+1>
0

>  <PEOE_VSA+2>
0

>  <PEOE_VSA+3>
71.316856

>  <PEOE_VSA+4>
8.5021877

>  <PEOE_VSA+5>
0

>  <PEOE_VSA+6>
18.713068

>  <PEOE_VSA-0>
43.624847

>  <PEOE_VSA-1>
102.78874

>  <PEOE_VSA-2>
15.729136

>  <PEOE_VSA-3>
0

>  <PEOE_VSA-4>
4.6659718

>  <PEOE_VSA-5>
9.3319435

>  <PEOE_VSA-6>
0

>  <PEOE_VSA_FHYD>
0.84995538

>  <PEOE_VSA_FNEG>
0.64127451

>  <PEOE_VSA_FPNEG>
0.050962154

>  <PEOE_VSA_FPOL>
0.15004463

>  <PEOE_VSA_FPOS>
0.35872546

>  <PEOE_VSA_FPPOS>
0.09908247

>  <PEOE_VSA_HYD>
233.45959

>  <PEOE_VSA_NEG>
176.14064

>  <PEOE_VSA_PNEG>
13.997915

>  <PEOE_VSA_POL>
41.213173

>  <PEOE_VSA_POS>
98.532112

>  <PEOE_VSA_PPOS>
27.215256

>  <petitjean>
0.5

>  <petitjeanSC>
1

>  <Q_PC+>
0

>  <Q_PC->
0

>  <Q_RPC+>
0

>  <Q_RPC->
0

>  <Q_VSA_FHYD>
1

>  <Q_VSA_FNEG>
0

>  <Q_VSA_FPNEG>
0

>  <Q_VSA_FPOL>
0

>  <Q_VSA_FPOS>
1

>  <Q_VSA_FPPOS>
0

>  <Q_VSA_HYD>
274.67276

>  <Q_VSA_NEG>
0

>  <Q_VSA_PNEG>
0

>  <Q_VSA_POL>
0

>  <Q_VSA_POS>
274.67276

>  <Q_VSA_PPOS>
0

>  <radius>
3

>  <reactive>
0

>  <rings>
0

>  <RPC+>
0

>  <RPC->
0

>  <rsynth>
1

>  <SlogP>
2.5810001

>  <SlogP_VSA0>
22.433765

>  <SlogP_VSA1>
0

>  <SlogP_VSA2>
27.103069

>  <SlogP_VSA3>
0

>  <SlogP_VSA4>
0

>  <SlogP_VSA5>
70.767738

>  <SlogP_VSA6>
0

>  <SlogP_VSA7>
0

>  <SlogP_VSA8>
0

>  <SlogP_VSA9>
186.90031

>  <SMR>
5.8102002

>  <SMR_VSA0>
43.198654

>  <SMR_VSA1>
0

>  <SMR_VSA2>
0

>  <SMR_VSA3>
6.3381786

>  <SMR_VSA4>
0

>  <SMR_VSA5>
0

>  <SMR_VSA6>
0

>  <SMR_VSA7>
257.66806

>  <TPSA>
44.759998

>  <VAdjEq>
0.5894835

>  <VAdjMa>
4.5849624

>  <VDistEq>
2.5136058

>  <VDistMa>
7.1121922

>  <vdw_area>
274.67276

>  <vdw_vol>
248.27393

>  <vsa_acc>
29.727053

>  <vsa_acid>
0

>  <vsa_base>
0

>  <vsa_don>
0

>  <vsa_hyd>
217.73045

>  <vsa_other>
27.215256

>  <vsa_pol>
29.727053

>  <Weight>
380.784

>  <weinerPath>
248

>  <weinerPol>
17

>  <zagreb>
60

$$$$
CCN(CC)C(=O)C(C)Oc2cccc1ccccc12
  MOE2011           2D

 20 21  0  0  1  0  0  0  0  0999 V2000
    0.0000    0.0000    0.0000 C   0  0  0  0  0  0  0  0  0  0  0  0
   -1.5000   -0.0110    0.0000 C   0  0  0  0  0  0  0  0  0  0  0  0
   -2.2590    1.2830    0.0000 N   0  0  0  0  0  0  0  0  0  0  0  0
   -1.5190    2.5870    0.0000 C   0  0  0  0  0  0  0  0  0  0  0  0
   -0.0190    2.5980    0.0000 C   0  0  0  0  0  0  0  0  0  0  0  0
   -3.7590    1.2720    0.0000 C   0  0  0  0  0  0  0  0  0  0  0  0
   -4.5180    2.5660    0.0000 O   0  0  0  0  0  0  0  0  0  0  0  0
   -4.5000   -0.0320    0.0000 C   0  0  3  0  0  0  0  0  0  0  0  0
   -3.7410   -1.3260    0.0000 C   0  0  0  0  0  0  0  0  0  0  0  0
   -6.0000   -0.0430    0.0000 O   0  0  0  0  0  0  0  0  0  0  0  0
   -6.7410   -1.3470    0.0000 C   0  0  0  0  0  0  0  0  0  0  0  0
   -5.9810   -2.6410    0.0000 C   0  0  0  0  0  0  0  0  0  0  0  0
   -6.7220   -3.9450    0.0000 C   0  0  0  0  0  0  0  0  0  0  0  0
   -8.2220   -3.9560    0.0000 C   0  0  0  0  0  0  0  0  0  0  0  0
   -8.9810   -2.6620    0.0000 C   0  0  0  0  0  0  0  0  0  0  0  0
  -10.4810   -2.6730    0.0000 C   0  0  0  0  0  0  0  0  0  0  0  0
  -11.2400   -1.3790    0.0000 C   0  0  0  0  0  0  0  0  0  0  0  0
  -10.5000   -0.0750    0.0000 C   0  0  0  0  0  0  0  0  0  0  0  0
   -9.0000   -0.0640    0.0000 C   0  0  0  0  0  0  0  0  0  0  0  0
   -8.2410   -1.3580    0.0000 C   0  0  0  0  0  0  0  0  0  0  0  0
  1  2  1  0  0  0  0
  2  3  1  0  0  0  0
  3  4  1  0  0  0  0
  3  6  1  0  0  0  0
  4  5  1  0  0  0  0
  6  7  2  0  0  0  0
  6  8  1  0  0  0  0
  8  9  1  0  0  0  0
  8 10  1  0  0  0  0
 10 11  1  0  0  0  0
 11 12  1  0  0  0  0
 11 20  2  0  0  0  0
 12 13  2  0  0  0  0
 13 14  1  0  0  0  0
 14 15  2  0  0  0  0
 15 16  1  0  0  0  0
 15 20  1  0  0  0  0
 16 17  2  0  0  0  0
 17 18  1  0  0  0  0
 18 19  2  0  0  0  0
 19 20  1  0  0  0  0
M  END
>  <DSSTox_RID>
40538

>  <DSSTox_CID>
4211

>  <apol>
46.626652

>  <a_acc>
2

>  <a_acid>
0

>  <a_aro>
10

>  <a_base>
0

>  <a_count>
41

>  <a_don>
0

>  <a_heavy>
20

>  <a_hyd>
16

>  <a_IC>
55.934097

>  <a_ICM>
1.3642462

>  <a_nB>
0

>  <a_nBr>
0

>  <a_nC>
17

>  <a_nCl>
0

>  <a_nF>
0

>  <a_nH>
21

>  <a_nI>
0

>  <a_nN>
1

>  <a_nO>
2

>  <a_nP>
0

>  <a_nS>
0

>  <balabanJ>
1.9083272

>  <BCUT_PEOE_0>
-2.6109326

>  <BCUT_PEOE_1>
-0.51381844

>  <BCUT_PEOE_2>
0.57797724

>  <BCUT_PEOE_3>
2.5635424

>  <BCUT_SLOGP_0>
-2.7066355

>  <BCUT_SLOGP_1>
-0.41900513

>  <BCUT_SLOGP_2>
0.63596028

>  <BCUT_SLOGP_3>
2.5040112

>  <BCUT_SMR_0>
-2.3375876

>  <BCUT_SMR_1>
-0.37893513

>  <BCUT_SMR_2>
0.71955526

>  <BCUT_SMR_3>
2.8212121

>  <bpol>
27.811346

>  <b_1rotN>
6

>  <b_1rotR>
0.2857143

>  <b_ar>
11

>  <b_count>
42

>  <b_double>
1

>  <b_heavy>
21

>  <b_rotN>
6

>  <b_rotR>
0.2857143

>  <b_single>
30

>  <b_triple>
0

>  <chi0>
14.53517

>  <chi0v>
12.296726

>  <chi0v_C>
11.033015

>  <chi0_C>
12.250712

>  <chi1>
9.6682339

>  <chi1v>
7.1016192

>  <chi1v_C>
5.6016064

>  <chi1_C>
7.124557

>  <chiral>
1

>  <chiral_u>
1

>  <density>
0.73658103

>  <diameter>
10

>  <FCharge>
0

>  <GCUT_PEOE_0>
-0.85266787

>  <GCUT_PEOE_1>
-0.35798326

>  <GCUT_PEOE_2>
0.050381318

>  <GCUT_PEOE_3>
2.542486

>  <GCUT_SLOGP_0>
-0.97524512

>  <GCUT_SLOGP_1>
-0.30154794

>  <GCUT_SLOGP_2>
0.10808354

>  <GCUT_SLOGP_3>
2.6289587

>  <GCUT_SMR_0>
-0.51990479

>  <GCUT_SMR_1>
-0.18096493

>  <GCUT_SMR_2>
0.15718059

>  <GCUT_SMR_3>
2.8157945

>  <Kier1>
16.371881

>  <Kier2>
7.8520408

>  <Kier3>
4.0233746

>  <KierA1>
12.272093

>  <KierA2>
5.7890363

>  <KierA3>
2.9304445

>  <KierFlex>
3.5521793

>  <lip_acc>
3

>  <lip_don>
0

>  <lip_druglike>
1

>  <lip_violation>
0

>  <logP(o/w)>
3.55

>  <logS>
-4.3613501

>  <mr>
8.2090626

>  <mutagenic>
0

>  <nmol>
1

>  <opr_brigid>
11

>  <opr_leadlike>
1

>  <opr_nring>
2

>  <opr_nrot>
5

>  <opr_violation>
0

>  <PC+>
0

>  <PC->
0

>  <PEOE_PC+>
0.91094273

>  <PEOE_PC->
-0.91094273

>  <PEOE_RPC+>
0.28681493

>  <PEOE_RPC->
0.35507241

>  <PEOE_VSA+0>
203.3019

>  <PEOE_VSA+1>
8.458519

>  <PEOE_VSA+2>
40.59901

>  <PEOE_VSA+3>
8.458519

>  <PEOE_VSA+4>
0

>  <PEOE_VSA+5>
12.949531

>  <PEOE_VSA+6>
0

>  <PEOE_VSA-0>
0

>  <PEOE_VSA-1>
0

>  <PEOE_VSA-2>
0

>  <PEOE_VSA-3>
0

>  <PEOE_VSA-4>
0

>  <PEOE_VSA-5>
13.566921

>  <PEOE_VSA-6>
2.503756

>  <PEOE_VSA_FHYD>
0.89987445

>  <PEOE_VSA_FNEG>
0.055447072

>  <PEOE_VSA_FPNEG>
0.055447072

>  <PEOE_VSA_FPOL>
0.10012557

>  <PEOE_VSA_FPOS>
0.9445529

>  <PEOE_VSA_FPPOS>
0.044678491

>  <PEOE_VSA_HYD>
260.81793

>  <PEOE_VSA_NEG>
16.070677

>  <PEOE_VSA_PNEG>
16.070677

>  <PEOE_VSA_POL>
29.020208

>  <PEOE_VSA_POS>
273.76749

>  <PEOE_VSA_PPOS>
12.949531

>  <petitjean>
0.5

>  <petitjeanSC>
1

>  <Q_PC+>
0

>  <Q_PC->
0

>  <Q_RPC+>
0

>  <Q_RPC->
0

>  <Q_VSA_FHYD>
1

>  <Q_VSA_FNEG>
0

>  <Q_VSA_FPNEG>
0

>  <Q_VSA_FPOL>
0

>  <Q_VSA_FPOS>
1

>  <Q_VSA_FPPOS>
0

>  <Q_VSA_HYD>
289.83813

>  <Q_VSA_NEG>
0

>  <Q_VSA_PNEG>
0

>  <Q_VSA_POL>
0

>  <Q_VSA_POS>
289.83813

>  <Q_VSA_PPOS>
0

>  <radius>
5

>  <reactive>
0

>  <rings>
2

>  <RPC+>
0

>  <RPC->
0

>  <rsynth>
1

>  <SlogP>
3.4755001

>  <SlogP_VSA0>
10.999887

>  <SlogP_VSA1>
8.3830976

>  <SlogP_VSA2>
30.330866

>  <SlogP_VSA3>
36.879158

>  <SlogP_VSA4>
0

>  <SlogP_VSA5>
0

>  <SlogP_VSA6>
0

>  <SlogP_VSA7>
128.64822

>  <SlogP_VSA8>
0

>  <SlogP_VSA9>
105.22147

>  <SMR>
8.1966

>  <SMR_VSA0>
23.862217

>  <SMR_VSA1>
14.124202

>  <SMR_VSA2>
0

>  <SMR_VSA3>
11.712077

>  <SMR_VSA4>
5.1459289

>  <SMR_VSA5>
123.50229

>  <SMR_VSA6>
42.137939

>  <SMR_VSA7>
99.978043

>  <TPSA>
29.540001

>  <VAdjEq>
0.48464775

>  <VAdjMa>
5.3923173

>  <VDistEq>
3.1383483

>  <VDistMa>
8.3520031

>  <vdw_area>
289.83813

>  <vdw_vol>
339.66663

>  <vsa_acc>
16.070677

>  <vsa_acid>
0

>  <vsa_base>
0

>  <vsa_don>
0

>  <vsa_hyd>
260.81793

>  <vsa_other>
12.949531

>  <vsa_pol>
16.070677

>  <Weight>
271.35999

>  <weinerPath>
832

>  <weinerPol>
31

>  <zagreb>
98

$$$$
O=C(NC2=CC=C([N+]([O-])=O)C=C2Cl)C1=C(O)C=CC(Cl)=C1
  MOE2011           2D

 21 22  0  0  0  0  0  0  0  0999 V2000
    0.0000    0.0000    0.0000 O   0  0  0  0  0  0  0  0  0  0  0  0
   -0.0070   -1.5000    0.0000 C   0  0  0  0  0  0  0  0  0  0  0  0
    1.2880   -2.2560    0.0000 N   0  0  0  0  0  0  0  0  0  0  0  0
    2.5910   -1.5130    0.0000 C   0  0  0  0  0  0  0  0  0  0  0  0
    2.5980   -0.0130    0.0000 C   0  0  0  0  0  0  0  0  0  0  0  0
    3.9010    0.7310    0.0000 C   0  0  0  0  0  0  0  0  0  0  0  0
    5.1960   -0.0250    0.0000 C   0  0  0  0  0  0  0  0  0  0  0  0
    6.4990    0.7190    0.0000 N   0  3  0  0  0  0  0  0  0  0  0  0
    6.5060    2.2190    0.0000 O   0  5  0  0  0  0  0  0  0  0  0  0
    7.7940   -0.0380    0.0000 O   0  0  0  0  0  0  0  0  0  0  0  0
    5.1890   -1.5250    0.0000 C   0  0  0  0  0  0  0  0  0  0  0  0
    3.8860   -2.2690    0.0000 C   0  0  0  0  0  0  0  0  0  0  0  0
    3.8790   -3.7690    0.0000 Cl  0  0  0  0  0  0  0  0  0  0  0  0
   -1.3100   -2.2440    0.0000 C   0  0  0  0  0  0  0  0  0  0  0  0
   -2.6050   -1.4870    0.0000 C   0  0  0  0  0  0  0  0  0  0  0  0
   -2.5980    0.0130    0.0000 O   0  0  0  0  0  0  0  0  0  0  0  0
   -3.9080   -2.2310    0.0000 C   0  0  0  0  0  0  0  0  0  0  0  0
   -3.9150   -3.7310    0.0000 C   0  0  0  0  0  0  0  0  0  0  0  0
   -2.6200   -4.4870    0.0000 C   0  0  0  0  0  0  0  0  0  0  0  0
   -2.6270   -5.9870    0.0000 Cl  0  0  0  0  0  0  0  0  0  0  0  0
   -1.3170   -3.7440    0.0000 C   0  0  0  0  0  0  0  0  0  0  0  0
  1  2  2  0  0  0  0
  2  3  1  0  0  0  0
  2 14  1  0  0  0  0
  3  4  1  0  0  0  0
  4  5  1  0  0  0  0
  4 12  2  0  0  0  0
  5  6  2  0  0  0  0
  6  7  1  0  0  0  0
  7  8  1  0  0  0  0
  7 11  2  0  0  0  0
  8  9  1  0  0  0  0
  8 10  2  0  0  0  0
 11 12  1  0  0  0  0
 12 13  1  0  0  0  0
 14 15  1  0  0  0  0
 14 21  2  0  0  0  0
 15 16  1  0  0  0  0
 15 17  2  0  0  0  0
 17 18  1  0  0  0  0
 18 19  2  0  0  0  0
 19 20  1  0  0  0  0
 19 21  1  0  0  0  0
M  CHG  1   8   1
M  CHG  1   9  -1
M  END
>  <DSSTox_RID>
40539

>  <DSSTox_CID>
20362

>  <apol>
37.982346

>  <a_acc>
2

>  <a_acid>
0

>  <a_aro>
12

>  <a_base>
0

>  <a_count>
29

>  <a_don>
2

>  <a_heavy>
21

>  <a_hyd>
15

>  <a_IC>
56.775734

>  <a_ICM>
1.9577839

>  <a_nB>
0

>  <a_nBr>
0

>  <a_nC>
13

>  <a_nCl>
2

>  <a_nF>
0

>  <a_nH>
8

>  <a_nI>
0

>  <a_nN>
2

>  <a_nO>
4

>  <a_nP>
0

>  <a_nS>
0

>  <balabanJ>
1.8696266

>  <BCUT_PEOE_0>
-2.2573647

>  <BCUT_PEOE_1>
-0.65917104

>  <BCUT_PEOE_2>
0.69934487

>  <BCUT_PEOE_3>
2.2843745

>  <BCUT_SLOGP_0>
-2.2868323

>  <BCUT_SLOGP_1>
-0.53390998

>  <BCUT_SLOGP_2>
0.87430835

>  <BCUT_SLOGP_3>
2.416044

>  <BCUT_SMR_0>
-1.9246006

>  <BCUT_SMR_1>
-0.44916537

>  <BCUT_SMR_2>
0.93148607

>  <BCUT_SMR_3>
2.6032743

>  <bpol>
12.459656

>  <b_1rotN>
3

>  <b_1rotR>
0.13636364

>  <b_ar>
12

>  <b_count>
30

>  <b_double>
2

>  <b_heavy>
22

>  <b_rotN>
4

>  <b_rotR>
0.18181819

>  <b_single>
16

>  <b_triple>
0

>  <chi0>
15.568549

>  <chi0v>
11.851061

>  <chi0v_C>
6.9641018

>  <chi0_C>
8.2840929

>  <chi1>
9.8799181

>  <chi1v>
6.3764472

>  <chi1v_C>
3.7260678

>  <chi1_C>
5.2659864

>  <chiral>
0

>  <chiral_u>
0

>  <density>
0.98446727

>  <diameter>
11

>  <FCharge>
0

>  <GCUT_PEOE_0>
-0.80333543

>  <GCUT_PEOE_1>
-0.46357903

>  <GCUT_PEOE_2>
0.10671967

>  <GCUT_PEOE_3>
2.2974377

>  <GCUT_SLOGP_0>
-0.99310988

>  <GCUT_SLOGP_1>
-0.27131885

>  <GCUT_SLOGP_2>
0.27122629

>  <GCUT_SLOGP_3>
2.4408159

>  <GCUT_SMR_0>
-0.49107206

>  <GCUT_SMR_1>
-0.20519173

>  <GCUT_SMR_2>
0.35487592

>  <GCUT_SMR_3>
2.5956316

>  <Kier1>
17.355371

>  <Kier2>
7.5130072

>  <Kier3>
4.4875345

>  <KierA1>
13.880994

>  <KierA2>
5.9370985

>  <KierA3>
3.5135615

>  <KierFlex>
3.9244201

>  <lip_acc>
6

>  <lip_don>
2

>  <lip_druglike>
1

>  <lip_violation>
0

>  <logP(o/w)>
3.74

>  <logS>
-5.25173

>  <mr>
7.7355118

>  <mutagenic>
1

>  <nmol>
1

>  <opr_brigid>
12

>  <opr_leadlike>
1

>  <opr_nring>
2

>  <opr_nrot>
3

>  <opr_violation>
0

>  <PC+>
0

>  <PC->
0

>  <PEOE_PC+>
1.3411665

>  <PEOE_PC->
-1.3411665

>  <PEOE_RPC+>
0.21547039

>  <PEOE_RPC->
0.19768238

>  <PEOE_VSA+0>
63.233978

>  <PEOE_VSA+1>
53.592606

>  <PEOE_VSA+2>
8.458519

>  <PEOE_VSA+3>
0

>  <PEOE_VSA+4>
0

>  <PEOE_VSA+5>
19.649082

>  <PEOE_VSA+6>
0

>  <PEOE_VSA-0>
0

>  <PEOE_VSA-1>
59.163895

>  <PEOE_VSA-2>
0

>  <PEOE_VSA-3>
13.566921

>  <PEOE_VSA-4>
5.6825762

>  <PEOE_VSA-5>
47.497971

>  <PEOE_VSA-6>
0

>  <PEOE_VSA_FHYD>
0.73110271

>  <PEOE_VSA_FNEG>
0.46488252

>  <PEOE_VSA_FPNEG>
0.19635008

>  <PEOE_VSA_FPOL>
0.26889727

>  <PEOE_VSA_FPOS>
0.53511751

>  <PEOE_VSA_FPPOS>
0.072547182

>  <PEOE_VSA_HYD>
198.01591

>  <PEOE_VSA_NEG>
125.91136

>  <PEOE_VSA_PNEG>
53.180546

>  <PEOE_VSA_POL>
72.829628

>  <PEOE_VSA_POS>
144.93419

>  <PEOE_VSA_PPOS>
19.649082

>  <petitjean>
0.45454547

>  <petitjeanSC>
0.83333331

>  <Q_PC+>
0

>  <Q_PC->
0

>  <Q_RPC+>
0

>  <Q_RPC->
0

>  <Q_VSA_FHYD>
1

>  <Q_VSA_FNEG>
0

>  <Q_VSA_FPNEG>
0

>  <Q_VSA_FPOL>
0

>  <Q_VSA_FPOS>
1

>  <Q_VSA_FPPOS>
0

>  <Q_VSA_HYD>
270.84555

>  <Q_VSA_NEG>
0

>  <Q_VSA_PNEG>
0

>  <Q_VSA_POL>
0

>  <Q_VSA_POS>
270.84555

>  <Q_VSA_PPOS>
0

>  <radius>
6

>  <reactive>
0

>  <rings>
2

>  <RPC+>
0

>  <RPC->
0

>  <rsynth>
1

>  <SlogP>
3.8594999

>  <SlogP_VSA0>
25.385227

>  <SlogP_VSA1>
30.35515

>  <SlogP_VSA2>
0

>  <SlogP_VSA3>
50.935009

>  <SlogP_VSA4>
27.047791

>  <SlogP_VSA5>
0

>  <SlogP_VSA6>
7.0012131

>  <SlogP_VSA7>
105.85911

>  <SlogP_VSA8>
0

>  <SlogP_VSA9>
89.054214

>  <SMR>
7.9176402

>  <SMR_VSA0>
30.947832

>  <SMR_VSA1>
25.385227

>  <SMR_VSA2>
50.935009

>  <SMR_VSA3>
15.430216

>  <SMR_VSA4>
23.524246

>  <SMR_VSA5>
105.85911

>  <SMR_VSA6>
5.2587838

>  <SMR_VSA7>
78.297287

>  <TPSA>
95.150002

>  <VAdjEq>
0.46827638

>  <VAdjMa>
5.4594316

>  <VDistEq>
3.2825189

>  <VDistMa>
8.4758368

>  <vdw_area>
270.84555

>  <vdw_vol>
324.09305

>  <vsa_acc>
13.566921

>  <vsa_acid>
0

>  <vsa_base>
0

>  <vsa_don>
5.6825762

>  <vsa_hyd>
191.14854

>  <vsa_other>
46.880581

>  <vsa_pol>
32.816418

>  <Weight>
327.12299

>  <weinerPath>
980

>  <weinerPol>
32

>  <zagreb>
106

$$$$
ClC(Cl)(C1=NC(Cl)=CC=C1)Cl
  MOE2011           2D

 11 11  0  0  0  0  0  0  0  0999 V2000
    0.0000    0.0000    0.0000 Cl  0  0  0  0  0  0  0  0  0  0  0  0
   -1.5000    0.0050    0.0000 C   0  0  0  0  0  0  0  0  0  0  0  0
   -1.4950    1.5050    0.0000 Cl  0  0  0  0  0  0  0  0  0  0  0  0
   -3.0000    0.0110    0.0000 C   0  0  0  0  0  0  0  0  0  0  0  0
   -3.7450    1.3130    0.0000 N   0  0  0  0  0  0  0  0  0  0  0  0
   -5.2450    1.3180    0.0000 C   0  0  0  0  0  0  0  0  0  0  0  0
   -5.9900    2.6200    0.0000 Cl  0  0  0  0  0  0  0  0  0  0  0  0
   -6.0000    0.0220    0.0000 C   0  0  0  0  0  0  0  0  0  0  0  0
   -5.2550   -1.2800    0.0000 C   0  0  0  0  0  0  0  0  0  0  0  0
   -3.7550   -1.2850    0.0000 C   0  0  0  0  0  0  0  0  0  0  0  0
   -1.5050   -1.4950    0.0000 Cl  0  0  0  0  0  0  0  0  0  0  0  0
  1  2  1  0  0  0  0
  2  3  1  0  0  0  0
  2  4  1  0  0  0  0
  2 11  1  0  0  0  0
  4  5  1  0  0  0  0
  4 10  2  0  0  0  0
  5  6  2  0  0  0  0
  6  7  1  0  0  0  0
  6  8  1  0  0  0  0
  8  9  2  0  0  0  0
  9 10  1  0  0  0  0
M  END
>  <DSSTox_RID>
40313

>  <DSSTox_CID>
4216

>  <apol>
22.380379

>  <a_acc>
1

>  <a_acid>
0

>  <a_aro>
6

>  <a_base>
0

>  <a_count>
14

>  <a_don>
0

>  <a_heavy>
11

>  <a_hyd>
8

>  <a_IC>
25.038307

>  <a_ICM>
1.7884505

>  <a_nB>
0

>  <a_nBr>
0

>  <a_nC>
6

>  <a_nCl>
4

>  <a_nF>
0

>  <a_nH>
3

>  <a_nI>
0

>  <a_nN>
1

>  <a_nO>
0

>  <a_nP>
0

>  <a_nS>
0

>  <balabanJ>
2.4958949

>  <BCUT_PEOE_0>
-2.1673136

>  <BCUT_PEOE_1>
-0.5010702

>  <BCUT_PEOE_2>
0.52171934

>  <BCUT_PEOE_3>
2.2755237

>  <BCUT_SLOGP_0>
-2.0202351

>  <BCUT_SLOGP_1>
-0.33865586

>  <BCUT_SLOGP_2>
0.74576658

>  <BCUT_SLOGP_3>
2.5027204

>  <BCUT_SMR_0>
-1.8703645

>  <BCUT_SMR_1>
-0.27472034

>  <BCUT_SMR_2>
0.77138138

>  <BCUT_SMR_3>
2.5682666

>  <bpol>
6.2796211

>  <b_1rotN>
0

>  <b_1rotR>
0

>  <b_ar>
6

>  <b_count>
14

>  <b_double>
0

>  <b_heavy>
11

>  <b_rotN>
1

>  <b_rotR>
0.090909094

>  <b_single>
8

>  <b_triple>
0

>  <chi0>
8.4831276

>  <chi0v>
8.214838

>  <chi0v_C>
3.2320509

>  <chi0_C>
3.7760208

>  <chi1>
4.9990187

>  <chi1v>
4.2090173

>  <chi1v_C>
1.4940169

>  <chi1_C>
2.1051717

>  <chiral>
0

>  <chiral_u>
0

>  <density>
1.1440312

>  <diameter>
5

>  <FCharge>
0

>  <GCUT_PEOE_0>
-0.71862727

>  <GCUT_PEOE_1>
-0.35309261

>  <GCUT_PEOE_2>
0.012389712

>  <GCUT_PEOE_3>
1.9195569

>  <GCUT_SLOGP_0>
-0.71473807

>  <GCUT_SLOGP_1>
-0.18392235

>  <GCUT_SLOGP_2>
0.51784277

>  <GCUT_SLOGP_3>
2.1359401

>  <GCUT_SMR_0>
-0.39976716

>  <GCUT_SMR_1>
-0.12807153

>  <GCUT_SMR_2>
0.4253

>  <GCUT_SMR_3>
2.2426586

>  <Kier1>
9.090909

>  <Kier2>
3.1640625

>  <Kier3>
2.5

>  <KierA1>
12.011233

>  <KierA2>
4.3012881

>  <KierA3>
3.4843166

>  <KierFlex>
4.6967072

>  <lip_acc>
1

>  <lip_don>
0

>  <lip_druglike>
1

>  <lip_violation>
0

>  <logP(o/w)>
3.3120799

>  <logS>
-3.7065301

>  <mr>
4.8122225

>  <mutagenic>
1

>  <nmol>
1

>  <opr_brigid>
6

>  <opr_leadlike>
1

>  <opr_nring>
1

>  <opr_nrot>
0

>  <opr_violation>
0

>  <PC+>
0

>  <PC->
0

>  <PEOE_PC+>
0.52580279

>  <PEOE_PC->
-0.52580279

>  <PEOE_RPC+>
0.44316727

>  <PEOE_RPC->
0.446293

>  <PEOE_VSA+0>
47.425484

>  <PEOE_VSA+1>
0

>  <PEOE_VSA+2>
15.710309

>  <PEOE_VSA+3>
0

>  <PEOE_VSA+4>
0

>  <PEOE_VSA+5>
0

>  <PEOE_VSA+6>
0

>  <PEOE_VSA-0>
0

>  <PEOE_VSA-1>
118.32779

>  <PEOE_VSA-2>
0

>  <PEOE_VSA-3>
0

>  <PEOE_VSA-4>
5.6825762

>  <PEOE_VSA-5>
0

>  <PEOE_VSA-6>
0

>  <PEOE_VSA_FHYD>
0.96963561

>  <PEOE_VSA_FNEG>
0.66263914

>  <PEOE_VSA_FPNEG>
0.030364376

>  <PEOE_VSA_FPOL>
0.030364376

>  <PEOE_VSA_FPOS>
0.33736089

>  <PEOE_VSA_FPPOS>
0

>  <PEOE_VSA_HYD>
181.46358

>  <PEOE_VSA_NEG>
124.01036

>  <PEOE_VSA_PNEG>
5.6825762

>  <PEOE_VSA_POL>
5.6825762

>  <PEOE_VSA_POS>
63.135792

>  <PEOE_VSA_PPOS>
0

>  <petitjean>
0.40000001

>  <petitjeanSC>
0.66666669

>  <Q_PC+>
0

>  <Q_PC->
0

>  <Q_RPC+>
0

>  <Q_RPC->
0

>  <Q_VSA_FHYD>
1

>  <Q_VSA_FNEG>
0

>  <Q_VSA_FPNEG>
0

>  <Q_VSA_FPOL>
0

>  <Q_VSA_FPOS>
1

>  <Q_VSA_FPPOS>
0

>  <Q_VSA_HYD>
187.14616

>  <Q_VSA_NEG>
0

>  <Q_VSA_PNEG>
0

>  <Q_VSA_POL>
0

>  <Q_VSA_POS>
187.14616

>  <Q_VSA_PPOS>
0

>  <radius>
3

>  <reactive>
0

>  <rings>
1

>  <RPC+>
0

>  <RPC->
0

>  <rsynth>
1

>  <SlogP>
3.8731999

>  <SlogP_VSA0>
0

>  <SlogP_VSA1>
16.78553

>  <SlogP_VSA2>
0

>  <SlogP_VSA3>
0

>  <SlogP_VSA4>
2.7567475

>  <SlogP_VSA5>
0

>  <SlogP_VSA6>
3.0717793

>  <SlogP_VSA7>
52.929554

>  <SlogP_VSA8>
0

>  <SlogP_VSA9>
156.59457

>  <SMR>
4.8600998

>  <SMR_VSA0>
0

>  <SMR_VSA1>
16.78553

>  <SMR_VSA2>
0

>  <SMR_VSA3>
5.8285265

>  <SMR_VSA4>
0

>  <SMR_VSA5>
52.929554

>  <SMR_VSA6>
0

>  <SMR_VSA7>
156.59457

>  <TPSA>
12.89

>  <VAdjEq>
0.68403846

>  <VAdjMa>
4.4594316

>  <VDistEq>
2.2504768

>  <VDistMa>
6.6184306

>  <vdw_area>
187.14616

>  <vdw_vol>
199.19475

>  <vsa_acc>
5.6825762

>  <vsa_acid>
0

>  <vsa_base>
0

>  <vsa_don>
0

>  <vsa_hyd>
172.45282

>  <vsa_other>
9.0107584

>  <vsa_pol>
5.6825762

>  <Weight>
230.909

>  <weinerPath>
148

>  <weinerPol>
13

>  <zagreb>
54

$$$$
FC(F)(F)c1cc(ccc1)N2\N=C/C(NC)=C(/Cl)C2=O
  MOE2011           2D

 20 21  0  0  0  0  0  0  0  0999 V2000
    0.0000    0.0000    0.0000 F   0  0  0  0  0  0  0  0  0  0  0  0
   -0.7500   -1.2990    0.0000 C   0  0  0  0  0  0  0  0  0  0  0  0
   -2.0490   -0.5490    0.0000 F   0  0  0  0  0  0  0  0  0  0  0  0
   -1.5000   -2.5980    0.0000 F   0  0  0  0  0  0  0  0  0  0  0  0
    0.5490   -2.0490    0.0000 C   0  0  0  0  0  0  0  0  0  0  0  0
    1.8480   -1.2990    0.0000 C   0  0  0  0  0  0  0  0  0  0  0  0
    3.1470   -2.0500    0.0000 C   0  0  0  0  0  0  0  0  0  0  0  0
    3.1460   -3.5500    0.0000 C   0  0  0  0  0  0  0  0  0  0  0  0
    1.8470   -4.2990    0.0000 C   0  0  0  0  0  0  0  0  0  0  0  0
    0.5480   -3.5490    0.0000 C   0  0  0  0  0  0  0  0  0  0  0  0
    4.4460   -1.3000    0.0000 N   0  0  0  0  0  0  0  0  0  0  0  0
    4.4460    0.2000    0.0000 N   0  0  0  0  0  0  0  0  0  0  0  0
    5.7450    0.9500    0.0000 C   0  0  0  0  0  0  0  0  0  0  0  0
    7.0440    0.2000    0.0000 C   0  0  0  0  0  0  0  0  0  0  0  0
    8.3430    0.9500    0.0000 N   0  0  0  0  0  0  0  0  0  0  0  0
    8.3440    2.4500    0.0000 C   0  0  0  0  0  0  0  0  0  0  0  0
    7.0440   -1.3000    0.0000 C   0  0  0  0  0  0  0  0  0  0  0  0
    8.3430   -2.0500    0.0000 Cl  0  0  0  0  0  0  0  0  0  0  0  0
    5.7450   -2.0500    0.0000 C   0  0  0  0  0  0  0  0  0  0  0  0
    5.7450   -3.5500    0.0000 O   0  0  0  0  0  0  0  0  0  0  0  0
  1  2  1  0  0  0  0
  2  3  1  0  0  0  0
  2  4  1  0  0  0  0
  2  5  1  0  0  0  0
  5  6  1  0  0  0  0
  5 10  2  0  0  0  0
  6  7  2  0  0  0  0
  7  8  1  0  0  0  0
  7 11  1  0  0  0  0
  8  9  2  0  0  0  0
  9 10  1  0  0  0  0
 11 12  1  0  0  0  0
 11 19  1  0  0  0  0
 12 13  2  0  0  0  0
 13 14  1  0  0  0  0
 14 15  1  0  0  0  0
 14 17  2  0  0  0  0
 15 16  1  0  0  0  0
 17 18  1  0  0  0  0
 17 19  1  0  0  0  0
 19 20  2  0  0  0  0
M  END
>  <DSSTox_RID>
40540

>  <DSSTox_CID>
4234

>  <apol>
35.074139

>  <a_acc>
2

>  <a_acid>
0

>  <a_aro>
6

>  <a_base>
0

>  <a_count>
29

>  <a_don>
1

>  <a_heavy>
20

>  <a_hyd>
14

>  <a_IC>
59.8228

>  <a_ICM>
2.0628552

>  <a_nB>
0

>  <a_nBr>
0

>  <a_nC>
12

>  <a_nCl>
1

>  <a_nF>
3

>  <a_nH>
9

>  <a_nI>
0

>  <a_nN>
3

>  <a_nO>
1

>  <a_nP>
0

>  <a_nS>
0

>  <balabanJ>
2.0158131

>  <BCUT_PEOE_0>
-2.3682413

>  <BCUT_PEOE_1>
-0.56037414

>  <BCUT_PEOE_2>
0.54232764

>  <BCUT_PEOE_3>
2.3797002

>  <BCUT_SLOGP_0>
-2.5262864

>  <BCUT_SLOGP_1>
-0.44381902

>  <BCUT_SLOGP_2>
0.65927994

>  <BCUT_SLOGP_3>
2.4815307

>  <BCUT_SMR_0>
-2.0565326

>  <BCUT_SMR_1>
-0.36740208

>  <BCUT_SMR_2>
0.75303215

>  <BCUT_SMR_3>
2.6693447

>  <bpol>
17.465862

>  <b_1rotN>
2

>  <b_1rotR>
0.095238097

>  <b_ar>
6

>  <b_count>
30

>  <b_double>
3

>  <b_heavy>
21

>  <b_rotN>
3

>  <b_rotR>
0.14285715

>  <b_single>
21

>  <b_triple>
0

>  <chi0>
14.913849

>  <chi0v>
10.957213

>  <chi0v_C>
6.8867512

>  <chi0_C>
7.9222851

>  <chi1>
9.3415537

>  <chi1v>
5.8534722

>  <chi1v_C>
2.8600423

>  <chi1_C>
3.9965832

>  <chiral>
0

>  <chiral_u>
0

>  <density>
0.99009091

>  <diameter>
10

>  <FCharge>
0

>  <GCUT_PEOE_0>
-0.82325733

>  <GCUT_PEOE_1>
-0.42474738

>  <GCUT_PEOE_2>
0.025750348

>  <GCUT_PEOE_3>
2.3304245

>  <GCUT_SLOGP_0>
-1.123473

>  <GCUT_SLOGP_1>
-0.31031853

>  <GCUT_SLOGP_2>
0.26019999

>  <GCUT_SLOGP_3>
2.4206998

>  <GCUT_SMR_0>
-0.48835328

>  <GCUT_SMR_1>
-0.18891172

>  <GCUT_SMR_2>
0.20204924

>  <GCUT_SMR_3>
2.6228917

>  <Kier1>
16.371881

>  <Kier2>
6.405827

>  <Kier3>
3.6213019

>  <KierA1>
12.418273

>  <KierA2>
4.782465

>  <KierA3>
2.6723256

>  <KierFlex>
2.9694979

>  <lip_acc>
4

>  <lip_don>
1

>  <lip_druglike>
1

>  <lip_violation>
0

>  <logP(o/w)>
3.6287601

>  <logS>
-4.0947499

>  <mr>
6.8413072

>  <mutagenic>
0

>  <nmol>
1

>  <opr_brigid>
12

>  <opr_leadlike>
1

>  <opr_nring>
2

>  <opr_nrot>
2

>  <opr_violation>
0

>  <PC+>
0

>  <PC->
0

>  <PEOE_PC+>
1.3800759

>  <PEOE_PC->
-1.3800759

>  <PEOE_RPC+>
0.30333543

>  <PEOE_RPC->
0.19142695

>  <PEOE_VSA+0>
63.233978

>  <PEOE_VSA+1>
15.607642

>  <PEOE_VSA+2>
58.718712

>  <PEOE_VSA+3>
0

>  <PEOE_VSA+4>
0

>  <PEOE_VSA+5>
12.949531

>  <PEOE_VSA+6>
9.0455017

>  <PEOE_VSA-0>
0

>  <PEOE_VSA-1>
29.581947

>  <PEOE_VSA-2>
0

>  <PEOE_VSA-3>
50.829521

>  <PEOE_VSA-4>
0

>  <PEOE_VSA-5>
13.566921

>  <PEOE_VSA-6>
0

>  <PEOE_VSA_FHYD>
0.85973483

>  <PEOE_VSA_FNEG>
0.37067407

>  <PEOE_VSA_FPNEG>
0.053511299

>  <PEOE_VSA_FPOL>
0.14026517

>  <PEOE_VSA_FPOS>
0.62932593

>  <PEOE_VSA_FPPOS>
0.08675386

>  <PEOE_VSA_HYD>
217.9718

>  <PEOE_VSA_NEG>
93.978394

>  <PEOE_VSA_PNEG>
13.566921

>  <PEOE_VSA_POL>
35.561954

>  <PEOE_VSA_POS>
159.55537

>  <PEOE_VSA_PPOS>
21.995033

>  <petitjean>
0.5

>  <petitjeanSC>
1

>  <Q_PC+>
0

>  <Q_PC->
0

>  <Q_RPC+>
0

>  <Q_RPC->
0

>  <Q_VSA_FHYD>
1

>  <Q_VSA_FNEG>
0

>  <Q_VSA_FPNEG>
0

>  <Q_VSA_FPOL>
0

>  <Q_VSA_FPOS>
1

>  <Q_VSA_FPPOS>
0

>  <Q_VSA_HYD>
253.53375

>  <Q_VSA_NEG>
0

>  <Q_VSA_PNEG>
0

>  <Q_VSA_POL>
0

>  <Q_VSA_POS>
253.53375

>  <Q_VSA_PPOS>
0

>  <radius>
5

>  <reactive>
0

>  <rings>
2

>  <RPC+>
0

>  <RPC->
0

>  <rsynth>
1

>  <SlogP>
3.0191

>  <SlogP_VSA0>
21.012543

>  <SlogP_VSA1>
5.2587838

>  <SlogP_VSA2>
41.076572

>  <SlogP_VSA3>
0

>  <SlogP_VSA4>
3.185575

>  <SlogP_VSA5>
55.817551

>  <SlogP_VSA6>
7.7595162

>  <SlogP_VSA7>
70.572739

>  <SlogP_VSA8>
0

>  <SlogP_VSA9>
86.785728

>  <SMR>
6.9477701

>  <SMR_VSA0>
23.862217

>  <SMR_VSA1>
61.543346

>  <SMR_VSA2>
28.772058

>  <SMR_VSA3>
9.4429293

>  <SMR_VSA4>
2.7567475

>  <SMR_VSA5>
70.572739

>  <SMR_VSA6>
5.2587838

>  <SMR_VSA7>
89.260185

>  <TPSA>
44.700001

>  <VAdjEq>
0.48464775

>  <VAdjMa>
5.3923173

>  <VDistEq>
3.0924191

>  <VDistMa>
8.3536196

>  <vdw_area>
253.53375

>  <vdw_vol>
297.54742

>  <vsa_acc>
22.987961

>  <vsa_acid>
0

>  <vsa_base>
0

>  <vsa_don>
5.6825762

>  <vsa_hyd>
191.61418

>  <vsa_other>
33.249039

>  <vsa_pol>
28.670536

>  <Weight>
303.67099

>  <weinerPath>
797

>  <weinerPol>
33

>  <zagreb>
104

$$$$
O=C(C(C(F)=CC=C1)=C1F)NC(NC2=CC(Cl)=C(C=C2)OC(F)(F)C(F)OC(F)(F)F)=O
  MOE2011           2D

 32 33  0  0  1  0  0  0  0  0999 V2000
    0.0000    0.0000    0.0000 O   0  0  0  0  0  0  0  0  0  0  0  0
    0.0050   -1.5000    0.0000 C   0  0  0  0  0  0  0  0  0  0  0  0
   -1.2910   -2.2550    0.0000 C   0  0  0  0  0  0  0  0  0  0  0  0
   -1.2850   -3.7550    0.0000 C   0  0  0  0  0  0  0  0  0  0  0  0
    0.0160   -4.5000    0.0000 F   0  0  0  0  0  0  0  0  0  0  0  0
   -2.5820   -4.5090    0.0000 C   0  0  0  0  0  0  0  0  0  0  0  0
   -3.8830   -3.7640    0.0000 C   0  0  0  0  0  0  0  0  0  0  0  0
   -3.8890   -2.2640    0.0000 C   0  0  0  0  0  0  0  0  0  0  0  0
   -2.5930   -1.5090    0.0000 C   0  0  0  0  0  0  0  0  0  0  0  0
   -2.5980   -0.0090    0.0000 F   0  0  0  0  0  0  0  0  0  0  0  0
    1.3070   -2.2450    0.0000 N   0  0  0  0  0  0  0  0  0  0  0  0
    2.6040   -1.4910    0.0000 C   0  0  0  0  0  0  0  0  0  0  0  0
    3.9050   -2.2360    0.0000 N   0  0  0  0  0  0  0  0  0  0  0  0
    5.2020   -1.4810    0.0000 C   0  0  0  0  0  0  0  0  0  0  0  0
    5.1960    0.0190    0.0000 C   0  0  0  0  0  0  0  0  0  0  0  0
    6.4920    0.7740    0.0000 C   0  0  0  0  0  0  0  0  0  0  0  0
    6.4870    2.2740    0.0000 Cl  0  0  0  0  0  0  0  0  0  0  0  0
    7.7940    0.0280    0.0000 C   0  0  0  0  0  0  0  0  0  0  0  0
    7.8000   -1.4720    0.0000 C   0  0  0  0  0  0  0  0  0  0  0  0
    6.5030   -2.2260    0.0000 C   0  0  0  0  0  0  0  0  0  0  0  0
    9.0900    0.7830    0.0000 O   0  0  0  0  0  0  0  0  0  0  0  0
   10.3920    0.0380    0.0000 C   0  0  0  0  0  0  0  0  0  0  0  0
   11.6940   -0.7070    0.0000 F   0  0  0  0  0  0  0  0  0  0  0  0
    9.6470   -1.2640    0.0000 F   0  0  0  0  0  0  0  0  0  0  0  0
   11.1370    1.3400    0.0000 C   0  0  3  0  0  0  0  0  0  0  0  0
   10.3830    2.6360    0.0000 F   0  0  0  0  0  0  0  0  0  0  0  0
   12.6370    1.3450    0.0000 O   0  0  0  0  0  0  0  0  0  0  0  0
   13.3830    2.6470    0.0000 C   0  0  0  0  0  0  0  0  0  0  0  0
   12.0810    3.3920    0.0000 F   0  0  0  0  0  0  0  0  0  0  0  0
   14.6850    1.9020    0.0000 F   0  0  0  0  0  0  0  0  0  0  0  0
   14.1280    3.9490    0.0000 F   0  0  0  0  0  0  0  0  0  0  0  0
    2.5980    0.0090    0.0000 O   0  0  0  0  0  0  0  0  0  0  0  0
  1  2  2  0  0  0  0
  2  3  1  0  0  0  0
  2 11  1  0  0  0  0
  3  4  1  0  0  0  0
  3  9  2  0  0  0  0
  4  5  1  0  0  0  0
  4  6  2  0  0  0  0
  6  7  1  0  0  0  0
  7  8  2  0  0  0  0
  8  9  1  0  0  0  0
  9 10  1  0  0  0  0
 11 12  1  0  0  0  0
 12 13  1  0  0  0  0
 12 32  2  0  0  0  0
 13 14  1  0  0  0  0
 14 15  1  0  0  0  0
 14 20  2  0  0  0  0
 15 16  2  0  0  0  0
 16 17  1  0  0  0  0
 16 18  1  0  0  0  0
 18 19  2  0  0  0  0
 18 21  1  0  0  0  0
 19 20  1  0  0  0  0
 21 22  1  0  0  0  0
 22 23  1  0  0  0  0
 22 24  1  0  0  0  0
 22 25  1  0  0  0  0
 25 26  1  0  0  0  0
 25 27  1  0  0  0  0
 27 28  1  0  0  0  0
 28 29  1  0  0  0  0
 28 30  1  0  0  0  0
 28 31  1  0  0  0  0
M  END
>  <DSSTox_RID>
40541

>  <DSSTox_CID>
14773

>  <apol>
47.965137

>  <a_acc>
4

>  <a_acid>
0

>  <a_aro>
12

>  <a_base>
0

>  <a_count>
41

>  <a_don>
2

>  <a_heavy>
32

>  <a_hyd>
24

>  <a_IC>
87.64344

>  <a_ICM>
2.1376448

>  <a_nB>
0

>  <a_nBr>
0

>  <a_nC>
17

>  <a_nCl>
1

>  <a_nF>
8

>  <a_nH>
9

>  <a_nI>
0

>  <a_nN>
2

>  <a_nO>
4

>  <a_nP>
0

>  <a_nS>
0

>  <balabanJ>
1.8155613

>  <BCUT_PEOE_0>
-2.3197591

>  <BCUT_PEOE_1>
-0.62036502

>  <BCUT_PEOE_2>
0.61994165

>  <BCUT_PEOE_3>
2.5934777

>  <BCUT_SLOGP_0>
-2.5260818

>  <BCUT_SLOGP_1>
-0.4485881

>  <BCUT_SLOGP_2>
0.76756305

>  <BCUT_SLOGP_3>
2.4477913

>  <BCUT_SMR_0>
-2.2102888

>  <BCUT_SMR_1>
-0.42077023

>  <BCUT_SMR_2>
0.80494738

>  <BCUT_SMR_3>
2.655298

>  <bpol>
26.950863

>  <b_1rotN>
6

>  <b_1rotR>
0.18181819

>  <b_ar>
12

>  <b_count>
42

>  <b_double>
2

>  <b_heavy>
33

>  <b_rotN>
10

>  <b_rotR>
0.30303031

>  <b_single>
28

>  <b_triple>
0

>  <chi0>
24.26722

>  <chi0v>
15.832054

>  <chi0v_C>
9.0414515

>  <chi0_C>
10.438793

>  <chi1>
14.692196

>  <chi1v>
8.3850889

>  <chi1v_C>
4.0207257

>  <chi1_C>
5.5714984

>  <chiral>
1

>  <chiral_u>
1

>  <density>
1.1120232

>  <diameter>
17

>  <FCharge>
0

>  <GCUT_PEOE_0>
-0.79484212

>  <GCUT_PEOE_1>
-0.44712138

>  <GCUT_PEOE_2>
0.062457349

>  <GCUT_PEOE_3>
2.3837786

>  <GCUT_SLOGP_0>
-1.171766

>  <GCUT_SLOGP_1>
-0.27495891

>  <GCUT_SLOGP_2>
0.28394088

>  <GCUT_SLOGP_3>
2.4627345

>  <GCUT_SMR_0>
-0.51398116

>  <GCUT_SMR_1>
-0.2040887

>  <GCUT_SMR_2>
0.18273233

>  <GCUT_SMR_3>
2.640249

>  <Kier1>
28.23875

>  <Kier2>
11.620158

>  <Kier3>
8.6280994

>  <KierA1>
21.96944

>  <KierA2>
8.9625034

>  <KierA3>
6.6142435

>  <KierFlex>
6.1531615

>  <lip_acc>
6

>  <lip_don>
2

>  <lip_druglike>
1

>  <lip_violation>
1

>  <logP(o/w)>
5.4644198

>  <logS>
-7.2033401

>  <mr>
9.3807945

>  <mutagenic>
0

>  <nmol>
1

>  <opr_brigid>
12

>  <opr_leadlike>
0

>  <opr_nring>
2

>  <opr_nrot>
6

>  <opr_violation>
2

>  <PC+>
0

>  <PC->
0

>  <PEOE_PC+>
2.8185773

>  <PEOE_PC->
-2.8185773

>  <PEOE_RPC+>
0.18707518

>  <PEOE_RPC->
0.097867295

>  <PEOE_VSA+0>
94.850967

>  <PEOE_VSA+1>
11.219297

>  <PEOE_VSA+2>
28.70875

>  <PEOE_VSA+3>
0

>  <PEOE_VSA+4>
0

>  <PEOE_VSA+5>
12.949531

>  <PEOE_VSA+6>
56.490025

>  <PEOE_VSA-0>
0

>  <PEOE_VSA-1>
29.581947

>  <PEOE_VSA-2>
35.725906

>  <PEOE_VSA-3>
47.091061

>  <PEOE_VSA-4>
39.887947

>  <PEOE_VSA-5>
16.070677

>  <PEOE_VSA-6>
0

>  <PEOE_VSA_FHYD>
0.66342938

>  <PEOE_VSA_FNEG>
0.45187423

>  <PEOE_VSA_FPNEG>
0.15019381

>  <PEOE_VSA_FPOL>
0.33657065

>  <PEOE_VSA_FPOS>
0.5481258

>  <PEOE_VSA_FPPOS>
0.18637684

>  <PEOE_VSA_HYD>
247.17793

>  <PEOE_VSA_NEG>
168.35754

>  <PEOE_VSA_PNEG>
55.958626

>  <PEOE_VSA_POL>
125.39818

>  <PEOE_VSA_POS>
204.21857

>  <PEOE_VSA_PPOS>
69.43956

>  <petitjean>
0.47058824

>  <petitjeanSC>
0.8888889

>  <Q_PC+>
0

>  <Q_PC->
0

>  <Q_RPC+>
0

>  <Q_RPC->
0

>  <Q_VSA_FHYD>
1

>  <Q_VSA_FNEG>
0

>  <Q_VSA_FPNEG>
0

>  <Q_VSA_FPOL>
0

>  <Q_VSA_FPOS>
1

>  <Q_VSA_FPPOS>
0

>  <Q_VSA_HYD>
372.57611

>  <Q_VSA_NEG>
0

>  <Q_VSA_PNEG>
0

>  <Q_VSA_POL>
0

>  <Q_VSA_POS>
372.57611

>  <Q_VSA_PPOS>
0

>  <radius>
9

>  <reactive>
0

>  <rings>
2

>  <RPC+>
0

>  <RPC->
0

>  <rsynth>
1

>  <SlogP>
5.3836999

>  <SlogP_VSA0>
29.010639

>  <SlogP_VSA1>
41.798786

>  <SlogP_VSA2>
41.646015

>  <SlogP_VSA3>
0

>  <SlogP_VSA4>
27.047791

>  <SlogP_VSA5>
0

>  <SlogP_VSA6>
3.5006065

>  <SlogP_VSA7>
105.85911

>  <SlogP_VSA8>
0

>  <SlogP_VSA9>
190.69194

>  <SMR>
9.1905899

>  <SMR_VSA0>
58.724319

>  <SMR_VSA1>
130.6808

>  <SMR_VSA2>
49.952084

>  <SMR_VSA3>
24.333702

>  <SMR_VSA4>
20.767498

>  <SMR_VSA5>
105.85911

>  <SMR_VSA6>
10.088739

>  <SMR_VSA7>
39.148643

>  <TPSA>
76.660004

>  <VAdjEq>
0.3448742

>  <VAdjMa>
6.044394

>  <VDistEq>
3.9144328

>  <VDistMa>
9.6738844

>  <vdw_area>
372.57611

>  <vdw_vol>
434.91357

>  <vsa_acc>
32.141354

>  <vsa_acid>
0

>  <vsa_base>
0

>  <vsa_don>
11.365152

>  <vsa_hyd>
298.67953

>  <vsa_other>
30.390074

>  <vsa_pol>
43.506508

>  <Weight>
492.70599

>  <weinerPath>
3429

>  <weinerPol>
49

>  <zagreb>
164

$$$$
[O-][N+](=O)c1cc(cc([N+]([O-])=O)c1N(CCC)CCC)S(N)(=O)=O
  MOE2011           2D

 23 23  0  0  0  0  0  0  0  0999 V2000
    0.0000    0.0000    0.0000 O   0  5  0  0  0  0  0  0  0  0  0  0
   -0.7500    1.2990    0.0000 N   0  3  0  0  0  0  0  0  0  0  0  0
   -2.2500    1.2990    0.0000 O   0  0  0  0  0  0  0  0  0  0  0  0
    0.0000    2.5980    0.0000 C   0  0  0  0  0  0  0  0  0  0  0  0
    1.5000    2.5980    0.0000 C   0  0  0  0  0  0  0  0  0  0  0  0
    2.2500    3.8970    0.0000 C   0  0  0  0  0  0  0  0  0  0  0  0
    1.5000    5.1960    0.0000 C   0  0  0  0  0  0  0  0  0  0  0  0
    0.0000    5.1960    0.0000 C   0  0  0  0  0  0  0  0  0  0  0  0
   -0.7500    6.4950    0.0000 N   0  3  0  0  0  0  0  0  0  0  0  0
    0.0000    7.7940    0.0000 O   0  5  0  0  0  0  0  0  0  0  0  0
   -2.2500    6.4950    0.0000 O   0  0  0  0  0  0  0  0  0  0  0  0
   -0.7500    3.8970    0.0000 C   0  0  0  0  0  0  0  0  0  0  0  0
   -2.2500    3.8970    0.0000 N   0  0  0  0  0  0  0  0  0  0  0  0
   -3.0000    5.1960    0.0000 C   0  0  0  0  0  0  0  0  0  0  0  0
   -4.5000    5.1960    0.0000 C   0  0  0  0  0  0  0  0  0  0  0  0
   -5.2500    6.4950    0.0000 C   0  0  0  0  0  0  0  0  0  0  0  0
   -3.0000    2.5980    0.0000 C   0  0  0  0  0  0  0  0  0  0  0  0
   -4.5000    2.5980    0.0000 C   0  0  0  0  0  0  0  0  0  0  0  0
   -5.2500    1.2990    0.0000 C   0  0  0  0  0  0  0  0  0  0  0  0
    3.7500    3.8970    0.0000 S   0  0  0  0  0  0  0  0  0  0  0  0
    5.2500    3.8970    0.0000 N   0  0  0  0  0  0  0  0  0  0  0  0
    3.7500    2.3970    0.0000 O   0  0  0  0  0  0  0  0  0  0  0  0
    3.7500    5.3970    0.0000 O   0  0  0  0  0  0  0  0  0  0  0  0
  1  2  1  0  0  0  0
  2  3  2  0  0  0  0
  2  4  1  0  0  0  0
  4  5  1  0  0  0  0
  4 12  2  0  0  0  0
  5  6  2  0  0  0  0
  6  7  1  0  0  0  0
  6 20  1  0  0  0  0
  7  8  2  0  0  0  0
  8  9  1  0  0  0  0
  8 12  1  0  0  0  0
  9 10  1  0  0  0  0
  9 11  2  0  0  0  0
 12 13  1  0  0  0  0
 13 14  1  0  0  0  0
 13 17  1  0  0  0  0
 14 15  1  0  0  0  0
 15 16  1  0  0  0  0
 17 18  1  0  0  0  0
 18 19  1  0  0  0  0
 20 21  1  0  0  0  0
 20 22  2  0  0  0  0
 20 23  2  0  0  0  0
M  CHG  1   1  -1
M  CHG  1   2   1
M  CHG  1   9   1
M  CHG  1  10  -1
M  END
>  <DSSTox_RID>
40543

>  <DSSTox_CID>
4238

>  <apol>
45.234276

>  <a_acc>
2

>  <a_acid>
0

>  <a_aro>
6

>  <a_base>
0

>  <a_count>
41

>  <a_don>
1

>  <a_heavy>
23

>  <a_hyd>
14

>  <a_IC>
78.071655

>  <a_ICM>
1.9041867

>  <a_nB>
0

>  <a_nBr>
0

>  <a_nC>
12

>  <a_nCl>
0

>  <a_nF>
0

>  <a_nH>
18

>  <a_nI>
0

>  <a_nN>
4

>  <a_nO>
6

>  <a_nP>
0

>  <a_nS>
1

>  <balabanJ>
3.1602342

>  <BCUT_PEOE_0>
-2.6425109

>  <BCUT_PEOE_1>
-0.25828117

>  <BCUT_PEOE_2>
0.092266552

>  <BCUT_PEOE_3>
2.589494

>  <BCUT_SLOGP_0>
-2.6704147

>  <BCUT_SLOGP_1>
-0.2137823

>  <BCUT_SLOGP_2>
0.22967538

>  <BCUT_SLOGP_3>
2.6266451

>  <BCUT_SMR_0>
-2.3683364

>  <BCUT_SMR_1>
0.083916664

>  <BCUT_SMR_2>
0.33669999

>  <BCUT_SMR_3>
2.8579032

>  <bpol>
29.985725

>  <b_1rotN>
8

>  <b_1rotR>
0.34782609

>  <b_ar>
6

>  <b_count>
41

>  <b_double>
2

>  <b_heavy>
23

>  <b_rotN>
8

>  <b_rotR>
0.34782609

>  <b_single>
33

>  <b_triple>
0

>  <chi0>
17.784092

>  <chi0v>
13.576353

>  <chi0v_C>
7.9831276

>  <chi0_C>
8.552042

>  <chi1>
10.628447

>  <chi1v>
8.4219656

>  <chi1v_C>
4.0689139

>  <chi1_C>
4.7138734

>  <chiral>
0

>  <chiral_u>
0

>  <density>
0.96679521

>  <diameter>
9

>  <FCharge>
0

>  <GCUT_PEOE_0>
-0.82318997

>  <GCUT_PEOE_1>
-0.41828117

>  <GCUT_PEOE_2>
-0.1044096

>  <GCUT_PEOE_3>
2.6817558

>  <GCUT_SLOGP_0>
-1.3482893

>  <GCUT_SLOGP_1>
-0.28767449

>  <GCUT_SLOGP_2>
0.04247139

>  <GCUT_SLOGP_3>
2.720268

>  <GCUT_SMR_0>
-0.52522135

>  <GCUT_SMR_1>
-0.076083332

>  <GCUT_SMR_2>
0.1767

>  <GCUT_SMR_3>
2.9019294

>  <Kier1>
21.043478

>  <Kier2>
8.909091

>  <Kier3>
5.5

>  <KierA1>
18.006861

>  <KierA2>
7.5664177

>  <KierA3>
4.644578

>  <KierFlex>
5.9238009

>  <lip_acc>
10

>  <lip_don>
2

>  <lip_druglike>
1

>  <lip_violation>
0

>  <logP(o/w)>
2.099

>  <logS>
-4.17732

>  <mr>
8.1264915

>  <mutagenic>
0

>  <nmol>
1

>  <opr_brigid>
6

>  <opr_leadlike>
1

>  <opr_nring>
1

>  <opr_nrot>
8

>  <opr_violation>
1

>  <PC+>
0

>  <PC->
0

>  <PEOE_PC+>
1.8441776

>  <PEOE_PC->
-1.8441776

>  <PEOE_RPC+>
0.16999711

>  <PEOE_RPC->
0.14004359

>  <PEOE_VSA+0>
100.5395

>  <PEOE_VSA+1>
48.655079

>  <PEOE_VSA+2>
0

>  <PEOE_VSA+3>
38.31654

>  <PEOE_VSA+4>
0

>  <PEOE_VSA+5>
0

>  <PEOE_VSA+6>
17.583704

>  <PEOE_VSA-0>
0

>  <PEOE_VSA-1>
20.13512

>  <PEOE_VSA-2>
0

>  <PEOE_VSA-3>
0

>  <PEOE_VSA-4>
32.016521

>  <PEOE_VSA-5>
67.862099

>  <PEOE_VSA-6>
0

>  <PEOE_VSA_FHYD>
0.63869816

>  <PEOE_VSA_FNEG>
0.36914974

>  <PEOE_VSA_FPNEG>
0.3072162

>  <PEOE_VSA_FPOL>
0.36130184

>  <PEOE_VSA_FPOS>
0.63085026

>  <PEOE_VSA_FPPOS>
0.054085638

>  <PEOE_VSA_HYD>
207.64624

>  <PEOE_VSA_NEG>
120.01374

>  <PEOE_VSA_PNEG>
99.878616

>  <PEOE_VSA_POL>
117.46233

>  <PEOE_VSA_POS>
205.09482

>  <PEOE_VSA_PPOS>
17.583704

>  <petitjean>
0.44444445

>  <petitjeanSC>
0.80000001

>  <Q_PC+>
0

>  <Q_PC->
0

>  <Q_RPC+>
0

>  <Q_RPC->
0

>  <Q_VSA_FHYD>
1

>  <Q_VSA_FNEG>
0

>  <Q_VSA_FPNEG>
0

>  <Q_VSA_FPOL>
0

>  <Q_VSA_FPOS>
1

>  <Q_VSA_FPPOS>
0

>  <Q_VSA_HYD>
325.10855

>  <Q_VSA_NEG>
0

>  <Q_VSA_PNEG>
0

>  <Q_VSA_POL>
0

>  <Q_VSA_POS>
325.10855

>  <Q_VSA_PPOS>
0

>  <radius>
5

>  <reactive>
0

>  <rings>
1

>  <RPC+>
0

>  <RPC->
0

>  <rsynth>
1

>  <SlogP>
1.7768

>  <SlogP_VSA0>
34.415749

>  <SlogP_VSA1>
62.342922

>  <SlogP_VSA2>
6.6407428

>  <SlogP_VSA3>
138.74918

>  <SlogP_VSA4>
0

>  <SlogP_VSA5>
1.5507339

>  <SlogP_VSA6>
0

>  <SlogP_VSA7>
35.286369

>  <SlogP_VSA8>
37.736813

>  <SlogP_VSA9>
74.922272

>  <SMR>
8.3919001

>  <SMR_VSA0>
62.342922

>  <SMR_VSA1>
0

>  <SMR_VSA2>
106.54506

>  <SMR_VSA3>
0

>  <SMR_VSA4>
39.561676

>  <SMR_VSA5>
73.023178

>  <SMR_VSA6>
36.879158

>  <SMR_VSA7>
73.29277

>  <TPSA>
155.03999

>  <VAdjEq>
0.42622864

>  <VAdjMa>
5.523562

>  <VDistEq>
2.9582369

>  <VDistMa>
8.815836

>  <vdw_area>
325.10855

>  <vdw_vol>
339.49277

>  <vsa_acc>
32.016521

>  <vsa_acid>
0

>  <vsa_base>
0

>  <vsa_don>
20.13512

>  <vsa_hyd>
194.98921

>  <vsa_other>
77.967705

>  <vsa_pol>
52.151642

>  <Weight>
346.36398

>  <weinerPath>
1082

>  <weinerPol>
37

>  <zagreb>
112

$$$$
O=C2O\C(=N/N2c1cc(OC(C)C)c(Cl)cc1Cl)C(C)(C)C
  MOE2011           2D

 22 23  0  0  0  0  0  0  0  0999 V2000
    0.0000    0.0000    0.0000 O   0  0  0  0  0  0  0  0  0  0  0  0
    1.3920   -0.5590    0.0000 C   0  0  0  0  0  0  0  0  0  0  0  0
    2.6620    0.2390    0.0000 O   0  0  0  0  0  0  0  0  0  0  0  0
    3.8130   -0.7230    0.0000 C   0  0  0  0  0  0  0  0  0  0  0  0
    3.2550   -2.1150    0.0000 N   0  0  0  0  0  0  0  0  0  0  0  0
    1.7580   -2.0140    0.0000 N   0  0  0  0  0  0  0  0  0  0  0  0
    0.7960   -3.1650    0.0000 C   0  0  0  0  0  0  0  0  0  0  0  0
   -0.6820   -2.9070    0.0000 C   0  0  0  0  0  0  0  0  0  0  0  0
   -1.6430   -4.0590    0.0000 C   0  0  0  0  0  0  0  0  0  0  0  0
   -3.1210   -3.8010    0.0000 O   0  0  0  0  0  0  0  0  0  0  0  0
   -3.6370   -2.3930    0.0000 C   0  0  0  0  0  0  0  0  0  0  0  0
   -5.1150   -2.1350    0.0000 C   0  0  0  0  0  0  0  0  0  0  0  0
   -2.6750   -1.2420    0.0000 C   0  0  0  0  0  0  0  0  0  0  0  0
   -1.1270   -5.4670    0.0000 C   0  0  0  0  0  0  0  0  0  0  0  0
   -2.0890   -6.6180    0.0000 Cl  0  0  0  0  0  0  0  0  0  0  0  0
    0.3510   -5.7240    0.0000 C   0  0  0  0  0  0  0  0  0  0  0  0
    1.3120   -4.5730    0.0000 C   0  0  0  0  0  0  0  0  0  0  0  0
    2.7900   -4.8300    0.0000 Cl  0  0  0  0  0  0  0  0  0  0  0  0
    5.2680   -0.3570    0.0000 C   0  0  0  0  0  0  0  0  0  0  0  0
    4.9020    1.0980    0.0000 C   0  0  0  0  0  0  0  0  0  0  0  0
    5.6340   -1.8120    0.0000 C   0  0  0  0  0  0  0  0  0  0  0  0
    6.7230    0.0090    0.0000 C   0  0  0  0  0  0  0  0  0  0  0  0
  1  2  2  0  0  0  0
  2  3  1  0  0  0  0
  2  6  1  0  0  0  0
  3  4  1  0  0  0  0
  4  5  2  0  0  0  0
  4 19  1  0  0  0  0
  5  6  1  0  0  0  0
  6  7  1  0  0  0  0
  7  8  1  0  0  0  0
  7 17  2  0  0  0  0
  8  9  2  0  0  0  0
  9 10  1  0  0  0  0
  9 14  1  0  0  0  0
 10 11  1  0  0  0  0
 11 12  1  0  0  0  0
 11 13  1  0  0  0  0
 14 15  1  0  0  0  0
 14 16  2  0  0  0  0
 16 17  1  0  0  0  0
 17 18  1  0  0  0  0
 19 20  1  0  0  0  0
 19 21  1  0  0  0  0
 19 22  1  0  0  0  0
M  END
>  <DSSTox_RID>
40544

>  <DSSTox_CID>
4239

>  <apol>
47.368275

>  <a_acc>
3

>  <a_acid>
0

>  <a_aro>
6

>  <a_base>
0

>  <a_count>
40

>  <a_don>
0

>  <a_heavy>
22

>  <a_hyd>
15

>  <a_IC>
70.460228

>  <a_ICM>
1.7615057

>  <a_nB>
0

>  <a_nBr>
0

>  <a_nC>
15

>  <a_nCl>
2

>  <a_nF>
0

>  <a_nH>
18

>  <a_nI>
0

>  <a_nN>
2

>  <a_nO>
3

>  <a_nP>
0

>  <a_nS>
0

>  <balabanJ>
2.0723324

>  <BCUT_PEOE_0>
-2.5977383

>  <BCUT_PEOE_1>
-0.41648486

>  <BCUT_PEOE_2>
0.379711

>  <BCUT_PEOE_3>
2.6156816

>  <BCUT_SLOGP_0>
-2.5462346

>  <BCUT_SLOGP_1>
-0.23785912

>  <BCUT_SLOGP_2>
0.62290144

>  <BCUT_SLOGP_3>
2.6728003

>  <BCUT_SMR_0>
-2.3620179

>  <BCUT_SMR_1>
-0.14758474

>  <BCUT_SMR_2>
0.66165805

>  <BCUT_SMR_3>
2.8640602

>  <bpol>
27.287725

>  <b_1rotN>
3

>  <b_1rotR>
0.13043478

>  <b_ar>
6

>  <b_count>
41

>  <b_double>
2

>  <b_heavy>
23

>  <b_rotN>
4

>  <b_rotR>
0.17391305

>  <b_single>
33

>  <b_triple>
0

>  <chi0>
16.654337

>  <chi0v>
14.61901

>  <chi0v_C>
10.232051

>  <chi0_C>
10.955666

>  <chi1>
10.091243

>  <chi1v>
7.6163139

>  <chi1v_C>
4.559401

>  <chi1_C>
5.2430353

>  <chiral>
0

>  <chiral_u>
0

>  <density>
0.90185392

>  <diameter>
10

>  <FCharge>
0

>  <GCUT_PEOE_0>
-0.79077321

>  <GCUT_PEOE_1>
-0.35786793

>  <GCUT_PEOE_2>
-0.097674631

>  <GCUT_PEOE_3>
2.5172851

>  <GCUT_SLOGP_0>
-0.95848048

>  <GCUT_SLOGP_1>
-0.16078939

>  <GCUT_SLOGP_2>
0.11557055

>  <GCUT_SLOGP_3>
2.625468

>  <GCUT_SMR_0>
-0.52317506

>  <GCUT_SMR_1>
-0.10781784

>  <GCUT_SMR_2>
0.16954325

>  <GCUT_SMR_3>
2.7885036

>  <Kier1>
18.340265

>  <Kier2>
6.8571429

>  <Kier3>
4.3083901

>  <KierA1>
16.742191

>  <KierA2>
6.2311645

>  <KierA3>
3.9021657

>  <KierFlex>
4.7419701

>  <lip_acc>
5

>  <lip_don>
0

>  <lip_druglike>
1

>  <lip_violation>
1

>  <logP(o/w)>
5.4640002

>  <logS>
-5.4068999

>  <mr>
8.6397057

>  <mutagenic>
0

>  <nmol>
1

>  <opr_brigid>
11

>  <opr_leadlike>
1

>  <opr_nring>
2

>  <opr_nrot>
4

>  <opr_violation>
1

>  <PC+>
0

>  <PC->
0

>  <PEOE_PC+>
1.2815204

>  <PEOE_PC->
-1.2815204

>  <PEOE_RPC+>
0.30780038

>  <PEOE_RPC->
0.25905237

>  <PEOE_VSA+0>
178.65924

>  <PEOE_VSA+1>
9.0394926

>  <PEOE_VSA+2>
23.61659

>  <PEOE_VSA+3>
12.949531

>  <PEOE_VSA+4>
0

>  <PEOE_VSA+5>
0

>  <PEOE_VSA+6>
19.199511

>  <PEOE_VSA-0>
0

>  <PEOE_VSA-1>
59.163895

>  <PEOE_VSA-2>
9.4210396

>  <PEOE_VSA-3>
0

>  <PEOE_VSA-4>
16.070677

>  <PEOE_VSA-5>
0

>  <PEOE_VSA-6>
2.503756

>  <PEOE_VSA_FHYD>
0.88574946

>  <PEOE_VSA_FNEG>
0.26362103

>  <PEOE_VSA_FPNEG>
0.056179974

>  <PEOE_VSA_FPOL>
0.11425056

>  <PEOE_VSA_FPOS>
0.73637897

>  <PEOE_VSA_FPPOS>
0.058070578

>  <PEOE_VSA_HYD>
292.84979

>  <PEOE_VSA_NEG>
87.159363

>  <PEOE_VSA_PNEG>
18.574432

>  <PEOE_VSA_POL>
37.773945

>  <PEOE_VSA_POS>
243.46436

>  <PEOE_VSA_PPOS>
19.199511

>  <petitjean>
0.5

>  <petitjeanSC>
1

>  <Q_PC+>
0

>  <Q_PC->
0

>  <Q_RPC+>
0

>  <Q_RPC->
0

>  <Q_VSA_FHYD>
1

>  <Q_VSA_FNEG>
0

>  <Q_VSA_FPNEG>
0

>  <Q_VSA_FPOL>
0

>  <Q_VSA_FPOS>
1

>  <Q_VSA_FPPOS>
0

>  <Q_VSA_HYD>
330.62372

>  <Q_VSA_NEG>
0

>  <Q_VSA_PNEG>
0

>  <Q_VSA_POL>
0

>  <Q_VSA_POS>
330.62372

>  <Q_VSA_PPOS>
0

>  <radius>
5

>  <reactive>
0

>  <rings>
2

>  <RPC+>
0

>  <RPC->
0

>  <rsynth>
1

>  <SlogP>
5.0967999

>  <SlogP_VSA0>
14.001679

>  <SlogP_VSA1>
12.131237

>  <SlogP_VSA2>
17.468536

>  <SlogP_VSA3>
0

>  <SlogP_VSA4>
0

>  <SlogP_VSA5>
16.663008

>  <SlogP_VSA6>
7.0012131

>  <SlogP_VSA7>
35.286369

>  <SlogP_VSA8>
0

>  <SlogP_VSA9>
276.78976

>  <SMR>
8.8076

>  <SMR_VSA0>
34.862103

>  <SMR_VSA1>
27.662895

>  <SMR_VSA2>
3.0017917

>  <SMR_VSA3>
18.713291

>  <SMR_VSA4>
2.7567475

>  <SMR_VSA5>
35.286369

>  <SMR_VSA6>
12.131237

>  <SMR_VSA7>
244.92737

>  <TPSA>
51.130001

>  <VAdjEq>
0.4530769

>  <VAdjMa>
5.523562

>  <VDistEq>
3.1613619

>  <VDistMa>
8.6399603

>  <vdw_area>
330.62372

>  <vdw_vol>
362.67734

>  <vsa_acc>
25.491716

>  <vsa_acid>
0

>  <vsa_base>
0

>  <vsa_don>
0

>  <vsa_hyd>
270.47922

>  <vsa_other>
34.652798

>  <vsa_pol>
25.491716

>  <Weight>
345.22598

>  <weinerPath>
1031

>  <weinerPol>
34

>  <zagreb>
116

$$$$
O=C(C(=NOC(=O)NC)SC)N(C)C
  MOE2011           2D

 14 13  0  0  0  0  0  0  0  0999 V2000
    0.0000    0.0000    0.0000 O   0  0  0  0  0  0  0  0  0  0  0  0
    0.0040    1.5000    0.0000 C   0  0  0  0  0  0  0  0  0  0  0  0
   -1.2930    2.2540    0.0000 C   0  0  0  0  0  0  0  0  0  0  0  0
   -2.5940    1.5070    0.0000 N   0  0  0  0  0  0  0  0  0  0  0  0
   -3.8910    2.2610    0.0000 O   0  0  0  0  0  0  0  0  0  0  0  0
   -5.1920    1.5140    0.0000 C   0  0  0  0  0  0  0  0  0  0  0  0
   -6.4890    2.2680    0.0000 O   0  0  0  0  0  0  0  0  0  0  0  0
   -5.1960    0.0140    0.0000 N   0  0  0  0  0  0  0  0  0  0  0  0
   -6.4970   -0.7320    0.0000 C   0  0  0  0  0  0  0  0  0  0  0  0
   -1.2890    3.7540    0.0000 S   0  0  0  0  0  0  0  0  0  0  0  0
   -2.5860    4.5070    0.0000 C   0  0  0  0  0  0  0  0  0  0  0  0
    1.3050    2.2460    0.0000 N   0  0  0  0  0  0  0  0  0  0  0  0
    1.3090    3.7460    0.0000 C   0  0  0  0  0  0  0  0  0  0  0  0
    2.6020    1.4930    0.0000 C   0  0  0  0  0  0  0  0  0  0  0  0
  1  2  2  0  0  0  0
  2  3  1  0  0  0  0
  2 12  1  0  0  0  0
  3  4  2  0  0  0  0
  3 10  1  0  0  0  0
  4  5  1  0  0  0  0
  5  6  1  0  0  0  0
  6  7  2  0  0  0  0
  6  8  1  0  0  0  0
  8  9  1  0  0  0  0
 10 11  1  0  0  0  0
 12 13  1  0  0  0  0
 12 14  1  0  0  0  0
M  END
>  <DSSTox_RID>
40545

>  <DSSTox_CID>
1086

>  <apol>
29.594309

>  <a_acc>
3

>  <a_acid>
0

>  <a_aro>
0

>  <a_base>
0

>  <a_count>
27

>  <a_don>
1

>  <a_heavy>
14

>  <a_hyd>
5

>  <a_IC>
51.114986

>  <a_ICM>
1.8931477

>  <a_nB>
0

>  <a_nBr>
0

>  <a_nC>
7

>  <a_nCl>
0

>  <a_nF>
0

>  <a_nH>
13

>  <a_nI>
0

>  <a_nN>
3

>  <a_nO>
3

>  <a_nP>
0

>  <a_nS>
1

>  <balabanJ>
3.926511

>  <BCUT_PEOE_0>
-2.4516823

>  <BCUT_PEOE_1>
-0.29703739

>  <BCUT_PEOE_2>
0.1213887

>  <BCUT_PEOE_3>
2.3801634

>  <BCUT_SLOGP_0>
-2.5778539

>  <BCUT_SLOGP_1>
-0.13007517

>  <BCUT_SLOGP_2>
0.2931827

>  <BCUT_SLOGP_3>
2.2899086

>  <BCUT_SMR_0>
-2.1557305

>  <BCUT_SMR_1>
0.018906739

>  <BCUT_SMR_2>
0.25500304

>  <BCUT_SMR_3>
2.6980073

>  <bpol>
22.963692

>  <b_1rotN>
2

>  <b_1rotR>
0.15384616

>  <b_ar>
0

>  <b_count>
26

>  <b_double>
3

>  <b_heavy>
13

>  <b_rotN>
6

>  <b_rotR>
0.46153846

>  <b_single>
23

>  <b_triple>
0

>  <chi0>
11.137828

>  <chi0v>
9.3439169

>  <chi0v_C>
5.5

>  <chi0_C>
5.7320509

>  <chi1>
6.5232744

>  <chi1v>
4.9737048

>  <chi1v_C>
0.25

>  <chi1_C>
0.33333334

>  <chiral>
0

>  <chiral_u>
0

>  <density>
0.92234021

>  <diameter>
8

>  <FCharge>
0

>  <GCUT_PEOE_0>
-0.85167503

>  <GCUT_PEOE_1>
-0.41668758

>  <GCUT_PEOE_2>
-0.11475895

>  <GCUT_PEOE_3>
2.0963476

>  <GCUT_SLOGP_0>
-1.1605875

>  <GCUT_SLOGP_1>
-0.29037058

>  <GCUT_SLOGP_2>
0.034189228

>  <GCUT_SLOGP_3>
2.0428846

>  <GCUT_SMR_0>
-0.49920017

>  <GCUT_SMR_1>
-0.075606324

>  <GCUT_SMR_2>
0.032054514

>  <GCUT_SMR_3>
2.3885746

>  <Kier1>
14

>  <Kier2>
7.3125

>  <Kier3>
5.480969

>  <KierA1>
11.793365

>  <KierA2>
6.0719376

>  <KierA3>
4.5011792

>  <KierFlex>
5.1148982

>  <lip_acc>
6

>  <lip_don>
1

>  <lip_druglike>
1

>  <lip_violation>
0

>  <logP(o/w)>
0.329

>  <logS>
-1.40086

>  <mr>
5.4376035

>  <mutagenic>
0

>  <nmol>
1

>  <opr_brigid>
1

>  <opr_leadlike>
1

>  <opr_nring>
0

>  <opr_nrot>
3

>  <opr_violation>
0

>  <PC+>
0

>  <PC->
0

>  <PEOE_PC+>
1.3690763

>  <PEOE_PC->
-1.3690763

>  <PEOE_RPC+>
0.29681209

>  <PEOE_RPC->
0.22690624

>  <PEOE_VSA+0>
0

>  <PEOE_VSA+1>
31.384512

>  <PEOE_VSA+2>
67.79892

>  <PEOE_VSA+3>
42.575073

>  <PEOE_VSA+4>
0

>  <PEOE_VSA+5>
12.949531

>  <PEOE_VSA+6>
19.199511

>  <PEOE_VSA-0>
0

>  <PEOE_VSA-1>
19.760618

>  <PEOE_VSA-2>
10.885262

>  <PEOE_VSA-3>
5.9023595

>  <PEOE_VSA-4>
19.249496

>  <PEOE_VSA-5>
13.566921

>  <PEOE_VSA-6>
0

>  <PEOE_VSA_FHYD>
0.73295158

>  <PEOE_VSA_FNEG>
0.28513187

>  <PEOE_VSA_FPNEG>
0.13489588

>  <PEOE_VSA_FPOL>
0.26704842

>  <PEOE_VSA_FPOS>
0.71486813

>  <PEOE_VSA_FPPOS>
0.13215254

>  <PEOE_VSA_HYD>
178.30675

>  <PEOE_VSA_NEG>
69.364655

>  <PEOE_VSA_PNEG>
32.816418

>  <PEOE_VSA_POL>
64.965462

>  <PEOE_VSA_POS>
173.90755

>  <PEOE_VSA_PPOS>
32.14904

>  <petitjean>
0.5

>  <petitjeanSC>
1

>  <Q_PC+>
0

>  <Q_PC->
0

>  <Q_RPC+>
0

>  <Q_RPC->
0

>  <Q_VSA_FHYD>
1

>  <Q_VSA_FNEG>
0

>  <Q_VSA_FPNEG>
0

>  <Q_VSA_FPOL>
0

>  <Q_VSA_FPOS>
1

>  <Q_VSA_FPPOS>
0

>  <Q_VSA_HYD>
243.2722

>  <Q_VSA_NEG>
0

>  <Q_VSA_PNEG>
0

>  <Q_VSA_POL>
0

>  <Q_VSA_POS>
243.2722

>  <Q_VSA_PPOS>
0

>  <radius>
4

>  <reactive>
0

>  <rings>
0

>  <RPC+>
0

>  <RPC->
0

>  <rsynth>
1

>  <SlogP>
0.1071

>  <SlogP_VSA0>
18.01075

>  <SlogP_VSA1>
16.82164

>  <SlogP_VSA2>
35.080978

>  <SlogP_VSA3>
0

>  <SlogP_VSA4>
0

>  <SlogP_VSA5>
149.78259

>  <SlogP_VSA6>
0

>  <SlogP_VSA7>
0

>  <SlogP_VSA8>
0

>  <SlogP_VSA9>
56.081757

>  <SMR>
5.5185699

>  <SMR_VSA0>
58.943195

>  <SMR_VSA1>
22.524176

>  <SMR_VSA2>
18.01075

>  <SMR_VSA3>
0

>  <SMR_VSA4>
0

>  <SMR_VSA5>
0

>  <SMR_VSA6>
13.697327

>  <SMR_VSA7>
162.60228

>  <TPSA>
71

>  <VAdjEq>
0.56466961

>  <VAdjMa>
4.7004399

>  <VDistEq>
2.850807

>  <VDistMa>
7.3051896

>  <vdw_area>
243.2722

>  <vdw_vol>
223.51949

>  <vsa_acc>
38.019104

>  <vsa_acid>
0

>  <vsa_base>
0

>  <vsa_don>
5.6825762

>  <vsa_hyd>
152.84351

>  <vsa_other>
46.727013

>  <vsa_pol>
43.701679

>  <Weight>
219.265

>  <weinerPath>
337

>  <weinerPol>
17

>  <zagreb>
58

$$$$
Clc2cc(ccc2Oc1ccc([N+]([O-])=O)c(OCC)c1)C(F)(F)F
  MOE2011           2D

 24 25  0  0  0  0  0  0  0  0999 V2000
    0.0000    0.0000    0.0000 Cl  0  0  0  0  0  0  0  0  0  0  0  0
    0.7470   -1.3010    0.0000 C   0  0  0  0  0  0  0  0  0  0  0  0
    2.2470   -1.3050    0.0000 C   0  0  0  0  0  0  0  0  0  0  0  0
    2.9930   -2.6060    0.0000 C   0  0  0  0  0  0  0  0  0  0  0  0
    2.2400   -3.9030    0.0000 C   0  0  0  0  0  0  0  0  0  0  0  0
    0.7400   -3.8990    0.0000 C   0  0  0  0  0  0  0  0  0  0  0  0
   -0.0070   -2.5980    0.0000 C   0  0  0  0  0  0  0  0  0  0  0  0
   -1.5070   -2.5940    0.0000 O   0  0  0  0  0  0  0  0  0  0  0  0
   -2.2600   -3.8910    0.0000 C   0  0  0  0  0  0  0  0  0  0  0  0
   -1.5130   -5.1920    0.0000 C   0  0  0  0  0  0  0  0  0  0  0  0
   -2.2660   -6.4890    0.0000 C   0  0  0  0  0  0  0  0  0  0  0  0
   -3.7660   -6.4860    0.0000 C   0  0  0  0  0  0  0  0  0  0  0  0
   -4.5200   -7.7830    0.0000 N   0  3  0  0  0  0  0  0  0  0  0  0
   -6.0200   -7.7790    0.0000 O   0  5  0  0  0  0  0  0  0  0  0  0
   -3.7730   -9.0840    0.0000 O   0  0  0  0  0  0  0  0  0  0  0  0
   -4.5130   -5.1850    0.0000 C   0  0  0  0  0  0  0  0  0  0  0  0
   -6.0130   -5.1810    0.0000 O   0  0  0  0  0  0  0  0  0  0  0  0
   -6.7600   -3.8800    0.0000 C   0  0  0  0  0  0  0  0  0  0  0  0
   -8.2600   -3.8760    0.0000 C   0  0  0  0  0  0  0  0  0  0  0  0
   -3.7600   -3.8880    0.0000 C   0  0  0  0  0  0  0  0  0  0  0  0
    4.4930   -2.6090    0.0000 C   0  0  0  0  0  0  0  0  0  0  0  0
    4.4970   -1.1100    0.0000 F   0  0  0  0  0  0  0  0  0  0  0  0
    4.4900   -4.1090    0.0000 F   0  0  0  0  0  0  0  0  0  0  0  0
    5.9930   -2.6130    0.0000 F   0  0  0  0  0  0  0  0  0  0  0  0
  1  2  1  0  0  0  0
  2  3  1  0  0  0  0
  2  7  2  0  0  0  0
  3  4  2  0  0  0  0
  4  5  1  0  0  0  0
  4 21  1  0  0  0  0
  5  6  2  0  0  0  0
  6  7  1  0  0  0  0
  7  8  1  0  0  0  0
  8  9  1  0  0  0  0
  9 10  1  0  0  0  0
  9 20  2  0  0  0  0
 10 11  2  0  0  0  0
 11 12  1  0  0  0  0
 12 13  1  0  0  0  0
 12 16  2  0  0  0  0
 13 14  1  0  0  0  0
 13 15  2  0  0  0  0
 16 17  1  0  0  0  0
 16 20  1  0  0  0  0
 17 18  1  0  0  0  0
 18 19  1  0  0  0  0
 21 22  1  0  0  0  0
 21 23  1  0  0  0  0
 21 24  1  0  0  0  0
M  CHG  1  13   1
M  CHG  1  14  -1
M  END
>  <DSSTox_RID>
40546

>  <DSSTox_CID>
4241

>  <apol>
41.893723

>  <a_acc>
0

>  <a_acid>
0

>  <a_aro>
12

>  <a_base>
0

>  <a_count>
35

>  <a_don>
0

>  <a_heavy>
24

>  <a_hyd>
20

>  <a_IC>
70.112915

>  <a_ICM>
2.003226

>  <a_nB>
0

>  <a_nBr>
0

>  <a_nC>
15

>  <a_nCl>
1

>  <a_nF>
3

>  <a_nH>
11

>  <a_nI>
0

>  <a_nN>
1

>  <a_nO>
4

>  <a_nP>
0

>  <a_nS>
0

>  <balabanJ>
1.8832572

>  <BCUT_PEOE_0>
-2.3815827

>  <BCUT_PEOE_1>
-0.63624382

>  <BCUT_PEOE_2>
0.63153291

>  <BCUT_PEOE_3>
2.3755953

>  <BCUT_SLOGP_0>
-2.3967352

>  <BCUT_SLOGP_1>
-0.4941065

>  <BCUT_SLOGP_2>
0.75101191

>  <BCUT_SLOGP_3>
2.506988

>  <BCUT_SMR_0>
-2.1498086

>  <BCUT_SMR_1>
-0.40305245

>  <BCUT_SMR_2>
0.83021355

>  <BCUT_SMR_3>
2.6074986

>  <bpol>
21.142277

>  <b_1rotN>
5

>  <b_1rotR>
0.2

>  <b_ar>
12

>  <b_count>
36

>  <b_double>
1

>  <b_heavy>
25

>  <b_rotN>
6

>  <b_rotR>
0.23999999

>  <b_single>
23

>  <b_triple>
0

>  <chi0>
17.905413

>  <chi0v>
13.019202

>  <chi0v_C>
8.6712084

>  <chi0_C>
9.9138489

>  <chi1>
11.218564

>  <chi1v>
7.0568705

>  <chi1v_C>
4.4331746

>  <chi1_C>
5.9284348

>  <chiral>
0

>  <chiral_u>
0

>  <density>
0.98687094

>  <diameter>
12

>  <FCharge>
0

>  <GCUT_PEOE_0>
-0.78025764

>  <GCUT_PEOE_1>
-0.41235438

>  <GCUT_PEOE_2>
0.027694432

>  <GCUT_PEOE_3>
2.3836462

>  <GCUT_SLOGP_0>
-0.88773233

>  <GCUT_SLOGP_1>
-0.25484201

>  <GCUT_SLOGP_2>
0.26019999

>  <GCUT_SLOGP_3>
2.5650258

>  <GCUT_SMR_0>
-0.51396549

>  <GCUT_SMR_1>
-0.18496752

>  <GCUT_SMR_2>
0.18659794

>  <GCUT_SMR_3>
2.6413209

>  <Kier1>
20.313601

>  <Kier2>
8.5895061

>  <Kier3>
5.4970255

>  <KierA1>
16.366663

>  <KierA2>
6.8513165

>  <KierA3>
4.352983

>  <KierFlex>
4.6722164

>  <lip_acc>
5

>  <lip_don>
0

>  <lip_druglike>
1

>  <lip_violation>
1

>  <logP(o/w)>
5.3447599

>  <logS>
-6.1262498

>  <mr>
8.149375

>  <mutagenic>
1

>  <nmol>
1

>  <opr_brigid>
12

>  <opr_leadlike>
1

>  <opr_nring>
2

>  <opr_nrot>
5

>  <opr_violation>
1

>  <PC+>
0

>  <PC->
0

>  <PEOE_PC+>
1.7247373

>  <PEOE_PC->
-1.7247373

>  <PEOE_RPC+>
0.24270701

>  <PEOE_RPC->
0.18821597

>  <PEOE_VSA+0>
92.642426

>  <PEOE_VSA+1>
42.37331

>  <PEOE_VSA+2>
38.975513

>  <PEOE_VSA+3>
8.458519

>  <PEOE_VSA+4>
0

>  <PEOE_VSA+5>
0

>  <PEOE_VSA+6>
15.745053

>  <PEOE_VSA-0>
0

>  <PEOE_VSA-1>
29.581947

>  <PEOE_VSA-2>
0

>  <PEOE_VSA-3>
35.725906

>  <PEOE_VSA-4>
0

>  <PEOE_VSA-5>
33.931049

>  <PEOE_VSA-6>
5.0075121

>  <PEOE_VSA_FHYD>
0.81919259

>  <PEOE_VSA_FNEG>
0.3446832

>  <PEOE_VSA_FPNEG>
0.12874752

>  <PEOE_VSA_FPOL>
0.1808074

>  <PEOE_VSA_FPOS>
0.65531677

>  <PEOE_VSA_FPPOS>
0.052059874

>  <PEOE_VSA_HYD>
247.75763

>  <PEOE_VSA_NEG>
104.24641

>  <PEOE_VSA_PNEG>
38.93856

>  <PEOE_VSA_POL>
54.683613

>  <PEOE_VSA_POS>
198.19482

>  <PEOE_VSA_PPOS>
15.745053

>  <petitjean>
0.5

>  <petitjeanSC>
1

>  <Q_PC+>
0

>  <Q_PC->
0

>  <Q_RPC+>
0

>  <Q_RPC->
0

>  <Q_VSA_FHYD>
1

>  <Q_VSA_FNEG>
0

>  <Q_VSA_FPNEG>
0

>  <Q_VSA_FPOL>
0

>  <Q_VSA_FPOS>
1

>  <Q_VSA_FPPOS>
0

>  <Q_VSA_HYD>
302.44122

>  <Q_VSA_NEG>
0

>  <Q_VSA_PNEG>
0

>  <Q_VSA_POL>
0

>  <Q_VSA_POS>
302.44122

>  <Q_VSA_PPOS>
0

>  <radius>
6

>  <reactive>
0

>  <rings>
2

>  <RPC+>
0

>  <RPC->
0

>  <rsynth>
1

>  <SlogP>
5.7694998

>  <SlogP_VSA0>
21.999775

>  <SlogP_VSA1>
7.0856161

>  <SlogP_VSA2>
0

>  <SlogP_VSA3>
71.861267

>  <SlogP_VSA4>
3.185575

>  <SlogP_VSA5>
0

>  <SlogP_VSA6>
11.260122

>  <SlogP_VSA7>
105.85911

>  <SlogP_VSA8>
0

>  <SlogP_VSA9>
135.84203

>  <SMR>
8.0910397

>  <SMR_VSA0>
7.0856161

>  <SMR_VSA1>
66.880119

>  <SMR_VSA2>
58.694523

>  <SMR_VSA3>
22.416466

>  <SMR_VSA4>
2.7567475

>  <SMR_VSA5>
105.85911

>  <SMR_VSA6>
20.926258

>  <SMR_VSA7>
72.474655

>  <TPSA>
64.279999

>  <VAdjEq>
0.42571631

>  <VAdjMa>
5.643856

>  <VDistEq>
3.450727

>  <VDistMa>
8.8595886

>  <vdw_area>
302.44122

>  <vdw_vol>
355.27948

>  <vsa_acc>
0

>  <vsa_acid>
0

>  <vsa_base>
0

>  <vsa_don>
0

>  <vsa_hyd>
263.50269

>  <vsa_other>
38.93856

>  <vsa_pol>
0

>  <Weight>
361.703

>  <weinerPath>
1442

>  <weinerPol>
37

>  <zagreb>
122

$$$$
O=C1[C@](C(O)=C2[C@@]3([H])[C@@](O)(C)C4=C(C(O)=CC=C4)C2=O)(O)[C@]([C@H]3O)([H])[C@H](N(C)C)C(O)=C1C(N)=O.O.O
  MOE2011           2D

 37 38  0  0  1  0  0  0  0  0999 V2000
    0.0000    0.0000    0.0000 O   0  0  0  0  0  0  0  0  0  0  0  0
    0.7490    1.2990    0.0000 C   0  0  0  0  0  0  0  0  0  0  0  0
   -0.0010    2.5980    0.0000 C   0  0  2  0  0  0  0  0  0  0  0  0
   -1.5010    2.5970    0.0000 C   0  0  0  0  0  0  0  0  0  0  0  0
   -2.2510    1.2980    0.0000 O   0  0  0  0  0  0  0  0  0  0  0  0
   -2.2520    3.8960    0.0000 C   0  0  0  0  0  0  0  0  0  0  0  0
   -1.5020    5.1950    0.0000 C   0  0  1  0  0  0  0  0  0  0  0  0
   -2.7020    5.1950    0.0000 H   0  0  0  0  0  0  0  0  0  0  0  0
   -2.2530    6.4940    0.0000 C   0  0  1  0  0  0  0  0  0  0  0  0
   -0.9540    7.2450    0.0000 O   0  0  0  0  0  0  0  0  0  0  0  0
   -2.2540    7.9940    0.0000 C   0  0  0  0  0  0  0  0  0  0  0  0
   -3.7530    6.4930    0.0000 C   0  0  0  0  0  0  0  0  0  0  0  0
   -4.5020    5.1940    0.0000 C   0  0  0  0  0  0  0  0  0  0  0  0
   -6.0020    5.1930    0.0000 C   0  0  0  0  0  0  0  0  0  0  0  0
   -6.7520    3.8940    0.0000 O   0  0  0  0  0  0  0  0  0  0  0  0
   -6.7530    6.4920    0.0000 C   0  0  0  0  0  0  0  0  0  0  0  0
   -6.0040    7.7910    0.0000 C   0  0  0  0  0  0  0  0  0  0  0  0
   -4.5040    7.7920    0.0000 C   0  0  0  0  0  0  0  0  0  0  0  0
   -3.7520    3.8950    0.0000 C   0  0  0  0  0  0  0  0  0  0  0  0
   -4.5010    2.5960    0.0000 O   0  0  0  0  0  0  0  0  0  0  0  0
   -0.7510    1.2990    0.0000 O   0  0  0  0  0  0  0  0  0  0  0  0
    0.7480    3.8970    0.0000 C   0  0  1  0  0  0  0  0  0  0  0  0
   -0.0020    5.1960    0.0000 C   0  0  1  0  0  0  0  0  0  0  0  0
    0.7470    6.4960    0.0000 O   0  0  0  0  0  0  0  0  0  0  0  0
    1.3480    4.9370    0.0000 H   0  0  0  0  0  0  0  0  0  0  0  0
    2.2480    3.8980    0.0000 C   0  0  2  0  0  0  0  0  0  0  0  0
    2.9980    5.1980    0.0000 N   0  0  0  0  0  0  0  0  0  0  0  0
    2.2470    6.4960    0.0000 C   0  0  0  0  0  0  0  0  0  0  0  0
    4.4980    5.1980    0.0000 C   0  0  0  0  0  0  0  0  0  0  0  0
    2.9990    2.5990    0.0000 C   0  0  0  0  0  0  0  0  0  0  0  0
    4.4990    2.6000    0.0000 O   0  0  0  0  0  0  0  0  0  0  0  0
    2.2490    1.3000    0.0000 C   0  0  0  0  0  0  0  0  0  0  0  0
    3.0000    0.0010    0.0000 C   0  0  0  0  0  0  0  0  0  0  0  0
    2.2510   -1.2980    0.0000 N   0  0  0  0  0  0  0  0  0  0  0  0
    4.5000    0.0020    0.0000 O   0  0  0  0  0  0  0  0  0  0  0  0
    0.3470   -1.9700    0.0000 O   0  0  0  0  0  0  0  0  0  0  0  0
   -3.2510   -0.4340    0.0000 O   0  0  0  0  0  0  0  0  0  0  0  0
  1  2  2  0  0  0  0
  3  2  1  1  0  0  0
  2 32  1  0  0  0  0
  3  4  1  0  0  0  0
  3 21  1  6  0  0  0
  3 22  1  0  0  0  0
  4  5  1  0  0  0  0
  4  6  2  0  0  0  0
  7  6  1  1  0  0  0
  6 19  1  0  0  0  0
  7  8  1  6  0  0  0
  7  9  1  0  0  0  0
  7 23  1  0  0  0  0
  9 10  1  1  0  0  0
  9 11  1  6  0  0  0
  9 12  1  0  0  0  0
 12 13  1  0  0  0  0
 12 18  2  0  0  0  0
 13 14  2  0  0  0  0
 13 19  1  0  0  0  0
 14 15  1  0  0  0  0
 14 16  1  0  0  0  0
 16 17  2  0  0  0  0
 17 18  1  0  0  0  0
 19 20  2  0  0  0  0
 22 23  1  0  0  0  0
 22 25  1  6  0  0  0
 22 26  1  0  0  0  0
 23 24  1  6  0  0  0
 26 27  1  6  0  0  0
 26 30  1  0  0  0  0
 27 28  1  0  0  0  0
 27 29  1  0  0  0  0
 30 31  1  0  0  0  0
 30 32  2  0  0  0  0
 32 33  1  0  0  0  0
 33 34  1  0  0  0  0
 33 35  2  0  0  0  0
M  END
>  <DSSTox_RID>
40317

>  <DSSTox_CID>
3412

>  <apol>
68.412201

>  <a_acc>
12

>  <a_acid>
0

>  <a_aro>
6

>  <a_base>
0

>  <a_count>
63

>  <a_don>
11

>  <a_heavy>
35

>  <a_hyd>
19

>  <a_IC>
103.80145

>  <a_ICM>
1.6476421

>  <a_nB>
0

>  <a_nBr>
0

>  <a_nC>
22

>  <a_nCl>
0

>  <a_nF>
0

>  <a_nH>
28

>  <a_nI>
0

>  <a_nN>
2

>  <a_nO>
11

>  <a_nP>
0

>  <a_nS>
0

>  <balabanJ>
2.0642526

>  <BCUT_PEOE_0>
-2.7790318

>  <BCUT_PEOE_1>
-0.58203769

>  <BCUT_PEOE_2>
0.63327342

>  <BCUT_PEOE_3>
2.8553288

>  <BCUT_SLOGP_0>
-2.8932712

>  <BCUT_SLOGP_1>
-0.62717414

>  <BCUT_SLOGP_2>
0.56631738

>  <BCUT_SLOGP_3>
2.7908435

>  <BCUT_SMR_0>
-2.5551169

>  <BCUT_SMR_1>
-0.41819116

>  <BCUT_SMR_2>
0.77997285

>  <BCUT_SMR_3>
3.071291

>  <bpol>
30.971796

>  <b_1rotN>
2

>  <b_1rotR>
0.055555556

>  <b_ar>
6

>  <b_count>
64

>  <b_double>
5

>  <b_heavy>
36

>  <b_rotN>
2

>  <b_rotR>
0.055555556

>  <b_single>
53

>  <b_triple>
0

>  <chi0>
24.781574

>  <chi0v>
18.974043

>  <chi0v_C>
13.041451

>  <chi0_C>
14.204225

>  <chi1>
15.200042

>  <chi1v>
10.078624

>  <chi1v_C>
6.6487174

>  <chi1_C>
8.0932055

>  <chiral>
6

>  <chiral_u>
0

>  <density>
0.93856728

>  <diameter>
35

>  <FCharge>
0

>  <GCUT_PEOE_0>
-0.85135698

>  <GCUT_PEOE_1>
-0.46405283

>  <GCUT_PEOE_2>
0.11443876

>  <GCUT_PEOE_3>
3.1589351

>  <GCUT_SLOGP_0>
-1.3705225

>  <GCUT_SLOGP_1>
-0.44616738

>  <GCUT_SLOGP_2>
0.056421306

>  <GCUT_SLOGP_3>
3.1263175

>  <GCUT_SMR_0>
-0.52397472

>  <GCUT_SMR_1>
-0.24175224

>  <GCUT_SMR_2>
0.22694802

>  <GCUT_SMR_3>
3.3910396

>  <Kier1>
31.219135

>  <Kier2>
10.285

>  <Kier3>
4.1134214

>  <KierA1>
25.188972

>  <KierA2>
8.2431021

>  <KierA3>
3.2808535

>  <KierFlex>
5.9324365

>  <lip_acc>
13

>  <lip_don>
12

>  <lip_druglike>
0

>  <lip_violation>
2

>  <logP(o/w)>
-1.457

>  <logS>
-2.1870999

>  <mr>
11.830583

>  <mutagenic>
0

>  <nmol>
3

>  <opr_brigid>
21

>  <opr_leadlike>
0

>  <opr_nring>
4

>  <opr_nrot>
2

>  <opr_violation>
3

>  <PC+>
0

>  <PC->
0

>  <PEOE_PC+>
2.4389553

>  <PEOE_PC->
-2.4389553

>  <PEOE_RPC+>
0.12355867

>  <PEOE_RPC->
0.11813307

>  <PEOE_VSA+0>
123.23346

>  <PEOE_VSA+1>
70.007462

>  <PEOE_VSA+2>
34.283649

>  <PEOE_VSA+3>
16.917038

>  <PEOE_VSA+4>
8.458519

>  <PEOE_VSA+5>
0

>  <PEOE_VSA+6>
12.949531

>  <PEOE_VSA-0>
65.068665

>  <PEOE_VSA-1>
0

>  <PEOE_VSA-2>
17.742489

>  <PEOE_VSA-3>
40.700764

>  <PEOE_VSA-4>
40.700764

>  <PEOE_VSA-5>
40.700764

>  <PEOE_VSA-6>
0

>  <PEOE_VSA_FHYD>
0.75608814

>  <PEOE_VSA_FNEG>
0.36928159

>  <PEOE_VSA_FPNEG>
0.19312209

>  <PEOE_VSA_FPOL>
0.24391189

>  <PEOE_VSA_FPOS>
0.63071841

>  <PEOE_VSA_FPPOS>
0.050789803

>  <PEOE_VSA_HYD>
318.69336

>  <PEOE_VSA_NEG>
155.65327

>  <PEOE_VSA_PNEG>
81.401527

>  <PEOE_VSA_POL>
102.80958

>  <PEOE_VSA_POS>
265.84967

>  <PEOE_VSA_PPOS>
21.408051

>  <petitjean>
0

>  <petitjeanSC>
0

>  <Q_PC+>
0

>  <Q_PC->
0

>  <Q_RPC+>
0

>  <Q_RPC->
0

>  <Q_VSA_FHYD>
1

>  <Q_VSA_FNEG>
0

>  <Q_VSA_FPNEG>
0

>  <Q_VSA_FPOL>
0

>  <Q_VSA_FPOS>
1

>  <Q_VSA_FPPOS>
0

>  <Q_VSA_HYD>
421.50293

>  <Q_VSA_NEG>
0

>  <Q_VSA_PNEG>
0

>  <Q_VSA_POL>
0

>  <Q_VSA_POS>
421.50293

>  <Q_VSA_PPOS>
0

>  <radius>
35

>  <reactive>
1

>  <rings>
4

>  <RPC+>
0

>  <RPC->
0

>  <rsynth>
1

>  <SlogP>
-2.5815001

>  <SlogP_VSA0>
213.97922

>  <SlogP_VSA1>
19.75832

>  <SlogP_VSA2>
58.175049

>  <SlogP_VSA3>
50.770454

>  <SlogP_VSA4>
39.054958

>  <SlogP_VSA5>
82.652382

>  <SlogP_VSA6>
0

>  <SlogP_VSA7>
52.929554

>  <SlogP_VSA8>
0

>  <SlogP_VSA9>
38.569443

>  <SMR>
11.82753

>  <SMR_VSA0>
71.586647

>  <SMR_VSA1>
104.66522

>  <SMR_VSA2>
59.592045

>  <SMR_VSA3>
118.46433

>  <SMR_VSA4>
32.897186

>  <SMR_VSA5>
52.929554

>  <SMR_VSA6>
16.634007

>  <SMR_VSA7>
99.120392

>  <TPSA>
201.85001

>  <VAdjEq>
0.32256484

>  <VAdjMa>
6.1699252

>  <VDistEq>
3.3215735

>  <VDistMa>
9.5087318

>  <vdw_area>
421.50293

>  <vdw_vol>
501.04132

>  <vsa_acc>
13.566921

>  <vsa_acid>
0

>  <vsa_base>
0

>  <vsa_don>
17.742489

>  <vsa_hyd>
198.41772

>  <vsa_other>
29.86657

>  <vsa_pol>
189.10495

>  <Weight>
496.46899

>  <weinerPath>
4839

>  <weinerPol>
80

>  <zagreb>
192

$$$$
O[C@H]([C@H](Cc1ccc(Cl)cc1)n2cncn2)C(C)(C)C
  MOE2011           2D

 20 21  0  0  1  0  0  0  0  0999 V2000
    0.0000    0.0000    0.0000 O   0  0  0  0  0  0  0  0  0  0  0  0
    1.2990    0.7500    0.0000 C   0  0  2  0  0  0  0  0  0  0  0  0
    2.5980    0.0000    0.0000 C   0  0  2  0  0  0  0  0  0  0  0  0
    3.8970    0.7500    0.0000 C   0  0  0  0  0  0  0  0  0  0  0  0
    5.1960    0.0000    0.0000 C   0  0  0  0  0  0  0  0  0  0  0  0
    6.4950    0.7490    0.0000 C   0  0  0  0  0  0  0  0  0  0  0  0
    7.7940   -0.0010    0.0000 C   0  0  0  0  0  0  0  0  0  0  0  0
    7.7940   -1.5010    0.0000 C   0  0  0  0  0  0  0  0  0  0  0  0
    9.0930   -2.2510    0.0000 Cl  0  0  0  0  0  0  0  0  0  0  0  0
    6.4950   -2.2510    0.0000 C   0  0  0  0  0  0  0  0  0  0  0  0
    5.1960   -1.5000    0.0000 C   0  0  0  0  0  0  0  0  0  0  0  0
    2.5980   -1.5000    0.0000 N   0  0  0  0  0  0  0  0  0  0  0  0
    1.3840   -2.3820    0.0000 C   0  0  0  0  0  0  0  0  0  0  0  0
    1.8480   -3.8080    0.0000 N   0  0  0  0  0  0  0  0  0  0  0  0
    3.3480   -3.8090    0.0000 C   0  0  0  0  0  0  0  0  0  0  0  0
    3.8110   -2.3820    0.0000 N   0  0  0  0  0  0  0  0  0  0  0  0
    1.2990    2.2500    0.0000 C   0  0  0  0  0  0  0  0  0  0  0  0
    2.7990    2.2500    0.0000 C   0  0  0  0  0  0  0  0  0  0  0  0
   -0.2010    2.2500    0.0000 C   0  0  0  0  0  0  0  0  0  0  0  0
    1.2990    3.7500    0.0000 C   0  0  0  0  0  0  0  0  0  0  0  0
  2  1  1  1  0  0  0
  2  3  1  0  0  0  0
  2 17  1  0  0  0  0
  3  4  1  6  0  0  0
  3 12  1  0  0  0  0
  4  5  1  0  0  0  0
  5  6  1  0  0  0  0
  5 11  2  0  0  0  0
  6  7  2  0  0  0  0
  7  8  1  0  0  0  0
  8  9  1  0  0  0  0
  8 10  2  0  0  0  0
 10 11  1  0  0  0  0
 12 13  1  0  0  0  0
 12 16  1  0  0  0  0
 13 14  2  0  0  0  0
 14 15  1  0  0  0  0
 15 16  2  0  0  0  0
 17 18  1  0  0  0  0
 17 19  1  0  0  0  0
 17 20  1  0  0  0  0
M  END
>  <DSSTox_RID>
40547

>  <DSSTox_CID>
4242

>  <apol>
46.01786

>  <a_acc>
3

>  <a_acid>
0

>  <a_aro>
11

>  <a_base>
0

>  <a_count>
40

>  <a_don>
1

>  <a_heavy>
20

>  <a_hyd>
14

>  <a_IC>
63.080315

>  <a_ICM>
1.5770079

>  <a_nB>
0

>  <a_nBr>
0

>  <a_nC>
15

>  <a_nCl>
1

>  <a_nF>
0

>  <a_nH>
20

>  <a_nI>
0

>  <a_nN>
3

>  <a_nO>
1

>  <a_nP>
0

>  <a_nS>
0

>  <balabanJ>
1.9901049

>  <BCUT_PEOE_0>
-2.7370672

>  <BCUT_PEOE_1>
-0.55099714

>  <BCUT_PEOE_2>
0.54844135

>  <BCUT_PEOE_3>
2.7273819

>  <BCUT_SLOGP_0>
-2.7205386

>  <BCUT_SLOGP_1>
-0.36502817

>  <BCUT_SLOGP_2>
0.53963232

>  <BCUT_SLOGP_3>
2.7665255

>  <BCUT_SMR_0>
-2.5009036

>  <BCUT_SMR_1>
-0.23923546

>  <BCUT_SMR_2>
0.83564568

>  <BCUT_SMR_3>
2.9601774

>  <bpol>
25.584141

>  <b_1rotN>
4

>  <b_1rotR>
0.19047619

>  <b_ar>
11

>  <b_count>
41

>  <b_double>
0

>  <b_heavy>
21

>  <b_rotN>
5

>  <b_rotR>
0.23809524

>  <b_single>
30

>  <b_triple>
0

>  <chi0>
14.750712

>  <chi0v>
12.748656

>  <chi0v_C>
9.8259087

>  <chi0_C>
10.759149

>  <chi1>
9.376029

>  <chi1v>
7.0213175

>  <chi1v_C>
4.7051773

>  <chi1_C>
5.5714984

>  <chiral>
2

>  <chiral_u>
0

>  <density>
0.8171944

>  <diameter>
9

>  <FCharge>
0

>  <GCUT_PEOE_0>
-0.82062227

>  <GCUT_PEOE_1>
-0.37106487

>  <GCUT_PEOE_2>
0.017571881

>  <GCUT_PEOE_3>
2.7183061

>  <GCUT_SLOGP_0>
-0.89635098

>  <GCUT_SLOGP_1>
-0.26386139

>  <GCUT_SLOGP_2>
-0.0070343767

>  <GCUT_SLOGP_3>
2.7803195

>  <GCUT_SMR_0>
-0.53238297

>  <GCUT_SMR_1>
-0.16873956

>  <GCUT_SMR_2>
0.19305076

>  <GCUT_SMR_3>
2.9546635

>  <Kier1>
16.371881

>  <Kier2>
6.8400002

>  <Kier3>
4.4963264

>  <KierA1>
13.74516

>  <KierA2>
5.6862888

>  <KierA3>
3.7110548

>  <KierFlex>
3.9079475

>  <lip_acc>
4

>  <lip_don>
1

>  <lip_druglike>
1

>  <lip_violation>
0

>  <logP(o/w)>
2.5

>  <logS>
-3.17103

>  <mr>
8.2031174

>  <mutagenic>
0

>  <nmol>
1

>  <opr_brigid>
11

>  <opr_leadlike>
1

>  <opr_nring>
2

>  <opr_nrot>
5

>  <opr_violation>
0

>  <PC+>
0

>  <PC->
0

>  <PEOE_PC+>
0.90509909

>  <PEOE_PC->
-0.90509909

>  <PEOE_RPC+>
0.24415882

>  <PEOE_RPC->
0.25319147

>  <PEOE_VSA+0>
119.84234

>  <PEOE_VSA+1>
20.328241

>  <PEOE_VSA+2>
6.6995511

>  <PEOE_VSA+3>
33.249039

>  <PEOE_VSA+4>
24.790518

>  <PEOE_VSA+5>
0

>  <PEOE_VSA+6>
0

>  <PEOE_VSA-0>
33.825527

>  <PEOE_VSA-1>
29.581947

>  <PEOE_VSA-2>
9.4210396

>  <PEOE_VSA-3>
0

>  <PEOE_VSA-4>
19.249496

>  <PEOE_VSA-5>
0

>  <PEOE_VSA-6>
0

>  <PEOE_VSA_FHYD>
0.85171098

>  <PEOE_VSA_FNEG>
0.31003982

>  <PEOE_VSA_FPNEG>
0.064815804

>  <PEOE_VSA_FPOL>
0.14828902

>  <PEOE_VSA_FPOS>
0.68996018

>  <PEOE_VSA_FPPOS>
0.083473213

>  <PEOE_VSA_HYD>
252.94768

>  <PEOE_VSA_NEG>
92.078011

>  <PEOE_VSA_PNEG>
19.249496

>  <PEOE_VSA_POL>
44.040016

>  <PEOE_VSA_POS>
204.90968

>  <PEOE_VSA_PPOS>
24.790518

>  <petitjean>
0.44444445

>  <petitjeanSC>
0.80000001

>  <Q_PC+>
0

>  <Q_PC->
0

>  <Q_RPC+>
0

>  <Q_RPC->
0

>  <Q_VSA_FHYD>
1

>  <Q_VSA_FNEG>
0

>  <Q_VSA_FPNEG>
0

>  <Q_VSA_FPOL>
0

>  <Q_VSA_FPOS>
1

>  <Q_VSA_FPPOS>
0

>  <Q_VSA_HYD>
296.9877

>  <Q_VSA_NEG>
0

>  <Q_VSA_PNEG>
0

>  <Q_VSA_POL>
0

>  <Q_VSA_POS>
296.9877

>  <Q_VSA_PPOS>
0

>  <radius>
5

>  <reactive>
0

>  <rings>
2

>  <RPC+>
0

>  <RPC->
0

>  <rsynth>
0.64999998

>  <SlogP>
3.2177701

>  <SlogP_VSA0>
25.385227

>  <SlogP_VSA1>
35.225109

>  <SlogP_VSA2>
6.4686494

>  <SlogP_VSA3>
0

>  <SlogP_VSA4>
3.185575

>  <SlogP_VSA5>
18.868406

>  <SlogP_VSA6>
3.5006065

>  <SlogP_VSA7>
104.1438

>  <SlogP_VSA8>
3.9819686

>  <SlogP_VSA9>
139.12669

>  <SMR>
7.9787798

>  <SMR_VSA0>
0

>  <SMR_VSA1>
60.610332

>  <SMR_VSA2>
0

>  <SMR_VSA3>
17.136799

>  <SMR_VSA4>
0

>  <SMR_VSA5>
123.0122

>  <SMR_VSA6>
0

>  <SMR_VSA7>
139.12669

>  <TPSA>
50.939999

>  <VAdjEq>
0.48464775

>  <VAdjMa>
5.3923173

>  <VDistEq>
3.0254285

>  <VDistMa>
8.3720274

>  <vdw_area>
296.9877

>  <vdw_vol>
334.85056

>  <vsa_acc>
15.103616

>  <vsa_acid>
0

>  <vsa_base>
0

>  <vsa_don>
0

>  <vsa_hyd>
218.73613

>  <vsa_other>
49.581036

>  <vsa_pol>
28.670536

>  <Weight>
293.798

>  <weinerPath>
802

>  <weinerPol>
27

>  <zagreb>
102

$$$$
S=P(OC1=CC=C(C=C1)[N+](=O)[O-])(OCC)OCC
  MOE2011           2D

 18 18  0  0  0  0  0  0  0  0999 V2000
    0.0000    0.0000    0.0000 S   0  0  0  0  0  0  0  0  0  0  0  0
    0.7600   -1.2930    0.0000 P   0  0  0  0  0  0  0  0  0  0  0  0
   -0.5340   -2.0530    0.0000 O   0  0  0  0  0  0  0  0  0  0  0  0
   -1.8380   -1.3130    0.0000 C   0  0  0  0  0  0  0  0  0  0  0  0
   -1.8500    0.1870    0.0000 C   0  0  0  0  0  0  0  0  0  0  0  0
   -3.1540    0.9280    0.0000 C   0  0  0  0  0  0  0  0  0  0  0  0
   -4.4480    0.1680    0.0000 C   0  0  0  0  0  0  0  0  0  0  0  0
   -4.4360   -1.3320    0.0000 C   0  0  0  0  0  0  0  0  0  0  0  0
   -3.1320   -2.0720    0.0000 C   0  0  0  0  0  0  0  0  0  0  0  0
   -5.7520    0.9080    0.0000 N   0  3  0  0  0  0  0  0  0  0  0  0
   -5.7630    2.4080    0.0000 O   0  0  0  0  0  0  0  0  0  0  0  0
   -7.0460    0.1490    0.0000 O   0  5  0  0  0  0  0  0  0  0  0  0
    2.0530   -0.5340    0.0000 O   0  0  0  0  0  0  0  0  0  0  0  0
    2.0420    0.9660    0.0000 C   0  0  0  0  0  0  0  0  0  0  0  0
    3.3350    1.7260    0.0000 C   0  0  0  0  0  0  0  0  0  0  0  0
    1.5190   -2.5870    0.0000 O   0  0  0  0  0  0  0  0  0  0  0  0
    3.0190   -2.5760    0.0000 C   0  0  0  0  0  0  0  0  0  0  0  0
    3.7790   -3.8690    0.0000 C   0  0  0  0  0  0  0  0  0  0  0  0
  1  2  2  0  0  0  0
  2  3  1  0  0  0  0
  2 13  1  0  0  0  0
  2 16  1  0  0  0  0
  3  4  1  0  0  0  0
  4  5  1  0  0  0  0
  4  9  2  0  0  0  0
  5  6  2  0  0  0  0
  6  7  1  0  0  0  0
  7  8  2  0  0  0  0
  7 10  1  0  0  0  0
  8  9  1  0  0  0  0
 10 11  2  0  0  0  0
 10 12  1  0  0  0  0
 13 14  1  0  0  0  0
 14 15  1  0  0  0  0
 16 17  1  0  0  0  0
 17 18  1  0  0  0  0
M  CHG  1  10   1
M  CHG  1  12  -1
M  END
>  <DSSTox_RID>
40548

>  <DSSTox_CID>
1100

>  <apol>
38.575104

>  <a_acc>
3

>  <a_acid>
0

>  <a_aro>
6

>  <a_base>
0

>  <a_count>
32

>  <a_don>
0

>  <a_heavy>
18

>  <a_hyd>
11

>  <a_IC>
61.868111

>  <a_ICM>
1.9333785

>  <a_nB>
0

>  <a_nBr>
0

>  <a_nC>
10

>  <a_nCl>
0

>  <a_nF>
0

>  <a_nH>
14

>  <a_nI>
0

>  <a_nN>
1

>  <a_nO>
5

>  <a_nP>
1

>  <a_nS>
1

>  <balabanJ>
2.4274604

>  <BCUT_PEOE_0>
-2.4573791

>  <BCUT_PEOE_1>
-0.4588519

>  <BCUT_PEOE_2>
0.32931417

>  <BCUT_PEOE_3>
2.4984648

>  <BCUT_SLOGP_0>
-2.4135706

>  <BCUT_SLOGP_1>
-0.31823775

>  <BCUT_SLOGP_2>
0.44876575

>  <BCUT_SLOGP_3>
2.6689808

>  <BCUT_SMR_0>
-2.2089028

>  <BCUT_SMR_1>
-0.15160914

>  <BCUT_SMR_2>
0.63438481

>  <BCUT_SMR_3>
2.7979348

>  <bpol>
28.648897

>  <b_1rotN>
7

>  <b_1rotR>
0.3888889

>  <b_ar>
6

>  <b_count>
32

>  <b_double>
1

>  <b_heavy>
18

>  <b_rotN>
7

>  <b_rotR>
0.3888889

>  <b_single>
25

>  <b_triple>
0

>  <chi0>
13.596012

>  <chi0v>
11.778456

>  <chi0v_C>
6.7236147

>  <chi0_C>
7.3973413

>  <chi1>
8.5041494

>  <chi1v>
7.8921456

>  <chi1v_C>
3.2355807

>  <chi1_C>
4.0472069

>  <chiral>
0

>  <chiral_u>
0

>  <density>
0.95445025

>  <diameter>
10

>  <FCharge>
0

>  <GCUT_PEOE_0>
-0.72655761

>  <GCUT_PEOE_1>
-0.40291294

>  <GCUT_PEOE_2>
-0.064338334

>  <GCUT_PEOE_3>
2.3159502

>  <GCUT_SLOGP_0>
-0.80908972

>  <GCUT_SLOGP_1>
-0.2575846

>  <GCUT_SLOGP_2>
0.079794906

>  <GCUT_SLOGP_3>
2.4673674

>  <GCUT_SMR_0>
-0.51723373

>  <GCUT_SMR_1>
-0.15922302

>  <GCUT_SMR_2>
0.18760051

>  <GCUT_SMR_3>
2.5863137

>  <Kier1>
16.055555

>  <Kier2>
7.5555553

>  <Kier3>
5.2674899

>  <KierA1>
15.84546

>  <KierA2>
7.4506521

>  <KierA3>
5.1912494

>  <KierFlex>
6.5588341

>  <lip_acc>
6

>  <lip_don>
0

>  <lip_druglike>
1

>  <lip_violation>
0

>  <logP(o/w)>
3.066

>  <logS>
-4.2659502

>  <mr>
7.2789721

>  <mutagenic>
1

>  <nmol>
1

>  <opr_brigid>
6

>  <opr_leadlike>
1

>  <opr_nring>
1

>  <opr_nrot>
7

>  <opr_violation>
0

>  <PC+>
0

>  <PC->
0

>  <PEOE_PC+>
1.5562057

>  <PEOE_PC->
-1.5562057

>  <PEOE_RPC+>
0.21395598

>  <PEOE_RPC->
0.2941438

>  <PEOE_VSA+0>
90.433891

>  <PEOE_VSA+1>
35.645023

>  <PEOE_VSA+2>
0

>  <PEOE_VSA+3>
8.458519

>  <PEOE_VSA+4>
44.116947

>  <PEOE_VSA+5>
6.6995511

>  <PEOE_VSA+6>
15.590208

>  <PEOE_VSA-0>
0

>  <PEOE_VSA-1>
0

>  <PEOE_VSA-2>
0

>  <PEOE_VSA-3>
4.6659718

>  <PEOE_VSA-4>
9.3319435

>  <PEOE_VSA-5>
33.931049

>  <PEOE_VSA-6>
33.008488

>  <PEOE_VSA_FHYD>
0.49383643

>  <PEOE_VSA_FNEG>
0.2871328

>  <PEOE_VSA_FPNEG>
0.27057984

>  <PEOE_VSA_FPOL>
0.50616354

>  <PEOE_VSA_FPOS>
0.7128672

>  <PEOE_VSA_FPPOS>
0.23558369

>  <PEOE_VSA_HYD>
139.2034

>  <PEOE_VSA_NEG>
80.937454

>  <PEOE_VSA_PNEG>
76.271477

>  <PEOE_VSA_POL>
142.67819

>  <PEOE_VSA_POS>
200.94414

>  <PEOE_VSA_PPOS>
66.406708

>  <petitjean>
0.5

>  <petitjeanSC>
1

>  <Q_PC+>
0

>  <Q_PC->
0

>  <Q_RPC+>
0

>  <Q_RPC->
0

>  <Q_VSA_FHYD>
1

>  <Q_VSA_FNEG>
0

>  <Q_VSA_FPNEG>
0

>  <Q_VSA_FPOL>
0

>  <Q_VSA_FPOS>
1

>  <Q_VSA_FPPOS>
0

>  <Q_VSA_HYD>
281.88159

>  <Q_VSA_NEG>
0

>  <Q_VSA_PNEG>
0

>  <Q_VSA_POL>
0

>  <Q_VSA_POS>
281.88159

>  <Q_VSA_PPOS>
0

>  <radius>
5

>  <reactive>
0

>  <rings>
1

>  <RPC+>
0

>  <RPC->
0

>  <rsynth>
1

>  <SlogP>
3.2711

>  <SlogP_VSA0>
6.9216304

>  <SlogP_VSA1>
7.0856161

>  <SlogP_VSA2>
56.537235

>  <SlogP_VSA3>
92.787521

>  <SlogP_VSA4>
0

>  <SlogP_VSA5>
0

>  <SlogP_VSA6>
0

>  <SlogP_VSA7>
70.572739

>  <SlogP_VSA8>
0

>  <SlogP_VSA9>
87.579338

>  <SMR>
7.1261401

>  <SMR_VSA0>
20.928877

>  <SMR_VSA1>
6.9216304

>  <SMR_VSA2>
50.935009

>  <SMR_VSA3>
5.2434282

>  <SMR_VSA4>
2.7567475

>  <SMR_VSA5>
70.572739

>  <SMR_VSA6>
41.852516

>  <SMR_VSA7>
122.27314

>  <TPSA>
105.6

>  <VAdjEq>
0.50325835

>  <VAdjMa>
5.1699252

>  <VDistEq>
3.155273

>  <VDistMa>
8.0266657

>  <vdw_area>
281.88159

>  <vdw_vol>
290.37869

>  <vsa_acc>
13.997915

>  <vsa_acid>
0

>  <vsa_base>
0

>  <vsa_don>
0

>  <vsa_hyd>
185.35393

>  <vsa_other>
82.529739

>  <vsa_pol>
13.997915

>  <Weight>
291.26401

>  <weinerPath>
661

>  <weinerPol>
24

>  <zagreb>
84

$$$$
S=P(OC1=CC=C(C=C1)[N+](=O)[O-])(OC)OC
  MOE2011           2D

 16 16  0  0  0  0  0  0  0  0999 V2000
    0.0000    0.0000    0.0000 S   0  0  0  0  0  0  0  0  0  0  0  0
   -1.0670   -1.0540    0.0000 P   0  0  0  0  0  0  0  0  0  0  0  0
   -0.0130   -2.1210    0.0000 O   0  0  0  0  0  0  0  0  0  0  0  0
    1.4380   -1.7420    0.0000 C   0  0  0  0  0  0  0  0  0  0  0  0
    2.4920   -2.8100    0.0000 C   0  0  0  0  0  0  0  0  0  0  0  0
    3.9430   -2.4300    0.0000 C   0  0  0  0  0  0  0  0  0  0  0  0
    4.3410   -0.9840    0.0000 C   0  0  0  0  0  0  0  0  0  0  0  0
    3.2870    0.0830    0.0000 C   0  0  0  0  0  0  0  0  0  0  0  0
    1.8350   -0.2960    0.0000 C   0  0  0  0  0  0  0  0  0  0  0  0
    5.7920   -0.6050    0.0000 N   0  3  0  0  0  0  0  0  0  0  0  0
    6.1890    0.8410    0.0000 O   0  0  0  0  0  0  0  0  0  0  0  0
    6.8460   -1.6720    0.0000 O   0  5  0  0  0  0  0  0  0  0  0  0
   -2.1350   -2.1080    0.0000 O   0  0  0  0  0  0  0  0  0  0  0  0
   -3.5810   -1.7110    0.0000 C   0  0  0  0  0  0  0  0  0  0  0  0
   -2.1210    0.0130    0.0000 O   0  0  0  0  0  0  0  0  0  0  0  0
   -1.7240    1.4600    0.0000 C   0  0  0  0  0  0  0  0  0  0  0  0
  1  2  2  0  0  0  0
  2  3  1  0  0  0  0
  2 13  1  0  0  0  0
  2 15  1  0  0  0  0
  3  4  1  0  0  0  0
  4  5  1  0  0  0  0
  4  9  2  0  0  0  0
  5  6  2  0  0  0  0
  6  7  1  0  0  0  0
  7  8  2  0  0  0  0
  7 10  1  0  0  0  0
  8  9  1  0  0  0  0
 10 11  2  0  0  0  0
 10 12  1  0  0  0  0
 13 14  1  0  0  0  0
 15 16  1  0  0  0  0
M  CHG  1  10   1
M  CHG  1  12  -1
M  END
>  <DSSTox_RID>
40524

>  <DSSTox_CID>
855

>  <apol>
32.387932

>  <a_acc>
3

>  <a_acid>
0

>  <a_aro>
6

>  <a_base>
0

>  <a_count>
26

>  <a_don>
0

>  <a_heavy>
16

>  <a_hyd>
9

>  <a_IC>
53.382511

>  <a_ICM>
2.0531735

>  <a_nB>
0

>  <a_nBr>
0

>  <a_nC>
8

>  <a_nCl>
0

>  <a_nF>
0

>  <a_nH>
10

>  <a_nI>
0

>  <a_nN>
1

>  <a_nO>
5

>  <a_nP>
1

>  <a_nS>
1

>  <balabanJ>
2.3809984

>  <BCUT_PEOE_0>
-2.3615606

>  <BCUT_PEOE_1>
-0.46849832

>  <BCUT_PEOE_2>
0.33182749

>  <BCUT_PEOE_3>
2.4129639

>  <BCUT_SLOGP_0>
-2.2838516

>  <BCUT_SLOGP_1>
-0.33210942

>  <BCUT_SLOGP_2>
0.45015612

>  <BCUT_SLOGP_3>
2.6368482

>  <BCUT_SMR_0>
-2.0701139

>  <BCUT_SMR_1>
-0.15842748

>  <BCUT_SMR_2>
0.64018941

>  <BCUT_SMR_3>
2.7512186

>  <bpol>
24.27607

>  <b_1rotN>
5

>  <b_1rotR>
0.3125

>  <b_ar>
6

>  <b_count>
26

>  <b_double>
1

>  <b_heavy>
16

>  <b_rotN>
5

>  <b_rotR>
0.3125

>  <b_single>
19

>  <b_triple>
0

>  <chi0>
12.181798

>  <chi0v>
10.364242

>  <chi0v_C>
5.309401

>  <chi0_C>
5.9831276

>  <chi1>
7.504149

>  <chi1v>
6.7170782

>  <chi1v_C>
1.8213673

>  <chi1_C>
2.6329932

>  <chiral>
0

>  <chiral_u>
0

>  <density>
0.99923521

>  <diameter>
9

>  <FCharge>
0

>  <GCUT_PEOE_0>
-0.70103306

>  <GCUT_PEOE_1>
-0.41481784

>  <GCUT_PEOE_2>
-0.065349184

>  <GCUT_PEOE_3>
2.2090497

>  <GCUT_SLOGP_0>
-0.8090834

>  <GCUT_SLOGP_1>
-0.26546264

>  <GCUT_SLOGP_2>
0.07985957

>  <GCUT_SLOGP_3>
2.3726177

>  <GCUT_SMR_0>
-0.49113777

>  <GCUT_SMR_1>
-0.16675004

>  <GCUT_SMR_2>
0.18760051

>  <GCUT_SMR_3>
2.4863701

>  <Kier1>
14.0625

>  <Kier2>
6.0743804

>  <Kier3>
4.0767999

>  <KierA1>
13.85456

>  <KierA2>
5.978313

>  <KierA3>
4.0091863

>  <KierFlex>
5.176681

>  <lip_acc>
6

>  <lip_don>
0

>  <lip_druglike>
1

>  <lip_violation>
0

>  <logP(o/w)>
2.3840001

>  <logS>
-3.6115301

>  <mr>
6.3245611

>  <mutagenic>
1

>  <nmol>
1

>  <opr_brigid>
6

>  <opr_leadlike>
1

>  <opr_nring>
1

>  <opr_nrot>
5

>  <opr_violation>
0

>  <PC+>
0

>  <PC->
0

>  <PEOE_PC+>
1.5502727

>  <PEOE_PC->
-1.5502727

>  <PEOE_RPC+>
0.21490656

>  <PEOE_RPC->
0.29526719

>  <PEOE_VSA+0>
31.616989

>  <PEOE_VSA+1>
35.645023

>  <PEOE_VSA+2>
0

>  <PEOE_VSA+3>
8.458519

>  <PEOE_VSA+4>
71.316856

>  <PEOE_VSA+5>
6.6995511

>  <PEOE_VSA+6>
15.590208

>  <PEOE_VSA-0>
0

>  <PEOE_VSA-1>
0

>  <PEOE_VSA-2>
0

>  <PEOE_VSA-3>
13.997915

>  <PEOE_VSA-4>
0

>  <PEOE_VSA-5>
33.931049

>  <PEOE_VSA-6>
33.008488

>  <PEOE_VSA_FHYD>
0.35849437

>  <PEOE_VSA_FNEG>
0.3234075

>  <PEOE_VSA_FPNEG>
0.26747504

>  <PEOE_VSA_FPOL>
0.64150566

>  <PEOE_VSA_FPOS>
0.67659247

>  <PEOE_VSA_FPPOS>
0.37403059

>  <PEOE_VSA_HYD>
89.718445

>  <PEOE_VSA_NEG>
80.937454

>  <PEOE_VSA_PNEG>
66.939537

>  <PEOE_VSA_POL>
160.54616

>  <PEOE_VSA_POS>
169.32715

>  <PEOE_VSA_PPOS>
93.606621

>  <petitjean>
0.44444445

>  <petitjeanSC>
0.80000001

>  <Q_PC+>
0

>  <Q_PC->
0

>  <Q_RPC+>
0

>  <Q_RPC->
0

>  <Q_VSA_FHYD>
1

>  <Q_VSA_FNEG>
0

>  <Q_VSA_FPNEG>
0

>  <Q_VSA_FPOL>
0

>  <Q_VSA_FPOS>
1

>  <Q_VSA_FPPOS>
0

>  <Q_VSA_HYD>
250.2646

>  <Q_VSA_NEG>
0

>  <Q_VSA_PNEG>
0

>  <Q_VSA_POL>
0

>  <Q_VSA_POS>
250.2646

>  <Q_VSA_PPOS>
0

>  <radius>
5

>  <reactive>
0

>  <rings>
1

>  <RPC+>
0

>  <RPC->
0

>  <rsynth>
1

>  <SlogP>
2.4909

>  <SlogP_VSA0>
6.9216304

>  <SlogP_VSA1>
7.0856161

>  <SlogP_VSA2>
56.537235

>  <SlogP_VSA3>
50.935009

>  <SlogP_VSA4>
0

>  <SlogP_VSA5>
70.767738

>  <SlogP_VSA6>
0

>  <SlogP_VSA7>
70.572739

>  <SlogP_VSA8>
0

>  <SlogP_VSA9>
20.927311

>  <SMR>
6.2027402

>  <SMR_VSA0>
20.928877

>  <SMR_VSA1>
6.9216304

>  <SMR_VSA2>
50.935009

>  <SMR_VSA3>
5.2434282

>  <SMR_VSA4>
2.7567475

>  <SMR_VSA5>
70.572739

>  <SMR_VSA6>
0

>  <SMR_VSA7>
126.38885

>  <TPSA>
105.6

>  <VAdjEq>
0.54356444

>  <VAdjMa>
5

>  <VDistEq>
3.0079274

>  <VDistMa>
7.6744533

>  <vdw_area>
250.2646

>  <vdw_vol>
253.32373

>  <vsa_acc>
13.997915

>  <vsa_acid>
0

>  <vsa_base>
0

>  <vsa_don>
0

>  <vsa_hyd>
153.73694

>  <vsa_other>
82.529739

>  <vsa_pol>
13.997915

>  <Weight>
263.20999

>  <weinerPath>
473

>  <weinerPol>
22

>  <zagreb>
76

$$$$
[O-][N+](=O)c1c(C)c(C)cc([N+]([O-])=O)c1NC(CC)CC
  MOE2011           2D

 20 20  0  0  0  0  0  0  0  0999 V2000
    0.0000    0.0000    0.0000 O   0  5  0  0  0  0  0  0  0  0  0  0
   -1.3040    0.7420    0.0000 N   0  3  0  0  0  0  0  0  0  0  0  0
   -2.5980   -0.0160    0.0000 O   0  0  0  0  0  0  0  0  0  0  0  0
   -1.3130    2.2420    0.0000 C   0  0  0  0  0  0  0  0  0  0  0  0
   -0.0180    3.0000    0.0000 C   0  0  0  0  0  0  0  0  0  0  0  0
    1.2850    2.2580    0.0000 C   0  0  0  0  0  0  0  0  0  0  0  0
   -0.0270    4.5000    0.0000 C   0  0  0  0  0  0  0  0  0  0  0  0
    1.2670    5.2580    0.0000 C   0  0  0  0  0  0  0  0  0  0  0  0
   -1.3310    5.2420    0.0000 C   0  0  0  0  0  0  0  0  0  0  0  0
   -2.6250    4.4840    0.0000 C   0  0  0  0  0  0  0  0  0  0  0  0
   -3.7800    5.4410    0.0000 N   0  3  0  0  0  0  0  0  0  0  0  0
   -3.5290    6.9200    0.0000 O   0  5  0  0  0  0  0  0  0  0  0  0
   -5.1870    4.9200    0.0000 O   0  0  0  0  0  0  0  0  0  0  0  0
   -2.6160    2.9840    0.0000 C   0  0  0  0  0  0  0  0  0  0  0  0
   -3.7590    2.0130    0.0000 N   0  0  0  0  0  0  0  0  0  0  0  0
   -5.1720    2.5180    0.0000 C   0  0  0  0  0  0  0  0  0  0  0  0
   -5.4410    3.9930    0.0000 C   0  0  0  0  0  0  0  0  0  0  0  0
   -6.8540    4.4980    0.0000 C   0  0  0  0  0  0  0  0  0  0  0  0
   -6.3150    1.5470    0.0000 C   0  0  0  0  0  0  0  0  0  0  0  0
   -6.0460    0.0710    0.0000 C   0  0  0  0  0  0  0  0  0  0  0  0
  1  2  1  0  0  0  0
  2  3  2  0  0  0  0
  2  4  1  0  0  0  0
  4  5  1  0  0  0  0
  4 14  2  0  0  0  0
  5  6  1  0  0  0  0
  5  7  2  0  0  0  0
  7  8  1  0  0  0  0
  7  9  1  0  0  0  0
  9 10  2  0  0  0  0
 10 11  1  0  0  0  0
 10 14  1  0  0  0  0
 11 12  1  0  0  0  0
 11 13  2  0  0  0  0
 14 15  1  0  0  0  0
 15 16  1  0  0  0  0
 16 17  1  0  0  0  0
 16 19  1  0  0  0  0
 17 18  1  0  0  0  0
 19 20  1  0  0  0  0
M  CHG  1   1  -1
M  CHG  1   2   1
M  CHG  1  11   1
M  CHG  1  12  -1
M  END
>  <DSSTox_RID>
40549

>  <DSSTox_CID>
4245

>  <apol>
42.057068

>  <a_acc>
0

>  <a_acid>
0

>  <a_aro>
6

>  <a_base>
0

>  <a_count>
39

>  <a_don>
1

>  <a_heavy>
20

>  <a_hyd>
15

>  <a_IC>
64.559464

>  <a_ICM>
1.6553707

>  <a_nB>
0

>  <a_nBr>
0

>  <a_nC>
13

>  <a_nCl>
0

>  <a_nF>
0

>  <a_nH>
19

>  <a_nI>
0

>  <a_nN>
3

>  <a_nO>
4

>  <a_nP>
0

>  <a_nS>
0

>  <balabanJ>
3.0066891

>  <BCUT_PEOE_0>
-2.6607294

>  <BCUT_PEOE_1>
-0.29562002

>  <BCUT_PEOE_2>
0.19757293

>  <BCUT_PEOE_3>
2.6096606

>  <BCUT_SLOGP_0>
-2.645149

>  <BCUT_SLOGP_1>
-0.055191316

>  <BCUT_SLOGP_2>
0.32030085

>  <BCUT_SLOGP_3>
2.677057

>  <BCUT_SMR_0>
-2.398706

>  <BCUT_SMR_1>
0.0097156689

>  <BCUT_SMR_2>
0.43225402

>  <BCUT_SMR_3>
2.8715611

>  <bpol>
23.942932

>  <b_1rotN>
6

>  <b_1rotR>
0.30000001

>  <b_ar>
6

>  <b_count>
39

>  <b_double>
2

>  <b_heavy>
20

>  <b_rotN>
6

>  <b_rotR>
0.30000001

>  <b_single>
31

>  <b_triple>
0

>  <chi0>
15.447229

>  <chi0v>
12.096334

>  <chi0v_C>
9.0689144

>  <chi0_C>
9.5854216

>  <chi1>
9.3278046

>  <chi1v>
6.5242457

>  <chi1v_C>
4.8080606

>  <chi1_C>
5.5352407

>  <chiral>
0

>  <chiral_u>
0

>  <density>
0.85403681

>  <diameter>
8

>  <FCharge>
0

>  <GCUT_PEOE_0>
-0.81279129

>  <GCUT_PEOE_1>
-0.40275654

>  <GCUT_PEOE_2>
-0.076007709

>  <GCUT_PEOE_3>
2.6404662

>  <GCUT_SLOGP_0>
-0.98223943

>  <GCUT_SLOGP_1>
-0.13553493

>  <GCUT_SLOGP_2>
0.029317839

>  <GCUT_SLOGP_3>
2.7301745

>  <GCUT_SMR_0>
-0.52486819

>  <GCUT_SMR_1>
-0.085759975

>  <GCUT_SMR_2>
0.1767

>  <GCUT_SMR_3>
2.8685427

>  <Kier1>
18.049999

>  <Kier2>
7.8520408

>  <Kier3>
4.25

>  <KierA1>
13.856349

>  <KierA2>
5.9371924

>  <KierA3>
3.1780903

>  <KierFlex>
4.1133904

>  <lip_acc>
7

>  <lip_don>
1

>  <lip_druglike>
1

>  <lip_violation>
0

>  <logP(o/w)>
4.079

>  <logS>
-4.4541502

>  <mr>
7.365416

>  <mutagenic>
1

>  <nmol>
1

>  <opr_brigid>
6

>  <opr_leadlike>
1

>  <opr_nring>
1

>  <opr_nrot>
6

>  <opr_violation>
0

>  <PC+>
0

>  <PC->
0

>  <PEOE_PC+>
1.2302606

>  <PEOE_PC->
-1.2302606

>  <PEOE_RPC+>
0.24788173

>  <PEOE_RPC->
0.20993659

>  <PEOE_VSA+0>
151.45932

>  <PEOE_VSA+1>
30.564114

>  <PEOE_VSA+2>
0

>  <PEOE_VSA+3>
6.6995511

>  <PEOE_VSA+4>
0

>  <PEOE_VSA+5>
0

>  <PEOE_VSA+6>
13.399102

>  <PEOE_VSA-0>
2.2085397

>  <PEOE_VSA-1>
0

>  <PEOE_VSA-2>
0

>  <PEOE_VSA-3>
5.6825762

>  <PEOE_VSA-4>
0

>  <PEOE_VSA-5>
67.862099

>  <PEOE_VSA-6>
0

>  <PEOE_VSA_FHYD>
0.70756239

>  <PEOE_VSA_FNEG>
0.27261585

>  <PEOE_VSA_FPNEG>
0.2442178

>  <PEOE_VSA_FPOL>
0.29243764

>  <PEOE_VSA_FPOS>
0.72738415

>  <PEOE_VSA_FPPOS>
0.048219837

>  <PEOE_VSA_HYD>
196.61411

>  <PEOE_VSA_NEG>
75.753212

>  <PEOE_VSA_PNEG>
67.862099

>  <PEOE_VSA_POL>
81.2612

>  <PEOE_VSA_POS>
202.1221

>  <PEOE_VSA_PPOS>
13.399102

>  <petitjean>
0.5

>  <petitjeanSC>
1

>  <Q_PC+>
0

>  <Q_PC->
0

>  <Q_RPC+>
0

>  <Q_RPC->
0

>  <Q_VSA_FHYD>
1

>  <Q_VSA_FNEG>
0

>  <Q_VSA_FPNEG>
0

>  <Q_VSA_FPOL>
0

>  <Q_VSA_FPOS>
1

>  <Q_VSA_FPPOS>
0

>  <Q_VSA_HYD>
277.87531

>  <Q_VSA_NEG>
0

>  <Q_VSA_PNEG>
0

>  <Q_VSA_POL>
0

>  <Q_VSA_POS>
277.87531

>  <Q_VSA_PPOS>
0

>  <radius>
4

>  <reactive>
0

>  <rings>
1

>  <RPC+>
0

>  <RPC->
0

>  <rsynth>
0.25

>  <SlogP>
3.72034

>  <SlogP_VSA0>
0

>  <SlogP_VSA1>
32.181984

>  <SlogP_VSA2>
3.9819686

>  <SlogP_VSA3>
101.87002

>  <SlogP_VSA4>
6.37115

>  <SlogP_VSA5>
0

>  <SlogP_VSA6>
0

>  <SlogP_VSA7>
17.643185

>  <SlogP_VSA8>
37.736813

>  <SlogP_VSA9>
141.5743

>  <SMR>
7.7217498

>  <SMR_VSA0>
14.171232

>  <SMR_VSA1>
0

>  <SMR_VSA2>
101.87002

>  <SMR_VSA3>
10.353119

>  <SMR_VSA4>
26.280993

>  <SMR_VSA5>
55.379993

>  <SMR_VSA6>
0

>  <SMR_VSA7>
133.30406

>  <TPSA>
103.67

>  <VAdjEq>
0.4689956

>  <VAdjMa>
5.321928

>  <VDistEq>
2.8110757

>  <VDistMa>
8.4053335

>  <vdw_area>
277.87531

>  <vdw_vol>
306.9657

>  <vsa_acc>
0

>  <vsa_acid>
0

>  <vsa_base>
0

>  <vsa_don>
5.6825762

>  <vsa_hyd>
204.33063

>  <vsa_other>
67.862099

>  <vsa_pol>
5.6825762

>  <Weight>
281.31198

>  <weinerPath>
747

>  <weinerPol>
33

>  <zagreb>
96

$$$$
FC(F)(F)C1=C(S(=O)(NC3=NN2C(OC)=NC=C(OC)C2=N3)=O)C(OCC(F)F)=CC=C1
  MOE2011           2D

 32 34  0  0  0  0  0  0  0  0999 V2000
    0.0000    0.0000    0.0000 F   0  0  0  0  0  0  0  0  0  0  0  0
    1.2900   -0.7650    0.0000 C   0  0  0  0  0  0  0  0  0  0  0  0
    2.0550    0.5250    0.0000 F   0  0  0  0  0  0  0  0  0  0  0  0
    0.5250   -2.0550    0.0000 F   0  0  0  0  0  0  0  0  0  0  0  0
    2.5800   -1.5310    0.0000 C   0  0  0  0  0  0  0  0  0  0  0  0
    2.8230   -3.0110    0.0000 C   0  0  0  0  0  0  0  0  0  0  0  0
    1.8450   -4.1490    0.0000 S   0  0  0  0  0  0  0  0  0  0  0  0
    2.9820   -5.1260    0.0000 O   0  0  0  0  0  0  0  0  0  0  0  0
    0.8670   -5.2860    0.0000 N   0  0  0  0  0  0  0  0  0  0  0  0
   -0.6070   -5.0080    0.0000 C   0  0  0  0  0  0  0  0  0  0  0  0
   -1.6980   -6.0370    0.0000 N   0  0  0  0  0  0  0  0  0  0  0  0
   -3.0140   -5.3170    0.0000 N   0  0  0  0  0  0  0  0  0  0  0  0
   -4.4300   -5.8130    0.0000 C   0  0  0  0  0  0  0  0  0  0  0  0
   -4.7080   -7.2870    0.0000 O   0  0  0  0  0  0  0  0  0  0  0  0
   -6.1230   -7.7830    0.0000 C   0  0  0  0  0  0  0  0  0  0  0  0
   -5.5670   -4.8350    0.0000 N   0  0  0  0  0  0  0  0  0  0  0  0
   -5.2890   -3.3610    0.0000 C   0  0  0  0  0  0  0  0  0  0  0  0
   -3.8740   -2.8650    0.0000 C   0  0  0  0  0  0  0  0  0  0  0  0
   -3.5950   -1.3910    0.0000 O   0  0  0  0  0  0  0  0  0  0  0  0
   -4.7330   -0.4130    0.0000 C   0  0  0  0  0  0  0  0  0  0  0  0
   -2.7360   -3.8430    0.0000 C   0  0  0  0  0  0  0  0  0  0  0  0
   -1.2480   -3.6520    0.0000 N   0  0  0  0  0  0  0  0  0  0  0  0
    0.7080   -3.1710    0.0000 O   0  0  0  0  0  0  0  0  0  0  0  0
    4.2260   -3.5410    0.0000 C   0  0  0  0  0  0  0  0  0  0  0  0
    4.4690   -5.0210    0.0000 O   0  0  0  0  0  0  0  0  0  0  0  0
    5.8720   -5.5510    0.0000 C   0  0  0  0  0  0  0  0  0  0  0  0
    6.1150   -7.0310    0.0000 C   0  0  0  0  0  0  0  0  0  0  0  0
    7.5180   -7.5610    0.0000 F   0  0  0  0  0  0  0  0  0  0  0  0
    4.9550   -7.9820    0.0000 F   0  0  0  0  0  0  0  0  0  0  0  0
    5.3870   -2.5910    0.0000 C   0  0  0  0  0  0  0  0  0  0  0  0
    5.1440   -1.1100    0.0000 C   0  0  0  0  0  0  0  0  0  0  0  0
    3.7400   -0.5800    0.0000 C   0  0  0  0  0  0  0  0  0  0  0  0
  1  2  1  0  0  0  0
  2  3  1  0  0  0  0
  2  4  1  0  0  0  0
  2  5  1  0  0  0  0
  5  6  1  0  0  0  0
  5 32  2  0  0  0  0
  6  7  1  0  0  0  0
  6 24  2  0  0  0  0
  7  8  2  0  0  0  0
  7  9  1  0  0  0  0
  7 23  2  0  0  0  0
  9 10  1  0  0  0  0
 10 11  2  0  0  0  0
 10 22  1  0  0  0  0
 11 12  1  0  0  0  0
 12 13  1  0  0  0  0
 12 21  1  0  0  0  0
 13 14  1  0  0  0  0
 13 16  2  0  0  0  0
 14 15  1  0  0  0  0
 16 17  1  0  0  0  0
 17 18  2  0  0  0  0
 18 19  1  0  0  0  0
 18 21  1  0  0  0  0
 19 20  1  0  0  0  0
 21 22  2  0  0  0  0
 24 25  1  0  0  0  0
 24 30  1  0  0  0  0
 25 26  1  0  0  0  0
 26 27  1  0  0  0  0
 27 28  1  0  0  0  0
 27 29  1  0  0  0  0
 30 31  2  0  0  0  0
 31 32  1  0  0  0  0
M  END
>  <DSSTox_RID>
40550

>  <DSSTox_CID>
14803

>  <apol>
52.690102

>  <a_acc>
6

>  <a_acid>
0

>  <a_aro>
11

>  <a_base>
0

>  <a_count>
46

>  <a_don>
1

>  <a_heavy>
32

>  <a_hyd>
18

>  <a_IC>
101.95196

>  <a_ICM>
2.216347

>  <a_nB>
0

>  <a_nBr>
0

>  <a_nC>
16

>  <a_nCl>
0

>  <a_nF>
5

>  <a_nH>
14

>  <a_nI>
0

>  <a_nN>
5

>  <a_nO>
5

>  <a_nP>
0

>  <a_nS>
1

>  <balabanJ>
1.782818

>  <BCUT_PEOE_0>
-2.3346667

>  <BCUT_PEOE_1>
-0.51442701

>  <BCUT_PEOE_2>
0.37154067

>  <BCUT_PEOE_3>
2.5881457

>  <BCUT_SLOGP_0>
-2.4786856

>  <BCUT_SLOGP_1>
-0.44183612

>  <BCUT_SLOGP_2>
0.42019999

>  <BCUT_SLOGP_3>
2.5268927

>  <BCUT_SMR_0>
-2.1527755

>  <BCUT_SMR_1>
-0.33143744

>  <BCUT_SMR_2>
0.61065352

>  <BCUT_SMR_3>
2.7914007

>  <bpol>
38.823898

>  <b_1rotN>
7

>  <b_1rotR>
0.20588236

>  <b_ar>
11

>  <b_count>
48

>  <b_double>
2

>  <b_heavy>
34

>  <b_rotN>
9

>  <b_rotR>
0.2647059

>  <b_single>
35

>  <b_triple>
0

>  <chi0>
23.681435

>  <chi0v>
17.038521

>  <chi0v_C>
9.5938578

>  <chi0_C>
10.654336

>  <chi1>
14.973712

>  <chi1v>
9.9364519

>  <chi1v_C>
2.9409404

>  <chi1_C>
3.9216683

>  <chiral>
0

>  <chiral_u>
0

>  <density>
1.0538031

>  <diameter>
13

>  <FCharge>
0

>  <GCUT_PEOE_0>
-0.88839769

>  <GCUT_PEOE_1>
-0.37516192

>  <GCUT_PEOE_2>
-0.0772058

>  <GCUT_PEOE_3>
2.595942

>  <GCUT_SLOGP_0>
-0.95149118

>  <GCUT_SLOGP_1>
-0.38040125

>  <GCUT_SLOGP_2>
0.24302465

>  <GCUT_SLOGP_3>
2.6061683

>  <GCUT_SMR_0>
-0.50574881

>  <GCUT_SMR_1>
-0.18704864

>  <GCUT_SMR_2>
0.14876781

>  <GCUT_SMR_3>
2.8301497

>  <Kier1>
26.602076

>  <Kier2>
10.726644

>  <Kier3>
6.177515

>  <KierA1>
21.660194

>  <KierA2>
8.6728144

>  <KierA3>
4.9700074

>  <KierFlex>
5.8704643

>  <lip_acc>
10

>  <lip_don>
1

>  <lip_druglike>
1

>  <lip_violation>
0

>  <logP(o/w)>
1.61668

>  <logS>
-4.6481099

>  <mr>
10.040359

>  <mutagenic>
0

>  <nmol>
1

>  <opr_brigid>
16

>  <opr_leadlike>
0

>  <opr_nring>
3

>  <opr_nrot>
7

>  <opr_violation>
2

>  <PC+>
0

>  <PC->
0

>  <PEOE_PC+>
3.1406982

>  <PEOE_PC->
-3.1406982

>  <PEOE_RPC+>
0.13610186

>  <PEOE_RPC->
0.12520781

>  <PEOE_VSA+0>
47.425484

>  <PEOE_VSA+1>
116.60556

>  <PEOE_VSA+2>
16.533726

>  <PEOE_VSA+3>
62.007061

>  <PEOE_VSA+4>
22.058474

>  <PEOE_VSA+5>
0

>  <PEOE_VSA+6>
39.168861

>  <PEOE_VSA-0>
0

>  <PEOE_VSA-1>
0

>  <PEOE_VSA-2>
0

>  <PEOE_VSA-3>
59.543179

>  <PEOE_VSA-4>
0

>  <PEOE_VSA-5>
9.4210396

>  <PEOE_VSA-6>
18.876421

>  <PEOE_VSA_FHYD>
0.77141035

>  <PEOE_VSA_FNEG>
0.22428934

>  <PEOE_VSA_FPNEG>
0.072253786

>  <PEOE_VSA_FPOL>
0.22858962

>  <PEOE_VSA_FPOS>
0.77571064

>  <PEOE_VSA_FPPOS>
0.15633583

>  <PEOE_VSA_HYD>
302.11502

>  <PEOE_VSA_NEG>
87.840637

>  <PEOE_VSA_PNEG>
28.297461

>  <PEOE_VSA_POL>
89.524796

>  <PEOE_VSA_POS>
303.79916

>  <PEOE_VSA_PPOS>
61.227337

>  <petitjean>
0.46153846

>  <petitjeanSC>
0.85714287

>  <Q_PC+>
0

>  <Q_PC->
0

>  <Q_RPC+>
0

>  <Q_RPC->
0

>  <Q_VSA_FHYD>
1

>  <Q_VSA_FNEG>
0

>  <Q_VSA_FPNEG>
0

>  <Q_VSA_FPOL>
0

>  <Q_VSA_FPOS>
1

>  <Q_VSA_FPPOS>
0

>  <Q_VSA_HYD>
391.6398

>  <Q_VSA_NEG>
0

>  <Q_VSA_PNEG>
0

>  <Q_VSA_POL>
0

>  <Q_VSA_POS>
391.6398

>  <Q_VSA_PPOS>
0

>  <radius>
7

>  <reactive>
0

>  <rings>
3

>  <RPC+>
0

>  <RPC->
0

>  <rsynth>
1

>  <SlogP>
2.862

>  <SlogP_VSA0>
10.999887

>  <SlogP_VSA1>
104.18757

>  <SlogP_VSA2>
44.922199

>  <SlogP_VSA3>
20.926258

>  <SlogP_VSA4>
5.513495

>  <SlogP_VSA5>
89.103996

>  <SlogP_VSA6>
7.7595162

>  <SlogP_VSA7>
75.387337

>  <SlogP_VSA8>
0

>  <SlogP_VSA9>
81.943085

>  <SMR>
9.87185

>  <SMR_VSA0>
70.171463

>  <SMR_VSA1>
137.8111

>  <SMR_VSA2>
9.3102503

>  <SMR_VSA3>
27.038605

>  <SMR_VSA4>
23.547518

>  <SMR_VSA5>
70.143913

>  <SMR_VSA6>
25.312033

>  <SMR_VSA7>
77.408478

>  <TPSA>
116.93

>  <VAdjEq>
0.35236704

>  <VAdjMa>
6.0874629

>  <VDistEq>
3.5142913

>  <VDistMa>
9.7406368

>  <vdw_area>
391.6398

>  <vdw_vol>
445.30331

>  <vsa_acc>
55.306473

>  <vsa_acid>
0

>  <vsa_base>
0

>  <vsa_don>
8.0752068

>  <vsa_hyd>
268.83234

>  <vsa_other>
59.4258

>  <vsa_pol>
63.381676

>  <Weight>
483.37399

>  <weinerPath>
2820

>  <weinerPol>
54

>  <zagreb>
170

$$$$
O=S(C(F)(F)C(F)(F)C(F)(F)C(F)(F)C(F)(F)C(F)(F)C(F)(F)C(F)(F)F)(O)=O
  MOE2011           2D

 29 28  0  0  0  0  0  0  0  0999 V2000
    0.0000    0.0000    0.0000 O   0  0  0  0  0  0  0  0  0  0  0  0
    0.0000    1.5000    0.0000 S   0  0  0  0  0  0  0  0  0  0  0  0
    1.5000    1.5000    0.0000 C   0  0  0  0  0  0  0  0  0  0  0  0
    1.5000    3.0000    0.0000 F   0  0  0  0  0  0  0  0  0  0  0  0
    1.5000    0.0000    0.0000 F   0  0  0  0  0  0  0  0  0  0  0  0
    3.0000    1.5000    0.0000 C   0  0  0  0  0  0  0  0  0  0  0  0
    3.0000    3.0000    0.0000 F   0  0  0  0  0  0  0  0  0  0  0  0
    3.0000    0.0000    0.0000 F   0  0  0  0  0  0  0  0  0  0  0  0
    4.5000    1.5000    0.0000 C   0  0  0  0  0  0  0  0  0  0  0  0
    4.5000    0.0000    0.0000 F   0  0  0  0  0  0  0  0  0  0  0  0
    4.5000    3.0000    0.0000 F   0  0  0  0  0  0  0  0  0  0  0  0
    6.0000    1.5000    0.0000 C   0  0  0  0  0  0  0  0  0  0  0  0
    6.0000    0.0000    0.0000 F   0  0  0  0  0  0  0  0  0  0  0  0
    6.0000    3.0000    0.0000 F   0  0  0  0  0  0  0  0  0  0  0  0
    7.5000    1.5000    0.0000 C   0  0  0  0  0  0  0  0  0  0  0  0
    7.5000    0.0000    0.0000 F   0  0  0  0  0  0  0  0  0  0  0  0
    7.5000    3.0000    0.0000 F   0  0  0  0  0  0  0  0  0  0  0  0
    9.0000    1.5000    0.0000 C   0  0  0  0  0  0  0  0  0  0  0  0
    9.0000    0.0000    0.0000 F   0  0  0  0  0  0  0  0  0  0  0  0
    9.0000    3.0000    0.0000 F   0  0  0  0  0  0  0  0  0  0  0  0
   10.5000    1.5000    0.0000 C   0  0  0  0  0  0  0  0  0  0  0  0
   10.5000    3.0000    0.0000 F   0  0  0  0  0  0  0  0  0  0  0  0
   10.5000    0.0000    0.0000 F   0  0  0  0  0  0  0  0  0  0  0  0
   12.0000    1.5000    0.0000 C   0  0  0  0  0  0  0  0  0  0  0  0
   12.0000    3.0000    0.0000 F   0  0  0  0  0  0  0  0  0  0  0  0
   13.5000    1.5000    0.0000 F   0  0  0  0  0  0  0  0  0  0  0  0
   12.0000    0.0000    0.0000 F   0  0  0  0  0  0  0  0  0  0  0  0
   -1.5000    1.5000    0.0000 O   0  0  0  0  0  0  0  0  0  0  0  0
    0.0000    3.0000    0.0000 O   0  0  0  0  0  0  0  0  0  0  0  0
  1  2  2  0  0  0  0
  2  3  1  0  0  0  0
  2 28  1  0  0  0  0
  2 29  2  0  0  0  0
  3  4  1  0  0  0  0
  3  5  1  0  0  0  0
  3  6  1  0  0  0  0
  6  7  1  0  0  0  0
  6  8  1  0  0  0  0
  6  9  1  0  0  0  0
  9 10  1  0  0  0  0
  9 11  1  0  0  0  0
  9 12  1  0  0  0  0
 12 13  1  0  0  0  0
 12 14  1  0  0  0  0
 12 15  1  0  0  0  0
 15 16  1  0  0  0  0
 15 17  1  0  0  0  0
 15 18  1  0  0  0  0
 18 19  1  0  0  0  0
 18 20  1  0  0  0  0
 18 21  1  0  0  0  0
 21 22  1  0  0  0  0
 21 23  1  0  0  0  0
 21 24  1  0  0  0  0
 24 25  1  0  0  0  0
 24 26  1  0  0  0  0
 24 27  1  0  0  0  0
M  END
>  <DSSTox_RID>
40753

>  <DSSTox_CID>
11864

>  <apol>
29.521793

>  <a_acc>
3

>  <a_acid>
0

>  <a_aro>
0

>  <a_base>
0

>  <a_count>
30

>  <a_don>
3

>  <a_heavy>
29

>  <a_hyd>
25

>  <a_IC>
48.964962

>  <a_ICM>
1.6321654

>  <a_nB>
0

>  <a_nBr>
0

>  <a_nC>
8

>  <a_nCl>
0

>  <a_nF>
17

>  <a_nH>
1

>  <a_nI>
0

>  <a_nN>
0

>  <a_nO>
3

>  <a_nP>
0

>  <a_nS>
1

>  <balabanJ>
6.8189511

>  <BCUT_PEOE_0>
-2.4202349

>  <BCUT_PEOE_1>
-0.40693873

>  <BCUT_PEOE_2>
0.14810903

>  <BCUT_PEOE_3>
2.9703228

>  <BCUT_SLOGP_0>
-2.7570295

>  <BCUT_SLOGP_1>
-0.39036021

>  <BCUT_SLOGP_2>
0.53167462

>  <BCUT_SLOGP_3>
2.6256602

>  <BCUT_SMR_0>
-2.4280114

>  <BCUT_SMR_1>
-0.12934424

>  <BCUT_SMR_2>
0.36514127

>  <BCUT_SMR_3>
2.9342465

>  <bpol>
28.020206

>  <b_1rotN>
7

>  <b_1rotR>
0.25

>  <b_ar>
0

>  <b_count>
29

>  <b_double>
0

>  <b_heavy>
28

>  <b_rotN>
8

>  <b_rotR>
0.2857143

>  <b_single>
29

>  <b_triple>
0

>  <chi0>
24.5

>  <chi0v>
12.913851

>  <chi0v_C>
4

>  <chi0_C>
4

>  <chi1>
12

>  <chi1v>
7.1227932

>  <chi1v_C>
1.75

>  <chi1_C>
1.75

>  <chiral>
0

>  <chiral_u>
0

>  <density>
1.6347708

>  <diameter>
10

>  <FCharge>
0

>  <GCUT_PEOE_0>
-0.73311269

>  <GCUT_PEOE_1>
-0.36105868

>  <GCUT_PEOE_2>
-0.14998919

>  <GCUT_PEOE_3>
2.6297879

>  <GCUT_SLOGP_0>
-0.91238558

>  <GCUT_SLOGP_1>
-0.31051803

>  <GCUT_SLOGP_2>
0.26019999

>  <GCUT_SLOGP_3>
2.4965141

>  <GCUT_SMR_0>
-0.5124203

>  <GCUT_SMR_1>
-0.11337689

>  <GCUT_SMR_2>
0.05264451

>  <GCUT_SMR_3>
2.661648

>  <Kier1>
29

>  <Kier2>
7

>  <Kier3>
3.6512346

>  <KierA1>
27.49123

>  <KierA2>
6.6227274

>  <KierA3>
3.4494355

>  <KierFlex>
6.2781696

>  <lip_acc>
3

>  <lip_don>
1

>  <lip_druglike>
1

>  <lip_violation>
1

>  <logP(o/w)>
6.6932001

>  <logS>
-5.67342

>  <mr>
4.759305

>  <mutagenic>
0

>  <nmol>
1

>  <opr_brigid>
0

>  <opr_leadlike>
1

>  <opr_nring>
0

>  <opr_nrot>
7

>  <opr_violation>
1

>  <PC+>
0

>  <PC->
0

>  <PEOE_PC+>
3.6383293

>  <PEOE_PC->
-3.6383293

>  <PEOE_RPC+>
0.16306578

>  <PEOE_RPC->
0.060251068

>  <PEOE_VSA+0>
0

>  <PEOE_VSA+1>
0

>  <PEOE_VSA+2>
11.512783

>  <PEOE_VSA+3>
0

>  <PEOE_VSA+4>
0

>  <PEOE_VSA+5>
0

>  <PEOE_VSA+6>
26.653936

>  <PEOE_VSA-0>
0

>  <PEOE_VSA-1>
0

>  <PEOE_VSA-2>
23.817272

>  <PEOE_VSA-3>
178.62953

>  <PEOE_VSA-4>
48.024784

>  <PEOE_VSA-5>
0

>  <PEOE_VSA-6>
0

>  <PEOE_VSA_FHYD>
0.74127233

>  <PEOE_VSA_FNEG>
0.86776972

>  <PEOE_VSA_FPNEG>
0.16638395

>  <PEOE_VSA_FPOL>
0.2587277

>  <PEOE_VSA_FPOS>
0.13223027

>  <PEOE_VSA_FPPOS>
0.092343725

>  <PEOE_VSA_HYD>
213.95959

>  <PEOE_VSA_NEG>
250.47159

>  <PEOE_VSA_PNEG>
48.024784

>  <PEOE_VSA_POL>
74.678719

>  <PEOE_VSA_POS>
38.166721

>  <PEOE_VSA_PPOS>
26.653936

>  <petitjean>
0.5

>  <petitjeanSC>
1

>  <Q_PC+>
0

>  <Q_PC->
0

>  <Q_RPC+>
0

>  <Q_RPC->
0

>  <Q_VSA_FHYD>
1

>  <Q_VSA_FNEG>
0

>  <Q_VSA_FPNEG>
0

>  <Q_VSA_FPOL>
0

>  <Q_VSA_FPOS>
1

>  <Q_VSA_FPPOS>
0

>  <Q_VSA_HYD>
288.63831

>  <Q_VSA_NEG>
0

>  <Q_VSA_PNEG>
0

>  <Q_VSA_POL>
0

>  <Q_VSA_POS>
288.63831

>  <Q_VSA_PPOS>
0

>  <radius>
5

>  <reactive>
0

>  <rings>
0

>  <RPC+>
0

>  <RPC->
0

>  <rsynth>
1

>  <SlogP>
4.2754002

>  <SlogP_VSA0>
22.930752

>  <SlogP_VSA1>
67.064873

>  <SlogP_VSA2>
8.583149

>  <SlogP_VSA3>
0

>  <SlogP_VSA4>
0

>  <SlogP_VSA5>
0

>  <SlogP_VSA6>
0

>  <SlogP_VSA7>
0

>  <SlogP_VSA8>
0

>  <SlogP_VSA9>
254.32193

>  <SMR>
5.18226

>  <SMR_VSA0>
48.171688

>  <SMR_VSA1>
277.25269

>  <SMR_VSA2>
18.893185

>  <SMR_VSA3>
0

>  <SMR_VSA4>
0

>  <SMR_VSA5>
0

>  <SMR_VSA6>
0

>  <SMR_VSA7>
8.583149

>  <TPSA>
54.369999

>  <VAdjEq>
0.35305744

>  <VAdjMa>
5.8073549

>  <VDistEq>
3.1427801

>  <VDistMa>
9.4783669

>  <vdw_area>
288.63831

>  <vdw_vol>
305.31314

>  <vsa_acc>
0

>  <vsa_acid>
0

>  <vsa_base>
0

>  <vsa_don>
0

>  <vsa_hyd>
229.10074

>  <vsa_other>
11.512783

>  <vsa_pol>
48.024784

>  <Weight>
500.12497

>  <weinerPath>
1864

>  <weinerPol>
72

>  <zagreb>
164

$$$$
O=C(O)C(F)(F)C(F)(F)C(F)(F)C(F)(F)C(F)(F)C(F)(F)C(F)(F)F
  MOE2011           2D

 25 24  0  0  0  0  0  0  0  0999 V2000
    0.0000    0.0000    0.0000 O   0  0  0  0  0  0  0  0  0  0  0  0
    0.7270   -1.3120    0.0000 C   0  0  0  0  0  0  0  0  0  0  0  0
   -0.0450   -2.5980    0.0000 O   0  0  0  0  0  0  0  0  0  0  0  0
    2.2270   -1.3380    0.0000 C   0  0  0  0  0  0  0  0  0  0  0  0
    2.2530    0.1620    0.0000 F   0  0  0  0  0  0  0  0  0  0  0  0
    2.2010   -2.8380    0.0000 F   0  0  0  0  0  0  0  0  0  0  0  0
    3.7270   -1.3640    0.0000 C   0  0  0  0  0  0  0  0  0  0  0  0
    3.7010   -2.8640    0.0000 F   0  0  0  0  0  0  0  0  0  0  0  0
    3.7530    0.1350    0.0000 F   0  0  0  0  0  0  0  0  0  0  0  0
    5.2270   -1.3900    0.0000 C   0  0  0  0  0  0  0  0  0  0  0  0
    5.2530    0.1090    0.0000 F   0  0  0  0  0  0  0  0  0  0  0  0
    5.2000   -2.8900    0.0000 F   0  0  0  0  0  0  0  0  0  0  0  0
    6.7260   -1.4170    0.0000 C   0  0  0  0  0  0  0  0  0  0  0  0
    6.7520    0.0830    0.0000 F   0  0  0  0  0  0  0  0  0  0  0  0
    6.7000   -2.9160    0.0000 F   0  0  0  0  0  0  0  0  0  0  0  0
    8.2260   -1.4430    0.0000 C   0  0  0  0  0  0  0  0  0  0  0  0
    8.2520    0.0570    0.0000 F   0  0  0  0  0  0  0  0  0  0  0  0
    8.2000   -2.9430    0.0000 F   0  0  0  0  0  0  0  0  0  0  0  0
    9.7260   -1.4690    0.0000 C   0  0  0  0  0  0  0  0  0  0  0  0
    9.7520    0.0310    0.0000 F   0  0  0  0  0  0  0  0  0  0  0  0
    9.7000   -2.9690    0.0000 F   0  0  0  0  0  0  0  0  0  0  0  0
   11.2260   -1.4950    0.0000 C   0  0  0  0  0  0  0  0  0  0  0  0
   12.7250   -1.5210    0.0000 F   0  0  0  0  0  0  0  0  0  0  0  0
   11.1990   -2.9950    0.0000 F   0  0  0  0  0  0  0  0  0  0  0  0
   11.2520    0.0050    0.0000 F   0  0  0  0  0  0  0  0  0  0  0  0
  1  2  2  0  0  0  0
  2  3  1  0  0  0  0
  2  4  1  0  0  0  0
  4  5  1  0  0  0  0
  4  6  1  0  0  0  0
  4  7  1  0  0  0  0
  7  8  1  0  0  0  0
  7  9  1  0  0  0  0
  7 10  1  0  0  0  0
 10 11  1  0  0  0  0
 10 12  1  0  0  0  0
 10 13  1  0  0  0  0
 13 14  1  0  0  0  0
 13 15  1  0  0  0  0
 13 16  1  0  0  0  0
 16 17  1  0  0  0  0
 16 18  1  0  0  0  0
 16 19  1  0  0  0  0
 19 20  1  0  0  0  0
 19 21  1  0  0  0  0
 19 22  1  0  0  0  0
 22 23  1  0  0  0  0
 22 24  1  0  0  0  0
 22 25  1  0  0  0  0
M  END
>  <DSSTox_RID>
40754

>  <DSSTox_CID>
11865

>  <apol>
24.705793

>  <a_acc>
2

>  <a_acid>
0

>  <a_aro>
0

>  <a_base>
0

>  <a_count>
26

>  <a_don>
2

>  <a_heavy>
25

>  <a_hyd>
22

>  <a_IC>
37.608074

>  <a_ICM>
1.4464644

>  <a_nB>
0

>  <a_nBr>
0

>  <a_nC>
8

>  <a_nCl>
0

>  <a_nF>
15

>  <a_nH>
1

>  <a_nI>
0

>  <a_nN>
0

>  <a_nO>
2

>  <a_nP>
0

>  <a_nS>
0

>  <balabanJ>
6.5013742

>  <BCUT_PEOE_0>
-2.4056232

>  <BCUT_PEOE_1>
-0.4098292

>  <BCUT_PEOE_2>
0.2367063

>  <BCUT_PEOE_3>
2.9227777

>  <BCUT_SLOGP_0>
-2.7324164

>  <BCUT_SLOGP_1>
-0.15394551

>  <BCUT_SLOGP_2>
0.42660034

>  <BCUT_SLOGP_3>
2.6027164

>  <BCUT_SMR_0>
-2.4090588

>  <BCUT_SMR_1>
-0.16526482

>  <BCUT_SMR_2>
0.42526308

>  <BCUT_SMR_3>
2.8878014

>  <bpol>
20.096207

>  <b_1rotN>
6

>  <b_1rotR>
0.25

>  <b_ar>
0

>  <b_count>
25

>  <b_double>
1

>  <b_heavy>
24

>  <b_rotN>
7

>  <b_rotR>
0.29166666

>  <b_single>
24

>  <b_triple>
0

>  <chi0>
21.077351

>  <chi0v>
10.524929

>  <chi0v_C>
4

>  <chi0_C>
4.0773501

>  <chi1>
10.443376

>  <chi1v>
5.0124645

>  <chi1v_C>
1.75

>  <chi1_C>
1.7886752

>  <chiral>
0

>  <chiral_u>
0

>  <density>
1.5779246

>  <diameter>
9

>  <FCharge>
0

>  <GCUT_PEOE_0>
-0.68615258

>  <GCUT_PEOE_1>
-0.38939142

>  <GCUT_PEOE_2>
-0.065887205

>  <GCUT_PEOE_3>
2.5233297

>  <GCUT_SLOGP_0>
-0.92748642

>  <GCUT_SLOGP_1>
-0.16514389

>  <GCUT_SLOGP_2>
0.26019999

>  <GCUT_SLOGP_3>
2.4052618

>  <GCUT_SMR_0>
-0.512407

>  <GCUT_SMR_1>
-0.16893992

>  <GCUT_SMR_2>
0.12072842

>  <GCUT_SMR_3>
2.555723

>  <Kier1>
25

>  <Kier2>
6.2696295

>  <Kier3>
3.2266667

>  <KierA1>
21.528713

>  <KierA2>
5.3636646

>  <KierA3>
2.746829

>  <KierFlex>
4.6189117

>  <lip_acc>
2

>  <lip_don>
1

>  <lip_druglike>
1

>  <lip_violation>
0

>  <logP(o/w)>
6.6652799

>  <logS>
-4.88941

>  <mr>
3.9541745

>  <mutagenic>
0

>  <nmol>
1

>  <opr_brigid>
0

>  <opr_leadlike>
1

>  <opr_nring>
0

>  <opr_nrot>
6

>  <opr_violation>
0

>  <PC+>
0

>  <PC->
0

>  <PEOE_PC+>
3.1805761

>  <PEOE_PC->
-3.1805761

>  <PEOE_RPC+>
0.14473373

>  <PEOE_RPC->
0.080306485

>  <PEOE_VSA+0>
0

>  <PEOE_VSA+1>
0

>  <PEOE_VSA+2>
0

>  <PEOE_VSA+3>
0

>  <PEOE_VSA+4>
0

>  <PEOE_VSA+5>
0

>  <PEOE_VSA+6>
37.153179

>  <PEOE_VSA-0>
0

>  <PEOE_VSA-1>
0

>  <PEOE_VSA-2>
13.566921

>  <PEOE_VSA-3>
178.62953

>  <PEOE_VSA-4>
0

>  <PEOE_VSA-5>
13.566921

>  <PEOE_VSA-6>
0

>  <PEOE_VSA_FHYD>
0.79120362

>  <PEOE_VSA_FNEG>
0.84705377

>  <PEOE_VSA_FPNEG>
0.05585013

>  <PEOE_VSA_FPOL>
0.20879638

>  <PEOE_VSA_FPOS>
0.15294626

>  <PEOE_VSA_FPPOS>
0.15294626

>  <PEOE_VSA_HYD>
192.19646

>  <PEOE_VSA_NEG>
205.76338

>  <PEOE_VSA_PNEG>
13.566921

>  <PEOE_VSA_POL>
50.7201

>  <PEOE_VSA_POS>
37.153179

>  <PEOE_VSA_PPOS>
37.153179

>  <petitjean>
0.44444445

>  <petitjeanSC>
0.80000001

>  <Q_PC+>
0

>  <Q_PC->
0

>  <Q_RPC+>
0

>  <Q_RPC->
0

>  <Q_VSA_FHYD>
1

>  <Q_VSA_FNEG>
0

>  <Q_VSA_FPNEG>
0

>  <Q_VSA_FPOL>
0

>  <Q_VSA_FPOS>
1

>  <Q_VSA_FPPOS>
0

>  <Q_VSA_HYD>
242.91655

>  <Q_VSA_NEG>
0

>  <Q_VSA_PNEG>
0

>  <Q_VSA_POL>
0

>  <Q_VSA_POS>
242.91655

>  <Q_VSA_PPOS>
0

>  <radius>
5

>  <reactive>
1

>  <rings>
0

>  <RPC+>
0

>  <RPC->
0

>  <rsynth>
1

>  <SlogP>
4.4450998

>  <SlogP_VSA0>
0

>  <SlogP_VSA1>
26.449417

>  <SlogP_VSA2>
23.862217

>  <SlogP_VSA3>
25.385227

>  <SlogP_VSA4>
0

>  <SlogP_VSA5>
0

>  <SlogP_VSA6>
0

>  <SlogP_VSA7>
0

>  <SlogP_VSA8>
0

>  <SlogP_VSA9>
224.4017

>  <SMR>
4.3372798

>  <SMR_VSA0>
23.862217

>  <SMR_VSA1>
224.4017

>  <SMR_VSA2>
44.08918

>  <SMR_VSA3>
0

>  <SMR_VSA4>
0

>  <SMR_VSA5>
0

>  <SMR_VSA6>
7.7454643

>  <SMR_VSA7>
0

>  <TPSA>
37.299999

>  <VAdjEq>
0.39080217

>  <VAdjMa>
5.5849624

>  <VDistEq>
2.9689047

>  <VDistMa>
9.0534048

>  <vdw_area>
242.91655

>  <vdw_vol>
261.77167

>  <vsa_acc>
0

>  <vsa_acid>
0

>  <vsa_base>
0

>  <vsa_don>
0

>  <vsa_hyd>
201.07422

>  <vsa_other>
14.708499

>  <vsa_pol>
27.133842

>  <Weight>
414.064

>  <weinerPath>
1248

>  <weinerPol>
60

>  <zagreb>
138

$$$$
C1=CC=C(OC2=CC=CC=C2)C=C1COC(=O)C3C(C)(C)C3C=C(Cl)Cl
  MOE2011           2D

 26 28  0  0  1  0  0  0  0  0999 V2000
    0.0000    0.0000    0.0000 C   0  0  0  0  0  0  0  0  0  0  0  0
   -1.3040    0.7410    0.0000 C   0  0  0  0  0  0  0  0  0  0  0  0
   -2.5980   -0.0170    0.0000 C   0  0  0  0  0  0  0  0  0  0  0  0
   -2.5880   -1.5170    0.0000 C   0  0  0  0  0  0  0  0  0  0  0  0
   -3.8820   -2.2760    0.0000 O   0  0  0  0  0  0  0  0  0  0  0  0
   -5.1860   -1.5350    0.0000 C   0  0  0  0  0  0  0  0  0  0  0  0
   -5.1960   -0.0350    0.0000 C   0  0  0  0  0  0  0  0  0  0  0  0
   -6.5000    0.7070    0.0000 C   0  0  0  0  0  0  0  0  0  0  0  0
   -7.7940   -0.0520    0.0000 C   0  0  0  0  0  0  0  0  0  0  0  0
   -7.7840   -1.5520    0.0000 C   0  0  0  0  0  0  0  0  0  0  0  0
   -6.4800   -2.2930    0.0000 C   0  0  0  0  0  0  0  0  0  0  0  0
   -1.2840   -2.2590    0.0000 C   0  0  0  0  0  0  0  0  0  0  0  0
    0.0100   -1.5000    0.0000 C   0  0  0  0  0  0  0  0  0  0  0  0
    1.3140   -2.2410    0.0000 C   0  0  0  0  0  0  0  0  0  0  0  0
    2.6080   -1.4830    0.0000 O   0  0  0  0  0  0  0  0  0  0  0  0
    3.9120   -2.2240    0.0000 C   0  0  0  0  0  0  0  0  0  0  0  0
    3.9220   -3.7240    0.0000 O   0  0  0  0  0  0  0  0  0  0  0  0
    5.2060   -1.4650    0.0000 C   0  0  3  0  0  0  0  0  0  0  0  0
    5.9470   -0.1610    0.0000 C   0  0  0  0  0  0  0  0  0  0  0  0
    6.8530    1.0350    0.0000 C   0  0  0  0  0  0  0  0  0  0  0  0
    5.0260    1.0230    0.0000 C   0  0  0  0  0  0  0  0  0  0  0  0
    6.7060   -1.4550    0.0000 C   0  0  3  0  0  0  0  0  0  0  0  0
    8.0100   -2.1960    0.0000 C   0  0  0  0  0  0  0  0  0  0  0  0
    9.3040   -1.4380    0.0000 C   0  0  0  0  0  0  0  0  0  0  0  0
    9.2940    0.0620    0.0000 Cl  0  0  0  0  0  0  0  0  0  0  0  0
   10.6080   -2.1790    0.0000 Cl  0  0  0  0  0  0  0  0  0  0  0  0
  1  2  1  0  0  0  0
  1 13  2  0  0  0  0
  2  3  2  0  0  0  0
  3  4  1  0  0  0  0
  4  5  1  0  0  0  0
  4 12  2  0  0  0  0
  5  6  1  0  0  0  0
  6  7  1  0  0  0  0
  6 11  2  0  0  0  0
  7  8  2  0  0  0  0
  8  9  1  0  0  0  0
  9 10  2  0  0  0  0
 10 11  1  0  0  0  0
 12 13  1  0  0  0  0
 13 14  1  0  0  0  0
 14 15  1  0  0  0  0
 15 16  1  0  0  0  0
 16 17  2  0  0  0  0
 16 18  1  0  0  0  0
 18 19  1  0  0  0  0
 18 22  1  0  0  0  0
 19 20  1  0  0  0  0
 19 21  1  0  0  0  0
 19 22  1  0  0  0  0
 22 23  1  0  0  0  0
 23 24  2  0  0  0  0
 24 25  1  0  0  0  0
 24 26  1  0  0  0  0
M  END
>  <DSSTox_RID>
40554

>  <DSSTox_CID>
2292

>  <apol>
57.061859

>  <a_acc>
1

>  <a_acid>
0

>  <a_aro>
12

>  <a_base>
0

>  <a_count>
46

>  <a_don>
0

>  <a_heavy>
26

>  <a_hyd>
21

>  <a_IC>
68.651733

>  <a_ICM>
1.492429

>  <a_nB>
0

>  <a_nBr>
0

>  <a_nC>
21

>  <a_nCl>
2

>  <a_nF>
0

>  <a_nH>
20

>  <a_nI>
0

>  <a_nN>
0

>  <a_nO>
3

>  <a_nP>
0

>  <a_nS>
0

>  <balabanJ>
1.3992646

>  <BCUT_PEOE_0>
-2.4684293

>  <BCUT_PEOE_1>
-0.64360768

>  <BCUT_PEOE_2>
0.63656932

>  <BCUT_PEOE_3>
2.8988717

>  <BCUT_SLOGP_0>
-2.3869653

>  <BCUT_SLOGP_1>
-0.49873239

>  <BCUT_SLOGP_2>
0.74128556

>  <BCUT_SLOGP_3>
2.9234695

>  <BCUT_SMR_0>
-2.2295868

>  <BCUT_SMR_1>
-0.45777562

>  <BCUT_SMR_2>
0.78287423

>  <BCUT_SMR_3>
3.1336191

>  <bpol>
27.494141

>  <b_1rotN>
6

>  <b_1rotR>
0.21428572

>  <b_ar>
12

>  <b_count>
48

>  <b_double>
2

>  <b_heavy>
28

>  <b_rotN>
7

>  <b_rotR>
0.25

>  <b_single>
34

>  <b_triple>
0

>  <chi0>
18.733841

>  <chi0v>
16.127842

>  <chi0v_C>
12.63531

>  <chi0_C>
14.319627

>  <chi1>
12.375048

>  <chi1v>
9.1460361

>  <chi1v_C>
6.9069715

>  <chi1_C>
8.918252

>  <chiral>
2

>  <chiral_u>
2

>  <density>
0.84482062

>  <diameter>
15

>  <FCharge>
0

>  <GCUT_PEOE_0>
-0.7645312

>  <GCUT_PEOE_1>
-0.40558714

>  <GCUT_PEOE_2>
0.062656112

>  <GCUT_PEOE_3>
2.579668

>  <GCUT_SLOGP_0>
-0.84548301

>  <GCUT_SLOGP_1>
-0.26326945

>  <GCUT_SLOGP_2>
0.16445385

>  <GCUT_SLOGP_3>
2.6860924

>  <GCUT_SMR_0>
-0.50986302

>  <GCUT_SMR_1>
-0.19812118

>  <GCUT_SMR_2>
0.19305076

>  <GCUT_SMR_3>
2.832207

>  <Kier1>
20.727041

>  <Kier2>
9

>  <Kier3>
5.0934258

>  <KierA1>
17.899656

>  <KierA2>
7.7243614

>  <KierA3>
4.352191

>  <KierFlex>
5.3178234

>  <lip_acc>
3

>  <lip_don>
0

>  <lip_druglike>
1

>  <lip_violation>
1

>  <logP(o/w)>
6.0953598

>  <logS>
-6.6012201

>  <mr>
10.546975

>  <mutagenic>
0

>  <nmol>
1

>  <opr_brigid>
16

>  <opr_leadlike>
1

>  <opr_nring>
3

>  <opr_nrot>
6

>  <opr_violation>
1

>  <PC+>
0

>  <PC->
0

>  <PEOE_PC+>
1.0125332

>  <PEOE_PC->
-1.0125332

>  <PEOE_RPC+>
0.26862866

>  <PEOE_RPC->
0.30299798

>  <PEOE_VSA+0>
189.70193

>  <PEOE_VSA+1>
19.125578

>  <PEOE_VSA+2>
6.8309531

>  <PEOE_VSA+3>
22.058474

>  <PEOE_VSA+4>
0

>  <PEOE_VSA+5>
14.708499

>  <PEOE_VSA+6>
0

>  <PEOE_VSA-0>
31.616989

>  <PEOE_VSA-1>
59.163895

>  <PEOE_VSA-2>
0

>  <PEOE_VSA-3>
0

>  <PEOE_VSA-4>
0

>  <PEOE_VSA-5>
16.070677

>  <PEOE_VSA-6>
2.503756

>  <PEOE_VSA_FHYD>
0.9080025

>  <PEOE_VSA_FNEG>
0.30226958

>  <PEOE_VSA_FPNEG>
0.051341683

>  <PEOE_VSA_FPOL>
0.091997519

>  <PEOE_VSA_FPOS>
0.69773042

>  <PEOE_VSA_FPPOS>
0.040655836

>  <PEOE_VSA_HYD>
328.49783

>  <PEOE_VSA_NEG>
109.35532

>  <PEOE_VSA_PNEG>
18.574432

>  <PEOE_VSA_POL>
33.282932

>  <PEOE_VSA_POS>
252.42545

>  <PEOE_VSA_PPOS>
14.708499

>  <petitjean>
0.46666667

>  <petitjeanSC>
0.875

>  <Q_PC+>
0

>  <Q_PC->
0

>  <Q_RPC+>
0

>  <Q_RPC->
0

>  <Q_VSA_FHYD>
1

>  <Q_VSA_FNEG>
0

>  <Q_VSA_FPNEG>
0

>  <Q_VSA_FPOL>
0

>  <Q_VSA_FPOS>
1

>  <Q_VSA_FPPOS>
0

>  <Q_VSA_HYD>
361.78076

>  <Q_VSA_NEG>
0

>  <Q_VSA_PNEG>
0

>  <Q_VSA_POL>
0

>  <Q_VSA_POS>
361.78076

>  <Q_VSA_PPOS>
0

>  <radius>
8

>  <reactive>
0

>  <rings>
3

>  <RPC+>
0

>  <RPC->
0

>  <rsynth>
1

>  <SlogP>
6.3797002

>  <SlogP_VSA0>
10.999887

>  <SlogP_VSA1>
7.7454643

>  <SlogP_VSA2>
34.862103

>  <SlogP_VSA3>
0

>  <SlogP_VSA4>
12.007167

>  <SlogP_VSA5>
3.8156381

>  <SlogP_VSA6>
0

>  <SlogP_VSA7>
176.43184

>  <SlogP_VSA8>
0

>  <SlogP_VSA9>
176.36243

>  <SMR>
10.3509

>  <SMR_VSA0>
34.862103

>  <SMR_VSA1>
10.999887

>  <SMR_VSA2>
8.8215923

>  <SMR_VSA3>
17.48807

>  <SMR_VSA4>
0

>  <SMR_VSA5>
197.35811

>  <SMR_VSA6>
7.7454643

>  <SMR_VSA7>
144.94931

>  <TPSA>
35.529999

>  <VAdjEq>
0.41210872

>  <VAdjMa>
5.8073549

>  <VDistEq>
3.6983342

>  <VDistMa>
9.0788803

>  <vdw_area>
361.78076

>  <vdw_vol>
439.30505

>  <vsa_acc>
13.566921

>  <vsa_acid>
0

>  <vsa_base>
0

>  <vsa_don>
0

>  <vsa_hyd>
321.66687

>  <vsa_other>
26.546965

>  <vsa_pol>
13.566921

>  <Weight>
391.29398

>  <weinerPath>
1945

>  <weinerPol>
34

>  <zagreb>
136

$$$$
CCOP(=S)(OCC)SCN1c2ccc(Cl)cc2OC1=O
  MOE2011           2D

 21 22  0  0  0  0  0  0  0  0999 V2000
    0.0000    0.0000    0.0000 C   0  0  0  0  0  0  0  0  0  0  0  0
    0.7470   -1.3010    0.0000 C   0  0  0  0  0  0  0  0  0  0  0  0
    2.2470   -1.3050    0.0000 O   0  0  0  0  0  0  0  0  0  0  0  0
    2.9930   -2.6060    0.0000 P   0  0  0  0  0  0  0  0  0  0  0  0
    3.7400   -3.9060    0.0000 S   0  0  0  0  0  0  0  0  0  0  0  0
    1.6930   -3.3520    0.0000 O   0  0  0  0  0  0  0  0  0  0  0  0
    1.6890   -4.8520    0.0000 C   0  0  0  0  0  0  0  0  0  0  0  0
    0.3880   -5.5990    0.0000 C   0  0  0  0  0  0  0  0  0  0  0  0
    4.2940   -1.8590    0.0000 S   0  0  0  0  0  0  0  0  0  0  0  0
    5.5920   -2.6120    0.0000 C   0  0  0  0  0  0  0  0  0  0  0  0
    6.8920   -1.8650    0.0000 N   0  0  0  0  0  0  0  0  0  0  0  0
    8.2610   -2.4790    0.0000 C   0  0  0  0  0  0  0  0  0  0  0  0
    8.7210   -3.9070    0.0000 C   0  0  0  0  0  0  0  0  0  0  0  0
   10.1880   -4.2220    0.0000 C   0  0  0  0  0  0  0  0  0  0  0  0
   11.1940   -3.1100    0.0000 C   0  0  0  0  0  0  0  0  0  0  0  0
   12.6610   -3.4250    0.0000 Cl  0  0  0  0  0  0  0  0  0  0  0  0
   10.7340   -1.6820    0.0000 C   0  0  0  0  0  0  0  0  0  0  0  0
    9.2680   -1.3670    0.0000 C   0  0  0  0  0  0  0  0  0  0  0  0
    8.5210   -0.0660    0.0000 O   0  0  0  0  0  0  0  0  0  0  0  0
    7.0530   -0.3740    0.0000 C   0  0  0  0  0  0  0  0  0  0  0  0
    5.9410    0.6330    0.0000 O   0  0  0  0  0  0  0  0  0  0  0  0
  1  2  1  0  0  0  0
  2  3  1  0  0  0  0
  3  4  1  0  0  0  0
  4  5  2  0  0  0  0
  4  6  1  0  0  0  0
  4  9  1  0  0  0  0
  6  7  1  0  0  0  0
  7  8  1  0  0  0  0
  9 10  1  0  0  0  0
 10 11  1  0  0  0  0
 11 12  1  0  0  0  0
 11 20  1  0  0  0  0
 12 13  1  0  0  0  0
 12 18  2  0  0  0  0
 13 14  2  0  0  0  0
 14 15  1  0  0  0  0
 15 16  1  0  0  0  0
 15 17  2  0  0  0  0
 17 18  1  0  0  0  0
 18 19  1  0  0  0  0
 19 20  1  0  0  0  0
 20 21  2  0  0  0  0
M  END
>  <DSSTox_RID>
40555

>  <DSSTox_CID>
4259

>  <apol>
47.039894

>  <a_acc>
3

>  <a_acid>
0

>  <a_aro>
6

>  <a_base>
0

>  <a_count>
36

>  <a_don>
0

>  <a_heavy>
21

>  <a_hyd>
12

>  <a_IC>
74.494392

>  <a_ICM>
2.0692887

>  <a_nB>
0

>  <a_nBr>
0

>  <a_nC>
12

>  <a_nCl>
1

>  <a_nF>
0

>  <a_nH>
15

>  <a_nI>
0

>  <a_nN>
1

>  <a_nO>
4

>  <a_nP>
1

>  <a_nS>
2

>  <balabanJ>
1.9239712

>  <BCUT_PEOE_0>
-2.4842136

>  <BCUT_PEOE_1>
-0.42260602

>  <BCUT_PEOE_2>
0.43669829

>  <BCUT_PEOE_3>
2.5352371

>  <BCUT_SLOGP_0>
-2.4600515

>  <BCUT_SLOGP_1>
-0.0863939

>  <BCUT_SLOGP_2>
0.56663918

>  <BCUT_SLOGP_3>
2.7748485

>  <BCUT_SMR_0>
-2.2051258

>  <BCUT_SMR_1>
-0.12056868

>  <BCUT_SMR_2>
0.72176808

>  <BCUT_SMR_3>
2.9066536

>  <bpol>
31.844105

>  <b_1rotN>
7

>  <b_1rotR>
0.31818181

>  <b_ar>
6

>  <b_count>
37

>  <b_double>
1

>  <b_heavy>
22

>  <b_rotN>
7

>  <b_rotR>
0.31818181

>  <b_single>
30

>  <b_triple>
0

>  <chi0>
15.457819

>  <chi0v>
14.858602

>  <chi0v_C>
7.8533711

>  <chi0_C>
8.552042

>  <chi1>
9.9873123

>  <chi1v>
10.920164

>  <chi1v_C>
3.1522474

>  <chi1_C>
3.8805401

>  <chiral>
0

>  <chiral_u>
0

>  <density>
0.98986334

>  <diameter>
11

>  <FCharge>
0

>  <GCUT_PEOE_0>
-0.77743292

>  <GCUT_PEOE_1>
-0.41571677

>  <GCUT_PEOE_2>
-0.059580319

>  <GCUT_PEOE_3>
2.4196441

>  <GCUT_SLOGP_0>
-1.007892

>  <GCUT_SLOGP_1>
-0.22641286

>  <GCUT_SLOGP_2>
0.17753528

>  <GCUT_SLOGP_3>
2.5786016

>  <GCUT_SMR_0>
-0.51723373

>  <GCUT_SMR_1>
-0.12951344

>  <GCUT_SMR_2>
0.26840445

>  <GCUT_SMR_3>
2.7421916

>  <Kier1>
17.355371

>  <Kier2>
7.5130072

>  <Kier3>
4.260355

>  <KierA1>
19.348625

>  <KierA2>
8.4222651

>  <KierA3>
4.7961354

>  <KierFlex>
7.759964

>  <lip_acc>
5

>  <lip_don>
0

>  <lip_druglike>
1

>  <lip_violation>
0

>  <logP(o/w)>
4.0999999

>  <logS>
-5.5285001

>  <mr>
9.0521832

>  <mutagenic>
0

>  <nmol>
1

>  <opr_brigid>
10

>  <opr_leadlike>
1

>  <opr_nring>
2

>  <opr_nrot>
7

>  <opr_violation>
1

>  <PC+>
0

>  <PC->
0

>  <PEOE_PC+>
1.7746269

>  <PEOE_PC->
-1.7746269

>  <PEOE_RPC+>
0.21092469

>  <PEOE_RPC->
0.27449784

>  <PEOE_VSA+0>
106.24239

>  <PEOE_VSA+1>
32.603893

>  <PEOE_VSA+2>
8.458519

>  <PEOE_VSA+3>
0

>  <PEOE_VSA+4>
66.392517

>  <PEOE_VSA+5>
12.467347

>  <PEOE_VSA+6>
19.199511

>  <PEOE_VSA-0>
0

>  <PEOE_VSA-1>
29.581947

>  <PEOE_VSA-2>
0

>  <PEOE_VSA-3>
0

>  <PEOE_VSA-4>
22.898865

>  <PEOE_VSA-5>
2.503756

>  <PEOE_VSA-6>
33.008488

>  <PEOE_VSA_FHYD>
0.53062218

>  <PEOE_VSA_FNEG>
0.26396024

>  <PEOE_VSA_FPNEG>
0.17522077

>  <PEOE_VSA_FPOL>
0.46937782

>  <PEOE_VSA_FPOS>
0.73603976

>  <PEOE_VSA_FPPOS>
0.29415703

>  <PEOE_VSA_HYD>
176.88673

>  <PEOE_VSA_NEG>
87.993057

>  <PEOE_VSA_PNEG>
58.411106

>  <PEOE_VSA_POL>
156.47049

>  <PEOE_VSA_POS>
245.36417

>  <PEOE_VSA_PPOS>
98.059372

>  <petitjean>
0.45454547

>  <petitjeanSC>
0.83333331

>  <Q_PC+>
0

>  <Q_PC->
0

>  <Q_RPC+>
0

>  <Q_RPC->
0

>  <Q_VSA_FHYD>
1

>  <Q_VSA_FNEG>
0

>  <Q_VSA_FPNEG>
0

>  <Q_VSA_FPOL>
0

>  <Q_VSA_FPOS>
1

>  <Q_VSA_FPPOS>
0

>  <Q_VSA_HYD>
333.35721

>  <Q_VSA_NEG>
0

>  <Q_VSA_PNEG>
0

>  <Q_VSA_POL>
0

>  <Q_VSA_POS>
333.35721

>  <Q_VSA_PPOS>
0

>  <radius>
6

>  <reactive>
0

>  <rings>
2

>  <RPC+>
0

>  <RPC->
0

>  <rsynth>
1

>  <SlogP>
4.6469998

>  <SlogP_VSA0>
14.124202

>  <SlogP_VSA1>
7.3166366

>  <SlogP_VSA2>
56.537235

>  <SlogP_VSA3>
58.657253

>  <SlogP_VSA4>
0

>  <SlogP_VSA5>
0

>  <SlogP_VSA6>
3.5006065

>  <SlogP_VSA7>
52.929554

>  <SlogP_VSA8>
0

>  <SlogP_VSA9>
175.11975

>  <SMR>
8.9951

>  <SMR_VSA0>
37.705479

>  <SMR_VSA1>
10.999887

>  <SMR_VSA2>
3.1243138

>  <SMR_VSA3>
8.7440348

>  <SMR_VSA4>
2.7567475

>  <SMR_VSA5>
52.929554

>  <SMR_VSA6>
65.973892

>  <SMR_VSA7>
185.95132

>  <TPSA>
80.089996

>  <VAdjEq>
0.46827638

>  <VAdjMa>
5.4594316

>  <VDistEq>
3.2241383

>  <VDistMa>
8.4909592

>  <vdw_area>
333.35721

>  <vdw_vol>
356.30576

>  <vsa_acc>
22.898865

>  <vsa_acid>
0

>  <vsa_base>
0

>  <vsa_don>
0

>  <vsa_hyd>
221.89467

>  <vsa_other>
88.563698

>  <vsa_pol>
22.898865

>  <Weight>
367.814

>  <weinerPath>
959

>  <weinerPol>
31

>  <zagreb>
106

$$$$
ClC1=C(Cl)N=C(C(O)=O)C(Cl)=C1N
  MOE2011           2D

 13 13  0  0  0  0  0  0  0  0999 V2000
    0.0000    0.0000    0.0000 Cl  0  0  0  0  0  0  0  0  0  0  0  0
   -1.5000   -0.0090    0.0000 C   0  0  0  0  0  0  0  0  0  0  0  0
   -2.2580    1.2850    0.0000 C   0  0  0  0  0  0  0  0  0  0  0  0
   -1.5160    2.5890    0.0000 Cl  0  0  0  0  0  0  0  0  0  0  0  0
   -3.7580    1.2760    0.0000 N   0  0  0  0  0  0  0  0  0  0  0  0
   -4.5000   -0.0270    0.0000 C   0  0  0  0  0  0  0  0  0  0  0  0
   -6.0000   -0.0370    0.0000 C   0  0  0  0  0  0  0  0  0  0  0  0
   -6.7420   -1.3400    0.0000 O   0  0  0  0  0  0  0  0  0  0  0  0
   -6.7580    1.2580    0.0000 O   0  0  0  0  0  0  0  0  0  0  0  0
   -3.7420   -1.3220    0.0000 C   0  0  0  0  0  0  0  0  0  0  0  0
   -4.4840   -2.6250    0.0000 Cl  0  0  0  0  0  0  0  0  0  0  0  0
   -2.2420   -1.3130    0.0000 C   0  0  0  0  0  0  0  0  0  0  0  0
   -1.4840   -2.6070    0.0000 N   0  0  0  0  0  0  0  0  0  0  0  0
  1  2  1  0  0  0  0
  2  3  1  0  0  0  0
  2 12  2  0  0  0  0
  3  4  1  0  0  0  0
  3  5  2  0  0  0  0
  5  6  1  0  0  0  0
  6  7  1  0  0  0  0
  6 10  2  0  0  0  0
  7  8  1  0  0  0  0
  7  9  2  0  0  0  0
 10 11  1  0  0  0  0
 10 12  1  0  0  0  0
 12 13  1  0  0  0  0
M  END
>  <DSSTox_RID>
40559

>  <DSSTox_CID>
1160

>  <apol>
22.904379

>  <a_acc>
3

>  <a_acid>
0

>  <a_aro>
6

>  <a_base>
0

>  <a_count>
16

>  <a_don>
3

>  <a_heavy>
13

>  <a_hyd>
7

>  <a_IC>
34.98045

>  <a_ICM>
2.1862781

>  <a_nB>
0

>  <a_nBr>
0

>  <a_nC>
6

>  <a_nCl>
3

>  <a_nF>
0

>  <a_nH>
3

>  <a_nI>
0

>  <a_nN>
2

>  <a_nO>
2

>  <a_nP>
0

>  <a_nS>
0

>  <balabanJ>
2.7396185

>  <BCUT_PEOE_0>
-2.1548095

>  <BCUT_PEOE_1>
-0.64210403

>  <BCUT_PEOE_2>
0.6764406

>  <BCUT_PEOE_3>
2.210165

>  <BCUT_SLOGP_0>
-2.3192201

>  <BCUT_SLOGP_1>
-0.44286722

>  <BCUT_SLOGP_2>
0.88830751

>  <BCUT_SLOGP_3>
2.3529019

>  <BCUT_SMR_0>
-1.821703

>  <BCUT_SMR_1>
-0.34094578

>  <BCUT_SMR_2>
0.97521758

>  <BCUT_SMR_3>
2.5234821

>  <bpol>
6.1576209

>  <b_1rotN>
1

>  <b_1rotR>
0.07692308

>  <b_ar>
6

>  <b_count>
16

>  <b_double>
1

>  <b_heavy>
13

>  <b_rotN>
1

>  <b_rotR>
0.07692308

>  <b_single>
9

>  <b_triple>
0

>  <chi0>
10.171208

>  <chi0v>
8.2817059

>  <chi0v_C>
3

>  <chi0_C>
3.4641016

>  <chi1>
5.9472647

>  <chi1v>
4.11446

>  <chi1v_C>
1.25

>  <chi1_C>
1.6666666

>  <chiral>
0

>  <chiral_u>
0

>  <density>
1.1670783

>  <diameter>
6

>  <FCharge>
0

>  <GCUT_PEOE_0>
-0.79951626

>  <GCUT_PEOE_1>
-0.48971426

>  <GCUT_PEOE_2>
0.12627712

>  <GCUT_PEOE_3>
1.9876531

>  <GCUT_SLOGP_0>
-1.3341889

>  <GCUT_SLOGP_1>
-0.31865969

>  <GCUT_SLOGP_2>
0.37505111

>  <GCUT_SLOGP_3>
2.1414082

>  <GCUT_SMR_0>
-0.40701827

>  <GCUT_SMR_1>
-0.21405719

>  <GCUT_SMR_2>
0.4162873

>  <GCUT_SMR_3>
2.30603

>  <Kier1>
11.076923

>  <Kier2>
4.0221605

>  <Kier3>
2.0833333

>  <KierA1>
11.287755

>  <KierA2>
4.1055388

>  <KierA3>
2.1295025

>  <KierFlex>
3.5647938

>  <lip_acc>
4

>  <lip_don>
3

>  <lip_druglike>
1

>  <lip_violation>
0

>  <logP(o/w)>
1.813

>  <logS>
-2.4840701

>  <mr>
4.9154129

>  <mutagenic>
0

>  <nmol>
1

>  <opr_brigid>
6

>  <opr_leadlike>
1

>  <opr_nring>
1

>  <opr_nrot>
1

>  <opr_violation>
0

>  <PC+>
0

>  <PC->
0

>  <PEOE_PC+>
0.9410823

>  <PEOE_PC->
-0.9410823

>  <PEOE_RPC+>
0.36397445

>  <PEOE_RPC->
0.27086592

>  <PEOE_VSA+0>
0

>  <PEOE_VSA+1>
15.739044

>  <PEOE_VSA+2>
0

>  <PEOE_VSA+3>
15.710309

>  <PEOE_VSA+4>
0

>  <PEOE_VSA+5>
0

>  <PEOE_VSA+6>
14.708499

>  <PEOE_VSA-0>
0

>  <PEOE_VSA-1>
106.48833

>  <PEOE_VSA-2>
13.566921

>  <PEOE_VSA-3>
0

>  <PEOE_VSA-4>
5.6825762

>  <PEOE_VSA-5>
13.566921

>  <PEOE_VSA-6>
0

>  <PEOE_VSA_FHYD>
0.81690109

>  <PEOE_VSA_FNEG>
0.75112045

>  <PEOE_VSA_FPNEG>
0.1037918

>  <PEOE_VSA_FPOL>
0.18309888

>  <PEOE_VSA_FPOS>
0.24887957

>  <PEOE_VSA_FPPOS>
0.079307094

>  <PEOE_VSA_HYD>
151.50461

>  <PEOE_VSA_NEG>
139.30475

>  <PEOE_VSA_PNEG>
19.249496

>  <PEOE_VSA_POL>
33.957996

>  <PEOE_VSA_POS>
46.157852

>  <PEOE_VSA_PPOS>
14.708499

>  <petitjean>
0.33333334

>  <petitjeanSC>
0.5

>  <Q_PC+>
0

>  <Q_PC->
0

>  <Q_RPC+>
0

>  <Q_RPC->
0

>  <Q_VSA_FHYD>
1

>  <Q_VSA_FNEG>
0

>  <Q_VSA_FPNEG>
0

>  <Q_VSA_FPOL>
0

>  <Q_VSA_FPOS>
1

>  <Q_VSA_FPPOS>
0

>  <Q_VSA_HYD>
185.4626

>  <Q_VSA_NEG>
0

>  <Q_VSA_PNEG>
0

>  <Q_VSA_POL>
0

>  <Q_VSA_POS>
185.4626

>  <Q_VSA_PPOS>
0

>  <radius>
4

>  <reactive>
0

>  <rings>
1

>  <RPC+>
0

>  <RPC->
0

>  <rsynth>
1

>  <SlogP>
2.3222001

>  <SlogP_VSA0>
32.897186

>  <SlogP_VSA1>
24.530994

>  <SlogP_VSA2>
0

>  <SlogP_VSA3>
25.385227

>  <SlogP_VSA4>
26.618963

>  <SlogP_VSA5>
0

>  <SlogP_VSA6>
10.072992

>  <SlogP_VSA7>
0

>  <SlogP_VSA8>
0

>  <SlogP_VSA9>
120.20268

>  <SMR>
5.06387

>  <SMR_VSA0>
23.862217

>  <SMR_VSA1>
16.78553

>  <SMR_VSA2>
25.385227

>  <SMR_VSA3>
12.82974

>  <SMR_VSA4>
2.7567475

>  <SMR_VSA5>
32.897186

>  <SMR_VSA6>
7.7454643

>  <SMR_VSA7>
117.44593

>  <TPSA>
76.209999

>  <VAdjEq>
0.6193822

>  <VAdjMa>
4.7004399

>  <VDistEq>
2.3667052

>  <VDistMa>
7.1310229

>  <vdw_area>
185.4626

>  <vdw_vol>
204.30249

>  <vsa_acc>
5.6825762

>  <vsa_acid>
0

>  <vsa_base>
0

>  <vsa_don>
17.742489

>  <vsa_hyd>
111.18443

>  <vsa_other>
23.719257

>  <vsa_pol>
50.558907

>  <Weight>
241.461

>  <weinerPath>
226

>  <weinerPol>
21

>  <zagreb>
64

$$$$
CCCC1=CC2=C(C=C1COCCOCCOCCCC)OCO2
  MOE2011           2D

 24 25  0  0  0  0  0  0  0  0999 V2000
    0.0000    0.0000    0.0000 C   0  0  0  0  0  0  0  0  0  0  0  0
   -0.7570   -1.2950    0.0000 C   0  0  0  0  0  0  0  0  0  0  0  0
   -0.0130   -2.5980    0.0000 C   0  0  0  0  0  0  0  0  0  0  0  0
   -0.7700   -3.8930    0.0000 C   0  0  0  0  0  0  0  0  0  0  0  0
   -2.2700   -3.8860    0.0000 C   0  0  0  0  0  0  0  0  0  0  0  0
   -3.0260   -5.1810    0.0000 C   0  0  0  0  0  0  0  0  0  0  0  0
   -2.2830   -6.4840    0.0000 C   0  0  0  0  0  0  0  0  0  0  0  0
   -0.7830   -6.4910    0.0000 C   0  0  0  0  0  0  0  0  0  0  0  0
   -0.0260   -5.1960    0.0000 C   0  0  0  0  0  0  0  0  0  0  0  0
    1.4740   -5.2040    0.0000 C   0  0  0  0  0  0  0  0  0  0  0  0
    2.2170   -6.5060    0.0000 O   0  0  0  0  0  0  0  0  0  0  0  0
    3.7170   -6.5140    0.0000 C   0  0  0  0  0  0  0  0  0  0  0  0
    4.4610   -7.8170    0.0000 C   0  0  0  0  0  0  0  0  0  0  0  0
    5.9610   -7.8240    0.0000 O   0  0  0  0  0  0  0  0  0  0  0  0
    6.7040   -9.1270    0.0000 C   0  0  0  0  0  0  0  0  0  0  0  0
    8.2040   -9.1350    0.0000 C   0  0  0  0  0  0  0  0  0  0  0  0
    8.9480  -10.4370    0.0000 O   0  0  0  0  0  0  0  0  0  0  0  0
   10.4480  -10.4450    0.0000 C   0  0  0  0  0  0  0  0  0  0  0  0
   11.1910  -11.7480    0.0000 C   0  0  0  0  0  0  0  0  0  0  0  0
   12.6910  -11.7550    0.0000 C   0  0  0  0  0  0  0  0  0  0  0  0
   13.4350  -13.0580    0.0000 C   0  0  0  0  0  0  0  0  0  0  0  0
   -3.2920   -7.5930    0.0000 O   0  0  0  0  0  0  0  0  0  0  0  0
   -4.6590   -6.9770    0.0000 C   0  0  0  0  0  0  0  0  0  0  0  0
   -4.4950   -5.4860    0.0000 O   0  0  0  0  0  0  0  0  0  0  0  0
  1  2  1  0  0  0  0
  2  3  1  0  0  0  0
  3  4  1  0  0  0  0
  4  5  1  0  0  0  0
  4  9  2  0  0  0  0
  5  6  2  0  0  0  0
  6  7  1  0  0  0  0
  6 24  1  0  0  0  0
  7  8  2  0  0  0  0
  7 22  1  0  0  0  0
  8  9  1  0  0  0  0
  9 10  1  0  0  0  0
 10 11  1  0  0  0  0
 11 12  1  0  0  0  0
 12 13  1  0  0  0  0
 13 14  1  0  0  0  0
 14 15  1  0  0  0  0
 15 16  1  0  0  0  0
 16 17  1  0  0  0  0
 17 18  1  0  0  0  0
 18 19  1  0  0  0  0
 19 20  1  0  0  0  0
 20 21  1  0  0  0  0
 22 23  1  0  0  0  0
 23 24  1  0  0  0  0
M  END
>  <DSSTox_RID>
40560

>  <DSSTox_CID>
1166

>  <apol>
57.453789

>  <a_acc>
5

>  <a_acid>
0

>  <a_aro>
6

>  <a_base>
0

>  <a_count>
54

>  <a_don>
0

>  <a_heavy>
24

>  <a_hyd>
18

>  <a_IC>
71.236946

>  <a_ICM>
1.3192027

>  <a_nB>
0

>  <a_nBr>
0

>  <a_nC>
19

>  <a_nCl>
0

>  <a_nF>
0

>  <a_nH>
30

>  <a_nI>
0

>  <a_nN>
0

>  <a_nO>
5

>  <a_nP>
0

>  <a_nS>
0

>  <balabanJ>
1.5201147

>  <BCUT_PEOE_0>
-2.6046917

>  <BCUT_PEOE_1>
-0.22678332

>  <BCUT_PEOE_2>
0.1803326

>  <BCUT_PEOE_3>
2.5565455

>  <BCUT_SLOGP_0>
-2.6258988

>  <BCUT_SLOGP_1>
-0.064465381

>  <BCUT_SLOGP_2>
0.23909813

>  <BCUT_SLOGP_3>
2.6433578

>  <BCUT_SMR_0>
-2.3630805

>  <BCUT_SMR_1>
0.021466974

>  <BCUT_SMR_2>
0.25485116

>  <BCUT_SMR_3>
2.7919374

>  <bpol>
42.376209

>  <b_1rotN>
13

>  <b_1rotR>
0.51999998

>  <b_ar>
6

>  <b_count>
55

>  <b_double>
0

>  <b_heavy>
25

>  <b_rotN>
13

>  <b_rotR>
0.51999998

>  <b_single>
49

>  <b_triple>
0

>  <chi0>
17.037323

>  <chi0v>
14.974116

>  <chi0v_C>
12.932875

>  <chi0_C>
13.501789

>  <chi1>
11.846867

>  <chi1v>
8.9936705

>  <chi1v_C>
6.276021

>  <chi1_C>
7.0303698

>  <chiral>
0

>  <chiral_u>
0

>  <density>
0.77567875

>  <diameter>
16

>  <FCharge>
0

>  <GCUT_PEOE_0>
-0.81239653

>  <GCUT_PEOE_1>
-0.34000814

>  <GCUT_PEOE_2>
-0.090022519

>  <GCUT_PEOE_3>
2.5872869

>  <GCUT_SLOGP_0>
-0.94359767

>  <GCUT_SLOGP_1>
-0.22138217

>  <GCUT_SLOGP_2>
-0.012728354

>  <GCUT_SLOGP_3>
2.6905336

>  <GCUT_SMR_0>
-0.52890694

>  <GCUT_SMR_1>
-0.11696392

>  <GCUT_SMR_2>
-0.0045013884

>  <GCUT_SMR_3>
2.8304877

>  <Kier1>
20.313601

>  <Kier2>
12.368889

>  <Kier3>
7.4243975

>  <KierA1>
18.342997

>  <KierA2>
11.117121

>  <KierA3>
6.6507168

>  <KierFlex>
8.4967213

>  <lip_acc>
5

>  <lip_don>
0

>  <lip_druglike>
1

>  <lip_violation>
0

>  <logP(o/w)>
3.68748

>  <logS>
-4.29002

>  <mr>
9.4789772

>  <mutagenic>
0

>  <nmol>
1

>  <opr_brigid>
10

>  <opr_leadlike>
1

>  <opr_nring>
2

>  <opr_nrot>
13

>  <opr_violation>
1

>  <PC+>
0

>  <PC->
0

>  <PEOE_PC+>
1.6660007

>  <PEOE_PC->
-1.6660007

>  <PEOE_RPC+>
0.18218735

>  <PEOE_RPC->
0.21074606

>  <PEOE_VSA+0>
155.8764

>  <PEOE_VSA+1>
0

>  <PEOE_VSA+2>
38.975513

>  <PEOE_VSA+3>
110.29237

>  <PEOE_VSA+4>
0

>  <PEOE_VSA+5>
0

>  <PEOE_VSA+6>
28.308455

>  <PEOE_VSA-0>
2.2085397

>  <PEOE_VSA-1>
0

>  <PEOE_VSA-2>
0

>  <PEOE_VSA-3>
0

>  <PEOE_VSA-4>
0

>  <PEOE_VSA-5>
5.0075121

>  <PEOE_VSA-6>
7.5112681

>  <PEOE_VSA_FHYD>
0.88274103

>  <PEOE_VSA_FNEG>
0.042298

>  <PEOE_VSA_FPNEG>
0.035954904

>  <PEOE_VSA_FPOL>
0.11725897

>  <PEOE_VSA_FPOS>
0.95770198

>  <PEOE_VSA_FPPOS>
0.081304066

>  <PEOE_VSA_HYD>
307.35284

>  <PEOE_VSA_NEG>
14.727321

>  <PEOE_VSA_PNEG>
12.518781

>  <PEOE_VSA_POL>
40.827236

>  <PEOE_VSA_POS>
333.45276

>  <PEOE_VSA_PPOS>
28.308455

>  <petitjean>
0.5

>  <petitjeanSC>
1

>  <Q_PC+>
0

>  <Q_PC->
0

>  <Q_RPC+>
0

>  <Q_RPC->
0

>  <Q_VSA_FHYD>
1

>  <Q_VSA_FNEG>
0

>  <Q_VSA_FPNEG>
0

>  <Q_VSA_FPOL>
0

>  <Q_VSA_FPOS>
1

>  <Q_VSA_FPPOS>
0

>  <Q_VSA_HYD>
348.18005

>  <Q_VSA_NEG>
0

>  <Q_VSA_PNEG>
0

>  <Q_VSA_POL>
0

>  <Q_VSA_POS>
348.18005

>  <Q_VSA_PPOS>
0

>  <radius>
8

>  <reactive>
0

>  <rings>
2

>  <RPC+>
0

>  <RPC->
0

>  <rsynth>
1

>  <SlogP>
3.9840701

>  <SlogP_VSA0>
21.999775

>  <SlogP_VSA1>
0

>  <SlogP_VSA2>
32.999664

>  <SlogP_VSA3>
127.6154

>  <SlogP_VSA4>
6.37115

>  <SlogP_VSA5>
18.868406

>  <SlogP_VSA6>
0

>  <SlogP_VSA7>
35.286369

>  <SlogP_VSA8>
56.605217

>  <SlogP_VSA9>
98.065147

>  <SMR>
9.2966995

>  <SMR_VSA0>
32.999664

>  <SMR_VSA1>
21.999775

>  <SMR_VSA2>
0

>  <SMR_VSA3>
16.858006

>  <SMR_VSA4>
0

>  <SMR_VSA5>
131.68625

>  <SMR_VSA6>
127.6154

>  <SMR_VSA7>
66.652031

>  <TPSA>
46.150002

>  <VAdjEq>
0.42571631

>  <VAdjMa>
5.643856

>  <VDistEq>
3.8282332

>  <VDistMa>
8.8107538

>  <vdw_area>
348.18005

>  <vdw_vol>
397.33456

>  <vsa_acc>
12.518781

>  <vsa_acid>
0

>  <vsa_base>
0

>  <vsa_don>
0

>  <vsa_hyd>
307.35284

>  <vsa_other>
28.308455

>  <vsa_pol>
12.518781

>  <Weight>
338.444

>  <weinerPath>
1767

>  <weinerPol>
29

>  <zagreb>
110

$$$$
O=C(N(C)C)OC(N=C(N(C)C)N=C1C)=C1C
  MOE2011           2D

 17 17  0  0  0  0  0  0  0  0999 V2000
    0.0000    0.0000    0.0000 O   0  0  0  0  0  0  0  0  0  0  0  0
    0.7610    1.2930    0.0000 C   0  0  0  0  0  0  0  0  0  0  0  0
    2.2610    1.2800    0.0000 N   0  0  0  0  0  0  0  0  0  0  0  0
    3.0210    2.5730    0.0000 C   0  0  0  0  0  0  0  0  0  0  0  0
    3.0000   -0.0250    0.0000 C   0  0  0  0  0  0  0  0  0  0  0  0
    0.0220    2.5980    0.0000 O   0  0  0  0  0  0  0  0  0  0  0  0
   -1.4780    2.6100    0.0000 C   0  0  0  0  0  0  0  0  0  0  0  0
   -2.2390    1.3180    0.0000 N   0  0  0  0  0  0  0  0  0  0  0  0
   -3.7390    1.3300    0.0000 C   0  0  0  0  0  0  0  0  0  0  0  0
   -4.5000    0.0370    0.0000 N   0  0  0  0  0  0  0  0  0  0  0  0
   -3.7610   -1.2680    0.0000 C   0  0  0  0  0  0  0  0  0  0  0  0
   -6.0000    0.0500    0.0000 C   0  0  0  0  0  0  0  0  0  0  0  0
   -4.4780    2.6350    0.0000 N   0  0  0  0  0  0  0  0  0  0  0  0
   -3.7180    3.9280    0.0000 C   0  0  0  0  0  0  0  0  0  0  0  0
   -4.4570    5.2330    0.0000 C   0  0  0  0  0  0  0  0  0  0  0  0
   -2.2180    3.9160    0.0000 C   0  0  0  0  0  0  0  0  0  0  0  0
   -1.4570    5.2080    0.0000 C   0  0  0  0  0  0  0  0  0  0  0  0
  1  2  2  0  0  0  0
  2  3  1  0  0  0  0
  2  6  1  0  0  0  0
  3  4  1  0  0  0  0
  3  5  1  0  0  0  0
  6  7  1  0  0  0  0
  7  8  1  0  0  0  0
  7 16  2  0  0  0  0
  8  9  2  0  0  0  0
  9 10  1  0  0  0  0
  9 13  1  0  0  0  0
 10 11  1  0  0  0  0
 10 12  1  0  0  0  0
 13 14  2  0  0  0  0
 14 15  1  0  0  0  0
 14 16  1  0  0  0  0
 16 17  1  0  0  0  0
M  END
>  <DSSTox_RID>
40561

>  <DSSTox_CID>
12569

>  <apol>
37.366276

>  <a_acc>
3

>  <a_acid>
0

>  <a_aro>
6

>  <a_base>
0

>  <a_count>
35

>  <a_don>
0

>  <a_heavy>
17

>  <a_hyd>
8

>  <a_IC>
56.412506

>  <a_ICM>
1.6117859

>  <a_nB>
0

>  <a_nBr>
0

>  <a_nC>
11

>  <a_nCl>
0

>  <a_nF>
0

>  <a_nH>
18

>  <a_nI>
0

>  <a_nN>
4

>  <a_nO>
2

>  <a_nP>
0

>  <a_nS>
0

>  <balabanJ>
2.6324089

>  <BCUT_PEOE_0>
-2.4513941

>  <BCUT_PEOE_1>
-0.16188569

>  <BCUT_PEOE_2>
0.045303185

>  <BCUT_PEOE_3>
2.3884597

>  <BCUT_SLOGP_0>
-2.5692742

>  <BCUT_SLOGP_1>
-0.053329617

>  <BCUT_SLOGP_2>
0.123

>  <BCUT_SLOGP_3>
2.4316721

>  <BCUT_SMR_0>
-2.1658595

>  <BCUT_SMR_1>
0.1057

>  <BCUT_SMR_2>
0.14853382

>  <BCUT_SMR_3>
2.6701186

>  <bpol>
29.151726

>  <b_1rotN>
3

>  <b_1rotR>
0.17647059

>  <b_ar>
6

>  <b_count>
35

>  <b_double>
1

>  <b_heavy>
17

>  <b_rotN>
4

>  <b_rotR>
0.23529412

>  <b_single>
28

>  <b_triple>
0

>  <chi0>
13.162772

>  <chi0v>
11.10535

>  <chi0v_C>
8.5

>  <chi0_C>
8.8867512

>  <chi1>
7.824275

>  <chi1v>
5.2428675

>  <chi1v_C>
1.5

>  <chi1_C>
1.8213673

>  <chiral>
0

>  <chiral_u>
0

>  <density>
0.79690146

>  <diameter>
8

>  <FCharge>
0

>  <GCUT_PEOE_0>
-0.83689386

>  <GCUT_PEOE_1>
-0.38971272

>  <GCUT_PEOE_2>
-0.11469682

>  <GCUT_PEOE_3>
2.3681669

>  <GCUT_SLOGP_0>
-0.98152435

>  <GCUT_SLOGP_1>
-0.27388108

>  <GCUT_SLOGP_2>
-0.037

>  <GCUT_SLOGP_3>
2.4100523

>  <GCUT_SMR_0>
-0.49953756

>  <GCUT_SMR_1>
-0.083693281

>  <GCUT_SMR_2>
-0.054299999

>  <GCUT_SMR_3>
2.6267569

>  <Kier1>
15.058824

>  <Kier2>
6.25

>  <Kier3>
4

>  <KierA1>
11.276384

>  <KierA2>
4.5878906

>  <KierA3>
2.8898277

>  <KierFlex>
3.0432246

>  <lip_acc>
6

>  <lip_don>
0

>  <lip_druglike>
1

>  <lip_violation>
0

>  <logP(o/w)>
0.54400003

>  <logS>
-1.6834

>  <mr>
6.4857507

>  <mutagenic>
0

>  <nmol>
1

>  <opr_brigid>
6

>  <opr_leadlike>
1

>  <opr_nring>
1

>  <opr_nrot>
2

>  <opr_violation>
0

>  <PC+>
0

>  <PC->
0

>  <PEOE_PC+>
1.4034224

>  <PEOE_PC->
-1.4034224

>  <PEOE_RPC+>
0.2642954

>  <PEOE_RPC->
0.20816651

>  <PEOE_VSA+0>
31.616989

>  <PEOE_VSA+1>
103.90692

>  <PEOE_VSA+2>
67.79892

>  <PEOE_VSA+3>
12.949531

>  <PEOE_VSA+4>
15.681574

>  <PEOE_VSA+5>
0

>  <PEOE_VSA+6>
19.199511

>  <PEOE_VSA-0>
0

>  <PEOE_VSA-1>
0

>  <PEOE_VSA-2>
0

>  <PEOE_VSA-3>
5.6825762

>  <PEOE_VSA-4>
21.753254

>  <PEOE_VSA-5>
0

>  <PEOE_VSA-6>
0

>  <PEOE_VSA_FHYD>
0.79671025

>  <PEOE_VSA_FNEG>
0.098481283

>  <PEOE_VSA_FPNEG>
0.078083597

>  <PEOE_VSA_FPOL>
0.20328973

>  <PEOE_VSA_FPOS>
0.9015187

>  <PEOE_VSA_FPPOS>
0.12520613

>  <PEOE_VSA_HYD>
221.95494

>  <PEOE_VSA_NEG>
27.435829

>  <PEOE_VSA_PNEG>
21.753254

>  <PEOE_VSA_POL>
56.634338

>  <PEOE_VSA_POS>
251.15346

>  <PEOE_VSA_PPOS>
34.881084

>  <petitjean>
0.5

>  <petitjeanSC>
1

>  <Q_PC+>
0

>  <Q_PC->
0

>  <Q_RPC+>
0

>  <Q_RPC->
0

>  <Q_VSA_FHYD>
1

>  <Q_VSA_FNEG>
0

>  <Q_VSA_FPNEG>
0

>  <Q_VSA_FPOL>
0

>  <Q_VSA_FPOS>
1

>  <Q_VSA_FPPOS>
0

>  <Q_VSA_HYD>
278.58929

>  <Q_VSA_NEG>
0

>  <Q_VSA_PNEG>
0

>  <Q_VSA_POL>
0

>  <Q_VSA_POS>
278.58929

>  <Q_VSA_PPOS>
0

>  <radius>
4

>  <reactive>
0

>  <rings>
1

>  <RPC+>
0

>  <RPC->
0

>  <rsynth>
1

>  <SlogP>
1.21984

>  <SlogP_VSA0>
14.124202

>  <SlogP_VSA1>
44.012009

>  <SlogP_VSA2>
0

>  <SlogP_VSA3>
0

>  <SlogP_VSA4>
5.9423227

>  <SlogP_VSA5>
131.58875

>  <SlogP_VSA6>
0

>  <SlogP_VSA7>
0

>  <SlogP_VSA8>
0

>  <SlogP_VSA9>
97.227936

>  <SMR>
6.5544

>  <SMR_VSA0>
23.862217

>  <SMR_VSA1>
47.695259

>  <SMR_VSA2>
3.1243138

>  <SMR_VSA3>
10.756924

>  <SMR_VSA4>
1.8990928

>  <SMR_VSA5>
0

>  <SMR_VSA6>
7.3166366

>  <SMR_VSA7>
198.24078

>  <TPSA>
58.560001

>  <VAdjEq>
0.52255934

>  <VAdjMa>
5.0874629

>  <VDistEq>
2.8689425

>  <VDistMa>
7.8937654

>  <vdw_area>
278.58929

>  <vdw_vol>
276.25372

>  <vsa_acc>
24.932074

>  <vsa_acid>
0

>  <vsa_base>
0

>  <vsa_don>
0

>  <vsa_hyd>
203.32283

>  <vsa_other>
50.334373

>  <vsa_pol>
24.932074

>  <Weight>
238.291

>  <weinerPath>
518

>  <weinerPol>
25

>  <zagreb>
82

$$$$
CCN(CC)c1nc(C)cc(OP(=S)(OC)OC)n1
  MOE2011           2D

 19 19  0  0  0  0  0  0  0  0999 V2000
    0.0000    0.0000    0.0000 C   0  0  0  0  0  0  0  0  0  0  0  0
   -1.2940   -0.7590    0.0000 C   0  0  0  0  0  0  0  0  0  0  0  0
   -2.5980   -0.0170    0.0000 N   0  0  0  0  0  0  0  0  0  0  0  0
   -2.6080    1.4830    0.0000 C   0  0  0  0  0  0  0  0  0  0  0  0
   -1.3140    2.2410    0.0000 C   0  0  0  0  0  0  0  0  0  0  0  0
   -3.8920   -0.7760    0.0000 C   0  0  0  0  0  0  0  0  0  0  0  0
   -3.8820   -2.2760    0.0000 N   0  0  0  0  0  0  0  0  0  0  0  0
   -5.1760   -3.0350    0.0000 C   0  0  0  0  0  0  0  0  0  0  0  0
   -5.1660   -4.5350    0.0000 C   0  0  0  0  0  0  0  0  0  0  0  0
   -6.4800   -2.2930    0.0000 C   0  0  0  0  0  0  0  0  0  0  0  0
   -6.4900   -0.7930    0.0000 C   0  0  0  0  0  0  0  0  0  0  0  0
   -7.7940   -0.0520    0.0000 O   0  0  0  0  0  0  0  0  0  0  0  0
   -9.0880   -0.8110    0.0000 P   0  0  0  0  0  0  0  0  0  0  0  0
   -8.3290   -2.1050    0.0000 S   0  0  0  0  0  0  0  0  0  0  0  0
   -9.8470    0.4830    0.0000 O   0  0  0  0  0  0  0  0  0  0  0  0
  -11.3470    0.4730    0.0000 C   0  0  0  0  0  0  0  0  0  0  0  0
  -10.3820   -1.5690    0.0000 O   0  0  0  0  0  0  0  0  0  0  0  0
  -10.3720   -3.0690    0.0000 C   0  0  0  0  0  0  0  0  0  0  0  0
   -5.1960   -0.0350    0.0000 N   0  0  0  0  0  0  0  0  0  0  0  0
  1  2  1  0  0  0  0
  2  3  1  0  0  0  0
  3  4  1  0  0  0  0
  3  6  1  0  0  0  0
  4  5  1  0  0  0  0
  6  7  1  0  0  0  0
  6 19  2  0  0  0  0
  7  8  2  0  0  0  0
  8  9  1  0  0  0  0
  8 10  1  0  0  0  0
 10 11  2  0  0  0  0
 11 12  1  0  0  0  0
 11 19  1  0  0  0  0
 12 13  1  0  0  0  0
 13 14  2  0  0  0  0
 13 15  1  0  0  0  0
 13 17  1  0  0  0  0
 15 16  1  0  0  0  0
 17 18  1  0  0  0  0
M  END
>  <DSSTox_RID>
40562

>  <DSSTox_CID>
4266

>  <apol>
44.931862

>  <a_acc>
4

>  <a_acid>
0

>  <a_aro>
6

>  <a_base>
0

>  <a_count>
39

>  <a_don>
0

>  <a_heavy>
19

>  <a_hyd>
9

>  <a_IC>
72.128601

>  <a_ICM>
1.8494513

>  <a_nB>
0

>  <a_nBr>
0

>  <a_nC>
11

>  <a_nCl>
0

>  <a_nF>
0

>  <a_nH>
20

>  <a_nI>
0

>  <a_nN>
3

>  <a_nO>
3

>  <a_nP>
1

>  <a_nS>
1

>  <balabanJ>
2.651917

>  <BCUT_PEOE_0>
-2.5736656

>  <BCUT_PEOE_1>
-0.20503548

>  <BCUT_PEOE_2>
0.057900589

>  <BCUT_PEOE_3>
2.5009375

>  <BCUT_SLOGP_0>
-2.63976

>  <BCUT_SLOGP_1>
-0.092375629

>  <BCUT_SLOGP_2>
0.123

>  <BCUT_SLOGP_3>
2.6300564

>  <BCUT_SMR_0>
-2.2924001

>  <BCUT_SMR_1>
0.1057

>  <BCUT_SMR_2>
0.27771226

>  <BCUT_SMR_3>
2.7851646

>  <bpol>
38.57214

>  <b_1rotN>
7

>  <b_1rotR>
0.36842105

>  <b_ar>
6

>  <b_count>
39

>  <b_double>
0

>  <b_heavy>
19

>  <b_rotN>
7

>  <b_rotR>
0.36842105

>  <b_single>
33

>  <b_triple>
0

>  <chi0>
14.466255

>  <chi0v>
13.624335

>  <chi0v_C>
8.4915638

>  <chi0_C>
8.8533716

>  <chi1>
8.9740057

>  <chi1v>
8.5490093

>  <chi1v_C>
2.4915638

>  <chi1_C>
2.8080604

>  <chiral>
0

>  <chiral_u>
0

>  <density>
0.88616967

>  <diameter>
9

>  <FCharge>
0

>  <GCUT_PEOE_0>
-0.81335509

>  <GCUT_PEOE_1>
-0.38116804

>  <GCUT_PEOE_2>
-0.10209941

>  <GCUT_PEOE_3>
2.4357831

>  <GCUT_SLOGP_0>
-0.9808017

>  <GCUT_SLOGP_1>
-0.28101423

>  <GCUT_SLOGP_2>
-0.037

>  <GCUT_SLOGP_3>
2.5164409

>  <GCUT_SMR_0>
-0.50810987

>  <GCUT_SMR_1>
-0.086959444

>  <GCUT_SMR_2>
-0.013164534

>  <GCUT_SMR_3>
2.705117

>  <Kier1>
17.052631

>  <Kier2>
7.6952662

>  <Kier3>
4.7950053

>  <KierA1>
17.092081

>  <KierA2>
7.714098

>  <KierA3>
4.8072381

>  <KierFlex>
6.9394732

>  <lip_acc>
6

>  <lip_don>
0

>  <lip_druglike>
1

>  <lip_violation>
0

>  <logP(o/w)>
1.738

>  <logS>
-3.5323801

>  <mr>
8.1199837

>  <mutagenic>
0

>  <nmol>
1

>  <opr_brigid>
6

>  <opr_leadlike>
1

>  <opr_nring>
1

>  <opr_nrot>
7

>  <opr_violation>
0

>  <PC+>
0

>  <PC->
0

>  <PEOE_PC+>
1.6447767

>  <PEOE_PC->
-1.6447767

>  <PEOE_RPC+>
0.20359093

>  <PEOE_RPC->
0.27825198

>  <PEOE_VSA+0>
58.816898

>  <PEOE_VSA+1>
92.515511

>  <PEOE_VSA+2>
0

>  <PEOE_VSA+3>
0

>  <PEOE_VSA+4>
99.947968

>  <PEOE_VSA+5>
0

>  <PEOE_VSA+6>
15.590208

>  <PEOE_VSA-0>
0

>  <PEOE_VSA-1>
0

>  <PEOE_VSA-2>
0

>  <PEOE_VSA-3>
19.680492

>  <PEOE_VSA-4>
5.6825762

>  <PEOE_VSA-5>
0

>  <PEOE_VSA-6>
33.008488

>  <PEOE_VSA_FHYD>
0.52580178

>  <PEOE_VSA_FNEG>
0.17947108

>  <PEOE_VSA_FPNEG>
0.1189608

>  <PEOE_VSA_FPOL>
0.47419819

>  <PEOE_VSA_FPOS>
0.82052892

>  <PEOE_VSA_FPPOS>
0.35523739

>  <PEOE_VSA_HYD>
171.01289

>  <PEOE_VSA_NEG>
58.371555

>  <PEOE_VSA_PNEG>
38.691063

>  <PEOE_VSA_POL>
154.22923

>  <PEOE_VSA_POS>
266.87057

>  <PEOE_VSA_PPOS>
115.53817

>  <petitjean>
0.44444445

>  <petitjeanSC>
0.80000001

>  <Q_PC+>
0

>  <Q_PC->
0

>  <Q_RPC+>
0

>  <Q_RPC->
0

>  <Q_VSA_FHYD>
1

>  <Q_VSA_FNEG>
0

>  <Q_VSA_FPNEG>
0

>  <Q_VSA_FPOL>
0

>  <Q_VSA_FPOS>
1

>  <Q_VSA_FPPOS>
0

>  <Q_VSA_HYD>
325.24213

>  <Q_VSA_NEG>
0

>  <Q_VSA_PNEG>
0

>  <Q_VSA_POL>
0

>  <Q_VSA_POS>
325.24213

>  <Q_VSA_PPOS>
0

>  <radius>
5

>  <reactive>
0

>  <rings>
1

>  <RPC+>
0

>  <RPC->
0

>  <rsynth>
1

>  <SlogP>
2.5273199

>  <SlogP_VSA0>
10.045944

>  <SlogP_VSA1>
33.57106

>  <SlogP_VSA2>
56.537235

>  <SlogP_VSA3>
36.879158

>  <SlogP_VSA4>
2.7567475

>  <SlogP_VSA5>
70.767738

>  <SlogP_VSA6>
0

>  <SlogP_VSA7>
17.643185

>  <SlogP_VSA8>
0

>  <SlogP_VSA9>
119.61887

>  <SMR>
7.9260998

>  <SMR_VSA0>
13.843261

>  <SMR_VSA1>
40.492691

>  <SMR_VSA2>
3.1243138

>  <SMR_VSA3>
7.5713482

>  <SMR_VSA4>
1.8990928

>  <SMR_VSA5>
17.643185

>  <SMR_VSA6>
36.879158

>  <SMR_VSA7>
226.3669

>  <TPSA>
88.800003

>  <VAdjEq>
0.48546076

>  <VAdjMa>
5.2479277

>  <VDistEq>
3.0287166

>  <VDistMa>
8.2177324

>  <vdw_area>
325.24213

>  <vdw_vol>
321.81082

>  <vsa_acc>
20.697096

>  <vsa_acid>
0

>  <vsa_base>
0

>  <vsa_don>
0

>  <vsa_hyd>
222.64926

>  <vsa_other>
81.895775

>  <vsa_pol>
20.697096

>  <Weight>
305.33899

>  <weinerPath>
714

>  <weinerPol>
28

>  <zagreb>
90

$$$$
O=[C@](O[C@H](C2)C(C)=C(CC#C)C2=O)[C@@H]1C(C)(C)[C@H]1/C=C(C)/C
  MOE2011           2D

 22 23  0  0  1  0  0  0  0  0999 V2000
    0.0000    0.0000    0.0000 O   0  0  0  0  0  0  0  0  0  0  0  0
   -0.0090    1.5000    0.0000 C   0  0  0  0  0  0  0  0  0  0  0  0
    1.2860    2.2570    0.0000 O   0  0  0  0  0  0  0  0  0  0  0  0
    2.5890    1.5150    0.0000 C   0  0  2  0  0  0  0  0  0  0  0  0
    2.7550    0.0240    0.0000 C   0  0  0  0  0  0  0  0  0  0  0  0
    3.9560    2.1330    0.0000 C   0  0  0  0  0  0  0  0  0  0  0  0
    4.2600    3.6020    0.0000 C   0  0  0  0  0  0  0  0  0  0  0  0
    4.9660    1.0240    0.0000 C   0  0  0  0  0  0  0  0  0  0  0  0
    6.4570    1.1890    0.0000 C   0  0  0  0  0  0  0  0  0  0  0  0
    7.3460   -0.0200    0.0000 C   0  0  0  0  0  0  0  0  0  0  0  0
    8.2340   -1.2280    0.0000 C   0  0  0  0  0  0  0  0  0  0  0  0
    4.2240   -0.2800    0.0000 C   0  0  0  0  0  0  0  0  0  0  0  0
    4.8420   -1.6460    0.0000 O   0  0  0  0  0  0  0  0  0  0  0  0
   -1.3120    2.2430    0.0000 C   0  0  2  0  0  0  0  0  0  0  0  0
   -2.8120    2.2340    0.0000 C   0  0  0  0  0  0  0  0  0  0  0  0
   -3.3780    0.8450    0.0000 C   0  0  0  0  0  0  0  0  0  0  0  0
   -4.3000    2.4210    0.0000 C   0  0  0  0  0  0  0  0  0  0  0  0
   -2.0690    3.5370    0.0000 C   0  0  1  0  0  0  0  0  0  0  0  0
   -2.0780    5.0370    0.0000 C   0  0  0  0  0  0  0  0  0  0  0  0
   -3.3810    5.7800    0.0000 C   0  0  0  0  0  0  0  0  0  0  0  0
   -4.6760    5.0230    0.0000 C   0  0  0  0  0  0  0  0  0  0  0  0
   -3.3900    7.2800    0.0000 C   0  0  0  0  0  0  0  0  0  0  0  0
  1  2  2  0  0  0  0
  2  3  1  0  0  0  0
 14  2  1  6  0  0  0
  4  3  1  1  0  0  0
  4  5  1  0  0  0  0
  4  6  1  0  0  0  0
  5 12  1  0  0  0  0
  6  7  1  0  0  0  0
  6  8  2  0  0  0  0
  8  9  1  0  0  0  0
  8 12  1  0  0  0  0
  9 10  1  0  0  0  0
 10 11  3  0  0  0  0
 12 13  2  0  0  0  0
 14 15  1  0  0  0  0
 14 18  1  0  0  0  0
 15 16  1  0  0  0  0
 15 17  1  0  0  0  0
 15 18  1  0  0  0  0
 18 19  1  1  0  0  0
 19 20  2  0  0  0  0
 20 21  1  0  0  0  0
 20 22  1  0  0  0  0
M  END
>  <DSSTox_RID>
40564

>  <DSSTox_CID>
12572

>  <apol>
51.849033

>  <a_acc>
2

>  <a_acid>
0

>  <a_aro>
0

>  <a_base>
0

>  <a_count>
46

>  <a_don>
0

>  <a_heavy>
22

>  <a_hyd>
17

>  <a_IC>
58.579239

>  <a_ICM>
1.2734617

>  <a_nB>
0

>  <a_nBr>
0

>  <a_nC>
19

>  <a_nCl>
0

>  <a_nF>
0

>  <a_nH>
24

>  <a_nI>
0

>  <a_nN>
0

>  <a_nO>
3

>  <a_nP>
0

>  <a_nS>
0

>  <balabanJ>
1.9190423

>  <BCUT_PEOE_0>
-2.4818003

>  <BCUT_PEOE_1>
-0.17910942

>  <BCUT_PEOE_2>
0.044720378

>  <BCUT_PEOE_3>
2.8994935

>  <BCUT_SLOGP_0>
-2.4828117

>  <BCUT_SLOGP_1>
-0.061920606

>  <BCUT_SLOGP_2>
0.13781571

>  <BCUT_SLOGP_3>
2.92535

>  <BCUT_SMR_0>
-2.2400889

>  <BCUT_SMR_1>
0.055461023

>  <BCUT_SMR_2>
0.26002014

>  <BCUT_SMR_3>
3.1367309

>  <bpol>
30.068968

>  <b_1rotN>
4

>  <b_1rotR>
0.17391305

>  <b_ar>
0

>  <b_count>
47

>  <b_double>
4

>  <b_heavy>
23

>  <b_rotN>
6

>  <b_rotR>
0.26086956

>  <b_single>
42

>  <b_triple>
1

>  <chi0>
16.654337

>  <chi0v>
14.02571

>  <chi0v_C>
12.800965

>  <chi0_C>
13.947229

>  <chi1>
10.195613

>  <chi1v>
7.7157006

>  <chi1v_C>
6.8676257

>  <chi1_C>
8.2244158

>  <chiral>
3

>  <chiral_u>
0

>  <density>
0.74883002

>  <diameter>
12

>  <FCharge>
0

>  <GCUT_PEOE_0>
-0.78221971

>  <GCUT_PEOE_1>
-0.30963558

>  <GCUT_PEOE_2>
-0.11527962

>  <GCUT_PEOE_3>
2.717381

>  <GCUT_SLOGP_0>
-0.85617977

>  <GCUT_SLOGP_1>
-0.23640366

>  <GCUT_SLOGP_2>
-0.037

>  <GCUT_SLOGP_3>
2.762332

>  <GCUT_SMR_0>
-0.5112288

>  <GCUT_SMR_1>
-0.1149754

>  <GCUT_SMR_2>
0.038592786

>  <GCUT_SMR_3>
2.9535584

>  <Kier1>
18.340265

>  <Kier2>
6.8571429

>  <Kier3>
3.4404707

>  <KierA1>
14.602181

>  <KierA2>
5.3961248

>  <KierA3>
2.6845567

>  <KierFlex>
3.5816

>  <lip_acc>
3

>  <lip_don>
0

>  <lip_druglike>
1

>  <lip_violation>
0

>  <logP(o/w)>
2.152

>  <logS>
-4.3716898

>  <mr>
8.6703138

>  <mutagenic>
0

>  <nmol>
1

>  <opr_brigid>
9

>  <opr_leadlike>
1

>  <opr_nring>
2

>  <opr_nrot>
5

>  <opr_violation>
0

>  <PC+>
0

>  <PC->
0

>  <PEOE_PC+>
1.0406489

>  <PEOE_PC->
-1.0406489

>  <PEOE_RPC+>
0.26129025

>  <PEOE_RPC->
0.28754795

>  <PEOE_VSA+0>
151.45932

>  <PEOE_VSA+1>
2.2085397

>  <PEOE_VSA+2>
40.075508

>  <PEOE_VSA+3>
8.458519

>  <PEOE_VSA+4>
0

>  <PEOE_VSA+5>
14.708499

>  <PEOE_VSA+6>
0

>  <PEOE_VSA-0>
49.634022

>  <PEOE_VSA-1>
15.808495

>  <PEOE_VSA-2>
0

>  <PEOE_VSA-3>
0

>  <PEOE_VSA-4>
0

>  <PEOE_VSA-5>
29.637598

>  <PEOE_VSA-6>
0

>  <PEOE_VSA_FHYD>
0.85786074

>  <PEOE_VSA_FNEG>
0.30475324

>  <PEOE_VSA_FPNEG>
0.094995193

>  <PEOE_VSA_FPOL>
0.14213926

>  <PEOE_VSA_FPOS>
0.69524676

>  <PEOE_VSA_FPPOS>
0.047144059

>  <PEOE_VSA_HYD>
267.64441

>  <PEOE_VSA_NEG>
95.080116

>  <PEOE_VSA_PNEG>
29.637598

>  <PEOE_VSA_POL>
44.346096

>  <PEOE_VSA_POS>
216.9104

>  <PEOE_VSA_PPOS>
14.708499

>  <petitjean>
0.5

>  <petitjeanSC>
1

>  <Q_PC+>
0

>  <Q_PC->
0

>  <Q_RPC+>
0

>  <Q_RPC->
0

>  <Q_VSA_FHYD>
1

>  <Q_VSA_FNEG>
0

>  <Q_VSA_FPNEG>
0

>  <Q_VSA_FPOL>
0

>  <Q_VSA_FPOS>
1

>  <Q_VSA_FPPOS>
0

>  <Q_VSA_HYD>
311.99051

>  <Q_VSA_NEG>
0

>  <Q_VSA_PNEG>
0

>  <Q_VSA_POL>
0

>  <Q_VSA_POS>
311.99051

>  <Q_VSA_PPOS>
0

>  <radius>
6

>  <reactive>
1

>  <rings>
2

>  <RPC+>
0

>  <RPC->
0

>  <rsynth>
0.18181819

>  <SlogP>
3.449208

>  <SlogP_VSA0>
0

>  <SlogP_VSA1>
13.433075

>  <SlogP_VSA2>
65.19297

>  <SlogP_VSA3>
17.030573

>  <SlogP_VSA4>
40.309776

>  <SlogP_VSA5>
9.5567245

>  <SlogP_VSA6>
0

>  <SlogP_VSA7>
17.643185

>  <SlogP_VSA8>
37.736813

>  <SlogP_VSA9>
166.63008

>  <SMR>
8.5846004

>  <SMR_VSA0>
58.724319

>  <SMR_VSA1>
0

>  <SMR_VSA2>
8.8215923

>  <SMR_VSA3>
33.055946

>  <SMR_VSA4>
0

>  <SMR_VSA5>
55.379993

>  <SMR_VSA6>
44.921257

>  <SMR_VSA7>
166.63008

>  <TPSA>
43.369999

>  <VAdjEq>
0.4530769

>  <VAdjMa>
5.523562

>  <VDistEq>
3.3295152

>  <VDistMa>
8.6197844

>  <vdw_area>
311.99051

>  <vdw_vol>
368.85007

>  <vsa_acc>
27.133842

>  <vsa_acid>
0

>  <vsa_base>
0

>  <vsa_don>
0

>  <vsa_hyd>
259.18588

>  <vsa_other>
25.670774

>  <vsa_pol>
27.133842

>  <Weight>
300.39798

>  <weinerPath>
1112

>  <weinerPol>
31

>  <zagreb>
116

$$$$
O=C(N(CCOc1c(Cl)cc(Cl)cc1Cl)CCC)n2ccnc2
  MOE2011           2D

 23 24  0  0  0  0  0  0  0  0999 V2000
    0.0000    0.0000    0.0000 O   0  0  0  0  0  0  0  0  0  0  0  0
    1.3040    0.7410    0.0000 C   0  0  0  0  0  0  0  0  0  0  0  0
    2.5980   -0.0190    0.0000 N   0  0  0  0  0  0  0  0  0  0  0  0
    3.9020    0.7220    0.0000 C   0  0  0  0  0  0  0  0  0  0  0  0
    5.1960   -0.0380    0.0000 C   0  0  0  0  0  0  0  0  0  0  0  0
    6.5000    0.7030    0.0000 O   0  0  0  0  0  0  0  0  0  0  0  0
    7.7940   -0.0560    0.0000 C   0  0  0  0  0  0  0  0  0  0  0  0
    9.0980    0.6840    0.0000 C   0  0  0  0  0  0  0  0  0  0  0  0
    9.1090    2.1840    0.0000 Cl  0  0  0  0  0  0  0  0  0  0  0  0
   10.3920   -0.0750    0.0000 C   0  0  0  0  0  0  0  0  0  0  0  0
   10.3810   -1.5750    0.0000 C   0  0  0  0  0  0  0  0  0  0  0  0
   11.6750   -2.3350    0.0000 Cl  0  0  0  0  0  0  0  0  0  0  0  0
    9.0770   -2.3160    0.0000 C   0  0  0  0  0  0  0  0  0  0  0  0
    7.7830   -1.5560    0.0000 C   0  0  0  0  0  0  0  0  0  0  0  0
    6.4790   -2.2970    0.0000 Cl  0  0  0  0  0  0  0  0  0  0  0  0
    2.5870   -1.5190    0.0000 C   0  0  0  0  0  0  0  0  0  0  0  0
    1.2830   -2.2590    0.0000 C   0  0  0  0  0  0  0  0  0  0  0  0
    1.2720   -3.7590    0.0000 C   0  0  0  0  0  0  0  0  0  0  0  0
    1.3150    2.2410    0.0000 N   0  0  0  0  0  0  0  0  0  0  0  0
    0.1080    3.1310    0.0000 C   0  0  0  0  0  0  0  0  0  0  0  0
    0.5820    4.5540    0.0000 C   0  0  0  0  0  0  0  0  0  0  0  0
    2.0820    4.5430    0.0000 N   0  0  0  0  0  0  0  0  0  0  0  0
    2.5350    3.1130    0.0000 C   0  0  0  0  0  0  0  0  0  0  0  0
  1  2  2  0  0  0  0
  2  3  1  0  0  0  0
  2 19  1  0  0  0  0
  3  4  1  0  0  0  0
  3 16  1  0  0  0  0
  4  5  1  0  0  0  0
  5  6  1  0  0  0  0
  6  7  1  0  0  0  0
  7  8  1  0  0  0  0
  7 14  2  0  0  0  0
  8  9  1  0  0  0  0
  8 10  2  0  0  0  0
 10 11  1  0  0  0  0
 11 12  1  0  0  0  0
 11 13  2  0  0  0  0
 13 14  1  0  0  0  0
 14 15  1  0  0  0  0
 16 17  1  0  0  0  0
 17 18  1  0  0  0  0
 19 20  1  0  0  0  0
 19 23  1  0  0  0  0
 20 21  2  0  0  0  0
 21 22  1  0  0  0  0
 22 23  2  0  0  0  0
M  END
>  <DSSTox_RID>
40566

>  <DSSTox_CID>
4270

>  <apol>
48.512688

>  <a_acc>
3

>  <a_acid>
0

>  <a_aro>
11

>  <a_base>
0

>  <a_count>
39

>  <a_don>
0

>  <a_heavy>
23

>  <a_hyd>
16

>  <a_IC>
72.017555

>  <a_ICM>
1.8466039

>  <a_nB>
0

>  <a_nBr>
0

>  <a_nC>
15

>  <a_nCl>
3

>  <a_nF>
0

>  <a_nH>
16

>  <a_nI>
0

>  <a_nN>
3

>  <a_nO>
2

>  <a_nP>
0

>  <a_nS>
0

>  <balabanJ>
1.7923251

>  <BCUT_PEOE_0>
-2.6195259

>  <BCUT_PEOE_1>
-0.64572251

>  <BCUT_PEOE_2>
0.62337136

>  <BCUT_PEOE_3>
2.5642791

>  <BCUT_SLOGP_0>
-2.7148697

>  <BCUT_SLOGP_1>
-0.35583484

>  <BCUT_SLOGP_2>
0.91627383

>  <BCUT_SLOGP_3>
2.562149

>  <BCUT_SMR_0>
-2.3560908

>  <BCUT_SMR_1>
-0.30002916

>  <BCUT_SMR_2>
0.96174318

>  <BCUT_SMR_3>
2.8215144

>  <bpol>
26.905312

>  <b_1rotN>
8

>  <b_1rotR>
0.33333334

>  <b_ar>
11

>  <b_count>
40

>  <b_double>
1

>  <b_heavy>
24

>  <b_rotN>
8

>  <b_rotR>
0.33333334

>  <b_single>
28

>  <b_triple>
0

>  <chi0>
16.819626

>  <chi0v>
14.774996

>  <chi0v_C>
9.2151785

>  <chi0_C>
10.250712

>  <chi1>
11.024076

>  <chi1v>
8.205369

>  <chi1v_C>
3.6951406

>  <chi1_C>
4.5067668

>  <chiral>
0

>  <chiral_u>
0

>  <density>
0.93239009

>  <diameter>
12

>  <FCharge>
0

>  <GCUT_PEOE_0>
-0.83201933

>  <GCUT_PEOE_1>
-0.37623036

>  <GCUT_PEOE_2>
0.026112448

>  <GCUT_PEOE_3>
2.4819379

>  <GCUT_SLOGP_0>
-0.97415495

>  <GCUT_SLOGP_1>
-0.26216656

>  <GCUT_SLOGP_2>
0.30693173

>  <GCUT_SLOGP_3>
2.5327673

>  <GCUT_SMR_0>
-0.52308708

>  <GCUT_SMR_1>
-0.10199162

>  <GCUT_SMR_2>
0.33660433

>  <GCUT_SMR_3>
2.7403805

>  <Kier1>
19.326389

>  <Kier2>
9.4746094

>  <Kier3>
5.5

>  <KierA1>
17.77919

>  <KierA2>
8.68155

>  <KierA3>
5.0245047

>  <KierFlex>
6.7109098

>  <lip_acc>
5

>  <lip_don>
0

>  <lip_druglike>
1

>  <lip_violation>
0

>  <logP(o/w)>
3.687

>  <logS>
-4.5822201

>  <mr>
9.3730679

>  <mutagenic>
0

>  <nmol>
1

>  <opr_brigid>
11

>  <opr_leadlike>
1

>  <opr_nring>
2

>  <opr_nrot>
7

>  <opr_violation>
1

>  <PC+>
0

>  <PC->
0

>  <PEOE_PC+>
1.5760643

>  <PEOE_PC->
-1.5760643

>  <PEOE_RPC+>
0.21117173

>  <PEOE_RPC->
0.20723952

>  <PEOE_VSA+0>
76.833931

>  <PEOE_VSA+1>
13.559239

>  <PEOE_VSA+2>
89.656548

>  <PEOE_VSA+3>
46.848991

>  <PEOE_VSA+4>
0

>  <PEOE_VSA+5>
0

>  <PEOE_VSA+6>
17.440542

>  <PEOE_VSA-0>
0

>  <PEOE_VSA-1>
88.745842

>  <PEOE_VSA-2>
0

>  <PEOE_VSA-3>
0

>  <PEOE_VSA-4>
19.249496

>  <PEOE_VSA-5>
0

>  <PEOE_VSA-6>
2.503756

>  <PEOE_VSA_FHYD>
0.88954467

>  <PEOE_VSA_FNEG>
0.31140685

>  <PEOE_VSA_FPNEG>
0.061304685

>  <PEOE_VSA_FPOL>
0.11045536

>  <PEOE_VSA_FPOS>
0.68859315

>  <PEOE_VSA_FPPOS>
0.049150672

>  <PEOE_VSA_HYD>
315.64456

>  <PEOE_VSA_NEG>
110.49909

>  <PEOE_VSA_PNEG>
21.753254

>  <PEOE_VSA_POL>
39.193794

>  <PEOE_VSA_POS>
244.33925

>  <PEOE_VSA_PPOS>
17.440542

>  <petitjean>
0.5

>  <petitjeanSC>
1

>  <Q_PC+>
0

>  <Q_PC->
0

>  <Q_RPC+>
0

>  <Q_RPC->
0

>  <Q_VSA_FHYD>
1

>  <Q_VSA_FNEG>
0

>  <Q_VSA_FPNEG>
0

>  <Q_VSA_FPOL>
0

>  <Q_VSA_FPOS>
1

>  <Q_VSA_FPPOS>
0

>  <Q_VSA_HYD>
354.83835

>  <Q_VSA_NEG>
0

>  <Q_VSA_PNEG>
0

>  <Q_VSA_POL>
0

>  <Q_VSA_POS>
354.83835

>  <Q_VSA_PPOS>
0

>  <radius>
6

>  <reactive>
0

>  <rings>
2

>  <RPC+>
0

>  <RPC->
0

>  <rsynth>
1

>  <SlogP>
4.6023998

>  <SlogP_VSA0>
10.999887

>  <SlogP_VSA1>
26.638893

>  <SlogP_VSA2>
0

>  <SlogP_VSA3>
57.805416

>  <SlogP_VSA4>
0

>  <SlogP_VSA5>
0

>  <SlogP_VSA6>
10.50182

>  <SlogP_VSA7>
86.50061

>  <SlogP_VSA8>
18.868406

>  <SlogP_VSA9>
179.87759

>  <SMR>
9.1851997

>  <SMR_VSA0>
23.862217

>  <SMR_VSA1>
32.808823

>  <SMR_VSA2>
0

>  <SMR_VSA3>
15.745248

>  <SMR_VSA4>
0

>  <SMR_VSA5>
105.36902

>  <SMR_VSA6>
62.635372

>  <SMR_VSA7>
150.77194

>  <TPSA>
47.360001

>  <VAdjEq>
0.43892586

>  <VAdjMa>
5.5849624

>  <VDistEq>
3.4019623

>  <VDistMa>
8.7474699

>  <vdw_area>
354.83835

>  <vdw_vol>
386.68683

>  <vsa_acc>
21.753254

>  <vsa_acid>
0

>  <vsa_base>
0

>  <vsa_don>
0

>  <vsa_hyd>
290.85403

>  <vsa_other>
42.23106

>  <vsa_pol>
21.753254

>  <Weight>
376.67099

>  <weinerPath>
1313

>  <weinerPol>
32

>  <zagreb>
112

$$$$
NC1=C(C(F)(F)F)C=C([N+]([O-])=O)C(N(CCC)CCC)=C1[N+]([O-])=O
  MOE2011           2D

 24 24  0  0  0  0  0  0  0  0999 V2000
    0.0000    0.0000    0.0000 N   0  0  0  0  0  0  0  0  0  0  0  0
   -0.7600    1.2930    0.0000 C   0  0  0  0  0  0  0  0  0  0  0  0
   -0.0210    2.5980    0.0000 C   0  0  0  0  0  0  0  0  0  0  0  0
    1.4790    2.6100    0.0000 C   0  0  0  0  0  0  0  0  0  0  0  0
    2.9790    2.6220    0.0000 F   0  0  0  0  0  0  0  0  0  0  0  0
    1.4670    4.1100    0.0000 F   0  0  0  0  0  0  0  0  0  0  0  0
    1.4910    1.1100    0.0000 F   0  0  0  0  0  0  0  0  0  0  0  0
   -0.7820    3.8910    0.0000 C   0  0  0  0  0  0  0  0  0  0  0  0
   -2.2810    3.8790    0.0000 C   0  0  0  0  0  0  0  0  0  0  0  0
   -3.0420    5.1720    0.0000 N   0  3  0  0  0  0  0  0  0  0  0  0
   -4.5420    5.1600    0.0000 O   0  5  0  0  0  0  0  0  0  0  0  0
   -2.3020    6.4770    0.0000 O   0  0  0  0  0  0  0  0  0  0  0  0
   -3.0210    2.5740    0.0000 C   0  0  0  0  0  0  0  0  0  0  0  0
   -4.5210    2.5620    0.0000 N   0  0  0  0  0  0  0  0  0  0  0  0
   -5.2810    3.8550    0.0000 C   0  0  0  0  0  0  0  0  0  0  0  0
   -6.7810    3.8420    0.0000 C   0  0  0  0  0  0  0  0  0  0  0  0
   -7.5420    5.1350    0.0000 C   0  0  0  0  0  0  0  0  0  0  0  0
   -5.2600    1.2570    0.0000 C   0  0  0  0  0  0  0  0  0  0  0  0
   -6.7600    1.2440    0.0000 C   0  0  0  0  0  0  0  0  0  0  0  0
   -7.5000   -0.0610    0.0000 C   0  0  0  0  0  0  0  0  0  0  0  0
   -2.2600    1.2810    0.0000 C   0  0  0  0  0  0  0  0  0  0  0  0
   -3.0000   -0.0240    0.0000 N   0  3  0  0  0  0  0  0  0  0  0  0
   -4.5000   -0.0360    0.0000 O   0  5  0  0  0  0  0  0  0  0  0  0
   -2.2390   -1.3170    0.0000 O   0  0  0  0  0  0  0  0  0  0  0  0
  1  2  1  0  0  0  0
  2  3  1  0  0  0  0
  2 21  2  0  0  0  0
  3  4  1  0  0  0  0
  3  8  2  0  0  0  0
  4  5  1  0  0  0  0
  4  6  1  0  0  0  0
  4  7  1  0  0  0  0
  8  9  1  0  0  0  0
  9 10  1  0  0  0  0
  9 13  2  0  0  0  0
 10 11  1  0  0  0  0
 10 12  2  0  0  0  0
 13 14  1  0  0  0  0
 13 21  1  0  0  0  0
 14 15  1  0  0  0  0
 14 18  1  0  0  0  0
 15 16  1  0  0  0  0
 16 17  1  0  0  0  0
 18 19  1  0  0  0  0
 19 20  1  0  0  0  0
 21 22  1  0  0  0  0
 22 23  1  0  0  0  0
 22 24  2  0  0  0  0
M  CHG  1  10   1
M  CHG  1  11  -1
M  CHG  1  22   1
M  CHG  1  23  -1
M  END
>  <DSSTox_RID>
40300

>  <DSSTox_CID>
14210

>  <apol>
43.49448

>  <a_acc>
0

>  <a_acid>
0

>  <a_aro>
6

>  <a_base>
0

>  <a_count>
41

>  <a_don>
1

>  <a_heavy>
24

>  <a_hyd>
18

>  <a_IC>
81.312157

>  <a_ICM>
1.9832234

>  <a_nB>
0

>  <a_nBr>
0

>  <a_nC>
13

>  <a_nCl>
0

>  <a_nF>
3

>  <a_nH>
17

>  <a_nI>
0

>  <a_nN>
4

>  <a_nO>
4

>  <a_nP>
0

>  <a_nS>
0

>  <balabanJ>
3.2982244

>  <BCUT_PEOE_0>
-2.6428907

>  <BCUT_PEOE_1>
-0.25827053

>  <BCUT_PEOE_2>
0.10474344

>  <BCUT_PEOE_3>
2.5889089

>  <BCUT_SLOGP_0>
-2.6702745

>  <BCUT_SLOGP_1>
0.033500001

>  <BCUT_SLOGP_2>
0.42019999

>  <BCUT_SLOGP_3>
2.6349006

>  <BCUT_SMR_0>
-2.3684685

>  <BCUT_SMR_1>
0.099413335

>  <BCUT_SMR_2>
0.33669999

>  <BCUT_SMR_3>
2.8569479

>  <bpol>
26.025518

>  <b_1rotN>
7

>  <b_1rotR>
0.29166666

>  <b_ar>
6

>  <b_count>
41

>  <b_double>
2

>  <b_heavy>
24

>  <b_rotN>
8

>  <b_rotR>
0.33333334

>  <b_single>
33

>  <b_triple>
0

>  <chi0>
18.654337

>  <chi0v>
13.091655

>  <chi0v_C>
8.405777

>  <chi0_C>
8.9222851

>  <chi1>
11.055966

>  <chi1v>
7.1307583

>  <chi1v_C>
4.2415638

>  <chi1_C>
4.8527188

>  <chiral>
0

>  <chiral_u>
0

>  <density>
0.98671174

>  <diameter>
9

>  <FCharge>
0

>  <GCUT_PEOE_0>
-0.82368755

>  <GCUT_PEOE_1>
-0.41535783

>  <GCUT_PEOE_2>
-0.062905394

>  <GCUT_PEOE_3>
2.6898656

>  <GCUT_SLOGP_0>
-1.3345072

>  <GCUT_SLOGP_1>
-0.1265

>  <GCUT_SLOGP_2>
0.26019999

>  <GCUT_SLOGP_3>
2.7665927

>  <GCUT_SMR_0>
-0.52522135

>  <GCUT_SMR_1>
-0.060586665

>  <GCUT_SMR_2>
0.1767

>  <GCUT_SMR_3>
2.9110012

>  <Kier1>
22.041666

>  <Kier2>
9.087347

>  <Kier3>
5.25

>  <KierA1>
16.89957

>  <KierA2>
6.8809876

>  <KierA3>
3.9397349

>  <KierFlex>
4.8452392

>  <lip_acc>
8

>  <lip_don>
2

>  <lip_druglike>
1

>  <lip_violation>
0

>  <logP(o/w)>
3.89276

>  <logS>
-4.7281399

>  <mr>
7.7943187

>  <mutagenic>
0

>  <nmol>
1

>  <opr_brigid>
6

>  <opr_leadlike>
1

>  <opr_nring>
1

>  <opr_nrot>
7

>  <opr_violation>
0

>  <PC+>
0

>  <PC->
0

>  <PEOE_PC+>
1.8666841

>  <PEOE_PC->
-1.8666841

>  <PEOE_RPC+>
0.22497165

>  <PEOE_RPC->
0.13835701

>  <PEOE_VSA+0>
90.433891

>  <PEOE_VSA+1>
66.672112

>  <PEOE_VSA+2>
6.6995511

>  <PEOE_VSA+3>
6.6995511

>  <PEOE_VSA+4>
0

>  <PEOE_VSA+5>
0

>  <PEOE_VSA+6>
22.444605

>  <PEOE_VSA-0>
0

>  <PEOE_VSA-1>
17.742489

>  <PEOE_VSA-2>
0

>  <PEOE_VSA-3>
35.725906

>  <PEOE_VSA-4>
0

>  <PEOE_VSA-5>
67.862099

>  <PEOE_VSA-6>
0

>  <PEOE_VSA_FHYD>
0.71265548

>  <PEOE_VSA_FNEG>
0.38605833

>  <PEOE_VSA_FPNEG>
0.21592864

>  <PEOE_VSA_FPOL>
0.28734455

>  <PEOE_VSA_FPOS>
0.61394167

>  <PEOE_VSA_FPPOS>
0.071415901

>  <PEOE_VSA_HYD>
223.9735

>  <PEOE_VSA_NEG>
121.33049

>  <PEOE_VSA_PNEG>
67.862099

>  <PEOE_VSA_POL>
90.306702

>  <PEOE_VSA_POS>
192.94971

>  <PEOE_VSA_PPOS>
22.444605

>  <petitjean>
0.44444445

>  <petitjeanSC>
0.80000001

>  <Q_PC+>
0

>  <Q_PC->
0

>  <Q_RPC+>
0

>  <Q_RPC->
0

>  <Q_VSA_FHYD>
1

>  <Q_VSA_FNEG>
0

>  <Q_VSA_FPNEG>
0

>  <Q_VSA_FPOL>
0

>  <Q_VSA_FPOS>
1

>  <Q_VSA_FPPOS>
0

>  <Q_VSA_HYD>
314.28021

>  <Q_VSA_NEG>
0

>  <Q_VSA_PNEG>
0

>  <Q_VSA_POL>
0

>  <Q_VSA_POS>
314.28021

>  <Q_VSA_PPOS>
0

>  <radius>
5

>  <reactive>
0

>  <rings>
1

>  <RPC+>
0

>  <RPC->
0

>  <rsynth>
0.25

>  <SlogP>
4.0419002

>  <SlogP_VSA0>
36.0215

>  <SlogP_VSA1>
14.171232

>  <SlogP_VSA2>
0

>  <SlogP_VSA3>
138.74918

>  <SlogP_VSA4>
3.185575

>  <SlogP_VSA5>
0

>  <SlogP_VSA6>
7.7595162

>  <SlogP_VSA7>
17.643185

>  <SlogP_VSA8>
37.736813

>  <SlogP_VSA9>
122.55936

>  <SMR>
8.2077198

>  <SMR_VSA0>
14.171232

>  <SMR_VSA1>
44.880341

>  <SMR_VSA2>
112.75385

>  <SMR_VSA3>
3.185575

>  <SMR_VSA4>
11.02699

>  <SMR_VSA5>
88.277184

>  <SMR_VSA6>
36.879158

>  <SMR_VSA7>
66.652031

>  <TPSA>
120.9

>  <VAdjEq>
0.41381684

>  <VAdjMa>
5.5849624

>  <VDistEq>
2.9432037

>  <VDistMa>
8.9465551

>  <vdw_area>
314.28021

>  <vdw_vol>
337.64774

>  <vsa_acc>
0

>  <vsa_acid>
0

>  <vsa_base>
0

>  <vsa_don>
17.742489

>  <vsa_hyd>
228.67561

>  <vsa_other>
67.862099

>  <vsa_pol>
17.742489

>  <Weight>
350.297

>  <weinerPath>
1180

>  <weinerPol>
41

>  <zagreb>
118

$$$$
O=P(SCCC)(OCC)OC(C=C1)=C(Cl)C=C1Br
  MOE2011           2D

 18 18  0  0  1  0  0  0  0  0999 V2000
    0.0000    0.0000    0.0000 O   0  0  0  0  0  0  0  0  0  0  0  0
    0.7550   -1.2960    0.0000 P   0  0  3  0  0  0  0  0  0  0  0  0
    1.5090   -2.5930    0.0000 S   0  0  0  0  0  0  0  0  0  0  0  0
    3.0090   -2.5870    0.0000 C   0  0  0  0  0  0  0  0  0  0  0  0
    3.7640   -3.8840    0.0000 C   0  0  0  0  0  0  0  0  0  0  0  0
    5.2640   -3.8780    0.0000 C   0  0  0  0  0  0  0  0  0  0  0  0
    2.0510   -0.5420    0.0000 O   0  0  0  0  0  0  0  0  0  0  0  0
    2.0460    0.9580    0.0000 C   0  0  0  0  0  0  0  0  0  0  0  0
    3.3420    1.7130    0.0000 C   0  0  0  0  0  0  0  0  0  0  0  0
   -0.5420   -2.0510    0.0000 O   0  0  0  0  0  0  0  0  0  0  0  0
   -1.8430   -1.3060    0.0000 C   0  0  0  0  0  0  0  0  0  0  0  0
   -1.8490    0.1940    0.0000 C   0  0  0  0  0  0  0  0  0  0  0  0
   -3.1510    0.9400    0.0000 C   0  0  0  0  0  0  0  0  0  0  0  0
   -3.1400   -2.0600    0.0000 C   0  0  0  0  0  0  0  0  0  0  0  0
   -3.1340   -3.5600    0.0000 Cl  0  0  0  0  0  0  0  0  0  0  0  0
   -4.4410   -1.3150    0.0000 C   0  0  0  0  0  0  0  0  0  0  0  0
   -4.4470    0.1850    0.0000 C   0  0  0  0  0  0  0  0  0  0  0  0
   -5.7490    0.9300    0.0000 Br  0  0  0  0  0  0  0  0  0  0  0  0
  1  2  2  0  0  0  0
  2  3  1  0  0  0  0
  2  7  1  0  0  0  0
  2 10  1  0  0  0  0
  3  4  1  0  0  0  0
  4  5  1  0  0  0  0
  5  6  1  0  0  0  0
  7  8  1  0  0  0  0
  8  9  1  0  0  0  0
 10 11  1  0  0  0  0
 11 12  2  0  0  0  0
 11 14  1  0  0  0  0
 12 13  1  0  0  0  0
 13 17  2  0  0  0  0
 14 15  1  0  0  0  0
 14 16  2  0  0  0  0
 16 17  1  0  0  0  0
 17 18  1  0  0  0  0
M  END
>  <DSSTox_RID>
40567

>  <DSSTox_CID>
12464

>  <apol>
43.527897

>  <a_acc>
3

>  <a_acid>
0

>  <a_aro>
6

>  <a_base>
0

>  <a_count>
33

>  <a_don>
0

>  <a_heavy>
18

>  <a_hyd>
13

>  <a_IC>
65.053009

>  <a_ICM>
1.9713033

>  <a_nB>
0

>  <a_nBr>
1

>  <a_nC>
11

>  <a_nCl>
1

>  <a_nF>
0

>  <a_nH>
15

>  <a_nI>
0

>  <a_nN>
0

>  <a_nO>
3

>  <a_nP>
1

>  <a_nS>
1

>  <balabanJ>
2.5423126

>  <BCUT_PEOE_0>
-2.5099597

>  <BCUT_PEOE_1>
-0.537292

>  <BCUT_PEOE_2>
0.46655652

>  <BCUT_PEOE_3>
2.5440211

>  <BCUT_SLOGP_0>
-2.4329135

>  <BCUT_SLOGP_1>
-0.31759393

>  <BCUT_SLOGP_2>
0.75329351

>  <BCUT_SLOGP_3>
2.7424161

>  <BCUT_SMR_0>
-2.248709

>  <BCUT_SMR_1>
-0.17856626

>  <BCUT_SMR_2>
0.7999751

>  <BCUT_SMR_3>
2.8699684

>  <bpol>
30.378105

>  <b_1rotN>
7

>  <b_1rotR>
0.3888889

>  <b_ar>
6

>  <b_count>
33

>  <b_double>
0

>  <b_heavy>
18

>  <b_rotN>
7

>  <b_rotR>
0.3888889

>  <b_single>
27

>  <b_triple>
0

>  <chi0>
13.596012

>  <chi0v>
14.242356

>  <chi0v_C>
7.3533711

>  <chi0_C>
7.9746914

>  <chi1>
8.5041494

>  <chi1v>
9.8463345

>  <chi1v_C>
3.6522474

>  <chi1_C>
4.3805399

>  <chiral>
1

>  <chiral_u>
1

>  <density>
1.0823247

>  <diameter>
10

>  <FCharge>
0

>  <GCUT_PEOE_0>
-0.7743634

>  <GCUT_PEOE_1>
-0.38078013

>  <GCUT_PEOE_2>
-0.064393587

>  <GCUT_PEOE_3>
2.3283031

>  <GCUT_SLOGP_0>
-1.2936081

>  <GCUT_SLOGP_1>
-0.20513231

>  <GCUT_SLOGP_2>
0.23626956

>  <GCUT_SLOGP_3>
2.5333924

>  <GCUT_SMR_0>
-0.52015656

>  <GCUT_SMR_1>
-0.11497001

>  <GCUT_SMR_2>
0.28176841

>  <GCUT_SMR_3>
2.6414309

>  <Kier1>
16.055555

>  <Kier2>
7.5555553

>  <Kier3>
5.2674899

>  <KierA1>
20.596449

>  <KierA2>
9.8351803

>  <KierA3>
6.930871

>  <KierFlex>
11.253877

>  <lip_acc>
3

>  <lip_don>
0

>  <lip_druglike>
1

>  <lip_violation>
0

>  <logP(o/w)>
4.7800002

>  <logS>
-5.0981302

>  <mr>
8.4290466

>  <mutagenic>
0

>  <nmol>
1

>  <opr_brigid>
6

>  <opr_leadlike>
1

>  <opr_nring>
1

>  <opr_nrot>
7

>  <opr_violation>
1

>  <PC+>
0

>  <PC->
0

>  <PEOE_PC+>
0.91332054

>  <PEOE_PC->
-0.91332054

>  <PEOE_RPC+>
0.3880516

>  <PEOE_RPC->
0.33180434

>  <PEOE_VSA+0>
124.30309

>  <PEOE_VSA+1>
34.362862

>  <PEOE_VSA+2>
39.843029

>  <PEOE_VSA+3>
0

>  <PEOE_VSA+4>
0

>  <PEOE_VSA+5>
0

>  <PEOE_VSA+6>
15.590208

>  <PEOE_VSA-0>
43.624847

>  <PEOE_VSA-1>
29.581947

>  <PEOE_VSA-2>
0

>  <PEOE_VSA-3>
0

>  <PEOE_VSA-4>
15.729136

>  <PEOE_VSA-5>
4.6659718

>  <PEOE_VSA-6>
4.6659718

>  <PEOE_VSA_FHYD>
0.86986053

>  <PEOE_VSA_FNEG>
0.31459102

>  <PEOE_VSA_FPNEG>
0.080229588

>  <PEOE_VSA_FPOL>
0.13013949

>  <PEOE_VSA_FPOS>
0.68540895

>  <PEOE_VSA_FPPOS>
0.049909897

>  <PEOE_VSA_HYD>
271.71576

>  <PEOE_VSA_NEG>
98.267876

>  <PEOE_VSA_PNEG>
25.061081

>  <PEOE_VSA_POL>
40.651287

>  <PEOE_VSA_POS>
214.09918

>  <PEOE_VSA_PPOS>
15.590208

>  <petitjean>
0.5

>  <petitjeanSC>
1

>  <Q_PC+>
0

>  <Q_PC->
0

>  <Q_RPC+>
0

>  <Q_RPC->
0

>  <Q_VSA_FHYD>
1

>  <Q_VSA_FNEG>
0

>  <Q_VSA_FPNEG>
0

>  <Q_VSA_FPOL>
0

>  <Q_VSA_FPOS>
1

>  <Q_VSA_FPPOS>
0

>  <Q_VSA_HYD>
312.36707

>  <Q_VSA_NEG>
0

>  <Q_VSA_PNEG>
0

>  <Q_VSA_POL>
0

>  <Q_VSA_POS>
312.36707

>  <Q_VSA_PPOS>
0

>  <radius>
5

>  <reactive>
0

>  <rings>
1

>  <RPC+>
0

>  <RPC->
0

>  <rsynth>
1

>  <SlogP>
4.6989002

>  <SlogP_VSA0>
29.355396

>  <SlogP_VSA1>
0

>  <SlogP_VSA2>
6.9216304

>  <SlogP_VSA3>
38.159824

>  <SlogP_VSA4>
0

>  <SlogP_VSA5>
3.0551045

>  <SlogP_VSA6>
3.5006065

>  <SlogP_VSA7>
52.929554

>  <SlogP_VSA8>
18.868406

>  <SlogP_VSA9>
198.22258

>  <SMR>
8.1076002

>  <SMR_VSA0>
29.355396

>  <SMR_VSA1>
6.9216304

>  <SMR_VSA2>
3.0551045

>  <SMR_VSA3>
8.7440348

>  <SMR_VSA4>
0

>  <SMR_VSA5>
71.797958

>  <SMR_VSA6>
38.159824

>  <SMR_VSA7>
192.97916

>  <TPSA>
35.529999

>  <VAdjEq>
0.50325835

>  <VAdjMa>
5.1699252

>  <VDistEq>
3.045084

>  <VDistMa>
8.0515223

>  <vdw_area>
312.36707

>  <vdw_vol>
331.2453

>  <vsa_acc>
25.061081

>  <vsa_acid>
0

>  <vsa_base>
0

>  <vsa_don>
0

>  <vsa_hyd>
250.33118

>  <vsa_other>
36.9748

>  <vsa_pol>
25.061081

>  <Weight>
373.63501

>  <weinerPath>
633

>  <weinerPol>
24

>  <zagreb>
84

$$$$
C1(N=C(NC(C)C)N=C(N=1)OC)NC(C)C
  MOE2011           2D

 16 16  0  0  0  0  0  0  0  0999 V2000
    0.0000    0.0000    0.0000 C   0  0  0  0  0  0  0  0  0  0  0  0
    1.5000    0.0080    0.0000 N   0  0  0  0  0  0  0  0  0  0  0  0
    2.2430    1.3110    0.0000 C   0  0  0  0  0  0  0  0  0  0  0  0
    3.7430    1.3190    0.0000 N   0  0  0  0  0  0  0  0  0  0  0  0
    4.5000    0.0240    0.0000 C   0  0  0  0  0  0  0  0  0  0  0  0
    6.0000    0.0320    0.0000 C   0  0  0  0  0  0  0  0  0  0  0  0
    3.7570   -1.2790    0.0000 C   0  0  0  0  0  0  0  0  0  0  0  0
    1.4860    2.6060    0.0000 N   0  0  0  0  0  0  0  0  0  0  0  0
   -0.0140    2.5980    0.0000 C   0  0  0  0  0  0  0  0  0  0  0  0
   -0.7570    1.2950    0.0000 N   0  0  0  0  0  0  0  0  0  0  0  0
   -0.7710    3.8930    0.0000 O   0  0  0  0  0  0  0  0  0  0  0  0
   -0.0280    5.1960    0.0000 C   0  0  0  0  0  0  0  0  0  0  0  0
   -0.7430   -1.3030    0.0000 N   0  0  0  0  0  0  0  0  0  0  0  0
   -2.2430   -1.3110    0.0000 C   0  0  0  0  0  0  0  0  0  0  0  0
   -2.9860   -2.6140    0.0000 C   0  0  0  0  0  0  0  0  0  0  0  0
   -3.0000   -0.0160    0.0000 C   0  0  0  0  0  0  0  0  0  0  0  0
  1  2  1  0  0  0  0
  1 10  2  0  0  0  0
  1 13  1  0  0  0  0
  2  3  2  0  0  0  0
  3  4  1  0  0  0  0
  3  8  1  0  0  0  0
  4  5  1  0  0  0  0
  5  6  1  0  0  0  0
  5  7  1  0  0  0  0
  8  9  2  0  0  0  0
  9 10  1  0  0  0  0
  9 11  1  0  0  0  0
 11 12  1  0  0  0  0
 13 14  1  0  0  0  0
 14 15  1  0  0  0  0
 14 16  1  0  0  0  0
M  END
>  <DSSTox_RID>
40568

>  <DSSTox_CID>
2341

>  <apol>
36.571068

>  <a_acc>
3

>  <a_acid>
0

>  <a_aro>
6

>  <a_base>
0

>  <a_count>
35

>  <a_don>
2

>  <a_heavy>
16

>  <a_hyd>
7

>  <a_IC>
53.985363

>  <a_ICM>
1.5424389

>  <a_nB>
0

>  <a_nBr>
0

>  <a_nC>
10

>  <a_nCl>
0

>  <a_nF>
0

>  <a_nH>
19

>  <a_nI>
0

>  <a_nN>
5

>  <a_nO>
1

>  <a_nP>
0

>  <a_nS>
0

>  <balabanJ>
2.4842415

>  <BCUT_PEOE_0>
-2.5646968

>  <BCUT_PEOE_1>
-0.37586686

>  <BCUT_PEOE_2>
0.342482

>  <BCUT_PEOE_3>
2.506135

>  <BCUT_SLOGP_0>
-2.5973601

>  <BCUT_SLOGP_1>
-0.42599797

>  <BCUT_SLOGP_2>
0.39497656

>  <BCUT_SLOGP_3>
2.5258451

>  <BCUT_SMR_0>
-2.2969587

>  <BCUT_SMR_1>
-0.15016755

>  <BCUT_SMR_2>
0.47337824

>  <BCUT_SMR_3>
2.7752049

>  <bpol>
27.966932

>  <b_1rotN>
5

>  <b_1rotR>
0.3125

>  <b_ar>
6

>  <b_count>
35

>  <b_double>
0

>  <b_heavy>
16

>  <b_rotN>
5

>  <b_rotR>
0.3125

>  <b_single>
29

>  <b_triple>
0

>  <chi0>
12.129392

>  <chi0v>
10.40459

>  <chi0v_C>
7.6547008

>  <chi0_C>
7.8867512

>  <chi1>
7.5072389

>  <chi1v>
5.3407645

>  <chi1v_C>
2.309401

>  <chi1_C>
2.309401

>  <chiral>
0

>  <chiral_u>
0

>  <density>
0.79916286

>  <diameter>
8

>  <FCharge>
0

>  <GCUT_PEOE_0>
-0.8072179

>  <GCUT_PEOE_1>
-0.37405071

>  <GCUT_PEOE_2>
0.0014031401

>  <GCUT_PEOE_3>
2.3644633

>  <GCUT_SLOGP_0>
-0.98538369

>  <GCUT_SLOGP_1>
-0.36746401

>  <GCUT_SLOGP_2>
0.076259248

>  <GCUT_SLOGP_3>
2.4038188

>  <GCUT_SMR_0>
-0.51686454

>  <GCUT_SMR_1>
-0.16105251

>  <GCUT_SMR_2>
0.076218821

>  <GCUT_SMR_3>
2.6165996

>  <Kier1>
14.0625

>  <Kier2>
6.6666665

>  <Kier3>
5.2644629

>  <KierA1>
10.916496

>  <KierA2>
5.0802045

>  <KierA3>
3.956064

>  <KierFlex>
3.4661269

>  <lip_acc>
6

>  <lip_don>
2

>  <lip_druglike>
1

>  <lip_violation>
0

>  <logP(o/w)>
0.43099999

>  <logS>
-3.2075601

>  <mr>
6.1946363

>  <mutagenic>
0

>  <nmol>
1

>  <opr_brigid>
6

>  <opr_leadlike>
1

>  <opr_nring>
1

>  <opr_nrot>
5

>  <opr_violation>
0

>  <PC+>
0

>  <PC->
0

>  <PEOE_PC+>
1.1494615

>  <PEOE_PC->
-1.1494615

>  <PEOE_RPC+>
0.23885074

>  <PEOE_RPC->
0.25832599

>  <PEOE_VSA+0>
117.6338

>  <PEOE_VSA+1>
13.399102

>  <PEOE_VSA+2>
0

>  <PEOE_VSA+3>
35.658428

>  <PEOE_VSA+4>
31.363148

>  <PEOE_VSA+5>
17.440542

>  <PEOE_VSA+6>
0

>  <PEOE_VSA-0>
0

>  <PEOE_VSA-1>
0

>  <PEOE_VSA-2>
0

>  <PEOE_VSA-3>
28.41288

>  <PEOE_VSA-4>
0

>  <PEOE_VSA-5>
2.503756

>  <PEOE_VSA-6>
0

>  <PEOE_VSA_FHYD>
0.7917816

>  <PEOE_VSA_FNEG>
0.12546742

>  <PEOE_VSA_FPNEG>
0.010160867

>  <PEOE_VSA_FPOL>
0.20821843

>  <PEOE_VSA_FPOS>
0.87453258

>  <PEOE_VSA_FPPOS>
0.19805756

>  <PEOE_VSA_HYD>
195.10422

>  <PEOE_VSA_NEG>
30.916637

>  <PEOE_VSA_PNEG>
2.503756

>  <PEOE_VSA_POL>
51.307446

>  <PEOE_VSA_POS>
215.49503

>  <PEOE_VSA_PPOS>
48.803692

>  <petitjean>
0.375

>  <petitjeanSC>
0.60000002

>  <Q_PC+>
0

>  <Q_PC->
0

>  <Q_RPC+>
0

>  <Q_RPC->
0

>  <Q_VSA_FHYD>
1

>  <Q_VSA_FNEG>
0

>  <Q_VSA_FPNEG>
0

>  <Q_VSA_FPOL>
0

>  <Q_VSA_FPOS>
1

>  <Q_VSA_FPPOS>
0

>  <Q_VSA_HYD>
246.41165

>  <Q_VSA_NEG>
0

>  <Q_VSA_PNEG>
0

>  <Q_VSA_POL>
0

>  <Q_VSA_POS>
246.41165

>  <Q_VSA_PPOS>
0

>  <radius>
5

>  <reactive>
0

>  <rings>
1

>  <RPC+>
0

>  <RPC->
0

>  <rsynth>
1

>  <SlogP>
1.5208

>  <SlogP_VSA0>
10.999887

>  <SlogP_VSA1>
86.37809

>  <SlogP_VSA2>
7.9639373

>  <SlogP_VSA3>
0

>  <SlogP_VSA4>
0

>  <SlogP_VSA5>
35.383869

>  <SlogP_VSA6>
0

>  <SlogP_VSA7>
0

>  <SlogP_VSA8>
0

>  <SlogP_VSA9>
141.48802

>  <SMR>
6.3896399

>  <SMR_VSA0>
0

>  <SMR_VSA1>
61.356476

>  <SMR_VSA2>
0

>  <SMR_VSA3>
12.34971

>  <SMR_VSA4>
39.819687

>  <SMR_VSA5>
0

>  <SMR_VSA6>
0

>  <SMR_VSA7>
168.68793

>  <TPSA>
71.959999

>  <VAdjEq>
0.54356444

>  <VAdjMa>
5

>  <VDistEq>
2.8779066

>  <VDistMa>
7.7091489

>  <vdw_area>
246.41165

>  <vdw_vol>
257.94992

>  <vsa_acc>
17.047728

>  <vsa_acid>
0

>  <vsa_base>
0

>  <vsa_don>
11.365152

>  <vsa_hyd>
166.69133

>  <vsa_other>
51.307446

>  <vsa_pol>
28.41288

>  <Weight>
225.29599

>  <weinerPath>
458

>  <weinerPol>
19

>  <zagreb>
74

$$$$
CSc1nc(NC(C)C)nc(NC(C)C)n1
  MOE2011           2D

 16 16  0  0  0  0  0  0  0  0999 V2000
    0.0000    0.0000    0.0000 C   0  0  0  0  0  0  0  0  0  0  0  0
    0.7430   -1.3030    0.0000 S   0  0  0  0  0  0  0  0  0  0  0  0
   -0.0140   -2.5980    0.0000 C   0  0  0  0  0  0  0  0  0  0  0  0
    0.7290   -3.9010    0.0000 N   0  0  0  0  0  0  0  0  0  0  0  0
   -0.0280   -5.1960    0.0000 C   0  0  0  0  0  0  0  0  0  0  0  0
    0.7150   -6.4990    0.0000 N   0  0  0  0  0  0  0  0  0  0  0  0
    2.2150   -6.5070    0.0000 C   0  0  0  0  0  0  0  0  0  0  0  0
    2.9580   -7.8100    0.0000 C   0  0  0  0  0  0  0  0  0  0  0  0
    2.9720   -5.2120    0.0000 C   0  0  0  0  0  0  0  0  0  0  0  0
   -1.5280   -5.1880    0.0000 N   0  0  0  0  0  0  0  0  0  0  0  0
   -2.2710   -3.8850    0.0000 C   0  0  0  0  0  0  0  0  0  0  0  0
   -3.7710   -3.8770    0.0000 N   0  0  0  0  0  0  0  0  0  0  0  0
   -4.5280   -5.1720    0.0000 C   0  0  0  0  0  0  0  0  0  0  0  0
   -6.0280   -5.1640    0.0000 C   0  0  0  0  0  0  0  0  0  0  0  0
   -3.7850   -6.4750    0.0000 C   0  0  0  0  0  0  0  0  0  0  0  0
   -1.5140   -2.5900    0.0000 N   0  0  0  0  0  0  0  0  0  0  0  0
  1  2  1  0  0  0  0
  2  3  1  0  0  0  0
  3  4  1  0  0  0  0
  3 16  2  0  0  0  0
  4  5  2  0  0  0  0
  5  6  1  0  0  0  0
  5 10  1  0  0  0  0
  6  7  1  0  0  0  0
  7  8  1  0  0  0  0
  7  9  1  0  0  0  0
 10 11  2  0  0  0  0
 11 12  1  0  0  0  0
 11 16  1  0  0  0  0
 12 13  1  0  0  0  0
 13 14  1  0  0  0  0
 13 15  1  0  0  0  0
M  END
>  <DSSTox_RID>
40569

>  <DSSTox_CID>
4272

>  <apol>
38.669067

>  <a_acc>
3

>  <a_acid>
0

>  <a_aro>
6

>  <a_base>
0

>  <a_count>
35

>  <a_don>
2

>  <a_heavy>
16

>  <a_hyd>
8

>  <a_IC>
53.985363

>  <a_ICM>
1.5424389

>  <a_nB>
0

>  <a_nBr>
0

>  <a_nC>
10

>  <a_nCl>
0

>  <a_nF>
0

>  <a_nH>
19

>  <a_nI>
0

>  <a_nN>
5

>  <a_nO>
0

>  <a_nP>
0

>  <a_nS>
1

>  <balabanJ>
2.4842415

>  <BCUT_PEOE_0>
-2.5649266

>  <BCUT_PEOE_1>
-0.35022458

>  <BCUT_PEOE_2>
0.33439416

>  <BCUT_PEOE_3>
2.5058131

>  <BCUT_SLOGP_0>
-2.5974746

>  <BCUT_SLOGP_1>
-0.28463486

>  <BCUT_SLOGP_2>
0.40235087

>  <BCUT_SLOGP_3>
2.5260098

>  <BCUT_SMR_0>
-2.2968693

>  <BCUT_SMR_1>
-0.15016755

>  <BCUT_SMR_2>
0.5582152

>  <BCUT_SMR_3>
2.7759492

>  <bpol>
28.330933

>  <b_1rotN>
5

>  <b_1rotR>
0.3125

>  <b_ar>
6

>  <b_count>
35

>  <b_double>
0

>  <b_heavy>
16

>  <b_rotN>
5

>  <b_rotR>
0.3125

>  <b_single>
29

>  <b_triple>
0

>  <chi0>
12.129392

>  <chi0v>
11.221087

>  <chi0v_C>
7.6547008

>  <chi0_C>
7.8867512

>  <chi1>
7.5072389

>  <chi1v>
6.5655093

>  <chi1v_C>
2.309401

>  <chi1_C>
2.309401

>  <chiral>
0

>  <chiral_u>
0

>  <density>
0.8240065

>  <diameter>
8

>  <FCharge>
0

>  <GCUT_PEOE_0>
-0.80734789

>  <GCUT_PEOE_1>
-0.36010632

>  <GCUT_PEOE_2>
-0.0057623321

>  <GCUT_PEOE_3>
2.3625534

>  <GCUT_SLOGP_0>
-0.98538369

>  <GCUT_SLOGP_1>
-0.25477451

>  <GCUT_SLOGP_2>
0.10019492

>  <GCUT_SLOGP_3>
2.4144318

>  <GCUT_SMR_0>
-0.51686454

>  <GCUT_SMR_1>
-0.14735046

>  <GCUT_SMR_2>
0.14754982

>  <GCUT_SMR_3>
2.630754

>  <Kier1>
14.0625

>  <Kier2>
6.6666665

>  <Kier3>
5.2644629

>  <KierA1>
12.121423

>  <KierA2>
5.6854911

>  <KierA3>
4.453815

>  <KierFlex>
4.3072653

>  <lip_acc>
5

>  <lip_don>
2

>  <lip_druglike>
1

>  <lip_violation>
0

>  <logP(o/w)>
1.067

>  <logS>
-4.1785798

>  <mr>
6.6962395

>  <mutagenic>
0

>  <nmol>
1

>  <opr_brigid>
6

>  <opr_leadlike>
1

>  <opr_nring>
1

>  <opr_nrot>
5

>  <opr_violation>
0

>  <PC+>
0

>  <PC->
0

>  <PEOE_PC+>
0.95981961

>  <PEOE_PC->
-0.95981961

>  <PEOE_RPC+>
0.23377967

>  <PEOE_RPC->
0.19838564

>  <PEOE_VSA+0>
117.6338

>  <PEOE_VSA+1>
44.783615

>  <PEOE_VSA+2>
0

>  <PEOE_VSA+3>
13.166624

>  <PEOE_VSA+4>
31.363148

>  <PEOE_VSA+5>
0

>  <PEOE_VSA+6>
0

>  <PEOE_VSA-0>
0

>  <PEOE_VSA-1>
19.760618

>  <PEOE_VSA-2>
0

>  <PEOE_VSA-3>
28.41288

>  <PEOE_VSA-4>
0

>  <PEOE_VSA-5>
0

>  <PEOE_VSA-6>
0

>  <PEOE_VSA_FHYD>
0.87706542

>  <PEOE_VSA_FNEG>
0.18882631

>  <PEOE_VSA_FPNEG>
0

>  <PEOE_VSA_FPOL>
0.12293456

>  <PEOE_VSA_FPOS>
0.81117368

>  <PEOE_VSA_FPPOS>
0.12293456

>  <PEOE_VSA_HYD>
223.75754

>  <PEOE_VSA_NEG>
48.1735

>  <PEOE_VSA_PNEG>
0

>  <PEOE_VSA_POL>
31.363148

>  <PEOE_VSA_POS>
206.94719

>  <PEOE_VSA_PPOS>
31.363148

>  <petitjean>
0.375

>  <petitjeanSC>
0.60000002

>  <Q_PC+>
0

>  <Q_PC->
0

>  <Q_RPC+>
0

>  <Q_RPC->
0

>  <Q_VSA_FHYD>
1

>  <Q_VSA_FNEG>
0

>  <Q_VSA_FPNEG>
0

>  <Q_VSA_FPOL>
0

>  <Q_VSA_FPOS>
1

>  <Q_VSA_FPPOS>
0

>  <Q_VSA_HYD>
255.12068

>  <Q_VSA_NEG>
0

>  <Q_VSA_PNEG>
0

>  <Q_VSA_POL>
0

>  <Q_VSA_POS>
255.12068

>  <Q_VSA_PPOS>
0

>  <radius>
5

>  <reactive>
0

>  <rings>
1

>  <RPC+>
0

>  <RPC->
0

>  <rsynth>
1

>  <SlogP>
2.2341001

>  <SlogP_VSA0>
0

>  <SlogP_VSA1>
86.37809

>  <SlogP_VSA2>
7.9639373

>  <SlogP_VSA3>
0

>  <SlogP_VSA4>
0

>  <SlogP_VSA5>
32.384254

>  <SlogP_VSA6>
0

>  <SlogP_VSA7>
0

>  <SlogP_VSA8>
0

>  <SlogP_VSA9>
169.32179

>  <SMR>
6.9126401

>  <SMR_VSA0>
0

>  <SMR_VSA1>
50.35659

>  <SMR_VSA2>
0.69307917

>  <SMR_VSA3>
7.9639373

>  <SMR_VSA4>
39.819687

>  <SMR_VSA5>
0

>  <SMR_VSA6>
0

>  <SMR_VSA7>
197.21477

>  <TPSA>
62.73

>  <VAdjEq>
0.54356444

>  <VAdjMa>
5

>  <VDistEq>
2.8779066

>  <VDistMa>
7.7091489

>  <vdw_area>
255.12068

>  <vdw_vol>
269.67142

>  <vsa_acc>
17.047728

>  <vsa_acid>
0

>  <vsa_base>
0

>  <vsa_don>
11.365152

>  <vsa_hyd>
182.17802

>  <vsa_other>
44.529774

>  <vsa_pol>
28.41288

>  <Weight>
241.36299

>  <weinerPath>
458

>  <weinerPol>
19

>  <zagreb>
74

$$$$
C1=C(Cl)C(Cl)=CC=C1NC(=O)CC
  MOE2011           2D

 13 13  0  0  0  0  0  0  0  0999 V2000
    0.0000    0.0000    0.0000 C   0  0  0  0  0  0  0  0  0  0  0  0
   -1.3040   -0.7400    0.0000 C   0  0  0  0  0  0  0  0  0  0  0  0
   -2.5980    0.0190    0.0000 Cl  0  0  0  0  0  0  0  0  0  0  0  0
   -1.3150   -2.2400    0.0000 C   0  0  0  0  0  0  0  0  0  0  0  0
   -2.6200   -2.9810    0.0000 Cl  0  0  0  0  0  0  0  0  0  0  0  0
   -0.0220   -3.0000    0.0000 C   0  0  0  0  0  0  0  0  0  0  0  0
    1.2830   -2.2590    0.0000 C   0  0  0  0  0  0  0  0  0  0  0  0
    1.2940   -0.7590    0.0000 C   0  0  0  0  0  0  0  0  0  0  0  0
    2.5980   -0.0190    0.0000 N   0  0  0  0  0  0  0  0  0  0  0  0
    3.8920   -0.7780    0.0000 C   0  0  0  0  0  0  0  0  0  0  0  0
    3.8810   -2.2780    0.0000 O   0  0  0  0  0  0  0  0  0  0  0  0
    5.1960   -0.0380    0.0000 C   0  0  0  0  0  0  0  0  0  0  0  0
    6.4900   -0.7970    0.0000 C   0  0  0  0  0  0  0  0  0  0  0  0
  1  2  1  0  0  0  0
  1  8  2  0  0  0  0
  2  3  1  0  0  0  0
  2  4  2  0  0  0  0
  4  5  1  0  0  0  0
  4  6  1  0  0  0  0
  6  7  2  0  0  0  0
  7  8  1  0  0  0  0
  8  9  1  0  0  0  0
  9 10  1  0  0  0  0
 10 11  2  0  0  0  0
 10 12  1  0  0  0  0
 12 13  1  0  0  0  0
M  END
>  <DSSTox_RID>
40572

>  <DSSTox_CID>
2111

>  <apol>
28.103136

>  <a_acc>
1

>  <a_acid>
0

>  <a_aro>
6

>  <a_base>
0

>  <a_count>
22

>  <a_don>
1

>  <a_heavy>
13

>  <a_hyd>
10

>  <a_IC>
39.048847

>  <a_ICM>
1.7749475

>  <a_nB>
0

>  <a_nBr>
0

>  <a_nC>
9

>  <a_nCl>
2

>  <a_nF>
0

>  <a_nH>
9

>  <a_nI>
0

>  <a_nN>
1

>  <a_nO>
1

>  <a_nP>
0

>  <a_nS>
0

>  <balabanJ>
2.3127129

>  <BCUT_PEOE_0>
-2.4014025

>  <BCUT_PEOE_1>
-0.59161335

>  <BCUT_PEOE_2>
0.53327358

>  <BCUT_PEOE_3>
2.4123373

>  <BCUT_SLOGP_0>
-2.4143531

>  <BCUT_SLOGP_1>
-0.46931022

>  <BCUT_SLOGP_2>
0.83062989

>  <BCUT_SLOGP_3>
2.4751728

>  <BCUT_SMR_0>
-2.1510692

>  <BCUT_SMR_1>
-0.33112976

>  <BCUT_SMR_2>
0.86740601

>  <BCUT_SMR_3>
2.6763856

>  <bpol>
12.296863

>  <b_1rotN>
2

>  <b_1rotR>
0.15384616

>  <b_ar>
6

>  <b_count>
22

>  <b_double>
1

>  <b_heavy>
13

>  <b_rotN>
3

>  <b_rotR>
0.23076923

>  <b_single>
15

>  <b_triple>
0

>  <chi0>
9.8449354

>  <chi0v>
8.6151924

>  <chi0v_C>
5.4391575

>  <chi0_C>
6.1378284

>  <chi1>
6.130229

>  <chi1v>
4.6367116

>  <chi1v_C>
2.7986941

>  <chi1_C>
3.5816815

>  <chiral>
0

>  <chiral_u>
0

>  <density>
0.93290108

>  <diameter>
8

>  <FCharge>
0

>  <GCUT_PEOE_0>
-0.81318718

>  <GCUT_PEOE_1>
-0.40067998

>  <GCUT_PEOE_2>
0.063626871

>  <GCUT_PEOE_3>
2.1363461

>  <GCUT_SLOGP_0>
-0.99748367

>  <GCUT_SLOGP_1>
-0.2126994

>  <GCUT_SLOGP_2>
0.25874379

>  <GCUT_SLOGP_3>
2.2898252

>  <GCUT_SMR_0>
-0.50897896

>  <GCUT_SMR_1>
-0.17044061

>  <GCUT_SMR_2>
0.28188556

>  <GCUT_SMR_3>
2.4423213

>  <Kier1>
11.076923

>  <Kier2>
5.0242214

>  <Kier3>
3.3240998

>  <KierA1>
10.189106

>  <KierA2>
4.5869565

>  <KierA3>
3.015574

>  <KierFlex>
3.5951529

>  <lip_acc>
2

>  <lip_don>
1

>  <lip_druglike>
1

>  <lip_violation>
0

>  <logP(o/w)>
2.891

>  <logS>
-3.2646799

>  <mr>
5.5218067

>  <mutagenic>
0

>  <nmol>
1

>  <opr_brigid>
6

>  <opr_leadlike>
1

>  <opr_nring>
1

>  <opr_nrot>
2

>  <opr_violation>
0

>  <PC+>
0

>  <PC->
0

>  <PEOE_PC+>
0.64448845

>  <PEOE_PC->
-0.64448845

>  <PEOE_RPC+>
0.39675489

>  <PEOE_RPC->
0.41924015

>  <PEOE_VSA+0>
76.833931

>  <PEOE_VSA+1>
31.547539

>  <PEOE_VSA+2>
0

>  <PEOE_VSA+3>
0

>  <PEOE_VSA+4>
0

>  <PEOE_VSA+5>
12.949531

>  <PEOE_VSA+6>
0

>  <PEOE_VSA-0>
0

>  <PEOE_VSA-1>
59.163895

>  <PEOE_VSA-2>
0

>  <PEOE_VSA-3>
0

>  <PEOE_VSA-4>
5.6825762

>  <PEOE_VSA-5>
13.566921

>  <PEOE_VSA-6>
0

>  <PEOE_VSA_FHYD>
0.83879882

>  <PEOE_VSA_FNEG>
0.39256868

>  <PEOE_VSA_FPNEG>
0.096370652

>  <PEOE_VSA_FPOL>
0.16120116

>  <PEOE_VSA_FPOS>
0.60743135

>  <PEOE_VSA_FPPOS>
0.064830512

>  <PEOE_VSA_HYD>
167.54536

>  <PEOE_VSA_NEG>
78.413391

>  <PEOE_VSA_PNEG>
19.249496

>  <PEOE_VSA_POL>
32.199028

>  <PEOE_VSA_POS>
121.331

>  <PEOE_VSA_PPOS>
12.949531

>  <petitjean>
0.5

>  <petitjeanSC>
1

>  <Q_PC+>
0

>  <Q_PC->
0

>  <Q_RPC+>
0

>  <Q_RPC->
0

>  <Q_VSA_FHYD>
1

>  <Q_VSA_FNEG>
0

>  <Q_VSA_FPNEG>
0

>  <Q_VSA_FPOL>
0

>  <Q_VSA_FPOS>
1

>  <Q_VSA_FPPOS>
0

>  <Q_VSA_HYD>
199.7444

>  <Q_VSA_NEG>
0

>  <Q_VSA_PNEG>
0

>  <Q_VSA_POL>
0

>  <Q_VSA_POS>
199.7444

>  <Q_VSA_PPOS>
0

>  <radius>
4

>  <reactive>
0

>  <rings>
1

>  <RPC+>
0

>  <RPC->
0

>  <rsynth>
1

>  <SlogP>
3.3419001

>  <SlogP_VSA0>
0

>  <SlogP_VSA1>
23.269535

>  <SlogP_VSA2>
23.862217

>  <SlogP_VSA3>
0

>  <SlogP_VSA4>
0

>  <SlogP_VSA5>
0

>  <SlogP_VSA6>
7.0012131

>  <SlogP_VSA7>
52.929554

>  <SlogP_VSA8>
18.868406

>  <SlogP_VSA9>
114.38005

>  <SMR>
5.53827

>  <SMR_VSA0>
23.862217

>  <SMR_VSA1>
0

>  <SMR_VSA2>
0

>  <SMR_VSA3>
7.0012131

>  <SMR_VSA4>
20.767498

>  <SMR_VSA5>
71.797958

>  <SMR_VSA6>
5.2587838

>  <SMR_VSA7>
111.62331

>  <TPSA>
29.1

>  <VAdjEq>
0.6193822

>  <VAdjMa>
4.7004399

>  <VDistEq>
2.7491567

>  <VDistMa>
7.0725861

>  <vdw_area>
199.7444

>  <vdw_vol>
224.04411

>  <vsa_acc>
13.566921

>  <vsa_acid>
0

>  <vsa_base>
0

>  <vsa_don>
5.6825762

>  <vsa_hyd>
167.54536

>  <vsa_other>
12.949531

>  <vsa_pol>
19.249496

>  <Weight>
218.08299

>  <weinerPath>
262

>  <weinerPol>
16

>  <zagreb>
60

$$$$
CC(C)(C)c1ccc(cc1)OC2CCCCC2OS(=O)OCC#C
  MOE2011           2D

 24 25  0  0  1  0  0  0  0  0999 V2000
    0.0000    0.0000    0.0000 C   0  0  0  0  0  0  0  0  0  0  0  0
    0.0180    1.5000    0.0000 C   0  0  0  0  0  0  0  0  0  0  0  0
    0.0360    3.0000    0.0000 C   0  0  0  0  0  0  0  0  0  0  0  0
   -1.4820    1.5180    0.0000 C   0  0  0  0  0  0  0  0  0  0  0  0
    1.5180    1.4820    0.0000 C   0  0  0  0  0  0  0  0  0  0  0  0
    2.2830    2.7720    0.0000 C   0  0  0  0  0  0  0  0  0  0  0  0
    3.7830    2.7540    0.0000 C   0  0  0  0  0  0  0  0  0  0  0  0
    4.5180    1.4460    0.0000 C   0  0  0  0  0  0  0  0  0  0  0  0
    3.7520    0.1560    0.0000 C   0  0  0  0  0  0  0  0  0  0  0  0
    2.2520    0.1740    0.0000 C   0  0  0  0  0  0  0  0  0  0  0  0
    6.0170    1.4280    0.0000 O   0  0  0  0  0  0  0  0  0  0  0  0
    6.7830    2.7190    0.0000 C   0  0  3  0  0  0  0  0  0  0  0  0
    6.0480    4.0260    0.0000 C   0  0  0  0  0  0  0  0  0  0  0  0
    6.8140    5.3160    0.0000 C   0  0  0  0  0  0  0  0  0  0  0  0
    8.3140    5.2990    0.0000 C   0  0  0  0  0  0  0  0  0  0  0  0
    9.0480    3.9910    0.0000 C   0  0  0  0  0  0  0  0  0  0  0  0
    8.2830    2.7010    0.0000 C   0  0  3  0  0  0  0  0  0  0  0  0
    9.0170    1.3930    0.0000 O   0  0  0  0  0  0  0  0  0  0  0  0
   10.5170    1.3750    0.0000 S   0  0  3  0  0  0  0  0  0  0  0  0
   11.2830    2.6650    0.0000 O   0  0  0  0  0  0  0  0  0  0  0  0
   11.2520    0.0670    0.0000 O   0  0  0  0  0  0  0  0  0  0  0  0
   12.7510    0.0490    0.0000 C   0  0  0  0  0  0  0  0  0  0  0  0
   13.4860   -1.2590    0.0000 C   0  0  0  0  0  0  0  0  0  0  0  0
   14.2200   -2.5670    0.0000 C   0  0  0  0  0  0  0  0  0  0  0  0
  1  2  1  0  0  0  0
  2  3  1  0  0  0  0
  2  4  1  0  0  0  0
  2  5  1  0  0  0  0
  5  6  1  0  0  0  0
  5 10  2  0  0  0  0
  6  7  2  0  0  0  0
  7  8  1  0  0  0  0
  8  9  2  0  0  0  0
  8 11  1  0  0  0  0
  9 10  1  0  0  0  0
 11 12  1  0  0  0  0
 12 13  1  0  0  0  0
 12 17  1  0  0  0  0
 13 14  1  0  0  0  0
 14 15  1  0  0  0  0
 15 16  1  0  0  0  0
 16 17  1  0  0  0  0
 17 18  1  0  0  0  0
 18 19  1  0  0  0  0
 19 20  2  0  0  0  0
 19 21  1  0  0  0  0
 21 22  1  0  0  0  0
 22 23  1  0  0  0  0
 23 24  3  0  0  0  0
M  END
>  <DSSTox_RID>
40574

>  <DSSTox_CID>
4276

>  <apol>
56.884617

>  <a_acc>
4

>  <a_acid>
0

>  <a_aro>
6

>  <a_base>
0

>  <a_count>
50

>  <a_don>
0

>  <a_heavy>
24

>  <a_hyd>
19

>  <a_IC>
71.270752

>  <a_ICM>
1.425415

>  <a_nB>
0

>  <a_nBr>
0

>  <a_nC>
19

>  <a_nCl>
0

>  <a_nF>
0

>  <a_nH>
26

>  <a_nI>
0

>  <a_nN>
0

>  <a_nO>
4

>  <a_nP>
0

>  <a_nS>
1

>  <balabanJ>
1.7910924

>  <BCUT_PEOE_0>
-2.7625396

>  <BCUT_PEOE_1>
-0.41052645

>  <BCUT_PEOE_2>
0.42922541

>  <BCUT_PEOE_3>
2.7517939

>  <BCUT_SLOGP_0>
-2.7603235

>  <BCUT_SLOGP_1>
-0.35139018

>  <BCUT_SLOGP_2>
0.52271384

>  <BCUT_SLOGP_3>
2.8018799

>  <BCUT_SMR_0>
-2.5265059

>  <BCUT_SMR_1>
-0.24151154

>  <BCUT_SMR_2>
0.60213512

>  <BCUT_SMR_3>
2.9864082

>  <bpol>
38.549381

>  <b_1rotN>
6

>  <b_1rotR>
0.23999999

>  <b_ar>
6

>  <b_count>
51

>  <b_double>
0

>  <b_heavy>
25

>  <b_rotN>
8

>  <b_rotR>
0.31999999

>  <b_single>
44

>  <b_triple>
1

>  <chi0>
17.57914

>  <chi0v>
15.434724

>  <chi0v_C>
12.576985

>  <chi0_C>
13.880469

>  <chi1>
11.397197

>  <chi1v>
9.3276291

>  <chi1v_C>
6.8634257

>  <chi1_C>
8.2786055

>  <chiral>
2

>  <chiral_u>
2

>  <density>
0.79980147

>  <diameter>
14

>  <FCharge>
0

>  <GCUT_PEOE_0>
-0.79364187

>  <GCUT_PEOE_1>
-0.3681291

>  <GCUT_PEOE_2>
-0.065895081

>  <GCUT_PEOE_3>
2.7224205

>  <GCUT_SLOGP_0>
-0.92229462

>  <GCUT_SLOGP_1>
-0.28746352

>  <GCUT_SLOGP_2>
0.063146263

>  <GCUT_SLOGP_3>
2.8097098

>  <GCUT_SMR_0>
-0.52607435

>  <GCUT_SMR_1>
-0.17139204

>  <GCUT_SMR_2>
0.094336852

>  <GCUT_SMR_3>
2.967561

>  <Kier1>
20.313601

>  <Kier2>
9.6297579

>  <Kier3>
6.6824455

>  <KierA1>
18.489847

>  <KierA2>
8.7277155

>  <KierA3>
6.0378451

>  <KierFlex>
6.7239223

>  <lip_acc>
4

>  <lip_don>
0

>  <lip_druglike>
1

>  <lip_violation>
0

>  <logP(o/w)>
3.9277401

>  <logS>
-6.0991802

>  <mr>
9.7637501

>  <mutagenic>
0

>  <nmol>
1

>  <opr_brigid>
12

>  <opr_leadlike>
1

>  <opr_nring>
2

>  <opr_nrot>
10

>  <opr_violation>
0

>  <PC+>
0

>  <PC->
0

>  <PEOE_PC+>
0.99946177

>  <PEOE_PC->
-0.99946177

>  <PEOE_RPC+>
0.3296648

>  <PEOE_RPC->
0.33209357

>  <PEOE_VSA+0>
183.07631

>  <PEOE_VSA+1>
8.458519

>  <PEOE_VSA+2>
16.917038

>  <PEOE_VSA+3>
22.058474

>  <PEOE_VSA+4>
0

>  <PEOE_VSA+5>
0

>  <PEOE_VSA+6>
23.136677

>  <PEOE_VSA-0>
63.233978

>  <PEOE_VSA-1>
15.808495

>  <PEOE_VSA-2>
16.008261

>  <PEOE_VSA-3>
0

>  <PEOE_VSA-4>
9.8901939

>  <PEOE_VSA-5>
0

>  <PEOE_VSA-6>
2.503756

>  <PEOE_VSA_FHYD>
0.90160221

>  <PEOE_VSA_FNEG>
0.29755512

>  <PEOE_VSA_FPNEG>
0.034323551

>  <PEOE_VSA_FPOL>
0.098397791

>  <PEOE_VSA_FPOS>
0.70244491

>  <PEOE_VSA_FPPOS>
0.064074241

>  <PEOE_VSA_HYD>
325.5611

>  <PEOE_VSA_NEG>
107.44469

>  <PEOE_VSA_PNEG>
12.39395

>  <PEOE_VSA_POL>
35.530624

>  <PEOE_VSA_POS>
253.64702

>  <PEOE_VSA_PPOS>
23.136677

>  <petitjean>
0.5

>  <petitjeanSC>
1

>  <Q_PC+>
0

>  <Q_PC->
0

>  <Q_RPC+>
0

>  <Q_RPC->
0

>  <Q_VSA_FHYD>
1

>  <Q_VSA_FNEG>
0

>  <Q_VSA_FPNEG>
0

>  <Q_VSA_FPOL>
0

>  <Q_VSA_FPOS>
1

>  <Q_VSA_FPPOS>
0

>  <Q_VSA_HYD>
361.09171

>  <Q_VSA_NEG>
0

>  <Q_VSA_PNEG>
0

>  <Q_VSA_POL>
0

>  <Q_VSA_POS>
361.09171

>  <Q_VSA_PPOS>
0

>  <radius>
7

>  <reactive>
0

>  <rings>
2

>  <RPC+>
0

>  <RPC->
0

>  <rsynth>
1

>  <SlogP>
3.919208

>  <SlogP_VSA0>
10.999887

>  <SlogP_VSA1>
24.085844

>  <SlogP_VSA2>
52.985294

>  <SlogP_VSA3>
37.956833

>  <SlogP_VSA4>
34.673759

>  <SlogP_VSA5>
0

>  <SlogP_VSA6>
0

>  <SlogP_VSA7>
70.572739

>  <SlogP_VSA8>
75.473625

>  <SlogP_VSA9>
105.22147

>  <SMR>
9.5826397

>  <SMR_VSA0>
41.17667

>  <SMR_VSA1>
10.999887

>  <SMR_VSA2>
0

>  <SMR_VSA3>
38.396873

>  <SMR_VSA4>
0

>  <SMR_VSA5>
146.04636

>  <SMR_VSA6>
52.41444

>  <SMR_VSA7>
122.93521

>  <TPSA>
63.970001

>  <VAdjEq>
0.42571631

>  <VAdjMa>
5.643856

>  <VDistEq>
3.5636537

>  <VDistMa>
8.8544064

>  <vdw_area>
361.09171

>  <vdw_vol>
405.43936

>  <vsa_acc>
28.402212

>  <vsa_acid>
0

>  <vsa_base>
0

>  <vsa_don>
0

>  <vsa_hyd>
309.55283

>  <vsa_other>
23.136677

>  <vsa_pol>
28.402212

>  <Weight>
350.479

>  <weinerPath>
1515

>  <weinerPol>
33

>  <zagreb>
118

$$$$
ClC1=NC(=NC(=N1)NC(C)C)NC(C)C
  MOE2011           2D

 15 15  0  0  0  0  0  0  0  0999 V2000
    0.0000    0.0000    0.0000 Cl  0  0  0  0  0  0  0  0  0  0  0  0
    0.0000   -1.5000    0.0000 C   0  0  0  0  0  0  0  0  0  0  0  0
    1.2990   -2.2500    0.0000 N   0  0  0  0  0  0  0  0  0  0  0  0
    1.2990   -3.7500    0.0000 C   0  0  0  0  0  0  0  0  0  0  0  0
    0.0000   -4.5000    0.0000 N   0  0  0  0  0  0  0  0  0  0  0  0
   -1.2990   -3.7500    0.0000 C   0  0  0  0  0  0  0  0  0  0  0  0
   -1.2990   -2.2500    0.0000 N   0  0  0  0  0  0  0  0  0  0  0  0
   -2.5980   -4.5000    0.0000 N   0  0  0  0  0  0  0  0  0  0  0  0
   -3.8970   -3.7500    0.0000 C   0  0  0  0  0  0  0  0  0  0  0  0
   -3.8970   -2.2500    0.0000 C   0  0  0  0  0  0  0  0  0  0  0  0
   -5.1960   -4.5000    0.0000 C   0  0  0  0  0  0  0  0  0  0  0  0
    2.5980   -4.5000    0.0000 N   0  0  0  0  0  0  0  0  0  0  0  0
    3.8970   -3.7500    0.0000 C   0  0  0  0  0  0  0  0  0  0  0  0
    3.8970   -2.2500    0.0000 C   0  0  0  0  0  0  0  0  0  0  0  0
    5.1960   -4.5000    0.0000 C   0  0  0  0  0  0  0  0  0  0  0  0
  1  2  1  0  0  0  0
  2  3  1  0  0  0  0
  2  7  2  0  0  0  0
  3  4  2  0  0  0  0
  4  5  1  0  0  0  0
  4 12  1  0  0  0  0
  5  6  2  0  0  0  0
  6  7  1  0  0  0  0
  6  8  1  0  0  0  0
  8  9  1  0  0  0  0
  9 10  1  0  0  0  0
  9 11  1  0  0  0  0
 12 13  1  0  0  0  0
 13 14  1  0  0  0  0
 13 15  1  0  0  0  0
M  END
>  <DSSTox_RID>
40297

>  <DSSTox_CID>
1196

>  <apol>
34.188686

>  <a_acc>
3

>  <a_acid>
0

>  <a_aro>
6

>  <a_base>
0

>  <a_count>
31

>  <a_don>
2

>  <a_heavy>
15

>  <a_hyd>
7

>  <a_IC>
49.44112

>  <a_ICM>
1.5948749

>  <a_nB>
0

>  <a_nBr>
0

>  <a_nC>
9

>  <a_nCl>
1

>  <a_nF>
0

>  <a_nH>
16

>  <a_nI>
0

>  <a_nN>
5

>  <a_nO>
0

>  <a_nP>
0

>  <a_nS>
0

>  <balabanJ>
2.4217083

>  <BCUT_PEOE_0>
-2.5644054

>  <BCUT_PEOE_1>
-0.46546084

>  <BCUT_PEOE_2>
0.48516726

>  <BCUT_PEOE_3>
2.50546

>  <BCUT_SLOGP_0>
-2.5971122

>  <BCUT_SLOGP_1>
-0.48845232

>  <BCUT_SLOGP_2>
0.53096485

>  <BCUT_SLOGP_3>
2.525141

>  <BCUT_SMR_0>
-2.2965941

>  <BCUT_SMR_1>
-0.27810133

>  <BCUT_SMR_2>
0.62824881

>  <BCUT_SMR_3>
2.774802

>  <bpol>
23.191313

>  <b_1rotN>
4

>  <b_1rotR>
0.26666668

>  <b_ar>
6

>  <b_count>
31

>  <b_double>
0

>  <b_heavy>
15

>  <b_rotN>
4

>  <b_rotR>
0.26666668

>  <b_single>
25

>  <b_triple>
0

>  <chi0>
11.422285

>  <chi0v>
10.130235

>  <chi0v_C>
6.6547008

>  <chi0_C>
6.8867512

>  <chi1>
6.9692345

>  <chi1v>
5.2953386

>  <chi1v_C>
2.309401

>  <chi1_C>
2.309401

>  <chiral>
0

>  <chiral_u>
0

>  <density>
0.86239296

>  <diameter>
8

>  <FCharge>
0

>  <GCUT_PEOE_0>
-0.8073141

>  <GCUT_PEOE_1>
-0.36943522

>  <GCUT_PEOE_2>
0.054537266

>  <GCUT_PEOE_3>
2.3118901

>  <GCUT_SLOGP_0>
-0.98538369

>  <GCUT_SLOGP_1>
-0.36353582

>  <GCUT_SLOGP_2>
0.13288887

>  <GCUT_SLOGP_3>
2.3583705

>  <GCUT_SMR_0>
-0.51686454

>  <GCUT_SMR_1>
-0.19387569

>  <GCUT_SMR_2>
0.14927799

>  <GCUT_SMR_3>
2.5718369

>  <Kier1>
13.066667

>  <Kier2>
5.915

>  <Kier3>
5.04

>  <KierA1>
11.035287

>  <KierA2>
4.9304419

>  <KierA3>
4.1562634

>  <KierFlex>
3.6272562

>  <lip_acc>
5

>  <lip_don>
2

>  <lip_druglike>
1

>  <lip_violation>
0

>  <logP(o/w)>
1.067

>  <logS>
-3.89147

>  <mr>
6.0121884

>  <mutagenic>
0

>  <nmol>
1

>  <opr_brigid>
6

>  <opr_leadlike>
1

>  <opr_nring>
1

>  <opr_nrot>
4

>  <opr_violation>
0

>  <PC+>
0

>  <PC->
0

>  <PEOE_PC+>
0.91684002

>  <PEOE_PC->
-0.91684002

>  <PEOE_RPC+>
0.24890333

>  <PEOE_RPC->
0.20266227

>  <PEOE_VSA+0>
117.6338

>  <PEOE_VSA+1>
13.399102

>  <PEOE_VSA+2>
0

>  <PEOE_VSA+3>
0

>  <PEOE_VSA+4>
44.864918

>  <PEOE_VSA+5>
0

>  <PEOE_VSA+6>
0

>  <PEOE_VSA-0>
29.581947

>  <PEOE_VSA-1>
0

>  <PEOE_VSA-2>
0

>  <PEOE_VSA-3>
28.41288

>  <PEOE_VSA-4>
0

>  <PEOE_VSA-5>
0

>  <PEOE_VSA-6>
0

>  <PEOE_VSA_FHYD>
0.80818158

>  <PEOE_VSA_FNEG>
0.24795491

>  <PEOE_VSA_FPNEG>
0

>  <PEOE_VSA_FPOL>
0.19181842

>  <PEOE_VSA_FPOS>
0.75204509

>  <PEOE_VSA_FPPOS>
0.19181842

>  <PEOE_VSA_HYD>
189.02773

>  <PEOE_VSA_NEG>
57.994827

>  <PEOE_VSA_PNEG>
0

>  <PEOE_VSA_POL>
44.864918

>  <PEOE_VSA_POS>
175.89781

>  <PEOE_VSA_PPOS>
44.864918

>  <petitjean>
0.5

>  <petitjeanSC>
1

>  <Q_PC+>
0

>  <Q_PC->
0

>  <Q_RPC+>
0

>  <Q_RPC->
0

>  <Q_VSA_FHYD>
1

>  <Q_VSA_FNEG>
0

>  <Q_VSA_FPNEG>
0

>  <Q_VSA_FPOL>
0

>  <Q_VSA_FPOS>
1

>  <Q_VSA_FPPOS>
0

>  <Q_VSA_HYD>
233.89264

>  <Q_VSA_NEG>
0

>  <Q_VSA_PNEG>
0

>  <Q_VSA_POL>
0

>  <Q_VSA_POS>
233.89264

>  <Q_VSA_PPOS>
0

>  <radius>
4

>  <reactive>
0

>  <rings>
1

>  <RPC+>
0

>  <RPC->
0

>  <rsynth>
1

>  <SlogP>
2.1656001

>  <SlogP_VSA0>
0

>  <SlogP_VSA1>
86.37809

>  <SlogP_VSA2>
7.9639373

>  <SlogP_VSA3>
0

>  <SlogP_VSA4>
0

>  <SlogP_VSA5>
0

>  <SlogP_VSA6>
2.6429517

>  <SlogP_VSA7>
0

>  <SlogP_VSA8>
0

>  <SlogP_VSA9>
176.25089

>  <SMR>
6.2354398

>  <SMR_VSA0>
0

>  <SMR_VSA1>
50.35659

>  <SMR_VSA2>
0

>  <SMR_VSA3>
10.606889

>  <SMR_VSA4>
39.819687

>  <SMR_VSA5>
0

>  <SMR_VSA6>
0

>  <SMR_VSA7>
172.4527

>  <TPSA>
62.73

>  <VAdjEq>
0.56650949

>  <VAdjMa>
4.9068904

>  <VDistEq>
2.8380919

>  <VDistMa>
7.5105891

>  <vdw_area>
233.89264

>  <vdw_vol>
247.66783

>  <vsa_acc>
17.047728

>  <vsa_acid>
0

>  <vsa_base>
0

>  <vsa_don>
11.365152

>  <vsa_hyd>
160.61485

>  <vsa_other>
44.864918

>  <vsa_pol>
28.41288

>  <Weight>
229.715

>  <weinerPath>
386

>  <weinerPol>
17

>  <zagreb>
70

$$$$
S=P(NCC)(OC)O/C(C)=C([H])/C(OC(C)C)=O
  MOE2011           2D

 18 17  0  0  1  0  0  0  0  0999 V2000
    0.0000    0.0000    0.0000 S   0  0  0  0  0  0  0  0  0  0  0  0
   -0.7970   -1.2710    0.0000 P   0  0  3  0  0  0  0  0  0  0  0  0
   -1.5940   -2.5420    0.0000 N   0  0  0  0  0  0  0  0  0  0  0  0
   -3.0930   -2.4870    0.0000 C   0  0  0  0  0  0  0  0  0  0  0  0
   -3.8900   -3.7570    0.0000 C   0  0  0  0  0  0  0  0  0  0  0  0
   -2.0680   -0.4740    0.0000 O   0  0  0  0  0  0  0  0  0  0  0  0
   -2.0130    1.0250    0.0000 C   0  0  0  0  0  0  0  0  0  0  0  0
    0.4740   -2.0680    0.0000 O   0  0  0  0  0  0  0  0  0  0  0  0
    1.7990   -1.3660    0.0000 C   0  0  0  0  0  0  0  0  0  0  0  0
    1.8540    0.1330    0.0000 C   0  0  0  0  0  0  0  0  0  0  0  0
    3.0700   -2.1630    0.0000 C   0  0  0  0  0  0  0  0  0  0  0  0
    3.0260   -3.3620    0.0000 H   0  0  0  0  0  0  0  0  0  0  0  0
    4.3960   -1.4610    0.0000 C   0  0  0  0  0  0  0  0  0  0  0  0
    5.6660   -2.2580    0.0000 O   0  0  0  0  0  0  0  0  0  0  0  0
    6.9920   -1.5560    0.0000 C   0  0  0  0  0  0  0  0  0  0  0  0
    7.0470   -0.0570    0.0000 C   0  0  0  0  0  0  0  0  0  0  0  0
    8.2630   -2.3530    0.0000 C   0  0  0  0  0  0  0  0  0  0  0  0
    4.4510    0.0380    0.0000 O   0  0  0  0  0  0  0  0  0  0  0  0
  1  2  2  0  0  0  0
  2  3  1  0  0  0  0
  2  6  1  0  0  0  0
  2  8  1  0  0  0  0
  3  4  1  0  0  0  0
  4  5  1  0  0  0  0
  6  7  1  0  0  0  0
  8  9  1  0  0  0  0
  9 10  1  0  0  0  0
  9 11  2  0  0  0  0
 11 12  1  0  0  0  0
 11 13  1  0  0  0  0
 13 14  1  0  0  0  0
 13 18  2  0  0  0  0
 14 15  1  0  0  0  0
 15 16  1  0  0  0  0
 15 17  1  0  0  0  0
M  END
>  <DSSTox_RID>
40575

>  <DSSTox_CID>
12470

>  <apol>
41.773861

>  <a_acc>
3

>  <a_acid>
0

>  <a_aro>
0

>  <a_base>
0

>  <a_count>
37

>  <a_don>
1

>  <a_heavy>
17

>  <a_hyd>
9

>  <a_IC>
65.091934

>  <a_ICM>
1.7592413

>  <a_nB>
0

>  <a_nBr>
0

>  <a_nC>
10

>  <a_nCl>
0

>  <a_nF>
0

>  <a_nH>
20

>  <a_nI>
0

>  <a_nN>
1

>  <a_nO>
4

>  <a_nP>
1

>  <a_nS>
1

>  <balabanJ>
4.1066685

>  <BCUT_PEOE_0>
-2.5136511

>  <BCUT_PEOE_1>
-0.27095571

>  <BCUT_PEOE_2>
0.057848882

>  <BCUT_PEOE_3>
2.5117784

>  <BCUT_SLOGP_0>
-2.5744386

>  <BCUT_SLOGP_1>
-0.062962405

>  <BCUT_SLOGP_2>
0.123

>  <BCUT_SLOGP_3>
2.6555536

>  <BCUT_SMR_0>
-2.2706721

>  <BCUT_SMR_1>
0.055145919

>  <BCUT_SMR_2>
0.36486584

>  <BCUT_SMR_3>
2.845011

>  <bpol>
35.570141

>  <b_1rotN>
7

>  <b_1rotR>
0.4375

>  <b_ar>
0

>  <b_count>
36

>  <b_double>
2

>  <b_heavy>
16

>  <b_rotN>
8

>  <b_rotR>
0.5

>  <b_single>
34

>  <b_triple>
0

>  <chi0>
13.474691

>  <chi0v>
12.561186

>  <chi0v_C>
7.8618073

>  <chi0_C>
8.1462641

>  <chi1>
7.8255162

>  <chi1v>
7.958467

>  <chi1v_C>
2.9391575

>  <chi1_C>
3.2556541

>  <chiral>
1

>  <chiral_u>
1

>  <density>
0.89126956

>  <diameter>
10

>  <FCharge>
0

>  <GCUT_PEOE_0>
-0.76960212

>  <GCUT_PEOE_1>
-0.40001723

>  <GCUT_PEOE_2>
-0.10215112

>  <GCUT_PEOE_3>
2.3414958

>  <GCUT_SLOGP_0>
-1.1035644

>  <GCUT_SLOGP_1>
-0.23842047

>  <GCUT_SLOGP_2>
-0.037

>  <GCUT_SLOGP_3>
2.4228742

>  <GCUT_SMR_0>
-0.52204734

>  <GCUT_SMR_1>
-0.116344

>  <GCUT_SMR_2>
0.083473064

>  <GCUT_SMR_3>
2.6095619

>  <Kier1>
17

>  <Kier2>
8.1632652

>  <Kier3>
7.8400002

>  <KierA1>
18.55817

>  <KierA2>
8.9618988

>  <KierA3>
8.6454935

>  <KierFlex>
9.7833204

>  <lip_acc>
5

>  <lip_don>
1

>  <lip_druglike>
1

>  <lip_violation>
0

>  <logP(o/w)>
2.3499999

>  <logS>
-2.4087

>  <mr>
7.3546748

>  <mutagenic>
0

>  <nmol>
1

>  <opr_brigid>
1

>  <opr_leadlike>
1

>  <opr_nring>
0

>  <opr_nrot>
7

>  <opr_violation>
0

>  <PC+>
0

>  <PC->
0

>  <PEOE_PC+>
1.488345

>  <PEOE_PC->
-1.488345

>  <PEOE_RPC+>
0.19803904

>  <PEOE_RPC->
0.31863537

>  <PEOE_VSA+0>
100.48026

>  <PEOE_VSA+1>
33.673836

>  <PEOE_VSA+2>
37.216545

>  <PEOE_VSA+3>
0

>  <PEOE_VSA+4>
35.658428

>  <PEOE_VSA+5>
28.878563

>  <PEOE_VSA+6>
0

>  <PEOE_VSA-0>
7.7478561

>  <PEOE_VSA-1>
0

>  <PEOE_VSA-2>
0

>  <PEOE_VSA-3>
4.6659718

>  <PEOE_VSA-4>
4.6659718

>  <PEOE_VSA-5>
13.566921

>  <PEOE_VSA-6>
35.512245

>  <PEOE_VSA_FHYD>
0.60842365

>  <PEOE_VSA_FNEG>
0.21902113

>  <PEOE_VSA_FPNEG>
0.1779248

>  <PEOE_VSA_FPOL>
0.39157632

>  <PEOE_VSA_FPOS>
0.78097886

>  <PEOE_VSA_FPPOS>
0.21365154

>  <PEOE_VSA_HYD>
183.78445

>  <PEOE_VSA_NEG>
66.158966

>  <PEOE_VSA_PNEG>
53.745136

>  <PEOE_VSA_POL>
118.28213

>  <PEOE_VSA_POS>
235.90762

>  <PEOE_VSA_PPOS>
64.536995

>  <petitjean>
0.5

>  <petitjeanSC>
1

>  <Q_PC+>
0

>  <Q_PC->
0

>  <Q_RPC+>
0

>  <Q_RPC->
0

>  <Q_VSA_FHYD>
1

>  <Q_VSA_FNEG>
0

>  <Q_VSA_FPNEG>
0

>  <Q_VSA_FPOL>
0

>  <Q_VSA_FPOS>
1

>  <Q_VSA_FPPOS>
0

>  <Q_VSA_HYD>
302.06659

>  <Q_VSA_NEG>
0

>  <Q_VSA_PNEG>
0

>  <Q_VSA_POL>
0

>  <Q_VSA_POS>
302.06659

>  <Q_VSA_PPOS>
0

>  <radius>
5

>  <reactive>
0

>  <rings>
0

>  <RPC+>
0

>  <RPC->
0

>  <rsynth>
1

>  <SlogP>
2.3388

>  <SlogP_VSA0>
14.090521

>  <SlogP_VSA1>
7.7454643

>  <SlogP_VSA2>
97.867989

>  <SlogP_VSA3>
18.439579

>  <SlogP_VSA4>
0

>  <SlogP_VSA5>
40.627296

>  <SlogP_VSA6>
0

>  <SlogP_VSA7>
17.643185

>  <SlogP_VSA8>
0

>  <SlogP_VSA9>
143.67555

>  <SMR>
7.1040702

>  <SMR_VSA0>
48.705364

>  <SMR_VSA1>
0

>  <SMR_VSA2>
14.090521

>  <SMR_VSA3>
11.712077

>  <SMR_VSA4>
0

>  <SMR_VSA5>
17.643185

>  <SMR_VSA6>
26.185041

>  <SMR_VSA7>
221.75339

>  <TPSA>
88.879997

>  <VAdjEq>
0.50210387

>  <VAdjMa>
5

>  <VDistEq>
3.131289

>  <VDistMa>
7.8645706

>  <vdw_area>
302.06659

>  <vdw_vol>
294.14334

>  <vsa_acc>
22.898865

>  <vsa_acid>
0

>  <vsa_base>
0

>  <vsa_don>
7.7478561

>  <vsa_hyd>
206.31726

>  <vsa_other>
64.390808

>  <vsa_pol>
30.646721

>  <Weight>
281.31299

>  <weinerPath>
586

>  <weinerPol>
20

>  <zagreb>
74

$$$$
Clc1ccc(c(Cl)c1)C3(Cn2ncnc2)OCC(CCC)O3
  MOE2011           2D

 22 24  0  0  1  0  0  0  0  0999 V2000
    0.0000    0.0000    0.0000 Cl  0  0  0  0  0  0  0  0  0  0  0  0
    1.2960   -0.7560    0.0000 C   0  0  0  0  0  0  0  0  0  0  0  0
    1.2890   -2.2560    0.0000 C   0  0  0  0  0  0  0  0  0  0  0  0
    2.5840   -3.0120    0.0000 C   0  0  0  0  0  0  0  0  0  0  0  0
    3.8870   -2.2680    0.0000 C   0  0  0  0  0  0  0  0  0  0  0  0
    3.8940   -0.7680    0.0000 C   0  0  0  0  0  0  0  0  0  0  0  0
    5.1960   -0.0240    0.0000 Cl  0  0  0  0  0  0  0  0  0  0  0  0
    2.5980   -0.0120    0.0000 C   0  0  0  0  0  0  0  0  0  0  0  0
    5.1820   -3.0240    0.0000 C   0  0  3  0  0  0  0  0  0  0  0  0
    3.9070   -3.8130    0.0000 C   0  0  0  0  0  0  0  0  0  0  0  0
    3.9520   -5.3120    0.0000 N   0  0  0  0  0  0  0  0  0  0  0  0
    5.1920   -6.1570    0.0000 N   0  0  0  0  0  0  0  0  0  0  0  0
    4.7720   -7.5970    0.0000 C   0  0  0  0  0  0  0  0  0  0  0  0
    3.2720   -7.6420    0.0000 N   0  0  0  0  0  0  0  0  0  0  0  0
    2.7660   -6.2300    0.0000 C   0  0  0  0  0  0  0  0  0  0  0  0
    6.1210   -4.1940    0.0000 O   0  0  0  0  0  0  0  0  0  0  0  0
    7.5240   -3.6630    0.0000 C   0  0  0  0  0  0  0  0  0  0  0  0
    7.4520   -2.1640    0.0000 C   0  0  3  0  0  0  0  0  0  0  0  0
    8.6220   -1.2260    0.0000 C   0  0  0  0  0  0  0  0  0  0  0  0
   10.0200   -1.7700    0.0000 C   0  0  0  0  0  0  0  0  0  0  0  0
   11.1900   -0.8310    0.0000 C   0  0  0  0  0  0  0  0  0  0  0  0
    6.0050   -1.7700    0.0000 O   0  0  0  0  0  0  0  0  0  0  0  0
  1  2  1  0  0  0  0
  2  3  1  0  0  0  0
  2  8  2  0  0  0  0
  3  4  2  0  0  0  0
  4  5  1  0  0  0  0
  5  6  2  0  0  0  0
  5  9  1  0  0  0  0
  6  7  1  0  0  0  0
  6  8  1  0  0  0  0
  9 10  1  0  0  0  0
  9 16  1  0  0  0  0
  9 22  1  0  0  0  0
 10 11  1  0  0  0  0
 11 12  1  0  0  0  0
 11 15  1  0  0  0  0
 12 13  2  0  0  0  0
 13 14  1  0  0  0  0
 14 15  2  0  0  0  0
 16 17  1  0  0  0  0
 17 18  1  0  0  0  0
 18 19  1  0  0  0  0
 18 22  1  0  0  0  0
 19 20  1  0  0  0  0
 20 21  1  0  0  0  0
M  END
>  <DSSTox_RID>
40576

>  <DSSTox_CID>
4280

>  <apol>
46.999481

>  <a_acc>
4

>  <a_acid>
0

>  <a_aro>
11

>  <a_base>
0

>  <a_count>
39

>  <a_don>
0

>  <a_heavy>
22

>  <a_hyd>
14

>  <a_IC>
69.285568

>  <a_ICM>
1.7765532

>  <a_nB>
0

>  <a_nBr>
0

>  <a_nC>
15

>  <a_nCl>
2

>  <a_nF>
0

>  <a_nH>
17

>  <a_nI>
0

>  <a_nN>
3

>  <a_nO>
2

>  <a_nP>
0

>  <a_nS>
0

>  <balabanJ>
1.7377766

>  <BCUT_PEOE_0>
-2.5975258

>  <BCUT_PEOE_1>
-0.55881649

>  <BCUT_PEOE_2>
0.59093523

>  <BCUT_PEOE_3>
2.7136772

>  <BCUT_SLOGP_0>
-2.5822875

>  <BCUT_SLOGP_1>
-0.42540139

>  <BCUT_SLOGP_2>
0.83097059

>  <BCUT_SLOGP_3>
2.7466979

>  <BCUT_SMR_0>
-2.3695543

>  <BCUT_SMR_1>
-0.29050875

>  <BCUT_SMR_2>
0.88316458

>  <BCUT_SMR_3>
2.9311833

>  <bpol>
26.556519

>  <b_1rotN>
5

>  <b_1rotR>
0.20833333

>  <b_ar>
11

>  <b_count>
41

>  <b_double>
0

>  <b_heavy>
24

>  <b_rotN>
5

>  <b_rotR>
0.20833333

>  <b_single>
30

>  <b_triple>
0

>  <chi0>
15.57914

>  <chi0v>
13.718453

>  <chi0v_C>
9.2925291

>  <chi0_C>
10.173362

>  <chi1>
10.626959

>  <chi1v>
7.9807329

>  <chi1v_C>
4.3651905

>  <chi1_C>
5.1321583

>  <chiral>
2

>  <chiral_u>
2

>  <density>
0.90301472

>  <diameter>
10

>  <FCharge>
0

>  <GCUT_PEOE_0>
-0.8176173

>  <GCUT_PEOE_1>
-0.38522178

>  <GCUT_PEOE_2>
0.029771892

>  <GCUT_PEOE_3>
2.667273

>  <GCUT_SLOGP_0>
-0.89598936

>  <GCUT_SLOGP_1>
-0.28400058

>  <GCUT_SLOGP_2>
0.18965992

>  <GCUT_SLOGP_3>
2.7523885

>  <GCUT_SMR_0>
-0.52912879

>  <GCUT_SMR_1>
-0.1667469

>  <GCUT_SMR_2>
0.24858178

>  <GCUT_SMR_3>
2.9057686

>  <Kier1>
16.84375

>  <Kier2>
7.2664361

>  <Kier3>
3.7530863

>  <KierA1>
15.376075

>  <KierA2>
6.6030936

>  <KierA3>
3.39922

>  <KierFlex>
4.6149845

>  <lip_acc>
5

>  <lip_don>
0

>  <lip_druglike>
1

>  <lip_violation>
0

>  <logP(o/w)>
3.582

>  <logS>
-4.64815

>  <mr>
8.7469254

>  <mutagenic>
0

>  <nmol>
1

>  <opr_brigid>
16

>  <opr_leadlike>
1

>  <opr_nring>
3

>  <opr_nrot>
6

>  <opr_violation>
0

>  <PC+>
0

>  <PC->
0

>  <PEOE_PC+>
1.3910345

>  <PEOE_PC->
-1.3910345

>  <PEOE_RPC+>
0.16631006

>  <PEOE_RPC->
0.23673253

>  <PEOE_VSA+0>
110.65946

>  <PEOE_VSA+1>
9.0394926

>  <PEOE_VSA+2>
8.458519

>  <PEOE_VSA+3>
67.148499

>  <PEOE_VSA+4>
25.899061

>  <PEOE_VSA+5>
0

>  <PEOE_VSA+6>
0

>  <PEOE_VSA-0>
0

>  <PEOE_VSA-1>
59.163895

>  <PEOE_VSA-2>
9.4210396

>  <PEOE_VSA-3>
0

>  <PEOE_VSA-4>
5.6825762

>  <PEOE_VSA-5>
0

>  <PEOE_VSA-6>
5.0075121

>  <PEOE_VSA_FHYD>
0.87823105

>  <PEOE_VSA_FNEG>
0.26382789

>  <PEOE_VSA_FPNEG>
0.035576697

>  <PEOE_VSA_FPOL>
0.12176898

>  <PEOE_VSA_FPOS>
0.73617208

>  <PEOE_VSA_FPPOS>
0.08619228

>  <PEOE_VSA_HYD>
263.8909

>  <PEOE_VSA_NEG>
79.275024

>  <PEOE_VSA_PNEG>
10.690088

>  <PEOE_VSA_POL>
36.589149

>  <PEOE_VSA_POS>
221.20503

>  <PEOE_VSA_PPOS>
25.899061

>  <petitjean>
0.5

>  <petitjeanSC>
1

>  <Q_PC+>
0

>  <Q_PC->
0

>  <Q_RPC+>
0

>  <Q_RPC->
0

>  <Q_VSA_FHYD>
1

>  <Q_VSA_FNEG>
0

>  <Q_VSA_FPNEG>
0

>  <Q_VSA_FPOL>
0

>  <Q_VSA_FPOS>
1

>  <Q_VSA_FPPOS>
0

>  <Q_VSA_HYD>
300.48004

>  <Q_VSA_NEG>
0

>  <Q_VSA_PNEG>
0

>  <Q_VSA_POL>
0

>  <Q_VSA_POS>
300.48004

>  <Q_VSA_PPOS>
0

>  <radius>
5

>  <reactive>
0

>  <rings>
3

>  <RPC+>
0

>  <RPC->
0

>  <rsynth>
1

>  <SlogP>
4.2312999

>  <SlogP_VSA0>
0

>  <SlogP_VSA1>
35.225109

>  <SlogP_VSA2>
28.468426

>  <SlogP_VSA3>
20.926258

>  <SlogP_VSA4>
3.185575

>  <SlogP_VSA5>
0

>  <SlogP_VSA6>
7.0012131

>  <SlogP_VSA7>
86.50061

>  <SlogP_VSA8>
37.736813

>  <SlogP_VSA9>
130.06288

>  <SMR>
8.4216995

>  <SMR_VSA0>
21.999775

>  <SMR_VSA1>
35.225109

>  <SMR_VSA2>
0

>  <SMR_VSA3>
16.655437

>  <SMR_VSA4>
0

>  <SMR_VSA5>
142.677

>  <SMR_VSA6>
20.926258

>  <SMR_VSA7>
111.62331

>  <TPSA>
49.169998

>  <VAdjEq>
0.46637034

>  <VAdjMa>
5.5849624

>  <VDistEq>
3.0706184

>  <VDistMa>
8.6568794

>  <vdw_area>
300.48004

>  <vdw_vol>
360.00522

>  <vsa_acc>
20.111128

>  <vsa_acid>
0

>  <vsa_base>
0

>  <vsa_don>
0

>  <vsa_hyd>
229.67935

>  <vsa_other>
50.689579

>  <vsa_pol>
20.111128

>  <Weight>
342.22598

>  <weinerPath>
1000

>  <weinerPol>
32

>  <zagreb>
116

$$$$
CC(C)OC1=CC=CC=C1OC(=O)NC
  MOE2011           2D

 15 15  0  0  0  0  0  0  0  0999 V2000
    0.0000    0.0000    0.0000 C   0  0  0  0  0  0  0  0  0  0  0  0
    0.7400    1.3050    0.0000 C   0  0  0  0  0  0  0  0  0  0  0  0
   -0.0200    2.5980    0.0000 C   0  0  0  0  0  0  0  0  0  0  0  0
    2.2400    1.3160    0.0000 O   0  0  0  0  0  0  0  0  0  0  0  0
    2.9800    2.6210    0.0000 C   0  0  0  0  0  0  0  0  0  0  0  0
    2.2200    3.9140    0.0000 C   0  0  0  0  0  0  0  0  0  0  0  0
    2.9600    5.2190    0.0000 C   0  0  0  0  0  0  0  0  0  0  0  0
    4.4600    5.2300    0.0000 C   0  0  0  0  0  0  0  0  0  0  0  0
    5.2200    3.9370    0.0000 C   0  0  0  0  0  0  0  0  0  0  0  0
    4.4800    2.6320    0.0000 C   0  0  0  0  0  0  0  0  0  0  0  0
    5.2400    1.3390    0.0000 O   0  0  0  0  0  0  0  0  0  0  0  0
    6.7400    1.3510    0.0000 C   0  0  0  0  0  0  0  0  0  0  0  0
    7.4800    2.6550    0.0000 O   0  0  0  0  0  0  0  0  0  0  0  0
    7.5000    0.0570    0.0000 N   0  0  0  0  0  0  0  0  0  0  0  0
    9.0000    0.0690    0.0000 C   0  0  0  0  0  0  0  0  0  0  0  0
  1  2  1  0  0  0  0
  2  3  1  0  0  0  0
  2  4  1  0  0  0  0
  4  5  1  0  0  0  0
  5  6  1  0  0  0  0
  5 10  2  0  0  0  0
  6  7  2  0  0  0  0
  7  8  1  0  0  0  0
  8  9  2  0  0  0  0
  9 10  1  0  0  0  0
 10 11  1  0  0  0  0
 11 12  1  0  0  0  0
 12 13  2  0  0  0  0
 12 14  1  0  0  0  0
 14 15  1  0  0  0  0
M  END
>  <DSSTox_RID>
40577

>  <DSSTox_CID>
1948

>  <apol>
32.867893

>  <a_acc>
2

>  <a_acid>
0

>  <a_aro>
6

>  <a_base>
0

>  <a_count>
30

>  <a_don>
1

>  <a_heavy>
15

>  <a_hyd>
10

>  <a_IC>
45.794724

>  <a_ICM>
1.5264908

>  <a_nB>
0

>  <a_nBr>
0

>  <a_nC>
11

>  <a_nCl>
0

>  <a_nF>
0

>  <a_nH>
15

>  <a_nI>
0

>  <a_nN>
1

>  <a_nO>
3

>  <a_nP>
0

>  <a_nS>
0

>  <balabanJ>
2.4370239

>  <BCUT_PEOE_0>
-2.5081389

>  <BCUT_PEOE_1>
-0.51284862

>  <BCUT_PEOE_2>
0.57266426

>  <BCUT_PEOE_3>
2.4802942

>  <BCUT_SLOGP_0>
-2.5497563

>  <BCUT_SLOGP_1>
-0.41405606

>  <BCUT_SLOGP_2>
0.68979305

>  <BCUT_SLOGP_3>
2.5261397

>  <BCUT_SMR_0>
-2.2719526

>  <BCUT_SMR_1>
-0.3639968

>  <BCUT_SMR_2>
0.70700598

>  <BCUT_SMR_3>
2.7147377

>  <bpol>
21.848104

>  <b_1rotN>
3

>  <b_1rotR>
0.2

>  <b_ar>
6

>  <b_count>
30

>  <b_double>
1

>  <b_heavy>
15

>  <b_rotN>
5

>  <b_rotR>
0.33333334

>  <b_single>
23

>  <b_triple>
0

>  <chi0>
11.259149

>  <chi0v>
9.111496

>  <chi0v_C>
7.3867512

>  <chi0_C>
8.1378279

>  <chi1>
7.130229

>  <chi1v>
4.7842498

>  <chi1v_C>
2.9820509

>  <chi1_C>
3.8045304

>  <chiral>
0

>  <chiral_u>
0

>  <density>
0.79361582

>  <diameter>
8

>  <FCharge>
0

>  <GCUT_PEOE_0>
-0.82074004

>  <GCUT_PEOE_1>
-0.38298869

>  <GCUT_PEOE_2>
0.044154067

>  <GCUT_PEOE_3>
2.2766018

>  <GCUT_SLOGP_0>
-1.1624471

>  <GCUT_SLOGP_1>
-0.29328388

>  <GCUT_SLOGP_2>
0.151875

>  <GCUT_SLOGP_3>
2.4004841

>  <GCUT_SMR_0>
-0.52186286

>  <GCUT_SMR_1>
-0.19159544

>  <GCUT_SMR_2>
0.15705906

>  <GCUT_SMR_3>
2.5356207

>  <Kier1>
13.066667

>  <Kier2>
6.5540166

>  <Kier3>
4.5714288

>  <KierA1>
9.9343748

>  <KierA2>
4.8761687

>  <KierA3>
3.3410926

>  <KierFlex>
3.2294459

>  <lip_acc>
4

>  <lip_don>
1

>  <lip_druglike>
1

>  <lip_violation>
0

>  <logP(o/w)>
1.99174

>  <logS>
-2.27706

>  <mr>
5.8244343

>  <mutagenic>
0

>  <nmol>
1

>  <opr_brigid>
6

>  <opr_leadlike>
1

>  <opr_nring>
1

>  <opr_nrot>
3

>  <opr_violation>
0

>  <PC+>
0

>  <PC->
0

>  <PEOE_PC+>
1.0326804

>  <PEOE_PC->
-1.0326804

>  <PEOE_RPC+>
0.37569317

>  <PEOE_RPC->
0.32042104

>  <PEOE_VSA+0>
122.05088

>  <PEOE_VSA+1>
0

>  <PEOE_VSA+2>
25.375559

>  <PEOE_VSA+3>
33.89946

>  <PEOE_VSA+4>
0

>  <PEOE_VSA+5>
0

>  <PEOE_VSA+6>
19.199511

>  <PEOE_VSA-0>
0

>  <PEOE_VSA-1>
0

>  <PEOE_VSA-2>
0

>  <PEOE_VSA-3>
0

>  <PEOE_VSA-4>
19.249496

>  <PEOE_VSA-5>
2.503756

>  <PEOE_VSA-6>
2.503756

>  <PEOE_VSA_FHYD>
0.80667293

>  <PEOE_VSA_FNEG>
0.10791329

>  <PEOE_VSA_FPNEG>
0.10791329

>  <PEOE_VSA_FPOL>
0.19332704

>  <PEOE_VSA_FPOS>
0.89208668

>  <PEOE_VSA_FPPOS>
0.085413754

>  <PEOE_VSA_HYD>
181.3259

>  <PEOE_VSA_NEG>
24.25701

>  <PEOE_VSA_PNEG>
24.25701

>  <PEOE_VSA_POL>
43.45652

>  <PEOE_VSA_POS>
200.52541

>  <PEOE_VSA_PPOS>
19.199511

>  <petitjean>
0.5

>  <petitjeanSC>
1

>  <Q_PC+>
0

>  <Q_PC->
0

>  <Q_RPC+>
0

>  <Q_RPC->
0

>  <Q_VSA_FHYD>
1

>  <Q_VSA_FNEG>
0

>  <Q_VSA_FPNEG>
0

>  <Q_VSA_FPOL>
0

>  <Q_VSA_FPOS>
1

>  <Q_VSA_FPPOS>
0

>  <Q_VSA_HYD>
224.78241

>  <Q_VSA_NEG>
0

>  <Q_VSA_PNEG>
0

>  <Q_VSA_POL>
0

>  <Q_VSA_POS>
224.78241

>  <Q_VSA_PPOS>
0

>  <radius>
4

>  <reactive>
0

>  <rings>
1

>  <RPC+>
0

>  <RPC->
0

>  <rsynth>
1

>  <SlogP>
2.1919999

>  <SlogP_VSA0>
40.010525

>  <SlogP_VSA1>
7.3166366

>  <SlogP_VSA2>
6.4686494

>  <SlogP_VSA3>
0

>  <SlogP_VSA4>
0

>  <SlogP_VSA5>
32.897186

>  <SlogP_VSA6>
0

>  <SlogP_VSA7>
70.572739

>  <SlogP_VSA8>
0

>  <SlogP_VSA9>
101.0011

>  <SMR>
5.7289701

>  <SMR_VSA0>
23.862217

>  <SMR_VSA1>
21.999775

>  <SMR_VSA2>
18.01075

>  <SMR_VSA3>
16.955505

>  <SMR_VSA4>
0

>  <SMR_VSA5>
70.572739

>  <SMR_VSA6>
7.3166366

>  <SMR_VSA7>
99.549217

>  <TPSA>
47.560001

>  <VAdjEq>
0.56650949

>  <VAdjMa>
4.9068904

>  <VDistEq>
2.8198657

>  <VDistMa>
7.5186386

>  <vdw_area>
224.78241

>  <vdw_vol>
244.60828

>  <vsa_acc>
16.070677

>  <vsa_acid>
0

>  <vsa_base>
0

>  <vsa_don>
5.6825762

>  <vsa_hyd>
181.3259

>  <vsa_other>
21.703266

>  <vsa_pol>
21.753254

>  <Weight>
209.245

>  <weinerPath>
384

>  <weinerPol>
18

>  <zagreb>
68

$$$$
CC(NC(=O)C1=CC(=CC(=C1)Cl)Cl)(C#C)C
  MOE2011           2D

 16 16  0  0  0  0  0  0  0  0999 V2000
    0.0000    0.0000    0.0000 C   0  0  0  0  0  0  0  0  0  0  0  0
   -0.7530    1.2970    0.0000 C   0  0  0  0  0  0  0  0  0  0  0  0
   -2.0500    0.5440    0.0000 N   0  0  0  0  0  0  0  0  0  0  0  0
   -3.3510    1.2910    0.0000 C   0  0  0  0  0  0  0  0  0  0  0  0
   -3.3540    2.7910    0.0000 O   0  0  0  0  0  0  0  0  0  0  0  0
   -4.6480    0.5390    0.0000 C   0  0  0  0  0  0  0  0  0  0  0  0
   -4.6450   -0.9610    0.0000 C   0  0  0  0  0  0  0  0  0  0  0  0
   -5.9420   -1.7140    0.0000 C   0  0  0  0  0  0  0  0  0  0  0  0
   -7.2430   -0.9670    0.0000 C   0  0  0  0  0  0  0  0  0  0  0  0
   -7.2460    0.5330    0.0000 C   0  0  0  0  0  0  0  0  0  0  0  0
   -5.9490    1.2860    0.0000 C   0  0  0  0  0  0  0  0  0  0  0  0
   -8.5470    1.2800    0.0000 Cl  0  0  0  0  0  0  0  0  0  0  0  0
   -5.9390   -3.2140    0.0000 Cl  0  0  0  0  0  0  0  0  0  0  0  0
    0.5440    2.0500    0.0000 C   0  0  0  0  0  0  0  0  0  0  0  0
    1.8420    2.8030    0.0000 C   0  0  0  0  0  0  0  0  0  0  0  0
   -1.5060    2.5950    0.0000 C   0  0  0  0  0  0  0  0  0  0  0  0
  1  2  1  0  0  0  0
  2  3  1  0  0  0  0
  2 14  1  0  0  0  0
  2 16  1  0  0  0  0
  3  4  1  0  0  0  0
  4  5  2  0  0  0  0
  4  6  1  0  0  0  0
  6  7  1  0  0  0  0
  6 11  2  0  0  0  0
  7  8  2  0  0  0  0
  8  9  1  0  0  0  0
  8 13  1  0  0  0  0
  9 10  2  0  0  0  0
 10 11  1  0  0  0  0
 10 12  1  0  0  0  0
 14 15  3  0  0  0  0
M  END
>  <DSSTox_RID>
40320

>  <DSSTox_CID>
420

>  <apol>
34.716724

>  <a_acc>
1

>  <a_acid>
0

>  <a_aro>
6

>  <a_base>
0

>  <a_count>
27

>  <a_don>
1

>  <a_heavy>
16

>  <a_hyd>
13

>  <a_IC>
45.308666

>  <a_ICM>
1.6780987

>  <a_nB>
0

>  <a_nBr>
0

>  <a_nC>
12

>  <a_nCl>
2

>  <a_nF>
0

>  <a_nH>
11

>  <a_nI>
0

>  <a_nN>
1

>  <a_nO>
1

>  <a_nP>
0

>  <a_nS>
0

>  <balabanJ>
2.5149922

>  <BCUT_PEOE_0>
-2.5504723

>  <BCUT_PEOE_1>
-0.59401488

>  <BCUT_PEOE_2>
0.58352256

>  <BCUT_PEOE_3>
2.5306206

>  <BCUT_SLOGP_0>
-2.6810081

>  <BCUT_SLOGP_1>
-0.36741531

>  <BCUT_SLOGP_2>
0.79650378

>  <BCUT_SLOGP_3>
2.5004969

>  <BCUT_SMR_0>
-2.2926462

>  <BCUT_SMR_1>
-0.27638164

>  <BCUT_SMR_2>
0.92541337

>  <BCUT_SMR_3>
2.7875156

>  <bpol>
14.483277

>  <b_1rotN>
2

>  <b_1rotR>
0.125

>  <b_ar>
6

>  <b_count>
27

>  <b_double>
1

>  <b_heavy>
16

>  <b_rotN>
4

>  <b_rotR>
0.25

>  <b_single>
19

>  <b_triple>
1

>  <chi0>
12.344935

>  <chi0v>
10.485436

>  <chi0v_C>
7.309401

>  <chi0_C>
8.6378279

>  <chi1>
7.3373356

>  <chi1v>
5.3587437

>  <chi1v_C>
3.520726

>  <chi1_C>
4.8434834

>  <chiral>
0

>  <chiral_u>
0

>  <density>
0.87632596

>  <diameter>
8

>  <FCharge>
0

>  <GCUT_PEOE_0>
-0.81580418

>  <GCUT_PEOE_1>
-0.3855547

>  <GCUT_PEOE_2>
0.02017366

>  <GCUT_PEOE_3>
2.2942872

>  <GCUT_SLOGP_0>
-1.1610734

>  <GCUT_SLOGP_1>
-0.19173613

>  <GCUT_SLOGP_2>
0.25724185

>  <GCUT_SLOGP_3>
2.3525002

>  <GCUT_SMR_0>
-0.51153773

>  <GCUT_SMR_1>
-0.1065077

>  <GCUT_SMR_2>
0.33108744

>  <GCUT_SMR_3>
2.5767684

>  <Kier1>
14.0625

>  <Kier2>
5.5576558

>  <Kier3>
4.4236112

>  <KierA1>
12.026299

>  <KierA2>
4.6997705

>  <KierA3>
3.7092857

>  <KierFlex>
3.5325532

>  <lip_acc>
2

>  <lip_don>
1

>  <lip_druglike>
1

>  <lip_violation>
0

>  <logP(o/w)>
3.675

>  <logS>
-4.57266

>  <mr>
6.7092505

>  <mutagenic>
0

>  <nmol>
1

>  <opr_brigid>
6

>  <opr_leadlike>
1

>  <opr_nring>
1

>  <opr_nrot>
3

>  <opr_violation>
0

>  <PC+>
0

>  <PC->
0

>  <PEOE_PC+>
0.7246812

>  <PEOE_PC->
-0.7246812

>  <PEOE_RPC+>
0.38042301

>  <PEOE_RPC->
0.36641902

>  <PEOE_VSA+0>
106.24239

>  <PEOE_VSA+1>
11.248033

>  <PEOE_VSA+2>
0

>  <PEOE_VSA+3>
0

>  <PEOE_VSA+4>
0

>  <PEOE_VSA+5>
12.949531

>  <PEOE_VSA+6>
0

>  <PEOE_VSA-0>
29.408449

>  <PEOE_VSA-1>
74.972389

>  <PEOE_VSA-2>
0

>  <PEOE_VSA-3>
0

>  <PEOE_VSA-4>
5.6825762

>  <PEOE_VSA-5>
13.566921

>  <PEOE_VSA-6>
0

>  <PEOE_VSA_FHYD>
0.87326723

>  <PEOE_VSA_FNEG>
0.48659897

>  <PEOE_VSA_FPNEG>
0.075764455

>  <PEOE_VSA_FPOL>
0.12673277

>  <PEOE_VSA_FPOS>
0.51340103

>  <PEOE_VSA_FPPOS>
0.050968304

>  <PEOE_VSA_HYD>
221.87125

>  <PEOE_VSA_NEG>
123.63033

>  <PEOE_VSA_PNEG>
19.249496

>  <PEOE_VSA_POL>
32.199028

>  <PEOE_VSA_POS>
130.43994

>  <PEOE_VSA_PPOS>
12.949531

>  <petitjean>
0.5

>  <petitjeanSC>
1

>  <Q_PC+>
0

>  <Q_PC->
0

>  <Q_RPC+>
0

>  <Q_RPC->
0

>  <Q_VSA_FHYD>
1

>  <Q_VSA_FNEG>
0

>  <Q_VSA_FPNEG>
0

>  <Q_VSA_FPOL>
0

>  <Q_VSA_FPOS>
1

>  <Q_VSA_FPPOS>
0

>  <Q_VSA_HYD>
254.07028

>  <Q_VSA_NEG>
0

>  <Q_VSA_PNEG>
0

>  <Q_VSA_POL>
0

>  <Q_VSA_POS>
254.07028

>  <Q_VSA_PPOS>
0

>  <radius>
4

>  <reactive>
0

>  <rings>
1

>  <RPC+>
0

>  <RPC->
0

>  <rsynth>
1

>  <SlogP>
3.1350081

>  <SlogP_VSA0>
18.01075

>  <SlogP_VSA1>
5.2587838

>  <SlogP_VSA2>
0

>  <SlogP_VSA3>
17.030573

>  <SlogP_VSA4>
58.535973

>  <SlogP_VSA5>
0

>  <SlogP_VSA6>
7.0012131

>  <SlogP_VSA7>
52.929554

>  <SlogP_VSA8>
0

>  <SlogP_VSA9>
144.94931

>  <SMR>
6.68402

>  <SMR_VSA0>
23.862217

>  <SMR_VSA1>
0

>  <SMR_VSA2>
18.01075

>  <SMR_VSA3>
27.217361

>  <SMR_VSA4>
0

>  <SMR_VSA5>
52.929554

>  <SMR_VSA6>
36.746967

>  <SMR_VSA7>
144.94931

>  <TPSA>
29.1

>  <VAdjEq>
0.54356444

>  <VAdjMa>
5

>  <VDistEq>
2.8581107

>  <VDistMa>
7.7038264

>  <vdw_area>
254.07028

>  <vdw_vol>
279.62653

>  <vsa_acc>
13.566921

>  <vsa_acid>
0

>  <vsa_base>
0

>  <vsa_don>
5.6825762

>  <vsa_hyd>
221.87125

>  <vsa_other>
12.949531

>  <vsa_pol>
19.249496

>  <Weight>
256.13199

>  <weinerPath>
448

>  <weinerPol>
21

>  <zagreb>
78

$$$$
ClC3=CC=C(C=C3)N(C=C2)N=C2OCC1=C(C=CC=C1)N(C(OC)=O)OC
  MOE2011           2D

 27 29  0  0  0  0  0  0  0  0999 V2000
    0.0000    0.0000    0.0000 Cl  0  0  0  0  0  0  0  0  0  0  0  0
   -1.5000   -0.0110    0.0000 C   0  0  0  0  0  0  0  0  0  0  0  0
   -2.2590    1.2830    0.0000 C   0  0  0  0  0  0  0  0  0  0  0  0
   -3.7590    1.2720    0.0000 C   0  0  0  0  0  0  0  0  0  0  0  0
   -4.5000   -0.0330    0.0000 C   0  0  0  0  0  0  0  0  0  0  0  0
   -3.7400   -1.3260    0.0000 C   0  0  0  0  0  0  0  0  0  0  0  0
   -2.2400   -1.3150    0.0000 C   0  0  0  0  0  0  0  0  0  0  0  0
   -6.0000   -0.0440    0.0000 N   0  0  0  0  0  0  0  0  0  0  0  0
   -6.8900    1.1630    0.0000 C   0  0  0  0  0  0  0  0  0  0  0  0
   -8.3140    0.6890    0.0000 C   0  0  0  0  0  0  0  0  0  0  0  0
   -6.8730   -1.2640    0.0000 N   0  0  0  0  0  0  0  0  0  0  0  0
   -8.3030   -0.8110    0.0000 C   0  0  0  0  0  0  0  0  0  0  0  0
   -9.5100   -1.7010    0.0000 O   0  0  0  0  0  0  0  0  0  0  0  0
  -10.8840   -1.1010    0.0000 C   0  0  0  0  0  0  0  0  0  0  0  0
  -12.0910   -1.9920    0.0000 C   0  0  0  0  0  0  0  0  0  0  0  0
  -13.4660   -1.3920    0.0000 C   0  0  0  0  0  0  0  0  0  0  0  0
  -14.6730   -2.2820    0.0000 C   0  0  0  0  0  0  0  0  0  0  0  0
  -14.5050   -3.7730    0.0000 C   0  0  0  0  0  0  0  0  0  0  0  0
  -13.1310   -4.3730    0.0000 C   0  0  0  0  0  0  0  0  0  0  0  0
  -11.9240   -3.4820    0.0000 C   0  0  0  0  0  0  0  0  0  0  0  0
  -13.6340    0.0990    0.0000 N   0  0  0  0  0  0  0  0  0  0  0  0
  -15.0090    0.6990    0.0000 C   0  0  0  0  0  0  0  0  0  0  0  0
  -15.1760    2.1890    0.0000 O   0  0  0  0  0  0  0  0  0  0  0  0
  -16.5510    2.7890    0.0000 C   0  0  0  0  0  0  0  0  0  0  0  0
  -16.2160   -0.1920    0.0000 O   0  0  0  0  0  0  0  0  0  0  0  0
  -12.4270    0.9890    0.0000 O   0  0  0  0  0  0  0  0  0  0  0  0
  -12.5950    2.4800    0.0000 C   0  0  0  0  0  0  0  0  0  0  0  0
  1  2  1  0  0  0  0
  2  3  1  0  0  0  0
  2  7  2  0  0  0  0
  3  4  2  0  0  0  0
  4  5  1  0  0  0  0
  5  6  2  0  0  0  0
  5  8  1  0  0  0  0
  6  7  1  0  0  0  0
  8  9  1  0  0  0  0
  8 11  1  0  0  0  0
  9 10  2  0  0  0  0
 10 12  1  0  0  0  0
 11 12  2  0  0  0  0
 12 13  1  0  0  0  0
 13 14  1  0  0  0  0
 14 15  1  0  0  0  0
 15 16  1  0  0  0  0
 15 20  2  0  0  0  0
 16 17  2  0  0  0  0
 16 21  1  0  0  0  0
 17 18  1  0  0  0  0
 18 19  2  0  0  0  0
 19 20  1  0  0  0  0
 21 22  1  0  0  0  0
 21 26  1  0  0  0  0
 22 23  1  0  0  0  0
 22 25  2  0  0  0  0
 23 24  1  0  0  0  0
 26 27  1  0  0  0  0
M  END
>  <DSSTox_RID>
40580

>  <DSSTox_CID>
12638

>  <apol>
54.130276

>  <a_acc>
3

>  <a_acid>
0

>  <a_aro>
17

>  <a_base>
0

>  <a_count>
45

>  <a_don>
0

>  <a_heavy>
27

>  <a_hyd>
18

>  <a_IC>
78.60923

>  <a_ICM>
1.7468717

>  <a_nB>
0

>  <a_nBr>
0

>  <a_nC>
19

>  <a_nCl>
1

>  <a_nF>
0

>  <a_nH>
18

>  <a_nI>
0

>  <a_nN>
3

>  <a_nO>
4

>  <a_nP>
0

>  <a_nS>
0

>  <balabanJ>
1.4686897

>  <BCUT_PEOE_0>
-2.3773127

>  <BCUT_PEOE_1>
-0.59399414

>  <BCUT_PEOE_2>
0.61401665

>  <BCUT_PEOE_3>
2.3636308

>  <BCUT_SLOGP_0>
-2.4317977

>  <BCUT_SLOGP_1>
-0.51998568

>  <BCUT_SLOGP_2>
0.79262316

>  <BCUT_SLOGP_3>
2.4722433

>  <BCUT_SMR_0>
-2.0887785

>  <BCUT_SMR_1>
-0.4109014

>  <BCUT_SMR_2>
0.86159122

>  <BCUT_SMR_3>
2.6522543

>  <bpol>
29.443726

>  <b_1rotN>
7

>  <b_1rotR>
0.24137931

>  <b_ar>
17

>  <b_count>
47

>  <b_double>
1

>  <b_heavy>
29

>  <b_rotN>
8

>  <b_rotR>
0.27586207

>  <b_single>
29

>  <b_triple>
0

>  <chi0>
19.225405

>  <chi0v>
15.589137

>  <chi0v_C>
11.48061

>  <chi0_C>
13.242276

>  <chi1>
13.117723

>  <chi1v>
8.4439707

>  <chi1v_C>
4.6242795

>  <chi1_C>
6.5993195

>  <chiral>
0

>  <chiral_u>
0

>  <density>
0.85107052

>  <diameter>
15

>  <FCharge>
0

>  <GCUT_PEOE_0>
-0.81870556

>  <GCUT_PEOE_1>
-0.38743067

>  <GCUT_PEOE_2>
0.040562518

>  <GCUT_PEOE_3>
2.4632618

>  <GCUT_SLOGP_0>
-0.9679634

>  <GCUT_SLOGP_1>
-0.27836373

>  <GCUT_SLOGP_2>
0.16444235

>  <GCUT_SLOGP_3>
2.5789299

>  <GCUT_SMR_0>
-0.48970878

>  <GCUT_SMR_1>
-0.20053114

>  <GCUT_SMR_2>
0.2013118

>  <GCUT_SMR_3>
2.7481329

>  <Kier1>
21.702734

>  <Kier2>
10.683761

>  <Kier3>
5.7577853

>  <KierA1>
16.488241

>  <KierA2>
8.0248661

>  <KierA3>
4.2883196

>  <KierFlex>
4.9005899

>  <lip_acc>
7

>  <lip_don>
0

>  <lip_druglike>
1

>  <lip_violation>
0

>  <logP(o/w)>
3.9437399

>  <logS>
-4.8301001

>  <mr>
10.352789

>  <mutagenic>
0

>  <nmol>
1

>  <opr_brigid>
17

>  <opr_leadlike>
1

>  <opr_nring>
3

>  <opr_nrot>
6

>  <opr_violation>
1

>  <PC+>
0

>  <PC->
0

>  <PEOE_PC+>
1.6806376

>  <PEOE_PC->
-1.6806376

>  <PEOE_RPC+>
0.23358898

>  <PEOE_RPC->
0.18337163

>  <PEOE_VSA+0>
97.059509

>  <PEOE_VSA+1>
33.727345

>  <PEOE_VSA+2>
20.299505

>  <PEOE_VSA+3>
70.666435

>  <PEOE_VSA+4>
35.658428

>  <PEOE_VSA+5>
0

>  <PEOE_VSA+6>
19.199511

>  <PEOE_VSA-0>
31.616989

>  <PEOE_VSA-1>
29.581947

>  <PEOE_VSA-2>
9.4210396

>  <PEOE_VSA-3>
0

>  <PEOE_VSA-4>
19.46928

>  <PEOE_VSA-5>
2.503756

>  <PEOE_VSA-6>
2.503756

>  <PEOE_VSA_FHYD>
0.78656679

>  <PEOE_VSA_FNEG>
0.25583765

>  <PEOE_VSA_FPNEG>
0.06584961

>  <PEOE_VSA_FPOL>
0.21343324

>  <PEOE_VSA_FPOS>
0.74416238

>  <PEOE_VSA_FPPOS>
0.14758362

>  <PEOE_VSA_HYD>
292.37277

>  <PEOE_VSA_NEG>
95.096771

>  <PEOE_VSA_PNEG>
24.476793

>  <PEOE_VSA_POL>
79.334732

>  <PEOE_VSA_POS>
276.61072

>  <PEOE_VSA_PPOS>
54.857941

>  <petitjean>
0.46666667

>  <petitjeanSC>
0.875

>  <Q_PC+>
0

>  <Q_PC->
0

>  <Q_RPC+>
0

>  <Q_RPC->
0

>  <Q_VSA_FHYD>
1

>  <Q_VSA_FNEG>
0

>  <Q_VSA_FPNEG>
0

>  <Q_VSA_FPOL>
0

>  <Q_VSA_FPOS>
1

>  <Q_VSA_FPPOS>
0

>  <Q_VSA_HYD>
371.70749

>  <Q_VSA_NEG>
0

>  <Q_VSA_PNEG>
0

>  <Q_VSA_POL>
0

>  <Q_VSA_POS>
371.70749

>  <Q_VSA_PPOS>
0

>  <radius>
8

>  <reactive>
0

>  <rings>
3

>  <RPC+>
0

>  <RPC->
0

>  <rsynth>
1

>  <SlogP>
4.5053

>  <SlogP_VSA0>
16.738535

>  <SlogP_VSA1>
25.756214

>  <SlogP_VSA2>
22.218651

>  <SlogP_VSA3>
0

>  <SlogP_VSA4>
3.185575

>  <SlogP_VSA5>
70.767738

>  <SlogP_VSA6>
3.5006065

>  <SlogP_VSA7>
178.75977

>  <SlogP_VSA8>
0

>  <SlogP_VSA9>
91.508469

>  <SMR>
10.1446

>  <SMR_VSA0>
46.080868

>  <SMR_VSA1>
29.439466

>  <SMR_VSA2>
5.7386465

>  <SMR_VSA3>
11.500782

>  <SMR_VSA4>
5.513495

>  <SMR_VSA5>
196.92928

>  <SMR_VSA6>
7.3166366

>  <SMR_VSA7>
109.91638

>  <TPSA>
65.82

>  <VAdjEq>
0.40063059

>  <VAdjMa>
5.8579812

>  <VDistEq>
3.663018

>  <VDistMa>
9.1965122

>  <vdw_area>
371.70749

>  <vdw_vol>
434.36942

>  <vsa_acc>
28.89032

>  <vsa_acid>
0

>  <vsa_base>
0

>  <vsa_don>
0

>  <vsa_hyd>
305.66061

>  <vsa_other>
37.156555

>  <vsa_pol>
28.89032

>  <Weight>
387.823

>  <weinerPath>
2067

>  <weinerPol>
40

>  <zagreb>
136

$$$$
O=C(COC1=C(Cl)C=C(F)C(C2=NN(C)C(OC(F)F)=C2Cl)=C1)OCC
  MOE2011           2D

 26 27  0  0  0  0  0  0  0  0999 V2000
    0.0000    0.0000    0.0000 O   0  0  0  0  0  0  0  0  0  0  0  0
    0.7420    1.3040    0.0000 C   0  0  0  0  0  0  0  0  0  0  0  0
   -0.0160    2.5980    0.0000 C   0  0  0  0  0  0  0  0  0  0  0  0
   -1.5160    2.5890    0.0000 O   0  0  0  0  0  0  0  0  0  0  0  0
   -2.2740    3.8830    0.0000 C   0  0  0  0  0  0  0  0  0  0  0  0
   -1.5310    5.1870    0.0000 C   0  0  0  0  0  0  0  0  0  0  0  0
   -0.0310    5.1960    0.0000 Cl  0  0  0  0  0  0  0  0  0  0  0  0
   -2.2890    6.4810    0.0000 C   0  0  0  0  0  0  0  0  0  0  0  0
   -3.7890    6.4720    0.0000 C   0  0  0  0  0  0  0  0  0  0  0  0
   -4.5470    7.7670    0.0000 F   0  0  0  0  0  0  0  0  0  0  0  0
   -4.5310    5.1690    0.0000 C   0  0  0  0  0  0  0  0  0  0  0  0
   -6.0310    5.1600    0.0000 C   0  0  0  0  0  0  0  0  0  0  0  0
   -6.9200    6.3680    0.0000 N   0  0  0  0  0  0  0  0  0  0  0  0
   -8.3440    5.8960    0.0000 N   0  0  0  0  0  0  0  0  0  0  0  0
   -9.5630    6.7700    0.0000 C   0  0  0  0  0  0  0  0  0  0  0  0
   -8.3350    4.3960    0.0000 C   0  0  0  0  0  0  0  0  0  0  0  0
   -9.5430    3.5070    0.0000 O   0  0  0  0  0  0  0  0  0  0  0  0
  -10.9170    4.1090    0.0000 C   0  0  0  0  0  0  0  0  0  0  0  0
  -12.1250    3.2200    0.0000 F   0  0  0  0  0  0  0  0  0  0  0  0
  -11.0830    5.6000    0.0000 F   0  0  0  0  0  0  0  0  0  0  0  0
   -6.9060    3.9410    0.0000 C   0  0  0  0  0  0  0  0  0  0  0  0
   -6.4330    2.5170    0.0000 Cl  0  0  0  0  0  0  0  0  0  0  0  0
   -3.7730    3.8740    0.0000 C   0  0  0  0  0  0  0  0  0  0  0  0
    2.2420    1.3130    0.0000 O   0  0  0  0  0  0  0  0  0  0  0  0
    3.0000    0.0180    0.0000 C   0  0  0  0  0  0  0  0  0  0  0  0
    4.5000    0.0270    0.0000 C   0  0  0  0  0  0  0  0  0  0  0  0
  1  2  2  0  0  0  0
  2  3  1  0  0  0  0
  2 24  1  0  0  0  0
  3  4  1  0  0  0  0
  4  5  1  0  0  0  0
  5  6  1  0  0  0  0
  5 23  2  0  0  0  0
  6  7  1  0  0  0  0
  6  8  2  0  0  0  0
  8  9  1  0  0  0  0
  9 10  1  0  0  0  0
  9 11  2  0  0  0  0
 11 12  1  0  0  0  0
 11 23  1  0  0  0  0
 12 13  2  0  0  0  0
 12 21  1  0  0  0  0
 13 14  1  0  0  0  0
 14 15  1  0  0  0  0
 14 16  1  0  0  0  0
 16 17  1  0  0  0  0
 16 21  2  0  0  0  0
 17 18  1  0  0  0  0
 18 19  1  0  0  0  0
 18 20  1  0  0  0  0
 21 22  1  0  0  0  0
 24 25  1  0  0  0  0
 25 26  1  0  0  0  0
M  END
>  <DSSTox_RID>
40581

>  <DSSTox_CID>
14871

>  <apol>
46.507309

>  <a_acc>
3

>  <a_acid>
0

>  <a_aro>
11

>  <a_base>
0

>  <a_count>
39

>  <a_don>
0

>  <a_heavy>
26

>  <a_hyd>
18

>  <a_IC>
82.666725

>  <a_ICM>
2.1196597

>  <a_nB>
0

>  <a_nBr>
0

>  <a_nC>
15

>  <a_nCl>
2

>  <a_nF>
3

>  <a_nH>
13

>  <a_nI>
0

>  <a_nN>
2

>  <a_nO>
4

>  <a_nP>
0

>  <a_nS>
0

>  <balabanJ>
1.9940674

>  <BCUT_PEOE_0>
-2.3890195

>  <BCUT_PEOE_1>
-0.56843746

>  <BCUT_PEOE_2>
0.49365228

>  <BCUT_PEOE_3>
2.4069257

>  <BCUT_SLOGP_0>
-2.4734893

>  <BCUT_SLOGP_1>
-0.35537884

>  <BCUT_SLOGP_2>
0.70545924

>  <BCUT_SLOGP_3>
2.4612005

>  <BCUT_SMR_0>
-2.1634932

>  <BCUT_SMR_1>
-0.20350833

>  <BCUT_SMR_2>
0.78442508

>  <BCUT_SMR_3>
2.6343565

>  <bpol>
27.346691

>  <b_1rotN>
7

>  <b_1rotR>
0.25925925

>  <b_ar>
11

>  <b_count>
40

>  <b_double>
1

>  <b_heavy>
27

>  <b_rotN>
8

>  <b_rotR>
0.2962963

>  <b_single>
28

>  <b_triple>
0

>  <chi0>
19.430357

>  <chi0v>
15.075365

>  <chi0v_C>
9.1462641

>  <chi0_C>
10.02458

>  <chi1>
12.23929

>  <chi1v>
7.9486485

>  <chi1v_C>
3.4653606

>  <chi1_C>
4.4150147

>  <chiral>
0

>  <chiral_u>
0

>  <density>
1.0215949

>  <diameter>
14

>  <FCharge>
0

>  <GCUT_PEOE_0>
-0.82214391

>  <GCUT_PEOE_1>
-0.40191576

>  <GCUT_PEOE_2>
-0.051168375

>  <GCUT_PEOE_3>
2.4078996

>  <GCUT_SLOGP_0>
-0.93270206

>  <GCUT_SLOGP_1>
-0.29442123

>  <GCUT_SLOGP_2>
0.21817164

>  <GCUT_SLOGP_3>
2.5405502

>  <GCUT_SMR_0>
-0.51369369

>  <GCUT_SMR_1>
-0.14070126

>  <GCUT_SMR_2>
0.20878337

>  <GCUT_SMR_3>
2.6818449

>  <Kier1>
22.29081

>  <Kier2>
9.9722996

>  <Kier3>
5.75

>  <KierA1>
19.571646

>  <KierA2>
8.7080297

>  <KierA3>
5.0014138

>  <KierFlex>
6.5550179

>  <lip_acc>
6

>  <lip_don>
0

>  <lip_druglike>
1

>  <lip_violation>
0

>  <logP(o/w)>
3.99966

>  <logS>
-5.1049399

>  <mr>
9.0764294

>  <mutagenic>
0

>  <nmol>
1

>  <opr_brigid>
11

>  <opr_leadlike>
1

>  <opr_nring>
2

>  <opr_nrot>
7

>  <opr_violation>
0

>  <PC+>
0

>  <PC->
0

>  <PEOE_PC+>
2.2231016

>  <PEOE_PC->
-2.2231016

>  <PEOE_RPC+>
0.20487306

>  <PEOE_RPC->
0.14346996

>  <PEOE_VSA+0>
63.233978

>  <PEOE_VSA+1>
4.5197463

>  <PEOE_VSA+2>
28.698662

>  <PEOE_VSA+3>
68.907463

>  <PEOE_VSA+4>
22.058474

>  <PEOE_VSA+5>
0

>  <PEOE_VSA+6>
36.79163

>  <PEOE_VSA-0>
0

>  <PEOE_VSA-1>
59.163895

>  <PEOE_VSA-2>
0

>  <PEOE_VSA-3>
33.238312

>  <PEOE_VSA-4>
11.908636

>  <PEOE_VSA-5>
18.574432

>  <PEOE_VSA-6>
2.503756

>  <PEOE_VSA_FHYD>
0.73730779

>  <PEOE_VSA_FNEG>
0.35866532

>  <PEOE_VSA_FPNEG>
0.094356179

>  <PEOE_VSA_FPOL>
0.26269221

>  <PEOE_VSA_FPOS>
0.64133471

>  <PEOE_VSA_FPPOS>
0.16833603

>  <PEOE_VSA_HYD>
257.76205

>  <PEOE_VSA_NEG>
125.38903

>  <PEOE_VSA_PNEG>
32.986824

>  <PEOE_VSA_POL>
91.836929

>  <PEOE_VSA_POS>
224.20996

>  <PEOE_VSA_PPOS>
58.850105

>  <petitjean>
0.5

>  <petitjeanSC>
1

>  <Q_PC+>
0

>  <Q_PC->
0

>  <Q_RPC+>
0

>  <Q_RPC->
0

>  <Q_VSA_FHYD>
1

>  <Q_VSA_FNEG>
0

>  <Q_VSA_FPNEG>
0

>  <Q_VSA_FPOL>
0

>  <Q_VSA_FPOS>
1

>  <Q_VSA_FPPOS>
0

>  <Q_VSA_HYD>
349.599

>  <Q_VSA_NEG>
0

>  <Q_VSA_PNEG>
0

>  <Q_VSA_POL>
0

>  <Q_VSA_POS>
349.599

>  <Q_VSA_PPOS>
0

>  <radius>
7

>  <reactive>
1

>  <rings>
2

>  <RPC+>
0

>  <RPC->
0

>  <rsynth>
0.53846157

>  <SlogP>
4.4355001

>  <SlogP_VSA0>
21.999775

>  <SlogP_VSA1>
26.185041

>  <SlogP_VSA2>
62.322659

>  <SlogP_VSA3>
41.852516

>  <SlogP_VSA4>
0

>  <SlogP_VSA5>
0

>  <SlogP_VSA6>
7.0012131

>  <SlogP_VSA7>
41.228691

>  <SlogP_VSA8>
0

>  <SlogP_VSA9>
199.45886

>  <SMR>
8.7663002

>  <SMR_VSA0>
34.862103

>  <SMR_VSA1>
85.319695

>  <SMR_VSA2>
9.1210184

>  <SMR_VSA3>
35.398777

>  <SMR_VSA4>
5.9423227

>  <SMR_VSA5>
35.286369

>  <SMR_VSA6>
49.59798

>  <SMR_VSA7>
144.52049

>  <TPSA>
62.580002

>  <VAdjEq>
0.40176207

>  <VAdjMa>
5.7548876

>  <VDistEq>
3.5126519

>  <VDistMa>
9.1078358

>  <vdw_area>
349.599

>  <vdw_vol>
391.61804

>  <vsa_acc>
25.491716

>  <vsa_acid>
0

>  <vsa_base>
0

>  <vsa_don>
0

>  <vsa_hyd>
291.44174

>  <vsa_other>
32.665543

>  <vsa_pol>
25.491716

>  <Weight>
413.17899

>  <weinerPath>
1748

>  <weinerPol>
40

>  <zagreb>
130

$$$$
O=C1N(C(C)(C)C)N=CC(SCC2=CC=C(C(C)(C)C)C=C2)=C1Cl
  MOE2011           2D

 24 25  0  0  0  0  0  0  0  0999 V2000
    0.0000    0.0000    0.0000 O   0  0  0  0  0  0  0  0  0  0  0  0
    1.3020    0.7450    0.0000 C   0  0  0  0  0  0  0  0  0  0  0  0
    1.3070    2.2450    0.0000 N   0  0  0  0  0  0  0  0  0  0  0  0
    0.0110    3.0000    0.0000 C   0  0  0  0  0  0  0  0  0  0  0  0
   -1.2860    3.7550    0.0000 C   0  0  0  0  0  0  0  0  0  0  0  0
   -0.7440    1.7040    0.0000 C   0  0  0  0  0  0  0  0  0  0  0  0
    0.7650    4.2960    0.0000 C   0  0  0  0  0  0  0  0  0  0  0  0
    2.6090    2.9910    0.0000 N   0  0  0  0  0  0  0  0  0  0  0  0
    3.9050    2.2360    0.0000 C   0  0  0  0  0  0  0  0  0  0  0  0
    3.9000    0.7360    0.0000 C   0  0  0  0  0  0  0  0  0  0  0  0
    5.1960   -0.0180    0.0000 S   0  0  0  0  0  0  0  0  0  0  0  0
    6.4980    0.7270    0.0000 C   0  0  0  0  0  0  0  0  0  0  0  0
    7.7940   -0.0280    0.0000 C   0  0  0  0  0  0  0  0  0  0  0  0
    9.0960    0.7180    0.0000 C   0  0  0  0  0  0  0  0  0  0  0  0
   10.3920   -0.0370    0.0000 C   0  0  0  0  0  0  0  0  0  0  0  0
   10.3870   -1.5370    0.0000 C   0  0  0  0  0  0  0  0  0  0  0  0
   11.6830   -2.2910    0.0000 C   0  0  0  0  0  0  0  0  0  0  0  0
   12.9800   -3.0460    0.0000 C   0  0  0  0  0  0  0  0  0  0  0  0
   12.4380   -0.9950    0.0000 C   0  0  0  0  0  0  0  0  0  0  0  0
   10.9290   -3.5880    0.0000 C   0  0  0  0  0  0  0  0  0  0  0  0
    9.0850   -2.2820    0.0000 C   0  0  0  0  0  0  0  0  0  0  0  0
    7.7890   -1.5280    0.0000 C   0  0  0  0  0  0  0  0  0  0  0  0
    2.5980   -0.0090    0.0000 C   0  0  0  0  0  0  0  0  0  0  0  0
    2.5930   -1.5090    0.0000 Cl  0  0  0  0  0  0  0  0  0  0  0  0
  1  2  2  0  0  0  0
  2  3  1  0  0  0  0
  2 23  1  0  0  0  0
  3  4  1  0  0  0  0
  3  8  1  0  0  0  0
  4  5  1  0  0  0  0
  4  6  1  0  0  0  0
  4  7  1  0  0  0  0
  8  9  2  0  0  0  0
  9 10  1  0  0  0  0
 10 11  1  0  0  0  0
 10 23  2  0  0  0  0
 11 12  1  0  0  0  0
 12 13  1  0  0  0  0
 13 14  1  0  0  0  0
 13 22  2  0  0  0  0
 14 15  2  0  0  0  0
 15 16  1  0  0  0  0
 16 17  1  0  0  0  0
 16 21  2  0  0  0  0
 17 18  1  0  0  0  0
 17 19  1  0  0  0  0
 17 20  1  0  0  0  0
 21 22  1  0  0  0  0
 23 24  1  0  0  0  0
M  END
>  <DSSTox_RID>
40583

>  <DSSTox_CID>
12573

>  <apol>
58.191826

>  <a_acc>
2

>  <a_acid>
0

>  <a_aro>
6

>  <a_base>
0

>  <a_count>
49

>  <a_don>
0

>  <a_heavy>
24

>  <a_hyd>
19

>  <a_IC>
76.313751

>  <a_ICM>
1.5574236

>  <a_nB>
0

>  <a_nBr>
0

>  <a_nC>
19

>  <a_nCl>
1

>  <a_nF>
0

>  <a_nH>
25

>  <a_nI>
0

>  <a_nN>
2

>  <a_nO>
1

>  <a_nP>
0

>  <a_nS>
1

>  <balabanJ>
1.7828063

>  <BCUT_PEOE_0>
-2.6422548

>  <BCUT_PEOE_1>
-0.40353963

>  <BCUT_PEOE_2>
0.32012644

>  <BCUT_PEOE_3>
2.6190224

>  <BCUT_SLOGP_0>
-2.6680601

>  <BCUT_SLOGP_1>
-0.15163557

>  <BCUT_SLOGP_2>
0.43285382

>  <BCUT_SLOGP_3>
2.6822093

>  <BCUT_SMR_0>
-2.3944781

>  <BCUT_SMR_1>
-0.068825923

>  <BCUT_SMR_2>
0.60959005

>  <BCUT_SMR_3>
2.8711147

>  <bpol>
32.968174

>  <b_1rotN>
3

>  <b_1rotR>
0.12

>  <b_ar>
6

>  <b_count>
50

>  <b_double>
3

>  <b_heavy>
25

>  <b_rotN>
5

>  <b_rotR>
0.2

>  <b_single>
41

>  <b_triple>
0

>  <chi0>
18.120956

>  <chi0v>
16.755173

>  <chi0v_C>
13.093858

>  <chi0_C>
14.129392

>  <chi1>
10.998037

>  <chi1v>
9.3684769

>  <chi1v_C>
6.2135959

>  <chi1_C>
7.4048314

>  <chiral>
0

>  <chiral_u>
0

>  <density>
0.81095272

>  <diameter>
13

>  <FCharge>
0

>  <GCUT_PEOE_0>
-0.80654687

>  <GCUT_PEOE_1>
-0.35871539

>  <GCUT_PEOE_2>
-0.10205387

>  <GCUT_PEOE_3>
2.6063824

>  <GCUT_SLOGP_0>
-0.93828017

>  <GCUT_SLOGP_1>
-0.22803178

>  <GCUT_SLOGP_2>
-0.00055342005

>  <GCUT_SLOGP_3>
2.7266572

>  <GCUT_SMR_0>
-0.52338737

>  <GCUT_SMR_1>
-0.054838873

>  <GCUT_SMR_2>
0.096742369

>  <GCUT_SMR_3>
2.8956671

>  <Kier1>
20.313601

>  <Kier2>
7.7091413

>  <Kier3>
5.25

>  <KierA1>
18.16267

>  <KierA2>
6.8576832

>  <KierA3>
4.6529946

>  <KierFlex>
5.189743

>  <lip_acc>
3

>  <lip_don>
0

>  <lip_druglike>
1

>  <lip_violation>
1

>  <logP(o/w)>
6.4450002

>  <logS>
-7.2083902

>  <mr>
10.319991

>  <mutagenic>
0

>  <nmol>
1

>  <opr_brigid>
12

>  <opr_leadlike>
1

>  <opr_nring>
2

>  <opr_nrot>
5

>  <opr_violation>
1

>  <PC+>
0

>  <PC->
0

>  <PEOE_PC+>
0.88236499

>  <PEOE_PC->
-0.88236499

>  <PEOE_RPC+>
0.32563356

>  <PEOE_RPC->
0.29983586

>  <PEOE_VSA+0>
176.4507

>  <PEOE_VSA+1>
21.969158

>  <PEOE_VSA+2>
24.819252

>  <PEOE_VSA+3>
0

>  <PEOE_VSA+4>
0

>  <PEOE_VSA+5>
12.949531

>  <PEOE_VSA+6>
0

>  <PEOE_VSA-0>
67.651054

>  <PEOE_VSA-1>
29.581947

>  <PEOE_VSA-2>
19.760618

>  <PEOE_VSA-3>
9.4210396

>  <PEOE_VSA-4>
0

>  <PEOE_VSA-5>
13.566921

>  <PEOE_VSA-6>
0

>  <PEOE_VSA_FHYD>
0.92950946

>  <PEOE_VSA_FNEG>
0.37212297

>  <PEOE_VSA_FPNEG>
0.03606591

>  <PEOE_VSA_FPOL>
0.070490569

>  <PEOE_VSA_FPOS>
0.627877

>  <PEOE_VSA_FPPOS>
0.034424659

>  <PEOE_VSA_HYD>
349.65378

>  <PEOE_VSA_NEG>
139.98158

>  <PEOE_VSA_PNEG>
13.566921

>  <PEOE_VSA_POL>
26.516451

>  <PEOE_VSA_POS>
236.18864

>  <PEOE_VSA_PPOS>
12.949531

>  <petitjean>
0.46153846

>  <petitjeanSC>
0.85714287

>  <Q_PC+>
0

>  <Q_PC->
0

>  <Q_RPC+>
0

>  <Q_RPC->
0

>  <Q_VSA_FHYD>
1

>  <Q_VSA_FNEG>
0

>  <Q_VSA_FPNEG>
0

>  <Q_VSA_FPOL>
0

>  <Q_VSA_FPOS>
1

>  <Q_VSA_FPPOS>
0

>  <Q_VSA_HYD>
376.17023

>  <Q_VSA_NEG>
0

>  <Q_VSA_PNEG>
0

>  <Q_VSA_POL>
0

>  <Q_VSA_POS>
376.17023

>  <Q_VSA_PPOS>
0

>  <radius>
7

>  <reactive>
0

>  <rings>
2

>  <RPC+>
0

>  <RPC->
0

>  <rsynth>
1

>  <SlogP>
5.5605998

>  <SlogP_VSA0>
0

>  <SlogP_VSA1>
8.2605753

>  <SlogP_VSA2>
41.076572

>  <SlogP_VSA3>
0

>  <SlogP_VSA4>
6.37115

>  <SlogP_VSA5>
21.714348

>  <SlogP_VSA6>
0

>  <SlogP_VSA7>
70.572739

>  <SlogP_VSA8>
0

>  <SlogP_VSA9>
288.55783

>  <SMR>
10.4613

>  <SMR_VSA0>
23.862217

>  <SMR_VSA1>
19.664799

>  <SMR_VSA2>
0

>  <SMR_VSA3>
11.42249

>  <SMR_VSA4>
0

>  <SMR_VSA5>
87.806305

>  <SMR_VSA6>
5.2587838

>  <SMR_VSA7>
288.53864

>  <TPSA>
32.669998

>  <VAdjEq>
0.42571631

>  <VAdjMa>
5.643856

>  <VDistEq>
3.5426817

>  <VDistMa>
8.8331451

>  <vdw_area>
376.17023

>  <vdw_vol>
418.94058

>  <vsa_acc>
22.987961

>  <vsa_acid>
0

>  <vsa_base>
0

>  <vsa_don>
0

>  <vsa_hyd>
319.93323

>  <vsa_other>
33.249039

>  <vsa_pol>
22.987961

>  <Weight>
364.94101

>  <weinerPath>
1510

>  <weinerPol>
38

>  <zagreb>
126

$$$$
CC1=NC(NC2=CC=CC=C2)=NC(C)=C1
  MOE2011           2D

 15 16  0  0  0  0  0  0  0  0999 V2000
    0.0000    0.0000    0.0000 C   0  0  0  0  0  0  0  0  0  0  0  0
    1.2990    0.7500    0.0000 C   0  0  0  0  0  0  0  0  0  0  0  0
    2.5980    0.0000    0.0000 N   0  0  0  0  0  0  0  0  0  0  0  0
    3.8970    0.7500    0.0000 C   0  0  0  0  0  0  0  0  0  0  0  0
    5.1960    0.0000    0.0000 N   0  0  0  0  0  0  0  0  0  0  0  0
    6.4950    0.7500    0.0000 C   0  0  0  0  0  0  0  0  0  0  0  0
    7.7940    0.0000    0.0000 C   0  0  0  0  0  0  0  0  0  0  0  0
    9.0930    0.7500    0.0000 C   0  0  0  0  0  0  0  0  0  0  0  0
    9.0930    2.2500    0.0000 C   0  0  0  0  0  0  0  0  0  0  0  0
    7.7940    3.0000    0.0000 C   0  0  0  0  0  0  0  0  0  0  0  0
    6.4950    2.2500    0.0000 C   0  0  0  0  0  0  0  0  0  0  0  0
    3.8970    2.2500    0.0000 N   0  0  0  0  0  0  0  0  0  0  0  0
    2.5980    3.0000    0.0000 C   0  0  0  0  0  0  0  0  0  0  0  0
    2.5980    4.5000    0.0000 C   0  0  0  0  0  0  0  0  0  0  0  0
    1.2990    2.2500    0.0000 C   0  0  0  0  0  0  0  0  0  0  0  0
  1  2  1  0  0  0  0
  2  3  1  0  0  0  0
  2 15  2  0  0  0  0
  3  4  2  0  0  0  0
  4  5  1  0  0  0  0
  4 12  1  0  0  0  0
  5  6  1  0  0  0  0
  6  7  1  0  0  0  0
  6 11  2  0  0  0  0
  7  8  2  0  0  0  0
  8  9  1  0  0  0  0
  9 10  2  0  0  0  0
 10 11  1  0  0  0  0
 12 13  2  0  0  0  0
 13 14  1  0  0  0  0
 13 15  1  0  0  0  0
M  END
>  <DSSTox_RID>
40584

>  <DSSTox_CID>
14877

>  <apol>
33.08831

>  <a_acc>
2

>  <a_acid>
0

>  <a_aro>
12

>  <a_base>
0

>  <a_count>
28

>  <a_don>
1

>  <a_heavy>
15

>  <a_hyd>
11

>  <a_IC>
38.725784

>  <a_ICM>
1.3830637

>  <a_nB>
0

>  <a_nBr>
0

>  <a_nC>
12

>  <a_nCl>
0

>  <a_nF>
0

>  <a_nH>
13

>  <a_nI>
0

>  <a_nN>
3

>  <a_nO>
0

>  <a_nP>
0

>  <a_nS>
0

>  <balabanJ>
1.7853872

>  <BCUT_PEOE_0>
-2.3010495

>  <BCUT_PEOE_1>
-0.64621449

>  <BCUT_PEOE_2>
0.61556387

>  <BCUT_PEOE_3>
2.2747338

>  <BCUT_SLOGP_0>
-2.2316415

>  <BCUT_SLOGP_1>
-0.53807992

>  <BCUT_SLOGP_2>
0.66555583

>  <BCUT_SLOGP_3>
2.3843055

>  <BCUT_SMR_0>
-2.0176718

>  <BCUT_SMR_1>
-0.44368041

>  <BCUT_SMR_2>
0.85431087

>  <BCUT_SMR_3>
2.5706406

>  <bpol>
17.51169

>  <b_1rotN>
2

>  <b_1rotR>
0.125

>  <b_ar>
12

>  <b_count>
29

>  <b_double>
0

>  <b_heavy>
16

>  <b_rotN>
2

>  <b_rotR>
0.125

>  <b_single>
17

>  <b_triple>
0

>  <chi0>
10.673362

>  <chi0v>
8.8585291

>  <chi0v_C>
7.4641018

>  <chi0_C>
8.552042

>  <chi1>
7.2371836

>  <chi1v>
4.8824611

>  <chi1v_C>
3.4880338

>  <chi1_C>
4.7876935

>  <chiral>
0

>  <chiral_u>
0

>  <density>
0.74004275

>  <diameter>
8

>  <FCharge>
0

>  <GCUT_PEOE_0>
-0.76888978

>  <GCUT_PEOE_1>
-0.38590249

>  <GCUT_PEOE_2>
0.059133049

>  <GCUT_PEOE_3>
2.2449677

>  <GCUT_SLOGP_0>
-0.89462137

>  <GCUT_SLOGP_1>
-0.26386139

>  <GCUT_SLOGP_2>
0.14106983

>  <GCUT_SLOGP_3>
2.3737144

>  <GCUT_SMR_0>
-0.4857969

>  <GCUT_SMR_1>
-0.21605732

>  <GCUT_SMR_2>
0.19305076

>  <GCUT_SMR_3>
2.5424924

>  <Kier1>
11.484375

>  <Kier2>
5.3650794

>  <Kier3>
3.5

>  <KierA1>
7.6561818

>  <KierA2>
3.4611888

>  <KierA3>
2.1975036

>  <KierFlex>
1.7666327

>  <lip_acc>
3

>  <lip_don>
1

>  <lip_druglike>
1

>  <lip_violation>
0

>  <logP(o/w)>
1.834

>  <logS>
-3.13658

>  <mr>
6.0951304

>  <mutagenic>
0

>  <nmol>
1

>  <opr_brigid>
12

>  <opr_leadlike>
1

>  <opr_nring>
2

>  <opr_nrot>
2

>  <opr_violation>
0

>  <PC+>
0

>  <PC->
0

>  <PEOE_PC+>
0.57160097

>  <PEOE_PC->
-0.57160097

>  <PEOE_RPC+>
0.39225206

>  <PEOE_RPC->
0.38425255

>  <PEOE_VSA+0>
94.850967

>  <PEOE_VSA+1>
78.91555

>  <PEOE_VSA+2>
0

>  <PEOE_VSA+3>
0

>  <PEOE_VSA+4>
15.681574

>  <PEOE_VSA+5>
0

>  <PEOE_VSA+6>
0

>  <PEOE_VSA-0>
0

>  <PEOE_VSA-1>
0

>  <PEOE_VSA-2>
5.6825762

>  <PEOE_VSA-3>
0

>  <PEOE_VSA-4>
11.365152

>  <PEOE_VSA-5>
0

>  <PEOE_VSA-6>
0

>  <PEOE_VSA_FHYD>
0.86902046

>  <PEOE_VSA_FNEG>
0.082557254

>  <PEOE_VSA_FPNEG>
0.055038169

>  <PEOE_VSA_FPOL>
0.13097954

>  <PEOE_VSA_FPOS>
0.91744274

>  <PEOE_VSA_FPPOS>
0.075941361

>  <PEOE_VSA_HYD>
179.4491

>  <PEOE_VSA_NEG>
17.047728

>  <PEOE_VSA_PNEG>
11.365152

>  <PEOE_VSA_POL>
27.046726

>  <PEOE_VSA_POS>
189.44809

>  <PEOE_VSA_PPOS>
15.681574

>  <petitjean>
0.5

>  <petitjeanSC>
1

>  <Q_PC+>
0

>  <Q_PC->
0

>  <Q_RPC+>
0

>  <Q_RPC->
0

>  <Q_VSA_FHYD>
1

>  <Q_VSA_FNEG>
0

>  <Q_VSA_FPNEG>
0

>  <Q_VSA_FPOL>
0

>  <Q_VSA_FPOS>
1

>  <Q_VSA_FPPOS>
0

>  <Q_VSA_HYD>
206.49582

>  <Q_VSA_NEG>
0

>  <Q_VSA_PNEG>
0

>  <Q_VSA_POL>
0

>  <Q_VSA_POS>
206.49582

>  <Q_VSA_PPOS>
0

>  <radius>
4

>  <reactive>
0

>  <rings>
2

>  <RPC+>
0

>  <RPC->
0

>  <rsynth>
1

>  <SlogP>
2.8370399

>  <SlogP_VSA0>
0

>  <SlogP_VSA1>
51.58181

>  <SlogP_VSA2>
0

>  <SlogP_VSA3>
0

>  <SlogP_VSA4>
5.513495

>  <SlogP_VSA5>
0

>  <SlogP_VSA6>
0

>  <SlogP_VSA7>
105.85911

>  <SlogP_VSA8>
0

>  <SlogP_VSA9>
71.307869

>  <SMR>
6.1230698

>  <SMR_VSA0>
0

>  <SMR_VSA1>
33.57106

>  <SMR_VSA2>
0

>  <SMR_VSA3>
5.513495

>  <SMR_VSA4>
22.666592

>  <SMR_VSA5>
105.85911

>  <SMR_VSA6>
0

>  <SMR_VSA7>
66.652031

>  <TPSA>
37.810001

>  <VAdjEq>
0.59002918

>  <VAdjMa>
5

>  <VDistEq>
2.8600106

>  <VDistMa>
7.4958143

>  <vdw_area>
206.49582

>  <vdw_vol>
251.54358

>  <vsa_acc>
11.365152

>  <vsa_acid>
0

>  <vsa_base>
0

>  <vsa_don>
5.6825762

>  <vsa_hyd>
173.76653

>  <vsa_other>
15.681574

>  <vsa_pol>
17.047728

>  <Weight>
199.25699

>  <weinerPath>
384

>  <weinerPol>
18

>  <zagreb>
74

$$$$
CC(OC3=NC=CC=C3)COC2=CC=C(C=C2)OC1=CC=CC=C1
  MOE2011           2D

 24 26  0  0  1  0  0  0  0  0999 V2000
    0.0000    0.0000    0.0000 C   0  0  0  0  0  0  0  0  0  0  0  0
   -0.7570    1.2950    0.0000 C   0  0  3  0  0  0  0  0  0  0  0  0
   -0.0130    2.5980    0.0000 O   0  0  0  0  0  0  0  0  0  0  0  0
    1.4870    2.6060    0.0000 C   0  0  0  0  0  0  0  0  0  0  0  0
    2.2300    3.9080    0.0000 N   0  0  0  0  0  0  0  0  0  0  0  0
    3.7300    3.9160    0.0000 C   0  0  0  0  0  0  0  0  0  0  0  0
    4.4870    2.6210    0.0000 C   0  0  0  0  0  0  0  0  0  0  0  0
    3.7430    1.3180    0.0000 C   0  0  0  0  0  0  0  0  0  0  0  0
    2.2430    1.3100    0.0000 C   0  0  0  0  0  0  0  0  0  0  0  0
   -2.2570    1.2880    0.0000 C   0  0  0  0  0  0  0  0  0  0  0  0
   -3.0000   -0.0150    0.0000 O   0  0  0  0  0  0  0  0  0  0  0  0
   -4.5000   -0.0230    0.0000 C   0  0  0  0  0  0  0  0  0  0  0  0
   -5.2430   -1.3260    0.0000 C   0  0  0  0  0  0  0  0  0  0  0  0
   -6.7430   -1.3330    0.0000 C   0  0  0  0  0  0  0  0  0  0  0  0
   -7.5000   -0.0380    0.0000 C   0  0  0  0  0  0  0  0  0  0  0  0
   -6.7560    1.2650    0.0000 C   0  0  0  0  0  0  0  0  0  0  0  0
   -5.2570    1.2720    0.0000 C   0  0  0  0  0  0  0  0  0  0  0  0
   -9.0000   -0.0460    0.0000 O   0  0  0  0  0  0  0  0  0  0  0  0
   -9.7430   -1.3480    0.0000 C   0  0  0  0  0  0  0  0  0  0  0  0
  -11.2430   -1.3560    0.0000 C   0  0  0  0  0  0  0  0  0  0  0  0
  -11.9870   -2.6590    0.0000 C   0  0  0  0  0  0  0  0  0  0  0  0
  -11.2300   -3.9540    0.0000 C   0  0  0  0  0  0  0  0  0  0  0  0
   -9.7300   -3.9460    0.0000 C   0  0  0  0  0  0  0  0  0  0  0  0
   -8.9870   -2.6440    0.0000 C   0  0  0  0  0  0  0  0  0  0  0  0
  1  2  1  0  0  0  0
  2  3  1  0  0  0  0
  2 10  1  0  0  0  0
  3  4  1  0  0  0  0
  4  5  1  0  0  0  0
  4  9  2  0  0  0  0
  5  6  2  0  0  0  0
  6  7  1  0  0  0  0
  7  8  2  0  0  0  0
  8  9  1  0  0  0  0
 10 11  1  0  0  0  0
 11 12  1  0  0  0  0
 12 13  1  0  0  0  0
 12 17  2  0  0  0  0
 13 14  2  0  0  0  0
 14 15  1  0  0  0  0
 15 16  2  0  0  0  0
 15 18  1  0  0  0  0
 16 17  1  0  0  0  0
 18 19  1  0  0  0  0
 19 20  1  0  0  0  0
 19 24  2  0  0  0  0
 20 21  2  0  0  0  0
 21 22  1  0  0  0  0
 22 23  2  0  0  0  0
 23 24  1  0  0  0  0
M  END
>  <DSSTox_RID>
40585

>  <DSSTox_CID>
12640

>  <apol>
51.375069

>  <a_acc>
2

>  <a_acid>
0

>  <a_aro>
18

>  <a_base>
0

>  <a_count>
43

>  <a_don>
0

>  <a_heavy>
24

>  <a_hyd>
19

>  <a_IC>
61.425312

>  <a_ICM>
1.4284956

>  <a_nB>
0

>  <a_nBr>
0

>  <a_nC>
20

>  <a_nCl>
0

>  <a_nF>
0

>  <a_nH>
19

>  <a_nI>
0

>  <a_nN>
1

>  <a_nO>
3

>  <a_nP>
0

>  <a_nS>
0

>  <balabanJ>
1.2630028

>  <BCUT_PEOE_0>
-2.5122499

>  <BCUT_PEOE_1>
-0.63738614

>  <BCUT_PEOE_2>
0.70236534

>  <BCUT_PEOE_3>
2.5211928

>  <BCUT_SLOGP_0>
-2.6159792

>  <BCUT_SLOGP_1>
-0.53807992

>  <BCUT_SLOGP_2>
0.80591482

>  <BCUT_SLOGP_3>
2.4768133

>  <BCUT_SMR_0>
-2.2868037

>  <BCUT_SMR_1>
-0.49986199

>  <BCUT_SMR_2>
0.85431087

>  <BCUT_SMR_3>
2.738363

>  <bpol>
27.838934

>  <b_1rotN>
7

>  <b_1rotR>
0.26923078

>  <b_ar>
18

>  <b_count>
45

>  <b_double>
0

>  <b_heavy>
26

>  <b_rotN>
7

>  <b_rotR>
0.26923078

>  <b_single>
27

>  <b_triple>
0

>  <chi0>
16.614674

>  <chi0v>
13.461969

>  <chi0v_C>
11.79001

>  <chi0_C>
13.786246

>  <chi1>
11.792827

>  <chi1v>
7.8290043

>  <chi1v_C>
6.0063243

>  <chi1_C>
8.3433371

>  <chiral>
1

>  <chiral_u>
1

>  <density>
0.75755304

>  <diameter>
16

>  <FCharge>
0

>  <GCUT_PEOE_0>
-0.78131747

>  <GCUT_PEOE_1>
-0.38246748

>  <GCUT_PEOE_2>
0.067855582

>  <GCUT_PEOE_3>
2.4073758

>  <GCUT_SLOGP_0>
-0.94027615

>  <GCUT_SLOGP_1>
-0.30991605

>  <GCUT_SLOGP_2>
0.16445385

>  <GCUT_SLOGP_3>
2.5441985

>  <GCUT_SMR_0>
-0.51834166

>  <GCUT_SMR_1>
-0.21605732

>  <GCUT_SMR_2>
0.19305076

>  <GCUT_SMR_3>
2.6759043

>  <Kier1>
18.781065

>  <Kier2>
10.222222

>  <Kier3>
6.6824455

>  <KierA1>
13.598353

>  <KierA2>
7.288846

>  <KierA3>
4.7124686

>  <KierFlex>
4.1298461

>  <lip_acc>
4

>  <lip_don>
0

>  <lip_druglike>
1

>  <lip_violation>
0

>  <logP(o/w)>
4.4307399

>  <logS>
-4.4430199

>  <mr>
9.526516

>  <mutagenic>
0

>  <nmol>
1

>  <opr_brigid>
18

>  <opr_leadlike>
1

>  <opr_nring>
3

>  <opr_nrot>
7

>  <opr_violation>
1

>  <PC+>
0

>  <PC->
0

>  <PEOE_PC+>
1.1694789

>  <PEOE_PC->
-1.1694789

>  <PEOE_RPC+>
0.15268189

>  <PEOE_RPC->
0.280274

>  <PEOE_VSA+0>
219.11038

>  <PEOE_VSA+1>
16.917038

>  <PEOE_VSA+2>
28.758026

>  <PEOE_VSA+3>
43.466526

>  <PEOE_VSA+4>
0

>  <PEOE_VSA+5>
0

>  <PEOE_VSA+6>
0

>  <PEOE_VSA-0>
0

>  <PEOE_VSA-1>
0

>  <PEOE_VSA-2>
0

>  <PEOE_VSA-3>
0

>  <PEOE_VSA-4>
5.6825762

>  <PEOE_VSA-5>
0

>  <PEOE_VSA-6>
7.5112681

>  <PEOE_VSA_FHYD>
0.95895469

>  <PEOE_VSA_FNEG>
0.041045312

>  <PEOE_VSA_FPNEG>
0.041045312

>  <PEOE_VSA_FPOL>
0.041045312

>  <PEOE_VSA_FPOS>
0.95895469

>  <PEOE_VSA_FPPOS>
0

>  <PEOE_VSA_HYD>
308.25198

>  <PEOE_VSA_NEG>
13.193845

>  <PEOE_VSA_PNEG>
13.193845

>  <PEOE_VSA_POL>
13.193845

>  <PEOE_VSA_POS>
308.25198

>  <PEOE_VSA_PPOS>
0

>  <petitjean>
0.5

>  <petitjeanSC>
1

>  <Q_PC+>
0

>  <Q_PC->
0

>  <Q_RPC+>
0

>  <Q_RPC->
0

>  <Q_VSA_FHYD>
1

>  <Q_VSA_FNEG>
0

>  <Q_VSA_FPNEG>
0

>  <Q_VSA_FPOL>
0

>  <Q_VSA_FPOS>
1

>  <Q_VSA_FPPOS>
0

>  <Q_VSA_HYD>
321.44583

>  <Q_VSA_NEG>
0

>  <Q_VSA_PNEG>
0

>  <Q_VSA_POL>
0

>  <Q_VSA_POS>
321.44583

>  <Q_VSA_PPOS>
0

>  <radius>
8

>  <reactive>
0

>  <rings>
3

>  <RPC+>
0

>  <RPC->
0

>  <rsynth>
1

>  <SlogP>
4.7202001

>  <SlogP_VSA0>
32.999664

>  <SlogP_VSA1>
16.78553

>  <SlogP_VSA2>
6.4686494

>  <SlogP_VSA3>
20.926258

>  <SlogP_VSA4>
0

>  <SlogP_VSA5>
0

>  <SlogP_VSA6>
0

>  <SlogP_VSA7>
228.93257

>  <SlogP_VSA8>
0

>  <SlogP_VSA9>
53.870899

>  <SMR>
9.2779999

>  <SMR_VSA0>
0

>  <SMR_VSA1>
49.785194

>  <SMR_VSA2>
0

>  <SMR_VSA3>
27.013535

>  <SMR_VSA4>
0

>  <SMR_VSA5>
228.93257

>  <SMR_VSA6>
20.926258

>  <SMR_VSA7>
33.326015

>  <TPSA>
40.580002

>  <VAdjEq>
0.43739632

>  <VAdjMa>
5.7004399

>  <VDistEq>
3.7694023

>  <VDistMa>
8.8134384

>  <vdw_area>
321.44583

>  <vdw_vol>
398.94763

>  <vsa_acc>
8.1863317

>  <vsa_acid>
0

>  <vsa_base>
0

>  <vsa_don>
0

>  <vsa_hyd>
295.30243

>  <vsa_other>
17.957043

>  <vsa_pol>
8.1863317

>  <Weight>
321.37601

>  <weinerPath>
1693

>  <weinerPol>
30

>  <zagreb>
118

$$$$
ClC2=C1C(OC3=CC=C(F)C=C3)=CC=NC1=CC(Cl)=C2
  MOE2011           2D

 20 22  0  0  0  0  0  0  0  0999 V2000
    0.0000    0.0000    0.0000 Cl  0  0  0  0  0  0  0  0  0  0  0  0
   -0.7390    1.3050    0.0000 C   0  0  0  0  0  0  0  0  0  0  0  0
    0.0220    2.5980    0.0000 C   0  0  0  0  0  0  0  0  0  0  0  0
    1.5220    2.5850    0.0000 C   0  0  0  0  0  0  0  0  0  0  0  0
    2.2610    1.2800    0.0000 O   0  0  0  0  0  0  0  0  0  0  0  0
    3.7610    1.2670    0.0000 C   0  0  0  0  0  0  0  0  0  0  0  0
    4.5000   -0.0390    0.0000 C   0  0  0  0  0  0  0  0  0  0  0  0
    6.0000   -0.0520    0.0000 C   0  0  0  0  0  0  0  0  0  0  0  0
    6.7610    1.2410    0.0000 C   0  0  0  0  0  0  0  0  0  0  0  0
    8.2610    1.2280    0.0000 F   0  0  0  0  0  0  0  0  0  0  0  0
    6.0220    2.5460    0.0000 C   0  0  0  0  0  0  0  0  0  0  0  0
    4.5220    2.5590    0.0000 C   0  0  0  0  0  0  0  0  0  0  0  0
    2.2840    3.8780    0.0000 C   0  0  0  0  0  0  0  0  0  0  0  0
    1.5450    5.1830    0.0000 C   0  0  0  0  0  0  0  0  0  0  0  0
    0.0450    5.1960    0.0000 N   0  0  0  0  0  0  0  0  0  0  0  0
   -0.7160    3.9030    0.0000 C   0  0  0  0  0  0  0  0  0  0  0  0
   -2.2160    3.9160    0.0000 C   0  0  0  0  0  0  0  0  0  0  0  0
   -2.9770    2.6240    0.0000 C   0  0  0  0  0  0  0  0  0  0  0  0
   -4.4770    2.6370    0.0000 Cl  0  0  0  0  0  0  0  0  0  0  0  0
   -2.2390    1.3180    0.0000 C   0  0  0  0  0  0  0  0  0  0  0  0
  1  2  1  0  0  0  0
  2  3  1  0  0  0  0
  2 20  2  0  0  0  0
  3  4  1  0  0  0  0
  3 16  2  0  0  0  0
  4  5  1  0  0  0  0
  4 13  2  0  0  0  0
  5  6  1  0  0  0  0
  6  7  1  0  0  0  0
  6 12  2  0  0  0  0
  7  8  2  0  0  0  0
  8  9  1  0  0  0  0
  9 10  1  0  0  0  0
  9 11  2  0  0  0  0
 11 12  1  0  0  0  0
 13 14  1  0  0  0  0
 14 15  2  0  0  0  0
 15 16  1  0  0  0  0
 16 17  1  0  0  0  0
 17 18  2  0  0  0  0
 18 19  1  0  0  0  0
 18 20  1  0  0  0  0
M  END
>  <DSSTox_RID>
40588

>  <DSSTox_CID>
14881

>  <apol>
38.553345

>  <a_acc>
1

>  <a_acid>
0

>  <a_aro>
16

>  <a_base>
0

>  <a_count>
28

>  <a_don>
0

>  <a_heavy>
20

>  <a_hyd>
18

>  <a_IC>
50.002579

>  <a_ICM>
1.7858064

>  <a_nB>
0

>  <a_nBr>
0

>  <a_nC>
15

>  <a_nCl>
2

>  <a_nF>
1

>  <a_nH>
8

>  <a_nI>
0

>  <a_nN>
1

>  <a_nO>
1

>  <a_nP>
0

>  <a_nS>
0

>  <balabanJ>
1.6116623

>  <BCUT_PEOE_0>
-2.2088647

>  <BCUT_PEOE_1>
-0.63638109

>  <BCUT_PEOE_2>
0.7090019

>  <BCUT_PEOE_3>
2.2060509

>  <BCUT_SLOGP_0>
-2.0282531

>  <BCUT_SLOGP_1>
-0.53807992

>  <BCUT_SLOGP_2>
0.89771283

>  <BCUT_SLOGP_3>
2.4375818

>  <BCUT_SMR_0>
-1.8852031

>  <BCUT_SMR_1>
-0.49986199

>  <BCUT_SMR_2>
0.9246729

>  <BCUT_SMR_3>
2.5406532

>  <bpol>
14.024656

>  <b_1rotN>
2

>  <b_1rotR>
0.090909094

>  <b_ar>
17

>  <b_count>
30

>  <b_double>
0

>  <b_heavy>
22

>  <b_rotN>
2

>  <b_rotR>
0.090909094

>  <b_single>
13

>  <b_triple>
0

>  <chi0>
14.112519

>  <chi0v>
11.620015

>  <chi0v_C>
8.1188021

>  <chi0_C>
9.6983061

>  <chi1>
9.6310301

>  <chi1v>
6.5610061

>  <chi1v_C>
4.3480763

>  <chi1_C>
6.1742344

>  <chiral>
0

>  <chiral_u>
0

>  <density>
0.91237551

>  <diameter>
11

>  <FCharge>
0

>  <GCUT_PEOE_0>
-0.75544006

>  <GCUT_PEOE_1>
-0.41123337

>  <GCUT_PEOE_2>
0.048540756

>  <GCUT_PEOE_3>
2.3065903

>  <GCUT_SLOGP_0>
-0.7115764

>  <GCUT_SLOGP_1>
-0.26386139

>  <GCUT_SLOGP_2>
0.30013698

>  <GCUT_SLOGP_3>
2.5255952

>  <GCUT_SMR_0>
-0.40595832

>  <GCUT_SMR_1>
-0.21605732

>  <GCUT_SMR_2>
0.34556335

>  <GCUT_SMR_3>
2.6298664

>  <Kier1>
14.917356

>  <Kier2>
6.405827

>  <Kier3>
3.4425001

>  <KierA1>
12.170885

>  <KierA2>
5.1665654

>  <KierA3>
2.7531793

>  <KierFlex>
3.1440837

>  <lip_acc>
2

>  <lip_don>
0

>  <lip_druglike>
1

>  <lip_violation>
1

>  <logP(o/w)>
5.125

>  <logS>
-5.51969

>  <mr>
7.8984165

>  <mutagenic>
0

>  <nmol>
1

>  <opr_brigid>
17

>  <opr_leadlike>
1

>  <opr_nring>
3

>  <opr_nrot>
2

>  <opr_violation>
1

>  <PC+>
0

>  <PC->
0

>  <PEOE_PC+>
0.91874784

>  <PEOE_PC->
-0.91874784

>  <PEOE_RPC+>
0.15267879

>  <PEOE_RPC->
0.33377817

>  <PEOE_VSA+0>
110.65946

>  <PEOE_VSA+1>
17.947584

>  <PEOE_VSA+2>
46.237389

>  <PEOE_VSA+3>
0

>  <PEOE_VSA+4>
0

>  <PEOE_VSA+5>
0

>  <PEOE_VSA+6>
0

>  <PEOE_VSA-0>
0

>  <PEOE_VSA-1>
59.163895

>  <PEOE_VSA-2>
0

>  <PEOE_VSA-3>
0

>  <PEOE_VSA-4>
17.591211

>  <PEOE_VSA-5>
0

>  <PEOE_VSA-6>
2.503756

>  <PEOE_VSA_FHYD>
0.92091811

>  <PEOE_VSA_FNEG>
0.3119159

>  <PEOE_VSA_FPNEG>
0.079081886

>  <PEOE_VSA_FPOL>
0.079081886

>  <PEOE_VSA_FPOS>
0.68808407

>  <PEOE_VSA_FPPOS>
0

>  <PEOE_VSA_HYD>
234.00833

>  <PEOE_VSA_NEG>
79.258865

>  <PEOE_VSA_PNEG>
20.094967

>  <PEOE_VSA_POL>
20.094967

>  <PEOE_VSA_POS>
174.84444

>  <PEOE_VSA_PPOS>
0

>  <petitjean>
0.45454547

>  <petitjeanSC>
0.83333331

>  <Q_PC+>
0

>  <Q_PC->
0

>  <Q_RPC+>
0

>  <Q_RPC->
0

>  <Q_VSA_FHYD>
1

>  <Q_VSA_FNEG>
0

>  <Q_VSA_FPNEG>
0

>  <Q_VSA_FPOL>
0

>  <Q_VSA_FPOS>
1

>  <Q_VSA_FPPOS>
0

>  <Q_VSA_HYD>
254.1033

>  <Q_VSA_NEG>
0

>  <Q_VSA_PNEG>
0

>  <Q_VSA_POL>
0

>  <Q_VSA_POS>
254.1033

>  <Q_VSA_PPOS>
0

>  <radius>
6

>  <reactive>
0

>  <rings>
3

>  <RPC+>
0

>  <RPC->
0

>  <rsynth>
1

>  <SlogP>
5.473

>  <SlogP_VSA0>
10.999887

>  <SlogP_VSA1>
16.78553

>  <SlogP_VSA2>
9.1210184

>  <SlogP_VSA3>
0

>  <SlogP_VSA4>
0

>  <SlogP_VSA5>
0

>  <SlogP_VSA6>
7.0012131

>  <SlogP_VSA7>
145.43375

>  <SlogP_VSA8>
0

>  <SlogP_VSA9>
103.74426

>  <SMR>
7.8237

>  <SMR_VSA0>
0

>  <SMR_VSA1>
42.745529

>  <SMR_VSA2>
9.1210184

>  <SMR_VSA3>
17.48807

>  <SMR_VSA4>
4.7171016

>  <SMR_VSA5>
140.71664

>  <SMR_VSA6>
0

>  <SMR_VSA7>
78.297287

>  <TPSA>
22.120001

>  <VAdjEq>
0.49991596

>  <VAdjMa>
5.4594316

>  <VDistEq>
3.1387982

>  <VDistMa>
8.3440123

>  <vdw_area>
254.1033

>  <vdw_vol>
328.89417

>  <vsa_acc>
5.6825762

>  <vsa_acid>
0

>  <vsa_base>
0

>  <vsa_don>
0

>  <vsa_hyd>
245.91696

>  <vsa_other>
2.503756

>  <vsa_pol>
5.6825762

>  <Weight>
308.13898

>  <weinerPath>
809

>  <weinerPol>
31

>  <zagreb>
106

$$$$
ClC1=C(C(=C(C(=C1Cl)Cl)Cl)Cl)[N+](=O)[O-]
  MOE2011           2D

 14 14  0  0  0  0  0  0  0  0999 V2000
    0.0000    0.0000    0.0000 Cl  0  0  0  0  0  0  0  0  0  0  0  0
    0.7500    1.2990    0.0000 C   0  0  0  0  0  0  0  0  0  0  0  0
    0.0000    2.5980    0.0000 C   0  0  0  0  0  0  0  0  0  0  0  0
    0.7500    3.8970    0.0000 C   0  0  0  0  0  0  0  0  0  0  0  0
    2.2500    3.8970    0.0000 C   0  0  0  0  0  0  0  0  0  0  0  0
    3.0000    2.5980    0.0000 C   0  0  0  0  0  0  0  0  0  0  0  0
    2.2500    1.2990    0.0000 C   0  0  0  0  0  0  0  0  0  0  0  0
    3.0000    0.0000    0.0000 Cl  0  0  0  0  0  0  0  0  0  0  0  0
    4.5000    2.5980    0.0000 Cl  0  0  0  0  0  0  0  0  0  0  0  0
    3.0000    5.1960    0.0000 Cl  0  0  0  0  0  0  0  0  0  0  0  0
    0.0000    5.1960    0.0000 Cl  0  0  0  0  0  0  0  0  0  0  0  0
   -1.5000    2.5980    0.0000 N   0  3  0  0  0  0  0  0  0  0  0  0
   -2.2500    3.8970    0.0000 O   0  0  0  0  0  0  0  0  0  0  0  0
   -2.2500    1.2990    0.0000 O   0  5  0  0  0  0  0  0  0  0  0  0
  1  2  1  0  0  0  0
  2  3  1  0  0  0  0
  2  7  2  0  0  0  0
  3  4  2  0  0  0  0
  3 12  1  0  0  0  0
  4  5  1  0  0  0  0
  4 11  1  0  0  0  0
  5  6  2  0  0  0  0
  5 10  1  0  0  0  0
  6  7  1  0  0  0  0
  6  9  1  0  0  0  0
  7  8  1  0  0  0  0
 12 13  2  0  0  0  0
 12 14  1  0  0  0  0
M  CHG  1  12   1
M  CHG  1  14  -1
M  END
>  <DSSTox_RID>
40551

>  <DSSTox_CID>
1105

>  <apol>
24.164

>  <a_acc>
0

>  <a_acid>
0

>  <a_aro>
6

>  <a_base>
0

>  <a_count>
14

>  <a_don>
0

>  <a_heavy>
14

>  <a_hyd>
12

>  <a_IC>
24.183554

>  <a_ICM>
1.7273967

>  <a_nB>
0

>  <a_nBr>
0

>  <a_nC>
6

>  <a_nCl>
5

>  <a_nF>
0

>  <a_nH>
0

>  <a_nI>
0

>  <a_nN>
1

>  <a_nO>
2

>  <a_nP>
0

>  <a_nS>
0

>  <balabanJ>
2.8979475

>  <BCUT_PEOE_0>
-2.0472825

>  <BCUT_PEOE_1>
-0.6581232

>  <BCUT_PEOE_2>
0.60721517

>  <BCUT_PEOE_3>
2.2573109

>  <BCUT_SLOGP_0>
-1.9241073

>  <BCUT_SLOGP_1>
-0.090867147

>  <BCUT_SLOGP_2>
1.2014475

>  <BCUT_SLOGP_3>
2.4619064

>  <BCUT_SMR_0>
-1.7907156

>  <BCUT_SMR_1>
-0.11666401

>  <BCUT_SMR_2>
1.1523359

>  <BCUT_SMR_3>
2.5211775

>  <bpol>
3.3559999

>  <b_1rotN>
1

>  <b_1rotR>
0.071428575

>  <b_ar>
6

>  <b_count>
14

>  <b_double>
1

>  <b_heavy>
14

>  <b_rotN>
1

>  <b_rotR>
0.071428575

>  <b_single>
7

>  <b_triple>
0

>  <chi0>
11.041451

>  <chi0v>
9.933177

>  <chi0v_C>
3

>  <chi0_C>
3.4641016

>  <chi1>
6.3747854

>  <chi1v>
4.9234886

>  <chi1v_C>
1.5

>  <chi1_C>
2

>  <chiral>
0

>  <chiral_u>
0

>  <density>
1.2699802

>  <diameter>
6

>  <FCharge>
0

>  <GCUT_PEOE_0>
-0.67148644

>  <GCUT_PEOE_1>
-0.41559252

>  <GCUT_PEOE_2>
-0.014507221

>  <GCUT_PEOE_3>
1.9998536

>  <GCUT_SLOGP_0>
-0.80901057

>  <GCUT_SLOGP_1>
-0.06240024

>  <GCUT_SLOGP_2>
0.65101141

>  <GCUT_SLOGP_3>
2.2520154

>  <GCUT_SMR_0>
-0.4904438

>  <GCUT_SMR_1>
0.099984162

>  <GCUT_SMR_2>
0.58469802

>  <GCUT_SMR_3>
2.3042686

>  <Kier1>
12.071428

>  <Kier2>
4.2448978

>  <Kier3>
2.0204082

>  <KierA1>
15.506604

>  <KierA2>
5.5600615

>  <KierA3>
2.6857738

>  <KierFlex>
6.1584048

>  <lip_acc>
3

>  <lip_don>
0

>  <lip_druglike>
1

>  <lip_violation>
0

>  <logP(o/w)>
4.789

>  <logS>
-5.84656

>  <mr>
5.4013982

>  <mutagenic>
1

>  <nmol>
1

>  <opr_brigid>
6

>  <opr_leadlike>
1

>  <opr_nring>
1

>  <opr_nrot>
1

>  <opr_violation>
1

>  <PC+>
0

>  <PC->
0

>  <PEOE_PC+>
0.90719187

>  <PEOE_PC->
-0.90719187

>  <PEOE_RPC+>
0.3419953

>  <PEOE_RPC->
0.28467247

>  <PEOE_VSA+0>
0

>  <PEOE_VSA+1>
17.587273

>  <PEOE_VSA+2>
9.0394926

>  <PEOE_VSA+3>
0

>  <PEOE_VSA+4>
0

>  <PEOE_VSA+5>
0

>  <PEOE_VSA+6>
6.6995511

>  <PEOE_VSA-0>
0

>  <PEOE_VSA-1>
147.90973

>  <PEOE_VSA-2>
0

>  <PEOE_VSA-3>
0

>  <PEOE_VSA-4>
0

>  <PEOE_VSA-5>
33.931049

>  <PEOE_VSA-6>
0

>  <PEOE_VSA_FHYD>
0.81116724

>  <PEOE_VSA_FNEG>
0.84511423

>  <PEOE_VSA_FPNEG>
0.15769626

>  <PEOE_VSA_FPOL>
0.18883277

>  <PEOE_VSA_FPOS>
0.15488575

>  <PEOE_VSA_FPPOS>
0.031136503

>  <PEOE_VSA_HYD>
174.5365

>  <PEOE_VSA_NEG>
181.84079

>  <PEOE_VSA_PNEG>
33.931049

>  <PEOE_VSA_POL>
40.6306

>  <PEOE_VSA_POS>
33.326317

>  <PEOE_VSA_PPOS>
6.6995511

>  <petitjean>
0.33333334

>  <petitjeanSC>
0.5

>  <Q_PC+>
0

>  <Q_PC->
0

>  <Q_RPC+>
0

>  <Q_RPC->
0

>  <Q_VSA_FHYD>
1

>  <Q_VSA_FNEG>
0

>  <Q_VSA_FPNEG>
0

>  <Q_VSA_FPOL>
0

>  <Q_VSA_FPOS>
1

>  <Q_VSA_FPPOS>
0

>  <Q_VSA_HYD>
215.1671

>  <Q_VSA_NEG>
0

>  <Q_VSA_PNEG>
0

>  <Q_VSA_POL>
0

>  <Q_VSA_POS>
215.1671

>  <Q_VSA_PPOS>
0

>  <radius>
4

>  <reactive>
0

>  <rings>
1

>  <RPC+>
0

>  <RPC->
0

>  <rsynth>
1

>  <SlogP>
4.8618002

>  <SlogP_VSA0>
0

>  <SlogP_VSA1>
7.0856161

>  <SlogP_VSA2>
0

>  <SlogP_VSA3>
50.935009

>  <SlogP_VSA4>
0

>  <SlogP_VSA5>
0

>  <SlogP_VSA6>
17.503033

>  <SlogP_VSA7>
0

>  <SlogP_VSA8>
0

>  <SlogP_VSA9>
198.49997

>  <SMR>
5.81464

>  <SMR_VSA0>
7.0856161

>  <SMR_VSA1>
0

>  <SMR_VSA2>
50.935009

>  <SMR_VSA3>
17.503033

>  <SMR_VSA4>
2.7567475

>  <SMR_VSA5>
0

>  <SMR_VSA6>
0

>  <SMR_VSA7>
195.74323

>  <TPSA>
45.82

>  <VAdjEq>
0.59167278

>  <VAdjMa>
4.8073549

>  <VDistEq>
2.34729

>  <VDistMa>
7.3631845

>  <vdw_area>
215.1671

>  <vdw_vol>
232.55165

>  <vsa_acc>
0

>  <vsa_acid>
0

>  <vsa_base>
0

>  <vsa_don>
0

>  <vsa_hyd>
181.23605

>  <vsa_other>
33.931049

>  <vsa_pol>
0

>  <Weight>
295.336

>  <weinerPath>
268

>  <weinerPol>
25

>  <zagreb>
70

$$$$
CCOC(=O)C(C)Oc1ccc(cc1)Oc2cnc3cc(Cl)ccc3n2
  MOE2011           2D

 26 28  0  0  1  0  0  0  0  0999 V2000
    0.0000    0.0000    0.0000 C   0  0  0  0  0  0  0  0  0  0  0  0
   -1.3020    0.7440    0.0000 C   0  0  0  0  0  0  0  0  0  0  0  0
   -2.5980   -0.0120    0.0000 O   0  0  0  0  0  0  0  0  0  0  0  0
   -3.9000    0.7320    0.0000 C   0  0  0  0  0  0  0  0  0  0  0  0
   -3.9070    2.2320    0.0000 O   0  0  0  0  0  0  0  0  0  0  0  0
   -5.1960   -0.0230    0.0000 C   0  0  3  0  0  0  0  0  0  0  0  0
   -5.1890   -1.5230    0.0000 C   0  0  0  0  0  0  0  0  0  0  0  0
   -6.4990    0.7210    0.0000 O   0  0  0  0  0  0  0  0  0  0  0  0
   -7.7940   -0.0350    0.0000 C   0  0  0  0  0  0  0  0  0  0  0  0
   -7.7870   -1.5350    0.0000 C   0  0  0  0  0  0  0  0  0  0  0  0
   -9.0830   -2.2910    0.0000 C   0  0  0  0  0  0  0  0  0  0  0  0
  -10.3850   -1.5470    0.0000 C   0  0  0  0  0  0  0  0  0  0  0  0
  -10.3920   -0.0470    0.0000 C   0  0  0  0  0  0  0  0  0  0  0  0
   -9.0970    0.7090    0.0000 C   0  0  0  0  0  0  0  0  0  0  0  0
  -11.6810   -2.3030    0.0000 O   0  0  0  0  0  0  0  0  0  0  0  0
  -12.9830   -1.5590    0.0000 C   0  0  0  0  0  0  0  0  0  0  0  0
  -12.9900   -0.0590    0.0000 C   0  0  0  0  0  0  0  0  0  0  0  0
  -14.2930    0.6850    0.0000 N   0  0  0  0  0  0  0  0  0  0  0  0
  -15.5880   -0.0700    0.0000 C   0  0  0  0  0  0  0  0  0  0  0  0
  -16.8910    0.6740    0.0000 C   0  0  0  0  0  0  0  0  0  0  0  0
  -18.1860   -0.0820    0.0000 C   0  0  0  0  0  0  0  0  0  0  0  0
  -19.4890    0.6620    0.0000 Cl  0  0  0  0  0  0  0  0  0  0  0  0
  -18.1800   -1.5820    0.0000 C   0  0  0  0  0  0  0  0  0  0  0  0
  -16.8770   -2.3260    0.0000 C   0  0  0  0  0  0  0  0  0  0  0  0
  -15.5820   -1.5700    0.0000 C   0  0  0  0  0  0  0  0  0  0  0  0
  -14.2790   -2.3150    0.0000 N   0  0  0  0  0  0  0  0  0  0  0  0
  1  2  1  0  0  0  0
  2  3  1  0  0  0  0
  3  4  1  0  0  0  0
  4  5  2  0  0  0  0
  4  6  1  0  0  0  0
  6  7  1  0  0  0  0
  6  8  1  0  0  0  0
  8  9  1  0  0  0  0
  9 10  1  0  0  0  0
  9 14  2  0  0  0  0
 10 11  2  0  0  0  0
 11 12  1  0  0  0  0
 12 13  2  0  0  0  0
 12 15  1  0  0  0  0
 13 14  1  0  0  0  0
 15 16  1  0  0  0  0
 16 17  1  0  0  0  0
 16 26  2  0  0  0  0
 17 18  2  0  0  0  0
 18 19  1  0  0  0  0
 19 20  1  0  0  0  0
 19 25  2  0  0  0  0
 20 21  2  0  0  0  0
 21 22  1  0  0  0  0
 21 23  1  0  0  0  0
 23 24  2  0  0  0  0
 24 25  1  0  0  0  0
 25 26  1  0  0  0  0
M  END
>  <DSSTox_RID>
40589

>  <DSSTox_CID>
3889

>  <apol>
52.36348

>  <a_acc>
4

>  <a_acid>
0

>  <a_aro>
16

>  <a_base>
0

>  <a_count>
43

>  <a_don>
0

>  <a_heavy>
26

>  <a_hyd>
18

>  <a_IC>
73.131897

>  <a_ICM>
1.7007416

>  <a_nB>
0

>  <a_nBr>
0

>  <a_nC>
19

>  <a_nCl>
1

>  <a_nF>
0

>  <a_nH>
17

>  <a_nI>
0

>  <a_nN>
2

>  <a_nO>
4

>  <a_nP>
0

>  <a_nS>
0

>  <balabanJ>
1.3565136

>  <BCUT_PEOE_0>
-2.4416041

>  <BCUT_PEOE_1>
-0.63737106

>  <BCUT_PEOE_2>
0.62600529

>  <BCUT_PEOE_3>
2.4917982

>  <BCUT_SLOGP_0>
-2.5438037

>  <BCUT_SLOGP_1>
-0.53807992

>  <BCUT_SLOGP_2>
0.73012918

>  <BCUT_SLOGP_3>
2.4496651

>  <BCUT_SMR_0>
-2.2177925

>  <BCUT_SMR_1>
-0.40767837

>  <BCUT_SMR_2>
0.85431087

>  <BCUT_SMR_3>
2.7053027

>  <bpol>
28.350519

>  <b_1rotN>
6

>  <b_1rotR>
0.21428572

>  <b_ar>
17

>  <b_count>
45

>  <b_double>
1

>  <b_heavy>
28

>  <b_rotN>
7

>  <b_rotR>
0.25

>  <b_single>
27

>  <b_triple>
0

>  <chi0>
18.518297

>  <chi0v>
15.064573

>  <chi0v_C>
11.403259

>  <chi0_C>
12.982763

>  <chi1>
12.546045

>  <chi1v>
8.4621725

>  <chi1v_C>
5.4212084

>  <chi1_C>
7.1253581

>  <chiral>
1

>  <chiral_u>
1

>  <density>
0.84924376

>  <diameter>
17

>  <FCharge>
0

>  <GCUT_PEOE_0>
-0.76601815

>  <GCUT_PEOE_1>
-0.38172868

>  <GCUT_PEOE_2>
0.046372123

>  <GCUT_PEOE_3>
2.399703

>  <GCUT_SLOGP_0>
-0.93331516

>  <GCUT_SLOGP_1>
-0.30925781

>  <GCUT_SLOGP_2>
0.135997

>  <GCUT_SLOGP_3>
2.5305066

>  <GCUT_SMR_0>
-0.51570112

>  <GCUT_SMR_1>
-0.19815794

>  <GCUT_SMR_2>
0.19305076

>  <GCUT_SMR_3>
2.676755

>  <Kier1>
20.727041

>  <Kier2>
9.9722996

>  <Kier3>
5.9972839

>  <KierA1>
16.185303

>  <KierA2>
7.7048759

>  <KierA3>
4.5985532

>  <KierFlex>
4.7963748

>  <lip_acc>
6

>  <lip_don>
0

>  <lip_druglike>
1

>  <lip_violation>
0

>  <logP(o/w)>
4.2062702

>  <logS>
-4.6253099

>  <mr>
10.006844

>  <mutagenic>
0

>  <nmol>
1

>  <opr_brigid>
17

>  <opr_leadlike>
1

>  <opr_nring>
3

>  <opr_nrot>
6

>  <opr_violation>
0

>  <PC+>
0

>  <PC->
0

>  <PEOE_PC+>
1.7116207

>  <PEOE_PC->
-1.7116207

>  <PEOE_RPC+>
0.17510757

>  <PEOE_RPC->
0.18861417

>  <PEOE_VSA+0>
169.47636

>  <PEOE_VSA+1>
19.677816

>  <PEOE_VSA+2>
35.457577

>  <PEOE_VSA+3>
22.058474

>  <PEOE_VSA+4>
21.408051

>  <PEOE_VSA+5>
14.708499

>  <PEOE_VSA+6>
0

>  <PEOE_VSA-0>
0

>  <PEOE_VSA-1>
29.581947

>  <PEOE_VSA-2>
0

>  <PEOE_VSA-3>
0

>  <PEOE_VSA-4>
11.365152

>  <PEOE_VSA-5>
18.574432

>  <PEOE_VSA-6>
2.503756

>  <PEOE_VSA_FHYD>
0.80116737

>  <PEOE_VSA_FNEG>
0.17988144

>  <PEOE_VSA_FPNEG>
0.094089925

>  <PEOE_VSA_FPOL>
0.19883263

>  <PEOE_VSA_FPOS>
0.82011855

>  <PEOE_VSA_FPPOS>
0.10474271

>  <PEOE_VSA_HYD>
276.25217

>  <PEOE_VSA_NEG>
62.025288

>  <PEOE_VSA_PNEG>
32.44334

>  <PEOE_VSA_POL>
68.559891

>  <PEOE_VSA_POS>
282.78677

>  <PEOE_VSA_PPOS>
36.11655

>  <petitjean>
0.47058824

>  <petitjeanSC>
0.8888889

>  <Q_PC+>
0

>  <Q_PC->
0

>  <Q_RPC+>
0

>  <Q_RPC->
0

>  <Q_VSA_FHYD>
1

>  <Q_VSA_FNEG>
0

>  <Q_VSA_FPNEG>
0

>  <Q_VSA_FPOL>
0

>  <Q_VSA_FPOS>
1

>  <Q_VSA_FPPOS>
0

>  <Q_VSA_HYD>
344.81207

>  <Q_VSA_NEG>
0

>  <Q_VSA_PNEG>
0

>  <Q_VSA_POL>
0

>  <Q_VSA_POS>
344.81207

>  <Q_VSA_PPOS>
0

>  <radius>
9

>  <reactive>
0

>  <rings>
3

>  <RPC+>
0

>  <RPC->
0

>  <rsynth>
1

>  <SlogP>
4.4059

>  <SlogP_VSA0>
21.999775

>  <SlogP_VSA1>
41.316525

>  <SlogP_VSA2>
41.330753

>  <SlogP_VSA3>
20.926258

>  <SlogP_VSA4>
0

>  <SlogP_VSA5>
0

>  <SlogP_VSA6>
3.5006065

>  <SlogP_VSA7>
145.00493

>  <SlogP_VSA8>
0

>  <SlogP_VSA9>
121.10213

>  <SMR>
9.7786999

>  <SMR_VSA0>
34.862103

>  <SMR_VSA1>
55.570835

>  <SMR_VSA2>
0

>  <SMR_VSA3>
25.270712

>  <SMR_VSA4>
4.2882738

>  <SMR_VSA5>
140.71664

>  <SMR_VSA6>
28.671722

>  <SMR_VSA7>
105.80067

>  <TPSA>
70.540001

>  <VAdjEq>
0.41210872

>  <VAdjMa>
5.8073549

>  <VDistEq>
3.7924581

>  <VDistMa>
9.0507088

>  <vdw_area>
344.81207

>  <vdw_vol>
418.81024

>  <vsa_acc>
27.435829

>  <vsa_acid>
0

>  <vsa_base>
0

>  <vsa_don>
0

>  <vsa_hyd>
284.71069

>  <vsa_other>
32.665543

>  <vsa_pol>
27.435829

>  <Weight>
372.80798

>  <weinerPath>
2011

>  <weinerPol>
38

>  <zagreb>
132

$$$$
CC(C)=CC1C(C)(C)C1C(=O)OCC2=COC(CC3=CC=CC=C3)=C2
  MOE2011           2D

 25 27  0  0  1  0  0  0  0  0999 V2000
    0.0000    0.0000    0.0000 C   0  0  0  0  0  0  0  0  0  0  0  0
   -1.2950    0.7570    0.0000 C   0  0  0  0  0  0  0  0  0  0  0  0
   -1.2870    2.2570    0.0000 C   0  0  0  0  0  0  0  0  0  0  0  0
   -2.5980    0.0130    0.0000 C   0  0  0  0  0  0  0  0  0  0  0  0
   -3.8930    0.7700    0.0000 C   0  0  3  0  0  0  0  0  0  0  0  0
   -4.6360    2.0730    0.0000 C   0  0  0  0  0  0  0  0  0  0  0  0
   -5.5430    3.2680    0.0000 C   0  0  0  0  0  0  0  0  0  0  0  0
   -3.7170    3.2580    0.0000 C   0  0  0  0  0  0  0  0  0  0  0  0
   -5.3930    0.7780    0.0000 C   0  0  3  0  0  0  0  0  0  0  0  0
   -6.6960    0.0340    0.0000 C   0  0  0  0  0  0  0  0  0  0  0  0
   -6.7040   -1.4650    0.0000 O   0  0  0  0  0  0  0  0  0  0  0  0
   -7.9910    0.7910    0.0000 O   0  0  0  0  0  0  0  0  0  0  0  0
   -9.2940    0.0480    0.0000 C   0  0  0  0  0  0  0  0  0  0  0  0
  -10.5890    0.8050    0.0000 C   0  0  0  0  0  0  0  0  0  0  0  0
  -10.7380    2.2970    0.0000 C   0  0  0  0  0  0  0  0  0  0  0  0
  -12.2040    2.6170    0.0000 O   0  0  0  0  0  0  0  0  0  0  0  0
  -12.9610    1.3210    0.0000 C   0  0  0  0  0  0  0  0  0  0  0  0
  -14.4530    1.1720    0.0000 C   0  0  0  0  0  0  0  0  0  0  0  0
  -15.3290    2.3900    0.0000 C   0  0  0  0  0  0  0  0  0  0  0  0
  -16.8210    2.2410    0.0000 C   0  0  0  0  0  0  0  0  0  0  0  0
  -17.6970    3.4590    0.0000 C   0  0  0  0  0  0  0  0  0  0  0  0
  -17.0790    4.8260    0.0000 C   0  0  0  0  0  0  0  0  0  0  0  0
  -15.5870    4.9760    0.0000 C   0  0  0  0  0  0  0  0  0  0  0  0
  -14.7110    3.7580    0.0000 C   0  0  0  0  0  0  0  0  0  0  0  0
  -11.9630    0.2020    0.0000 C   0  0  0  0  0  0  0  0  0  0  0  0
  1  2  1  0  0  0  0
  2  3  1  0  0  0  0
  2  4  2  0  0  0  0
  4  5  1  0  0  0  0
  5  6  1  0  0  0  0
  5  9  1  0  0  0  0
  6  7  1  0  0  0  0
  6  8  1  0  0  0  0
  6  9  1  0  0  0  0
  9 10  1  0  0  0  0
 10 11  2  0  0  0  0
 10 12  1  0  0  0  0
 12 13  1  0  0  0  0
 13 14  1  0  0  0  0
 14 15  2  0  0  0  0
 14 25  1  0  0  0  0
 15 16  1  0  0  0  0
 16 17  1  0  0  0  0
 17 18  1  0  0  0  0
 17 25  2  0  0  0  0
 18 19  1  0  0  0  0
 19 20  1  0  0  0  0
 19 24  2  0  0  0  0
 20 21  2  0  0  0  0
 21 22  1  0  0  0  0
 22 23  2  0  0  0  0
 23 24  1  0  0  0  0
M  END
>  <DSSTox_RID>
40590

>  <DSSTox_CID>
2253

>  <apol>
58.46262

>  <a_acc>
1

>  <a_acid>
0

>  <a_aro>
11

>  <a_base>
0

>  <a_count>
51

>  <a_don>
0

>  <a_heavy>
25

>  <a_hyd>
19

>  <a_IC>
64.219879

>  <a_ICM>
1.2592132

>  <a_nB>
0

>  <a_nBr>
0

>  <a_nC>
22

>  <a_nCl>
0

>  <a_nF>
0

>  <a_nH>
26

>  <a_nI>
0

>  <a_nN>
0

>  <a_nO>
3

>  <a_nP>
0

>  <a_nS>
0

>  <balabanJ>
1.3644385

>  <BCUT_PEOE_0>
-2.4780095

>  <BCUT_PEOE_1>
-0.48373887

>  <BCUT_PEOE_2>
0.45715299

>  <BCUT_PEOE_3>
2.8981705

>  <BCUT_SLOGP_0>
-2.3877771

>  <BCUT_SLOGP_1>
-0.32031137

>  <BCUT_SLOGP_2>
0.58563262

>  <BCUT_SLOGP_3>
2.9254439

>  <BCUT_SMR_0>
-2.2336092

>  <BCUT_SMR_1>
-0.29168186

>  <BCUT_SMR_2>
0.65289783

>  <BCUT_SMR_3>
3.135304

>  <bpol>
33.213383

>  <b_1rotN>
6

>  <b_1rotR>
0.22222222

>  <b_ar>
11

>  <b_count>
53

>  <b_double>
2

>  <b_heavy>
27

>  <b_rotN>
7

>  <b_rotR>
0.25925925

>  <b_single>
40

>  <b_triple>
0

>  <chi0>
18.026733

>  <chi0v>
15.412461

>  <chi0v_C>
14.187716

>  <chi0_C>
15.612519

>  <chi1>
11.875048

>  <chi1v>
8.7954865

>  <chi1v_C>
7.6587362

>  <chi1_C>
9.4812002

>  <chiral>
2

>  <chiral_u>
2

>  <density>
0.74339259

>  <diameter>
15

>  <FCharge>
0

>  <GCUT_PEOE_0>
-0.84619939

>  <GCUT_PEOE_1>
-0.3649914

>  <GCUT_PEOE_2>
-0.015454425

>  <GCUT_PEOE_3>
2.6565554

>  <GCUT_SLOGP_0>
-0.84552217

>  <GCUT_SLOGP_1>
-0.23915423

>  <GCUT_SLOGP_2>
0.095919512

>  <GCUT_SLOGP_3>
2.7382472

>  <GCUT_SMR_0>
-0.51023293

>  <GCUT_SMR_1>
-0.18069398

>  <GCUT_SMR_2>
0.15269533

>  <GCUT_SMR_3>
2.8965118

>  <Kier1>
19.753086

>  <Kier2>
8.3471403

>  <Kier3>
4.6464

>  <KierA1>
15.559336

>  <KierA2>
6.5051656

>  <KierA3>
3.5921671

>  <KierFlex>
4.0486426

>  <lip_acc>
3

>  <lip_don>
0

>  <lip_druglike>
1

>  <lip_violation>
1

>  <logP(o/w)>
4.197

>  <logS>
-5.9990501

>  <mr>
10.045697

>  <mutagenic>
0

>  <nmol>
1

>  <opr_brigid>
15

>  <opr_leadlike>
1

>  <opr_nring>
3

>  <opr_nrot>
6

>  <opr_violation>
1

>  <PC+>
0

>  <PC->
0

>  <PEOE_PC+>
1.1203228

>  <PEOE_PC->
-1.1203228

>  <PEOE_RPC+>
0.24278329

>  <PEOE_RPC->
0.40577608

>  <PEOE_VSA+0>
137.85938

>  <PEOE_VSA+1>
18.017035

>  <PEOE_VSA+2>
8.458519

>  <PEOE_VSA+3>
44.116947

>  <PEOE_VSA+4>
0

>  <PEOE_VSA+5>
14.708499

>  <PEOE_VSA+6>
0

>  <PEOE_VSA-0>
99.268044

>  <PEOE_VSA-1>
0

>  <PEOE_VSA-2>
0

>  <PEOE_VSA-3>
0

>  <PEOE_VSA-4>
0

>  <PEOE_VSA-5>
16.070677

>  <PEOE_VSA-6>
2.503756

>  <PEOE_VSA_FHYD>
0.90239692

>  <PEOE_VSA_FNEG>
0.34557623

>  <PEOE_VSA_FPNEG>
0.054470021

>  <PEOE_VSA_FPOL>
0.09760309

>  <PEOE_VSA_FPOS>
0.65442377

>  <PEOE_VSA_FPPOS>
0.043133069

>  <PEOE_VSA_HYD>
307.71991

>  <PEOE_VSA_NEG>
117.84248

>  <PEOE_VSA_PNEG>
18.574432

>  <PEOE_VSA_POL>
33.282932

>  <PEOE_VSA_POS>
223.16037

>  <PEOE_VSA_PPOS>
14.708499

>  <petitjean>
0.46666667

>  <petitjeanSC>
0.875

>  <Q_PC+>
0

>  <Q_PC->
0

>  <Q_RPC+>
0

>  <Q_RPC->
0

>  <Q_VSA_FHYD>
1

>  <Q_VSA_FNEG>
0

>  <Q_VSA_FPNEG>
0

>  <Q_VSA_FPOL>
0

>  <Q_VSA_FPOS>
1

>  <Q_VSA_FPPOS>
0

>  <Q_VSA_HYD>
341.00287

>  <Q_VSA_NEG>
0

>  <Q_VSA_PNEG>
0

>  <Q_VSA_POL>
0

>  <Q_VSA_POS>
341.00287

>  <Q_VSA_PPOS>
0

>  <radius>
8

>  <reactive>
0

>  <rings>
3

>  <RPC+>
0

>  <RPC->
0

>  <rsynth>
0.51999998

>  <SlogP>
5.4183698

>  <SlogP_VSA0>
0

>  <SlogP_VSA1>
7.7454643

>  <SlogP_VSA2>
34.862103

>  <SlogP_VSA3>
0

>  <SlogP_VSA4>
20.641563

>  <SlogP_VSA5>
31.561327

>  <SlogP_VSA6>
0

>  <SlogP_VSA7>
143.40872

>  <SlogP_VSA8>
0

>  <SlogP_VSA9>
154.23032

>  <SMR>
9.8149004

>  <SMR_VSA0>
44.36945

>  <SMR_VSA1>
0

>  <SMR_VSA2>
8.8215923

>  <SMR_VSA3>
15.005546

>  <SMR_VSA4>
0

>  <SMR_VSA5>
183.20338

>  <SMR_VSA6>
7.7454643

>  <SMR_VSA7>
133.30406

>  <TPSA>
39.439999

>  <VAdjEq>
0.42433795

>  <VAdjMa>
5.7548876

>  <VDistEq>
3.7014751

>  <VDistMa>
8.9529943

>  <vdw_area>
341.00287

>  <vdw_vol>
420.01898

>  <vsa_acc>
13.566921

>  <vsa_acid>
0

>  <vsa_base>
0

>  <vsa_don>
0

>  <vsa_hyd>
277.20294

>  <vsa_other>
50.233006

>  <vsa_pol>
13.566921

>  <Weight>
338.44699

>  <weinerPath>
1786

>  <weinerPol>
31

>  <zagreb>
132

$$$$
O=C([C@](C(C=C4OC)=C(C=C4OC)OC3)([H])[C@]3([H])O2)C(C=C5)=C2C1=C5O[C@@H]([C@@](C)=C)C1
  MOE2011           2D

 31 35  0  0  1  0  0  0  0  0999 V2000
    0.0000    0.0000    0.0000 O   0  0  0  0  0  0  0  0  0  0  0  0
    0.7410   -1.3040    0.0000 C   0  0  0  0  0  0  0  0  0  0  0  0
   -0.0180   -2.5980    0.0000 C   0  0  1  0  0  0  0  0  0  0  0  0
   -1.5180   -2.5880    0.0000 C   0  0  0  0  0  0  0  0  0  0  0  0
   -2.2590   -1.2840    0.0000 C   0  0  0  0  0  0  0  0  0  0  0  0
   -3.7590   -1.2730    0.0000 C   0  0  0  0  0  0  0  0  0  0  0  0
   -4.5000    0.0310    0.0000 O   0  0  0  0  0  0  0  0  0  0  0  0
   -3.7410    1.3250    0.0000 C   0  0  0  0  0  0  0  0  0  0  0  0
   -2.2770   -3.8820    0.0000 C   0  0  0  0  0  0  0  0  0  0  0  0
   -3.7770   -3.8710    0.0000 C   0  0  0  0  0  0  0  0  0  0  0  0
   -4.5180   -2.5670    0.0000 C   0  0  0  0  0  0  0  0  0  0  0  0
   -6.0180   -2.5570    0.0000 O   0  0  0  0  0  0  0  0  0  0  0  0
   -6.7760   -3.8510    0.0000 C   0  0  0  0  0  0  0  0  0  0  0  0
   -1.5350   -5.1860    0.0000 O   0  0  0  0  0  0  0  0  0  0  0  0
   -0.0350   -5.1960    0.0000 C   0  0  0  0  0  0  0  0  0  0  0  0
   -0.6180   -1.5590    0.0000 H   0  0  0  0  0  0  0  0  0  0  0  0
    0.7230   -3.9020    0.0000 C   0  0  1  0  0  0  0  0  0  0  0  0
    1.3230   -4.9410    0.0000 H   0  0  0  0  0  0  0  0  0  0  0  0
    2.2230   -3.9120    0.0000 O   0  0  0  0  0  0  0  0  0  0  0  0
    2.2410   -1.3140    0.0000 C   0  0  0  0  0  0  0  0  0  0  0  0
    3.0000   -0.0200    0.0000 C   0  0  0  0  0  0  0  0  0  0  0  0
    4.5000   -0.0310    0.0000 C   0  0  0  0  0  0  0  0  0  0  0  0
    2.9820   -2.6190    0.0000 C   0  0  0  0  0  0  0  0  0  0  0  0
    4.4820   -2.6290    0.0000 C   0  0  0  0  0  0  0  0  0  0  0  0
    5.2410   -1.3350    0.0000 C   0  0  0  0  0  0  0  0  0  0  0  0
    6.7060   -1.6570    0.0000 O   0  0  0  0  0  0  0  0  0  0  0  0
    6.8530   -3.1500    0.0000 C   0  0  1  0  0  0  0  0  0  0  0  0
    8.1470   -3.9080    0.0000 C   0  0  0  0  0  0  0  0  0  0  0  0
    8.1360   -5.4080    0.0000 C   0  0  0  0  0  0  0  0  0  0  0  0
    9.4510   -3.1670    0.0000 C   0  0  0  0  0  0  0  0  0  0  0  0
    5.4780   -3.7500    0.0000 C   0  0  0  0  0  0  0  0  0  0  0  0
  1  2  2  0  0  0  0
  2  3  1  0  0  0  0
  2 20  1  0  0  0  0
  3  4  1  6  0  0  0
  3 16  1  1  0  0  0
  3 17  1  0  0  0  0
  4  5  2  0  0  0  0
  4  9  1  0  0  0  0
  5  6  1  0  0  0  0
  6  7  1  0  0  0  0
  6 11  2  0  0  0  0
  7  8  1  0  0  0  0
  9 10  2  0  0  0  0
  9 14  1  0  0  0  0
 10 11  1  0  0  0  0
 11 12  1  0  0  0  0
 12 13  1  0  0  0  0
 14 15  1  0  0  0  0
 17 15  1  6  0  0  0
 17 18  1  1  0  0  0
 17 19  1  0  0  0  0
 19 23  1  0  0  0  0
 20 21  2  0  0  0  0
 20 23  1  0  0  0  0
 21 22  1  0  0  0  0
 22 25  2  0  0  0  0
 23 24  2  0  0  0  0
 24 25  1  0  0  0  0
 24 31  1  0  0  0  0
 25 26  1  0  0  0  0
 26 27  1  0  0  0  0
 27 28  1  1  0  0  0
 27 31  1  0  0  0  0
 28 29  1  0  0  0  0
 28 30  2  0  0  0  0
M  END
>  <DSSTox_RID>
40592

>  <DSSTox_CID>
1248

>  <apol>
59.961445

>  <a_acc>
6

>  <a_acid>
0

>  <a_aro>
12

>  <a_base>
0

>  <a_count>
51

>  <a_don>
0

>  <a_heavy>
29

>  <a_hyd>
22

>  <a_IC>
71.634499

>  <a_ICM>
1.404598

>  <a_nB>
0

>  <a_nBr>
0

>  <a_nC>
23

>  <a_nCl>
0

>  <a_nF>
0

>  <a_nH>
22

>  <a_nI>
0

>  <a_nN>
0

>  <a_nO>
6

>  <a_nP>
0

>  <a_nS>
0

>  <balabanJ>
1.3500746

>  <BCUT_PEOE_0>
-2.600791

>  <BCUT_PEOE_1>
-0.55839258

>  <BCUT_PEOE_2>
0.49257571

>  <BCUT_PEOE_3>
2.6730392

>  <BCUT_SLOGP_0>
-2.6968074

>  <BCUT_SLOGP_1>
-0.48930001

>  <BCUT_SLOGP_2>
0.6000759

>  <BCUT_SLOGP_3>
2.6639473

>  <BCUT_SMR_0>
-2.3631136

>  <BCUT_SMR_1>
-0.32682481

>  <BCUT_SMR_2>
0.69419485

>  <BCUT_SMR_3>
2.913425

>  <bpol>
34.588554

>  <b_1rotN>
3

>  <b_1rotR>
0.090909094

>  <b_ar>
12

>  <b_count>
55

>  <b_double>
2

>  <b_heavy>
33

>  <b_rotN>
3

>  <b_rotR>
0.090909094

>  <b_single>
41

>  <b_triple>
0

>  <chi0>
20.283728

>  <chi0v>
16.612263

>  <chi0v_C>
14.162772

>  <chi0_C>
15.748194

>  <chi1>
14.01157

>  <chi1v>
9.5896673

>  <chi1v_C>
6.7883463

>  <chi1_C>
8.6622686

>  <chiral>
3

>  <chiral_u>
0

>  <density>
0.8128314

>  <diameter>
14

>  <FCharge>
0

>  <GCUT_PEOE_0>
-0.78572237

>  <GCUT_PEOE_1>
-0.43323097

>  <GCUT_PEOE_2>
-0.019005418

>  <GCUT_PEOE_3>
2.835288

>  <GCUT_SLOGP_0>
-0.9404614

>  <GCUT_SLOGP_1>
-0.34855363

>  <GCUT_SLOGP_2>
0.11787844

>  <GCUT_SLOGP_3>
2.9201875

>  <GCUT_SMR_0>
-0.50864291

>  <GCUT_SMR_1>
-0.20310614

>  <GCUT_SMR_2>
0.126399

>  <GCUT_SMR_3>
3.0982275

>  <Kier1>
20.877869

>  <Kier2>
8.1647997

>  <Kier3>
3.4565377

>  <KierA1>
16.532173

>  <KierA2>
6.4080372

>  <KierA3>
2.6950665

>  <KierFlex>
3.6530612

>  <lip_acc>
6

>  <lip_don>
0

>  <lip_druglike>
1

>  <lip_violation>
0

>  <logP(o/w)>
3.11374

>  <logS>
-4.6403499

>  <mr>
10.555151

>  <mutagenic>
0

>  <nmol>
1

>  <opr_brigid>
25

>  <opr_leadlike>
1

>  <opr_nring>
5

>  <opr_nrot>
3

>  <opr_violation>
1

>  <PC+>
0

>  <PC->
0

>  <PEOE_PC+>
1.9592388

>  <PEOE_PC->
-1.9592388

>  <PEOE_RPC+>
0.092503302

>  <PEOE_RPC->
0.17163269

>  <PEOE_VSA+0>
101.32489

>  <PEOE_VSA+1>
47.657978

>  <PEOE_VSA+2>
30.280487

>  <PEOE_VSA+3>
101.83385

>  <PEOE_VSA+4>
0

>  <PEOE_VSA+5>
0

>  <PEOE_VSA+6>
0

>  <PEOE_VSA-0>
31.616989

>  <PEOE_VSA-1>
0

>  <PEOE_VSA-2>
0

>  <PEOE_VSA-3>
0

>  <PEOE_VSA-4>
0

>  <PEOE_VSA-5>
13.566921

>  <PEOE_VSA-6>
12.518781

>  <PEOE_VSA_FHYD>
0.92300558

>  <PEOE_VSA_FNEG>
0.17031495

>  <PEOE_VSA_FPNEG>
0.076994419

>  <PEOE_VSA_FPOL>
0.076994419

>  <PEOE_VSA_FPOS>
0.82968503

>  <PEOE_VSA_FPPOS>
0

>  <PEOE_VSA_HYD>
312.7142

>  <PEOE_VSA_NEG>
57.70269

>  <PEOE_VSA_PNEG>
26.085701

>  <PEOE_VSA_POL>
26.085701

>  <PEOE_VSA_POS>
281.0972

>  <PEOE_VSA_PPOS>
0

>  <petitjean>
0.5

>  <petitjeanSC>
1

>  <Q_PC+>
0

>  <Q_PC->
0

>  <Q_RPC+>
0

>  <Q_RPC->
0

>  <Q_VSA_FHYD>
1

>  <Q_VSA_FNEG>
0

>  <Q_VSA_FPNEG>
0

>  <Q_VSA_FPOL>
0

>  <Q_VSA_FPOS>
1

>  <Q_VSA_FPPOS>
0

>  <Q_VSA_HYD>
338.7999

>  <Q_VSA_NEG>
0

>  <Q_VSA_PNEG>
0

>  <Q_VSA_POL>
0

>  <Q_VSA_POS>
338.7999

>  <Q_VSA_PPOS>
0

>  <radius>
7

>  <reactive>
0

>  <rings>
5

>  <RPC+>
0

>  <RPC->
0

>  <rsynth>
0.55172414

>  <SlogP>
3.70327

>  <SlogP_VSA0>
54.999439

>  <SlogP_VSA1>
5.6876111

>  <SlogP_VSA2>
12.937299

>  <SlogP_VSA3>
20.926258

>  <SlogP_VSA4>
33.418941

>  <SlogP_VSA5>
92.821716

>  <SlogP_VSA6>
4.4107962

>  <SlogP_VSA7>
70.572739

>  <SlogP_VSA8>
0

>  <SlogP_VSA9>
91.643951

>  <SMR>
10.59045

>  <SMR_VSA0>
23.862217

>  <SMR_VSA1>
54.999439

>  <SMR_VSA2>
0

>  <SMR_VSA3>
56.307533

>  <SMR_VSA4>
0

>  <SMR_VSA5>
89.441139

>  <SMR_VSA6>
26.613869

>  <SMR_VSA7>
136.19455

>  <TPSA>
63.220001

>  <VAdjEq>
0.39679351

>  <VAdjMa>
6.044394

>  <VDistEq>
3.4797344

>  <VDistMa>
9.4239254

>  <vdw_area>
338.7999

>  <vdw_vol>
460.44357

>  <vsa_acc>
26.085701

>  <vsa_acid>
0

>  <vsa_base>
0

>  <vsa_don>
0

>  <vsa_hyd>
301.48703

>  <vsa_other>
8.458519

>  <vsa_pol>
26.085701

>  <Weight>
394.423

>  <weinerPath>
2115

>  <weinerPol>
57

>  <zagreb>
166

$$$$
O=C1C(/C(CCC)=N/OCC)=C(O)CC(CC(SCC)C)C1
  MOE2011           2D

 22 22  0  0  1  0  0  0  0  0999 V2000
    0.0000    0.0000    0.0000 O   0  0  0  0  0  0  0  0  0  0  0  0
    0.7560   -1.2960    0.0000 C   0  0  0  0  0  0  0  0  0  0  0  0
    0.0120   -2.5980    0.0000 C   0  0  0  0  0  0  0  0  0  0  0  0
   -1.4880   -2.6050    0.0000 C   0  0  0  0  0  0  0  0  0  0  0  0
   -2.2440   -1.3090    0.0000 C   0  0  0  0  0  0  0  0  0  0  0  0
   -3.7440   -1.3160    0.0000 C   0  0  0  0  0  0  0  0  0  0  0  0
   -4.5000   -0.0210    0.0000 C   0  0  0  0  0  0  0  0  0  0  0  0
   -2.2320   -3.9070    0.0000 N   0  0  0  0  0  0  0  0  0  0  0  0
   -3.7320   -3.9140    0.0000 O   0  0  0  0  0  0  0  0  0  0  0  0
   -4.4760   -5.2170    0.0000 C   0  0  0  0  0  0  0  0  0  0  0  0
   -5.9760   -5.2240    0.0000 C   0  0  0  0  0  0  0  0  0  0  0  0
    0.7680   -3.8940    0.0000 C   0  0  0  0  0  0  0  0  0  0  0  0
    0.0240   -5.1960    0.0000 O   0  0  0  0  0  0  0  0  0  0  0  0
    2.2680   -3.8870    0.0000 C   0  0  0  0  0  0  0  0  0  0  0  0
    3.0120   -2.5840    0.0000 C   0  0  3  0  0  0  0  0  0  0  0  0
    4.5120   -2.5770    0.0000 C   0  0  0  0  0  0  0  0  0  0  0  0
    5.2560   -1.2750    0.0000 C   0  0  3  0  0  0  0  0  0  0  0  0
    6.7560   -1.2680    0.0000 S   0  0  0  0  0  0  0  0  0  0  0  0
    7.5000    0.0350    0.0000 C   0  0  0  0  0  0  0  0  0  0  0  0
    9.0000    0.0420    0.0000 C   0  0  0  0  0  0  0  0  0  0  0  0
    4.5000    0.0210    0.0000 C   0  0  0  0  0  0  0  0  0  0  0  0
    2.2560   -1.2890    0.0000 C   0  0  0  0  0  0  0  0  0  0  0  0
  1  2  2  0  0  0  0
  2  3  1  0  0  0  0
  2 22  1  0  0  0  0
  3  4  1  0  0  0  0
  3 12  2  0  0  0  0
  4  5  1  0  0  0  0
  4  8  2  0  0  0  0
  5  6  1  0  0  0  0
  6  7  1  0  0  0  0
  8  9  1  0  0  0  0
  9 10  1  0  0  0  0
 10 11  1  0  0  0  0
 12 13  1  0  0  0  0
 12 14  1  0  0  0  0
 14 15  1  0  0  0  0
 15 16  1  0  0  0  0
 15 22  1  0  0  0  0
 16 17  1  0  0  0  0
 17 18  1  0  0  0  0
 17 21  1  0  0  0  0
 18 19  1  0  0  0  0
 19 20  1  0  0  0  0
M  END
>  <DSSTox_RID>
40593

>  <DSSTox_CID>
4304

>  <apol>
55.662998

>  <a_acc>
3

>  <a_acid>
0

>  <a_aro>
0

>  <a_base>
0

>  <a_count>
51

>  <a_don>
2

>  <a_heavy>
22

>  <a_hyd>
16

>  <a_IC>
74.170486

>  <a_ICM>
1.4543233

>  <a_nB>
0

>  <a_nBr>
0

>  <a_nC>
17

>  <a_nCl>
0

>  <a_nF>
0

>  <a_nH>
29

>  <a_nI>
0

>  <a_nN>
1

>  <a_nO>
3

>  <a_nP>
0

>  <a_nS>
1

>  <balabanJ>
2.6046941

>  <BCUT_PEOE_0>
-2.711766

>  <BCUT_PEOE_1>
-0.1858124

>  <BCUT_PEOE_2>
0.15246125

>  <BCUT_PEOE_3>
2.7033579

>  <BCUT_SLOGP_0>
-2.6476338

>  <BCUT_SLOGP_1>
-0.077837229

>  <BCUT_SLOGP_2>
0.31713259

>  <BCUT_SLOGP_3>
2.7790272

>  <BCUT_SMR_0>
-2.4549329

>  <BCUT_SMR_1>
-0.0005016232

>  <BCUT_SMR_2>
0.42325112

>  <BCUT_SMR_3>
2.9709945

>  <bpol>
36.857002

>  <b_1rotN>
9

>  <b_1rotR>
0.40909091

>  <b_ar>
0

>  <b_count>
51

>  <b_double>
3

>  <b_heavy>
22

>  <b_rotN>
9

>  <b_rotR>
0.40909091

>  <b_single>
48

>  <b_triple>
0

>  <chi0>
16.53517

>  <chi0v>
15.040116

>  <chi0v_C>
12.104448

>  <chi0_C>
12.413849

>  <chi1>
10.527606

>  <chi1v>
9.3380432

>  <chi1v_C>
6.642324

>  <chi1_C>
7.0564089

>  <chiral>
2

>  <chiral_u>
2

>  <density>
0.79866368

>  <diameter>
13

>  <FCharge>
0

>  <GCUT_PEOE_0>
-0.78372502

>  <GCUT_PEOE_1>
-0.28898203

>  <GCUT_PEOE_2>
-0.089944147

>  <GCUT_PEOE_3>
2.7436917

>  <GCUT_SLOGP_0>
-0.81474119

>  <GCUT_SLOGP_1>
-0.23716402

>  <GCUT_SLOGP_2>
0.012153238

>  <GCUT_SLOGP_3>
2.8167529

>  <GCUT_SMR_0>
-0.52878052

>  <GCUT_SMR_1>
-0.099542469

>  <GCUT_SMR_2>
0.13950397

>  <GCUT_SMR_3>
2.9963663

>  <Kier1>
20.045454

>  <Kier2>
10.714286

>  <Kier3>
6.5743942

>  <KierA1>
19.047207

>  <KierA2>
10.154922

>  <KierA3>
6.2197227

>  <KierFlex>
8.7919493

>  <lip_acc>
4

>  <lip_don>
1

>  <lip_druglike>
1

>  <lip_violation>
0

>  <logP(o/w)>
4.125

>  <logS>
-3.5589199

>  <mr>
9.3115129

>  <mutagenic>
0

>  <nmol>
1

>  <opr_brigid>
7

>  <opr_leadlike>
1

>  <opr_nring>
1

>  <opr_nrot>
10

>  <opr_violation>
1

>  <PC+>
0

>  <PC->
0

>  <PEOE_PC+>
0.99904662

>  <PEOE_PC->
-0.99904662

>  <PEOE_RPC+>
0.17636834

>  <PEOE_RPC->
0.29151687

>  <PEOE_VSA+0>
171.45242

>  <PEOE_VSA+1>
58.309635

>  <PEOE_VSA+2>
8.458519

>  <PEOE_VSA+3>
30.516994

>  <PEOE_VSA+4>
0

>  <PEOE_VSA+5>
0

>  <PEOE_VSA+6>
0

>  <PEOE_VSA-0>
0

>  <PEOE_VSA-1>
0

>  <PEOE_VSA-2>
30.64588

>  <PEOE_VSA-3>
13.566921

>  <PEOE_VSA-4>
5.9023595

>  <PEOE_VSA-5>
13.566921

>  <PEOE_VSA-6>
0

>  <PEOE_VSA_FHYD>
0.94143164

>  <PEOE_VSA_FNEG>
0.19157134

>  <PEOE_VSA_FPNEG>
0.058568377

>  <PEOE_VSA_FPOL>
0.058568377

>  <PEOE_VSA_FPOS>
0.80842865

>  <PEOE_VSA_FPPOS>
0

>  <PEOE_VSA_HYD>
312.95038

>  <PEOE_VSA_NEG>
63.682079

>  <PEOE_VSA_PNEG>
19.46928

>  <PEOE_VSA_POL>
19.46928

>  <PEOE_VSA_POS>
268.73758

>  <PEOE_VSA_PPOS>
0

>  <petitjean>
0.46153846

>  <petitjeanSC>
0.85714287

>  <Q_PC+>
0

>  <Q_PC->
0

>  <Q_RPC+>
0

>  <Q_RPC->
0

>  <Q_VSA_FHYD>
1

>  <Q_VSA_FNEG>
0

>  <Q_VSA_FPNEG>
0

>  <Q_VSA_FPOL>
0

>  <Q_VSA_FPOS>
1

>  <Q_VSA_FPPOS>
0

>  <Q_VSA_HYD>
332.41965

>  <Q_VSA_NEG>
0

>  <Q_VSA_PNEG>
0

>  <Q_VSA_POL>
0

>  <Q_VSA_POS>
332.41965

>  <Q_VSA_PPOS>
0

>  <radius>
7

>  <reactive>
1

>  <rings>
1

>  <RPC+>
0

>  <RPC->
0

>  <rsynth>
1

>  <SlogP>
4.5019002

>  <SlogP_VSA0>
0

>  <SlogP_VSA1>
8.4443588

>  <SlogP_VSA2>
37.856934

>  <SlogP_VSA3>
63.545048

>  <SlogP_VSA4>
4.4107962

>  <SlogP_VSA5>
27.828865

>  <SlogP_VSA6>
0

>  <SlogP_VSA7>
0

>  <SlogP_VSA8>
94.342026

>  <SlogP_VSA9>
165.52361

>  <SMR>
9.3566799

>  <SMR_VSA0>
35.080978

>  <SMR_VSA1>
19.399862

>  <SMR_VSA2>
29.796022

>  <SMR_VSA3>
11.204958

>  <SMR_VSA4>
0

>  <SMR_VSA5>
94.342026

>  <SMR_VSA6>
46.604183

>  <SMR_VSA7>
165.52361

>  <TPSA>
58.889999

>  <VAdjEq>
0.43949699

>  <VAdjMa>
5.4594316

>  <VDistEq>
3.3768213

>  <VDistMa>
8.6194649

>  <vdw_area>
332.41965

>  <vdw_vol>
373.44504

>  <vsa_acc>
10.885262

>  <vsa_acid>
0

>  <vsa_base>
0

>  <vsa_don>
0

>  <vsa_hyd>
273.34012

>  <vsa_other>
21.060431

>  <vsa_pol>
38.019104

>  <Weight>
327.48898

>  <weinerPath>
1139

>  <weinerPol>
31

>  <zagreb>
100

$$$$
ClC1=NC(=NC(=N1)NCC)NCC
  MOE2011           2D

 13 13  0  0  0  0  0  0  0  0999 V2000
    0.0000    0.0000    0.0000 Cl  0  0  0  0  0  0  0  0  0  0  0  0
    0.0000   -1.5000    0.0000 C   0  0  0  0  0  0  0  0  0  0  0  0
    1.2990   -2.2500    0.0000 N   0  0  0  0  0  0  0  0  0  0  0  0
    1.2990   -3.7500    0.0000 C   0  0  0  0  0  0  0  0  0  0  0  0
    0.0000   -4.5000    0.0000 N   0  0  0  0  0  0  0  0  0  0  0  0
   -1.2990   -3.7500    0.0000 C   0  0  0  0  0  0  0  0  0  0  0  0
   -1.2990   -2.2500    0.0000 N   0  0  0  0  0  0  0  0  0  0  0  0
   -2.5980   -4.5000    0.0000 N   0  0  0  0  0  0  0  0  0  0  0  0
   -3.8970   -3.7500    0.0000 C   0  0  0  0  0  0  0  0  0  0  0  0
   -5.1960   -4.5000    0.0000 C   0  0  0  0  0  0  0  0  0  0  0  0
    2.5980   -4.5000    0.0000 N   0  0  0  0  0  0  0  0  0  0  0  0
    3.8970   -3.7500    0.0000 C   0  0  0  0  0  0  0  0  0  0  0  0
    5.1960   -4.5000    0.0000 C   0  0  0  0  0  0  0  0  0  0  0  0
  1  2  1  0  0  0  0
  2  3  1  0  0  0  0
  2  7  2  0  0  0  0
  3  4  2  0  0  0  0
  4  5  1  0  0  0  0
  4 11  1  0  0  0  0
  5  6  2  0  0  0  0
  6  7  1  0  0  0  0
  6  8  1  0  0  0  0
  8  9  1  0  0  0  0
  9 10  1  0  0  0  0
 11 12  1  0  0  0  0
 12 13  1  0  0  0  0
M  END
>  <DSSTox_RID>
40298

>  <DSSTox_CID>
1268

>  <apol>
28.001516

>  <a_acc>
3

>  <a_acid>
0

>  <a_aro>
6

>  <a_base>
0

>  <a_count>
25

>  <a_don>
2

>  <a_heavy>
13

>  <a_hyd>
5

>  <a_IC>
41.815731

>  <a_ICM>
1.6726292

>  <a_nB>
0

>  <a_nBr>
0

>  <a_nC>
7

>  <a_nCl>
1

>  <a_nF>
0

>  <a_nH>
12

>  <a_nI>
0

>  <a_nN>
5

>  <a_nO>
0

>  <a_nP>
0

>  <a_nS>
0

>  <balabanJ>
2.3531728

>  <BCUT_PEOE_0>
-2.4568288

>  <BCUT_PEOE_1>
-0.53556401

>  <BCUT_PEOE_2>
0.51415765

>  <BCUT_PEOE_3>
2.3933401

>  <BCUT_SLOGP_0>
-2.5137906

>  <BCUT_SLOGP_1>
-0.5917086

>  <BCUT_SLOGP_2>
0.56107271

>  <BCUT_SLOGP_3>
2.3969693

>  <BCUT_SMR_0>
-2.182857

>  <BCUT_SMR_1>
-0.29710317

>  <BCUT_SMR_2>
0.6970861

>  <BCUT_SMR_3>
2.6694107

>  <bpol>
18.818483

>  <b_1rotN>
4

>  <b_1rotR>
0.30769232

>  <b_ar>
6

>  <b_count>
25

>  <b_double>
0

>  <b_heavy>
13

>  <b_rotN>
4

>  <b_rotR>
0.30769232

>  <b_single>
19

>  <b_triple>
0

>  <chi0>
9.681798

>  <chi0v>
8.3897476

>  <chi0v_C>
4.9142137

>  <chi0_C>
5.1462646

>  <chi1>
6.2575502

>  <chi1v>
4.5299077

>  <chi1v_C>
1.4142135

>  <chi1_C>
1.4142135

>  <chiral>
0

>  <chiral_u>
0

>  <density>
0.90006357

>  <diameter>
8

>  <FCharge>
0

>  <GCUT_PEOE_0>
-0.80389863

>  <GCUT_PEOE_1>
-0.4516905

>  <GCUT_PEOE_2>
0.06333214

>  <GCUT_PEOE_3>
2.1420543

>  <GCUT_SLOGP_0>
-0.98505741

>  <GCUT_SLOGP_1>
-0.44577527

>  <GCUT_SLOGP_2>
0.1615649

>  <GCUT_SLOGP_3>
2.1823103

>  <GCUT_SMR_0>
-0.50821751

>  <GCUT_SMR_1>
-0.20438236

>  <GCUT_SMR_2>
0.18572329

>  <GCUT_SMR_3>
2.4126399

>  <Kier1>
11.076923

>  <Kier2>
5.671875

>  <Kier3>
3.7037036

>  <KierA1>
9.0929546

>  <KierA2>
4.5724111

>  <KierA3>
2.9401011

>  <KierFlex>
3.1982095

>  <lip_acc>
5

>  <lip_don>
2

>  <lip_druglike>
1

>  <lip_violation>
0

>  <logP(o/w)>
0.14300001

>  <logS>
-3.2370501

>  <mr>
5.1315184

>  <mutagenic>
0

>  <nmol>
1

>  <opr_brigid>
6

>  <opr_leadlike>
1

>  <opr_nring>
1

>  <opr_nrot>
4

>  <opr_violation>
0

>  <PC+>
0

>  <PC->
0

>  <PEOE_PC+>
0.9139595

>  <PEOE_PC->
-0.9139595

>  <PEOE_RPC+>
0.24968781

>  <PEOE_RPC->
0.20330049

>  <PEOE_VSA+0>
58.816898

>  <PEOE_VSA+1>
40.59901

>  <PEOE_VSA+2>
0

>  <PEOE_VSA+3>
0

>  <PEOE_VSA+4>
44.864918

>  <PEOE_VSA+5>
0

>  <PEOE_VSA+6>
0

>  <PEOE_VSA-0>
29.581947

>  <PEOE_VSA-1>
0

>  <PEOE_VSA-2>
0

>  <PEOE_VSA-3>
28.41288

>  <PEOE_VSA-4>
0

>  <PEOE_VSA-5>
0

>  <PEOE_VSA-6>
0

>  <PEOE_VSA_FHYD>
0.77819914

>  <PEOE_VSA_FNEG>
0.28671184

>  <PEOE_VSA_FPNEG>
0

>  <PEOE_VSA_FPOL>
0.22180088

>  <PEOE_VSA_FPOS>
0.71328813

>  <PEOE_VSA_FPPOS>
0.22180088

>  <PEOE_VSA_HYD>
157.41074

>  <PEOE_VSA_NEG>
57.994827

>  <PEOE_VSA_PNEG>
0

>  <PEOE_VSA_POL>
44.864918

>  <PEOE_VSA_POS>
144.28082

>  <PEOE_VSA_PPOS>
44.864918

>  <petitjean>
0.5

>  <petitjeanSC>
1

>  <Q_PC+>
0

>  <Q_PC->
0

>  <Q_RPC+>
0

>  <Q_RPC->
0

>  <Q_VSA_FHYD>
1

>  <Q_VSA_FNEG>
0

>  <Q_VSA_FPNEG>
0

>  <Q_VSA_FPOL>
0

>  <Q_VSA_FPOS>
1

>  <Q_VSA_FPPOS>
0

>  <Q_VSA_HYD>
202.27565

>  <Q_VSA_NEG>
0

>  <Q_VSA_PNEG>
0

>  <Q_VSA_POL>
0

>  <Q_VSA_POS>
202.27565

>  <Q_VSA_PPOS>
0

>  <radius>
4

>  <reactive>
0

>  <rings>
1

>  <RPC+>
0

>  <RPC->
0

>  <rsynth>
1

>  <SlogP>
1.3886

>  <SlogP_VSA0>
0

>  <SlogP_VSA1>
86.37809

>  <SlogP_VSA2>
0

>  <SlogP_VSA3>
36.879158

>  <SlogP_VSA4>
0

>  <SlogP_VSA5>
0

>  <SlogP_VSA6>
2.6429517

>  <SlogP_VSA7>
0

>  <SlogP_VSA8>
0

>  <SlogP_VSA9>
109.59886

>  <SMR>
5.3164401

>  <SMR_VSA0>
0

>  <SMR_VSA1>
50.35659

>  <SMR_VSA2>
0

>  <SMR_VSA3>
2.6429517

>  <SMR_VSA4>
39.819687

>  <SMR_VSA5>
0

>  <SMR_VSA6>
36.879158

>  <SMR_VSA7>
105.80067

>  <TPSA>
62.73

>  <VAdjEq>
0.6193822

>  <VAdjMa>
4.7004399

>  <VDistEq>
2.7099817

>  <VDistMa>
7.0866327

>  <vdw_area>
202.27565

>  <vdw_vol>
210.61288

>  <vsa_acc>
17.047728

>  <vsa_acid>
0

>  <vsa_base>
0

>  <vsa_don>
11.365152

>  <vsa_hyd>
128.99786

>  <vsa_other>
44.864918

>  <vsa_pol>
28.41288

>  <Weight>
201.661

>  <weinerPath>
260

>  <weinerPol>
15

>  <zagreb>
58

$$$$
O=C2OC1(C(OC(C(CC)(C)C)=O)=C2C3=CC(Cl)=CC(Cl)=C3)CCCCC1
  MOE2011           2D

 27 29  0  0  0  0  0  0  0  0999 V2000
    0.0000    0.0000    0.0000 O   0  0  0  0  0  0  0  0  0  0  0  0
   -1.2950    0.7560    0.0000 C   0  0  0  0  0  0  0  0  0  0  0  0
   -2.6690    0.1530    0.0000 O   0  0  0  0  0  0  0  0  0  0  0  0
   -3.6670    1.2720    0.0000 C   0  0  0  0  0  0  0  0  0  0  0  0
   -2.9110    2.5680    0.0000 C   0  0  0  0  0  0  0  0  0  0  0  0
   -3.5140    3.9410    0.0000 O   0  0  0  0  0  0  0  0  0  0  0  0
   -5.0050    4.1050    0.0000 C   0  0  0  0  0  0  0  0  0  0  0  0
   -5.6090    5.4780    0.0000 C   0  0  0  0  0  0  0  0  0  0  0  0
   -6.2120    6.8510    0.0000 C   0  0  0  0  0  0  0  0  0  0  0  0
   -7.7030    7.0150    0.0000 C   0  0  0  0  0  0  0  0  0  0  0  0
   -6.9820    4.8740    0.0000 C   0  0  0  0  0  0  0  0  0  0  0  0
   -4.2360    6.0820    0.0000 C   0  0  0  0  0  0  0  0  0  0  0  0
   -5.8930    2.8950    0.0000 O   0  0  0  0  0  0  0  0  0  0  0  0
   -1.4450    2.2490    0.0000 C   0  0  0  0  0  0  0  0  0  0  0  0
   -0.3260    3.2470    0.0000 C   0  0  0  0  0  0  0  0  0  0  0  0
    1.0990    2.7770    0.0000 C   0  0  0  0  0  0  0  0  0  0  0  0
    2.2180    3.7750    0.0000 C   0  0  0  0  0  0  0  0  0  0  0  0
    3.6430    3.3050    0.0000 Cl  0  0  0  0  0  0  0  0  0  0  0  0
    1.9130    5.2440    0.0000 C   0  0  0  0  0  0  0  0  0  0  0  0
    0.4890    5.7140    0.0000 C   0  0  0  0  0  0  0  0  0  0  0  0
    0.1840    7.1830    0.0000 Cl  0  0  0  0  0  0  0  0  0  0  0  0
   -0.6300    4.7160    0.0000 C   0  0  0  0  0  0  0  0  0  0  0  0
   -4.2840   -0.0950    0.0000 C   0  0  0  0  0  0  0  0  0  0  0  0
   -5.7760   -0.2450    0.0000 C   0  0  0  0  0  0  0  0  0  0  0  0
   -6.6520    0.9730    0.0000 C   0  0  0  0  0  0  0  0  0  0  0  0
   -6.0350    2.3400    0.0000 C   0  0  0  0  0  0  0  0  0  0  0  0
   -4.5430    2.4900    0.0000 C   0  0  0  0  0  0  0  0  0  0  0  0
  1  2  2  0  0  0  0
  2  3  1  0  0  0  0
  2 14  1  0  0  0  0
  3  4  1  0  0  0  0
  4  5  1  0  0  0  0
  4 23  1  0  0  0  0
  4 27  1  0  0  0  0
  5  6  1  0  0  0  0
  5 14  2  0  0  0  0
  6  7  1  0  0  0  0
  7  8  1  0  0  0  0
  7 13  2  0  0  0  0
  8  9  1  0  0  0  0
  8 11  1  0  0  0  0
  8 12  1  0  0  0  0
  9 10  1  0  0  0  0
 14 15  1  0  0  0  0
 15 16  1  0  0  0  0
 15 22  2  0  0  0  0
 16 17  2  0  0  0  0
 17 18  1  0  0  0  0
 17 19  1  0  0  0  0
 19 20  2  0  0  0  0
 20 21  1  0  0  0  0
 20 22  1  0  0  0  0
 23 24  1  0  0  0  0
 24 25  1  0  0  0  0
 25 26  1  0  0  0  0
 26 27  1  0  0  0  0
M  END
>  <DSSTox_RID>
40596

>  <DSSTox_CID>
14928

>  <apol>
60.531033

>  <a_acc>
2

>  <a_acid>
0

>  <a_aro>
6

>  <a_base>
0

>  <a_count>
51

>  <a_don>
0

>  <a_heavy>
27

>  <a_hyd>
21

>  <a_IC>
77.01593

>  <a_ICM>
1.5101162

>  <a_nB>
0

>  <a_nBr>
0

>  <a_nC>
21

>  <a_nCl>
2

>  <a_nF>
0

>  <a_nH>
24

>  <a_nI>
0

>  <a_nN>
0

>  <a_nO>
4

>  <a_nP>
0

>  <a_nS>
0

>  <balabanJ>
1.8747995

>  <BCUT_PEOE_0>
-2.7600381

>  <BCUT_PEOE_1>
-0.48768041

>  <BCUT_PEOE_2>
0.5487873

>  <BCUT_PEOE_3>
2.7778089

>  <BCUT_SLOGP_0>
-2.6879549

>  <BCUT_SLOGP_1>
-0.33559185

>  <BCUT_SLOGP_2>
0.70290947

>  <BCUT_SLOGP_3>
2.8560295

>  <BCUT_SMR_0>
-2.5249569

>  <BCUT_SMR_1>
-0.19234352

>  <BCUT_SMR_2>
0.83575803

>  <BCUT_SMR_3>
3.0136683

>  <bpol>
32.824966

>  <b_1rotN>
4

>  <b_1rotR>
0.13793103

>  <b_ar>
6

>  <b_count>
53

>  <b_double>
3

>  <b_heavy>
29

>  <b_rotN>
5

>  <b_rotR>
0.1724138

>  <b_single>
44

>  <b_triple>
0

>  <chi0>
19.819626

>  <chi0v>
17.375471

>  <chi0v_C>
13.474691

>  <chi0_C>
14.405413

>  <chi1>
12.682306

>  <chi1v>
10.108456

>  <chi1v_C>
7.7498178

>  <chi1_C>
8.7946072

>  <chiral>
0

>  <chiral_u>
0

>  <density>
0.86726141

>  <diameter>
10

>  <FCharge>
0

>  <GCUT_PEOE_0>
-0.78584564

>  <GCUT_PEOE_1>
-0.41755193

>  <GCUT_PEOE_2>
-0.015187073

>  <GCUT_PEOE_3>
2.8697569

>  <GCUT_SLOGP_0>
-0.85082984

>  <GCUT_SLOGP_1>
-0.23303425

>  <GCUT_SLOGP_2>
0.057092555

>  <GCUT_SLOGP_3>
2.9418468

>  <GCUT_SMR_0>
-0.52994066

>  <GCUT_SMR_1>
-0.11069822

>  <GCUT_SMR_2>
0.2097065

>  <GCUT_SMR_3>
3.1095238

>  <Kier1>
21.702734

>  <Kier2>
8.3935947

>  <Kier3>
4.4518433

>  <KierA1>
19.950987

>  <KierA2>
7.6901164

>  <KierA3>
4.0685363

>  <KierFlex>
5.6824226

>  <lip_acc>
4

>  <lip_don>
0

>  <lip_druglike>
1

>  <lip_violation>
1

>  <logP(o/w)>
7.1170001

>  <logS>
-6.8806601

>  <mr>
10.698019

>  <mutagenic>
0

>  <nmol>
1

>  <opr_brigid>
17

>  <opr_leadlike>
1

>  <opr_nring>
3

>  <opr_nrot>
6

>  <opr_violation>
1

>  <PC+>
0

>  <PC->
0

>  <PEOE_PC+>
1.2619746

>  <PEOE_PC->
-1.2619746

>  <PEOE_RPC+>
0.23585014

>  <PEOE_RPC->
0.23510562

>  <PEOE_VSA+0>
232.71034

>  <PEOE_VSA+1>
11.248033

>  <PEOE_VSA+2>
8.458519

>  <PEOE_VSA+3>
0

>  <PEOE_VSA+4>
0

>  <PEOE_VSA+5>
29.416998

>  <PEOE_VSA+6>
0

>  <PEOE_VSA-0>
0

>  <PEOE_VSA-1>
59.163895

>  <PEOE_VSA-2>
0

>  <PEOE_VSA-3>
0

>  <PEOE_VSA-4>
0

>  <PEOE_VSA-5>
32.141354

>  <PEOE_VSA-6>
0

>  <PEOE_VSA_FHYD>
0.83502573

>  <PEOE_VSA_FNEG>
0.2446949

>  <PEOE_VSA_FPNEG>
0.086137719

>  <PEOE_VSA_FPOL>
0.16497426

>  <PEOE_VSA_FPOS>
0.75530511

>  <PEOE_VSA_FPPOS>
0.078836538

>  <PEOE_VSA_HYD>
311.58078

>  <PEOE_VSA_NEG>
91.305244

>  <PEOE_VSA_PNEG>
32.141354

>  <PEOE_VSA_POL>
61.558353

>  <PEOE_VSA_POS>
281.83389

>  <PEOE_VSA_PPOS>
29.416998

>  <petitjean>
0.5

>  <petitjeanSC>
1

>  <Q_PC+>
0

>  <Q_PC->
0

>  <Q_RPC+>
0

>  <Q_RPC->
0

>  <Q_VSA_FHYD>
1

>  <Q_VSA_FNEG>
0

>  <Q_VSA_FPNEG>
0

>  <Q_VSA_FPOL>
0

>  <Q_VSA_FPOS>
1

>  <Q_VSA_FPPOS>
0

>  <Q_VSA_HYD>
373.13913

>  <Q_VSA_NEG>
0

>  <Q_VSA_PNEG>
0

>  <Q_VSA_POL>
0

>  <Q_VSA_POS>
373.13913

>  <Q_VSA_PPOS>
0

>  <radius>
5

>  <reactive>
0

>  <rings>
3

>  <RPC+>
0

>  <RPC->
0

>  <rsynth>
1

>  <SlogP>
5.9436002

>  <SlogP_VSA0>
0

>  <SlogP_VSA1>
15.490929

>  <SlogP_VSA2>
69.724205

>  <SlogP_VSA3>
0

>  <SlogP_VSA4>
3.185575

>  <SlogP_VSA5>
5.2434282

>  <SlogP_VSA6>
7.0012131

>  <SlogP_VSA7>
56.115128

>  <SlogP_VSA8>
113.21043

>  <SlogP_VSA9>
178.27533

>  <SMR>
10.5454

>  <SMR_VSA0>
69.724205

>  <SMR_VSA1>
0

>  <SMR_VSA2>
0

>  <SMR_VSA3>
15.430216

>  <SMR_VSA4>
3.185575

>  <SMR_VSA5>
166.13998

>  <SMR_VSA6>
15.490929

>  <SMR_VSA7>
178.27533

>  <TPSA>
52.599998

>  <VAdjEq>
0.40063059

>  <VAdjMa>
5.8579812

>  <VDistEq>
3.1436238

>  <VDistMa>
9.2722197

>  <vdw_area>
373.13913

>  <vdw_vol>
446.38559

>  <vsa_acc>
27.133842

>  <vsa_acid>
0

>  <vsa_base>
0

>  <vsa_don>
0

>  <vsa_hyd>
311.58078

>  <vsa_other>
34.424511

>  <vsa_pol>
27.133842

>  <Weight>
411.32498

>  <weinerPath>
1661

>  <weinerPol>
47

>  <zagreb>
146

$$$$
CC(C)(C)C(CC2)CCC12OC(CO1)CN(CCC)CC
  MOE2011           2D

 21 22  0  0  1  0  0  0  0  0999 V2000
    0.0000    0.0000    0.0000 C   0  0  0  0  0  0  0  0  0  0  0  0
   -0.0710   -1.4980    0.0000 C   0  0  0  0  0  0  0  0  0  0  0  0
   -0.1410   -2.9970    0.0000 C   0  0  0  0  0  0  0  0  0  0  0  0
    1.4280   -1.5690    0.0000 C   0  0  0  0  0  0  0  0  0  0  0  0
   -1.5690   -1.4280    0.0000 C   0  0  0  0  0  0  0  0  0  0  0  0
   -2.2570   -0.0950    0.0000 C   0  0  0  0  0  0  0  0  0  0  0  0
   -3.7550   -0.0240    0.0000 C   0  0  0  0  0  0  0  0  0  0  0  0
   -2.3790   -2.6900    0.0000 C   0  0  0  0  0  0  0  0  0  0  0  0
   -3.8780   -2.6190    0.0000 C   0  0  0  0  0  0  0  0  0  0  0  0
   -4.5660   -1.2860    0.0000 C   0  0  0  0  0  0  0  0  0  0  0  0
   -5.3890   -0.0320    0.0000 O   0  0  0  0  0  0  0  0  0  0  0  0
   -6.8360   -0.4280    0.0000 C   0  0  3  0  0  0  0  0  0  0  0  0
   -6.9070   -1.9260    0.0000 C   0  0  0  0  0  0  0  0  0  0  0  0
   -5.5040   -2.4570    0.0000 O   0  0  0  0  0  0  0  0  0  0  0  0
   -8.0070    0.5100    0.0000 C   0  0  0  0  0  0  0  0  0  0  0  0
   -9.4040   -0.0350    0.0000 N   0  0  3  0  0  0  0  0  0  0  0  0
  -10.5750    0.9030    0.0000 C   0  0  0  0  0  0  0  0  0  0  0  0
  -10.3480    2.3860    0.0000 C   0  0  0  0  0  0  0  0  0  0  0  0
  -11.5180    3.3230    0.0000 C   0  0  0  0  0  0  0  0  0  0  0  0
   -9.6310   -1.5180    0.0000 C   0  0  0  0  0  0  0  0  0  0  0  0
  -11.0290   -2.0630    0.0000 C   0  0  0  0  0  0  0  0  0  0  0  0
  1  2  1  0  0  0  0
  2  3  1  0  0  0  0
  2  4  1  0  0  0  0
  2  5  1  0  0  0  0
  5  6  1  0  0  0  0
  5  8  1  0  0  0  0
  6  7  1  0  0  0  0
  7 10  1  0  0  0  0
  8  9  1  0  0  0  0
  9 10  1  0  0  0  0
 10 11  1  0  0  0  0
 10 14  1  0  0  0  0
 11 12  1  0  0  0  0
 12 13  1  0  0  0  0
 12 15  1  0  0  0  0
 13 14  1  0  0  0  0
 15 16  1  0  0  0  0
 16 17  1  0  0  0  0
 16 20  1  0  0  0  0
 17 18  1  0  0  0  0
 18 19  1  0  0  0  0
 20 21  1  0  0  0  0
M  END
>  <DSSTox_RID>
40301

>  <DSSTox_CID>
14212

>  <apol>
57.721756

>  <a_acc>
3

>  <a_acid>
0

>  <a_aro>
0

>  <a_base>
0

>  <a_count>
56

>  <a_don>
0

>  <a_heavy>
21

>  <a_hyd>
17

>  <a_IC>
68.628319

>  <a_ICM>
1.2255057

>  <a_nB>
0

>  <a_nBr>
0

>  <a_nC>
18

>  <a_nCl>
0

>  <a_nF>
0

>  <a_nH>
35

>  <a_nI>
0

>  <a_nN>
1

>  <a_nO>
2

>  <a_nP>
0

>  <a_nS>
0

>  <balabanJ>
1.8231994

>  <BCUT_PEOE_0>
-2.851017

>  <BCUT_PEOE_1>
-0.059691358

>  <BCUT_PEOE_2>
0.044388972

>  <BCUT_PEOE_3>
2.8483224

>  <BCUT_SLOGP_0>
-2.7898974

>  <BCUT_SLOGP_1>
0.033740129

>  <BCUT_SLOGP_2>
0.123

>  <BCUT_SLOGP_3>
2.9147778

>  <BCUT_SMR_0>
-2.6081965

>  <BCUT_SMR_1>
0.1057

>  <BCUT_SMR_2>
0.12711044

>  <BCUT_SMR_3>
3.0836029

>  <bpol>
44.074245

>  <b_1rotN>
5

>  <b_1rotR>
0.22727273

>  <b_ar>
0

>  <b_count>
57

>  <b_double>
0

>  <b_heavy>
22

>  <b_rotN>
6

>  <b_rotR>
0.27272728

>  <b_single>
57

>  <b_triple>
0

>  <chi0>
15.510225

>  <chi0v>
14.782372

>  <chi0v_C>
13.518661

>  <chi0_C>
13.518661

>  <chi1>
9.8830881

>  <chi1v>
8.9242973

>  <chi1v_C>
7.0429888

>  <chi1_C>
7.0429888

>  <chiral>
1

>  <chiral_u>
1

>  <density>
0.72476822

>  <diameter>
12

>  <FCharge>
0

>  <GCUT_PEOE_0>
-0.85484487

>  <GCUT_PEOE_1>
-0.2641086

>  <GCUT_PEOE_2>
-0.11561102

>  <GCUT_PEOE_3>
2.9871795

>  <GCUT_SLOGP_0>
-0.96042007

>  <GCUT_SLOGP_1>
-0.19944729

>  <GCUT_SLOGP_2>
-0.037

>  <GCUT_SLOGP_3>
3.0379493

>  <GCUT_SMR_0>
-0.5378384

>  <GCUT_SMR_1>
-0.077523351

>  <GCUT_SMR_2>
-0.054299999

>  <GCUT_SMR_3>
3.1984963

>  <Kier1>
17.355371

>  <Kier2>
7.0507813

>  <Kier3>
4.4875345

>  <KierA1>
17.355371

>  <KierA2>
7.0507813

>  <KierA3>
4.4875345

>  <KierFlex>
5.8270922

>  <lip_acc>
3

>  <lip_don>
0

>  <lip_druglike>
1

>  <lip_violation>
0

>  <logP(o/w)>
5.2839999

>  <logS>
-4.3667202

>  <mr>
8.7393961

>  <mutagenic>
0

>  <nmol>
1

>  <opr_brigid>
11

>  <opr_leadlike>
1

>  <opr_nring>
2

>  <opr_nrot>
9

>  <opr_violation>
0

>  <PC+>
0

>  <PC->
0

>  <PEOE_PC+>
0.93506169

>  <PEOE_PC->
-0.93506169

>  <PEOE_RPC+>
0.20010744

>  <PEOE_RPC->
0.35590872

>  <PEOE_VSA+0>
196.67627

>  <PEOE_VSA+1>
72.216003

>  <PEOE_VSA+2>
20.299505

>  <PEOE_VSA+3>
31.625538

>  <PEOE_VSA+4>
0

>  <PEOE_VSA+5>
0

>  <PEOE_VSA+6>
0

>  <PEOE_VSA-0>
0

>  <PEOE_VSA-1>
0

>  <PEOE_VSA-2>
0

>  <PEOE_VSA-3>
0

>  <PEOE_VSA-4>
0

>  <PEOE_VSA-5>
0

>  <PEOE_VSA-6>
5.0075121

>  <PEOE_VSA_FHYD>
0.9846313

>  <PEOE_VSA_FNEG>
0.015368725

>  <PEOE_VSA_FPNEG>
0.015368725

>  <PEOE_VSA_FPOL>
0.015368725

>  <PEOE_VSA_FPOS>
0.9846313

>  <PEOE_VSA_FPPOS>
0

>  <PEOE_VSA_HYD>
320.81732

>  <PEOE_VSA_NEG>
5.0075121

>  <PEOE_VSA_PNEG>
5.0075121

>  <PEOE_VSA_POL>
5.0075121

>  <PEOE_VSA_POS>
320.81732

>  <PEOE_VSA_PPOS>
0

>  <petitjean>
0.5

>  <petitjeanSC>
1

>  <Q_PC+>
0

>  <Q_PC->
0

>  <Q_RPC+>
0

>  <Q_RPC->
0

>  <Q_VSA_FHYD>
1

>  <Q_VSA_FNEG>
0

>  <Q_VSA_FPNEG>
0

>  <Q_VSA_FPOL>
0

>  <Q_VSA_FPOS>
1

>  <Q_VSA_FPPOS>
0

>  <Q_VSA_HYD>
325.82483

>  <Q_VSA_NEG>
0

>  <Q_VSA_PNEG>
0

>  <Q_VSA_POL>
0

>  <Q_VSA_POS>
325.82483

>  <Q_VSA_PPOS>
0

>  <radius>
6

>  <reactive>
0

>  <rings>
2

>  <RPC+>
0

>  <RPC->
0

>  <rsynth>
1

>  <SlogP>
4.0662999

>  <SlogP_VSA0>
0

>  <SlogP_VSA1>
3.1243138

>  <SlogP_VSA2>
28.468426

>  <SlogP_VSA3>
76.244995

>  <SlogP_VSA4>
4.4107962

>  <SlogP_VSA5>
0

>  <SlogP_VSA6>
0

>  <SlogP_VSA7>
0

>  <SlogP_VSA8>
94.342026

>  <SlogP_VSA9>
166.63008

>  <SMR>
8.7374001

>  <SMR_VSA0>
21.999775

>  <SMR_VSA1>
3.1243138

>  <SMR_VSA2>
4.4107962

>  <SMR_VSA3>
6.4686494

>  <SMR_VSA4>
0

>  <SMR_VSA5>
94.342026

>  <SMR_VSA6>
76.244995

>  <SMR_VSA7>
166.63008

>  <TPSA>
21.700001

>  <VAdjEq>
0.46827638

>  <VAdjMa>
5.4594316

>  <VDistEq>
3.3735492

>  <VDistMa>
8.4561281

>  <vdw_area>
325.82483

>  <vdw_vol>
361.77496

>  <vsa_acc>
5.0075121

>  <vsa_acid>
0

>  <vsa_base>
0

>  <vsa_don>
0

>  <vsa_hyd>
319.70877

>  <vsa_other>
1.1085443

>  <vsa_pol>
5.0075121

>  <Weight>
297.483

>  <weinerPath>
1017

>  <weinerPol>
30

>  <zagreb>
108

$$$$
O=S(NC1=C(Cl)C=C(Cl)C(N2N=C(C)N(C(F)F)C2=O)=C1)(C)=O
  MOE2011           2D

 23 24  0  0  0  0  0  0  0  0999 V2000
    0.0000    0.0000    0.0000 O   0  0  0  0  0  0  0  0  0  0  0  0
    1.5000    0.0070    0.0000 S   0  0  0  0  0  0  0  0  0  0  0  0
    1.5070   -1.4930    0.0000 N   0  0  0  0  0  0  0  0  0  0  0  0
    2.8100   -2.2360    0.0000 C   0  0  0  0  0  0  0  0  0  0  0  0
    2.8170   -3.7360    0.0000 C   0  0  0  0  0  0  0  0  0  0  0  0
    1.5220   -4.4930    0.0000 Cl  0  0  0  0  0  0  0  0  0  0  0  0
    4.1200   -4.4800    0.0000 C   0  0  0  0  0  0  0  0  0  0  0  0
    5.4150   -3.7240    0.0000 C   0  0  0  0  0  0  0  0  0  0  0  0
    6.7180   -4.4670    0.0000 Cl  0  0  0  0  0  0  0  0  0  0  0  0
    5.4080   -2.2240    0.0000 C   0  0  0  0  0  0  0  0  0  0  0  0
    6.7030   -1.4670    0.0000 N   0  0  0  0  0  0  0  0  0  0  0  0
    6.8530    0.0250    0.0000 N   0  0  0  0  0  0  0  0  0  0  0  0
    8.3190    0.3440    0.0000 C   0  0  0  0  0  0  0  0  0  0  0  0
    8.9220    1.7180    0.0000 C   0  0  0  0  0  0  0  0  0  0  0  0
    9.0750   -0.9510    0.0000 N   0  0  0  0  0  0  0  0  0  0  0  0
   10.5670   -1.1010    0.0000 C   0  0  0  0  0  0  0  0  0  0  0  0
   11.4430    0.1170    0.0000 F   0  0  0  0  0  0  0  0  0  0  0  0
   11.1840   -2.4680    0.0000 F   0  0  0  0  0  0  0  0  0  0  0  0
    8.0770   -2.0710    0.0000 C   0  0  0  0  0  0  0  0  0  0  0  0
    8.3960   -3.5360    0.0000 O   0  0  0  0  0  0  0  0  0  0  0  0
    4.1050   -1.4800    0.0000 C   0  0  0  0  0  0  0  0  0  0  0  0
    1.4930    1.5070    0.0000 C   0  0  0  0  0  0  0  0  0  0  0  0
    3.0000    0.0150    0.0000 O   0  0  0  0  0  0  0  0  0  0  0  0
  1  2  2  0  0  0  0
  2  3  1  0  0  0  0
  2 22  1  0  0  0  0
  2 23  2  0  0  0  0
  3  4  1  0  0  0  0
  4  5  1  0  0  0  0
  4 21  2  0  0  0  0
  5  6  1  0  0  0  0
  5  7  2  0  0  0  0
  7  8  1  0  0  0  0
  8  9  1  0  0  0  0
  8 10  2  0  0  0  0
 10 11  1  0  0  0  0
 10 21  1  0  0  0  0
 11 12  1  0  0  0  0
 11 19  1  0  0  0  0
 12 13  2  0  0  0  0
 13 14  1  0  0  0  0
 13 15  1  0  0  0  0
 15 16  1  0  0  0  0
 15 19  1  0  0  0  0
 16 17  1  0  0  0  0
 16 18  1  0  0  0  0
 19 20  2  0  0  0  0
M  END
>  <DSSTox_RID>
40598

>  <DSSTox_CID>
12645

>  <apol>
41.207932

>  <a_acc>
4

>  <a_acid>
0

>  <a_aro>
6

>  <a_base>
0

>  <a_count>
33

>  <a_don>
1

>  <a_heavy>
23

>  <a_hyd>
13

>  <a_IC>
78.437088

>  <a_ICM>
2.3768816

>  <a_nB>
0

>  <a_nBr>
0

>  <a_nC>
11

>  <a_nCl>
2

>  <a_nF>
2

>  <a_nH>
10

>  <a_nI>
0

>  <a_nN>
4

>  <a_nO>
3

>  <a_nP>
0

>  <a_nS>
1

>  <balabanJ>
2.1242344

>  <BCUT_PEOE_0>
-2.4280906

>  <BCUT_PEOE_1>
-0.47920355

>  <BCUT_PEOE_2>
0.6048252

>  <BCUT_PEOE_3>
2.4914646

>  <BCUT_SLOGP_0>
-2.5430934

>  <BCUT_SLOGP_1>
-0.33657515

>  <BCUT_SLOGP_2>
0.69883901

>  <BCUT_SLOGP_3>
2.4737051

>  <BCUT_SMR_0>
-2.0784783

>  <BCUT_SMR_1>
-0.17986962

>  <BCUT_SMR_2>
0.93139279

>  <BCUT_SMR_3>
2.8247824

>  <bpol>
26.232071

>  <b_1rotN>
4

>  <b_1rotR>
0.16666667

>  <b_ar>
6

>  <b_count>
34

>  <b_double>
2

>  <b_heavy>
24

>  <b_rotN>
4

>  <b_rotR>
0.16666667

>  <b_single>
26

>  <b_triple>
0

>  <chi0>
17.52458

>  <chi0v>
14.046897

>  <chi0v_C>
6.7320509

>  <chi0_C>
7.4556656

>  <chi1>
10.508726

>  <chi1v>
8.5925045

>  <chi1v_C>
2.1547005

>  <chi1_C>
2.8770101

>  <chiral>
0

>  <chiral_u>
0

>  <density>
1.0916997

>  <diameter>
10

>  <FCharge>
0

>  <GCUT_PEOE_0>
-0.78498703

>  <GCUT_PEOE_1>
-0.41876081

>  <GCUT_PEOE_2>
-0.0021158035

>  <GCUT_PEOE_3>
2.4166718

>  <GCUT_SLOGP_0>
-0.99878043

>  <GCUT_SLOGP_1>
-0.29927796

>  <GCUT_SLOGP_2>
0.24236691

>  <GCUT_SLOGP_3>
2.5111444

>  <GCUT_SMR_0>
-0.48155713

>  <GCUT_SMR_1>
-0.13102971

>  <GCUT_SMR_2>
0.3019118

>  <GCUT_SMR_3>
2.732929

>  <Kier1>
19.326389

>  <Kier2>
7.0869246

>  <Kier3>
4.3456788

>  <KierA1>
17.819685

>  <KierA2>
6.5092282

>  <KierA3>
3.9797895

>  <KierFlex>
5.0431476

>  <lip_acc>
7

>  <lip_don>
1

>  <lip_druglike>
1

>  <lip_violation>
0

>  <logP(o/w)>
2.76792

>  <logS>
-3.3568399

>  <mr>
8.0966434

>  <mutagenic>
0

>  <nmol>
1

>  <opr_brigid>
11

>  <opr_leadlike>
1

>  <opr_nring>
2

>  <opr_nrot>
3

>  <opr_violation>
0

>  <PC+>
0

>  <PC->
0

>  <PEOE_PC+>
1.8733271

>  <PEOE_PC->
-1.8733271

>  <PEOE_RPC+>
0.29338801

>  <PEOE_RPC->
0.13036805

>  <PEOE_VSA+0>
48.42215

>  <PEOE_VSA+1>
45.147495

>  <PEOE_VSA+2>
11.190562

>  <PEOE_VSA+3>
0

>  <PEOE_VSA+4>
0

>  <PEOE_VSA+5>
0

>  <PEOE_VSA+6>
69.149216

>  <PEOE_VSA-0>
0

>  <PEOE_VSA-1>
67.239098

>  <PEOE_VSA-2>
9.4210396

>  <PEOE_VSA-3>
23.817272

>  <PEOE_VSA-4>
45.583443

>  <PEOE_VSA-5>
0

>  <PEOE_VSA-6>
0

>  <PEOE_VSA_FHYD>
0.64142716

>  <PEOE_VSA_FNEG>
0.45648256

>  <PEOE_VSA_FPNEG>
0.14246149

>  <PEOE_VSA_FPOL>
0.35857287

>  <PEOE_VSA_FPOS>
0.54351741

>  <PEOE_VSA_FPPOS>
0.21611138

>  <PEOE_VSA_HYD>
205.23761

>  <PEOE_VSA_NEG>
146.06085

>  <PEOE_VSA_PNEG>
45.583443

>  <PEOE_VSA_POL>
114.73266

>  <PEOE_VSA_POS>
173.90942

>  <PEOE_VSA_PPOS>
69.149216

>  <petitjean>
0.5

>  <petitjeanSC>
1

>  <Q_PC+>
0

>  <Q_PC->
0

>  <Q_RPC+>
0

>  <Q_RPC->
0

>  <Q_VSA_FHYD>
1

>  <Q_VSA_FNEG>
0

>  <Q_VSA_FPNEG>
0

>  <Q_VSA_FPOL>
0

>  <Q_VSA_FPOS>
1

>  <Q_VSA_FPPOS>
0

>  <Q_VSA_HYD>
319.97028

>  <Q_VSA_NEG>
0

>  <Q_VSA_PNEG>
0

>  <Q_VSA_POL>
0

>  <Q_VSA_POS>
319.97028

>  <Q_VSA_PPOS>
0

>  <radius>
5

>  <reactive>
0

>  <rings>
2

>  <RPC+>
0

>  <RPC->
0

>  <rsynth>
1

>  <SlogP>
3.1629

>  <SlogP_VSA0>
3.0017917

>  <SlogP_VSA1>
74.858879

>  <SlogP_VSA2>
22.493597

>  <SlogP_VSA3>
0

>  <SlogP_VSA4>
0

>  <SlogP_VSA5>
48.354183

>  <SlogP_VSA6>
7.0012131

>  <SlogP_VSA7>
35.286369

>  <SlogP_VSA8>
0

>  <SlogP_VSA9>
170.91924

>  <SMR>
8.3755503

>  <SMR_VSA0>
72.033905

>  <SMR_VSA1>
49.707546

>  <SMR_VSA2>
3.0017917

>  <SMR_VSA3>
22.854069

>  <SMR_VSA4>
21.918493

>  <SMR_VSA5>
35.286369

>  <SMR_VSA6>
7.1578765

>  <SMR_VSA7>
149.95522

>  <TPSA>
82.080002

>  <VAdjEq>
0.43892586

>  <VAdjMa>
5.5849624

>  <VDistEq>
3.1701312

>  <VDistMa>
8.7751694

>  <vdw_area>
319.97028

>  <vdw_vol>
345.43747

>  <vsa_acc>
55.004482

>  <vsa_acid>
0

>  <vsa_base>
0

>  <vsa_don>
8.0752068

>  <vsa_hyd>
218.15387

>  <vsa_other>
38.736713

>  <vsa_pol>
63.079689

>  <Weight>
387.194

>  <weinerPath>
1144

>  <weinerPol>
37

>  <zagreb>
122

$$$$
O=C(N(Cl)C(N1Cl)=O)N(Cl)C1=O
  MOE2011           2D

 12 12  0  0  0  0  0  0  0  0999 V2000
    0.0000    0.0000    0.0000 O   0  0  0  0  0  0  0  0  0  0  0  0
    1.5000    0.0000    0.0000 C   0  0  0  0  0  0  0  0  0  0  0  0
    2.2500   -1.2990    0.0000 N   0  0  0  0  0  0  0  0  0  0  0  0
    1.5000   -2.5980    0.0000 Cl  0  0  0  0  0  0  0  0  0  0  0  0
    3.7500   -1.2990    0.0000 C   0  0  0  0  0  0  0  0  0  0  0  0
    4.5000    0.0000    0.0000 N   0  0  0  0  0  0  0  0  0  0  0  0
    6.0000    0.0000    0.0000 Cl  0  0  0  0  0  0  0  0  0  0  0  0
    4.5000   -2.5980    0.0000 O   0  0  0  0  0  0  0  0  0  0  0  0
    2.2500    1.2990    0.0000 N   0  0  0  0  0  0  0  0  0  0  0  0
    1.5000    2.5980    0.0000 Cl  0  0  0  0  0  0  0  0  0  0  0  0
    3.7500    1.2990    0.0000 C   0  0  0  0  0  0  0  0  0  0  0  0
    4.5000    2.5980    0.0000 O   0  0  0  0  0  0  0  0  0  0  0  0
  1  2  2  0  0  0  0
  2  3  1  0  0  0  0
  2  9  1  0  0  0  0
  3  4  1  0  0  0  0
  3  5  1  0  0  0  0
  5  6  1  0  0  0  0
  5  8  2  0  0  0  0
  6  7  1  0  0  0  0
  6 11  1  0  0  0  0
  9 10  1  0  0  0  0
  9 11  1  0  0  0  0
 11 12  2  0  0  0  0
M  END
>  <DSSTox_RID>
40622

>  <DSSTox_CID>
6523

>  <apol>
17.525999

>  <a_acc>
3

>  <a_acid>
0

>  <a_aro>
0

>  <a_base>
0

>  <a_count>
12

>  <a_don>
0

>  <a_heavy>
12

>  <a_hyd>
3

>  <a_IC>
24

>  <a_ICM>
2

>  <a_nB>
0

>  <a_nBr>
0

>  <a_nC>
3

>  <a_nCl>
3

>  <a_nF>
0

>  <a_nH>
0

>  <a_nI>
0

>  <a_nN>
3

>  <a_nO>
3

>  <a_nP>
0

>  <a_nS>
0

>  <balabanJ>
2.7875283

>  <BCUT_PEOE_0>
-2.2644897

>  <BCUT_PEOE_1>
-0.54589951

>  <BCUT_PEOE_2>
0.46679303

>  <BCUT_PEOE_3>
2.4166019

>  <BCUT_SLOGP_0>
-2.5382755

>  <BCUT_SLOGP_1>
-0.2015525

>  <BCUT_SLOGP_2>
0.85604495

>  <BCUT_SLOGP_3>
2.1885796

>  <BCUT_SMR_0>
-1.988398

>  <BCUT_SMR_1>
-0.22141473

>  <BCUT_SMR_2>
0.83366287

>  <BCUT_SMR_3>
2.676265

>  <bpol>
10.074

>  <b_1rotN>
0

>  <b_1rotR>
0

>  <b_ar>
0

>  <b_count>
12

>  <b_double>
3

>  <b_heavy>
12

>  <b_rotN>
0

>  <b_rotR>
0

>  <b_single>
9

>  <b_triple>
0

>  <chi0>
9.4641018

>  <chi0v>
7.4680657

>  <chi0v_C>
1.5

>  <chi0_C>
1.7320508

>  <chi1>
5.4641018

>  <chi1v>
3.4752908

>  <chi1v_C>
0

>  <chi1_C>
0

>  <chiral>
0

>  <chiral_u>
0

>  <density>
1.3136396

>  <diameter>
5

>  <FCharge>
0

>  <GCUT_PEOE_0>
-0.66575736

>  <GCUT_PEOE_1>
-0.47545868

>  <GCUT_PEOE_2>
0.03357131

>  <GCUT_PEOE_3>
1.904475

>  <GCUT_SLOGP_0>
-0.96496964

>  <GCUT_SLOGP_1>
-0.34888762

>  <GCUT_SLOGP_2>
0.53777707

>  <GCUT_SLOGP_3>
1.8419902

>  <GCUT_SMR_0>
-0.38159275

>  <GCUT_SMR_1>
-0.18204489

>  <GCUT_SMR_2>
0.44457486

>  <GCUT_SMR_3>
2.1760807

>  <Kier1>
10.083333

>  <Kier2>
3.3950617

>  <Kier3>
1.5625

>  <KierA1>
9.970521

>  <KierA2>
3.3534031

>  <KierA3>
1.542002

>  <KierFlex>
2.7862647

>  <lip_acc>
6

>  <lip_don>
0

>  <lip_druglike>
1

>  <lip_violation>
0

>  <logP(o/w)>
2.2479999

>  <logS>
-2.7386

>  <mr>
3.8124516

>  <mutagenic>
0

>  <nmol>
1

>  <opr_brigid>
6

>  <opr_leadlike>
1

>  <opr_nring>
1

>  <opr_nrot>
0

>  <opr_violation>
0

>  <PC+>
0

>  <PC->
0

>  <PEOE_PC+>
1.1801716

>  <PEOE_PC->
-1.1801716

>  <PEOE_RPC+>
0.31055152

>  <PEOE_RPC->
0.20628947

>  <PEOE_VSA+0>
99.480659

>  <PEOE_VSA+1>
0

>  <PEOE_VSA+2>
0

>  <PEOE_VSA+3>
0

>  <PEOE_VSA+4>
0

>  <PEOE_VSA+5>
0

>  <PEOE_VSA+6>
52.321629

>  <PEOE_VSA-0>
0

>  <PEOE_VSA-1>
0

>  <PEOE_VSA-2>
0

>  <PEOE_VSA-3>
0

>  <PEOE_VSA-4>
40.700764

>  <PEOE_VSA-5>
0

>  <PEOE_VSA-6>
0

>  <PEOE_VSA_FHYD>
0.51677448

>  <PEOE_VSA_FNEG>
0.21142918

>  <PEOE_VSA_FPNEG>
0.21142918

>  <PEOE_VSA_FPOL>
0.48322555

>  <PEOE_VSA_FPOS>
0.78857082

>  <PEOE_VSA_FPPOS>
0.27179635

>  <PEOE_VSA_HYD>
99.480659

>  <PEOE_VSA_NEG>
40.700764

>  <PEOE_VSA_PNEG>
40.700764

>  <PEOE_VSA_POL>
93.022392

>  <PEOE_VSA_POS>
151.80229

>  <PEOE_VSA_PPOS>
52.321629

>  <petitjean>
0.2

>  <petitjeanSC>
0.25

>  <Q_PC+>
0

>  <Q_PC->
0

>  <Q_RPC+>
0

>  <Q_RPC->
0

>  <Q_VSA_FHYD>
1

>  <Q_VSA_FNEG>
0

>  <Q_VSA_FPNEG>
0

>  <Q_VSA_FPOL>
0

>  <Q_VSA_FPOS>
1

>  <Q_VSA_FPPOS>
0

>  <Q_VSA_HYD>
192.50305

>  <Q_VSA_NEG>
0

>  <Q_VSA_PNEG>
0

>  <Q_VSA_POL>
0

>  <Q_VSA_POS>
192.50305

>  <Q_VSA_PPOS>
0

>  <radius>
4

>  <reactive>
0

>  <rings>
1

>  <RPC+>
0

>  <RPC->
0

>  <rsynth>
1

>  <SlogP>
1.7273999

>  <SlogP_VSA0>
0

>  <SlogP_VSA1>
24.859507

>  <SlogP_VSA2>
0

>  <SlogP_VSA3>
0

>  <SlogP_VSA4>
0

>  <SlogP_VSA5>
0

>  <SlogP_VSA6>
0

>  <SlogP_VSA7>
0

>  <SlogP_VSA8>
0

>  <SlogP_VSA9>
188.01527

>  <SMR>
3.9263999

>  <SMR_VSA0>
71.586647

>  <SMR_VSA1>
10.369637

>  <SMR_VSA2>
0

>  <SMR_VSA3>
0

>  <SMR_VSA4>
0

>  <SMR_VSA5>
0

>  <SMR_VSA6>
14.489868

>  <SMR_VSA7>
116.42863

>  <TPSA>
60.93

>  <VAdjEq>
0.65002245

>  <VAdjMa>
4.5849624

>  <VDistEq>
2.1339197

>  <VDistMa>
6.9102907

>  <vdw_area>
192.50305

>  <vdw_vol>
176.92065

>  <vsa_acc>
40.700764

>  <vsa_acid>
0

>  <vsa_base>
0

>  <vsa_don>
0

>  <vsa_hyd>
99.480659

>  <vsa_other>
52.321629

>  <vsa_pol>
40.700764

>  <Weight>
232.40999

>  <weinerPath>
174

>  <weinerPol>
21

>  <zagreb>
60

$$$$
N#CSCSC2=NC1=CC=CC=C1S2
  MOE2011           2D

 14 15  0  0  0  0  0  0  0  0999 V2000
    0.0000    0.0000    0.0000 N   0  0  0  0  0  0  0  0  0  0  0  0
   -1.1090   -1.0100    0.0000 C   0  0  0  0  0  0  0  0  0  0  0  0
   -2.2190   -2.0190    0.0000 S   0  0  0  0  0  0  0  0  0  0  0  0
   -3.6480   -1.5640    0.0000 C   0  0  0  0  0  0  0  0  0  0  0  0
   -4.7570   -2.5730    0.0000 S   0  0  0  0  0  0  0  0  0  0  0  0
   -6.1860   -2.1170    0.0000 C   0  0  0  0  0  0  0  0  0  0  0  0
   -6.6570   -0.6930    0.0000 N   0  0  0  0  0  0  0  0  0  0  0  0
   -8.1570   -0.7020    0.0000 C   0  0  0  0  0  0  0  0  0  0  0  0
   -9.1670    0.4080    0.0000 C   0  0  0  0  0  0  0  0  0  0  0  0
  -10.6320    0.0880    0.0000 C   0  0  0  0  0  0  0  0  0  0  0  0
  -11.0880   -1.3410    0.0000 C   0  0  0  0  0  0  0  0  0  0  0  0
  -10.0790   -2.4500    0.0000 C   0  0  0  0  0  0  0  0  0  0  0  0
   -8.6130   -2.1310    0.0000 C   0  0  0  0  0  0  0  0  0  0  0  0
   -7.3950   -3.0060    0.0000 S   0  0  0  0  0  0  0  0  0  0  0  0
  1  2  3  0  0  0  0
  2  3  1  0  0  0  0
  3  4  1  0  0  0  0
  4  5  1  0  0  0  0
  5  6  1  0  0  0  0
  6  7  2  0  0  0  0
  6 14  1  0  0  0  0
  7  8  1  0  0  0  0
  8  9  1  0  0  0  0
  8 13  2  0  0  0  0
  9 10  2  0  0  0  0
 10 11  1  0  0  0  0
 11 12  2  0  0  0  0
 12 13  1  0  0  0  0
 13 14  1  0  0  0  0
M  END
>  <DSSTox_RID>
40306

>  <DSSTox_CID>
12647

>  <apol>
30.740759

>  <a_acc>
2

>  <a_acid>
0

>  <a_aro>
9

>  <a_base>
0

>  <a_count>
20

>  <a_don>
0

>  <a_heavy>
14

>  <a_hyd>
11

>  <a_IC>
35.644573

>  <a_ICM>
1.7822287

>  <a_nB>
0

>  <a_nBr>
0

>  <a_nC>
9

>  <a_nCl>
0

>  <a_nF>
0

>  <a_nH>
6

>  <a_nI>
0

>  <a_nN>
2

>  <a_nO>
0

>  <a_nP>
0

>  <a_nS>
3

>  <balabanJ>
1.7145042

>  <BCUT_PEOE_0>
-2.1656423

>  <BCUT_PEOE_1>
-0.59449065

>  <BCUT_PEOE_2>
0.59933746

>  <BCUT_PEOE_3>
2.2195871

>  <BCUT_SLOGP_0>
-2.0630045

>  <BCUT_SLOGP_1>
-0.46943501

>  <BCUT_SLOGP_2>
0.76407313

>  <BCUT_SLOGP_3>
2.4347856

>  <BCUT_SMR_0>
-1.8016852

>  <BCUT_SMR_1>
-0.40570459

>  <BCUT_SMR_2>
0.87822515

>  <BCUT_SMR_3>
2.6351302

>  <bpol>
15.379242

>  <b_1rotN>
3

>  <b_1rotR>
0.2

>  <b_ar>
10

>  <b_count>
21

>  <b_double>
0

>  <b_heavy>
15

>  <b_rotN>
4

>  <b_rotR>
0.26666668

>  <b_single>
10

>  <b_triple>
1

>  <chi0>
9.8031187

>  <chi0v>
9.5851698

>  <chi0v_C>
5.0165076

>  <chi0_C>
5.9746914

>  <chi1>
6.8981781

>  <chi1v>
6.6797113

>  <chi1v_C>
1.8273503

>  <chi1_C>
2.6498299

>  <chiral>
0

>  <chiral_u>
0

>  <density>
0.93614227

>  <diameter>
9

>  <FCharge>
0

>  <GCUT_PEOE_0>
-0.75530601

>  <GCUT_PEOE_1>
-0.40532902

>  <GCUT_PEOE_2>
0.036766931

>  <GCUT_PEOE_3>
2.0716763

>  <GCUT_SLOGP_0>
-0.7261672

>  <GCUT_SLOGP_1>
-0.22441556

>  <GCUT_SLOGP_2>
0.23355372

>  <GCUT_SLOGP_3>
2.3046036

>  <GCUT_SMR_0>
-0.40684655

>  <GCUT_SMR_1>
-0.17266724

>  <GCUT_SMR_2>
0.35732573

>  <GCUT_SMR_3>
2.4576759

>  <Kier1>
10.515555

>  <Kier2>
5.1855955

>  <Kier3>
2.75

>  <KierA1>
10.374061

>  <KierA2>
5.1101742

>  <KierA3>
2.7077184

>  <KierFlex>
3.7866614

>  <lip_acc>
2

>  <lip_don>
0

>  <lip_druglike>
1

>  <lip_violation>
0

>  <logP(o/w)>
3.4760001

>  <logS>
-4.8238401

>  <mr>
6.4979429

>  <mutagenic>
0

>  <nmol>
1

>  <opr_brigid>
10

>  <opr_leadlike>
1

>  <opr_nring>
2

>  <opr_nrot>
4

>  <opr_violation>
0

>  <PC+>
0

>  <PC->
0

>  <PEOE_PC+>
0.60326481

>  <PEOE_PC->
-0.60326481

>  <PEOE_RPC+>
0.31810141

>  <PEOE_RPC->
0.4180266

>  <PEOE_VSA+0>
31.616989

>  <PEOE_VSA+1>
17.351225

>  <PEOE_VSA+2>
42.036186

>  <PEOE_VSA+3>
19.760618

>  <PEOE_VSA+4>
0

>  <PEOE_VSA+5>
0

>  <PEOE_VSA+6>
0

>  <PEOE_VSA-0>
55.56221

>  <PEOE_VSA-1>
19.760618

>  <PEOE_VSA-2>
0

>  <PEOE_VSA-3>
17.742489

>  <PEOE_VSA-4>
0

>  <PEOE_VSA-5>
5.6825762

>  <PEOE_VSA-6>
0

>  <PEOE_VSA_FHYD>
0.9728772

>  <PEOE_VSA_FNEG>
0.47132128

>  <PEOE_VSA_FPNEG>
0.027122797

>  <PEOE_VSA_FPOL>
0.027122797

>  <PEOE_VSA_FPOS>
0.52867872

>  <PEOE_VSA_FPPOS>
0

>  <PEOE_VSA_HYD>
203.83034

>  <PEOE_VSA_NEG>
98.747894

>  <PEOE_VSA_PNEG>
5.6825762

>  <PEOE_VSA_POL>
5.6825762

>  <PEOE_VSA_POS>
110.76502

>  <PEOE_VSA_PPOS>
0

>  <petitjean>
0.44444445

>  <petitjeanSC>
0.80000001

>  <Q_PC+>
0

>  <Q_PC->
0

>  <Q_RPC+>
0

>  <Q_RPC->
0

>  <Q_VSA_FHYD>
1

>  <Q_VSA_FNEG>
0

>  <Q_VSA_FPNEG>
0

>  <Q_VSA_FPOL>
0

>  <Q_VSA_FPOS>
1

>  <Q_VSA_FPPOS>
0

>  <Q_VSA_HYD>
209.51291

>  <Q_VSA_NEG>
0

>  <Q_VSA_PNEG>
0

>  <Q_VSA_POL>
0

>  <Q_VSA_POS>
209.51291

>  <Q_VSA_PPOS>
0

>  <radius>
5

>  <reactive>
0

>  <rings>
2

>  <RPC+>
0

>  <RPC->
0

>  <rsynth>
1

>  <SlogP>
3.560184

>  <SlogP_VSA0>
0

>  <SlogP_VSA1>
16.78553

>  <SlogP_VSA2>
0

>  <SlogP_VSA3>
61.624985

>  <SlogP_VSA4>
0

>  <SlogP_VSA5>
0

>  <SlogP_VSA6>
0

>  <SlogP_VSA7>
73.462662

>  <SlogP_VSA8>
0

>  <SlogP_VSA9>
95.716766

>  <SMR>
6.355

>  <SMR_VSA0>
0

>  <SMR_VSA1>
47.844887

>  <SMR_VSA2>
0

>  <SMR_VSA3>
14.966906

>  <SMR_VSA4>
2.8899276

>  <SMR_VSA5>
70.572739

>  <SMR_VSA6>
15.598723

>  <SMR_VSA7>
95.716766

>  <TPSA>
36.68

>  <VAdjEq>
0.61744827

>  <VAdjMa>
4.9068904

>  <VDistEq>
2.9432602

>  <VDistMa>
7.2591214

>  <vdw_area>
209.51291

>  <vdw_vol>
248.15779

>  <vsa_acc>
23.425066

>  <vsa_acid>
0

>  <vsa_base>
0

>  <vsa_don>
0

>  <vsa_hyd>
163.81227

>  <vsa_other>
22.275568

>  <vsa_pol>
23.425066

>  <Weight>
238.35901

>  <weinerPath>
334

>  <weinerPol>
16

>  <zagreb>
68

$$$$
O=C(N(C(C)(C)C)NC(C2=CC=C(CC)C=C2)=O)C1=CC(C)=CC(C)=C1
  MOE2011           2D

 26 27  0  0  0  0  0  0  0  0999 V2000
    0.0000    0.0000    0.0000 O   0  0  0  0  0  0  0  0  0  0  0  0
    1.3020    0.7450    0.0000 C   0  0  0  0  0  0  0  0  0  0  0  0
    2.5980   -0.0090    0.0000 N   0  0  0  0  0  0  0  0  0  0  0  0
    2.5930   -1.5090    0.0000 C   0  0  0  0  0  0  0  0  0  0  0  0
    2.5870   -3.0090    0.0000 C   0  0  0  0  0  0  0  0  0  0  0  0
    1.0930   -1.5040    0.0000 C   0  0  0  0  0  0  0  0  0  0  0  0
    4.0930   -1.5140    0.0000 C   0  0  0  0  0  0  0  0  0  0  0  0
    3.9000    0.7360    0.0000 N   0  0  0  0  0  0  0  0  0  0  0  0
    5.1960   -0.0180    0.0000 C   0  0  0  0  0  0  0  0  0  0  0  0
    6.4980    0.7270    0.0000 C   0  0  0  0  0  0  0  0  0  0  0  0
    7.7940   -0.0280    0.0000 C   0  0  0  0  0  0  0  0  0  0  0  0
    9.0960    0.7180    0.0000 C   0  0  0  0  0  0  0  0  0  0  0  0
    9.1010    2.2180    0.0000 C   0  0  0  0  0  0  0  0  0  0  0  0
   10.4030    2.9630    0.0000 C   0  0  0  0  0  0  0  0  0  0  0  0
   11.6990    2.2090    0.0000 C   0  0  0  0  0  0  0  0  0  0  0  0
    7.8050    2.9720    0.0000 C   0  0  0  0  0  0  0  0  0  0  0  0
    6.5030    2.2270    0.0000 C   0  0  0  0  0  0  0  0  0  0  0  0
    5.1910   -1.5180    0.0000 O   0  0  0  0  0  0  0  0  0  0  0  0
    1.3070    2.2450    0.0000 C   0  0  0  0  0  0  0  0  0  0  0  0
    0.0110    3.0000    0.0000 C   0  0  0  0  0  0  0  0  0  0  0  0
    0.0160    4.5000    0.0000 C   0  0  0  0  0  0  0  0  0  0  0  0
   -1.2800    5.2550    0.0000 C   0  0  0  0  0  0  0  0  0  0  0  0
    1.3180    5.2450    0.0000 C   0  0  0  0  0  0  0  0  0  0  0  0
    2.6140    4.4910    0.0000 C   0  0  0  0  0  0  0  0  0  0  0  0
    3.9160    5.2360    0.0000 C   0  0  0  0  0  0  0  0  0  0  0  0
    2.6090    2.9910    0.0000 C   0  0  0  0  0  0  0  0  0  0  0  0
  1  2  2  0  0  0  0
  2  3  1  0  0  0  0
  2 19  1  0  0  0  0
  3  4  1  0  0  0  0
  3  8  1  0  0  0  0
  4  5  1  0  0  0  0
  4  6  1  0  0  0  0
  4  7  1  0  0  0  0
  8  9  1  0  0  0  0
  9 10  1  0  0  0  0
  9 18  2  0  0  0  0
 10 11  1  0  0  0  0
 10 17  2  0  0  0  0
 11 12  2  0  0  0  0
 12 13  1  0  0  0  0
 13 14  1  0  0  0  0
 13 16  2  0  0  0  0
 14 15  1  0  0  0  0
 16 17  1  0  0  0  0
 19 20  1  0  0  0  0
 19 26  2  0  0  0  0
 20 21  2  0  0  0  0
 21 22  1  0  0  0  0
 21 23  1  0  0  0  0
 23 24  2  0  0  0  0
 24 25  1  0  0  0  0
 24 26  1  0  0  0  0
M  END
>  <DSSTox_RID>
40600

>  <DSSTox_CID>
14948

>  <apol>
61.194202

>  <a_acc>
2

>  <a_acid>
0

>  <a_aro>
12

>  <a_base>
0

>  <a_count>
54

>  <a_don>
1

>  <a_heavy>
26

>  <a_hyd>
20

>  <a_IC>
74.050491

>  <a_ICM>
1.3713053

>  <a_nB>
0

>  <a_nBr>
0

>  <a_nC>
22

>  <a_nCl>
0

>  <a_nF>
0

>  <a_nH>
28

>  <a_nI>
0

>  <a_nN>
2

>  <a_nO>
2

>  <a_nP>
0

>  <a_nS>
0

>  <balabanJ>
2.0086679

>  <BCUT_PEOE_0>
-2.6669524

>  <BCUT_PEOE_1>
-0.19177438

>  <BCUT_PEOE_2>
0.15016371

>  <BCUT_PEOE_3>
2.6243751

>  <BCUT_SLOGP_0>
-2.7597106

>  <BCUT_SLOGP_1>
-0.045888573

>  <BCUT_SLOGP_2>
0.21030436

>  <BCUT_SLOGP_3>
2.6244872

>  <BCUT_SMR_0>
-2.4082007

>  <BCUT_SMR_1>
-2.6514039e-005

>  <BCUT_SMR_2>
0.33028755

>  <BCUT_SMR_3>
2.8805382

>  <bpol>
33.845795

>  <b_1rotN>
5

>  <b_1rotR>
0.18518518

>  <b_ar>
12

>  <b_count>
55

>  <b_double>
2

>  <b_heavy>
27

>  <b_rotN>
7

>  <b_rotR>
0.25925925

>  <b_single>
41

>  <b_triple>
0

>  <chi0>
19.482763

>  <chi0v>
16.512268

>  <chi0v_C>
14.748559

>  <chi0_C>
16.198307

>  <chi1>
12.112411

>  <chi1v>
8.9431467

>  <chi1v_C>
7.614078

>  <chi1_C>
9.5192051

>  <chiral>
0

>  <chiral_u>
0

>  <density>
0.73641562

>  <diameter>
13

>  <FCharge>
0

>  <GCUT_PEOE_0>
-0.85373956

>  <GCUT_PEOE_1>
-0.2981149

>  <GCUT_PEOE_2>
-0.12016317

>  <GCUT_PEOE_3>
2.6990356

>  <GCUT_SLOGP_0>
-1.1775264

>  <GCUT_SLOGP_1>
-0.17534034

>  <GCUT_SLOGP_2>
-0.037

>  <GCUT_SLOGP_3>
2.7385614

>  <GCUT_SMR_0>
-0.52409428

>  <GCUT_SMR_1>
-0.10448075

>  <GCUT_SMR_2>
0.013907276

>  <GCUT_SMR_3>
2.9655724

>  <Kier1>
22.29081

>  <Kier2>
9.4674559

>  <Kier3>
6.2608695

>  <KierA1>
16.319445

>  <KierA2>
6.8380179

>  <KierA3>
4.4783201

>  <KierFlex>
4.2920251

>  <lip_acc>
4

>  <lip_don>
1

>  <lip_druglike>
1

>  <lip_violation>
0

>  <logP(o/w)>
5.4050002

>  <logS>
-6.3960199

>  <mr>
10.606681

>  <mutagenic>
0

>  <nmol>
1

>  <opr_brigid>
12

>  <opr_leadlike>
1

>  <opr_nring>
2

>  <opr_nrot>
5

>  <opr_violation>
0

>  <PC+>
0

>  <PC->
0

>  <PEOE_PC+>
0.95445508

>  <PEOE_PC->
-0.95445508

>  <PEOE_RPC+>
0.30923471

>  <PEOE_RPC->
0.27818552

>  <PEOE_VSA+0>
255.49316

>  <PEOE_VSA+1>
4.4170794

>  <PEOE_VSA+2>
0

>  <PEOE_VSA+3>
0

>  <PEOE_VSA+4>
0

>  <PEOE_VSA+5>
25.899061

>  <PEOE_VSA+6>
0

>  <PEOE_VSA-0>
54.051102

>  <PEOE_VSA-1>
0

>  <PEOE_VSA-2>
9.4210396

>  <PEOE_VSA-3>
0

>  <PEOE_VSA-4>
0

>  <PEOE_VSA-5>
27.133842

>  <PEOE_VSA-6>
0

>  <PEOE_VSA_FHYD>
0.85911065

>  <PEOE_VSA_FNEG>
0.2407075

>  <PEOE_VSA_FPNEG>
0.072084852

>  <PEOE_VSA_FPOL>
0.14088935

>  <PEOE_VSA_FPOS>
0.75929248

>  <PEOE_VSA_FPPOS>
0.068804488

>  <PEOE_VSA_HYD>
323.38239

>  <PEOE_VSA_NEG>
90.605988

>  <PEOE_VSA_PNEG>
27.133842

>  <PEOE_VSA_POL>
53.032902

>  <PEOE_VSA_POS>
285.80933

>  <PEOE_VSA_PPOS>
25.899061

>  <petitjean>
0.46153846

>  <petitjeanSC>
0.85714287

>  <Q_PC+>
0

>  <Q_PC->
0

>  <Q_RPC+>
0

>  <Q_RPC->
0

>  <Q_VSA_FHYD>
1

>  <Q_VSA_FNEG>
0

>  <Q_VSA_FPNEG>
0

>  <Q_VSA_FPOL>
0

>  <Q_VSA_FPOS>
1

>  <Q_VSA_FPPOS>
0

>  <Q_VSA_HYD>
376.41528

>  <Q_VSA_NEG>
0

>  <Q_VSA_PNEG>
0

>  <Q_VSA_POL>
0

>  <Q_VSA_POS>
376.41528

>  <Q_VSA_PPOS>
0

>  <radius>
7

>  <reactive>
0

>  <rings>
2

>  <RPC+>
0

>  <RPC->
0

>  <rsynth>
1

>  <SlogP>
4.45151

>  <SlogP_VSA0>
17.888229

>  <SlogP_VSA1>
13.519359

>  <SlogP_VSA2>
0

>  <SlogP_VSA3>
0

>  <SlogP_VSA4>
63.652306

>  <SlogP_VSA5>
18.868406

>  <SlogP_VSA6>
0

>  <SlogP_VSA7>
123.50229

>  <SlogP_VSA8>
0

>  <SlogP_VSA9>
199.95609

>  <SMR>
10.51247

>  <SMR_VSA0>
47.724434

>  <SMR_VSA1>
3.0017917

>  <SMR_VSA2>
17.888229

>  <SMR_VSA3>
15.927875

>  <SMR_VSA4>
0

>  <SMR_VSA5>
142.3707

>  <SMR_VSA6>
10.517568

>  <SMR_VSA7>
199.95609

>  <TPSA>
49.41

>  <VAdjEq>
0.40176207

>  <VAdjMa>
5.7548876

>  <VDistEq>
3.4457686

>  <VDistMa>
9.1187506

>  <vdw_area>
376.41528

>  <vdw_vol>
440.31384

>  <vsa_acc>
27.133842

>  <vsa_acid>
0

>  <vsa_base>
0

>  <vsa_don>
9.4210396

>  <vsa_hyd>
313.96136

>  <vsa_other>
25.899061

>  <vsa_pol>
36.554882

>  <Weight>
352.478

>  <weinerPath>
1705

>  <weinerPol>
40

>  <zagreb>
132

$$$$
O=C(NCC2=CC=C(C(C)(C)C)C=C2)C1=C(Cl)C(CC)=NN1C
  MOE2011           2D

 23 24  0  0  0  0  0  0  0  0999 V2000
    0.0000    0.0000    0.0000 O   0  0  0  0  0  0  0  0  0  0  0  0
   -0.7400   -1.3050    0.0000 C   0  0  0  0  0  0  0  0  0  0  0  0
   -2.2400   -1.3160    0.0000 N   0  0  0  0  0  0  0  0  0  0  0  0
   -3.0000   -0.0230    0.0000 C   0  0  0  0  0  0  0  0  0  0  0  0
   -4.5000   -0.0340    0.0000 C   0  0  0  0  0  0  0  0  0  0  0  0
   -5.2400   -1.3390    0.0000 C   0  0  0  0  0  0  0  0  0  0  0  0
   -6.7400   -1.3500    0.0000 C   0  0  0  0  0  0  0  0  0  0  0  0
   -7.5000   -0.0570    0.0000 C   0  0  0  0  0  0  0  0  0  0  0  0
   -9.0000   -0.0680    0.0000 C   0  0  0  0  0  0  0  0  0  0  0  0
  -10.5000   -0.0790    0.0000 C   0  0  0  0  0  0  0  0  0  0  0  0
   -8.9880   -1.5680    0.0000 C   0  0  0  0  0  0  0  0  0  0  0  0
   -9.0110    1.4320    0.0000 C   0  0  0  0  0  0  0  0  0  0  0  0
   -6.7600    1.2480    0.0000 C   0  0  0  0  0  0  0  0  0  0  0  0
   -5.2600    1.2590    0.0000 C   0  0  0  0  0  0  0  0  0  0  0  0
    0.0200   -2.5980    0.0000 C   0  0  0  0  0  0  0  0  0  0  0  0
    1.5130   -2.7440    0.0000 C   0  0  0  0  0  0  0  0  0  0  0  0
    2.5080   -1.6210    0.0000 Cl  0  0  0  0  0  0  0  0  0  0  0  0
    1.8360   -4.2080    0.0000 C   0  0  0  0  0  0  0  0  0  0  0  0
    3.2100   -4.8080    0.0000 C   0  0  0  0  0  0  0  0  0  0  0  0
    3.3780   -6.2990    0.0000 C   0  0  0  0  0  0  0  0  0  0  0  0
    0.5420   -4.9680    0.0000 N   0  0  0  0  0  0  0  0  0  0  0  0
   -0.5800   -3.9730    0.0000 N   0  0  0  0  0  0  0  0  0  0  0  0
   -2.0450   -4.2960    0.0000 C   0  0  0  0  0  0  0  0  0  0  0  0
  1  2  2  0  0  0  0
  2  3  1  0  0  0  0
  2 15  1  0  0  0  0
  3  4  1  0  0  0  0
  4  5  1  0  0  0  0
  5  6  1  0  0  0  0
  5 14  2  0  0  0  0
  6  7  2  0  0  0  0
  7  8  1  0  0  0  0
  8  9  1  0  0  0  0
  8 13  2  0  0  0  0
  9 10  1  0  0  0  0
  9 11  1  0  0  0  0
  9 12  1  0  0  0  0
 13 14  1  0  0  0  0
 15 16  2  0  0  0  0
 15 22  1  0  0  0  0
 16 17  1  0  0  0  0
 16 18  1  0  0  0  0
 18 19  1  0  0  0  0
 18 21  2  0  0  0  0
 19 20  1  0  0  0  0
 21 22  1  0  0  0  0
 22 23  1  0  0  0  0
M  END
>  <DSSTox_RID>
40303

>  <DSSTox_CID>
14223

>  <apol>
53.965031

>  <a_acc>
2

>  <a_acid>
0

>  <a_aro>
11

>  <a_base>
0

>  <a_count>
47

>  <a_don>
1

>  <a_heavy>
23

>  <a_hyd>
18

>  <a_IC>
71.213036

>  <a_ICM>
1.5151711

>  <a_nB>
0

>  <a_nBr>
0

>  <a_nC>
18

>  <a_nCl>
1

>  <a_nF>
0

>  <a_nH>
24

>  <a_nI>
0

>  <a_nN>
3

>  <a_nO>
1

>  <a_nP>
0

>  <a_nS>
0

>  <balabanJ>
1.7675372

>  <BCUT_PEOE_0>
-2.632587

>  <BCUT_PEOE_1>
-0.35858837

>  <BCUT_PEOE_2>
0.35295221

>  <BCUT_PEOE_3>
2.5774963

>  <BCUT_SLOGP_0>
-2.5387213

>  <BCUT_SLOGP_1>
-0.22004215

>  <BCUT_SLOGP_2>
0.43638176

>  <BCUT_SLOGP_3>
2.6803868

>  <BCUT_SMR_0>
-2.3696752

>  <BCUT_SMR_1>
-0.11949172

>  <BCUT_SMR_2>
0.54989421

>  <BCUT_SMR_3>
2.8467257

>  <bpol>
30.254969

>  <b_1rotN>
4

>  <b_1rotR>
0.16666667

>  <b_ar>
11

>  <b_count>
48

>  <b_double>
1

>  <b_heavy>
24

>  <b_rotN>
6

>  <b_rotR>
0.25

>  <b_single>
36

>  <b_triple>
0

>  <chi0>
17.198307

>  <chi0v>
15.160184

>  <chi0v_C>
12.223615

>  <chi0_C>
13.206742

>  <chi1>
10.7354

>  <chi1v>
8.2046318

>  <chi1v_C>
5.7355809

>  <chi1_C>
6.9452715

>  <chiral>
0

>  <chiral_u>
0

>  <density>
0.79314768

>  <diameter>
13

>  <FCharge>
0

>  <GCUT_PEOE_0>
-0.83746868

>  <GCUT_PEOE_1>
-0.35435265

>  <GCUT_PEOE_2>
-0.084349938

>  <GCUT_PEOE_3>
2.585753

>  <GCUT_SLOGP_0>
-1.130669

>  <GCUT_SLOGP_1>
-0.2269205

>  <GCUT_SLOGP_2>
-0.01265319

>  <GCUT_SLOGP_3>
2.6830165

>  <GCUT_SMR_0>
-0.52170599

>  <GCUT_SMR_1>
-0.13104972

>  <GCUT_SMR_2>
0.095328167

>  <GCUT_SMR_3>
2.8567688

>  <Kier1>
19.326389

>  <Kier2>
7.9200001

>  <Kier3>
4.7593293

>  <KierA1>
15.631972

>  <KierA2>
6.340169

>  <KierA3>
3.7802114

>  <KierFlex>
4.3091021

>  <lip_acc>
4

>  <lip_don>
1

>  <lip_druglike>
1

>  <lip_violation>
0

>  <logP(o/w)>
3.7520001

>  <logS>
-5.05091

>  <mr>
9.5329237

>  <mutagenic>
0

>  <nmol>
1

>  <opr_brigid>
11

>  <opr_leadlike>
1

>  <opr_nring>
2

>  <opr_nrot>
5

>  <opr_violation>
0

>  <PC+>
0

>  <PC->
0

>  <PEOE_PC+>
1.0243744

>  <PEOE_PC->
-1.0243744

>  <PEOE_RPC+>
0.28645307

>  <PEOE_RPC->
0.25759742

>  <PEOE_VSA+0>
135.65083

>  <PEOE_VSA+1>
11.219297

>  <PEOE_VSA+2>
6.6995511

>  <PEOE_VSA+3>
54.198967

>  <PEOE_VSA+4>
0

>  <PEOE_VSA+5>
12.949531

>  <PEOE_VSA+6>
0

>  <PEOE_VSA-0>
65.44252

>  <PEOE_VSA-1>
29.581947

>  <PEOE_VSA-2>
0

>  <PEOE_VSA-3>
9.4210396

>  <PEOE_VSA-4>
5.6825762

>  <PEOE_VSA-5>
13.566921

>  <PEOE_VSA-6>
0

>  <PEOE_VSA_FHYD>
0.90651047

>  <PEOE_VSA_FNEG>
0.35914713

>  <PEOE_VSA_FPNEG>
0.055890709

>  <PEOE_VSA_FPOL>
0.093489535

>  <PEOE_VSA_FPOS>
0.64085287

>  <PEOE_VSA_FPPOS>
0.037598826

>  <PEOE_VSA_HYD>
312.21414

>  <PEOE_VSA_NEG>
123.695

>  <PEOE_VSA_PNEG>
19.249496

>  <PEOE_VSA_POL>
32.199028

>  <PEOE_VSA_POS>
220.71819

>  <PEOE_VSA_PPOS>
12.949531

>  <petitjean>
0.46153846

>  <petitjeanSC>
0.85714287

>  <Q_PC+>
0

>  <Q_PC->
0

>  <Q_RPC+>
0

>  <Q_RPC->
0

>  <Q_VSA_FHYD>
1

>  <Q_VSA_FNEG>
0

>  <Q_VSA_FPNEG>
0

>  <Q_VSA_FPOL>
0

>  <Q_VSA_FPOS>
1

>  <Q_VSA_FPPOS>
0

>  <Q_VSA_HYD>
344.41318

>  <Q_VSA_NEG>
0

>  <Q_VSA_PNEG>
0

>  <Q_VSA_POL>
0

>  <Q_VSA_POS>
344.41318

>  <Q_VSA_PPOS>
0

>  <radius>
7

>  <reactive>
0

>  <rings>
2

>  <RPC+>
0

>  <RPC->
0

>  <rsynth>
1

>  <SlogP>
4.4889698

>  <SlogP_VSA0>
18.01075

>  <SlogP_VSA1>
23.698362

>  <SlogP_VSA2>
0

>  <SlogP_VSA3>
0

>  <SlogP_VSA4>
35.746861

>  <SlogP_VSA5>
18.868406

>  <SlogP_VSA6>
3.5006065

>  <SlogP_VSA7>
70.572739

>  <SlogP_VSA8>
0

>  <SlogP_VSA9>
223.78947

>  <SMR>
9.4394197

>  <SMR_VSA0>
23.862217

>  <SMR_VSA1>
18.439579

>  <SMR_VSA2>
18.01075

>  <SMR_VSA3>
15.385252

>  <SMR_VSA4>
0

>  <SMR_VSA5>
107.88072

>  <SMR_VSA6>
5.2587838

>  <SMR_VSA7>
205.34988

>  <TPSA>
46.919998

>  <VAdjEq>
0.43892586

>  <VAdjMa>
5.5849624

>  <VDistEq>
3.4982755

>  <VDistMa>
8.7159519

>  <vdw_area>
344.41318

>  <vdw_vol>
390.43295

>  <vsa_acc>
22.987961

>  <vsa_acid>
0

>  <vsa_base>
0

>  <vsa_don>
5.6825762

>  <vsa_hyd>
302.79312

>  <vsa_other>
12.949531

>  <vsa_pol>
28.670536

>  <Weight>
333.86301

>  <weinerPath>
1343

>  <weinerPol>
35

>  <zagreb>
118

$$$$
S=P(OCC)(OC1=CN=C(C(C)(C)C)N=C1)OC(C)C
  MOE2011           2D

 20 20  0  0  1  0  0  0  0  0999 V2000
    0.0000    0.0000    0.0000 S   0  0  0  0  0  0  0  0  0  0  0  0
   -0.7540    1.2970    0.0000 P   0  0  3  0  0  0  0  0  0  0  0  0
   -2.0510    0.5430    0.0000 O   0  0  0  0  0  0  0  0  0  0  0  0
   -2.0460   -0.9570    0.0000 C   0  0  0  0  0  0  0  0  0  0  0  0
   -3.3430   -1.7110    0.0000 C   0  0  0  0  0  0  0  0  0  0  0  0
    0.5430    2.0510    0.0000 O   0  0  0  0  0  0  0  0  0  0  0  0
    1.8440    1.3050    0.0000 C   0  0  0  0  0  0  0  0  0  0  0  0
    3.1410    2.0590    0.0000 C   0  0  0  0  0  0  0  0  0  0  0  0
    4.4420    1.3120    0.0000 N   0  0  0  0  0  0  0  0  0  0  0  0
    4.4470   -0.1880    0.0000 C   0  0  0  0  0  0  0  0  0  0  0  0
    5.7480   -0.9340    0.0000 C   0  0  0  0  0  0  0  0  0  0  0  0
    7.0490   -1.6800    0.0000 C   0  0  0  0  0  0  0  0  0  0  0  0
    5.0020   -2.2350    0.0000 C   0  0  0  0  0  0  0  0  0  0  0  0
    6.4940    0.3680    0.0000 C   0  0  0  0  0  0  0  0  0  0  0  0
    3.1500   -0.9410    0.0000 N   0  0  0  0  0  0  0  0  0  0  0  0
    1.8490   -0.1950    0.0000 C   0  0  0  0  0  0  0  0  0  0  0  0
   -1.5080    2.5940    0.0000 O   0  0  0  0  0  0  0  0  0  0  0  0
   -3.0080    2.5890    0.0000 C   0  0  0  0  0  0  0  0  0  0  0  0
   -3.7620    3.8860    0.0000 C   0  0  0  0  0  0  0  0  0  0  0  0
   -3.7540    1.2880    0.0000 C   0  0  0  0  0  0  0  0  0  0  0  0
  1  2  2  0  0  0  0
  2  3  1  0  0  0  0
  2  6  1  0  0  0  0
  2 17  1  0  0  0  0
  3  4  1  0  0  0  0
  4  5  1  0  0  0  0
  6  7  1  0  0  0  0
  7  8  1  0  0  0  0
  7 16  2  0  0  0  0
  8  9  2  0  0  0  0
  9 10  1  0  0  0  0
 10 11  1  0  0  0  0
 10 15  2  0  0  0  0
 11 12  1  0  0  0  0
 11 13  1  0  0  0  0
 11 14  1  0  0  0  0
 15 16  1  0  0  0  0
 17 18  1  0  0  0  0
 18 19  1  0  0  0  0
 18 20  1  0  0  0  0
M  END
>  <DSSTox_RID>
40558

>  <DSSTox_CID>
12482

>  <apol>
49.352238

>  <a_acc>
5

>  <a_acid>
0

>  <a_aro>
6

>  <a_base>
0

>  <a_count>
43

>  <a_don>
0

>  <a_heavy>
20

>  <a_hyd>
12

>  <a_IC>
74.426857

>  <a_ICM>
1.7308571

>  <a_nB>
0

>  <a_nBr>
0

>  <a_nC>
13

>  <a_nCl>
0

>  <a_nF>
0

>  <a_nH>
23

>  <a_nI>
0

>  <a_nN>
2

>  <a_nO>
3

>  <a_nP>
1

>  <a_nS>
1

>  <balabanJ>
2.5196376

>  <BCUT_PEOE_0>
-2.6006265

>  <BCUT_PEOE_1>
-0.10525975

>  <BCUT_PEOE_2>
0.025623797

>  <BCUT_PEOE_3>
2.5897527

>  <BCUT_SLOGP_0>
-2.5386491

>  <BCUT_SLOGP_1>
-0.047077946

>  <BCUT_SLOGP_2>
0.123

>  <BCUT_SLOGP_3>
2.692054

>  <BCUT_SMR_0>
-2.3631465

>  <BCUT_SMR_1>
0.1057

>  <BCUT_SMR_2>
0.17889491

>  <BCUT_SMR_3>
2.8385251

>  <bpol>
39.871761

>  <b_1rotN>
6

>  <b_1rotR>
0.30000001

>  <b_ar>
6

>  <b_count>
43

>  <b_double>
0

>  <b_heavy>
20

>  <b_rotN>
7

>  <b_rotR>
0.34999999

>  <b_single>
37

>  <b_triple>
0

>  <chi0>
15.388906

>  <chi0v>
14.624715

>  <chi0v_C>
9.9391575

>  <chi0_C>
10.353372

>  <chi1>
9.1606321

>  <chi1v>
9.1676054

>  <chi1v_C>
4.1891575

>  <chi1_C>
4.466979

>  <chiral>
1

>  <chiral_u>
1

>  <density>
0.85833734

>  <diameter>
10

>  <FCharge>
0

>  <GCUT_PEOE_0>
-0.77010334

>  <GCUT_PEOE_1>
-0.27932703

>  <GCUT_PEOE_2>
-0.1343762

>  <GCUT_PEOE_3>
2.4957168

>  <GCUT_SLOGP_0>
-0.8098703

>  <GCUT_SLOGP_1>
-0.24246672

>  <GCUT_SLOGP_2>
-0.037

>  <GCUT_SLOGP_3>
2.5999379

>  <GCUT_SMR_0>
-0.52344984

>  <GCUT_SMR_1>
-0.067714691

>  <GCUT_SMR_2>
-0.054299999

>  <GCUT_SMR_3>
2.7494714

>  <Kier1>
18.049999

>  <Kier2>
7.3198571

>  <Kier3>
6.1199999

>  <KierA1>
18.570921

>  <KierA2>
7.5427599

>  <KierA3>
6.3134856

>  <KierFlex>
7.0037999

>  <lip_acc>
5

>  <lip_don>
0

>  <lip_druglike>
1

>  <lip_violation>
0

>  <logP(o/w)>
2.7479999

>  <logS>
-3.30339

>  <mr>
8.6754637

>  <mutagenic>
0

>  <nmol>
1

>  <opr_brigid>
6

>  <opr_leadlike>
1

>  <opr_nring>
1

>  <opr_nrot>
7

>  <opr_violation>
0

>  <PC+>
0

>  <PC->
0

>  <PEOE_PC+>
1.4930243

>  <PEOE_PC->
-1.4930243

>  <PEOE_RPC+>
0.22302245

>  <PEOE_RPC->
0.30659106

>  <PEOE_VSA+0>
176.4507

>  <PEOE_VSA+1>
0

>  <PEOE_VSA+2>
51.789574

>  <PEOE_VSA+3>
16.917038

>  <PEOE_VSA+4>
22.058474

>  <PEOE_VSA+5>
0

>  <PEOE_VSA+6>
15.590208

>  <PEOE_VSA-0>
0

>  <PEOE_VSA-1>
0

>  <PEOE_VSA-2>
0

>  <PEOE_VSA-3>
4.6659718

>  <PEOE_VSA-4>
20.697096

>  <PEOE_VSA-5>
0

>  <PEOE_VSA-6>
33.008488

>  <PEOE_VSA_FHYD>
0.73223835

>  <PEOE_VSA_FNEG>
0.1710885

>  <PEOE_VSA_FPNEG>
0.15741242

>  <PEOE_VSA_FPOL>
0.26776165

>  <PEOE_VSA_FPOS>
0.82891148

>  <PEOE_VSA_FPPOS>
0.11034924

>  <PEOE_VSA_HYD>
249.82329

>  <PEOE_VSA_NEG>
58.371555

>  <PEOE_VSA_PNEG>
53.705582

>  <PEOE_VSA_POL>
91.354263

>  <PEOE_VSA_POS>
282.806

>  <PEOE_VSA_PPOS>
37.648682

>  <petitjean>
0.5

>  <petitjeanSC>
1

>  <Q_PC+>
0

>  <Q_PC->
0

>  <Q_RPC+>
0

>  <Q_RPC->
0

>  <Q_VSA_FHYD>
1

>  <Q_VSA_FNEG>
0

>  <Q_VSA_FPNEG>
0

>  <Q_VSA_FPOL>
0

>  <Q_VSA_FPOS>
1

>  <Q_VSA_FPPOS>
0

>  <Q_VSA_HYD>
341.17755

>  <Q_VSA_NEG>
0

>  <Q_VSA_PNEG>
0

>  <Q_VSA_POL>
0

>  <Q_VSA_POS>
341.17755

>  <Q_VSA_PPOS>
0

>  <radius>
5

>  <reactive>
0

>  <rings>
1

>  <RPC+>
0

>  <RPC->
0

>  <rsynth>
1

>  <SlogP>
3.8389001

>  <SlogP_VSA0>
6.9216304

>  <SlogP_VSA1>
33.57106

>  <SlogP_VSA2>
63.005886

>  <SlogP_VSA3>
20.926258

>  <SlogP_VSA4>
2.3279202

>  <SlogP_VSA5>
0

>  <SlogP_VSA6>
0

>  <SlogP_VSA7>
34.428715

>  <SlogP_VSA8>
0

>  <SlogP_VSA9>
218.12665

>  <SMR>
8.3492002

>  <SMR_VSA0>
13.843261

>  <SMR_VSA1>
40.492691

>  <SMR_VSA2>
0

>  <SMR_VSA3>
14.039997

>  <SMR_VSA4>
0

>  <SMR_VSA5>
34.428715

>  <SMR_VSA6>
20.926258

>  <SMR_VSA7>
255.57719

>  <TPSA>
85.559998

>  <VAdjEq>
0.4689956

>  <VAdjMa>
5.321928

>  <VDistEq>
3.2176356

>  <VDistMa>
8.3374491

>  <vdw_area>
341.17755

>  <vdw_vol>
343.91373

>  <vsa_acc>
25.363068

>  <vsa_acid>
0

>  <vsa_base>
0

>  <vsa_don>
0

>  <vsa_hyd>
256.02524

>  <vsa_other>
59.789257

>  <vsa_pol>
25.363068

>  <Weight>
318.37799

>  <weinerPath>
871

>  <weinerPol>
27

>  <zagreb>
98

$$$$
O=C(OCC2=C(F)C(F)=C(C)C(F)=C2F)C1C(C)(C)C1/C=C(Cl)/C(F)(F)F
  MOE2011           2D

 27 28  0  0  1  0  0  0  0  0999 V2000
    0.0000    0.0000    0.0000 O   0  0  0  0  0  0  0  0  0  0  0  0
    0.0030   -1.5000    0.0000 C   0  0  0  0  0  0  0  0  0  0  0  0
   -1.2940   -2.2530    0.0000 O   0  0  0  0  0  0  0  0  0  0  0  0
   -2.5950   -1.5060    0.0000 C   0  0  0  0  0  0  0  0  0  0  0  0
   -3.8920   -2.2580    0.0000 C   0  0  0  0  0  0  0  0  0  0  0  0
   -3.8890   -3.7580    0.0000 C   0  0  0  0  0  0  0  0  0  0  0  0
   -2.5880   -4.5060    0.0000 F   0  0  0  0  0  0  0  0  0  0  0  0
   -5.1860   -4.5110    0.0000 C   0  0  0  0  0  0  0  0  0  0  0  0
   -5.1830   -6.0110    0.0000 F   0  0  0  0  0  0  0  0  0  0  0  0
   -6.4870   -3.7640    0.0000 C   0  0  0  0  0  0  0  0  0  0  0  0
   -7.7840   -4.5170    0.0000 C   0  0  0  0  0  0  0  0  0  0  0  0
   -6.4900   -2.2640    0.0000 C   0  0  0  0  0  0  0  0  0  0  0  0
   -7.7910   -1.5170    0.0000 F   0  0  0  0  0  0  0  0  0  0  0  0
   -5.1930   -1.5110    0.0000 C   0  0  0  0  0  0  0  0  0  0  0  0
   -5.1960   -0.0110    0.0000 F   0  0  0  0  0  0  0  0  0  0  0  0
    1.3040   -2.2470    0.0000 C   0  0  3  0  0  0  0  0  0  0  0  0
    2.0570   -3.5450    0.0000 C   0  0  0  0  0  0  0  0  0  0  0  0
    1.1460   -4.7370    0.0000 C   0  0  0  0  0  0  0  0  0  0  0  0
    2.9720   -4.7330    0.0000 C   0  0  0  0  0  0  0  0  0  0  0  0
    2.8040   -2.2440    0.0000 C   0  0  3  0  0  0  0  0  0  0  0  0
    4.1010   -1.4910    0.0000 C   0  0  0  0  0  0  0  0  0  0  0  0
    5.4020   -2.2380    0.0000 C   0  0  0  0  0  0  0  0  0  0  0  0
    5.4050   -3.7380    0.0000 Cl  0  0  0  0  0  0  0  0  0  0  0  0
    6.6990   -1.4850    0.0000 C   0  0  0  0  0  0  0  0  0  0  0  0
    7.9970   -0.7330    0.0000 F   0  0  0  0  0  0  0  0  0  0  0  0
    7.4520   -2.7830    0.0000 F   0  0  0  0  0  0  0  0  0  0  0  0
    5.9470   -0.1880    0.0000 F   0  0  0  0  0  0  0  0  0  0  0  0
  1  2  2  0  0  0  0
  2  3  1  0  0  0  0
  2 16  1  0  0  0  0
  3  4  1  0  0  0  0
  4  5  1  0  0  0  0
  5  6  1  0  0  0  0
  5 14  2  0  0  0  0
  6  7  1  0  0  0  0
  6  8  2  0  0  0  0
  8  9  1  0  0  0  0
  8 10  1  0  0  0  0
 10 11  1  0  0  0  0
 10 12  2  0  0  0  0
 12 13  1  0  0  0  0
 12 14  1  0  0  0  0
 14 15  1  0  0  0  0
 16 17  1  0  0  0  0
 16 20  1  0  0  0  0
 17 18  1  0  0  0  0
 17 19  1  0  0  0  0
 17 20  1  0  0  0  0
 20 21  1  0  0  0  0
 21 22  2  0  0  0  0
 22 23  1  0  0  0  0
 22 24  1  0  0  0  0
 24 25  1  0  0  0  0
 24 26  1  0  0  0  0
 24 27  1  0  0  0  0
M  END
>  <DSSTox_RID>
40602

>  <DSSTox_CID>
12577

>  <apol>
46.938103

>  <a_acc>
1

>  <a_acid>
0

>  <a_aro>
6

>  <a_base>
0

>  <a_count>
41

>  <a_don>
0

>  <a_heavy>
27

>  <a_hyd>
24

>  <a_IC>
75.218307

>  <a_ICM>
1.8345929

>  <a_nB>
0

>  <a_nBr>
0

>  <a_nC>
17

>  <a_nCl>
1

>  <a_nF>
7

>  <a_nH>
14

>  <a_nI>
0

>  <a_nN>
0

>  <a_nO>
2

>  <a_nP>
0

>  <a_nS>
0

>  <balabanJ>
1.9458809

>  <BCUT_PEOE_0>
-2.4688408

>  <BCUT_PEOE_1>
-0.47813961

>  <BCUT_PEOE_2>
0.34941253

>  <BCUT_PEOE_3>
2.9002032

>  <BCUT_SLOGP_0>
-2.3883898

>  <BCUT_SLOGP_1>
-0.23111315

>  <BCUT_SLOGP_2>
0.51439977

>  <BCUT_SLOGP_3>
2.9238875

>  <BCUT_SMR_0>
-2.2307112

>  <BCUT_SMR_1>
-0.18358569

>  <BCUT_SMR_2>
0.48292971

>  <BCUT_SMR_3>
3.1344335

>  <bpol>
27.019897

>  <b_1rotN>
4

>  <b_1rotR>
0.14285715

>  <b_ar>
6

>  <b_count>
42

>  <b_double>
2

>  <b_heavy>
28

>  <b_rotN>
6

>  <b_rotR>
0.21428572

>  <b_single>
34

>  <b_triple>
0

>  <chi0>
20.894823

>  <chi0v>
15.035299

>  <chi0v_C>
10.439157

>  <chi0_C>
11.187716

>  <chi1>
12.207137

>  <chi1v>
8.0116663

>  <chi1v_C>
5.4249206

>  <chi1_C>
6.3347874

>  <chiral>
2

>  <chiral_u>
2

>  <density>
1.0475076

>  <diameter>
13

>  <FCharge>
0

>  <GCUT_PEOE_0>
-0.76429492

>  <GCUT_PEOE_1>
-0.40519285

>  <GCUT_PEOE_2>
-0.076491244

>  <GCUT_PEOE_3>
2.6044891

>  <GCUT_SLOGP_0>
-0.84557891

>  <GCUT_SLOGP_1>
-0.17424373

>  <GCUT_SLOGP_2>
0.24154963

>  <GCUT_SLOGP_3>
2.6596284

>  <GCUT_SMR_0>
-0.50996947

>  <GCUT_SMR_1>
-0.11581599

>  <GCUT_SMR_2>
0.093884379

>  <GCUT_SMR_3>
2.8227477

>  <Kier1>
23.280613

>  <Kier2>
8.0246916

>  <Kier3>
4.3022122

>  <KierA1>
20.008997

>  <KierA2>
6.8547544

>  <KierA3>
3.6582601

>  <KierFlex>
5.0798798

>  <lip_acc>
2

>  <lip_don>
0

>  <lip_druglike>
1

>  <lip_violation>
1

>  <logP(o/w)>
5.5597601

>  <logS>
-6.42065

>  <mr>
8.5018663

>  <mutagenic>
0

>  <nmol>
1

>  <opr_brigid>
10

>  <opr_leadlike>
1

>  <opr_nring>
2

>  <opr_nrot>
4

>  <opr_violation>
1

>  <PC+>
0

>  <PC->
0

>  <PEOE_PC+>
1.9531019

>  <PEOE_PC->
-1.9531019

>  <PEOE_RPC+>
0.21916601

>  <PEOE_RPC->
0.15170163

>  <PEOE_VSA+0>
92.642426

>  <PEOE_VSA+1>
4.4170794

>  <PEOE_VSA+2>
4.5197463

>  <PEOE_VSA+3>
58.141857

>  <PEOE_VSA+4>
0

>  <PEOE_VSA+5>
14.708499

>  <PEOE_VSA+6>
9.0455017

>  <PEOE_VSA-0>
15.808495

>  <PEOE_VSA-1>
29.581947

>  <PEOE_VSA-2>
0

>  <PEOE_VSA-3>
35.725906

>  <PEOE_VSA-4>
47.634544

>  <PEOE_VSA-5>
16.070677

>  <PEOE_VSA-6>
0

>  <PEOE_VSA_FHYD>
0.73359698

>  <PEOE_VSA_FNEG>
0.44113016

>  <PEOE_VSA_FPNEG>
0.19404772

>  <PEOE_VSA_FPOL>
0.26640299

>  <PEOE_VSA_FPOS>
0.55886984

>  <PEOE_VSA_FPPOS>
0.072355293

>  <PEOE_VSA_HYD>
240.83746

>  <PEOE_VSA_NEG>
144.82156

>  <PEOE_VSA_PNEG>
63.705219

>  <PEOE_VSA_POL>
87.459221

>  <PEOE_VSA_POS>
183.47511

>  <PEOE_VSA_PPOS>
23.754002

>  <petitjean>
0.46153846

>  <petitjeanSC>
0.85714287

>  <Q_PC+>
0

>  <Q_PC->
0

>  <Q_RPC+>
0

>  <Q_RPC->
0

>  <Q_VSA_FHYD>
1

>  <Q_VSA_FNEG>
0

>  <Q_VSA_FPNEG>
0

>  <Q_VSA_FPOL>
0

>  <Q_VSA_FPOS>
1

>  <Q_VSA_FPPOS>
0

>  <Q_VSA_HYD>
328.29669

>  <Q_VSA_NEG>
0

>  <Q_VSA_PNEG>
0

>  <Q_VSA_POL>
0

>  <Q_VSA_POS>
328.29669

>  <Q_VSA_PPOS>
0

>  <radius>
7

>  <reactive>
0

>  <rings>
2

>  <RPC+>
0

>  <RPC->
0

>  <rsynth>
0.037037037

>  <SlogP>
5.8182201

>  <SlogP_VSA0>
0

>  <SlogP_VSA1>
15.50498

>  <SlogP_VSA2>
71.346176

>  <SlogP_VSA3>
0

>  <SlogP_VSA4>
15.192742

>  <SlogP_VSA5>
3.5006065

>  <SlogP_VSA6>
0

>  <SlogP_VSA7>
17.643185

>  <SlogP_VSA8>
0

>  <SlogP_VSA9>
264.77374

>  <SMR>
8.1764002

>  <SMR_VSA0>
34.862103

>  <SMR_VSA1>
104.72079

>  <SMR_VSA2>
53.065182

>  <SMR_VSA3>
9.8717566

>  <SMR_VSA4>
0

>  <SMR_VSA5>
38.569443

>  <SMR_VSA6>
7.7454643

>  <SMR_VSA7>
139.12669

>  <TPSA>
26.299999

>  <VAdjEq>
0.39086518

>  <VAdjMa>
5.8073549

>  <VDistEq>
3.543014

>  <VDistMa>
9.2111187

>  <vdw_area>
328.29669

>  <vdw_vol>
386.27304

>  <vsa_acc>
13.566921

>  <vsa_acid>
0

>  <vsa_base>
0

>  <vsa_don>
0

>  <vsa_hyd>
297.51752

>  <vsa_other>
17.212255

>  <vsa_pol>
13.566921

>  <Weight>
418.73599

>  <weinerPath>
1966

>  <weinerPol>
45

>  <zagreb>
146

$$$$
O=C1NC(/C)=C(/Cl)C(=O)N1C(C)(C)C
  MOE2011           2D

 14 14  0  0  0  0  0  0  0  0999 V2000
    0.0000    0.0000    0.0000 O   0  0  0  0  0  0  0  0  0  0  0  0
    0.7420   -1.3040    0.0000 C   0  0  0  0  0  0  0  0  0  0  0  0
    2.2420   -1.3130    0.0000 N   0  0  0  0  0  0  0  0  0  0  0  0
    2.9840   -2.6160    0.0000 C   0  0  0  0  0  0  0  0  0  0  0  0
    4.4840   -2.6260    0.0000 C   0  0  0  0  0  0  0  0  0  0  0  0
    2.2260   -3.9110    0.0000 C   0  0  0  0  0  0  0  0  0  0  0  0
    2.9680   -5.2150    0.0000 Cl  0  0  0  0  0  0  0  0  0  0  0  0
    0.7260   -3.9020    0.0000 C   0  0  0  0  0  0  0  0  0  0  0  0
   -0.0320   -5.1960    0.0000 O   0  0  0  0  0  0  0  0  0  0  0  0
   -0.0160   -2.5980    0.0000 N   0  0  0  0  0  0  0  0  0  0  0  0
   -1.5160   -2.5890    0.0000 C   0  0  0  0  0  0  0  0  0  0  0  0
   -1.5070   -1.0890    0.0000 C   0  0  0  0  0  0  0  0  0  0  0  0
   -1.5250   -4.0890    0.0000 C   0  0  0  0  0  0  0  0  0  0  0  0
   -3.0160   -2.5800    0.0000 C   0  0  0  0  0  0  0  0  0  0  0  0
  1  2  2  0  0  0  0
  2  3  1  0  0  0  0
  2 10  1  0  0  0  0
  3  4  1  0  0  0  0
  4  5  1  0  0  0  0
  4  6  2  0  0  0  0
  6  7  1  0  0  0  0
  6  8  1  0  0  0  0
  8  9  2  0  0  0  0
  8 10  1  0  0  0  0
 10 11  1  0  0  0  0
 11 12  1  0  0  0  0
 11 13  1  0  0  0  0
 11 14  1  0  0  0  0
M  END
>  <DSSTox_RID>
40603

>  <DSSTox_CID>
4317

>  <apol>
30.49231

>  <a_acc>
2

>  <a_acid>
0

>  <a_aro>
0

>  <a_base>
0

>  <a_count>
27

>  <a_don>
1

>  <a_heavy>
14

>  <a_hyd>
8

>  <a_IC>
47.746922

>  <a_ICM>
1.7684045

>  <a_nB>
0

>  <a_nBr>
0

>  <a_nC>
9

>  <a_nCl>
1

>  <a_nF>
0

>  <a_nH>
13

>  <a_nI>
0

>  <a_nN>
2

>  <a_nO>
2

>  <a_nP>
0

>  <a_nS>
0

>  <balabanJ>
2.8680975

>  <BCUT_PEOE_0>
-2.6577835

>  <BCUT_PEOE_1>
-0.12168761

>  <BCUT_PEOE_2>
0.1163813

>  <BCUT_PEOE_3>
2.6368651

>  <BCUT_SLOGP_0>
-2.7367296

>  <BCUT_SLOGP_1>
-0.0001683224

>  <BCUT_SLOGP_2>
0.2553702

>  <BCUT_SLOGP_3>
2.6296709

>  <BCUT_SMR_0>
-2.4028816

>  <BCUT_SMR_1>
0.017501263

>  <BCUT_SMR_2>
0.32297683

>  <BCUT_SMR_3>
2.8954349

>  <bpol>
19.187691

>  <b_1rotN>
0

>  <b_1rotR>
0

>  <b_ar>
0

>  <b_count>
27

>  <b_double>
3

>  <b_heavy>
14

>  <b_rotN>
1

>  <b_rotR>
0.071428575

>  <b_single>
24

>  <b_triple>
0

>  <chi0>
11.093858

>  <chi0v>
9.397604

>  <chi0v_C>
6.5

>  <chi0_C>
6.809401

>  <chi1>
6.2479062

>  <chi1v>
4.6460152

>  <chi1v_C>
2.5

>  <chi1_C>
2.7440169

>  <chiral>
0

>  <chiral_u>
0

>  <density>
0.89608699

>  <diameter>
6

>  <FCharge>
0

>  <GCUT_PEOE_0>
-0.80191594

>  <GCUT_PEOE_1>
-0.28783748

>  <GCUT_PEOE_2>
-0.13077147

>  <GCUT_PEOE_3>
2.4405286

>  <GCUT_SLOGP_0>
-1.1355714

>  <GCUT_SLOGP_1>
-0.20075534

>  <GCUT_SLOGP_2>
-0.0152172

>  <GCUT_SLOGP_3>
2.4350514

>  <GCUT_SMR_0>
-0.52327144

>  <GCUT_SMR_1>
-0.099432521

>  <GCUT_SMR_2>
0.057408668

>  <GCUT_SMR_3>
2.6878672

>  <Kier1>
12.071428

>  <Kier2>
3.8677685

>  <Kier3>
2.3431952

>  <KierA1>
10.158784

>  <KierA2>
3.2081769

>  <KierA3>
1.9221418

>  <KierFlex>
2.3279412

>  <lip_acc>
4

>  <lip_don>
1

>  <lip_druglike>
1

>  <lip_violation>
0

>  <logP(o/w)>
1.651

>  <logS>
-2.4256799

>  <mr>
5.4146962

>  <mutagenic>
0

>  <nmol>
1

>  <opr_brigid>
6

>  <opr_leadlike>
1

>  <opr_nring>
1

>  <opr_nrot>
1

>  <opr_violation>
0

>  <PC+>
0

>  <PC->
0

>  <PEOE_PC+>
1.0321366

>  <PEOE_PC->
-1.0321366

>  <PEOE_RPC+>
0.34106565

>  <PEOE_RPC->
0.257604

>  <PEOE_VSA+0>
88.225349

>  <PEOE_VSA+1>
36.108002

>  <PEOE_VSA+2>
4.5197463

>  <PEOE_VSA+3>
0

>  <PEOE_VSA+4>
0

>  <PEOE_VSA+5>
12.949531

>  <PEOE_VSA+6>
17.440542

>  <PEOE_VSA-0>
0

>  <PEOE_VSA-1>
29.581947

>  <PEOE_VSA-2>
0

>  <PEOE_VSA-3>
5.6825762

>  <PEOE_VSA-4>
13.566921

>  <PEOE_VSA-5>
13.566921

>  <PEOE_VSA-6>
0

>  <PEOE_VSA_FHYD>
0.74046421

>  <PEOE_VSA_FNEG>
0.28152829

>  <PEOE_VSA_FPNEG>
0.12242219

>  <PEOE_VSA_FPOL>
0.25953582

>  <PEOE_VSA_FPOS>
0.71847171

>  <PEOE_VSA_FPPOS>
0.13711362

>  <PEOE_VSA_HYD>
164.11761

>  <PEOE_VSA_NEG>
62.398365

>  <PEOE_VSA_PNEG>
27.133842

>  <PEOE_VSA_POL>
57.523914

>  <PEOE_VSA_POS>
159.24316

>  <PEOE_VSA_PPOS>
30.390074

>  <petitjean>
0.5

>  <petitjeanSC>
1

>  <Q_PC+>
0

>  <Q_PC->
0

>  <Q_RPC+>
0

>  <Q_RPC->
0

>  <Q_VSA_FHYD>
1

>  <Q_VSA_FNEG>
0

>  <Q_VSA_FPNEG>
0

>  <Q_VSA_FPOL>
0

>  <Q_VSA_FPOS>
1

>  <Q_VSA_FPPOS>
0

>  <Q_VSA_HYD>
221.64154

>  <Q_VSA_NEG>
0

>  <Q_VSA_PNEG>
0

>  <Q_VSA_POL>
0

>  <Q_VSA_POS>
221.64154

>  <Q_VSA_PPOS>
0

>  <radius>
3

>  <reactive>
0

>  <rings>
1

>  <RPC+>
0

>  <RPC->
0

>  <rsynth>
1

>  <SlogP>
1.807

>  <SlogP_VSA0>
18.01075

>  <SlogP_VSA1>
13.213054

>  <SlogP_VSA2>
23.862217

>  <SlogP_VSA3>
0

>  <SlogP_VSA4>
0

>  <SlogP_VSA5>
6.2573543

>  <SlogP_VSA6>
0

>  <SlogP_VSA7>
0

>  <SlogP_VSA8>
0

>  <SlogP_VSA9>
196.31493

>  <SMR>
5.3683701

>  <SMR_VSA0>
47.724434

>  <SMR_VSA1>
3.1243138

>  <SMR_VSA2>
18.01075

>  <SMR_VSA3>
6.2573543

>  <SMR_VSA4>
0

>  <SMR_VSA5>
0

>  <SMR_VSA6>
10.088739

>  <SMR_VSA7>
172.4527

>  <TPSA>
49.41

>  <VAdjEq>
0.59167278

>  <VAdjMa>
4.8073549

>  <VDistEq>
2.371026

>  <VDistMa>
7.3585668

>  <vdw_area>
221.64154

>  <vdw_vol>
227.16991

>  <vsa_acc>
27.133842

>  <vsa_acid>
0

>  <vsa_base>
0

>  <vsa_don>
5.6825762

>  <vsa_hyd>
158.43504

>  <vsa_other>
30.390074

>  <vsa_pol>
32.816418

>  <Weight>
216.668

>  <weinerPath>
269

>  <weinerPol>
23

>  <zagreb>
72

$$$$
ClC2=C(C=CC(Cl)=C2)C(COC(F)(F)C(F)F)CN1N=CN=C1
  MOE2011           2D

 23 24  0  0  1  0  0  0  0  0999 V2000
    0.0000    0.0000    0.0000 Cl  0  0  0  0  0  0  0  0  0  0  0  0
    0.7530   -1.2970    0.0000 C   0  0  0  0  0  0  0  0  0  0  0  0
    0.0060   -2.5980    0.0000 C   0  0  0  0  0  0  0  0  0  0  0  0
    0.7590   -3.8950    0.0000 C   0  0  0  0  0  0  0  0  0  0  0  0
    2.2590   -3.8920    0.0000 C   0  0  0  0  0  0  0  0  0  0  0  0
    3.0060   -2.5910    0.0000 C   0  0  0  0  0  0  0  0  0  0  0  0
    4.5060   -2.5880    0.0000 Cl  0  0  0  0  0  0  0  0  0  0  0  0
    2.2530   -1.2940    0.0000 C   0  0  0  0  0  0  0  0  0  0  0  0
   -1.4940   -2.6010    0.0000 C   0  0  3  0  0  0  0  0  0  0  0  0
   -2.2410   -3.9020    0.0000 C   0  0  0  0  0  0  0  0  0  0  0  0
   -1.4890   -5.1990    0.0000 O   0  0  0  0  0  0  0  0  0  0  0  0
   -2.2360   -6.5000    0.0000 C   0  0  0  0  0  0  0  0  0  0  0  0
   -3.5360   -5.7530    0.0000 F   0  0  0  0  0  0  0  0  0  0  0  0
   -0.9350   -7.2470    0.0000 F   0  0  0  0  0  0  0  0  0  0  0  0
   -2.9830   -7.8010    0.0000 C   0  0  0  0  0  0  0  0  0  0  0  0
   -4.4830   -7.8040    0.0000 F   0  0  0  0  0  0  0  0  0  0  0  0
   -2.2300   -9.0980    0.0000 F   0  0  0  0  0  0  0  0  0  0  0  0
   -2.2470   -1.3040    0.0000 C   0  0  0  0  0  0  0  0  0  0  0  0
   -3.7470   -1.3070    0.0000 N   0  0  0  0  0  0  0  0  0  0  0  0
   -4.6260   -2.5230    0.0000 N   0  0  0  0  0  0  0  0  0  0  0  0
   -6.0540   -2.0620    0.0000 C   0  0  0  0  0  0  0  0  0  0  0  0
   -6.0570   -0.5620    0.0000 N   0  0  0  0  0  0  0  0  0  0  0  0
   -4.6310   -0.0960    0.0000 C   0  0  0  0  0  0  0  0  0  0  0  0
  1  2  1  0  0  0  0
  2  3  1  0  0  0  0
  2  8  2  0  0  0  0
  3  4  2  0  0  0  0
  3  9  1  0  0  0  0
  4  5  1  0  0  0  0
  5  6  2  0  0  0  0
  6  7  1  0  0  0  0
  6  8  1  0  0  0  0
  9 10  1  0  0  0  0
  9 18  1  0  0  0  0
 10 11  1  0  0  0  0
 11 12  1  0  0  0  0
 12 13  1  0  0  0  0
 12 14  1  0  0  0  0
 12 15  1  0  0  0  0
 15 16  1  0  0  0  0
 15 17  1  0  0  0  0
 18 19  1  0  0  0  0
 19 20  1  0  0  0  0
 19 23  1  0  0  0  0
 20 21  2  0  0  0  0
 21 22  1  0  0  0  0
 22 23  2  0  0  0  0
M  END
>  <DSSTox_RID>
40604

>  <DSSTox_CID>
14956

>  <apol>
40.904724

>  <a_acc>
3

>  <a_acid>
0

>  <a_aro>
11

>  <a_base>
0

>  <a_count>
34

>  <a_don>
0

>  <a_heavy>
23

>  <a_hyd>
17

>  <a_IC>
72.059387

>  <a_ICM>
2.1193936

>  <a_nB>
0

>  <a_nBr>
0

>  <a_nC>
13

>  <a_nCl>
2

>  <a_nF>
4

>  <a_nH>
11

>  <a_nI>
0

>  <a_nN>
3

>  <a_nO>
1

>  <a_nP>
0

>  <a_nS>
0

>  <balabanJ>
1.99025

>  <BCUT_PEOE_0>
-2.5533586

>  <BCUT_PEOE_1>
-0.53984213

>  <BCUT_PEOE_2>
0.54166508

>  <BCUT_PEOE_3>
2.6228547

>  <BCUT_SLOGP_0>
-2.5611479

>  <BCUT_SLOGP_1>
-0.41742212

>  <BCUT_SLOGP_2>
0.80305779

>  <BCUT_SLOGP_3>
2.6358898

>  <BCUT_SMR_0>
-2.3336825

>  <BCUT_SMR_1>
-0.23397949

>  <BCUT_SMR_2>
0.83833206

>  <BCUT_SMR_3>
2.8174534

>  <bpol>
22.893276

>  <b_1rotN>
7

>  <b_1rotR>
0.29166666

>  <b_ar>
11

>  <b_count>
35

>  <b_double>
0

>  <b_heavy>
24

>  <b_rotN>
7

>  <b_rotR>
0.29166666

>  <b_single>
24

>  <b_triple>
0

>  <chi0>
17.03517

>  <chi0v>
12.985199

>  <chi0v_C>
7.4556656

>  <chi0_C>
8.3364992

>  <chi1>
10.792531

>  <chi1v>
7.1219969

>  <chi1v_C>
3.1318808

>  <chi1_C>
3.9048316

>  <chiral>
1

>  <chiral_u>
1

>  <density>
1.0475993

>  <diameter>
10

>  <FCharge>
0

>  <GCUT_PEOE_0>
-0.82642984

>  <GCUT_PEOE_1>
-0.37081629

>  <GCUT_PEOE_2>
0.015570523

>  <GCUT_PEOE_3>
2.5131934

>  <GCUT_SLOGP_0>
-0.89633161

>  <GCUT_SLOGP_1>
-0.26493236

>  <GCUT_SLOGP_2>
0.26019999

>  <GCUT_SLOGP_3>
2.6044378

>  <GCUT_SMR_0>
-0.51444745

>  <GCUT_SMR_1>
-0.15459546

>  <GCUT_SMR_2>
0.23434338

>  <GCUT_SMR_3>
2.7577064

>  <Kier1>
19.326389

>  <Kier2>
8.3927336

>  <Kier3>
5.5

>  <KierA1>
17.145239

>  <KierA2>
7.4029422

>  <KierA3>
4.830328

>  <KierFlex>
5.5184875

>  <lip_acc>
4

>  <lip_don>
0

>  <lip_druglike>
1

>  <lip_violation>
0

>  <logP(o/w)>
2.73084

>  <logS>
-4.47995

>  <mr>
7.98841

>  <mutagenic>
0

>  <nmol>
1

>  <opr_brigid>
11

>  <opr_leadlike>
1

>  <opr_nring>
2

>  <opr_nrot>
7

>  <opr_violation>
1

>  <PC+>
0

>  <PC->
0

>  <PEOE_PC+>
1.766613

>  <PEOE_PC->
-1.766613

>  <PEOE_RPC+>
0.24191286

>  <PEOE_RPC->
0.17061993

>  <PEOE_VSA+0>
31.616989

>  <PEOE_VSA+1>
11.248033

>  <PEOE_VSA+2>
20.299505

>  <PEOE_VSA+3>
46.848991

>  <PEOE_VSA+4>
24.790518

>  <PEOE_VSA+5>
0

>  <PEOE_VSA+6>
24.316328

>  <PEOE_VSA-0>
18.017035

>  <PEOE_VSA-1>
59.163895

>  <PEOE_VSA-2>
9.4210396

>  <PEOE_VSA-3>
47.634544

>  <PEOE_VSA-4>
5.6825762

>  <PEOE_VSA-5>
0

>  <PEOE_VSA-6>
2.503756

>  <PEOE_VSA_FHYD>
0.81000012

>  <PEOE_VSA_FNEG>
0.47231323

>  <PEOE_VSA_FPNEG>
0.027148124

>  <PEOE_VSA_FPOL>
0.18999989

>  <PEOE_VSA_FPOS>
0.52768677

>  <PEOE_VSA_FPPOS>
0.16285177

>  <PEOE_VSA_HYD>
244.25003

>  <PEOE_VSA_NEG>
142.42284

>  <PEOE_VSA_PNEG>
8.1863317

>  <PEOE_VSA_POL>
57.293179

>  <PEOE_VSA_POS>
159.12036

>  <PEOE_VSA_PPOS>
49.106846

>  <petitjean>
0.5

>  <petitjeanSC>
1

>  <Q_PC+>
0

>  <Q_PC->
0

>  <Q_RPC+>
0

>  <Q_RPC->
0

>  <Q_VSA_FHYD>
1

>  <Q_VSA_FNEG>
0

>  <Q_VSA_FPNEG>
0

>  <Q_VSA_FPOL>
0

>  <Q_VSA_FPOS>
1

>  <Q_VSA_FPPOS>
0

>  <Q_VSA_HYD>
301.54321

>  <Q_VSA_NEG>
0

>  <Q_VSA_PNEG>
0

>  <Q_VSA_POL>
0

>  <Q_VSA_POS>
301.54321

>  <Q_VSA_PPOS>
0

>  <radius>
5

>  <reactive>
0

>  <rings>
2

>  <RPC+>
0

>  <RPC->
0

>  <rsynth>
0.47826087

>  <SlogP>
4.5096002

>  <SlogP_VSA0>
0

>  <SlogP_VSA1>
39.107033

>  <SlogP_VSA2>
27.28157

>  <SlogP_VSA3>
20.926258

>  <SlogP_VSA4>
3.185575

>  <SlogP_VSA5>
0

>  <SlogP_VSA6>
11.412009

>  <SlogP_VSA7>
86.50061

>  <SlogP_VSA8>
0

>  <SlogP_VSA9>
156.57732

>  <SMR>
7.6332998

>  <SMR_VSA0>
10.999887

>  <SMR_VSA1>
95.065559

>  <SMR_VSA2>
3.8819261

>  <SMR_VSA3>
30.879267

>  <SMR_VSA4>
0

>  <SMR_VSA5>
104.94019

>  <SMR_VSA6>
20.926258

>  <SMR_VSA7>
78.297287

>  <TPSA>
39.939999

>  <VAdjEq>
0.43892586

>  <VAdjMa>
5.5849624

>  <VDistEq>
3.1574371

>  <VDistMa>
8.7850485

>  <vdw_area>
301.54321

>  <vdw_vol>
344.65564

>  <vsa_acc>
17.607372

>  <vsa_acid>
0

>  <vsa_base>
0

>  <vsa_don>
0

>  <vsa_hyd>
234.3548

>  <vsa_other>
49.581036

>  <vsa_pol>
17.607372

>  <Weight>
372.14899

>  <weinerPath>
1203

>  <weinerPol>
32

>  <zagreb>
116

$$$$
O=C(C2=C1CCCC2)N(CO[C@@]([C@H]3C([C@@H]3\C=C(C)/C)(C)C)=O)C1=O
  MOE2011           2D

 24 26  0  0  1  0  0  0  0  0999 V2000
    0.0000    0.0000    0.0000 O   0  0  0  0  0  0  0  0  0  0  0  0
   -0.9880   -1.1290    0.0000 C   0  0  0  0  0  0  0  0  0  0  0  0
   -2.4820   -0.9930    0.0000 C   0  0  0  0  0  0  0  0  0  0  0  0
   -3.0720   -2.3720    0.0000 C   0  0  0  0  0  0  0  0  0  0  0  0
   -4.5620   -2.5500    0.0000 C   0  0  0  0  0  0  0  0  0  0  0  0
   -5.4600   -1.3490    0.0000 C   0  0  0  0  0  0  0  0  0  0  0  0
   -4.8700    0.0300    0.0000 C   0  0  0  0  0  0  0  0  0  0  0  0
   -3.3800    0.2080    0.0000 C   0  0  0  0  0  0  0  0  0  0  0  0
   -0.6550   -2.5920    0.0000 N   0  0  0  0  0  0  0  0  0  0  0  0
    0.7240   -3.1820    0.0000 C   0  0  0  0  0  0  0  0  0  0  0  0
    1.9250   -2.2830    0.0000 O   0  0  0  0  0  0  0  0  0  0  0  0
    3.3030   -2.8740    0.0000 C   0  0  0  0  0  0  0  0  0  0  0  0
    4.5040   -1.9750    0.0000 C   0  0  1  0  0  0  0  0  0  0  0  0
    5.0950   -0.5960    0.0000 C   0  0  0  0  0  0  0  0  0  0  0  0
    5.9940   -1.7970    0.0000 C   0  0  2  0  0  0  0  0  0  0  0  0
    7.3730   -2.3880    0.0000 C   0  0  0  0  0  0  0  0  0  0  0  0
    8.5740   -1.4890    0.0000 C   0  0  0  0  0  0  0  0  0  0  0  0
    9.9520   -2.0790    0.0000 C   0  0  0  0  0  0  0  0  0  0  0  0
    8.3960    0.0010    0.0000 C   0  0  0  0  0  0  0  0  0  0  0  0
    4.0470    0.4770    0.0000 C   0  0  0  0  0  0  0  0  0  0  0  0
    5.8600    0.6940    0.0000 C   0  0  0  0  0  0  0  0  0  0  0  0
    3.4810   -4.3630    0.0000 O   0  0  0  0  0  0  0  0  0  0  0  0
   -1.9430   -3.3600    0.0000 C   0  0  0  0  0  0  0  0  0  0  0  0
   -2.0790   -4.8540    0.0000 O   0  0  0  0  0  0  0  0  0  0  0  0
  1  2  2  0  0  0  0
  2  3  1  0  0  0  0
  2  9  1  0  0  0  0
  3  4  2  0  0  0  0
  3  8  1  0  0  0  0
  4  5  1  0  0  0  0
  4 23  1  0  0  0  0
  5  6  1  0  0  0  0
  6  7  1  0  0  0  0
  7  8  1  0  0  0  0
  9 10  1  0  0  0  0
  9 23  1  0  0  0  0
 10 11  1  0  0  0  0
 11 12  1  0  0  0  0
 13 12  1  1  0  0  0
 12 22  2  0  0  0  0
 13 14  1  0  0  0  0
 13 15  1  0  0  0  0
 14 15  1  0  0  0  0
 14 20  1  0  0  0  0
 14 21  1  0  0  0  0
 15 16  1  6  0  0  0
 16 17  2  0  0  0  0
 17 18  1  0  0  0  0
 17 19  1  0  0  0  0
 23 24  2  0  0  0  0
M  END
>  <DSSTox_RID>
40605

>  <DSSTox_CID>
12649

>  <apol>
54.417824

>  <a_acc>
3

>  <a_acid>
0

>  <a_aro>
0

>  <a_base>
0

>  <a_count>
49

>  <a_don>
0

>  <a_heavy>
24

>  <a_hyd>
15

>  <a_IC>
70.313751

>  <a_ICM>
1.4349746

>  <a_nB>
0

>  <a_nBr>
0

>  <a_nC>
19

>  <a_nCl>
0

>  <a_nF>
0

>  <a_nH>
25

>  <a_nI>
0

>  <a_nN>
1

>  <a_nO>
4

>  <a_nP>
0

>  <a_nS>
0

>  <balabanJ>
1.542074

>  <BCUT_PEOE_0>
-2.6259444

>  <BCUT_PEOE_1>
-0.26793009

>  <BCUT_PEOE_2>
0.080709882

>  <BCUT_PEOE_3>
2.8986917

>  <BCUT_SLOGP_0>
-2.5311656

>  <BCUT_SLOGP_1>
-0.17191549

>  <BCUT_SLOGP_2>
0.13781571

>  <BCUT_SLOGP_3>
2.9247544

>  <BCUT_SMR_0>
-2.3777153

>  <BCUT_SMR_1>
0.036204286

>  <BCUT_SMR_2>
0.21926501

>  <BCUT_SMR_3>
3.1355722

>  <bpol>
34.100174

>  <b_1rotN>
4

>  <b_1rotR>
0.15384616

>  <b_ar>
0

>  <b_count>
51

>  <b_double>
5

>  <b_heavy>
26

>  <b_rotN>
5

>  <b_rotR>
0.1923077

>  <b_single>
46

>  <b_triple>
0

>  <chi0>
17.645901

>  <chi0v>
14.847792

>  <chi0v_C>
12.767585

>  <chi0_C>
13.361443

>  <chi1>
11.246924

>  <chi1v>
8.6470871

>  <chi1v_C>
6.7784739

>  <chi1_C>
7.5317106

>  <chiral>
2

>  <chiral_u>
0

>  <density>
0.79974246

>  <diameter>
12

>  <FCharge>
0

>  <GCUT_PEOE_0>
-0.78216273

>  <GCUT_PEOE_1>
-0.42231163

>  <GCUT_PEOE_2>
-0.085208192

>  <GCUT_PEOE_3>
2.7309296

>  <GCUT_SLOGP_0>
-0.97907728

>  <GCUT_SLOGP_1>
-0.30141291

>  <GCUT_SLOGP_2>
-0.037

>  <GCUT_SLOGP_3>
2.7618589

>  <GCUT_SMR_0>
-0.52199572

>  <GCUT_SMR_1>
-0.15407047

>  <GCUT_SMR_2>
-0.0072555523

>  <GCUT_SMR_3>
2.9663417

>  <Kier1>
18.781065

>  <Kier2>
6.9575

>  <Kier3>
3.2410715

>  <KierA1>
15.195972

>  <KierA2>
5.5742021

>  <KierA3>
2.5783122

>  <KierFlex>
3.5293925

>  <lip_acc>
5

>  <lip_don>
0

>  <lip_druglike>
1

>  <lip_violation>
0

>  <logP(o/w)>
1.8609999

>  <logS>
-4.4530001

>  <mr>
9.0735302

>  <mutagenic>
0

>  <nmol>
1

>  <opr_brigid>
14

>  <opr_leadlike>
1

>  <opr_nring>
3

>  <opr_nrot>
5

>  <opr_violation>
0

>  <PC+>
0

>  <PC->
0

>  <PEOE_PC+>
1.3933773

>  <PEOE_PC->
-1.3933773

>  <PEOE_RPC+>
0.19618498

>  <PEOE_RPC->
0.19832237

>  <PEOE_VSA+0>
187.49339

>  <PEOE_VSA+1>
2.2085397

>  <PEOE_VSA+2>
0

>  <PEOE_VSA+3>
0

>  <PEOE_VSA+4>
0

>  <PEOE_VSA+5>
67.157043

>  <PEOE_VSA+6>
0

>  <PEOE_VSA-0>
18.017035

>  <PEOE_VSA-1>
0

>  <PEOE_VSA-2>
0

>  <PEOE_VSA-3>
0

>  <PEOE_VSA-4>
0

>  <PEOE_VSA-5>
43.204517

>  <PEOE_VSA-6>
0

>  <PEOE_VSA_FHYD>
0.65303892

>  <PEOE_VSA_FNEG>
0.19247186

>  <PEOE_VSA_FPNEG>
0.13582887

>  <PEOE_VSA_FPOL>
0.34696108

>  <PEOE_VSA_FPOS>
0.80752814

>  <PEOE_VSA_FPPOS>
0.21113221

>  <PEOE_VSA_HYD>
207.71896

>  <PEOE_VSA_NEG>
61.221554

>  <PEOE_VSA_PNEG>
43.204517

>  <PEOE_VSA_POL>
110.36156

>  <PEOE_VSA_POS>
256.85898

>  <PEOE_VSA_PPOS>
67.157043

>  <petitjean>
0.5

>  <petitjeanSC>
1

>  <Q_PC+>
0

>  <Q_PC->
0

>  <Q_RPC+>
0

>  <Q_RPC->
0

>  <Q_VSA_FHYD>
1

>  <Q_VSA_FNEG>
0

>  <Q_VSA_FPNEG>
0

>  <Q_VSA_FPOL>
0

>  <Q_VSA_FPOS>
1

>  <Q_VSA_FPPOS>
0

>  <Q_VSA_HYD>
318.08054

>  <Q_VSA_NEG>
0

>  <Q_VSA_PNEG>
0

>  <Q_VSA_POL>
0

>  <Q_VSA_POS>
318.08054

>  <Q_VSA_PPOS>
0

>  <radius>
6

>  <reactive>
1

>  <rings>
3

>  <RPC+>
0

>  <RPC->
0

>  <rsynth>
0.5

>  <SlogP>
2.9649

>  <SlogP_VSA0>
0

>  <SlogP_VSA1>
21.387344

>  <SlogP_VSA2>
82.58654

>  <SlogP_VSA3>
20.497431

>  <SlogP_VSA4>
8.8215923

>  <SlogP_VSA5>
9.5567245

>  <SlogP_VSA6>
0

>  <SlogP_VSA7>
17.643185

>  <SlogP_VSA8>
75.473625

>  <SlogP_VSA9>
133.30406

>  <SMR>
8.8498001

>  <SMR_VSA0>
82.58654

>  <SMR_VSA1>
3.1243138

>  <SMR_VSA2>
8.8215923

>  <SMR_VSA3>
9.5567245

>  <SMR_VSA4>
0

>  <SMR_VSA5>
93.116806

>  <SMR_VSA6>
38.760464

>  <SMR_VSA7>
133.30406

>  <TPSA>
63.68

>  <VAdjEq>
0.43739632

>  <VAdjMa>
5.7004399

>  <VDistEq>
3.4137592

>  <VDistMa>
8.86514

>  <vdw_area>
318.08054

>  <vdw_vol>
382.88824

>  <vsa_acc>
40.700764

>  <vsa_acid>
0

>  <vsa_base>
0

>  <vsa_don>
0

>  <vsa_hyd>
207.71896

>  <vsa_other>
69.660805

>  <vsa_pol>
40.700764

>  <Weight>
331.41199

>  <weinerPath>
1415

>  <weinerPol>
37

>  <zagreb>
132

$$$$
N1C(=NC2=C1C=CC=C2)C3=CSC=N3
  MOE2011           2D

 14 16  0  0  0  0  0  0  0  0999 V2000
    0.0000    0.0000    0.0000 N   0  0  0  0  0  0  0  0  0  0  0  0
    1.0040    1.1150    0.0000 C   0  0  0  0  0  0  0  0  0  0  0  0
    0.2540    2.4140    0.0000 N   0  0  0  0  0  0  0  0  0  0  0  0
   -1.2140    2.1020    0.0000 C   0  0  0  0  0  0  0  0  0  0  0  0
   -1.3700    0.6100    0.0000 C   0  0  0  0  0  0  0  0  0  0  0  0
   -2.7410    0.0000    0.0000 C   0  0  0  0  0  0  0  0  0  0  0  0
   -3.9540    0.8820    0.0000 C   0  0  0  0  0  0  0  0  0  0  0  0
   -3.7970    2.3730    0.0000 C   0  0  0  0  0  0  0  0  0  0  0  0
   -2.4270    2.9840    0.0000 C   0  0  0  0  0  0  0  0  0  0  0  0
    2.4950    0.9580    0.0000 C   0  0  0  0  0  0  0  0  0  0  0  0
    3.4990    2.0730    0.0000 C   0  0  0  0  0  0  0  0  0  0  0  0
    4.8690    1.4630    0.0000 S   0  0  0  0  0  0  0  0  0  0  0  0
    4.7130   -0.0290    0.0000 C   0  0  0  0  0  0  0  0  0  0  0  0
    3.2450   -0.3410    0.0000 N   0  0  0  0  0  0  0  0  0  0  0  0
  1  2  1  0  0  0  0
  1  5  1  0  0  0  0
  2  3  2  0  0  0  0
  2 10  1  0  0  0  0
  3  4  1  0  0  0  0
  4  5  1  0  0  0  0
  4  9  2  0  0  0  0
  5  6  2  0  0  0  0
  6  7  1  0  0  0  0
  7  8  2  0  0  0  0
  8  9  1  0  0  0  0
 10 11  2  0  0  0  0
 10 14  1  0  0  0  0
 11 12  1  0  0  0  0
 12 13  1  0  0  0  0
 13 14  2  0  0  0  0
M  END
>  <DSSTox_RID>
40607

>  <DSSTox_CID>
1337

>  <apol>
28.46755

>  <a_acc>
3

>  <a_acid>
0

>  <a_aro>
14

>  <a_base>
0

>  <a_count>
21

>  <a_don>
2

>  <a_heavy>
14

>  <a_hyd>
10

>  <a_IC>
34.613014

>  <a_ICM>
1.6482387

>  <a_nB>
0

>  <a_nBr>
0

>  <a_nC>
10

>  <a_nCl>
0

>  <a_nF>
0

>  <a_nH>
7

>  <a_nI>
0

>  <a_nN>
3

>  <a_nO>
0

>  <a_nP>
0

>  <a_nS>
1

>  <balabanJ>
1.6332153

>  <BCUT_PEOE_0>
-2.1057973

>  <BCUT_PEOE_1>
-0.61922735

>  <BCUT_PEOE_2>
0.71257299

>  <BCUT_PEOE_3>
2.1786013

>  <BCUT_SLOGP_0>
-1.9491365

>  <BCUT_SLOGP_1>
-0.53146791

>  <BCUT_SLOGP_2>
0.80763149

>  <BCUT_SLOGP_3>
2.3347681

>  <BCUT_SMR_0>
-1.7703822

>  <BCUT_SMR_1>
-0.45683599

>  <BCUT_SMR_2>
0.96069425

>  <BCUT_SMR_3>
2.5249133

>  <bpol>
13.232449

>  <b_1rotN>
1

>  <b_1rotR>
0.0625

>  <b_ar>
15

>  <b_count>
23

>  <b_double>
0

>  <b_heavy>
16

>  <b_rotN>
1

>  <b_rotR>
0.0625

>  <b_single>
8

>  <b_triple>
0

>  <chi0>
9.3804693

>  <chi0v>
8.0832739

>  <chi0v_C>
5.4641018

>  <chi0_C>
6.5520415

>  <chi1>
6.932653

>  <chi1v>
5.2092581

>  <chi1v_C>
2.3660254

>  <chi1_C>
3.3914115

>  <chiral>
0

>  <chiral_u>
0

>  <density>
0.84847701

>  <diameter>
7

>  <FCharge>
0

>  <GCUT_PEOE_0>
-0.826105

>  <GCUT_PEOE_1>
-0.42186159

>  <GCUT_PEOE_2>
0.10836491

>  <GCUT_PEOE_3>
2.1829083

>  <GCUT_SLOGP_0>
-0.77721721

>  <GCUT_SLOGP_1>
-0.30738351

>  <GCUT_SLOGP_2>
0.20123096

>  <GCUT_SLOGP_3>
2.334163

>  <GCUT_SMR_0>
-0.4191024

>  <GCUT_SMR_1>
-0.20084983

>  <GCUT_SMR_2>
0.31949422

>  <GCUT_SMR_3>
2.5172088

>  <Kier1>
9.2421875

>  <Kier2>
3.8677685

>  <Kier3>
1.76

>  <KierA1>
6.7740855

>  <KierA2>
2.7600982

>  <KierA3>
1.2303727

>  <KierFlex>
1.3355101

>  <lip_acc>
3

>  <lip_don>
1

>  <lip_druglike>
1

>  <lip_violation>
0

>  <logP(o/w)>
1.92006

>  <logS>
-3.32867

>  <mr>
5.7811561

>  <mutagenic>
0

>  <nmol>
1

>  <opr_brigid>
15

>  <opr_leadlike>
1

>  <opr_nring>
3

>  <opr_nrot>
1

>  <opr_violation>
0

>  <PC+>
0

>  <PC->
0

>  <PEOE_PC+>
0.74784732

>  <PEOE_PC->
-0.74784732

>  <PEOE_RPC+>
0.2490745

>  <PEOE_RPC->
0.34061366

>  <PEOE_VSA+0>
85.509544

>  <PEOE_VSA+1>
0

>  <PEOE_VSA+2>
20.098654

>  <PEOE_VSA+3>
30.951181

>  <PEOE_VSA+4>
0

>  <PEOE_VSA+5>
0

>  <PEOE_VSA+6>
0

>  <PEOE_VSA-0>
17.784555

>  <PEOE_VSA-1>
0

>  <PEOE_VSA-2>
0

>  <PEOE_VSA-3>
0

>  <PEOE_VSA-4>
11.365152

>  <PEOE_VSA-5>
5.6825762

>  <PEOE_VSA-6>
0

>  <PEOE_VSA_FHYD>
0.9005335

>  <PEOE_VSA_FNEG>
0.20323208

>  <PEOE_VSA_FPNEG>
0.099466495

>  <PEOE_VSA_FPOL>
0.099466495

>  <PEOE_VSA_FPOS>
0.79676789

>  <PEOE_VSA_FPPOS>
0

>  <PEOE_VSA_HYD>
154.34393

>  <PEOE_VSA_NEG>
34.832283

>  <PEOE_VSA_PNEG>
17.047728

>  <PEOE_VSA_POL>
17.047728

>  <PEOE_VSA_POS>
136.55939

>  <PEOE_VSA_PPOS>
0

>  <petitjean>
0.42857143

>  <petitjeanSC>
0.75

>  <Q_PC+>
0

>  <Q_PC->
0

>  <Q_RPC+>
0

>  <Q_RPC->
0

>  <Q_VSA_FHYD>
1

>  <Q_VSA_FNEG>
0

>  <Q_VSA_FPNEG>
0

>  <Q_VSA_FPOL>
0

>  <Q_VSA_FPOS>
1

>  <Q_VSA_FPPOS>
0

>  <Q_VSA_HYD>
171.39166

>  <Q_VSA_NEG>
0

>  <Q_VSA_PNEG>
0

>  <Q_VSA_POL>
0

>  <Q_VSA_POS>
171.39166

>  <Q_VSA_PPOS>
0

>  <radius>
4

>  <reactive>
0

>  <rings>
3

>  <RPC+>
0

>  <RPC->
0

>  <rsynth>
1

>  <SlogP>
2.6863999

>  <SlogP_VSA0>
0

>  <SlogP_VSA1>
33.57106

>  <SlogP_VSA2>
16.78553

>  <SlogP_VSA3>
0

>  <SlogP_VSA4>
0

>  <SlogP_VSA5>
0

>  <SlogP_VSA6>
0

>  <SlogP_VSA7>
111.14887

>  <SlogP_VSA8>
0

>  <SlogP_VSA9>
31.277687

>  <SMR>
5.72017

>  <SMR_VSA0>
0

>  <SMR_VSA1>
33.57106

>  <SMR_VSA2>
16.78553

>  <SMR_VSA3>
0

>  <SMR_VSA4>
9.372942

>  <SMR_VSA5>
101.77593

>  <SMR_VSA6>
0

>  <SMR_VSA7>
31.277687

>  <TPSA>
41.57

>  <VAdjEq>
0.64206427

>  <VAdjMa>
5

>  <VDistEq>
2.6603594

>  <VDistMa>
7.2984648

>  <vdw_area>
171.39166

>  <vdw_vol>
228.87715

>  <vsa_acc>
5.6825762

>  <vsa_acid>
0

>  <vsa_base>
0

>  <vsa_don>
0

>  <vsa_hyd>
143.15338

>  <vsa_other>
11.190562

>  <vsa_pol>
17.047728

>  <Weight>
201.25301

>  <weinerPath>
293

>  <weinerPol>
17

>  <zagreb>
76

$$$$
ClC2=CC=C(C=N2)CN1/C(SCC1)=N/C#N
  MOE2011           2D

 16 17  0  0  0  0  0  0  0  0999 V2000
    0.0000    0.0000    0.0000 Cl  0  0  0  0  0  0  0  0  0  0  0  0
    1.5000   -0.0110    0.0000 C   0  0  0  0  0  0  0  0  0  0  0  0
    2.2400   -1.3160    0.0000 C   0  0  0  0  0  0  0  0  0  0  0  0
    3.7400   -1.3270    0.0000 C   0  0  0  0  0  0  0  0  0  0  0  0
    4.5000   -0.0330    0.0000 C   0  0  0  0  0  0  0  0  0  0  0  0
    3.7590    1.2710    0.0000 C   0  0  0  0  0  0  0  0  0  0  0  0
    2.2600    1.2820    0.0000 N   0  0  0  0  0  0  0  0  0  0  0  0
    6.0000   -0.0440    0.0000 C   0  0  0  0  0  0  0  0  0  0  0  0
    6.7400   -1.3490    0.0000 N   0  0  0  0  0  0  0  0  0  0  0  0
    8.2310   -1.5170    0.0000 C   0  0  0  0  0  0  0  0  0  0  0  0
    8.5320   -2.9860    0.0000 S   0  0  0  0  0  0  0  0  0  0  0  0
    7.2270   -3.7270    0.0000 C   0  0  0  0  0  0  0  0  0  0  0  0
    6.1200   -2.7150    0.0000 C   0  0  0  0  0  0  0  0  0  0  0  0
    9.2430   -0.4090    0.0000 N   0  0  0  0  0  0  0  0  0  0  0  0
   10.7080   -0.7320    0.0000 C   0  0  0  0  0  0  0  0  0  0  0  0
   12.1720   -1.0550    0.0000 N   0  0  0  0  0  0  0  0  0  0  0  0
  1  2  1  0  0  0  0
  2  3  1  0  0  0  0
  2  7  2  0  0  0  0
  3  4  2  0  0  0  0
  4  5  1  0  0  0  0
  5  6  2  0  0  0  0
  5  8  1  0  0  0  0
  6  7  1  0  0  0  0
  8  9  1  0  0  0  0
  9 10  1  0  0  0  0
  9 13  1  0  0  0  0
 10 11  1  0  0  0  0
 10 14  2  0  0  0  0
 11 12  1  0  0  0  0
 12 13  1  0  0  0  0
 14 15  1  0  0  0  0
 15 16  3  0  0  0  0
M  END
>  <DSSTox_RID>
40608

>  <DSSTox_CID>
14961

>  <apol>
33.081139

>  <a_acc>
3

>  <a_acid>
0

>  <a_aro>
6

>  <a_base>
0

>  <a_count>
25

>  <a_don>
0

>  <a_heavy>
16

>  <a_hyd>
9

>  <a_IC>
46.347797

>  <a_ICM>
1.853912

>  <a_nB>
0

>  <a_nBr>
0

>  <a_nC>
10

>  <a_nCl>
1

>  <a_nF>
0

>  <a_nH>
9

>  <a_nI>
0

>  <a_nN>
4

>  <a_nO>
0

>  <a_nP>
0

>  <a_nS>
1

>  <balabanJ>
1.7624766

>  <BCUT_PEOE_0>
-2.4930515

>  <BCUT_PEOE_1>
-0.58972359

>  <BCUT_PEOE_2>
0.64648193

>  <BCUT_PEOE_3>
2.5547433

>  <BCUT_SLOGP_0>
-2.5398338

>  <BCUT_SLOGP_1>
-0.44559151

>  <BCUT_SLOGP_2>
0.8340739

>  <BCUT_SLOGP_3>
2.5612109

>  <BCUT_SMR_0>
-2.2067304

>  <BCUT_SMR_1>
-0.39235729

>  <BCUT_SMR_2>
0.86445683

>  <BCUT_SMR_3>
2.8888233

>  <bpol>
17.818863

>  <b_1rotN>
2

>  <b_1rotR>
0.11764706

>  <b_ar>
6

>  <b_count>
26

>  <b_double>
1

>  <b_heavy>
17

>  <b_rotN>
3

>  <b_rotR>
0.17647059

>  <b_single>
18

>  <b_triple>
1

>  <chi0>
11.380469

>  <chi0v>
10.000864

>  <chi0v_C>
5.8533711

>  <chi0_C>
6.6817985

>  <chi1>
7.7920251

>  <chi1v>
6.106945

>  <chi1v_C>
2.0529122

>  <chi1_C>
2.6329932

>  <chiral>
0

>  <chiral_u>
0

>  <density>
0.90855408

>  <diameter>
10

>  <FCharge>
0

>  <GCUT_PEOE_0>
-0.85531515

>  <GCUT_PEOE_1>
-0.37164754

>  <GCUT_PEOE_2>
0.063536771

>  <GCUT_PEOE_3>
2.3011334

>  <GCUT_SLOGP_0>
-0.94882601

>  <GCUT_SLOGP_1>
-0.25625908

>  <GCUT_SLOGP_2>
0.26063845

>  <GCUT_SLOGP_3>
2.3784173

>  <GCUT_SMR_0>
-0.5062111

>  <GCUT_SMR_1>
-0.16942449

>  <GCUT_SMR_2>
0.30776599

>  <GCUT_SMR_3>
2.6098599

>  <Kier1>
12.456747

>  <Kier2>
6.0743804

>  <Kier3>
3.495199

>  <KierA1>
10.57438

>  <KierA2>
5.0959997

>  <KierA3>
2.9063494

>  <KierFlex>
3.3679395

>  <lip_acc>
4

>  <lip_don>
0

>  <lip_druglike>
1

>  <lip_violation>
0

>  <logP(o/w)>
2.0039999

>  <logS>
-2.9372101

>  <mr>
6.5861316

>  <mutagenic>
0

>  <nmol>
1

>  <opr_brigid>
12

>  <opr_leadlike>
1

>  <opr_nring>
2

>  <opr_nrot>
4

>  <opr_violation>
0

>  <PC+>
0

>  <PC->
0

>  <PEOE_PC+>
1.0096338

>  <PEOE_PC->
-1.0096338

>  <PEOE_RPC+>
0.20557366

>  <PEOE_RPC->
0.31988218

>  <PEOE_VSA+0>
33.825527

>  <PEOE_VSA+1>
38.084061

>  <PEOE_VSA+2>
49.609772

>  <PEOE_VSA+3>
13.166624

>  <PEOE_VSA+4>
24.790518

>  <PEOE_VSA+5>
0

>  <PEOE_VSA+6>
0

>  <PEOE_VSA-0>
0

>  <PEOE_VSA-1>
49.342564

>  <PEOE_VSA-2>
5.6825762

>  <PEOE_VSA-3>
17.742489

>  <PEOE_VSA-4>
5.6825762

>  <PEOE_VSA-5>
0

>  <PEOE_VSA-6>
0

>  <PEOE_VSA_FHYD>
0.87192237

>  <PEOE_VSA_FNEG>
0.32972425

>  <PEOE_VSA_FPNEG>
0.023883725

>  <PEOE_VSA_FPOL>
0.12807766

>  <PEOE_VSA_FPOS>
0.67027575

>  <PEOE_VSA_FPPOS>
0.10419393

>  <PEOE_VSA_HYD>
207.45361

>  <PEOE_VSA_NEG>
78.450203

>  <PEOE_VSA_PNEG>
5.6825762

>  <PEOE_VSA_POL>
30.473093

>  <PEOE_VSA_POS>
159.4765

>  <PEOE_VSA_PPOS>
24.790518

>  <petitjean>
0.5

>  <petitjeanSC>
1

>  <Q_PC+>
0

>  <Q_PC->
0

>  <Q_RPC+>
0

>  <Q_RPC->
0

>  <Q_VSA_FHYD>
1

>  <Q_VSA_FNEG>
0

>  <Q_VSA_FPNEG>
0

>  <Q_VSA_FPOL>
0

>  <Q_VSA_FPOS>
1

>  <Q_VSA_FPPOS>
0

>  <Q_VSA_HYD>
237.92671

>  <Q_VSA_NEG>
0

>  <Q_VSA_PNEG>
0

>  <Q_VSA_POL>
0

>  <Q_VSA_POS>
237.92671

>  <Q_VSA_PPOS>
0

>  <radius>
5

>  <reactive>
0

>  <rings>
2

>  <RPC+>
0

>  <RPC->
0

>  <rsynth>
1

>  <SlogP>
2.387284

>  <SlogP_VSA0>
0

>  <SlogP_VSA1>
20.602922

>  <SlogP_VSA2>
0

>  <SlogP_VSA3>
82.905418

>  <SlogP_VSA4>
3.185575

>  <SlogP_VSA5>
16.78553

>  <SlogP_VSA6>
3.0717793

>  <SlogP_VSA7>
52.500725

>  <SlogP_VSA8>
0

>  <SlogP_VSA9>
89.807762

>  <SMR>
6.5369

>  <SMR_VSA0>
0

>  <SMR_VSA1>
67.75473

>  <SMR_VSA2>
0

>  <SMR_VSA3>
22.430273

>  <SMR_VSA4>
0

>  <SMR_VSA5>
70.9403

>  <SMR_VSA6>
36.366222

>  <SMR_VSA7>
71.368187

>  <TPSA>
52.279999

>  <VAdjEq>
0.56510133

>  <VAdjMa>
5.0874629

>  <VDistEq>
3.0288603

>  <VDistMa>
7.675642

>  <vdw_area>
237.92671

>  <vdw_vol>
268.18106

>  <vsa_acc>
29.107641

>  <vsa_acid>
0

>  <vsa_base>
0

>  <vsa_don>
0

>  <vsa_hyd>
161.85117

>  <vsa_other>
46.967899

>  <vsa_pol>
29.107641

>  <Weight>
252.729

>  <weinerPath>
473

>  <weinerPol>
19

>  <zagreb>
78

$$$$
O=C(OC)C1=C(CC(C)C)C(C2=NCCS2)=C(C(F)(F)F)N=C1C(F)F
  MOE2011           2D

 26 27  0  0  0  0  0  0  0  0999 V2000
    0.0000    0.0000    0.0000 O   0  0  0  0  0  0  0  0  0  0  0  0
    0.7550   -1.2960    0.0000 C   0  0  0  0  0  0  0  0  0  0  0  0
    0.0090   -2.5980    0.0000 O   0  0  0  0  0  0  0  0  0  0  0  0
   -1.4910   -2.6030    0.0000 C   0  0  0  0  0  0  0  0  0  0  0  0
    2.2550   -1.2910    0.0000 C   0  0  0  0  0  0  0  0  0  0  0  0
    3.0000    0.0110    0.0000 C   0  0  0  0  0  0  0  0  0  0  0  0
    2.7340    1.4870    0.0000 C   0  0  0  0  0  0  0  0  0  0  0  0
    1.3230    1.9950    0.0000 C   0  0  0  0  0  0  0  0  0  0  0  0
    0.1770    1.0270    0.0000 C   0  0  0  0  0  0  0  0  0  0  0  0
    1.0570    3.4710    0.0000 C   0  0  0  0  0  0  0  0  0  0  0  0
    4.5000    0.0160    0.0000 C   0  0  0  0  0  0  0  0  0  0  0  0
    5.4600    1.1680    0.0000 C   0  0  0  0  0  0  0  0  0  0  0  0
    6.9510    1.3300    0.0000 N   0  0  0  0  0  0  0  0  0  0  0  0
    7.2580    2.7990    0.0000 C   0  0  0  0  0  0  0  0  0  0  0  0
    5.9560    3.5440    0.0000 C   0  0  0  0  0  0  0  0  0  0  0  0
    4.8450    2.5370    0.0000 S   0  0  0  0  0  0  0  0  0  0  0  0
    5.2550   -1.2800    0.0000 C   0  0  0  0  0  0  0  0  0  0  0  0
    6.7550   -1.2750    0.0000 C   0  0  0  0  0  0  0  0  0  0  0  0
    6.7600   -2.7750    0.0000 F   0  0  0  0  0  0  0  0  0  0  0  0
    6.7490    0.2250    0.0000 F   0  0  0  0  0  0  0  0  0  0  0  0
    8.2550   -1.2700    0.0000 F   0  0  0  0  0  0  0  0  0  0  0  0
    4.5090   -2.5820    0.0000 N   0  0  0  0  0  0  0  0  0  0  0  0
    3.0090   -2.5870    0.0000 C   0  0  0  0  0  0  0  0  0  0  0  0
    2.2640   -3.8890    0.0000 C   0  0  0  0  0  0  0  0  0  0  0  0
    0.7640   -3.8940    0.0000 F   0  0  0  0  0  0  0  0  0  0  0  0
    3.0180   -5.1860    0.0000 F   0  0  0  0  0  0  0  0  0  0  0  0
  1  2  2  0  0  0  0
  2  3  1  0  0  0  0
  2  5  1  0  0  0  0
  3  4  1  0  0  0  0
  5  6  1  0  0  0  0
  5 23  2  0  0  0  0
  6  7  1  0  0  0  0
  6 11  2  0  0  0  0
  7  8  1  0  0  0  0
  8  9  1  0  0  0  0
  8 10  1  0  0  0  0
 11 12  1  0  0  0  0
 11 17  1  0  0  0  0
 12 13  2  0  0  0  0
 12 16  1  0  0  0  0
 13 14  1  0  0  0  0
 14 15  1  0  0  0  0
 15 16  1  0  0  0  0
 17 18  1  0  0  0  0
 17 22  2  0  0  0  0
 18 19  1  0  0  0  0
 18 20  1  0  0  0  0
 18 21  1  0  0  0  0
 22 23  1  0  0  0  0
 23 24  1  0  0  0  0
 24 25  1  0  0  0  0
 24 26  1  0  0  0  0
M  END
>  <DSSTox_RID>
40610

>  <DSSTox_CID>
12488

>  <apol>
48.984482

>  <a_acc>
3

>  <a_acid>
0

>  <a_aro>
6

>  <a_base>
0

>  <a_count>
43

>  <a_don>
0

>  <a_heavy>
26

>  <a_hyd>
20

>  <a_IC>
84.232872

>  <a_ICM>
1.958904

>  <a_nB>
0

>  <a_nBr>
0

>  <a_nC>
16

>  <a_nCl>
0

>  <a_nF>
5

>  <a_nH>
17

>  <a_nI>
0

>  <a_nN>
2

>  <a_nO>
2

>  <a_nP>
0

>  <a_nS>
1

>  <balabanJ>
2.4947231

>  <BCUT_PEOE_0>
-2.6128969

>  <BCUT_PEOE_1>
-0.24342872

>  <BCUT_PEOE_2>
0.052972309

>  <BCUT_PEOE_3>
2.5778022

>  <BCUT_SLOGP_0>
-2.5285976

>  <BCUT_SLOGP_1>
0.058892135

>  <BCUT_SLOGP_2>
0.42019999

>  <BCUT_SLOGP_3>
2.660661

>  <BCUT_SMR_0>
-2.3632822

>  <BCUT_SMR_1>
0.057639014

>  <BCUT_SMR_2>
0.30831191

>  <BCUT_SMR_3>
2.8452492

>  <bpol>
32.39352

>  <b_1rotN>
5

>  <b_1rotR>
0.18518518

>  <b_ar>
6

>  <b_count>
44

>  <b_double>
2

>  <b_heavy>
27

>  <b_rotN>
7

>  <b_rotR>
0.25925925

>  <b_single>
36

>  <b_triple>
0

>  <chi0>
19.645901

>  <chi0v>
15.101512

>  <chi0v_C>
10.276021

>  <chi0_C>
10.817472

>  <chi1>
12.073605

>  <chi1v>
8.7405024

>  <chi1v_C>
4.4551773

>  <chi1_C>
5.0932055

>  <chiral>
0

>  <chiral_u>
0

>  <density>
0.98802364

>  <diameter>
8

>  <FCharge>
0

>  <GCUT_PEOE_0>
-0.79503918

>  <GCUT_PEOE_1>
-0.39808106

>  <GCUT_PEOE_2>
-0.10702769

>  <GCUT_PEOE_3>
2.6939621

>  <GCUT_SLOGP_0>
-0.86136907

>  <GCUT_SLOGP_1>
-0.18389031

>  <GCUT_SLOGP_2>
0.18250243

>  <GCUT_SLOGP_3>
2.7588415

>  <GCUT_SMR_0>
-0.53146285

>  <GCUT_SMR_1>
-0.128903

>  <GCUT_SMR_2>
0.13158278

>  <GCUT_SMR_3>
2.9508615

>  <Kier1>
22.29081

>  <Kier2>
9

>  <Kier3>
5.0934258

>  <KierA1>
19.236027

>  <KierA2>
7.7184658

>  <KierA3>
4.3487706

>  <KierFlex>
5.710485

>  <lip_acc>
4

>  <lip_don>
0

>  <lip_druglike>
1

>  <lip_violation>
0

>  <logP(o/w)>
3.8996799

>  <logS>
-5.9884701

>  <mr>
8.949955

>  <mutagenic>
0

>  <nmol>
1

>  <opr_brigid>
11

>  <opr_leadlike>
1

>  <opr_nring>
2

>  <opr_nrot>
5

>  <opr_violation>
1

>  <PC+>
0

>  <PC->
0

>  <PEOE_PC+>
2.0394826

>  <PEOE_PC->
-2.0394826

>  <PEOE_RPC+>
0.21323064

>  <PEOE_RPC->
0.14478528

>  <PEOE_VSA+0>
79.042473

>  <PEOE_VSA+1>
19.993095

>  <PEOE_VSA+2>
35.674671

>  <PEOE_VSA+3>
42.357979

>  <PEOE_VSA+4>
0

>  <PEOE_VSA+5>
14.708499

>  <PEOE_VSA+6>
24.878653

>  <PEOE_VSA-0>
2.2085397

>  <PEOE_VSA-1>
19.760618

>  <PEOE_VSA-2>
0

>  <PEOE_VSA-3>
59.543179

>  <PEOE_VSA-4>
5.6825762

>  <PEOE_VSA-5>
21.753254

>  <PEOE_VSA-6>
0

>  <PEOE_VSA_FHYD>
0.79415768

>  <PEOE_VSA_FNEG>
0.33460376

>  <PEOE_VSA_FPNEG>
0.084261462

>  <PEOE_VSA_FPOL>
0.2058423

>  <PEOE_VSA_FPOS>
0.66539627

>  <PEOE_VSA_FPPOS>
0.12158084

>  <PEOE_VSA_HYD>
258.58057

>  <PEOE_VSA_NEG>
108.94817

>  <PEOE_VSA_PNEG>
27.435829

>  <PEOE_VSA_POL>
67.02298

>  <PEOE_VSA_POS>
216.65536

>  <PEOE_VSA_PPOS>
39.587151

>  <petitjean>
0.5

>  <petitjeanSC>
1

>  <Q_PC+>
0

>  <Q_PC->
0

>  <Q_RPC+>
0

>  <Q_RPC->
0

>  <Q_VSA_FHYD>
1

>  <Q_VSA_FNEG>
0

>  <Q_VSA_FPNEG>
0

>  <Q_VSA_FPOL>
0

>  <Q_VSA_FPOS>
1

>  <Q_VSA_FPPOS>
0

>  <Q_VSA_HYD>
325.60355

>  <Q_VSA_NEG>
0

>  <Q_VSA_PNEG>
0

>  <Q_VSA_POL>
0

>  <Q_VSA_POS>
325.60355

>  <Q_VSA_PPOS>
0

>  <radius>
4

>  <reactive>
0

>  <rings>
2

>  <RPC+>
0

>  <RPC->
0

>  <rsynth>
1

>  <SlogP>
4.92347

>  <SlogP_VSA0>
0

>  <SlogP_VSA1>
25.652901

>  <SlogP_VSA2>
10.999887

>  <SlogP_VSA3>
35.673141

>  <SlogP_VSA4>
43.343231

>  <SlogP_VSA5>
71.037804

>  <SlogP_VSA6>
7.7595162

>  <SlogP_VSA7>
0

>  <SlogP_VSA8>
16.281683

>  <SlogP_VSA9>
173.67213

>  <SMR>
8.8168497

>  <SMR_VSA0>
34.862103

>  <SMR_VSA1>
108.37163

>  <SMR_VSA2>
12.170312

>  <SMR_VSA3>
31.351902

>  <SMR_VSA4>
0

>  <SMR_VSA5>
18.868406

>  <SMR_VSA6>
44.540512

>  <SMR_VSA7>
134.25543

>  <TPSA>
51.549999

>  <VAdjEq>
0.40176207

>  <VAdjMa>
5.7548876

>  <VDistEq>
2.8657064

>  <VDistMa>
9.1942406

>  <vdw_area>
325.60355

>  <vdw_vol>
383.841

>  <vsa_acc>
24.932074

>  <vsa_acid>
0

>  <vsa_base>
0

>  <vsa_don>
0

>  <vsa_hyd>
274.7836

>  <vsa_other>
25.887869

>  <vsa_pol>
24.932074

>  <Weight>
396.38

>  <weinerPath>
1409

>  <weinerPol>
43

>  <zagreb>
134

$$$$
O=C(NC2=CC=CC=C2)NC1=CN=NS1
  MOE2011           2D

 15 16  0  0  0  0  0  0  0  0999 V2000
    0.0000    0.0000    0.0000 O   0  0  0  0  0  0  0  0  0  0  0  0
    0.0050    1.5000    0.0000 C   0  0  0  0  0  0  0  0  0  0  0  0
   -1.2920    2.2540    0.0000 N   0  0  0  0  0  0  0  0  0  0  0  0
   -2.5930    1.5080    0.0000 C   0  0  0  0  0  0  0  0  0  0  0  0
   -2.5980    0.0080    0.0000 C   0  0  0  0  0  0  0  0  0  0  0  0
   -3.8990   -0.7380    0.0000 C   0  0  0  0  0  0  0  0  0  0  0  0
   -5.1960    0.0160    0.0000 C   0  0  0  0  0  0  0  0  0  0  0  0
   -5.1910    1.5160    0.0000 C   0  0  0  0  0  0  0  0  0  0  0  0
   -3.8900    2.2620    0.0000 C   0  0  0  0  0  0  0  0  0  0  0  0
    1.3060    2.2460    0.0000 N   0  0  0  0  0  0  0  0  0  0  0  0
    2.6030    1.4920    0.0000 C   0  0  0  0  0  0  0  0  0  0  0  0
    2.7550    0.0000    0.0000 C   0  0  0  0  0  0  0  0  0  0  0  0
    4.2210   -0.3170    0.0000 N   0  0  0  0  0  0  0  0  0  0  0  0
    4.9750    0.9800    0.0000 N   0  0  0  0  0  0  0  0  0  0  0  0
    3.9750    2.0980    0.0000 S   0  0  0  0  0  0  0  0  0  0  0  0
  1  2  2  0  0  0  0
  2  3  1  0  0  0  0
  2 10  1  0  0  0  0
  3  4  1  0  0  0  0
  4  5  1  0  0  0  0
  4  9  2  0  0  0  0
  5  6  2  0  0  0  0
  6  7  1  0  0  0  0
  7  8  2  0  0  0  0
  8  9  1  0  0  0  0
 10 11  1  0  0  0  0
 11 12  2  0  0  0  0
 11 15  1  0  0  0  0
 12 13  1  0  0  0  0
 13 14  2  0  0  0  0
 14 15  1  0  0  0  0
M  END
>  <DSSTox_RID>
40611

>  <DSSTox_CID>
12651

>  <apol>
29.276344

>  <a_acc>
3

>  <a_acid>
0

>  <a_aro>
11

>  <a_base>
0

>  <a_count>
23

>  <a_don>
2

>  <a_heavy>
15

>  <a_hyd>
8

>  <a_IC>
43.5126

>  <a_ICM>
1.8918521

>  <a_nB>
0

>  <a_nBr>
0

>  <a_nC>
9

>  <a_nCl>
0

>  <a_nF>
0

>  <a_nH>
8

>  <a_nI>
0

>  <a_nN>
4

>  <a_nO>
1

>  <a_nP>
0

>  <a_nS>
1

>  <balabanJ>
1.6497909

>  <BCUT_PEOE_0>
-2.2887211

>  <BCUT_PEOE_1>
-0.60980117

>  <BCUT_PEOE_2>
0.66417426

>  <BCUT_PEOE_3>
2.2274282

>  <BCUT_SLOGP_0>
-2.3936529

>  <BCUT_SLOGP_1>
-0.4974865

>  <BCUT_SLOGP_2>
0.78332305

>  <BCUT_SLOGP_3>
2.33586

>  <BCUT_SMR_0>
-1.915139

>  <BCUT_SMR_1>
-0.46349394

>  <BCUT_SMR_2>
0.83515888

>  <BCUT_SMR_3>
2.5920577

>  <bpol>
14.623656

>  <b_1rotN>
2

>  <b_1rotR>
0.125

>  <b_ar>
11

>  <b_count>
24

>  <b_double>
1

>  <b_heavy>
16

>  <b_rotN>
4

>  <b_rotR>
0.25

>  <b_single>
12

>  <b_triple>
0

>  <chi0>
10.510225

>  <chi0v>
8.4915218

>  <chi0v_C>
4.9641018

>  <chi0_C>
5.9746914

>  <chi1>
7.3433366

>  <chi1v>
5.0217767

>  <chi1v_C>
2.1993587

>  <chi1_C>
3.2247448

>  <chiral>
0

>  <chiral_u>
0

>  <density>
0.89692658

>  <diameter>
9

>  <FCharge>
0

>  <GCUT_PEOE_0>
-0.79911554

>  <GCUT_PEOE_1>
-0.44240043

>  <GCUT_PEOE_2>
0.098055661

>  <GCUT_PEOE_3>
2.1088166

>  <GCUT_SLOGP_0>
-1.0357374

>  <GCUT_SLOGP_1>
-0.33408961

>  <GCUT_SLOGP_2>
0.25039607

>  <GCUT_SLOGP_3>
2.2357576

>  <GCUT_SMR_0>
-0.4011372

>  <GCUT_SMR_1>
-0.21467027

>  <GCUT_SMR_2>
0.24281882

>  <GCUT_SMR_3>
2.4328122

>  <Kier1>
11.484375

>  <Kier2>
5.915

>  <Kier3>
3.8109641

>  <KierA1>
8.201232

>  <KierA2>
4.1118603

>  <KierA3>
2.591084

>  <KierFlex>
2.2481546

>  <lip_acc>
5

>  <lip_don>
2

>  <lip_druglike>
1

>  <lip_violation>
0

>  <logP(o/w)>
1.194

>  <logS>
-2.25758

>  <mr>
5.9324088

>  <mutagenic>
0

>  <nmol>
1

>  <opr_brigid>
11

>  <opr_leadlike>
1

>  <opr_nring>
2

>  <opr_nrot>
2

>  <opr_violation>
0

>  <PC+>
0

>  <PC->
0

>  <PEOE_PC+>
0.98738098

>  <PEOE_PC->
-0.98738098

>  <PEOE_RPC+>
0.3726573

>  <PEOE_RPC->
0.24573618

>  <PEOE_VSA+0>
79.042473

>  <PEOE_VSA+1>
15.375164

>  <PEOE_VSA+2>
20.299505

>  <PEOE_VSA+3>
0

>  <PEOE_VSA+4>
0

>  <PEOE_VSA+5>
23.353428

>  <PEOE_VSA+6>
17.440542

>  <PEOE_VSA-0>
0

>  <PEOE_VSA-1>
0

>  <PEOE_VSA-2>
0

>  <PEOE_VSA-3>
32.599861

>  <PEOE_VSA-4>
13.566921

>  <PEOE_VSA-5>
0

>  <PEOE_VSA-6>
0

>  <PEOE_VSA_FHYD>
0.73045689

>  <PEOE_VSA_FNEG>
0.22891346

>  <PEOE_VSA_FPNEG>
0.067270242

>  <PEOE_VSA_FPOL>
0.26954314

>  <PEOE_VSA_FPOS>
0.77108657

>  <PEOE_VSA_FPPOS>
0.20227289

>  <PEOE_VSA_HYD>
147.317

>  <PEOE_VSA_NEG>
46.166782

>  <PEOE_VSA_PNEG>
13.566921

>  <PEOE_VSA_POL>
54.360889

>  <PEOE_VSA_POS>
155.51111

>  <PEOE_VSA_PPOS>
40.793968

>  <petitjean>
0.44444445

>  <petitjeanSC>
0.80000001

>  <Q_PC+>
0

>  <Q_PC->
0

>  <Q_RPC+>
0

>  <Q_RPC->
0

>  <Q_VSA_FHYD>
1

>  <Q_VSA_FNEG>
0

>  <Q_VSA_FPNEG>
0

>  <Q_VSA_FPOL>
0

>  <Q_VSA_FPOS>
1

>  <Q_VSA_FPPOS>
0

>  <Q_VSA_HYD>
201.6779

>  <Q_VSA_NEG>
0

>  <Q_VSA_PNEG>
0

>  <Q_VSA_POL>
0

>  <Q_VSA_POS>
201.6779

>  <Q_VSA_PPOS>
0

>  <radius>
5

>  <reactive>
0

>  <rings>
2

>  <RPC+>
0

>  <RPC->
0

>  <rsynth>
1

>  <SlogP>
2.1821001

>  <SlogP_VSA0>
0

>  <SlogP_VSA1>
72.367966

>  <SlogP_VSA2>
0

>  <SlogP_VSA3>
0

>  <SlogP_VSA4>
0

>  <SlogP_VSA5>
0

>  <SlogP_VSA6>
0

>  <SlogP_VSA7>
105.43027

>  <SlogP_VSA8>
0

>  <SlogP_VSA9>
58.600498

>  <SMR>
5.89924

>  <SMR_VSA0>
23.862217

>  <SMR_VSA1>
31.516508

>  <SMR_VSA2>
0

>  <SMR_VSA3>
0

>  <SMR_VSA4>
39.707821

>  <SMR_VSA5>
105.43027

>  <SMR_VSA6>
4.8299561

>  <SMR_VSA7>
31.051962

>  <TPSA>
66.910004

>  <VAdjEq>
0.59002918

>  <VAdjMa>
5

>  <VDistEq>
3.0027313

>  <VDistMa>
7.4755287

>  <vdw_area>
201.6779

>  <vdw_vol>
236.57677

>  <vsa_acc>
34.801632

>  <vsa_acid>
0

>  <vsa_base>
0

>  <vsa_don>
11.365152

>  <vsa_hyd>
114.71714

>  <vsa_other>
40.793968

>  <vsa_pol>
46.166782

>  <Weight>
220.256

>  <weinerPath>
411

>  <weinerPol>
15

>  <zagreb>
72

$$$$
Clc1ccc(CSC(=O)N(CC)CC)cc1
  MOE2011           2D

 16 16  0  0  0  0  0  0  0  0999 V2000
    0.0000    0.0000    0.0000 Cl  0  0  0  0  0  0  0  0  0  0  0  0
   -1.5000   -0.0100    0.0000 C   0  0  0  0  0  0  0  0  0  0  0  0
   -2.2590    1.2840    0.0000 C   0  0  0  0  0  0  0  0  0  0  0  0
   -3.7590    1.2740    0.0000 C   0  0  0  0  0  0  0  0  0  0  0  0
   -4.5000   -0.0300    0.0000 C   0  0  0  0  0  0  0  0  0  0  0  0
   -6.0000   -0.0400    0.0000 C   0  0  0  0  0  0  0  0  0  0  0  0
   -6.7590    1.2540    0.0000 S   0  0  0  0  0  0  0  0  0  0  0  0
   -8.2580    1.2440    0.0000 C   0  0  0  0  0  0  0  0  0  0  0  0
   -9.0000   -0.0600    0.0000 O   0  0  0  0  0  0  0  0  0  0  0  0
   -9.0170    2.5380    0.0000 N   0  0  0  0  0  0  0  0  0  0  0  0
  -10.5170    2.5280    0.0000 C   0  0  0  0  0  0  0  0  0  0  0  0
  -11.2760    3.8220    0.0000 C   0  0  0  0  0  0  0  0  0  0  0  0
   -8.2760    3.8420    0.0000 C   0  0  0  0  0  0  0  0  0  0  0  0
   -9.0340    5.1360    0.0000 C   0  0  0  0  0  0  0  0  0  0  0  0
   -3.7410   -1.3240    0.0000 C   0  0  0  0  0  0  0  0  0  0  0  0
   -2.2410   -1.3140    0.0000 C   0  0  0  0  0  0  0  0  0  0  0  0
  1  2  1  0  0  0  0
  2  3  1  0  0  0  0
  2 16  2  0  0  0  0
  3  4  2  0  0  0  0
  4  5  1  0  0  0  0
  5  6  1  0  0  0  0
  5 15  2  0  0  0  0
  6  7  1  0  0  0  0
  7  8  1  0  0  0  0
  8  9  2  0  0  0  0
  8 10  1  0  0  0  0
 10 11  1  0  0  0  0
 10 13  1  0  0  0  0
 11 12  1  0  0  0  0
 13 14  1  0  0  0  0
 15 16  1  0  0  0  0
M  END
>  <DSSTox_RID>
40612

>  <DSSTox_CID>
4337

>  <apol>
38.770687

>  <a_acc>
1

>  <a_acid>
0

>  <a_aro>
6

>  <a_base>
0

>  <a_count>
32

>  <a_don>
0

>  <a_heavy>
16

>  <a_hyd>
13

>  <a_IC>
52.98045

>  <a_ICM>
1.6556391

>  <a_nB>
0

>  <a_nBr>
0

>  <a_nC>
12

>  <a_nCl>
1

>  <a_nF>
0

>  <a_nH>
16

>  <a_nI>
0

>  <a_nN>
1

>  <a_nO>
1

>  <a_nP>
0

>  <a_nS>
1

>  <balabanJ>
2.1916952

>  <BCUT_PEOE_0>
-2.5868213

>  <BCUT_PEOE_1>
-0.43985441

>  <BCUT_PEOE_2>
0.38254559

>  <BCUT_PEOE_3>
2.5070999

>  <BCUT_SLOGP_0>
-2.6411941

>  <BCUT_SLOGP_1>
-0.13830878

>  <BCUT_SLOGP_2>
0.69904047

>  <BCUT_SLOGP_3>
2.5389156

>  <BCUT_SMR_0>
-2.3052478

>  <BCUT_SMR_1>
-0.12990727

>  <BCUT_SMR_2>
0.6965856

>  <BCUT_SMR_3>
2.8013506

>  <bpol>
23.129313

>  <b_1rotN>
5

>  <b_1rotR>
0.3125

>  <b_ar>
6

>  <b_count>
32

>  <b_double>
1

>  <b_heavy>
16

>  <b_rotN>
6

>  <b_rotR>
0.375

>  <b_single>
25

>  <b_triple>
0

>  <chi0>
11.966255

>  <chi0v>
11.144821

>  <chi0v_C>
7.9307213

>  <chi0_C>
8.681798

>  <chi1>
7.6682339

>  <chi1v>
6.694665

>  <chi1v_C>
3.5891342

>  <chi1_C>
4.4554548

>  <chiral>
0

>  <chiral_u>
0

>  <density>
0.8459841

>  <diameter>
10

>  <FCharge>
0

>  <GCUT_PEOE_0>
-0.8471607

>  <GCUT_PEOE_1>
-0.37252289

>  <GCUT_PEOE_2>
-0.025413742

>  <GCUT_PEOE_3>
2.3259084

>  <GCUT_SLOGP_0>
-0.95506191

>  <GCUT_SLOGP_1>
-0.19051285

>  <GCUT_SLOGP_2>
0.23031177

>  <GCUT_SLOGP_3>
2.4473288

>  <GCUT_SMR_0>
-0.5167588

>  <GCUT_SMR_1>
-0.088514313

>  <GCUT_SMR_2>
0.22106428

>  <GCUT_SMR_3>
2.6231003

>  <Kier1>
14.0625

>  <Kier2>
7.3499999

>  <Kier3>
4.8166351

>  <KierA1>
13.267972

>  <KierA2>
6.9062943

>  <KierA3>
4.5119381

>  <KierFlex>
5.7270327

>  <lip_acc>
2

>  <lip_don>
0

>  <lip_druglike>
1

>  <lip_violation>
0

>  <logP(o/w)>
3.724

>  <logS>
-3.8615699

>  <mr>
7.199224

>  <mutagenic>
0

>  <nmol>
1

>  <opr_brigid>
6

>  <opr_leadlike>
1

>  <opr_nring>
1

>  <opr_nrot>
5

>  <opr_violation>
0

>  <PC+>
0

>  <PC->
0

>  <PEOE_PC+>
0.71951503

>  <PEOE_PC->
-0.71951503

>  <PEOE_RPC+>
0.3955487

>  <PEOE_RPC->
0.43275258

>  <PEOE_VSA+0>
90.433891

>  <PEOE_VSA+1>
22.304302

>  <PEOE_VSA+2>
40.59901

>  <PEOE_VSA+3>
0

>  <PEOE_VSA+4>
0

>  <PEOE_VSA+5>
14.925592

>  <PEOE_VSA+6>
0

>  <PEOE_VSA-0>
53.586147

>  <PEOE_VSA-1>
29.581947

>  <PEOE_VSA-2>
0

>  <PEOE_VSA-3>
0

>  <PEOE_VSA-4>
0

>  <PEOE_VSA-5>
13.566921

>  <PEOE_VSA-6>
0

>  <PEOE_VSA_FHYD>
0.89248019

>  <PEOE_VSA_FNEG>
0.36504081

>  <PEOE_VSA_FPNEG>
0.051196352

>  <PEOE_VSA_FPOL>
0.10751981

>  <PEOE_VSA_FPOS>
0.63495922

>  <PEOE_VSA_FPPOS>
0.056323458

>  <PEOE_VSA_HYD>
236.50529

>  <PEOE_VSA_NEG>
96.735016

>  <PEOE_VSA_PNEG>
13.566921

>  <PEOE_VSA_POL>
28.492514

>  <PEOE_VSA_POS>
168.2628

>  <PEOE_VSA_PPOS>
14.925592

>  <petitjean>
0.5

>  <petitjeanSC>
1

>  <Q_PC+>
0

>  <Q_PC->
0

>  <Q_RPC+>
0

>  <Q_RPC->
0

>  <Q_VSA_FHYD>
1

>  <Q_VSA_FNEG>
0

>  <Q_VSA_FPNEG>
0

>  <Q_VSA_FPOL>
0

>  <Q_VSA_FPOS>
1

>  <Q_VSA_FPPOS>
0

>  <Q_VSA_HYD>
264.9978

>  <Q_VSA_NEG>
0

>  <Q_VSA_PNEG>
0

>  <Q_VSA_POL>
0

>  <Q_VSA_POS>
264.9978

>  <Q_VSA_PPOS>
0

>  <radius>
5

>  <reactive>
0

>  <rings>
1

>  <RPC+>
0

>  <RPC->
0

>  <rsynth>
1

>  <SlogP>
4.3014002

>  <SlogP_VSA0>
0

>  <SlogP_VSA1>
6.7482567

>  <SlogP_VSA2>
0

>  <SlogP_VSA3>
36.879158

>  <SlogP_VSA4>
3.185575

>  <SlogP_VSA5>
0

>  <SlogP_VSA6>
3.5006065

>  <SlogP_VSA7>
70.572739

>  <SlogP_VSA8>
0

>  <SlogP_VSA9>
179.116

>  <SMR>
7.1269999

>  <SMR_VSA0>
23.862217

>  <SMR_VSA1>
3.1243138

>  <SMR_VSA2>
0

>  <SMR_VSA3>
6.6861815

>  <SMR_VSA4>
0

>  <SMR_VSA5>
87.806305

>  <SMR_VSA6>
40.503098

>  <SMR_VSA7>
138.02022

>  <TPSA>
20.309999

>  <VAdjEq>
0.54356444

>  <VAdjMa>
5

>  <VDistEq>
3.1271129

>  <VDistMa>
7.6647873

>  <vdw_area>
264.9978

>  <vdw_vol>
285.65192

>  <vsa_acc>
13.566921

>  <vsa_acid>
0

>  <vsa_base>
0

>  <vsa_don>
0

>  <vsa_hyd>
236.50529

>  <vsa_other>
14.925592

>  <vsa_pol>
13.566921

>  <Weight>
257.785

>  <weinerPath>
505

>  <weinerPol>
20

>  <zagreb>
72

$$$$
O=C(O/N=C(C)/SC)N(C)SN(C(O/N=C(C)/SC)=O)C
  MOE2011           2D

 21 20  0  0  0  0  0  0  0  0999 V2000
    0.0000    0.0000    0.0000 O   0  0  0  0  0  0  0  0  0  0  0  0
    1.2940    0.7580    0.0000 C   0  0  0  0  0  0  0  0  0  0  0  0
    1.2850    2.2580    0.0000 O   0  0  0  0  0  0  0  0  0  0  0  0
   -0.0190    3.0000    0.0000 N   0  0  0  0  0  0  0  0  0  0  0  0
   -0.0290    4.5000    0.0000 C   0  0  0  0  0  0  0  0  0  0  0  0
    1.2650    5.2580    0.0000 C   0  0  0  0  0  0  0  0  0  0  0  0
   -1.3330    5.2420    0.0000 S   0  0  0  0  0  0  0  0  0  0  0  0
   -1.3420    6.7420    0.0000 C   0  0  0  0  0  0  0  0  0  0  0  0
    2.5980    0.0170    0.0000 N   0  0  0  0  0  0  0  0  0  0  0  0
    2.6080   -1.4830    0.0000 C   0  0  0  0  0  0  0  0  0  0  0  0
    3.8920    0.7750    0.0000 S   0  0  0  0  0  0  0  0  0  0  0  0
    5.1960    0.0330    0.0000 N   0  0  0  0  0  0  0  0  0  0  0  0
    6.4900    0.7920    0.0000 C   0  0  0  0  0  0  0  0  0  0  0  0
    7.7940    0.0500    0.0000 O   0  0  0  0  0  0  0  0  0  0  0  0
    9.0880    0.8080    0.0000 N   0  0  0  0  0  0  0  0  0  0  0  0
   10.3920    0.0670    0.0000 C   0  0  0  0  0  0  0  0  0  0  0  0
   10.4020   -1.4330    0.0000 C   0  0  0  0  0  0  0  0  0  0  0  0
   11.6860    0.8250    0.0000 S   0  0  0  0  0  0  0  0  0  0  0  0
   12.9900    0.0830    0.0000 C   0  0  0  0  0  0  0  0  0  0  0  0
    6.4810    2.2920    0.0000 O   0  0  0  0  0  0  0  0  0  0  0  0
    5.2060   -1.4670    0.0000 C   0  0  0  0  0  0  0  0  0  0  0  0
  1  2  2  0  0  0  0
  2  3  1  0  0  0  0
  2  9  1  0  0  0  0
  3  4  1  0  0  0  0
  4  5  2  0  0  0  0
  5  6  1  0  0  0  0
  5  7  1  0  0  0  0
  7  8  1  0  0  0  0
  9 10  1  0  0  0  0
  9 11  1  0  0  0  0
 11 12  1  0  0  0  0
 12 13  1  0  0  0  0
 12 21  1  0  0  0  0
 13 14  1  0  0  0  0
 13 20  2  0  0  0  0
 14 15  1  0  0  0  0
 15 16  2  0  0  0  0
 16 17  1  0  0  0  0
 16 18  1  0  0  0  0
 18 19  1  0  0  0  0
M  END
>  <DSSTox_RID>
40613

>  <DSSTox_CID>
12578

>  <apol>
45.910275

>  <a_acc>
4

>  <a_acid>
0

>  <a_aro>
0

>  <a_base>
0

>  <a_count>
39

>  <a_don>
0

>  <a_heavy>
21

>  <a_hyd>
8

>  <a_IC>
77.09787

>  <a_ICM>
1.9768684

>  <a_nB>
0

>  <a_nBr>
0

>  <a_nC>
10

>  <a_nCl>
0

>  <a_nF>
0

>  <a_nH>
18

>  <a_nI>
0

>  <a_nN>
4

>  <a_nO>
4

>  <a_nP>
0

>  <a_nS>
3

>  <balabanJ>
4.0322132

>  <BCUT_PEOE_0>
-2.3978512

>  <BCUT_PEOE_1>
-0.29380608

>  <BCUT_PEOE_2>
0.12545219

>  <BCUT_PEOE_3>
2.3681288

>  <BCUT_SLOGP_0>
-2.4884369

>  <BCUT_SLOGP_1>
0.048437566

>  <BCUT_SLOGP_2>
0.34927982

>  <BCUT_SLOGP_3>
2.3561447

>  <BCUT_SMR_0>
-2.0899479

>  <BCUT_SMR_1>
0.02732796

>  <BCUT_SMR_2>
0.29362032

>  <BCUT_SMR_3>
2.691144

>  <bpol>
36.225727

>  <b_1rotN>
4

>  <b_1rotR>
0.2

>  <b_ar>
0

>  <b_count>
38

>  <b_double>
4

>  <b_heavy>
20

>  <b_rotN>
10

>  <b_rotR>
0.5

>  <b_single>
34

>  <b_triple>
0

>  <chi0>
16.413849

>  <chi0v>
15.096082

>  <chi0v_C>
8

>  <chi0_C>
8.3094015

>  <chi1>
9.8109684

>  <chi1v>
8.7401791

>  <chi1v_C>
1

>  <chi1_C>
1.1547005

>  <chiral>
0

>  <chiral_u>
0

>  <density>
0.96793431

>  <diameter>
14

>  <FCharge>
0

>  <GCUT_PEOE_0>
-0.78742415

>  <GCUT_PEOE_1>
-0.4233844

>  <GCUT_PEOE_2>
-0.11360454

>  <GCUT_PEOE_3>
2.1790035

>  <GCUT_SLOGP_0>
-0.93663615

>  <GCUT_SLOGP_1>
-0.18846647

>  <GCUT_SLOGP_2>
0.069858789

>  <GCUT_SLOGP_3>
2.2146001

>  <GCUT_SMR_0>
-0.48641428

>  <GCUT_SMR_1>
-0.054299999

>  <GCUT_SMR_2>
0.08060801

>  <GCUT_SMR_3>
2.4843776

>  <Kier1>
21

>  <Kier2>
11.552

>  <Kier3>
9.5857992

>  <KierA1>
20.876244

>  <KierA2>
11.480404

>  <KierA3>
9.5241556

>  <KierFlex>
11.412748

>  <lip_acc>
8

>  <lip_don>
0

>  <lip_druglike>
1

>  <lip_violation>
0

>  <logP(o/w)>
3.7160001

>  <logS>
-4.0964799

>  <mr>
8.6573277

>  <mutagenic>
0

>  <nmol>
1

>  <opr_brigid>
2

>  <opr_leadlike>
1

>  <opr_nring>
0

>  <opr_nrot>
6

>  <opr_violation>
0

>  <PC+>
0

>  <PC->
0

>  <PEOE_PC+>
1.6678276

>  <PEOE_PC->
-1.6678276

>  <PEOE_RPC+>
0.23902109

>  <PEOE_RPC->
0.14108963

>  <PEOE_VSA+0>
0

>  <PEOE_VSA+1>
148.53217

>  <PEOE_VSA+2>
85.150146

>  <PEOE_VSA+3>
0

>  <PEOE_VSA+4>
0

>  <PEOE_VSA+5>
0

>  <PEOE_VSA+6>
38.399021

>  <PEOE_VSA-0>
0

>  <PEOE_VSA-1>
39.521236

>  <PEOE_VSA-2>
21.770523

>  <PEOE_VSA-3>
11.804719

>  <PEOE_VSA-4>
27.133842

>  <PEOE_VSA-5>
0

>  <PEOE_VSA-6>
0

>  <PEOE_VSA_FHYD>
0.82398385

>  <PEOE_VSA_FNEG>
0.26921082

>  <PEOE_VSA_FPNEG>
0.072879381

>  <PEOE_VSA_FPOL>
0.17601615

>  <PEOE_VSA_FPOS>
0.73078918

>  <PEOE_VSA_FPPOS>
0.10313677

>  <PEOE_VSA_HYD>
306.77878

>  <PEOE_VSA_NEG>
100.23032

>  <PEOE_VSA_PNEG>
27.133842

>  <PEOE_VSA_POL>
65.53286

>  <PEOE_VSA_POS>
272.08133

>  <PEOE_VSA_PPOS>
38.399021

>  <petitjean>
0.5

>  <petitjeanSC>
1

>  <Q_PC+>
0

>  <Q_PC->
0

>  <Q_RPC+>
0

>  <Q_RPC->
0

>  <Q_VSA_FHYD>
1

>  <Q_VSA_FNEG>
0

>  <Q_VSA_FPNEG>
0

>  <Q_VSA_FPOL>
0

>  <Q_VSA_FPOS>
1

>  <Q_VSA_FPPOS>
0

>  <Q_VSA_HYD>
372.31165

>  <Q_VSA_NEG>
0

>  <Q_VSA_PNEG>
0

>  <Q_VSA_POL>
0

>  <Q_VSA_POS>
372.31165

>  <Q_VSA_PPOS>
0

>  <radius>
7

>  <reactive>
0

>  <rings>
0

>  <RPC+>
0

>  <RPC->
0

>  <rsynth>
0.76190478

>  <SlogP>
3.0792

>  <SlogP_VSA0>
0

>  <SlogP_VSA1>
19.914207

>  <SlogP_VSA2>
22.437527

>  <SlogP_VSA3>
0

>  <SlogP_VSA4>
0

>  <SlogP_VSA5>
167.97644

>  <SlogP_VSA6>
0

>  <SlogP_VSA7>
0

>  <SlogP_VSA8>
0

>  <SlogP_VSA9>
210.55803

>  <SMR>
8.9329996

>  <SMR_VSA0>
70.161957

>  <SMR_VSA1>
41.836845

>  <SMR_VSA2>
0

>  <SMR_VSA3>
0

>  <SMR_VSA4>
0

>  <SMR_VSA5>
0

>  <SMR_VSA6>
16.877087

>  <SMR_VSA7>
292.01031

>  <TPSA>
83.800003

>  <VAdjEq>
0.43881181

>  <VAdjMa>
5.321928

>  <VDistEq>
3.5501709

>  <VDistMa>
8.4579344

>  <vdw_area>
372.31165

>  <vdw_vol>
347.474

>  <vsa_acc>
48.904366

>  <vsa_acid>
0

>  <vsa_base>
0

>  <vsa_don>
0

>  <vsa_hyd>
228.90608

>  <vsa_other>
94.501205

>  <vsa_pol>
48.904366

>  <Weight>
354.47601

>  <weinerPath>
1140

>  <weinerPol>
26

>  <zagreb>
90

$$$$
S=C(Nc1ccccc1NC(=S)NC(=O)OC)NC(=O)OC
  MOE2011           2D

 22 22  0  0  0  0  0  0  0  0999 V2000
    0.0000    0.0000    0.0000 S   0  0  0  0  0  0  0  0  0  0  0  0
    0.7500   -1.2990    0.0000 C   0  0  0  0  0  0  0  0  0  0  0  0
    2.2500   -1.2990    0.0000 N   0  0  0  0  0  0  0  0  0  0  0  0
    3.0000    0.0000    0.0000 C   0  0  0  0  0  0  0  0  0  0  0  0
    2.2500    1.2990    0.0000 C   0  0  0  0  0  0  0  0  0  0  0  0
    3.0000    2.5980    0.0000 C   0  0  0  0  0  0  0  0  0  0  0  0
    4.5000    2.5980    0.0000 C   0  0  0  0  0  0  0  0  0  0  0  0
    5.2500    1.2990    0.0000 C   0  0  0  0  0  0  0  0  0  0  0  0
    4.5000    0.0000    0.0000 C   0  0  0  0  0  0  0  0  0  0  0  0
    5.2500   -1.2990    0.0000 N   0  0  0  0  0  0  0  0  0  0  0  0
    6.7500   -1.2990    0.0000 C   0  0  0  0  0  0  0  0  0  0  0  0
    7.5000    0.0000    0.0000 S   0  0  0  0  0  0  0  0  0  0  0  0
    7.5000   -2.5980    0.0000 N   0  0  0  0  0  0  0  0  0  0  0  0
    9.0000   -2.5980    0.0000 C   0  0  0  0  0  0  0  0  0  0  0  0
    9.7500   -1.2990    0.0000 O   0  0  0  0  0  0  0  0  0  0  0  0
    9.7500   -3.8970    0.0000 O   0  0  0  0  0  0  0  0  0  0  0  0
   11.2500   -3.8970    0.0000 C   0  0  0  0  0  0  0  0  0  0  0  0
    0.0000   -2.5980    0.0000 N   0  0  0  0  0  0  0  0  0  0  0  0
   -1.5000   -2.5980    0.0000 C   0  0  0  0  0  0  0  0  0  0  0  0
   -2.2500   -1.2990    0.0000 O   0  0  0  0  0  0  0  0  0  0  0  0
   -2.2500   -3.8970    0.0000 O   0  0  0  0  0  0  0  0  0  0  0  0
   -3.7500   -3.8970    0.0000 C   0  0  0  0  0  0  0  0  0  0  0  0
  1  2  2  0  0  0  0
  2  3  1  0  0  0  0
  2 18  1  0  0  0  0
  3  4  1  0  0  0  0
  4  5  1  0  0  0  0
  4  9  2  0  0  0  0
  5  6  2  0  0  0  0
  6  7  1  0  0  0  0
  7  8  2  0  0  0  0
  8  9  1  0  0  0  0
  9 10  1  0  0  0  0
 10 11  1  0  0  0  0
 11 12  2  0  0  0  0
 11 13  1  0  0  0  0
 13 14  1  0  0  0  0
 14 15  2  0  0  0  0
 14 16  1  0  0  0  0
 16 17  1  0  0  0  0
 18 19  1  0  0  0  0
 19 20  2  0  0  0  0
 19 21  1  0  0  0  0
 21 22  1  0  0  0  0
M  END
>  <DSSTox_RID>
40614

>  <DSSTox_CID>
4338

>  <apol>
43.863102

>  <a_acc>
4

>  <a_acid>
0

>  <a_aro>
6

>  <a_base>
0

>  <a_count>
36

>  <a_don>
4

>  <a_heavy>
22

>  <a_hyd>
8

>  <a_IC>
71.794785

>  <a_ICM>
1.9942995

>  <a_nB>
0

>  <a_nBr>
0

>  <a_nC>
12

>  <a_nCl>
0

>  <a_nF>
0

>  <a_nH>
14

>  <a_nI>
0

>  <a_nN>
4

>  <a_nO>
4

>  <a_nP>
0

>  <a_nS>
2

>  <balabanJ>
2.4575696

>  <BCUT_PEOE_0>
-2.3685234

>  <BCUT_PEOE_1>
-0.4242321

>  <BCUT_PEOE_2>
0.54074323

>  <BCUT_PEOE_3>
2.2705209

>  <BCUT_SLOGP_0>
-2.5498846

>  <BCUT_SLOGP_1>
-0.31170309

>  <BCUT_SLOGP_2>
0.70978695

>  <BCUT_SLOGP_3>
2.3942466

>  <BCUT_SMR_0>
-1.9958438

>  <BCUT_SMR_1>
-0.20960782

>  <BCUT_SMR_2>
0.80550152

>  <BCUT_SMR_3>
2.6535745

>  <bpol>
25.972898

>  <b_1rotN>
2

>  <b_1rotR>
0.090909094

>  <b_ar>
6

>  <b_count>
36

>  <b_double>
4

>  <b_heavy>
22

>  <b_rotN>
10

>  <b_rotR>
0.45454547

>  <b_single>
26

>  <b_triple>
0

>  <chi0>
16.53517

>  <chi0v>
13.391884

>  <chi0v_C>
7.309401

>  <chi0_C>
8.2925291

>  <chi1>
10.455928

>  <chi1v>
6.6850882

>  <chi1v_C>
1.8273503

>  <chi1_C>
2.6498299

>  <chiral>
0

>  <chiral_u>
0

>  <density>
0.94244933

>  <diameter>
13

>  <FCharge>
0

>  <GCUT_PEOE_0>
-0.81660724

>  <GCUT_PEOE_1>
-0.40549716

>  <GCUT_PEOE_2>
0.12582505

>  <GCUT_PEOE_3>
2.2749047

>  <GCUT_SLOGP_0>
-1.172556

>  <GCUT_SLOGP_1>
-0.32995439

>  <GCUT_SLOGP_2>
0.26509485

>  <GCUT_SLOGP_3>
2.3728833

>  <GCUT_SMR_0>
-0.48247686

>  <GCUT_SMR_1>
-0.1425197

>  <GCUT_SMR_2>
0.27587873

>  <GCUT_SMR_3>
2.6241207

>  <Kier1>
20.045454

>  <Kier2>
10.714286

>  <Kier3>
7.9084287

>  <KierA1>
15.814897

>  <KierA2>
8.350812

>  <KierA3>
6.1096649

>  <KierFlex>
6.003056

>  <lip_acc>
8

>  <lip_don>
4

>  <lip_druglike>
1

>  <lip_violation>
0

>  <logP(o/w)>
0.83999997

>  <logS>
-4.8696799

>  <mr>
8.6489038

>  <mutagenic>
0

>  <nmol>
1

>  <opr_brigid>
6

>  <opr_leadlike>
1

>  <opr_nring>
1

>  <opr_nrot>
2

>  <opr_violation>
0

>  <PC+>
0

>  <PC->
0

>  <PEOE_PC+>
1.7259196

>  <PEOE_PC->
-1.7259196

>  <PEOE_RPC+>
0.22479714

>  <PEOE_RPC->
0.16242671

>  <PEOE_VSA+0>
63.233978

>  <PEOE_VSA+1>
39.732349

>  <PEOE_VSA+2>
62.769024

>  <PEOE_VSA+3>
71.316856

>  <PEOE_VSA+4>
0

>  <PEOE_VSA+5>
0

>  <PEOE_VSA+6>
38.399021

>  <PEOE_VSA-0>
0

>  <PEOE_VSA-1>
0

>  <PEOE_VSA-2>
0

>  <PEOE_VSA-3>
22.730305

>  <PEOE_VSA-4>
27.133842

>  <PEOE_VSA-5>
5.0075121

>  <PEOE_VSA-6>
0

>  <PEOE_VSA_FHYD>
0.78645021

>  <PEOE_VSA_FNEG>
0.16611521

>  <PEOE_VSA_FPNEG>
0.097302839

>  <PEOE_VSA_FPOL>
0.21354976

>  <PEOE_VSA_FPOS>
0.83388478

>  <PEOE_VSA_FPPOS>
0.11624693

>  <PEOE_VSA_HYD>
259.7825

>  <PEOE_VSA_NEG>
54.871658

>  <PEOE_VSA_PNEG>
32.141354

>  <PEOE_VSA_POL>
70.540375

>  <PEOE_VSA_POS>
275.45123

>  <PEOE_VSA_PPOS>
38.399021

>  <petitjean>
0.46153846

>  <petitjeanSC>
0.85714287

>  <Q_PC+>
0

>  <Q_PC->
0

>  <Q_RPC+>
0

>  <Q_RPC->
0

>  <Q_VSA_FHYD>
1

>  <Q_VSA_FNEG>
0

>  <Q_VSA_FPNEG>
0

>  <Q_VSA_FPOL>
0

>  <Q_VSA_FPOS>
1

>  <Q_VSA_FPPOS>
0

>  <Q_VSA_HYD>
330.32288

>  <Q_VSA_NEG>
0

>  <Q_VSA_PNEG>
0

>  <Q_VSA_POL>
0

>  <Q_VSA_POS>
330.32288

>  <Q_VSA_PPOS>
0

>  <radius>
7

>  <reactive>
0

>  <rings>
1

>  <RPC+>
0

>  <RPC->
0

>  <rsynth>
1

>  <SlogP>
1.7922

>  <SlogP_VSA0>
36.0215

>  <SlogP_VSA1>
51.223816

>  <SlogP_VSA2>
21.999775

>  <SlogP_VSA3>
0

>  <SlogP_VSA4>
0

>  <SlogP_VSA5>
70.767738

>  <SlogP_VSA6>
0

>  <SlogP_VSA7>
70.572739

>  <SlogP_VSA8>
0

>  <SlogP_VSA9>
143.62198

>  <SMR>
8.9966803

>  <SMR_VSA0>
69.724205

>  <SMR_VSA1>
0

>  <SMR_VSA2>
36.0215

>  <SMR_VSA3>
0

>  <SMR_VSA4>
41.534996

>  <SMR_VSA5>
70.572739

>  <SMR_VSA6>
15.202316

>  <SMR_VSA7>
161.15179

>  <TPSA>
164.89999

>  <VAdjEq>
0.43949699

>  <VAdjMa>
5.4594316

>  <VDistEq>
3.4315774

>  <VDistMa>
8.618721

>  <vdw_area>
330.32288

>  <vdw_vol>
348.3349

>  <vsa_acc>
89.902863

>  <vsa_acid>
0

>  <vsa_base>
0

>  <vsa_don>
22.730305

>  <vsa_hyd>
147.94994

>  <vsa_other>
69.739784

>  <vsa_pol>
112.63317

>  <Weight>
342.39999

>  <weinerPath>
1189

>  <weinerPol>
28

>  <zagreb>
100

$$$$
S=C(N(C)C)SSC(=S)N(C)C
  MOE2011           2D

 12 11  0  0  0  0  0  0  0  0999 V2000
    0.0000    0.0000    0.0000 S   0  0  0  0  0  0  0  0  0  0  0  0
    0.7500   -1.2990    0.0000 C   0  0  0  0  0  0  0  0  0  0  0  0
    2.2500   -1.3000    0.0000 N   0  0  0  0  0  0  0  0  0  0  0  0
    2.9990   -2.5990    0.0000 C   0  0  0  0  0  0  0  0  0  0  0  0
    3.0000   -0.0010    0.0000 C   0  0  0  0  0  0  0  0  0  0  0  0
   -0.0010   -2.5980    0.0000 S   0  0  0  0  0  0  0  0  0  0  0  0
   -1.5010   -2.5980    0.0000 S   0  0  0  0  0  0  0  0  0  0  0  0
   -2.2510   -3.8960    0.0000 C   0  0  0  0  0  0  0  0  0  0  0  0
   -1.5020   -5.1960    0.0000 S   0  0  0  0  0  0  0  0  0  0  0  0
   -3.7510   -3.8960    0.0000 N   0  0  0  0  0  0  0  0  0  0  0  0
   -4.5010   -2.5970    0.0000 C   0  0  0  0  0  0  0  0  0  0  0  0
   -4.5020   -5.1950    0.0000 C   0  0  0  0  0  0  0  0  0  0  0  0
  1  2  2  0  0  0  0
  2  3  1  0  0  0  0
  2  6  1  0  0  0  0
  3  4  1  0  0  0  0
  3  5  1  0  0  0  0
  6  7  1  0  0  0  0
  7  8  1  0  0  0  0
  8  9  2  0  0  0  0
  8 10  1  0  0  0  0
 10 11  1  0  0  0  0
 10 12  1  0  0  0  0
M  END
>  <DSSTox_RID>
40606

>  <DSSTox_CID>
1332

>  <apol>
32.361515

>  <a_acc>
2

>  <a_acid>
0

>  <a_aro>
0

>  <a_base>
0

>  <a_count>
24

>  <a_don>
0

>  <a_heavy>
12

>  <a_hyd>
6

>  <a_IC>
41.509773

>  <a_ICM>
1.729574

>  <a_nB>
0

>  <a_nBr>
0

>  <a_nC>
6

>  <a_nCl>
0

>  <a_nF>
0

>  <a_nH>
12

>  <a_nI>
0

>  <a_nN>
2

>  <a_nO>
0

>  <a_nP>
0

>  <a_nS>
4

>  <balabanJ>
3.5591495

>  <BCUT_PEOE_0>
-2.4786091

>  <BCUT_PEOE_1>
-0.0027884461

>  <BCUT_PEOE_2>
0.039422918

>  <BCUT_PEOE_3>
2.3415446

>  <BCUT_SLOGP_0>
-2.5514088

>  <BCUT_SLOGP_1>
0.123

>  <BCUT_SLOGP_2>
0.22332658

>  <BCUT_SLOGP_3>
2.3629746

>  <BCUT_SMR_0>
-2.1508811

>  <BCUT_SMR_1>
0.1057

>  <BCUT_SMR_2>
0.4729017

>  <BCUT_SMR_3>
2.7372105

>  <bpol>
21.638483

>  <b_1rotN>
3

>  <b_1rotR>
0.27272728

>  <b_ar>
0

>  <b_count>
23

>  <b_double>
2

>  <b_heavy>
11

>  <b_rotN>
5

>  <b_rotR>
0.45454547

>  <b_single>
21

>  <b_triple>
0

>  <chi0>
9.7236147

>  <chi0v>
10.793406

>  <chi0v_C>
5

>  <chi0_C>
5.1547008

>  <chi1>
5.4472647

>  <chi1v>
6.1855578

>  <chi1v_C>
0

>  <chi1_C>
0

>  <chiral>
0

>  <chiral_u>
0

>  <density>
0.97357017

>  <diameter>
7

>  <FCharge>
0

>  <GCUT_PEOE_0>
-0.84823561

>  <GCUT_PEOE_1>
-0.25696081

>  <GCUT_PEOE_2>
-0.12057708

>  <GCUT_PEOE_3>
2.0009787

>  <GCUT_SLOGP_0>
-0.95801747

>  <GCUT_SLOGP_1>
-0.10922984

>  <GCUT_SLOGP_2>
0.049707048

>  <GCUT_SLOGP_3>
2.0999455

>  <GCUT_SMR_0>
-0.49966335

>  <GCUT_SMR_1>
-0.054299999

>  <GCUT_SMR_2>
0.22571087

>  <GCUT_SMR_3>
2.4080327

>  <Kier1>
12

>  <Kier2>
5.6122451

>  <Kier3>
5.3254437

>  <KierA1>
15.851

>  <KierA2>
7.6063313

>  <KierA3>
7.3634377

>  <KierFlex>
10.047329

>  <lip_acc>
2

>  <lip_don>
0

>  <lip_druglike>
1

>  <lip_violation>
0

>  <logP(o/w)>
1.952

>  <logS>
-4.8751001

>  <mr>
6.2630386

>  <mutagenic>
0

>  <nmol>
1

>  <opr_brigid>
0

>  <opr_leadlike>
1

>  <opr_nring>
0

>  <opr_nrot>
3

>  <opr_violation>
0

>  <PC+>
0

>  <PC->
0

>  <PEOE_PC+>
0.61381352

>  <PEOE_PC->
-0.61381352

>  <PEOE_RPC+>
0.18853542

>  <PEOE_RPC->
0.41407254

>  <PEOE_VSA+0>
21.303349

>  <PEOE_VSA+1>
135.59784

>  <PEOE_VSA+2>
62.769024

>  <PEOE_VSA+3>
0

>  <PEOE_VSA+4>
0

>  <PEOE_VSA+5>
0

>  <PEOE_VSA+6>
0

>  <PEOE_VSA-0>
0

>  <PEOE_VSA-1>
43.473358

>  <PEOE_VSA-2>
0

>  <PEOE_VSA-3>
0

>  <PEOE_VSA-4>
0

>  <PEOE_VSA-5>
0

>  <PEOE_VSA-6>
0

>  <PEOE_VSA_FHYD>
1

>  <PEOE_VSA_FNEG>
0.16520776

>  <PEOE_VSA_FPNEG>
0

>  <PEOE_VSA_FPOL>
0

>  <PEOE_VSA_FPOS>
0.83479226

>  <PEOE_VSA_FPPOS>
0

>  <PEOE_VSA_HYD>
263.14359

>  <PEOE_VSA_NEG>
43.473358

>  <PEOE_VSA_PNEG>
0

>  <PEOE_VSA_POL>
0

>  <PEOE_VSA_POS>
219.67021

>  <PEOE_VSA_PPOS>
0

>  <petitjean>
0.42857143

>  <petitjeanSC>
0.75

>  <Q_PC+>
0

>  <Q_PC->
0

>  <Q_RPC+>
0

>  <Q_RPC->
0

>  <Q_VSA_FHYD>
1

>  <Q_VSA_FNEG>
0

>  <Q_VSA_FPNEG>
0

>  <Q_VSA_FPOL>
0

>  <Q_VSA_FPOS>
1

>  <Q_VSA_FPPOS>
0

>  <Q_VSA_HYD>
263.14359

>  <Q_VSA_NEG>
0

>  <Q_VSA_PNEG>
0

>  <Q_VSA_POL>
0

>  <Q_VSA_POS>
263.14359

>  <Q_VSA_PPOS>
0

>  <radius>
4

>  <reactive>
1

>  <rings>
0

>  <RPC+>
0

>  <RPC->
0

>  <rsynth>
1

>  <SlogP>
2.0608001

>  <SlogP_VSA0>
0

>  <SlogP_VSA1>
6.2486277

>  <SlogP_VSA2>
0

>  <SlogP_VSA3>
0

>  <SlogP_VSA4>
0

>  <SlogP_VSA5>
131.58875

>  <SlogP_VSA6>
0

>  <SlogP_VSA7>
0

>  <SlogP_VSA8>
0

>  <SlogP_VSA9>
150.74756

>  <SMR>
6.7756

>  <SMR_VSA0>
0

>  <SMR_VSA1>
6.2486277

>  <SMR_VSA2>
0

>  <SMR_VSA3>
0

>  <SMR_VSA4>
0

>  <SMR_VSA5>
0

>  <SMR_VSA6>
0

>  <SMR_VSA7>
282.3363

>  <TPSA>
70.660004

>  <VAdjEq>
0.61674827

>  <VAdjMa>
4.4594316

>  <VDistEq>
2.7192059

>  <VDistMa>
6.8317947

>  <vdw_area>
263.14359

>  <vdw_vol>
234.54292

>  <vsa_acc>
62.769024

>  <vsa_acid>
0

>  <vsa_base>
0

>  <vsa_don>
0

>  <vsa_hyd>
179.0712

>  <vsa_other>
21.303349

>  <vsa_pol>
62.769024

>  <Weight>
240.44

>  <weinerPath>
226

>  <weinerPol>
13

>  <zagreb>
50

$$$$
O=C1C(C(CC)=NOCC)=C(O)CC(C2=C(C)C=C(C)C=C2C)C1
  MOE2011           2D

 24 25  0  0  1  0  0  0  0  0999 V2000
    0.0000    0.0000    0.0000 O   0  0  0  0  0  0  0  0  0  0  0  0
   -0.7490   -1.3000    0.0000 C   0  0  0  0  0  0  0  0  0  0  0  0
    0.0020   -2.5980    0.0000 C   0  0  0  0  0  0  0  0  0  0  0  0
    1.5020   -2.5970    0.0000 C   0  0  0  0  0  0  0  0  0  0  0  0
    2.2520   -3.8960    0.0000 C   0  0  0  0  0  0  0  0  0  0  0  0
    3.7520   -3.8950    0.0000 C   0  0  0  0  0  0  0  0  0  0  0  0
    2.2510   -1.2980    0.0000 N   0  0  0  0  0  0  0  0  0  0  0  0
    3.7510   -1.2970    0.0000 O   0  0  0  0  0  0  0  0  0  0  0  0
    4.5000    0.0030    0.0000 C   0  0  0  0  0  0  0  0  0  0  0  0
    6.0000    0.0040    0.0000 C   0  0  0  0  0  0  0  0  0  0  0  0
   -0.7480   -3.8980    0.0000 C   0  0  0  0  0  0  0  0  0  0  0  0
    0.0030   -5.1960    0.0000 O   0  0  0  0  0  0  0  0  0  0  0  0
   -2.2480   -3.8990    0.0000 C   0  0  0  0  0  0  0  0  0  0  0  0
   -2.9980   -2.6000    0.0000 C   0  0  3  0  0  0  0  0  0  0  0  0
   -4.4980   -2.6010    0.0000 C   0  0  0  0  0  0  0  0  0  0  0  0
   -5.2480   -3.9000    0.0000 C   0  0  0  0  0  0  0  0  0  0  0  0
   -4.4970   -5.1990    0.0000 C   0  0  0  0  0  0  0  0  0  0  0  0
   -6.7480   -3.9010    0.0000 C   0  0  0  0  0  0  0  0  0  0  0  0
   -7.4980   -2.6030    0.0000 C   0  0  0  0  0  0  0  0  0  0  0  0
   -8.9980   -2.6040    0.0000 C   0  0  0  0  0  0  0  0  0  0  0  0
   -6.7490   -1.3030    0.0000 C   0  0  0  0  0  0  0  0  0  0  0  0
   -5.2490   -1.3020    0.0000 C   0  0  0  0  0  0  0  0  0  0  0  0
   -4.5000   -0.0030    0.0000 C   0  0  0  0  0  0  0  0  0  0  0  0
   -2.2490   -1.3000    0.0000 C   0  0  0  0  0  0  0  0  0  0  0  0
  1  2  2  0  0  0  0
  2  3  1  0  0  0  0
  2 24  1  0  0  0  0
  3  4  1  0  0  0  0
  3 11  2  0  0  0  0
  4  5  1  0  0  0  0
  4  7  2  0  0  0  0
  5  6  1  0  0  0  0
  7  8  1  0  0  0  0
  8  9  1  0  0  0  0
  9 10  1  0  0  0  0
 11 12  1  0  0  0  0
 11 13  1  0  0  0  0
 13 14  1  0  0  0  0
 14 15  1  0  0  0  0
 14 24  1  0  0  0  0
 15 16  1  0  0  0  0
 15 22  2  0  0  0  0
 16 17  1  0  0  0  0
 16 18  2  0  0  0  0
 18 19  1  0  0  0  0
 19 20  1  0  0  0  0
 19 21  2  0  0  0  0
 21 22  1  0  0  0  0
 22 23  1  0  0  0  0
M  END
>  <DSSTox_RID>
40615

>  <DSSTox_CID>
14973

>  <apol>
56.709412

>  <a_acc>
3

>  <a_acid>
0

>  <a_aro>
6

>  <a_base>
0

>  <a_count>
51

>  <a_don>
2

>  <a_heavy>
24

>  <a_hyd>
18

>  <a_IC>
69.718277

>  <a_ICM>
1.3670251

>  <a_nB>
0

>  <a_nBr>
0

>  <a_nC>
20

>  <a_nCl>
0

>  <a_nF>
0

>  <a_nH>
27

>  <a_nI>
0

>  <a_nN>
1

>  <a_nO>
3

>  <a_nP>
0

>  <a_nS>
0

>  <balabanJ>
2.0422814

>  <BCUT_PEOE_0>
-2.6069932

>  <BCUT_PEOE_1>
-0.15805459

>  <BCUT_PEOE_2>
0.15256007

>  <BCUT_PEOE_3>
2.6320844

>  <BCUT_SLOGP_0>
-2.5334773

>  <BCUT_SLOGP_1>
-0.06275332

>  <BCUT_SLOGP_2>
0.19182199

>  <BCUT_SLOGP_3>
2.7197421

>  <BCUT_SMR_0>
-2.349941

>  <BCUT_SMR_1>
-0.00054364192

>  <BCUT_SMR_2>
0.35023373

>  <BCUT_SMR_3>
2.8952155

>  <bpol>
32.390591

>  <b_1rotN>
5

>  <b_1rotR>
0.2

>  <b_ar>
6

>  <b_count>
52

>  <b_double>
3

>  <b_heavy>
25

>  <b_rotN>
5

>  <b_rotR>
0.2

>  <b_single>
43

>  <b_triple>
0

>  <chi0>
17.853006

>  <chi0v>
15.271401

>  <chi0v_C>
13.560478

>  <chi0_C>
14.438793

>  <chi1>
11.383448

>  <chi1v>
8.6073332

>  <chi1v_C>
7.484746

>  <chi1_C>
8.8204994

>  <chiral>
1

>  <chiral_u>
1

>  <density>
0.75811827

>  <diameter>
13

>  <FCharge>
0

>  <GCUT_PEOE_0>
-0.77405584

>  <GCUT_PEOE_1>
-0.29409224

>  <GCUT_PEOE_2>
-0.08994171

>  <GCUT_PEOE_3>
2.7728715

>  <GCUT_SLOGP_0>
-0.81430745

>  <GCUT_SLOGP_1>
-0.23710716

>  <GCUT_SLOGP_2>
-0.035212144

>  <GCUT_SLOGP_3>
2.8680327

>  <GCUT_SMR_0>
-0.51714182

>  <GCUT_SMR_1>
-0.099056818

>  <GCUT_SMR_2>
0.053140014

>  <GCUT_SMR_3>
3.0387588

>  <Kier1>
20.313601

>  <Kier2>
9.087347

>  <Kier3>
4.8034024

>  <KierA1>
16.322786

>  <KierA2>
7.2280426

>  <KierA3>
3.7926717

>  <KierFlex>
4.9159079

>  <lip_acc>
4

>  <lip_don>
1

>  <lip_druglike>
1

>  <lip_violation>
0

>  <logP(o/w)>
3.95

>  <logS>
-4.2449899

>  <mr>
9.6456642

>  <mutagenic>
0

>  <nmol>
1

>  <opr_brigid>
13

>  <opr_leadlike>
1

>  <opr_nring>
2

>  <opr_nrot>
6

>  <opr_violation>
1

>  <PC+>
0

>  <PC->
0

>  <PEOE_PC+>
0.98045743

>  <PEOE_PC->
-0.98045743

>  <PEOE_RPC+>
0.17977616

>  <PEOE_RPC->
0.29703259

>  <PEOE_VSA+0>
165.05928

>  <PEOE_VSA+1>
40.525082

>  <PEOE_VSA+2>
8.458519

>  <PEOE_VSA+3>
30.516994

>  <PEOE_VSA+4>
0

>  <PEOE_VSA+5>
0

>  <PEOE_VSA+6>
0

>  <PEOE_VSA-0>
40.451149

>  <PEOE_VSA-1>
0

>  <PEOE_VSA-2>
10.885262

>  <PEOE_VSA-3>
13.566921

>  <PEOE_VSA-4>
5.9023595

>  <PEOE_VSA-5>
13.566921

>  <PEOE_VSA-6>
0

>  <PEOE_VSA_FHYD>
0.94081074

>  <PEOE_VSA_FNEG>
0.25650433

>  <PEOE_VSA_FPNEG>
0.05918929

>  <PEOE_VSA_FPOL>
0.05918929

>  <PEOE_VSA_FPOS>
0.74349564

>  <PEOE_VSA_FPPOS>
0

>  <PEOE_VSA_HYD>
309.4632

>  <PEOE_VSA_NEG>
84.372612

>  <PEOE_VSA_PNEG>
19.46928

>  <PEOE_VSA_POL>
19.46928

>  <PEOE_VSA_POS>
244.55988

>  <PEOE_VSA_PPOS>
0

>  <petitjean>
0.46153846

>  <petitjeanSC>
0.85714287

>  <Q_PC+>
0

>  <Q_PC->
0

>  <Q_RPC+>
0

>  <Q_RPC->
0

>  <Q_VSA_FHYD>
1

>  <Q_VSA_FNEG>
0

>  <Q_VSA_FPNEG>
0

>  <Q_VSA_FPOL>
0

>  <Q_VSA_FPOS>
1

>  <Q_VSA_FPPOS>
0

>  <Q_VSA_HYD>
328.9325

>  <Q_VSA_NEG>
0

>  <Q_VSA_PNEG>
0

>  <Q_VSA_POL>
0

>  <Q_VSA_POS>
328.9325

>  <Q_VSA_PPOS>
0

>  <radius>
7

>  <reactive>
1

>  <rings>
2

>  <RPC+>
0

>  <RPC->
0

>  <rsynth>
0.33333334

>  <SlogP>
4.6729598

>  <SlogP_VSA0>
0

>  <SlogP_VSA1>
8.4443588

>  <SlogP_VSA2>
35.080978

>  <SlogP_VSA3>
46.311485

>  <SlogP_VSA4>
12.7423

>  <SlogP_VSA5>
27.828865

>  <SlogP_VSA6>
4.4107962

>  <SlogP_VSA7>
35.286369

>  <SlogP_VSA8>
56.605217

>  <SlogP_VSA9>
166.63008

>  <SMR>
9.6641798

>  <SMR_VSA0>
35.080978

>  <SMR_VSA1>
19.399862

>  <SMR_VSA2>
25.385227

>  <SMR_VSA3>
25.582098

>  <SMR_VSA4>
0

>  <SMR_VSA5>
91.891586

>  <SMR_VSA6>
29.370617

>  <SMR_VSA7>
166.63008

>  <TPSA>
58.889999

>  <VAdjEq>
0.42571631

>  <VAdjMa>
5.643856

>  <VDistEq>
3.3549261

>  <VDistMa>
8.8786745

>  <vdw_area>
328.9325

>  <vdw_vol>
398.65018

>  <vsa_acc>
10.885262

>  <vsa_acid>
0

>  <vsa_base>
0

>  <vsa_don>
0

>  <vsa_hyd>
269.85297

>  <vsa_other>
21.060431

>  <vsa_pol>
38.019104

>  <Weight>
329.44

>  <weinerPath>
1346

>  <weinerPol>
40

>  <zagreb>
120

$$$$
CC(C)N(C(=O)SCC(\Cl)=C(/Cl)Cl)C(C)C
  MOE2011           2D

 16 15  0  0  0  0  0  0  0  0999 V2000
    0.0000    0.0000    0.0000 C   0  0  0  0  0  0  0  0  0  0  0  0
    1.3020    0.7440    0.0000 C   0  0  0  0  0  0  0  0  0  0  0  0
    1.3090    2.2440    0.0000 C   0  0  0  0  0  0  0  0  0  0  0  0
    2.5980   -0.0120    0.0000 N   0  0  0  0  0  0  0  0  0  0  0  0
    3.9000    0.7320    0.0000 C   0  0  0  0  0  0  0  0  0  0  0  0
    3.9070    2.2320    0.0000 O   0  0  0  0  0  0  0  0  0  0  0  0
    5.1960   -0.0230    0.0000 S   0  0  0  0  0  0  0  0  0  0  0  0
    6.4990    0.7210    0.0000 C   0  0  0  0  0  0  0  0  0  0  0  0
    7.7940   -0.0350    0.0000 C   0  0  0  0  0  0  0  0  0  0  0  0
    7.7870   -1.5350    0.0000 Cl  0  0  0  0  0  0  0  0  0  0  0  0
    9.0970    0.7090    0.0000 C   0  0  0  0  0  0  0  0  0  0  0  0
    9.1030    2.2090    0.0000 Cl  0  0  0  0  0  0  0  0  0  0  0  0
   10.3920   -0.0470    0.0000 Cl  0  0  0  0  0  0  0  0  0  0  0  0
    2.5910   -1.5120    0.0000 C   0  0  0  0  0  0  0  0  0  0  0  0
    1.2890   -2.2560    0.0000 C   0  0  0  0  0  0  0  0  0  0  0  0
    3.8870   -2.2680    0.0000 C   0  0  0  0  0  0  0  0  0  0  0  0
  1  2  1  0  0  0  0
  2  3  1  0  0  0  0
  2  4  1  0  0  0  0
  4  5  1  0  0  0  0
  4 14  1  0  0  0  0
  5  6  2  0  0  0  0
  5  7  1  0  0  0  0
  7  8  1  0  0  0  0
  8  9  1  0  0  0  0
  9 10  1  0  0  0  0
  9 11  2  0  0  0  0
 11 12  1  0  0  0  0
 11 13  1  0  0  0  0
 14 15  1  0  0  0  0
 14 16  1  0  0  0  0
M  END
>  <DSSTox_RID>
40618

>  <DSSTox_CID>
4344

>  <apol>
39.610687

>  <a_acc>
1

>  <a_acid>
0

>  <a_aro>
0

>  <a_base>
0

>  <a_count>
32

>  <a_don>
0

>  <a_heavy>
16

>  <a_hyd>
12

>  <a_IC>
58.025833

>  <a_ICM>
1.8133073

>  <a_nB>
0

>  <a_nBr>
0

>  <a_nC>
10

>  <a_nCl>
3

>  <a_nF>
0

>  <a_nH>
16

>  <a_nI>
0

>  <a_nN>
1

>  <a_nO>
1

>  <a_nP>
0

>  <a_nS>
1

>  <balabanJ>
4.1749225

>  <BCUT_PEOE_0>
-2.6858134

>  <BCUT_PEOE_1>
-0.14471267

>  <BCUT_PEOE_2>
0.03759161

>  <BCUT_PEOE_3>
2.6129422

>  <BCUT_SLOGP_0>
-2.7229002

>  <BCUT_SLOGP_1>
0.0925522

>  <BCUT_SLOGP_2>
0.61778671

>  <BCUT_SLOGP_3>
2.6135509

>  <BCUT_SMR_0>
-2.4110267

>  <BCUT_SMR_1>
0.096505918

>  <BCUT_SMR_2>
0.50433528

>  <BCUT_SMR_3>
2.8914967

>  <bpol>
23.969313

>  <b_1rotN>
5

>  <b_1rotR>
0.33333334

>  <b_ar>
0

>  <b_count>
31

>  <b_double>
2

>  <b_heavy>
15

>  <b_rotN>
6

>  <b_rotR>
0.40000001

>  <b_single>
29

>  <b_triple>
0

>  <chi0>
12.878315

>  <chi0v>
12.843695

>  <chi0v_C>
7.3618073

>  <chi0_C>
7.5938582

>  <chi1>
7.2686319

>  <chi1v>
7.0363212

>  <chi1v_C>
2.9129546

>  <chi1_C>
3.0509827

>  <chiral>
0

>  <chiral_u>
0

>  <density>
0.98008209

>  <diameter>
8

>  <FCharge>
0

>  <GCUT_PEOE_0>
-0.84431535

>  <GCUT_PEOE_1>
-0.29453057

>  <GCUT_PEOE_2>
-0.12240839

>  <GCUT_PEOE_3>
2.4412243

>  <GCUT_SLOGP_0>
-0.95561326

>  <GCUT_SLOGP_1>
-0.04109833

>  <GCUT_SLOGP_2>
0.2248278

>  <GCUT_SLOGP_3>
2.5019174

>  <GCUT_SMR_0>
-0.52148294

>  <GCUT_SMR_1>
-0.054299999

>  <GCUT_SMR_2>
0.22431675

>  <GCUT_SMR_3>
2.7077084

>  <Kier1>
16

>  <Kier2>
7.3499999

>  <Kier3>
5.7777777

>  <KierA1>
19.835772

>  <KierA2>
9.2447882

>  <KierA3>
7.3460741

>  <KierFlex>
11.461094

>  <lip_acc>
2

>  <lip_don>
0

>  <lip_druglike>
1

>  <lip_violation>
0

>  <logP(o/w)>
4.80336

>  <logS>
-5.0025201

>  <mr>
7.3969288

>  <mutagenic>
0

>  <nmol>
1

>  <opr_brigid>
1

>  <opr_leadlike>
1

>  <opr_nring>
0

>  <opr_nrot>
5

>  <opr_violation>
1

>  <PC+>
0

>  <PC->
0

>  <PEOE_PC+>
0.84683305

>  <PEOE_PC->
-0.84683305

>  <PEOE_RPC+>
0.33597925

>  <PEOE_RPC->
0.37203956

>  <PEOE_VSA+0>
117.6338

>  <PEOE_VSA+1>
17.918848

>  <PEOE_VSA+2>
24.615509

>  <PEOE_VSA+3>
0

>  <PEOE_VSA+4>
0

>  <PEOE_VSA+5>
14.925592

>  <PEOE_VSA+6>
0

>  <PEOE_VSA-0>
19.760618

>  <PEOE_VSA-1>
88.745842

>  <PEOE_VSA-2>
0

>  <PEOE_VSA-3>
0

>  <PEOE_VSA-4>
0

>  <PEOE_VSA-5>
13.566921

>  <PEOE_VSA-6>
0

>  <PEOE_VSA_FHYD>
0.90411955

>  <PEOE_VSA_FNEG>
0.41079032

>  <PEOE_VSA_FPNEG>
0.045654178

>  <PEOE_VSA_FPOL>
0.095880434

>  <PEOE_VSA_FPOS>
0.58920968

>  <PEOE_VSA_FPPOS>
0.050226256

>  <PEOE_VSA_HYD>
268.67462

>  <PEOE_VSA_NEG>
122.07338

>  <PEOE_VSA_PNEG>
13.566921

>  <PEOE_VSA_POL>
28.492514

>  <PEOE_VSA_POS>
175.09375

>  <PEOE_VSA_PPOS>
14.925592

>  <petitjean>
0.5

>  <petitjeanSC>
1

>  <Q_PC+>
0

>  <Q_PC->
0

>  <Q_RPC+>
0

>  <Q_RPC->
0

>  <Q_VSA_FHYD>
1

>  <Q_VSA_FNEG>
0

>  <Q_VSA_FPNEG>
0

>  <Q_VSA_FPOL>
0

>  <Q_VSA_FPOS>
1

>  <Q_VSA_FPPOS>
0

>  <Q_VSA_HYD>
297.16711

>  <Q_VSA_NEG>
0

>  <Q_VSA_PNEG>
0

>  <Q_VSA_POL>
0

>  <Q_VSA_POS>
297.16711

>  <Q_VSA_PPOS>
0

>  <radius>
4

>  <reactive>
0

>  <rings>
0

>  <RPC+>
0

>  <RPC->
0

>  <rsynth>
1

>  <SlogP>
4.8439002

>  <SlogP_VSA0>
0

>  <SlogP_VSA1>
6.7482567

>  <SlogP_VSA2>
7.9639373

>  <SlogP_VSA3>
17.233564

>  <SlogP_VSA4>
0

>  <SlogP_VSA5>
7.3162446

>  <SlogP_VSA6>
0

>  <SlogP_VSA7>
0

>  <SlogP_VSA8>
0

>  <SlogP_VSA9>
306.83176

>  <SMR>
7.4551001

>  <SMR_VSA0>
23.862217

>  <SMR_VSA1>
3.1243138

>  <SMR_VSA2>
0

>  <SMR_VSA3>
15.280182

>  <SMR_VSA4>
0

>  <SMR_VSA5>
0

>  <SMR_VSA6>
20.857508

>  <SMR_VSA7>
282.96954

>  <TPSA>
20.309999

>  <VAdjEq>
0.521222

>  <VAdjMa>
4.9068904

>  <VDistEq>
2.9337423

>  <VDistMa>
7.6977215

>  <vdw_area>
297.16711

>  <vdw_vol>
294.40494

>  <vsa_acc>
13.566921

>  <vsa_acid>
0

>  <vsa_base>
0

>  <vsa_don>
0

>  <vsa_hyd>
261.84366

>  <vsa_other>
21.756546

>  <vsa_pol>
13.566921

>  <Weight>
304.66901

>  <weinerPath>
478

>  <weinerPol>
21

>  <zagreb>
70

$$$$
Cc1nc(nc(OC)n1)N(C)C(=O)NS(=O)(=O)c2ccccc2C(=O)OC
  MOE2011           2D

 27 28  0  0  0  0  0  0  0  0999 V2000
    0.0000    0.0000    0.0000 C   0  0  0  0  0  0  0  0  0  0  0  0
   -0.7470   -1.3010    0.0000 C   0  0  0  0  0  0  0  0  0  0  0  0
   -2.2470   -1.3040    0.0000 N   0  0  0  0  0  0  0  0  0  0  0  0
   -2.9950   -2.6040    0.0000 C   0  0  0  0  0  0  0  0  0  0  0  0
   -2.2420   -3.9020    0.0000 N   0  0  0  0  0  0  0  0  0  0  0  0
   -0.7420   -3.8990    0.0000 C   0  0  0  0  0  0  0  0  0  0  0  0
    0.0110   -5.1960    0.0000 O   0  0  0  0  0  0  0  0  0  0  0  0
    1.5110   -5.1930    0.0000 C   0  0  0  0  0  0  0  0  0  0  0  0
    0.0050   -2.5980    0.0000 N   0  0  0  0  0  0  0  0  0  0  0  0
   -4.4950   -2.6070    0.0000 N   0  0  0  0  0  0  0  0  0  0  0  0
   -5.2420   -3.9080    0.0000 C   0  0  0  0  0  0  0  0  0  0  0  0
   -5.2470   -1.3100    0.0000 C   0  0  0  0  0  0  0  0  0  0  0  0
   -4.5000   -0.0090    0.0000 O   0  0  0  0  0  0  0  0  0  0  0  0
   -6.7470   -1.3130    0.0000 N   0  0  0  0  0  0  0  0  0  0  0  0
   -7.5000   -0.0160    0.0000 S   0  0  0  0  0  0  0  0  0  0  0  0
   -8.7970   -0.7680    0.0000 O   0  0  0  0  0  0  0  0  0  0  0  0
   -6.2030    0.7370    0.0000 O   0  0  0  0  0  0  0  0  0  0  0  0
   -8.2530    1.2820    0.0000 C   0  0  0  0  0  0  0  0  0  0  0  0
   -7.5050    2.5820    0.0000 C   0  0  0  0  0  0  0  0  0  0  0  0
   -8.2580    3.8800    0.0000 C   0  0  0  0  0  0  0  0  0  0  0  0
   -9.7580    3.8770    0.0000 C   0  0  0  0  0  0  0  0  0  0  0  0
  -10.5050    2.5760    0.0000 C   0  0  0  0  0  0  0  0  0  0  0  0
   -9.7530    1.2790    0.0000 C   0  0  0  0  0  0  0  0  0  0  0  0
  -10.5000   -0.0220    0.0000 C   0  0  0  0  0  0  0  0  0  0  0  0
   -9.7470   -1.3190    0.0000 O   0  0  0  0  0  0  0  0  0  0  0  0
  -12.0000   -0.0250    0.0000 O   0  0  0  0  0  0  0  0  0  0  0  0
  -12.7470   -1.3260    0.0000 C   0  0  0  0  0  0  0  0  0  0  0  0
  1  2  1  0  0  0  0
  2  3  1  0  0  0  0
  2  9  2  0  0  0  0
  3  4  2  0  0  0  0
  4  5  1  0  0  0  0
  4 10  1  0  0  0  0
  5  6  2  0  0  0  0
  6  7  1  0  0  0  0
  6  9  1  0  0  0  0
  7  8  1  0  0  0  0
 10 11  1  0  0  0  0
 10 12  1  0  0  0  0
 12 13  2  0  0  0  0
 12 14  1  0  0  0  0
 14 15  1  0  0  0  0
 15 16  2  0  0  0  0
 15 17  2  0  0  0  0
 15 18  1  0  0  0  0
 18 19  1  0  0  0  0
 18 23  2  0  0  0  0
 19 20  2  0  0  0  0
 20 21  1  0  0  0  0
 21 22  2  0  0  0  0
 22 23  1  0  0  0  0
 23 24  1  0  0  0  0
 24 25  2  0  0  0  0
 24 26  1  0  0  0  0
 26 27  1  0  0  0  0
M  END
>  <DSSTox_RID>
40620

>  <DSSTox_CID>
4101

>  <apol>
50.947479

>  <a_acc>
7

>  <a_acid>
0

>  <a_aro>
12

>  <a_base>
0

>  <a_count>
44

>  <a_don>
1

>  <a_heavy>
27

>  <a_hyd>
10

>  <a_IC>
85.005348

>  <a_ICM>
1.9319397

>  <a_nB>
0

>  <a_nBr>
0

>  <a_nC>
15

>  <a_nCl>
0

>  <a_nF>
0

>  <a_nH>
17

>  <a_nI>
0

>  <a_nN>
5

>  <a_nO>
6

>  <a_nP>
0

>  <a_nS>
1

>  <balabanJ>
2.0219719

>  <BCUT_PEOE_0>
-2.4190719

>  <BCUT_PEOE_1>
-0.45015225

>  <BCUT_PEOE_2>
0.5163731

>  <BCUT_PEOE_3>
2.5565505

>  <BCUT_SLOGP_0>
-2.638521

>  <BCUT_SLOGP_1>
-0.39752129

>  <BCUT_SLOGP_2>
0.56701702

>  <BCUT_SLOGP_3>
2.3635201

>  <BCUT_SMR_0>
-2.0848198

>  <BCUT_SMR_1>
-0.29364055

>  <BCUT_SMR_2>
0.64800227

>  <BCUT_SMR_3>
2.7912533

>  <bpol>
37.40852

>  <b_1rotN>
6

>  <b_1rotR>
0.21428572

>  <b_ar>
12

>  <b_count>
45

>  <b_double>
2

>  <b_heavy>
28

>  <b_rotN>
8

>  <b_rotR>
0.2857143

>  <b_single>
31

>  <b_triple>
0

>  <chi0>
20.189871

>  <chi0v>
15.772491

>  <chi0v_C>
9.8094015

>  <chi0_C>
10.869879

>  <chi1>
12.689908

>  <chi1v>
8.9211559

>  <chi1v_C>
2.5773504

>  <chi1_C>
3.5605135

>  <chiral>
0

>  <chiral_u>
0

>  <density>
0.92570919

>  <diameter>
13

>  <FCharge>
0

>  <GCUT_PEOE_0>
-0.84785074

>  <GCUT_PEOE_1>
-0.46477869

>  <GCUT_PEOE_2>
0.027753845

>  <GCUT_PEOE_3>
2.5040321

>  <GCUT_SLOGP_0>
-1.1465344

>  <GCUT_SLOGP_1>
-0.47817808

>  <GCUT_SLOGP_2>
0.089228183

>  <GCUT_SLOGP_3>
2.452631

>  <GCUT_SMR_0>
-0.48480049

>  <GCUT_SMR_1>
-0.17198361

>  <GCUT_SMR_2>
0.13267446

>  <GCUT_SMR_3>
2.7520409

>  <Kier1>
23.280613

>  <Kier2>
10.15625

>  <Kier3>
5.9903998

>  <KierA1>
18.096849

>  <KierA2>
7.8131537

>  <KierA3>
4.5728707

>  <KierFlex>
5.2367949

>  <lip_acc>
11

>  <lip_don>
1

>  <lip_druglike>
1

>  <lip_violation>
1

>  <logP(o/w)>
-0.221

>  <logS>
-4.0623498

>  <mr>
9.6176434

>  <mutagenic>
0

>  <nmol>
1

>  <opr_brigid>
12

>  <opr_leadlike>
1

>  <opr_nring>
2

>  <opr_nrot>
4

>  <opr_violation>
1

>  <PC+>
0

>  <PC->
0

>  <PEOE_PC+>
2.5359313

>  <PEOE_PC->
-2.5359313

>  <PEOE_RPC+>
0.14704968

>  <PEOE_RPC->
0.15080357

>  <PEOE_VSA+0>
88.024498

>  <PEOE_VSA+1>
89.672768

>  <PEOE_VSA+2>
68.907463

>  <PEOE_VSA+3>
37.86697

>  <PEOE_VSA+4>
0

>  <PEOE_VSA+5>
17.440542

>  <PEOE_VSA+6>
28.998709

>  <PEOE_VSA-0>
0

>  <PEOE_VSA-1>
0

>  <PEOE_VSA-2>
0

>  <PEOE_VSA-3>
0

>  <PEOE_VSA-4>
0

>  <PEOE_VSA-5>
21.753254

>  <PEOE_VSA-6>
27.435829

>  <PEOE_VSA_FHYD>
0.74841273

>  <PEOE_VSA_FNEG>
0.12941089

>  <PEOE_VSA_FPNEG>
0.12941089

>  <PEOE_VSA_FPOL>
0.25158727

>  <PEOE_VSA_FPOS>
0.87058914

>  <PEOE_VSA_FPPOS>
0.12217639

>  <PEOE_VSA_HYD>
284.47171

>  <PEOE_VSA_NEG>
49.189083

>  <PEOE_VSA_PNEG>
49.189083

>  <PEOE_VSA_POL>
95.628334

>  <PEOE_VSA_POS>
330.91095

>  <PEOE_VSA_PPOS>
46.439251

>  <petitjean>
0.46153846

>  <petitjeanSC>
0.85714287

>  <Q_PC+>
0

>  <Q_PC->
0

>  <Q_RPC+>
0

>  <Q_RPC->
0

>  <Q_VSA_FHYD>
1

>  <Q_VSA_FNEG>
0

>  <Q_VSA_FPNEG>
0

>  <Q_VSA_FPOL>
0

>  <Q_VSA_FPOS>
1

>  <Q_VSA_FPPOS>
0

>  <Q_VSA_HYD>
380.10004

>  <Q_VSA_NEG>
0

>  <Q_VSA_PNEG>
0

>  <Q_VSA_POL>
0

>  <Q_VSA_POS>
380.10004

>  <Q_VSA_PPOS>
0

>  <radius>
7

>  <reactive>
0

>  <rings>
2

>  <RPC+>
0

>  <RPC->
0

>  <rsynth>
1

>  <SlogP>
0.50992

>  <SlogP_VSA0>
30.5292

>  <SlogP_VSA1>
111.1037

>  <SlogP_VSA2>
17.640631

>  <SlogP_VSA3>
0

>  <SlogP_VSA4>
29.375711

>  <SlogP_VSA5>
105.21566

>  <SlogP_VSA6>
0

>  <SlogP_VSA7>
70.572739

>  <SlogP_VSA8>
0

>  <SlogP_VSA9>
63.473099

>  <SMR>
9.3017998

>  <SMR_VSA0>
106.89601

>  <SMR_VSA1>
61.356476

>  <SMR_VSA2>
21.080046

>  <SMR_VSA3>
9.8992682

>  <SMR_VSA4>
1.8990928

>  <SMR_VSA5>
70.572739

>  <SMR_VSA6>
12.57542

>  <SMR_VSA7>
143.63168

>  <TPSA>
140.67999

>  <VAdjEq>
0.39086518

>  <VAdjMa>
5.8073549

>  <VDistEq>
3.4680026

>  <VDistMa>
9.2271414

>  <vdw_area>
380.10004

>  <vdw_vol>
408.61642

>  <vsa_acc>
76.19809

>  <vsa_acid>
0

>  <vsa_base>
0

>  <vsa_don>
8.0752068

>  <vsa_hyd>
204.25189

>  <vsa_other>
91.574844

>  <vsa_pol>
84.2733

>  <Weight>
395.396

>  <weinerPath>
1884

>  <weinerPol>
44

>  <zagreb>
136

$$$$
CCCCSP(=O)(SCCCC)SCCCC
  MOE2011           2D

 17 16  0  0  0  0  0  0  0  0999 V2000
    0.0000    0.0000    0.0000 C   0  0  0  0  0  0  0  0  0  0  0  0
   -1.5000    0.0050    0.0000 C   0  0  0  0  0  0  0  0  0  0  0  0
   -2.2450    1.3070    0.0000 C   0  0  0  0  0  0  0  0  0  0  0  0
   -3.7450    1.3130    0.0000 C   0  0  0  0  0  0  0  0  0  0  0  0
   -4.4900    2.6150    0.0000 S   0  0  0  0  0  0  0  0  0  0  0  0
   -5.9900    2.6200    0.0000 P   0  0  0  0  0  0  0  0  0  0  0  0
   -5.9960    1.1200    0.0000 O   0  0  0  0  0  0  0  0  0  0  0  0
   -7.4900    2.6260    0.0000 S   0  0  0  0  0  0  0  0  0  0  0  0
   -8.2450    1.3290    0.0000 C   0  0  0  0  0  0  0  0  0  0  0  0
   -9.7450    1.3350    0.0000 C   0  0  0  0  0  0  0  0  0  0  0  0
  -10.5000    0.0380    0.0000 C   0  0  0  0  0  0  0  0  0  0  0  0
  -12.0000    0.0440    0.0000 C   0  0  0  0  0  0  0  0  0  0  0  0
   -5.9850    4.1200    0.0000 S   0  0  0  0  0  0  0  0  0  0  0  0
   -7.2810    4.8750    0.0000 C   0  0  0  0  0  0  0  0  0  0  0  0
   -7.2760    6.3750    0.0000 C   0  0  0  0  0  0  0  0  0  0  0  0
   -8.5720    7.1300    0.0000 C   0  0  0  0  0  0  0  0  0  0  0  0
   -8.5670    8.6300    0.0000 C   0  0  0  0  0  0  0  0  0  0  0  0
  1  2  1  0  0  0  0
  2  3  1  0  0  0  0
  3  4  1  0  0  0  0
  4  5  1  0  0  0  0
  5  6  1  0  0  0  0
  6  7  2  0  0  0  0
  6  8  1  0  0  0  0
  6 13  1  0  0  0  0
  8  9  1  0  0  0  0
  9 10  1  0  0  0  0
 10 11  1  0  0  0  0
 11 12  1  0  0  0  0
 13 14  1  0  0  0  0
 14 15  1  0  0  0  0
 15 16  1  0  0  0  0
 16 17  1  0  0  0  0
M  END
>  <DSSTox_RID>
40510

>  <DSSTox_CID>
4174

>  <apol>
52.255409

>  <a_acc>
1

>  <a_acid>
0

>  <a_aro>
0

>  <a_base>
0

>  <a_count>
44

>  <a_don>
0

>  <a_heavy>
17

>  <a_hyd>
12

>  <a_IC>
64.058594

>  <a_ICM>
1.4558771

>  <a_nB>
0

>  <a_nBr>
0

>  <a_nC>
12

>  <a_nCl>
0

>  <a_nF>
0

>  <a_nH>
27

>  <a_nI>
0

>  <a_nN>
0

>  <a_nO>
1

>  <a_nP>
1

>  <a_nS>
3

>  <balabanJ>
3.945843

>  <BCUT_PEOE_0>
-2.6085649

>  <BCUT_PEOE_1>
0.022977823

>  <BCUT_PEOE_2>
0.042319756

>  <BCUT_PEOE_3>
2.6091583

>  <BCUT_SLOGP_0>
-2.4792514

>  <BCUT_SLOGP_1>
0.123

>  <BCUT_SLOGP_2>
0.34446111

>  <BCUT_SLOGP_3>
2.9108014

>  <BCUT_SMR_0>
-2.3328798

>  <BCUT_SMR_1>
0.1057

>  <BCUT_SMR_2>
0.41422105

>  <BCUT_SMR_3>
3.0134139

>  <bpol>
37.95459

>  <b_1rotN>
12

>  <b_1rotR>
0.75

>  <b_ar>
0

>  <b_count>
43

>  <b_double>
0

>  <b_heavy>
16

>  <b_rotN>
12

>  <b_rotR>
0.75

>  <b_single>
43

>  <b_triple>
0

>  <chi0>
12.985281

>  <chi0v>
14.788085

>  <chi0v_C>
9.3639612

>  <chi0_C>
9.3639612

>  <chi1>
8.1819801

>  <chi1v>
13.196622

>  <chi1v_C>
5.1213202

>  <chi1_C>
5.1213202

>  <chiral>
0

>  <chiral_u>
0

>  <density>
0.86756754

>  <diameter>
10

>  <FCharge>
0

>  <GCUT_PEOE_0>
-0.86621642

>  <GCUT_PEOE_1>
-0.19938326

>  <GCUT_PEOE_2>
-0.11768024

>  <GCUT_PEOE_3>
2.507935

>  <GCUT_SLOGP_0>
-1.2903544

>  <GCUT_SLOGP_1>
-0.037

>  <GCUT_SLOGP_2>
0.16428921

>  <GCUT_SLOGP_3>
2.7291446

>  <GCUT_SMR_0>
-0.52790123

>  <GCUT_SMR_1>
-0.054299999

>  <GCUT_SMR_2>
0.21446398

>  <GCUT_SMR_3>
2.837925

>  <Kier1>
17

>  <Kier2>
11.111111

>  <Kier3>
9.6790123

>  <KierA1>
24.221006

>  <KierA2>
16.178553

>  <KierA3>
14.335812

>  <KierFlex>
23.050636

>  <lip_acc>
1

>  <lip_don>
0

>  <lip_druglike>
1

>  <lip_violation>
1

>  <logP(o/w)>
6.2160001

>  <logS>
-5.5462599

>  <mr>
8.8733616

>  <mutagenic>
0

>  <nmol>
1

>  <opr_brigid>
0

>  <opr_leadlike>
0

>  <opr_nring>
0

>  <opr_nrot>
12

>  <opr_violation>
2

>  <PC+>
0

>  <PC->
0

>  <PEOE_PC+>
0.66637886

>  <PEOE_PC->
-0.66637886

>  <PEOE_RPC+>
0.2507441

>  <PEOE_RPC->
1

>  <PEOE_VSA+0>
247.2301

>  <PEOE_VSA+1>
0

>  <PEOE_VSA+2>
53.353668

>  <PEOE_VSA+3>
9.3444862

>  <PEOE_VSA+4>
0

>  <PEOE_VSA+5>
0

>  <PEOE_VSA+6>
0

>  <PEOE_VSA-0>
0

>  <PEOE_VSA-1>
0

>  <PEOE_VSA-2>
0

>  <PEOE_VSA-3>
0

>  <PEOE_VSA-4>
0

>  <PEOE_VSA-5>
0

>  <PEOE_VSA-6>
15.729136

>  <PEOE_VSA_FHYD>
0.95170033

>  <PEOE_VSA_FNEG>
0.048299644

>  <PEOE_VSA_FPNEG>
0.048299644

>  <PEOE_VSA_FPOL>
0.048299644

>  <PEOE_VSA_FPOS>
0.95170033

>  <PEOE_VSA_FPPOS>
0

>  <PEOE_VSA_HYD>
309.92825

>  <PEOE_VSA_NEG>
15.729136

>  <PEOE_VSA_PNEG>
15.729136

>  <PEOE_VSA_POL>
15.729136

>  <PEOE_VSA_POS>
309.92825

>  <PEOE_VSA_PPOS>
0

>  <petitjean>
0.5

>  <petitjeanSC>
1

>  <Q_PC+>
0

>  <Q_PC->
0

>  <Q_RPC+>
0

>  <Q_RPC->
0

>  <Q_VSA_FHYD>
1

>  <Q_VSA_FNEG>
0

>  <Q_VSA_FPNEG>
0

>  <Q_VSA_FPOL>
0

>  <Q_VSA_FPOS>
1

>  <Q_VSA_FPPOS>
0

>  <Q_VSA_HYD>
325.65738

>  <Q_VSA_NEG>
0

>  <Q_VSA_PNEG>
0

>  <Q_VSA_POL>
0

>  <Q_VSA_POS>
325.65738

>  <Q_VSA_PPOS>
0

>  <radius>
5

>  <reactive>
0

>  <rings>
0

>  <RPC+>
0

>  <RPC->
0

>  <rsynth>
1

>  <SlogP>
5.6241999

>  <SlogP_VSA0>
22.433765

>  <SlogP_VSA1>
0

>  <SlogP_VSA2>
0

>  <SlogP_VSA3>
51.700695

>  <SlogP_VSA4>
0

>  <SlogP_VSA5>
0

>  <SlogP_VSA6>
0

>  <SlogP_VSA7>
0

>  <SlogP_VSA8>
113.21043

>  <SlogP_VSA9>
190.26152

>  <SMR>
8.9020996

>  <SMR_VSA0>
22.433765

>  <SMR_VSA1>
0

>  <SMR_VSA2>
0

>  <SMR_VSA3>
0

>  <SMR_VSA4>
0

>  <SMR_VSA5>
113.21043

>  <SMR_VSA6>
51.700695

>  <SMR_VSA7>
190.26152

>  <TPSA>
17.07

>  <VAdjEq>
0.50210387

>  <VAdjMa>
5

>  <VDistEq>
3.1822658

>  <VDistMa>
7.8700509

>  <vdw_area>
325.65738

>  <vdw_vol>
331.15924

>  <vsa_acc>
15.729136

>  <vsa_acid>
0

>  <vsa_base>
0

>  <vsa_don>
0

>  <vsa_hyd>
236.42999

>  <vsa_other>
73.498268

>  <vsa_pol>
15.729136

>  <Weight>
314.51901

>  <weinerPath>
616

>  <weinerPol>
18

>  <zagreb>
68

$$$$
OC(C(Cl)(Cl)Cl)P(=O)(OC)OC
  MOE2011           2D

 12 11  0  0  1  0  0  0  0  0999 V2000
    0.0000    0.0000    0.0000 O   0  0  0  0  0  0  0  0  0  0  0  0
    0.0010   -1.5000    0.0000 C   0  0  3  0  0  0  0  0  0  0  0  0
    1.3010   -2.2490    0.0000 C   0  0  0  0  0  0  0  0  0  0  0  0
    0.5520   -3.5490    0.0000 Cl  0  0  0  0  0  0  0  0  0  0  0  0
    2.6010   -2.9980    0.0000 Cl  0  0  0  0  0  0  0  0  0  0  0  0
    2.0500   -0.9490    0.0000 Cl  0  0  0  0  0  0  0  0  0  0  0  0
   -1.2970   -2.2510    0.0000 P   0  0  0  0  0  0  0  0  0  0  0  0
   -0.5460   -3.5490    0.0000 O   0  0  0  0  0  0  0  0  0  0  0  0
   -2.5960   -3.0020    0.0000 O   0  0  0  0  0  0  0  0  0  0  0  0
   -2.5940   -4.5020    0.0000 C   0  0  0  0  0  0  0  0  0  0  0  0
   -2.0480   -0.9530    0.0000 O   0  0  0  0  0  0  0  0  0  0  0  0
   -3.5480   -0.9540    0.0000 C   0  0  0  0  0  0  0  0  0  0  0  0
  1  2  1  0  0  0  0
  2  3  1  0  0  0  0
  2  7  1  0  0  0  0
  3  4  1  0  0  0  0
  3  5  1  0  0  0  0
  3  6  1  0  0  0  0
  7  8  2  0  0  0  0
  7  9  1  0  0  0  0
  7 11  1  0  0  0  0
  9 10  1  0  0  0  0
 11 12  1  0  0  0  0
M  END
>  <DSSTox_RID>
40621

>  <DSSTox_CID>
1389

>  <apol>
25.752344

>  <a_acc>
4

>  <a_acid>
0

>  <a_aro>
0

>  <a_base>
0

>  <a_count>
20

>  <a_don>
1

>  <a_heavy>
12

>  <a_hyd>
6

>  <a_IC>
41.683674

>  <a_ICM>
2.0841837

>  <a_nB>
0

>  <a_nBr>
0

>  <a_nC>
4

>  <a_nCl>
3

>  <a_nF>
0

>  <a_nH>
8

>  <a_nI>
0

>  <a_nN>
0

>  <a_nO>
4

>  <a_nP>
1

>  <a_nS>
0

>  <balabanJ>
4.5273967

>  <BCUT_PEOE_0>
-2.4769366

>  <BCUT_PEOE_1>
-0.23090874

>  <BCUT_PEOE_2>
0.037637472

>  <BCUT_PEOE_3>
2.6658676

>  <BCUT_SLOGP_0>
-2.5389094

>  <BCUT_SLOGP_1>
-0.29405445

>  <BCUT_SLOGP_2>
0.62270898

>  <BCUT_SLOGP_3>
2.7104309

>  <BCUT_SMR_0>
-2.2331576

>  <BCUT_SMR_1>
0.064532988

>  <BCUT_SMR_2>
0.58530003

>  <BCUT_SMR_3>
2.8914809

>  <bpol>
22.275656

>  <b_1rotN>
3

>  <b_1rotR>
0.27272728

>  <b_ar>
0

>  <b_count>
19

>  <b_double>
0

>  <b_heavy>
11

>  <b_rotN>
4

>  <b_rotR>
0.36363637

>  <b_single>
19

>  <b_triple>
0

>  <chi0>
9.9915638

>  <chi0v>
9.49263

>  <chi0v_C>
3.0773504

>  <chi0_C>
3.0773504

>  <chi1>
5.276021

>  <chi1v>
5.4819751

>  <chi1v_C>
0.28867513

>  <chi1_C>
0.28867513

>  <chiral>
1

>  <chiral_u>
1

>  <density>
1.2451601

>  <diameter>
5

>  <FCharge>
0

>  <GCUT_PEOE_0>
-0.76373583

>  <GCUT_PEOE_1>
-0.35844168

>  <GCUT_PEOE_2>
-0.12236252

>  <GCUT_PEOE_3>
2.1689961

>  <GCUT_SLOGP_0>
-1.2935424

>  <GCUT_SLOGP_1>
-0.29246062

>  <GCUT_SLOGP_2>
0.25023156

>  <GCUT_SLOGP_3>
2.2567303

>  <GCUT_SMR_0>
-0.48716274

>  <GCUT_SMR_1>
-0.13735868

>  <GCUT_SMR_2>
0.34580424

>  <GCUT_SMR_3>
2.4182

>  <Kier1>
12

>  <Kier2>
3.8062284

>  <Kier3>
2.7777777

>  <KierA1>
19.167614

>  <KierA2>
6.3392806

>  <KierA3>
4.7786164

>  <KierFlex>
10.12574

>  <lip_acc>
4

>  <lip_don>
1

>  <lip_druglike>
1

>  <lip_violation>
0

>  <logP(o/w)>
0.46507999

>  <logS>
-1.69733

>  <mr>
4.9680991

>  <mutagenic>
1

>  <nmol>
1

>  <opr_brigid>
0

>  <opr_leadlike>
1

>  <opr_nring>
0

>  <opr_nrot>
3

>  <opr_violation>
0

>  <PC+>
0

>  <PC->
0

>  <PEOE_PC+>
1.2188896

>  <PEOE_PC->
-1.2188896

>  <PEOE_RPC+>
0.30210283

>  <PEOE_RPC->
0.25647664

>  <PEOE_VSA+0>
0

>  <PEOE_VSA+1>
0

>  <PEOE_VSA+2>
71.316856

>  <PEOE_VSA+3>
0

>  <PEOE_VSA+4>
0

>  <PEOE_VSA+5>
0

>  <PEOE_VSA+6>
23.64603

>  <PEOE_VSA-0>
0

>  <PEOE_VSA-1>
88.745842

>  <PEOE_VSA-2>
0

>  <PEOE_VSA-3>
13.566921

>  <PEOE_VSA-4>
15.729136

>  <PEOE_VSA-5>
0

>  <PEOE_VSA-6>
9.3319435

>  <PEOE_VSA_FHYD>
0.78093088

>  <PEOE_VSA_FNEG>
0.57288706

>  <PEOE_VSA_FPNEG>
0.11271678

>  <PEOE_VSA_FPOL>
0.21906911

>  <PEOE_VSA_FPOS>
0.42711291

>  <PEOE_VSA_FPPOS>
0.10635234

>  <PEOE_VSA_HYD>
173.62962

>  <PEOE_VSA_NEG>
127.37384

>  <PEOE_VSA_PNEG>
25.061081

>  <PEOE_VSA_POL>
48.707111

>  <PEOE_VSA_POS>
94.962891

>  <PEOE_VSA_PPOS>
23.64603

>  <petitjean>
0.40000001

>  <petitjeanSC>
0.66666669

>  <Q_PC+>
0

>  <Q_PC->
0

>  <Q_RPC+>
0

>  <Q_RPC->
0

>  <Q_VSA_FHYD>
1

>  <Q_VSA_FNEG>
0

>  <Q_VSA_FPNEG>
0

>  <Q_VSA_FPOL>
0

>  <Q_VSA_FPOS>
1

>  <Q_VSA_FPPOS>
0

>  <Q_VSA_HYD>
222.33673

>  <Q_VSA_NEG>
0

>  <Q_VSA_PNEG>
0

>  <Q_VSA_POL>
0

>  <Q_VSA_POS>
222.33673

>  <Q_VSA_PPOS>
0

>  <radius>
3

>  <reactive>
0

>  <rings>
0

>  <RPC+>
0

>  <RPC->
0

>  <rsynth>
1

>  <SlogP>
1.0907

>  <SlogP_VSA0>
47.818993

>  <SlogP_VSA1>
0

>  <SlogP_VSA2>
17.482744

>  <SlogP_VSA3>
0

>  <SlogP_VSA4>
0

>  <SlogP_VSA5>
70.767738

>  <SlogP_VSA6>
0

>  <SlogP_VSA7>
0

>  <SlogP_VSA8>
0

>  <SlogP_VSA9>
132.24541

>  <SMR>
4.7234802

>  <SMR_VSA0>
36.277027

>  <SMR_VSA1>
25.385227

>  <SMR_VSA2>
0

>  <SMR_VSA3>
3.6394844

>  <SMR_VSA4>
0

>  <SMR_VSA5>
0

>  <SMR_VSA6>
0

>  <SMR_VSA7>
203.01314

>  <TPSA>
55.759998

>  <VAdjEq>
0.61674827

>  <VAdjMa>
4.4594316

>  <VDistEq>
2.2351213

>  <VDistMa>
6.9030256

>  <vdw_area>
222.33673

>  <vdw_vol>
200.27383

>  <vsa_acc>
25.061081

>  <vsa_acid>
0

>  <vsa_base>
0

>  <vsa_don>
0

>  <vsa_hyd>
170.04173

>  <vsa_other>
13.666999

>  <vsa_pol>
38.628002

>  <Weight>
257.43698

>  <weinerPath>
185

>  <weinerPol>
18

>  <zagreb>
56

$$$$
O=C(O)COC1=C(Cl)C=C(Cl)C(Cl)=N1
  MOE2011           2D

 14 14  0  0  0  0  0  0  0  0999 V2000
    0.0000    0.0000    0.0000 O   0  0  0  0  0  0  0  0  0  0  0  0
    0.7530   -1.2970    0.0000 C   0  0  0  0  0  0  0  0  0  0  0  0
    0.0060   -2.5980    0.0000 O   0  0  0  0  0  0  0  0  0  0  0  0
    2.2530   -1.2940    0.0000 C   0  0  0  0  0  0  0  0  0  0  0  0
    3.0000    0.0070    0.0000 O   0  0  0  0  0  0  0  0  0  0  0  0
    4.5000    0.0100    0.0000 C   0  0  0  0  0  0  0  0  0  0  0  0
    5.2470    1.3110    0.0000 C   0  0  0  0  0  0  0  0  0  0  0  0
    4.4940    2.6080    0.0000 Cl  0  0  0  0  0  0  0  0  0  0  0  0
    6.7470    1.3140    0.0000 C   0  0  0  0  0  0  0  0  0  0  0  0
    7.5000    0.0170    0.0000 C   0  0  0  0  0  0  0  0  0  0  0  0
    9.0000    0.0200    0.0000 Cl  0  0  0  0  0  0  0  0  0  0  0  0
    6.7530   -1.2840    0.0000 C   0  0  0  0  0  0  0  0  0  0  0  0
    7.5060   -2.5810    0.0000 Cl  0  0  0  0  0  0  0  0  0  0  0  0
    5.2530   -1.2870    0.0000 N   0  0  0  0  0  0  0  0  0  0  0  0
  1  2  2  0  0  0  0
  2  3  1  0  0  0  0
  2  4  1  0  0  0  0
  4  5  1  0  0  0  0
  5  6  1  0  0  0  0
  6  7  1  0  0  0  0
  6 14  2  0  0  0  0
  7  8  1  0  0  0  0
  7  9  2  0  0  0  0
  9 10  1  0  0  0  0
 10 11  1  0  0  0  0
 10 12  2  0  0  0  0
 12 13  1  0  0  0  0
 12 14  1  0  0  0  0
M  END
>  <DSSTox_RID>
40623

>  <DSSTox_CID>
12497

>  <apol>
25.033173

>  <a_acc>
3

>  <a_acid>
0

>  <a_aro>
6

>  <a_base>
0

>  <a_count>
18

>  <a_don>
2

>  <a_heavy>
14

>  <a_hyd>
7

>  <a_IC>
37.897392

>  <a_ICM>
2.1054106

>  <a_nB>
0

>  <a_nBr>
0

>  <a_nC>
7

>  <a_nCl>
3

>  <a_nF>
0

>  <a_nH>
4

>  <a_nI>
0

>  <a_nN>
1

>  <a_nO>
3

>  <a_nP>
0

>  <a_nS>
0

>  <balabanJ>
2.3907599

>  <BCUT_PEOE_0>
-2.2175715

>  <BCUT_PEOE_1>
-0.59948361

>  <BCUT_PEOE_2>
0.56886983

>  <BCUT_PEOE_3>
2.3127794

>  <BCUT_SLOGP_0>
-2.4024098

>  <BCUT_SLOGP_1>
-0.41126975

>  <BCUT_SLOGP_2>
0.97301954

>  <BCUT_SLOGP_3>
2.3560996

>  <BCUT_SMR_0>
-1.9900179

>  <BCUT_SMR_1>
-0.25404382

>  <BCUT_SMR_2>
0.96731526

>  <BCUT_SMR_3>
2.5325615

>  <bpol>
9.826828

>  <b_1rotN>
3

>  <b_1rotR>
0.21428572

>  <b_ar>
6

>  <b_count>
18

>  <b_double>
1

>  <b_heavy>
14

>  <b_rotN>
3

>  <b_rotR>
0.21428572

>  <b_single>
11

>  <b_triple>
0

>  <chi0>
10.715178

>  <chi0v>
8.8970613

>  <chi0v_C>
3.784457

>  <chi0_C>
4.3009648

>  <chi1>
6.5029078

>  <chi1v>
4.4994874

>  <chi1v_C>
1.4309037

>  <chi1_C>
1.8914115

>  <chiral>
0

>  <chiral_u>
0

>  <density>
1.1287891

>  <diameter>
8

>  <FCharge>
0

>  <GCUT_PEOE_0>
-0.73133063

>  <GCUT_PEOE_1>
-0.4377026

>  <GCUT_PEOE_2>
0.047005285

>  <GCUT_PEOE_3>
1.9914901

>  <GCUT_SLOGP_0>
-0.94309527

>  <GCUT_SLOGP_1>
-0.34170008

>  <GCUT_SLOGP_2>
0.43363386

>  <GCUT_SLOGP_3>
2.1452932

>  <GCUT_SMR_0>
-0.46858397

>  <GCUT_SMR_1>
-0.14881025

>  <GCUT_SMR_2>
0.42944199

>  <GCUT_SMR_3>
2.280371

>  <Kier1>
12.071428

>  <Kier2>
5.1855955

>  <Kier3>
3.5918367

>  <KierA1>
12.75747

>  <KierA2>
5.5047407

>  <KierA3>
3.8258543

>  <KierFlex>
5.0161834

>  <lip_acc>
4

>  <lip_don>
1

>  <lip_druglike>
1

>  <lip_violation>
0

>  <logP(o/w)>
2.7539999

>  <logS>
-2.9983499

>  <mr>
5.3082609

>  <mutagenic>
0

>  <nmol>
1

>  <opr_brigid>
6

>  <opr_leadlike>
1

>  <opr_nring>
1

>  <opr_nrot>
3

>  <opr_violation>
0

>  <PC+>
0

>  <PC->
0

>  <PEOE_PC+>
1.1356895

>  <PEOE_PC->
-1.1356895

>  <PEOE_RPC+>
0.29205379

>  <PEOE_RPC->
0.26654953

>  <PEOE_VSA+0>
15.808495

>  <PEOE_VSA+1>
9.0394926

>  <PEOE_VSA+2>
0

>  <PEOE_VSA+3>
21.960289

>  <PEOE_VSA+4>
22.058474

>  <PEOE_VSA+5>
0

>  <PEOE_VSA+6>
14.708499

>  <PEOE_VSA-0>
0

>  <PEOE_VSA-1>
88.745842

>  <PEOE_VSA-2>
13.566921

>  <PEOE_VSA-3>
0

>  <PEOE_VSA-4>
5.6825762

>  <PEOE_VSA-5>
13.566921

>  <PEOE_VSA-6>
2.503756

>  <PEOE_VSA_FHYD>
0.71816671

>  <PEOE_VSA_FNEG>
0.59750175

>  <PEOE_VSA_FPNEG>
0.10476363

>  <PEOE_VSA_FPOL>
0.28183332

>  <PEOE_VSA_FPOS>
0.40249828

>  <PEOE_VSA_FPPOS>
0.17706969

>  <PEOE_VSA_HYD>
149.12103

>  <PEOE_VSA_NEG>
124.06602

>  <PEOE_VSA_PNEG>
21.753254

>  <PEOE_VSA_POL>
58.520226

>  <PEOE_VSA_POS>
83.575249

>  <PEOE_VSA_PPOS>
36.766975

>  <petitjean>
0.5

>  <petitjeanSC>
1

>  <Q_PC+>
0

>  <Q_PC->
0

>  <Q_RPC+>
0

>  <Q_RPC->
0

>  <Q_VSA_FHYD>
1

>  <Q_VSA_FNEG>
0

>  <Q_VSA_FPNEG>
0

>  <Q_VSA_FPOL>
0

>  <Q_VSA_FPOS>
1

>  <Q_VSA_FPPOS>
0

>  <Q_VSA_HYD>
207.64127

>  <Q_VSA_NEG>
0

>  <Q_VSA_PNEG>
0

>  <Q_VSA_POL>
0

>  <Q_VSA_POS>
207.64127

>  <Q_VSA_PPOS>
0

>  <radius>
4

>  <reactive>
0

>  <rings>
1

>  <RPC+>
0

>  <RPC->
0

>  <rsynth>
1

>  <SlogP>
2.5051999

>  <SlogP_VSA0>
10.999887

>  <SlogP_VSA1>
24.530994

>  <SlogP_VSA2>
23.862217

>  <SlogP_VSA3>
46.311485

>  <SlogP_VSA4>
0

>  <SlogP_VSA5>
0

>  <SlogP_VSA6>
10.072992

>  <SlogP_VSA7>
17.643185

>  <SlogP_VSA8>
0

>  <SlogP_VSA9>
122.26054

>  <SMR>
5.2397799

>  <SMR_VSA0>
23.862217

>  <SMR_VSA1>
27.785418

>  <SMR_VSA2>
25.385227

>  <SMR_VSA3>
14.887593

>  <SMR_VSA4>
0

>  <SMR_VSA5>
17.643185

>  <SMR_VSA6>
28.671722

>  <SMR_VSA7>
117.44593

>  <TPSA>
59.419998

>  <VAdjEq>
0.59167278

>  <VAdjMa>
4.8073549

>  <VDistEq>
2.8004246

>  <VDistMa>
7.2967215

>  <vdw_area>
207.64127

>  <vdw_vol>
223.63788

>  <vsa_acc>
5.6825762

>  <vsa_acid>
0

>  <vsa_base>
0

>  <vsa_don>
0

>  <vsa_hyd>
135.6523

>  <vsa_other>
39.172543

>  <vsa_pol>
32.816418

>  <Weight>
256.47198

>  <weinerPath>
318

>  <weinerPol>
18

>  <zagreb>
66

$$$$
Clc2cc(Cl)ccc2Oc1ccc(Cl)cc1O
  MOE2011           2D

 17 18  0  0  0  0  0  0  0  0999 V2000
    0.0000    0.0000    0.0000 Cl  0  0  0  0  0  0  0  0  0  0  0  0
    0.0000   -1.5000    0.0000 C   0  0  0  0  0  0  0  0  0  0  0  0
    1.2990   -2.2500    0.0000 C   0  0  0  0  0  0  0  0  0  0  0  0
    1.2990   -3.7500    0.0000 C   0  0  0  0  0  0  0  0  0  0  0  0
    2.5980   -4.5000    0.0000 Cl  0  0  0  0  0  0  0  0  0  0  0  0
    0.0000   -4.5000    0.0000 C   0  0  0  0  0  0  0  0  0  0  0  0
   -1.2990   -3.7500    0.0000 C   0  0  0  0  0  0  0  0  0  0  0  0
   -1.2990   -2.2500    0.0000 C   0  0  0  0  0  0  0  0  0  0  0  0
   -2.5980   -1.5000    0.0000 O   0  0  0  0  0  0  0  0  0  0  0  0
   -3.8970   -2.2500    0.0000 C   0  0  0  0  0  0  0  0  0  0  0  0
   -3.8970   -3.7500    0.0000 C   0  0  0  0  0  0  0  0  0  0  0  0
   -5.1960   -4.5000    0.0000 C   0  0  0  0  0  0  0  0  0  0  0  0
   -6.4950   -3.7500    0.0000 C   0  0  0  0  0  0  0  0  0  0  0  0
   -7.7940   -4.5000    0.0000 Cl  0  0  0  0  0  0  0  0  0  0  0  0
   -6.4950   -2.2500    0.0000 C   0  0  0  0  0  0  0  0  0  0  0  0
   -5.1960   -1.5000    0.0000 C   0  0  0  0  0  0  0  0  0  0  0  0
   -5.1960    0.0000    0.0000 O   0  0  0  0  0  0  0  0  0  0  0  0
  1  2  1  0  0  0  0
  2  3  1  0  0  0  0
  2  8  2  0  0  0  0
  3  4  2  0  0  0  0
  4  5  1  0  0  0  0
  4  6  1  0  0  0  0
  6  7  2  0  0  0  0
  7  8  1  0  0  0  0
  8  9  1  0  0  0  0
  9 10  1  0  0  0  0
 10 11  1  0  0  0  0
 10 16  2  0  0  0  0
 11 12  2  0  0  0  0
 12 13  1  0  0  0  0
 13 14  1  0  0  0  0
 13 15  2  0  0  0  0
 15 16  1  0  0  0  0
 16 17  1  0  0  0  0
M  END
>  <DSSTox_RID>
40328

>  <DSSTox_CID>
12498

>  <apol>
33.931553

>  <a_acc>
1

>  <a_acid>
0

>  <a_aro>
12

>  <a_base>
0

>  <a_count>
24

>  <a_don>
1

>  <a_heavy>
17

>  <a_hyd>
15

>  <a_IC>
40.613178

>  <a_ICM>
1.6922158

>  <a_nB>
0

>  <a_nBr>
0

>  <a_nC>
12

>  <a_nCl>
3

>  <a_nF>
0

>  <a_nH>
7

>  <a_nI>
0

>  <a_nN>
0

>  <a_nO>
2

>  <a_nP>
0

>  <a_nS>
0

>  <balabanJ>
1.8502251

>  <BCUT_PEOE_0>
-2.2098379

>  <BCUT_PEOE_1>
-0.69975466

>  <BCUT_PEOE_2>
0.70483375

>  <BCUT_PEOE_3>
2.2022376

>  <BCUT_SLOGP_0>
-2.0018198

>  <BCUT_SLOGP_1>
-0.49563381

>  <BCUT_SLOGP_2>
0.93998516

>  <BCUT_SLOGP_3>
2.4648471

>  <BCUT_SMR_0>
-1.889199

>  <BCUT_SMR_1>
-0.44292352

>  <BCUT_SMR_2>
0.99253076

>  <BCUT_SMR_3>
2.5239081

>  <bpol>
10.828449

>  <b_1rotN>
2

>  <b_1rotR>
0.11111111

>  <b_ar>
12

>  <b_count>
25

>  <b_double>
0

>  <b_heavy>
18

>  <b_rotN>
2

>  <b_rotR>
0.11111111

>  <b_single>
13

>  <b_triple>
0

>  <chi0>
12.413849

>  <chi0v>
10.721244

>  <chi0v_C>
6.4641018

>  <chi0_C>
7.7067423

>  <chi1>
8.0585508

>  <chi1v>
5.808763

>  <chi1v_C>
3.4760678

>  <chi1_C>
4.932653

>  <chiral>
0

>  <chiral_u>
0

>  <density>
0.97815567

>  <diameter>
10

>  <FCharge>
0

>  <GCUT_PEOE_0>
-0.75286448

>  <GCUT_PEOE_1>
-0.42378467

>  <GCUT_PEOE_2>
0.054629561

>  <GCUT_PEOE_3>
2.1736965

>  <GCUT_SLOGP_0>
-0.76196837

>  <GCUT_SLOGP_1>
-0.21868385

>  <GCUT_SLOGP_2>
0.41021547

>  <GCUT_SLOGP_3>
2.4290736

>  <GCUT_SMR_0>
-0.42773768

>  <GCUT_SMR_1>
-0.17344132

>  <GCUT_SMR_2>
0.41602409

>  <GCUT_SMR_3>
2.4891346

>  <Kier1>
13.432098

>  <Kier2>
5.7600002

>  <Kier3>
3.4844444

>  <KierA1>
12.962727

>  <KierA2>
5.5457377

>  <KierA3>
3.3486061

>  <KierFlex>
4.2286992

>  <lip_acc>
2

>  <lip_don>
1

>  <lip_druglike>
1

>  <lip_violation>
1

>  <logP(o/w)>
5.0539999

>  <logS>
-5.0085101

>  <mr>
6.9493947

>  <mutagenic>
0

>  <nmol>
1

>  <opr_brigid>
12

>  <opr_leadlike>
1

>  <opr_nring>
2

>  <opr_nrot>
2

>  <opr_violation>
1

>  <PC+>
0

>  <PC->
0

>  <PEOE_PC+>
0.73624128

>  <PEOE_PC->
-0.73624128

>  <PEOE_RPC+>
0.20954674

>  <PEOE_RPC->
0.41271439

>  <PEOE_VSA+0>
94.850967

>  <PEOE_VSA+1>
13.559239

>  <PEOE_VSA+2>
16.917038

>  <PEOE_VSA+3>
8.458519

>  <PEOE_VSA+4>
0

>  <PEOE_VSA+5>
0

>  <PEOE_VSA+6>
0

>  <PEOE_VSA-0>
0

>  <PEOE_VSA-1>
88.745842

>  <PEOE_VSA-2>
0

>  <PEOE_VSA-3>
13.566921

>  <PEOE_VSA-4>
0

>  <PEOE_VSA-5>
0

>  <PEOE_VSA-6>
2.503756

>  <PEOE_VSA_FHYD>
0.98950654

>  <PEOE_VSA_FNEG>
0.43929386

>  <PEOE_VSA_FPNEG>
0.010493429

>  <PEOE_VSA_FPOL>
0.010493429

>  <PEOE_VSA_FPOS>
0.56070614

>  <PEOE_VSA_FPPOS>
0

>  <PEOE_VSA_HYD>
236.09853

>  <PEOE_VSA_NEG>
104.81652

>  <PEOE_VSA_PNEG>
2.503756

>  <PEOE_VSA_POL>
2.503756

>  <PEOE_VSA_POS>
133.78577

>  <PEOE_VSA_PPOS>
0

>  <petitjean>
0.5

>  <petitjeanSC>
1

>  <Q_PC+>
0

>  <Q_PC->
0

>  <Q_RPC+>
0

>  <Q_RPC->
0

>  <Q_VSA_FHYD>
1

>  <Q_VSA_FNEG>
0

>  <Q_VSA_FPNEG>
0

>  <Q_VSA_FPOL>
0

>  <Q_VSA_FPOS>
1

>  <Q_VSA_FPPOS>
0

>  <Q_VSA_HYD>
238.60228

>  <Q_VSA_NEG>
0

>  <Q_VSA_PNEG>
0

>  <Q_VSA_POL>
0

>  <Q_VSA_POS>
238.60228

>  <Q_VSA_PPOS>
0

>  <radius>
5

>  <reactive>
0

>  <rings>
2

>  <RPC+>
0

>  <RPC->
0

>  <rsynth>
1

>  <SlogP>
5.1447001

>  <SlogP_VSA0>
36.385113

>  <SlogP_VSA1>
0

>  <SlogP_VSA2>
0

>  <SlogP_VSA3>
0

>  <SlogP_VSA4>
0

>  <SlogP_VSA5>
0

>  <SlogP_VSA6>
10.50182

>  <SlogP_VSA7>
105.85911

>  <SlogP_VSA8>
0

>  <SlogP_VSA9>
133.17622

>  <SMR>
6.9652801

>  <SMR_VSA0>
0

>  <SMR_VSA1>
36.385113

>  <SMR_VSA2>
0

>  <SMR_VSA3>
26.232103

>  <SMR_VSA4>
0

>  <SMR_VSA5>
105.85911

>  <SMR_VSA6>
0

>  <SMR_VSA7>
117.44593

>  <TPSA>
29.459999

>  <VAdjEq>
0.54234898

>  <VAdjMa>
5.1699252

>  <VDistEq>
3.0159414

>  <VDistMa>
7.8621507

>  <vdw_area>
238.60228

>  <vdw_vol>
288.79758

>  <vsa_acc>
0

>  <vsa_acid>
0

>  <vsa_base>
0

>  <vsa_don>
0

>  <vsa_hyd>
222.5316

>  <vsa_other>
2.503756

>  <vsa_pol>
13.566921

>  <Weight>
289.54498

>  <weinerPath>
536

>  <weinerPol>
24

>  <zagreb>
86

$$$$
O=C(/C(C1=C(CO\N=C(C2=CC(C(F)(F)F)=CC=C2)/C)C=CC=C1)=N/OC)OC
  MOE2011           2D

 29 30  0  0  0  0  0  0  0  0999 V2000
    0.0000    0.0000    0.0000 O   0  0  0  0  0  0  0  0  0  0  0  0
    1.2950    0.7560    0.0000 C   0  0  0  0  0  0  0  0  0  0  0  0
    2.5980    0.0120    0.0000 C   0  0  0  0  0  0  0  0  0  0  0  0
    2.6050   -1.4880    0.0000 C   0  0  0  0  0  0  0  0  0  0  0  0
    1.3100   -2.2440    0.0000 C   0  0  0  0  0  0  0  0  0  0  0  0
    0.0070   -1.5000    0.0000 C   0  0  0  0  0  0  0  0  0  0  0  0
   -1.2880   -2.2560    0.0000 O   0  0  0  0  0  0  0  0  0  0  0  0
   -2.5910   -1.5120    0.0000 N   0  0  0  0  0  0  0  0  0  0  0  0
   -3.8860   -2.2690    0.0000 C   0  0  0  0  0  0  0  0  0  0  0  0
   -5.1890   -1.5250    0.0000 C   0  0  0  0  0  0  0  0  0  0  0  0
   -6.4840   -2.2810    0.0000 C   0  0  0  0  0  0  0  0  0  0  0  0
   -7.7870   -1.5370    0.0000 C   0  0  0  0  0  0  0  0  0  0  0  0
   -9.0820   -2.2940    0.0000 C   0  0  0  0  0  0  0  0  0  0  0  0
  -10.3780   -3.0500    0.0000 F   0  0  0  0  0  0  0  0  0  0  0  0
   -8.3260   -3.5890    0.0000 F   0  0  0  0  0  0  0  0  0  0  0  0
   -9.8390   -0.9980    0.0000 F   0  0  0  0  0  0  0  0  0  0  0  0
   -7.7940   -0.0370    0.0000 C   0  0  0  0  0  0  0  0  0  0  0  0
   -6.4990    0.7190    0.0000 C   0  0  0  0  0  0  0  0  0  0  0  0
   -5.1960   -0.0250    0.0000 C   0  0  0  0  0  0  0  0  0  0  0  0
   -3.8790   -3.7690    0.0000 C   0  0  0  0  0  0  0  0  0  0  0  0
    1.3170   -3.7440    0.0000 C   0  0  0  0  0  0  0  0  0  0  0  0
    2.6200   -4.4870    0.0000 C   0  0  0  0  0  0  0  0  0  0  0  0
    3.9150   -3.7310    0.0000 C   0  0  0  0  0  0  0  0  0  0  0  0
    3.9080   -2.2310    0.0000 C   0  0  0  0  0  0  0  0  0  0  0  0
    3.8930    0.7690    0.0000 N   0  0  0  0  0  0  0  0  0  0  0  0
    5.1960    0.0250    0.0000 O   0  0  0  0  0  0  0  0  0  0  0  0
    6.4920    0.7810    0.0000 C   0  0  0  0  0  0  0  0  0  0  0  0
    1.2880    2.2560    0.0000 O   0  0  0  0  0  0  0  0  0  0  0  0
   -0.0140    3.0000    0.0000 C   0  0  0  0  0  0  0  0  0  0  0  0
  1  2  2  0  0  0  0
  2  3  1  0  0  0  0
  2 28  1  0  0  0  0
  3  4  1  0  0  0  0
  3 25  2  0  0  0  0
  4  5  1  0  0  0  0
  4 24  2  0  0  0  0
  5  6  1  0  0  0  0
  5 21  2  0  0  0  0
  6  7  1  0  0  0  0
  7  8  1  0  0  0  0
  8  9  2  0  0  0  0
  9 10  1  0  0  0  0
  9 20  1  0  0  0  0
 10 11  1  0  0  0  0
 10 19  2  0  0  0  0
 11 12  2  0  0  0  0
 12 13  1  0  0  0  0
 12 17  1  0  0  0  0
 13 14  1  0  0  0  0
 13 15  1  0  0  0  0
 13 16  1  0  0  0  0
 17 18  2  0  0  0  0
 18 19  1  0  0  0  0
 21 22  1  0  0  0  0
 22 23  2  0  0  0  0
 23 24  1  0  0  0  0
 25 26  1  0  0  0  0
 26 27  1  0  0  0  0
 28 29  1  0  0  0  0
M  END
>  <DSSTox_RID>
40624

>  <DSSTox_CID>
12580

>  <apol>
54.948067

>  <a_acc>
3

>  <a_acid>
0

>  <a_aro>
12

>  <a_base>
0

>  <a_count>
48

>  <a_don>
0

>  <a_heavy>
29

>  <a_hyd>
20

>  <a_IC>
86.174126

>  <a_ICM>
1.7952943

>  <a_nB>
0

>  <a_nBr>
0

>  <a_nC>
20

>  <a_nCl>
0

>  <a_nF>
3

>  <a_nH>
19

>  <a_nI>
0

>  <a_nN>
2

>  <a_nO>
4

>  <a_nP>
0

>  <a_nS>
0

>  <balabanJ>
1.8534211

>  <BCUT_PEOE_0>
-2.3272099

>  <BCUT_PEOE_1>
-0.51881689

>  <BCUT_PEOE_2>
0.54467148

>  <BCUT_PEOE_3>
2.3712873

>  <BCUT_SLOGP_0>
-2.3271976

>  <BCUT_SLOGP_1>
-0.43835169

>  <BCUT_SLOGP_2>
0.63306981

>  <BCUT_SLOGP_3>
2.470819

>  <BCUT_SMR_0>
-2.0531182

>  <BCUT_SMR_1>
-0.34419513

>  <BCUT_SMR_2>
0.72599673

>  <BCUT_SMR_3>
2.6352272

>  <bpol>
31.085934

>  <b_1rotN>
7

>  <b_1rotR>
0.23333333

>  <b_ar>
12

>  <b_count>
49

>  <b_double>
3

>  <b_heavy>
30

>  <b_rotN>
9

>  <b_rotR>
0.30000001

>  <b_single>
34

>  <b_triple>
0

>  <chi0>
21.440947

>  <chi0v>
15.987223

>  <chi0v_C>
12.325909

>  <chi0_C>
13.905413

>  <chi1>
13.773405

>  <chi1v>
8.3949995

>  <chi1v_C>
5.5022707

>  <chi1_C>
7.557097

>  <chiral>
0

>  <chiral_u>
0

>  <density>
0.87971282

>  <diameter>
14

>  <FCharge>
0

>  <GCUT_PEOE_0>
-0.76499099

>  <GCUT_PEOE_1>
-0.38505274

>  <GCUT_PEOE_2>
-0.0086690458

>  <GCUT_PEOE_3>
2.4781375

>  <GCUT_SLOGP_0>
-0.90369266

>  <GCUT_SLOGP_1>
-0.29094371

>  <GCUT_SLOGP_2>
0.1683187

>  <GCUT_SLOGP_3>
2.5683696

>  <GCUT_SMR_0>
-0.49150804

>  <GCUT_SMR_1>
-0.17218859

>  <GCUT_SMR_2>
0.14760262

>  <GCUT_SMR_3>
2.7570572

>  <Kier1>
25.262222

>  <Kier2>
12.142772

>  <Kier3>
7.5711999

>  <KierA1>
18.844316

>  <KierA2>
8.956171

>  <KierA3>
5.5379186

>  <KierFlex>
5.819756

>  <lip_acc>
6

>  <lip_don>
0

>  <lip_druglike>
1

>  <lip_violation>
0

>  <logP(o/w)>
5.3907599

>  <logS>
-5.6897802

>  <mr>
10.288241

>  <mutagenic>
0

>  <nmol>
1

>  <opr_brigid>
14

>  <opr_leadlike>
1

>  <opr_nring>
2

>  <opr_nrot>
7

>  <opr_violation>
1

>  <PC+>
0

>  <PC->
0

>  <PEOE_PC+>
1.7772582

>  <PEOE_PC->
-1.7772582

>  <PEOE_RPC+>
0.23551923

>  <PEOE_RPC->
0.16549434

>  <PEOE_VSA+0>
85.668091

>  <PEOE_VSA+1>
38.31654

>  <PEOE_VSA+2>
0

>  <PEOE_VSA+3>
42.357979

>  <PEOE_VSA+4>
57.716904

>  <PEOE_VSA+5>
0

>  <PEOE_VSA+6>
23.754002

>  <PEOE_VSA-0>
47.425484

>  <PEOE_VSA-1>
0

>  <PEOE_VSA-2>
21.770523

>  <PEOE_VSA-3>
35.725906

>  <PEOE_VSA-4>
11.804719

>  <PEOE_VSA-5>
16.070677

>  <PEOE_VSA-6>
0

>  <PEOE_VSA_FHYD>
0.71270835

>  <PEOE_VSA_FNEG>
0.34890577

>  <PEOE_VSA_FPNEG>
0.073238574

>  <PEOE_VSA_FPOL>
0.28729162

>  <PEOE_VSA_FPOS>
0.65109426

>  <PEOE_VSA_FPPOS>
0.21405303

>  <PEOE_VSA_HYD>
271.26453

>  <PEOE_VSA_NEG>
132.79732

>  <PEOE_VSA_PNEG>
27.875395

>  <PEOE_VSA_POL>
109.3463

>  <PEOE_VSA_POS>
247.81352

>  <PEOE_VSA_PPOS>
81.470901

>  <petitjean>
0.5

>  <petitjeanSC>
1

>  <Q_PC+>
0

>  <Q_PC->
0

>  <Q_RPC+>
0

>  <Q_RPC->
0

>  <Q_VSA_FHYD>
1

>  <Q_VSA_FNEG>
0

>  <Q_VSA_FPNEG>
0

>  <Q_VSA_FPOL>
0

>  <Q_VSA_FPOS>
1

>  <Q_VSA_FPPOS>
0

>  <Q_VSA_HYD>
380.61084

>  <Q_VSA_NEG>
0

>  <Q_VSA_PNEG>
0

>  <Q_VSA_POL>
0

>  <Q_VSA_POS>
380.61084

>  <Q_VSA_PPOS>
0

>  <radius>
7

>  <reactive>
0

>  <rings>
2

>  <RPC+>
0

>  <RPC->
0

>  <rsynth>
1

>  <SlogP>
4.7476001

>  <SlogP_VSA0>
0

>  <SlogP_VSA1>
13.258959

>  <SlogP_VSA2>
57.299633

>  <SlogP_VSA3>
0

>  <SlogP_VSA4>
12.7423

>  <SlogP_VSA5>
109.56746

>  <SlogP_VSA6>
7.7595162

>  <SlogP_VSA7>
141.14548

>  <SlogP_VSA8>
0

>  <SlogP_VSA9>
99.132614

>  <SMR>
10.077

>  <SMR_VSA0>
57.299633

>  <SMR_VSA1>
83.680061

>  <SMR_VSA2>
7.7595162

>  <SMR_VSA3>
12.7423

>  <SMR_VSA4>
0

>  <SMR_VSA5>
162.07173

>  <SMR_VSA6>
13.258959

>  <SMR_VSA7>
104.09375

>  <TPSA>
69.480003

>  <VAdjEq>
0.37091795

>  <VAdjMa>
5.9068904

>  <VDistEq>
3.6889398

>  <VDistMa>
9.414608

>  <vdw_area>
380.61084

>  <vdw_vol>
442.4444

>  <vsa_acc>
35.337444

>  <vsa_acid>
0

>  <vsa_base>
0

>  <vsa_don>
0

>  <vsa_hyd>
302.8573

>  <vsa_other>
42.416077

>  <vsa_pol>
35.337444

>  <Weight>
408.37598

>  <weinerPath>
2512

>  <weinerPol>
44

>  <zagreb>
142

$$$$
ClC2=CC(C(F)(F)F)=C(C=C2)/N=C(COCCC)/N1C=NC=C1
  MOE2011           2D

 23 24  0  0  0  0  0  0  0  0999 V2000
    0.0000    0.0000    0.0000 Cl  0  0  0  0  0  0  0  0  0  0  0  0
    0.7470    1.3010    0.0000 C   0  0  0  0  0  0  0  0  0  0  0  0
   -0.0060    2.5980    0.0000 C   0  0  0  0  0  0  0  0  0  0  0  0
    0.7410    3.8990    0.0000 C   0  0  0  0  0  0  0  0  0  0  0  0
   -0.0120    5.1960    0.0000 C   0  0  0  0  0  0  0  0  0  0  0  0
    1.2850    5.9490    0.0000 F   0  0  0  0  0  0  0  0  0  0  0  0
   -0.7650    6.4930    0.0000 F   0  0  0  0  0  0  0  0  0  0  0  0
   -1.3100    4.4430    0.0000 F   0  0  0  0  0  0  0  0  0  0  0  0
    2.2410    3.9020    0.0000 C   0  0  0  0  0  0  0  0  0  0  0  0
    2.9940    2.6050    0.0000 C   0  0  0  0  0  0  0  0  0  0  0  0
    2.2470    1.3040    0.0000 C   0  0  0  0  0  0  0  0  0  0  0  0
    2.9880    5.2030    0.0000 N   0  0  0  0  0  0  0  0  0  0  0  0
    4.4880    5.2070    0.0000 C   0  0  0  0  0  0  0  0  0  0  0  0
    5.2410    3.9100    0.0000 C   0  0  0  0  0  0  0  0  0  0  0  0
    6.7410    3.9130    0.0000 O   0  0  0  0  0  0  0  0  0  0  0  0
    7.4940    2.6160    0.0000 C   0  0  0  0  0  0  0  0  0  0  0  0
    8.9940    2.6190    0.0000 C   0  0  0  0  0  0  0  0  0  0  0  0
    9.7470    1.3220    0.0000 C   0  0  0  0  0  0  0  0  0  0  0  0
    5.2350    6.5080    0.0000 N   0  0  0  0  0  0  0  0  0  0  0  0
    4.6210    7.8760    0.0000 C   0  0  0  0  0  0  0  0  0  0  0  0
    5.7340    8.8830    0.0000 N   0  0  0  0  0  0  0  0  0  0  0  0
    7.0340    8.1360    0.0000 C   0  0  0  0  0  0  0  0  0  0  0  0
    6.7260    6.6680    0.0000 C   0  0  0  0  0  0  0  0  0  0  0  0
  1  2  1  0  0  0  0
  2  3  1  0  0  0  0
  2 11  2  0  0  0  0
  3  4  2  0  0  0  0
  4  5  1  0  0  0  0
  4  9  1  0  0  0  0
  5  6  1  0  0  0  0
  5  7  1  0  0  0  0
  5  8  1  0  0  0  0
  9 10  2  0  0  0  0
  9 12  1  0  0  0  0
 10 11  1  0  0  0  0
 12 13  2  0  0  0  0
 13 14  1  0  0  0  0
 13 19  1  0  0  0  0
 14 15  1  0  0  0  0
 15 16  1  0  0  0  0
 16 17  1  0  0  0  0
 17 18  1  0  0  0  0
 19 20  1  0  0  0  0
 19 23  1  0  0  0  0
 20 21  2  0  0  0  0
 21 22  1  0  0  0  0
 22 23  2  0  0  0  0
M  END
>  <DSSTox_RID>
40625

>  <DSSTox_CID>
12500

>  <apol>
44.354897

>  <a_acc>
3

>  <a_acid>
0

>  <a_aro>
11

>  <a_base>
0

>  <a_count>
38

>  <a_don>
0

>  <a_heavy>
23

>  <a_hyd>
17

>  <a_IC>
72.70475

>  <a_ICM>
1.913283

>  <a_nB>
0

>  <a_nBr>
0

>  <a_nC>
15

>  <a_nCl>
1

>  <a_nF>
3

>  <a_nH>
15

>  <a_nI>
0

>  <a_nN>
3

>  <a_nO>
1

>  <a_nP>
0

>  <a_nS>
0

>  <balabanJ>
2.0036032

>  <BCUT_PEOE_0>
-2.5258725

>  <BCUT_PEOE_1>
-0.5302186

>  <BCUT_PEOE_2>
0.54121631

>  <BCUT_PEOE_3>
2.4860785

>  <BCUT_SLOGP_0>
-2.5273137

>  <BCUT_SLOGP_1>
-0.34448335

>  <BCUT_SLOGP_2>
0.68696225

>  <BCUT_SLOGP_3>
2.5457668

>  <BCUT_SMR_0>
-2.2852015

>  <BCUT_SMR_1>
-0.25301

>  <BCUT_SMR_2>
0.78716797

>  <BCUT_SMR_3>
2.7262673

>  <bpol>
26.963104

>  <b_1rotN>
6

>  <b_1rotR>
0.25

>  <b_ar>
11

>  <b_count>
39

>  <b_double>
1

>  <b_heavy>
24

>  <b_rotN>
7

>  <b_rotR>
0.29166666

>  <b_single>
27

>  <b_triple>
0

>  <chi0>
16.872032

>  <chi0v>
13.103098

>  <chi0v_C>
9.0854216

>  <chi0_C>
10.173362

>  <chi1>
10.914034

>  <chi1v>
7.2968869

>  <chi1v_C>
3.8820274

>  <chi1_C>
4.8703566

>  <chiral>
0

>  <chiral_u>
0

>  <density>
0.92478585

>  <diameter>
11

>  <FCharge>
0

>  <GCUT_PEOE_0>
-0.81552267

>  <GCUT_PEOE_1>
-0.35895023

>  <GCUT_PEOE_2>
0.0045234864

>  <GCUT_PEOE_3>
2.4340284

>  <GCUT_SLOGP_0>
-0.92959768

>  <GCUT_SLOGP_1>
-0.25588506

>  <GCUT_SLOGP_2>
0.26019999

>  <GCUT_SLOGP_3>
2.5355604

>  <GCUT_SMR_0>
-0.52418184

>  <GCUT_SMR_1>
-0.12800622

>  <GCUT_SMR_2>
0.22541241

>  <GCUT_SMR_3>
2.7032449

>  <Kier1>
19.326389

>  <Kier2>
8.909091

>  <Kier3>
5.7856674

>  <KierA1>
15.617388

>  <KierA2>
7.1249714

>  <KierA3>
4.5907354

>  <KierFlex>
4.8379755

>  <lip_acc>
4

>  <lip_don>
0

>  <lip_druglike>
1

>  <lip_violation>
0

>  <logP(o/w)>
4.0227599

>  <logS>
-4.6515098

>  <mr>
8.397027

>  <mutagenic>
0

>  <nmol>
1

>  <opr_brigid>
12

>  <opr_leadlike>
1

>  <opr_nring>
2

>  <opr_nrot>
6

>  <opr_violation>
1

>  <PC+>
0

>  <PC->
0

>  <PEOE_PC+>
1.6495893

>  <PEOE_PC->
-1.6495893

>  <PEOE_RPC+>
0.25460765

>  <PEOE_RPC->
0.20960267

>  <PEOE_VSA+0>
92.642426

>  <PEOE_VSA+1>
13.427837

>  <PEOE_VSA+2>
62.657486

>  <PEOE_VSA+3>
35.981079

>  <PEOE_VSA+4>
22.058474

>  <PEOE_VSA+5>
0

>  <PEOE_VSA+6>
9.0455017

>  <PEOE_VSA-0>
0

>  <PEOE_VSA-1>
29.581947

>  <PEOE_VSA-2>
0

>  <PEOE_VSA-3>
35.725906

>  <PEOE_VSA-4>
11.365152

>  <PEOE_VSA-5>
0

>  <PEOE_VSA-6>
2.503756

>  <PEOE_VSA_FHYD>
0.85722423

>  <PEOE_VSA_FNEG>
0.25136313

>  <PEOE_VSA_FPNEG>
0.044029739

>  <PEOE_VSA_FPOL>
0.14277579

>  <PEOE_VSA_FPOS>
0.7486369

>  <PEOE_VSA_FPPOS>
0.098746054

>  <PEOE_VSA_HYD>
270.01669

>  <PEOE_VSA_NEG>
79.176765

>  <PEOE_VSA_PNEG>
13.868908

>  <PEOE_VSA_POL>
44.972885

>  <PEOE_VSA_POS>
235.81281

>  <PEOE_VSA_PPOS>
31.103977

>  <petitjean>
0.45454547

>  <petitjeanSC>
0.83333331

>  <Q_PC+>
0

>  <Q_PC->
0

>  <Q_RPC+>
0

>  <Q_RPC->
0

>  <Q_VSA_FHYD>
1

>  <Q_VSA_FNEG>
0

>  <Q_VSA_FPNEG>
0

>  <Q_VSA_FPOL>
0

>  <Q_VSA_FPOS>
1

>  <Q_VSA_FPPOS>
0

>  <Q_VSA_HYD>
314.98956

>  <Q_VSA_NEG>
0

>  <Q_VSA_PNEG>
0

>  <Q_VSA_POL>
0

>  <Q_VSA_POS>
314.98956

>  <Q_VSA_PPOS>
0

>  <radius>
6

>  <reactive>
0

>  <rings>
2

>  <RPC+>
0

>  <RPC->
0

>  <rsynth>
1

>  <SlogP>
4.8716998

>  <SlogP_VSA0>
0

>  <SlogP_VSA1>
21.012543

>  <SlogP_VSA2>
10.999887

>  <SlogP_VSA3>
41.852516

>  <SlogP_VSA4>
3.185575

>  <SlogP_VSA5>
16.78553

>  <SlogP_VSA6>
11.260122

>  <SlogP_VSA7>
104.1438

>  <SlogP_VSA8>
18.868406

>  <SlogP_VSA9>
120.11175

>  <SMR>
8.2400999

>  <SMR_VSA0>
10.999887

>  <SMR_VSA1>
80.350494

>  <SMR_VSA2>
7.7595162

>  <SMR_VSA3>
6.6861815

>  <SMR_VSA4>
2.7567475

>  <SMR_VSA5>
123.0122

>  <SMR_VSA6>
44.180439

>  <SMR_VSA7>
72.474655

>  <TPSA>
39.41

>  <VAdjEq>
0.43892586

>  <VAdjMa>
5.5849624

>  <VDistEq>
3.2132804

>  <VDistMa>
8.7816229

>  <vdw_area>
314.98956

>  <vdw_vol>
357.52277

>  <vsa_acc>
13.868908

>  <vsa_acid>
0

>  <vsa_base>
0

>  <vsa_don>
0

>  <vsa_hyd>
265.13959

>  <vsa_other>
35.981079

>  <vsa_pol>
13.868908

>  <Weight>
345.75198

>  <weinerPath>
1203

>  <weinerPol>
31

>  <zagreb>
114

$$$$
O=[N+](C1=C(C(=CC(=C1)C(F)(F)F)[N+](=O)[O-])N(CCC)CCC)[O-]
  MOE2011           2D

 23 23  0  0  0  0  0  0  0  0999 V2000
    0.0000    0.0000    0.0000 O   0  0  0  0  0  0  0  0  0  0  0  0
   -0.7500   -1.2990    0.0000 N   0  3  0  0  0  0  0  0  0  0  0  0
    0.0000   -2.5980    0.0000 C   0  0  0  0  0  0  0  0  0  0  0  0
   -0.7500   -3.8970    0.0000 C   0  0  0  0  0  0  0  0  0  0  0  0
    0.0000   -5.1960    0.0000 C   0  0  0  0  0  0  0  0  0  0  0  0
    1.5000   -5.1960    0.0000 C   0  0  0  0  0  0  0  0  0  0  0  0
    2.2500   -3.8970    0.0000 C   0  0  0  0  0  0  0  0  0  0  0  0
    1.5000   -2.5980    0.0000 C   0  0  0  0  0  0  0  0  0  0  0  0
    3.7500   -3.8970    0.0000 C   0  0  0  0  0  0  0  0  0  0  0  0
    5.2500   -3.8970    0.0000 F   0  0  0  0  0  0  0  0  0  0  0  0
    3.7500   -2.3970    0.0000 F   0  0  0  0  0  0  0  0  0  0  0  0
    3.7500   -5.3970    0.0000 F   0  0  0  0  0  0  0  0  0  0  0  0
   -0.7500   -6.4950    0.0000 N   0  3  0  0  0  0  0  0  0  0  0  0
    0.0000   -7.7940    0.0000 O   0  0  0  0  0  0  0  0  0  0  0  0
   -2.2500   -6.4950    0.0000 O   0  5  0  0  0  0  0  0  0  0  0  0
   -2.2500   -3.8970    0.0000 N   0  0  0  0  0  0  0  0  0  0  0  0
   -3.0000   -2.5980    0.0000 C   0  0  0  0  0  0  0  0  0  0  0  0
   -4.5000   -2.5980    0.0000 C   0  0  0  0  0  0  0  0  0  0  0  0
   -5.2500   -1.2990    0.0000 C   0  0  0  0  0  0  0  0  0  0  0  0
   -3.0000   -5.1960    0.0000 C   0  0  0  0  0  0  0  0  0  0  0  0
   -4.5000   -5.1960    0.0000 C   0  0  0  0  0  0  0  0  0  0  0  0
   -5.2500   -6.4950    0.0000 C   0  0  0  0  0  0  0  0  0  0  0  0
   -2.2500   -1.2990    0.0000 O   0  5  0  0  0  0  0  0  0  0  0  0
  1  2  2  0  0  0  0
  2  3  1  0  0  0  0
  2 23  1  0  0  0  0
  3  4  1  0  0  0  0
  3  8  2  0  0  0  0
  4  5  2  0  0  0  0
  4 16  1  0  0  0  0
  5  6  1  0  0  0  0
  5 13  1  0  0  0  0
  6  7  2  0  0  0  0
  7  8  1  0  0  0  0
  7  9  1  0  0  0  0
  9 10  1  0  0  0  0
  9 11  1  0  0  0  0
  9 12  1  0  0  0  0
 13 14  2  0  0  0  0
 13 15  1  0  0  0  0
 16 17  1  0  0  0  0
 16 20  1  0  0  0  0
 17 18  1  0  0  0  0
 18 19  1  0  0  0  0
 20 21  1  0  0  0  0
 21 22  1  0  0  0  0
M  CHG  1   2   1
M  CHG  1  13   1
M  CHG  1  15  -1
M  CHG  1  23  -1
M  END
>  <DSSTox_RID>
40626

>  <DSSTox_CID>
1395

>  <apol>
41.727688

>  <a_acc>
0

>  <a_acid>
0

>  <a_aro>
6

>  <a_base>
0

>  <a_count>
39

>  <a_don>
0

>  <a_heavy>
23

>  <a_hyd>
18

>  <a_IC>
76.515198

>  <a_ICM>
1.9619281

>  <a_nB>
0

>  <a_nBr>
0

>  <a_nC>
13

>  <a_nCl>
0

>  <a_nF>
3

>  <a_nH>
16

>  <a_nI>
0

>  <a_nN>
3

>  <a_nO>
4

>  <a_nP>
0

>  <a_nS>
0

>  <balabanJ>
3.1602342

>  <BCUT_PEOE_0>
-2.6428306

>  <BCUT_PEOE_1>
-0.25828469

>  <BCUT_PEOE_2>
0.052920267

>  <BCUT_PEOE_3>
2.5862868

>  <BCUT_SLOGP_0>
-2.669842

>  <BCUT_SLOGP_1>
0.033500001

>  <BCUT_SLOGP_2>
0.42019999

>  <BCUT_SLOGP_3>
2.6298733

>  <BCUT_SMR_0>
-2.3683698

>  <BCUT_SMR_1>
0.1057

>  <BCUT_SMR_2>
0.33669999

>  <BCUT_SMR_3>
2.8552213

>  <bpol>
25.592312

>  <b_1rotN>
7

>  <b_1rotR>
0.30434781

>  <b_ar>
6

>  <b_count>
39

>  <b_double>
2

>  <b_heavy>
23

>  <b_rotN>
8

>  <b_rotR>
0.34782609

>  <b_single>
31

>  <b_triple>
0

>  <chi0>
17.784092

>  <chi0v>
12.591655

>  <chi0v_C>
8.4831276

>  <chi0_C>
9.052042

>  <chi1>
10.628447

>  <chi1v>
6.9194336

>  <chi1v_C>
4.3189139

>  <chi1_C>
5.0025487

>  <chiral>
0

>  <chiral_u>
0

>  <density>
0.97364116

>  <diameter>
9

>  <FCharge>
0

>  <GCUT_PEOE_0>
-0.82328099

>  <GCUT_PEOE_1>
-0.41828468

>  <GCUT_PEOE_2>
-0.11697014

>  <GCUT_PEOE_3>
2.64939

>  <GCUT_SLOGP_0>
-0.98111343

>  <GCUT_SLOGP_1>
-0.1265

>  <GCUT_SLOGP_2>
0.26019999

>  <GCUT_SLOGP_3>
2.7255287

>  <GCUT_SMR_0>
-0.52522135

>  <GCUT_SMR_1>
-0.054299999

>  <GCUT_SMR_2>
0.1767

>  <GCUT_SMR_3>
2.8673484

>  <Kier1>
21.043478

>  <Kier2>
8.909091

>  <Kier3>
5.5

>  <KierA1>
16.33699

>  <KierA2>
6.8311534

>  <KierA3>
4.1775932

>  <KierFlex>
4.8521953

>  <lip_acc>
7

>  <lip_don>
0

>  <lip_druglike>
1

>  <lip_violation>
0

>  <logP(o/w)>
4.6057601

>  <logS>
-5.0072598

>  <mr>
7.5288539

>  <mutagenic>
0

>  <nmol>
1

>  <opr_brigid>
6

>  <opr_leadlike>
1

>  <opr_nring>
1

>  <opr_nrot>
7

>  <opr_violation>
0

>  <PC+>
0

>  <PC->
0

>  <PEOE_PC+>
1.7728775

>  <PEOE_PC->
-1.7728775

>  <PEOE_RPC+>
0.23632476

>  <PEOE_RPC->
0.14567778

>  <PEOE_VSA+0>
90.433891

>  <PEOE_VSA+1>
82.480606

>  <PEOE_VSA+2>
0

>  <PEOE_VSA+3>
6.6995511

>  <PEOE_VSA+4>
0

>  <PEOE_VSA+5>
0

>  <PEOE_VSA+6>
22.444605

>  <PEOE_VSA-0>
0

>  <PEOE_VSA-1>
0

>  <PEOE_VSA-2>
0

>  <PEOE_VSA-3>
35.725906

>  <PEOE_VSA-4>
0

>  <PEOE_VSA-5>
67.862099

>  <PEOE_VSA-6>
0

>  <PEOE_VSA_FHYD>
0.70453888

>  <PEOE_VSA_FNEG>
0.33891425

>  <PEOE_VSA_FPNEG>
0.22202794

>  <PEOE_VSA_FPOL>
0.29546112

>  <PEOE_VSA_FPOS>
0.66108578

>  <PEOE_VSA_FPPOS>
0.073433176

>  <PEOE_VSA_HYD>
215.33995

>  <PEOE_VSA_NEG>
103.58801

>  <PEOE_VSA_PNEG>
67.862099

>  <PEOE_VSA_POL>
90.306702

>  <PEOE_VSA_POS>
202.05865

>  <PEOE_VSA_PPOS>
22.444605

>  <petitjean>
0.44444445

>  <petitjeanSC>
0.80000001

>  <Q_PC+>
0

>  <Q_PC->
0

>  <Q_RPC+>
0

>  <Q_RPC->
0

>  <Q_VSA_FHYD>
1

>  <Q_VSA_FNEG>
0

>  <Q_VSA_FPNEG>
0

>  <Q_VSA_FPOL>
0

>  <Q_VSA_FPOS>
1

>  <Q_VSA_FPPOS>
0

>  <Q_VSA_HYD>
305.64667

>  <Q_VSA_NEG>
0

>  <Q_VSA_PNEG>
0

>  <Q_VSA_POL>
0

>  <Q_VSA_POS>
305.64667

>  <Q_VSA_PPOS>
0

>  <radius>
5

>  <reactive>
0

>  <rings>
1

>  <RPC+>
0

>  <RPC->
0

>  <rsynth>
1

>  <SlogP>
4.4597001

>  <SlogP_VSA0>
3.1243138

>  <SlogP_VSA1>
14.171232

>  <SlogP_VSA2>
0

>  <SlogP_VSA3>
138.74918

>  <SlogP_VSA4>
3.185575

>  <SlogP_VSA5>
0

>  <SlogP_VSA6>
7.7595162

>  <SlogP_VSA7>
35.286369

>  <SlogP_VSA8>
37.736813

>  <SlogP_VSA9>
119.80261

>  <SMR>
7.76648

>  <SMR_VSA0>
14.171232

>  <SMR_VSA1>
44.880341

>  <SMR_VSA2>
112.75385

>  <SMR_VSA3>
3.185575

>  <SMR_VSA4>
8.2702427

>  <SMR_VSA5>
73.023178

>  <SMR_VSA6>
36.879158

>  <SMR_VSA7>
66.652031

>  <TPSA>
94.879997

>  <VAdjEq>
0.42622864

>  <VAdjMa>
5.523562

>  <VDistEq>
2.9582369

>  <VDistMa>
8.815836

>  <vdw_area>
305.64667

>  <vdw_vol>
327.79425

>  <vsa_acc>
0

>  <vsa_acid>
0

>  <vsa_base>
0

>  <vsa_don>
0

>  <vsa_hyd>
237.78456

>  <vsa_other>
67.862099

>  <vsa_pol>
0

>  <Weight>
335.28198

>  <weinerPath>
1082

>  <weinerPol>
37

>  <zagreb>
112

$$$$
OC1(CN3N=CN=C3)C(C)(C)CC\C1=C/C2=CC=C(Cl)C=C2
  MOE2011           2D

 22 24  0  0  1  0  0  0  0  0999 V2000
    0.0000    0.0000    0.0000 O   0  0  0  0  0  0  0  0  0  0  0  0
    1.4900   -0.1730    0.0000 C   0  0  3  0  0  0  0  0  0  0  0  0
    0.6380   -1.4070    0.0000 C   0  0  0  0  0  0  0  0  0  0  0  0
   -0.8570   -1.2860    0.0000 N   0  0  0  0  0  0  0  0  0  0  0  0
   -1.8340   -2.4250    0.0000 N   0  0  0  0  0  0  0  0  0  0  0  0
   -3.2190   -1.8480    0.0000 C   0  0  0  0  0  0  0  0  0  0  0  0
   -3.0980   -0.3530    0.0000 N   0  0  0  0  0  0  0  0  0  0  0  0
   -1.6380   -0.0060    0.0000 C   0  0  0  0  0  0  0  0  0  0  0  0
    1.8430    1.2850    0.0000 C   0  0  0  0  0  0  0  0  0  0  0  0
    0.4280    1.7820    0.0000 C   0  0  0  0  0  0  0  0  0  0  0  0
    1.6310    2.7700    0.0000 C   0  0  0  0  0  0  0  0  0  0  0  0
    3.3390    1.3990    0.0000 C   0  0  0  0  0  0  0  0  0  0  0  0
    3.9100    0.0120    0.0000 C   0  0  0  0  0  0  0  0  0  0  0  0
    2.7670   -0.9590    0.0000 C   0  0  0  0  0  0  0  0  0  0  0  0
    2.8820   -2.4550    0.0000 C   0  0  0  0  0  0  0  0  0  0  0  0
    4.2340   -3.1040    0.0000 C   0  0  0  0  0  0  0  0  0  0  0  0
    4.3490   -4.5990    0.0000 C   0  0  0  0  0  0  0  0  0  0  0  0
    5.7010   -5.2480    0.0000 C   0  0  0  0  0  0  0  0  0  0  0  0
    6.9390   -4.4010    0.0000 C   0  0  0  0  0  0  0  0  0  0  0  0
    8.2920   -5.0500    0.0000 Cl  0  0  0  0  0  0  0  0  0  0  0  0
    6.8250   -2.9050    0.0000 C   0  0  0  0  0  0  0  0  0  0  0  0
    5.4720   -2.2570    0.0000 C   0  0  0  0  0  0  0  0  0  0  0  0
  1  2  1  0  0  0  0
  2  3  1  0  0  0  0
  2  9  1  0  0  0  0
  2 14  1  0  0  0  0
  3  4  1  0  0  0  0
  4  5  1  0  0  0  0
  4  8  1  0  0  0  0
  5  6  2  0  0  0  0
  6  7  1  0  0  0  0
  7  8  2  0  0  0  0
  9 10  1  0  0  0  0
  9 11  1  0  0  0  0
  9 12  1  0  0  0  0
 12 13  1  0  0  0  0
 13 14  1  0  0  0  0
 14 15  2  0  0  0  0
 15 16  1  0  0  0  0
 16 17  1  0  0  0  0
 16 22  2  0  0  0  0
 17 18  2  0  0  0  0
 18 19  1  0  0  0  0
 19 20  1  0  0  0  0
 19 21  2  0  0  0  0
 21 22  1  0  0  0  0
M  END
>  <DSSTox_RID>
40629

>  <DSSTox_CID>
12655

>  <apol>
49.537861

>  <a_acc>
3

>  <a_acid>
0

>  <a_aro>
11

>  <a_base>
0

>  <a_count>
42

>  <a_don>
1

>  <a_heavy>
22

>  <a_hyd>
16

>  <a_IC>
65.797012

>  <a_ICM>
1.5665956

>  <a_nB>
0

>  <a_nBr>
0

>  <a_nC>
17

>  <a_nCl>
1

>  <a_nF>
0

>  <a_nH>
20

>  <a_nI>
0

>  <a_nN>
3

>  <a_nO>
1

>  <a_nP>
0

>  <a_nS>
0

>  <balabanJ>
1.6612952

>  <BCUT_PEOE_0>
-2.6921439

>  <BCUT_PEOE_1>
-0.52208942

>  <BCUT_PEOE_2>
0.57745504

>  <BCUT_PEOE_3>
2.8144729

>  <BCUT_SLOGP_0>
-2.6748004

>  <BCUT_SLOGP_1>
-0.46080482

>  <BCUT_SLOGP_2>
0.59494287

>  <BCUT_SLOGP_3>
2.8743973

>  <BCUT_SMR_0>
-2.4565339

>  <BCUT_SMR_1>
-0.28209513

>  <BCUT_SMR_2>
0.81106919

>  <BCUT_SMR_3>
3.0596423

>  <bpol>
25.584141

>  <b_1rotN>
3

>  <b_1rotR>
0.125

>  <b_ar>
11

>  <b_count>
44

>  <b_double>
1

>  <b_heavy>
24

>  <b_rotN>
3

>  <b_rotR>
0.125

>  <b_single>
32

>  <b_triple>
0

>  <chi0>
15.794683

>  <chi0v>
13.58552

>  <chi0v_C>
10.662772

>  <chi0_C>
11.803119

>  <chi1>
10.405615

>  <chi1v>
7.7989545

>  <chi1v_C>
5.4593778

>  <chi1_C>
6.6035199

>  <chiral>
1

>  <chiral_u>
1

>  <density>
0.81794697

>  <diameter>
11

>  <FCharge>
0

>  <GCUT_PEOE_0>
-0.82221144

>  <GCUT_PEOE_1>
-0.3723149

>  <GCUT_PEOE_2>
0.032099992

>  <GCUT_PEOE_3>
2.8259602

>  <GCUT_SLOGP_0>
-0.89634311

>  <GCUT_SLOGP_1>
-0.2812002

>  <GCUT_SLOGP_2>
0.030151285

>  <GCUT_SLOGP_3>
2.9103713

>  <GCUT_SMR_0>
-0.53626943

>  <GCUT_SMR_1>
-0.19067824

>  <GCUT_SMR_2>
0.19689202

>  <GCUT_SMR_3>
3.0746288

>  <Kier1>
16.84375

>  <Kier2>
6.4814816

>  <Kier3>
3.4404707

>  <KierA1>
13.8342

>  <KierA2>
5.2702646

>  <KierA3>
2.7772408

>  <KierFlex>
3.314086

>  <lip_acc>
4

>  <lip_don>
1

>  <lip_druglike>
1

>  <lip_violation>
0

>  <logP(o/w)>
2.5840001

>  <logS>
-3.5302899

>  <mr>
8.8767614

>  <mutagenic>
0

>  <nmol>
1

>  <opr_brigid>
17

>  <opr_leadlike>
1

>  <opr_nring>
3

>  <opr_nrot>
4

>  <opr_violation>
0

>  <PC+>
0

>  <PC->
0

>  <PEOE_PC+>
0.89652652

>  <PEOE_PC->
-0.89652652

>  <PEOE_RPC+>
0.24649446

>  <PEOE_RPC->
0.25342667

>  <PEOE_VSA+0>
153.66786

>  <PEOE_VSA+1>
4.5197463

>  <PEOE_VSA+2>
0

>  <PEOE_VSA+3>
45.090023

>  <PEOE_VSA+4>
24.790518

>  <PEOE_VSA+5>
0

>  <PEOE_VSA+6>
0

>  <PEOE_VSA-0>
20.225574

>  <PEOE_VSA-1>
29.581947

>  <PEOE_VSA-2>
9.4210396

>  <PEOE_VSA-3>
0

>  <PEOE_VSA-4>
19.249496

>  <PEOE_VSA-5>
0

>  <PEOE_VSA-6>
0

>  <PEOE_VSA_FHYD>
0.85633481

>  <PEOE_VSA_FNEG>
0.25600725

>  <PEOE_VSA_FPNEG>
0.062794767

>  <PEOE_VSA_FPOL>
0.14366518

>  <PEOE_VSA_FPOS>
0.74399275

>  <PEOE_VSA_FPPOS>
0.080870412

>  <PEOE_VSA_HYD>
262.5062

>  <PEOE_VSA_NEG>
78.478058

>  <PEOE_VSA_PNEG>
19.249496

>  <PEOE_VSA_POL>
44.040016

>  <PEOE_VSA_POS>
228.06816

>  <PEOE_VSA_PPOS>
24.790518

>  <petitjean>
0.45454547

>  <petitjeanSC>
0.83333331

>  <Q_PC+>
0

>  <Q_PC->
0

>  <Q_RPC+>
0

>  <Q_RPC->
0

>  <Q_VSA_FHYD>
1

>  <Q_VSA_FNEG>
0

>  <Q_VSA_FPNEG>
0

>  <Q_VSA_FPOL>
0

>  <Q_VSA_FPOS>
1

>  <Q_VSA_FPPOS>
0

>  <Q_VSA_HYD>
306.5462

>  <Q_VSA_NEG>
0

>  <Q_VSA_PNEG>
0

>  <Q_VSA_POL>
0

>  <Q_VSA_POS>
306.5462

>  <Q_VSA_PPOS>
0

>  <radius>
6

>  <reactive>
0

>  <rings>
3

>  <RPC+>
0

>  <RPC->
0

>  <rsynth>
0.22727273

>  <SlogP>
3.8326001

>  <SlogP_VSA0>
25.385227

>  <SlogP_VSA1>
35.225109

>  <SlogP_VSA2>
0

>  <SlogP_VSA3>
0

>  <SlogP_VSA4>
3.185575

>  <SlogP_VSA5>
3.185575

>  <SlogP_VSA6>
3.5006065

>  <SlogP_VSA7>
104.1438

>  <SlogP_VSA8>
55.379993

>  <SlogP_VSA9>
124.24025

>  <SMR>
8.7620802

>  <SMR_VSA0>
0

>  <SMR_VSA1>
60.610332

>  <SMR_VSA2>
0

>  <SMR_VSA3>
9.8717566

>  <SMR_VSA4>
0

>  <SMR_VSA5>
160.32019

>  <SMR_VSA6>
17.643185

>  <SMR_VSA7>
105.80067

>  <TPSA>
50.939999

>  <VAdjEq>
0.46637034

>  <VAdjMa>
5.5849624

>  <VDistEq>
3.1891954

>  <VDistMa>
8.6329346

>  <vdw_area>
306.5462

>  <vdw_vol>
363.9111

>  <vsa_acc>
15.103616

>  <vsa_acid>
0

>  <vsa_base>
0

>  <vsa_don>
0

>  <vsa_hyd>
228.29465

>  <vsa_other>
49.581036

>  <vsa_pol>
28.670536

>  <Weight>
317.82001

>  <weinerPath>
1034

>  <weinerPol>
34

>  <zagreb>
120

$$$$
N1(C(OC(C1=O)(C=C)C)=O)C2=CC(Cl)=CC(=C2)Cl
  MOE2011           2D

 18 19  0  0  1  0  0  0  0  0999 V2000
    0.0000    0.0000    0.0000 N   0  0  0  0  0  0  0  0  0  0  0  0
    0.1580    1.4920    0.0000 C   0  0  0  0  0  0  0  0  0  0  0  0
    1.6250    1.8030    0.0000 O   0  0  0  0  0  0  0  0  0  0  0  0
    2.3740    0.5030    0.0000 C   0  0  3  0  0  0  0  0  0  0  0  0
    1.3700   -0.6110    0.0000 C   0  0  0  0  0  0  0  0  0  0  0  0
    1.6810   -2.0780    0.0000 O   0  0  0  0  0  0  0  0  0  0  0  0
    3.7550    1.0890    0.0000 C   0  0  0  0  0  0  0  0  0  0  0  0
    3.9390    2.5780    0.0000 C   0  0  0  0  0  0  0  0  0  0  0  0
    3.5400   -0.4410    0.0000 C   0  0  0  0  0  0  0  0  0  0  0  0
   -0.9570    2.4960    0.0000 O   0  0  0  0  0  0  0  0  0  0  0  0
   -1.2990   -0.7490    0.0000 C   0  0  0  0  0  0  0  0  0  0  0  0
   -1.3000   -2.2490    0.0000 C   0  0  0  0  0  0  0  0  0  0  0  0
   -2.6000   -2.9990    0.0000 C   0  0  0  0  0  0  0  0  0  0  0  0
   -2.6000   -4.4990    0.0000 Cl  0  0  0  0  0  0  0  0  0  0  0  0
   -3.8980   -2.2480    0.0000 C   0  0  0  0  0  0  0  0  0  0  0  0
   -3.8970   -0.7480    0.0000 C   0  0  0  0  0  0  0  0  0  0  0  0
   -2.5980    0.0010    0.0000 C   0  0  0  0  0  0  0  0  0  0  0  0
   -5.1960    0.0030    0.0000 Cl  0  0  0  0  0  0  0  0  0  0  0  0
  1  2  1  0  0  0  0
  1  5  1  0  0  0  0
  1 11  1  0  0  0  0
  2  3  1  0  0  0  0
  2 10  2  0  0  0  0
  3  4  1  0  0  0  0
  4  5  1  0  0  0  0
  4  7  1  0  0  0  0
  4  9  1  0  0  0  0
  5  6  2  0  0  0  0
  7  8  2  0  0  0  0
 11 12  1  0  0  0  0
 11 17  2  0  0  0  0
 12 13  2  0  0  0  0
 13 14  1  0  0  0  0
 13 15  1  0  0  0  0
 15 16  2  0  0  0  0
 16 17  1  0  0  0  0
 16 18  1  0  0  0  0
M  END
>  <DSSTox_RID>
40632

>  <DSSTox_CID>
2361

>  <apol>
34.987137

>  <a_acc>
2

>  <a_acid>
0

>  <a_aro>
6

>  <a_base>
0

>  <a_count>
27

>  <a_don>
0

>  <a_heavy>
18

>  <a_hyd>
12

>  <a_IC>
50.078201

>  <a_ICM>
1.8547481

>  <a_nB>
0

>  <a_nBr>
0

>  <a_nC>
12

>  <a_nCl>
2

>  <a_nF>
0

>  <a_nH>
9

>  <a_nI>
0

>  <a_nN>
1

>  <a_nO>
3

>  <a_nP>
0

>  <a_nS>
0

>  <balabanJ>
2.1376388

>  <BCUT_PEOE_0>
-2.390094

>  <BCUT_PEOE_1>
-0.6123153

>  <BCUT_PEOE_2>
0.62434125

>  <BCUT_PEOE_3>
2.603384

>  <BCUT_SLOGP_0>
-2.5007315

>  <BCUT_SLOGP_1>
-0.35743698

>  <BCUT_SLOGP_2>
0.89013493

>  <BCUT_SLOGP_3>
2.4968703

>  <BCUT_SMR_0>
-2.1727178

>  <BCUT_SMR_1>
-0.27418882

>  <BCUT_SMR_2>
0.96357191

>  <BCUT_SMR_3>
2.8468511

>  <bpol>
16.490864

>  <b_1rotN>
2

>  <b_1rotR>
0.10526316

>  <b_ar>
6

>  <b_count>
28

>  <b_double>
3

>  <b_heavy>
19

>  <b_rotN>
2

>  <b_rotR>
0.10526316

>  <b_single>
19

>  <b_triple>
0

>  <chi0>
13.499636

>  <chi0v>
10.956253

>  <chi0v_C>
7.0165076

>  <chi0_C>
8.2151785

>  <chi1>
8.3700275

>  <chi1v>
5.8001847

>  <chi1v_C>
3.1789742

>  <chi1_C>
4.2988253

>  <chiral>
1

>  <chiral_u>
1

>  <density>
0.94902301

>  <diameter>
8

>  <FCharge>
0

>  <GCUT_PEOE_0>
-0.74174494

>  <GCUT_PEOE_1>
-0.44750217

>  <GCUT_PEOE_2>
0.022479516

>  <GCUT_PEOE_3>
2.3871696

>  <GCUT_SLOGP_0>
-1.0151165

>  <GCUT_SLOGP_1>
-0.29885387

>  <GCUT_SLOGP_2>
0.28656471

>  <GCUT_SLOGP_3>
2.4356511

>  <GCUT_SMR_0>
-0.50061268

>  <GCUT_SMR_1>
-0.17501728

>  <GCUT_SMR_2>
0.38800183

>  <GCUT_SMR_3>
2.6650331

>  <Kier1>
14.409972

>  <Kier2>
5.1747918

>  <Kier3>
2.6592798

>  <KierA1>
12.282328

>  <KierA2>
4.3664942

>  <KierA3>
2.2272127

>  <KierFlex>
2.9794838

>  <lip_acc>
4

>  <lip_don>
0

>  <lip_druglike>
1

>  <lip_violation>
0

>  <logP(o/w)>
3.664

>  <logS>
-4.3859701

>  <mr>
6.8682833

>  <mutagenic>
0

>  <nmol>
1

>  <opr_brigid>
11

>  <opr_leadlike>
1

>  <opr_nring>
2

>  <opr_nrot>
2

>  <opr_violation>
0

>  <PC+>
0

>  <PC->
0

>  <PEOE_PC+>
1.1706733

>  <PEOE_PC->
-1.1706733

>  <PEOE_RPC+>
0.32093921

>  <PEOE_RPC->
0.2354086

>  <PEOE_VSA+0>
92.642426

>  <PEOE_VSA+1>
15.739044

>  <PEOE_VSA+2>
0

>  <PEOE_VSA+3>
0

>  <PEOE_VSA+4>
0

>  <PEOE_VSA+5>
12.949531

>  <PEOE_VSA+6>
19.199511

>  <PEOE_VSA-0>
29.408449

>  <PEOE_VSA-1>
59.163895

>  <PEOE_VSA-2>
0

>  <PEOE_VSA-3>
0

>  <PEOE_VSA-4>
13.566921

>  <PEOE_VSA-5>
16.070677

>  <PEOE_VSA-6>
0

>  <PEOE_VSA_FHYD>
0.76120222

>  <PEOE_VSA_FNEG>
0.45686686

>  <PEOE_VSA_FPNEG>
0.11454567

>  <PEOE_VSA_FPOL>
0.23879775

>  <PEOE_VSA_FPOS>
0.54313314

>  <PEOE_VSA_FPPOS>
0.12425209

>  <PEOE_VSA_HYD>
196.95381

>  <PEOE_VSA_NEG>
118.20994

>  <PEOE_VSA_PNEG>
29.637598

>  <PEOE_VSA_POL>
61.78664

>  <PEOE_VSA_POS>
140.53052

>  <PEOE_VSA_PPOS>
32.14904

>  <petitjean>
0.5

>  <petitjeanSC>
1

>  <Q_PC+>
0

>  <Q_PC->
0

>  <Q_RPC+>
0

>  <Q_RPC->
0

>  <Q_VSA_FHYD>
1

>  <Q_VSA_FNEG>
0

>  <Q_VSA_FPNEG>
0

>  <Q_VSA_FPOL>
0

>  <Q_VSA_FPOS>
1

>  <Q_VSA_FPPOS>
0

>  <Q_VSA_HYD>
258.74045

>  <Q_VSA_NEG>
0

>  <Q_VSA_PNEG>
0

>  <Q_VSA_POL>
0

>  <Q_VSA_POS>
258.74045

>  <Q_VSA_PPOS>
0

>  <radius>
4

>  <reactive>
0

>  <rings>
2

>  <RPC+>
0

>  <RPC->
0

>  <rsynth>
0.6111111

>  <SlogP>
3.4212999

>  <SlogP_VSA0>
3.1243138

>  <SlogP_VSA1>
12.57542

>  <SlogP_VSA2>
34.862103

>  <SlogP_VSA3>
0

>  <SlogP_VSA4>
0

>  <SlogP_VSA5>
0

>  <SlogP_VSA6>
7.0012131

>  <SlogP_VSA7>
70.572739

>  <SlogP_VSA8>
0

>  <SlogP_VSA9>
170.34306

>  <SMR>
6.9031

>  <SMR_VSA0>
58.724319

>  <SMR_VSA1>
0

>  <SMR_VSA2>
3.1243138

>  <SMR_VSA3>
7.0012131

>  <SMR_VSA4>
2.7567475

>  <SMR_VSA5>
70.572739

>  <SMR_VSA6>
12.57542

>  <SMR_VSA7>
143.72409

>  <TPSA>
46.610001

>  <VAdjEq>
0.52150291

>  <VAdjMa>
5.2479277

>  <VDistEq>
2.804693

>  <VDistMa>
8.0708418

>  <vdw_area>
258.74045

>  <vdw_vol>
291.92337

>  <vsa_acc>
27.133842

>  <vsa_acid>
0

>  <vsa_base>
0

>  <vsa_don>
0

>  <vsa_hyd>
196.95381

>  <vsa_other>
34.652798

>  <vsa_pol>
27.133842

>  <Weight>
286.11398

>  <weinerPath>
559

>  <weinerPol>
30

>  <zagreb>
96

$$$$
O=C(NC(CC)(C)C(CCl)=O)C1=CC(Cl)=C(C)C(Cl)=C1
  MOE2011           2D

 20 20  0  0  1  0  0  0  0  0999 V2000
    0.0000    0.0000    0.0000 O   0  0  0  0  0  0  0  0  0  0  0  0
   -0.7450   -1.3020    0.0000 C   0  0  0  0  0  0  0  0  0  0  0  0
    0.0090   -2.5980    0.0000 N   0  0  0  0  0  0  0  0  0  0  0  0
    1.5090   -2.5930    0.0000 C   0  0  3  0  0  0  0  0  0  0  0  0
    1.5150   -4.0930    0.0000 C   0  0  0  0  0  0  0  0  0  0  0  0
    0.2190   -4.8470    0.0000 C   0  0  0  0  0  0  0  0  0  0  0  0
    1.5040   -1.0930    0.0000 C   0  0  0  0  0  0  0  0  0  0  0  0
    3.0090   -2.5870    0.0000 C   0  0  0  0  0  0  0  0  0  0  0  0
    3.7640   -3.8830    0.0000 C   0  0  0  0  0  0  0  0  0  0  0  0
    5.2640   -3.8780    0.0000 Cl  0  0  0  0  0  0  0  0  0  0  0  0
    3.7550   -1.2850    0.0000 O   0  0  0  0  0  0  0  0  0  0  0  0
   -2.2450   -1.3070    0.0000 C   0  0  0  0  0  0  0  0  0  0  0  0
   -3.0000   -0.0110    0.0000 C   0  0  0  0  0  0  0  0  0  0  0  0
   -4.5000   -0.0160    0.0000 C   0  0  0  0  0  0  0  0  0  0  0  0
   -5.2550    1.2800    0.0000 Cl  0  0  0  0  0  0  0  0  0  0  0  0
   -5.2450   -1.3180    0.0000 C   0  0  0  0  0  0  0  0  0  0  0  0
   -6.7450   -1.3240    0.0000 C   0  0  0  0  0  0  0  0  0  0  0  0
   -4.4910   -2.6140    0.0000 C   0  0  0  0  0  0  0  0  0  0  0  0
   -5.2360   -3.9160    0.0000 Cl  0  0  0  0  0  0  0  0  0  0  0  0
   -2.9910   -2.6090    0.0000 C   0  0  0  0  0  0  0  0  0  0  0  0
  1  2  2  0  0  0  0
  2  3  1  0  0  0  0
  2 12  1  0  0  0  0
  3  4  1  0  0  0  0
  4  5  1  0  0  0  0
  4  7  1  0  0  0  0
  4  8  1  0  0  0  0
  5  6  1  0  0  0  0
  8  9  1  0  0  0  0
  8 11  2  0  0  0  0
  9 10  1  0  0  0  0
 12 13  1  0  0  0  0
 12 20  2  0  0  0  0
 13 14  2  0  0  0  0
 14 15  1  0  0  0  0
 14 16  1  0  0  0  0
 16 17  1  0  0  0  0
 16 18  2  0  0  0  0
 18 19  1  0  0  0  0
 18 20  1  0  0  0  0
M  END
>  <DSSTox_RID>
40633

>  <DSSTox_CID>
12581

>  <apol>
44.552689

>  <a_acc>
2

>  <a_acid>
0

>  <a_aro>
6

>  <a_base>
0

>  <a_count>
36

>  <a_don>
1

>  <a_heavy>
20

>  <a_hyd>
15

>  <a_IC>
62.059444

>  <a_ICM>
1.7238734

>  <a_nB>
0

>  <a_nBr>
0

>  <a_nC>
14

>  <a_nCl>
3

>  <a_nF>
0

>  <a_nH>
16

>  <a_nI>
0

>  <a_nN>
1

>  <a_nO>
2

>  <a_nP>
0

>  <a_nS>
0

>  <balabanJ>
2.6894672

>  <BCUT_PEOE_0>
-2.6332643

>  <BCUT_PEOE_1>
-0.27021077

>  <BCUT_PEOE_2>
0.23204456

>  <BCUT_PEOE_3>
2.6501615

>  <BCUT_SLOGP_0>
-2.768543

>  <BCUT_SLOGP_1>
-0.14326411

>  <BCUT_SLOGP_2>
0.50423157

>  <BCUT_SLOGP_3>
2.6166339

>  <BCUT_SMR_0>
-2.3831997

>  <BCUT_SMR_1>
-0.044670004

>  <BCUT_SMR_2>
0.54908466

>  <BCUT_SMR_3>
2.9005198

>  <bpol>
21.327312

>  <b_1rotN>
5

>  <b_1rotR>
0.25

>  <b_ar>
6

>  <b_count>
36

>  <b_double>
2

>  <b_heavy>
20

>  <b_rotN>
6

>  <b_rotR>
0.30000001

>  <b_single>
28

>  <b_triple>
0

>  <chi0>
15.499636

>  <chi0v>
13.787091

>  <chi0v_C>
9.0689144

>  <chi0_C>
9.7925291

>  <chi1>
9.2462368

>  <chi1v>
7.4128394

>  <chi1v_C>
4.5689139

>  <chi1_C>
5.467927

>  <chiral>
1

>  <chiral_u>
1

>  <density>
0.93535799

>  <diameter>
10

>  <FCharge>
0

>  <GCUT_PEOE_0>
-0.81602657

>  <GCUT_PEOE_1>
-0.31168497

>  <GCUT_PEOE_2>
-0.060748577

>  <GCUT_PEOE_3>
2.5263441

>  <GCUT_SLOGP_0>
-1.1619198

>  <GCUT_SLOGP_1>
-0.16492012

>  <GCUT_SLOGP_2>
0.16460824

>  <GCUT_SLOGP_3>
2.5587857

>  <GCUT_SMR_0>
-0.52052295

>  <GCUT_SMR_1>
-0.08322984

>  <GCUT_SMR_2>
0.2369756

>  <GCUT_SMR_3>
2.7901921

>  <Kier1>
18.049999

>  <Kier2>
7.3198571

>  <Kier3>
4.25

>  <KierA1>
17.543762

>  <KierA2>
7.1034613

>  <KierA3>
4.1196556

>  <KierFlex>
6.2310719

>  <lip_acc>
3

>  <lip_don>
1

>  <lip_druglike>
1

>  <lip_violation>
0

>  <logP(o/w)>
4.349

>  <logS>
-5.1128802

>  <mr>
8.3881159

>  <mutagenic>
1

>  <nmol>
1

>  <opr_brigid>
6

>  <opr_leadlike>
1

>  <opr_nring>
1

>  <opr_nrot>
5

>  <opr_violation>
0

>  <PC+>
0

>  <PC->
0

>  <PEOE_PC+>
1.0600568

>  <PEOE_PC->
-1.0600568

>  <PEOE_RPC+>
0.25959861

>  <PEOE_RPC->
0.27618718

>  <PEOE_VSA+0>
135.65083

>  <PEOE_VSA+1>
11.248033

>  <PEOE_VSA+2>
0

>  <PEOE_VSA+3>
26.57822

>  <PEOE_VSA+4>
0

>  <PEOE_VSA+5>
12.949531

>  <PEOE_VSA+6>
0

>  <PEOE_VSA-0>
2.2085397

>  <PEOE_VSA-1>
59.163895

>  <PEOE_VSA-2>
29.581947

>  <PEOE_VSA-3>
0

>  <PEOE_VSA-4>
5.6825762

>  <PEOE_VSA-5>
27.133842

>  <PEOE_VSA-6>
0

>  <PEOE_VSA_FHYD>
0.85246187

>  <PEOE_VSA_FNEG>
0.39900655

>  <PEOE_VSA_FPNEG>
0.10579204

>  <PEOE_VSA_FPOL>
0.14753814

>  <PEOE_VSA_FPOS>
0.60099345

>  <PEOE_VSA_FPPOS>
0.041746095

>  <PEOE_VSA_HYD>
264.43146

>  <PEOE_VSA_NEG>
123.7708

>  <PEOE_VSA_PNEG>
32.816418

>  <PEOE_VSA_POL>
45.765949

>  <PEOE_VSA_POS>
186.42662

>  <PEOE_VSA_PPOS>
12.949531

>  <petitjean>
0.5

>  <petitjeanSC>
1

>  <Q_PC+>
0

>  <Q_PC->
0

>  <Q_RPC+>
0

>  <Q_RPC->
0

>  <Q_VSA_FHYD>
1

>  <Q_VSA_FNEG>
0

>  <Q_VSA_FPNEG>
0

>  <Q_VSA_FPOL>
0

>  <Q_VSA_FPOS>
1

>  <Q_VSA_FPPOS>
0

>  <Q_VSA_HYD>
310.19742

>  <Q_VSA_NEG>
0

>  <Q_VSA_PNEG>
0

>  <Q_VSA_POL>
0

>  <Q_VSA_POS>
310.19742

>  <Q_VSA_PPOS>
0

>  <radius>
5

>  <reactive>
1

>  <rings>
1

>  <RPC+>
0

>  <RPC->
0

>  <rsynth>
0.55000001

>  <SlogP>
4.0082202

>  <SlogP_VSA0>
18.01075

>  <SlogP_VSA1>
10.946395

>  <SlogP_VSA2>
23.862217

>  <SlogP_VSA3>
19.183437

>  <SlogP_VSA4>
30.233366

>  <SlogP_VSA5>
0

>  <SlogP_VSA6>
7.0012131

>  <SlogP_VSA7>
35.286369

>  <SlogP_VSA8>
18.868406

>  <SlogP_VSA9>
217.42398

>  <SMR>
8.3088198

>  <SMR_VSA0>
47.724434

>  <SMR_VSA1>
0

>  <SMR_VSA2>
18.01075

>  <SMR_VSA3>
13.372363

>  <SMR_VSA4>
0

>  <SMR_VSA5>
54.154774

>  <SMR_VSA6>
30.129831

>  <SMR_VSA7>
217.42398

>  <TPSA>
46.169998

>  <VAdjEq>
0.4689956

>  <VAdjMa>
5.321928

>  <VDistEq>
3.0920086

>  <VDistMa>
8.3602428

>  <vdw_area>
310.19742

>  <vdw_vol>
342.66879

>  <vsa_acc>
27.133842

>  <vsa_acid>
0

>  <vsa_base>
0

>  <vsa_don>
5.6825762

>  <vsa_hyd>
255.97295

>  <vsa_other>
21.408051

>  <vsa_pol>
32.816418

>  <Weight>
336.646

>  <weinerPath>
816

>  <weinerPol>
33

>  <zagreb>
98

$$$$
