
  SciTegic          2D

 20 20  0  0  0  0            999 V2000
    1.2990   -0.7500    0.0000 C   0  0
    1.2990    0.7500    0.0000 C   0  0
    0.0000   -1.5000    0.0000 C   0  0
    2.5973   -1.5031    0.0000 N   0  0
    0.0000    1.5000    0.0000 C   0  0
   -1.2990   -0.7500    0.0000 C   0  0
    2.5951   -3.0039    0.0000 C   0  0
   -1.2990    0.7500    0.0000 C   0  0
    3.8933   -3.7570    0.0000 C   0  0
    1.5548   -3.6021    0.0000 O   0  0
   -2.6003    1.4977    0.0000 O   0  0
    2.1651    1.2500    0.0000 H   0  0
    0.0000   -2.5000    0.0000 H   0  0
    3.4642   -1.0046    0.0000 H   0  0
    0.0000    2.5000    0.0000 H   0  0
   -2.1651   -1.2500    0.0000 H   0  0
    3.8919   -4.7570    0.0000 H   0  0
    4.7602   -3.2585    0.0000 H   0  0
    4.7586   -4.2584    0.0000 H   0  0
   -3.4657    0.9965    0.0000 H   0  0
  1  2  2  0
  1  3  1  0
  1  4  1  0
  2  5  1  0
  3  6  2  0
  4  7  1  0
  5  8  2  0
  6  8  1  0
  7  9  1  0
  7 10  2  0
  8 11  1  0
  2 12  1  0
  3 13  1  0
  4 14  1  0
  5 15  1  0
  6 16  1  0
  9 17  1  0
  9 18  1  0
  9 19  1  0
 11 20  1  0
V    1 0
V    2 1
V    3 2
V    4 3
V    5 4
V    6 5
V    7 6
V    8 7
V    9 8
V   10 9
V   11 10
M  END
> <DSSTox_RID>
59713

> <DSSTox_CID>
6

> <DSSTox_CID_Parent>
6

> <DSSTox_Generic_SID>
20006

> <DSSTox_FileID>
1_TXCST2_v1a

> <STRUCTURE_Formula>
C8H9NO2

> <STRUCTURE_MolecularWeight>
151.1626

> <STRUCTURE_ChemicalType>
defined organic

> <STRUCTURE_TestedForm_DefinedOrganic>
parent

> <STRUCTURE_Shown>
tested chemical

> <TestSubstance_ChemicalName>
Acetaminophen

> <TestSubstance_CASRN>
103-90-2

> <TestSubstance_Description>
single chemical compound

> <STRUCTURE_ChemicalName_IUPAC>
N-(4-hydroxyphenyl)acetamide

> <STRUCTURE_SMILES>
C1(=CC=C(C=C1)O)NC(C)=O

> <STRUCTURE_Parent_SMILES>
C1(=CC=C(C=C1)O)NC(C)=O

> <STRUCTURE_InChIS>
InChI=1S/C8H9NO2/c1-6(10)9-7-2-4-8(11)5-3-7/h2-5,11H,1H3,(H,9,10)

> <STRUCTURE_InChIKey>
RZVAJINKPMORJF-UHFFFAOYSA-N

> <Substance_modify_yyyymmdd>
20080429

> <Coord_Metals>
0

> <Index>
1

> <Canonical_Smiles>
CC(=O)Nc1ccc(O)cc1

> <Molecular_Weight>
151.16255

> <Frequency>
1

$$$$

  SciTegic          2D

 31 32  0  0  0  0            999 V2000
    2.5951   -3.0039    0.0000 O   0  0
    2.5973   -1.5031    0.0000 C   0  0
    3.6375   -0.9049    0.0000 O   0  0
    1.2990   -0.7500    0.0000 C   0  0
    1.2990    0.7500    0.0000 C   0  0
    0.0000    1.5000    0.0000 C   0  0
   -1.2990    0.7500    0.0000 C   0  0
   -1.2990   -0.7500    0.0000 C   0  0
    0.0000   -1.5000    0.0000 C   0  0
   -2.5972   -1.5031    0.0000 O   0  0
   -2.5951   -3.0039    0.0000 C   0  0
   -3.8915   -3.7585    0.0000 C   0  0
   -3.8863   -5.2585    0.0000 C   0  0
   -2.5847   -6.0040    0.0000 C   0  0
   -1.2883   -5.2495    0.0000 C   0  0
   -1.2935   -3.7495    0.0000 C   0  0
   -0.2563   -3.1459    0.0000 Cl  0  0
   -2.5795   -7.5048    0.0000 C   0  0
   -3.6163   -8.1091    0.0000 F   0  0
   -1.5380   -8.1009    0.0000 F   0  0
   -2.5748   -8.7048    0.0000 F   0  0
    2.5972    1.5031    0.0000 N   0  0
    2.5955    2.7031    0.0000 O   0  0
    3.6375    0.9049    0.0000 O   0  0
    3.4601   -3.5057    0.0000 H   0  0
    0.0000    2.5000    0.0000 H   0  0
   -2.1651    1.2500    0.0000 H   0  0
    0.0000   -2.5000    0.0000 H   0  0
   -4.7593   -3.2615    0.0000 H   0  0
   -4.7506   -5.7615    0.0000 H   0  0
   -0.4205   -5.7465    0.0000 H   0  0
  1  2  1  0
  2  3  2  0
  2  4  1  0
  4  5  2  0
  4  9  1  0
  5  6  1  0
  5 22  1  0
  6  7  2  0
  7  8  1  0
  8  9  2  0
  8 10  1  0
 10 11  1  0
 11 12  2  0
 11 16  1  0
 12 13  1  0
 13 14  2  0
 14 15  1  0
 14 18  1  0
 15 16  2  0
 16 17  1  0
 18 19  1  0
 18 20  1  0
 18 21  1  0
 22 23  2  0
 22 24  2  0
  1 25  1  0
  6 26  1  0
  7 27  1  0
  9 28  1  0
 12 29  1  0
 13 30  1  0
 15 31  1  0
V    1 0
V    2 1
V    3 2
V    4 3
V    5 4
V    6 5
V    7 6
V    8 7
V    9 8
V   10 9
V   11 10
V   12 11
V   13 12
V   14 13
V   15 14
V   16 15
V   17 16
V   18 17
V   19 18
V   20 19
V   21 20
V   22 21
V   23 22
V   24 23
M  END
> <DSSTox_RID>
59722

> <DSSTox_CID>
22

> <DSSTox_CID_Parent>
22

> <DSSTox_Generic_SID>
20022

> <DSSTox_FileID>
2_TXCST2_v1a

> <STRUCTURE_Formula>
C14H7ClF3NO5

> <STRUCTURE_MolecularWeight>
361.6573

> <STRUCTURE_ChemicalType>
defined organic

> <STRUCTURE_TestedForm_DefinedOrganic>
parent

> <STRUCTURE_Shown>
tested chemical

> <TestSubstance_ChemicalName>
Acifluorfen

> <TestSubstance_CASRN>
50594-66-6

> <TestSubstance_Description>
single chemical compound

> <Source_ChemicalNote>
tested chemical contained 0.04% water (0.01 moles H2O)

> <STRUCTURE_ChemicalName_IUPAC>
5-{[2-chloro-4-(trifluoromethyl)phenyl]oxy}-2-nitrobenzoic acid

> <STRUCTURE_SMILES>
OC(=O)C1=C(C=CC(=C1)OC2=CC=C(C=C2Cl)C(F)(F)F)[N+](=O)[O-]

> <STRUCTURE_Parent_SMILES>
OC(=O)C1=C(C=CC(=C1)OC2=CC=C(C=C2Cl)C(F)(F)F)[N+](=O)[O-]

> <STRUCTURE_InChIS>
InChI=1S/C14H7ClF3NO5/c15-10-5-7(14(16,17)18)1-4-12(10)24-8-2-3-11(19(22)23)9(6-8)13(20)21/h1-6H,(H,20,21)

> <STRUCTURE_InChIKey>
NUFNQYOELLVIPL-UHFFFAOYSA-N

> <Substance_modify_yyyymmdd>
20080429

> <Coord_Metals>
0

> <Index>
2

> <Canonical_Smiles>
OC(=O)c1cc(Oc2ccc(cc2Cl)C(F)(F)F)ccc1N(=O)=O

> <Molecular_Weight>
361.65728

> <Frequency>
1

$$$$

  SciTegic          2D

 10  9  0  0  0  0            999 V2000
    1.3000    0.7500    0.0000 N   0  0
    2.6000    0.0000    0.0000 C   0  0
    2.6000   -1.2000    0.0000 O   0  0
    3.9000    0.7500    0.0000 C   0  0
    5.2000    0.0000    0.0000 C   0  0
    0.4338    0.2503    0.0000 H   0  0
    1.3000    1.7500    0.0000 H   0  0
    3.9000    1.7500    0.0000 H   0  0
    6.0661    0.4997    0.0000 H   0  0
    5.2000   -1.0000    0.0000 H   0  0
  1  2  1  0
  2  3  2  0
  2  4  1  0
  4  5  2  0
  1  6  1  0
  1  7  1  0
  4  8  1  0
  5  9  1  0
  5 10  1  0
V    1 0
V    2 1
V    3 2
V    4 3
V    5 4
M  END
> <DSSTox_RID>
59726

> <DSSTox_CID>
27

> <DSSTox_CID_Parent>
27

> <DSSTox_Generic_SID>
20027

> <DSSTox_FileID>
3_TXCST2_v1a

> <STRUCTURE_Formula>
C3H5NO

> <STRUCTURE_MolecularWeight>
71.0779

> <STRUCTURE_ChemicalType>
defined organic

> <STRUCTURE_TestedForm_DefinedOrganic>
parent

> <STRUCTURE_Shown>
tested chemical

> <TestSubstance_ChemicalName>
Acrylamide

> <TestSubstance_CASRN>
79-06-1

> <TestSubstance_Description>
single chemical compound

> <STRUCTURE_ChemicalName_IUPAC>
acrylamide

> <STRUCTURE_SMILES>
NC(=O)C=C

> <STRUCTURE_Parent_SMILES>
NC(=O)C=C

> <STRUCTURE_InChIS>
InChI=1S/C3H5NO/c1-2-3(4)5/h2H,1H2,(H2,4,5)

> <STRUCTURE_InChIKey>
HRPVXLWXLXDGHG-UHFFFAOYSA-N

> <Substance_modify_yyyymmdd>
20080429

> <Coord_Metals>
0

> <Index>
3

> <Canonical_Smiles>
NC(=O)C=C

> <Molecular_Weight>
71.0779

> <Frequency>
1

$$$$

  SciTegic          2D

 26 29  0  0  0  0            999 V2000
    0.8257    0.2108    0.0000 C   0  0
   -0.7466   -0.5007    0.0000 C   0  0
    0.5885    1.4932    0.0000 C   0  0
    2.7756   -0.3777    0.0000 C   0  0
    0.9047   -0.9866    0.0000 Cl  0  0
   -1.1155   -1.0452    0.0000 C   0  0
   -2.0641    0.2635    0.0000 C   0  0
    0.4743   -0.4480    0.0000 C   0  0
   -0.4730    2.0529    0.0000 Cl  0  0
    1.5723    2.1803    0.0000 Cl  0  0
    2.1608   -1.1946    0.0000 C   0  0
    3.9161   -0.0045    0.0000 Cl  0  0
   -2.3716   -0.3250    0.0000 C   0  0
   -2.2837    1.5635    0.0000 C   0  0
   -3.5573   -0.3250    0.0000 C   0  0
    0.4399   -1.6475    0.0000 Cl  0  0
    2.4628   -2.3559    0.0000 Cl  0  0
   -3.9526   -0.9838    0.0000 C   0  0
   -0.6963    0.4981    0.0000 H   0  0
   -1.0350   -0.0485    0.0000 H   0  0
   -2.8902    0.8271    0.0000 H   0  0
   -2.4345   -1.3230    0.0000 H   0  0
   -3.1675    2.0314    0.0000 H   0  0
   -1.4631    2.1349    0.0000 H   0  0
   -4.2038    0.4380    0.0000 H   0  0
   -4.7093   -1.6376    0.0000 H   0  0
  1  2  1  0
  3  1  1  0
  1  4  1  0
  1  5  1  0
  2  6  1  0
  2  7  1  0
  8  3  1  0
  3  9  1  0
  3 10  1  0
  4 11  2  0
  4 12  1  0
  6 13  1  0
  6  8  1  0
 14  7  1  0
  7 15  1  0
  8 16  1  0
  8 11  1  0
 11 17  1  0
 13 18  1  0
 13 14  1  0
 15 18  2  0
  2 19  1  0
  6 20  1  0
  7 21  1  0
 13 22  1  0
 14 23  1  0
 14 24  1  0
 15 25  1  0
 18 26  1  0
V    1 0
V    2 1
V    3 2
V    4 3
V    5 4
V    6 5
V    7 6
V    8 7
V    9 8
V   10 9
V   11 10
V   12 11
V   13 12
V   14 13
V   15 14
V   16 15
V   17 16
V   18 17
M  END
> <DSSTox_RID>
59559

> <DSSTox_CID>
40

> <DSSTox_CID_Parent>
40

> <DSSTox_Generic_SID>
20040

> <DSSTox_FileID>
4_TXCST2_v1a

> <STRUCTURE_Formula>
C12H8Cl6

> <STRUCTURE_MolecularWeight>
364.9099

> <STRUCTURE_ChemicalType>
defined organic

> <STRUCTURE_TestedForm_DefinedOrganic>
parent

> <STRUCTURE_Shown>
tested chemical

> <TestSubstance_ChemicalName>
Aldrin

> <TestSubstance_CASRN>
309-00-2

> <TestSubstance_Description>
single chemical compound

> <ChemicalNote>
stereochem

> <STRUCTURE_ChemicalName_IUPAC>
(1R,4S,4aS,8aR)-1,2,3,4,10,10-hexachloro-1,4,4a,5,8,8a-hexahydro-1,4:5,8-dimethanonaphthalene

> <STRUCTURE_SMILES>
Cl[C@@]([C@@](Cl)(Cl)[C@]43Cl)(C(Cl)=C4Cl)[C@]1([H])[C@@]3([H])[C@H]2C=C[C@H]1C2

> <STRUCTURE_Parent_SMILES>
Cl[C@@]([C@@](Cl)(Cl)[C@]43Cl)(C(Cl)=C4Cl)[C@]1([H])[C@@]3([H])[C@H]2C=C[C@H]1C2

> <STRUCTURE_InChIS>
InChI=1S/C12H8Cl6/c13-8-9(14)11(16)7-5-2-1-4(3-5)6(7)10(8,15)12(11,17)18/h1-2,4-7H,3H2/t4-,5?,6+,7-,10+,11?/m0/s1

> <STRUCTURE_InChIKey>
QBYJBZPUGVGKQQ-SUFXPJIHSA-N

> <Substance_modify_yyyymmdd>
20080815

> <Coord_Metals>
0

> <Index>
4

> <Canonical_Smiles>
ClC1=C(Cl)C2(Cl)C3C4CC(C=C4)C3C1(Cl)C2(Cl)Cl

> <Molecular_Weight>
364.90992

> <Frequency>
1

$$$$

  SciTegic          2D

 26 28  0  0  0  0            999 V2000
    0.0037    2.7002    0.0000 O   0  0
    0.0000    1.5002    0.0000 C   0  0
   -1.2989    0.7501    0.0000 C   0  0
   -2.5978    1.5002    0.0000 C   0  0
   -3.8968    0.7501    0.0000 C   0  0
   -3.8968   -0.7501    0.0000 C   0  0
   -2.5978   -1.5002    0.0000 C   0  0
   -1.2989   -0.7501    0.0000 C   0  0
    0.0000   -1.5002    0.0000 C   0  0
    0.0037   -2.7002    0.0000 O   0  0
    1.2806   -0.7501    0.0000 C   0  0
    1.2806    0.7501    0.0000 C   0  0
    2.5978    1.5002    0.0000 C   0  0
    3.8968    0.7501    0.0000 C   0  0
    3.8968   -0.7501    0.0000 C   0  0
    2.5978   -1.5002    0.0000 C   0  0
   -5.1981    1.4978    0.0000 N   0  0
   -2.5978    2.5002    0.0000 H   0  0
   -4.7628   -1.2500    0.0000 H   0  0
   -2.5978   -2.5002    0.0000 H   0  0
    2.6009    2.5002    0.0000 H   0  0
    4.7628    1.2500    0.0000 H   0  0
    4.7628   -1.2500    0.0000 H   0  0
    2.6009   -2.5002    0.0000 H   0  0
   -6.0634    0.9966    0.0000 H   0  0
   -5.1998    2.4978    0.0000 H   0  0
  1  2  2  0
  2  3  1  0
  2 12  1  0
  3  4  2  0
  3  8  1  0
  4  5  1  0
  5  6  2  0
  5 17  1  0
  6  7  1  0
  7  8  2  0
  8  9  1  0
  9 10  2  0
  9 11  1  0
 11 12  2  0
 11 16  1  0
 12 13  1  0
 13 14  2  0
 14 15  1  0
 15 16  2  0
  4 18  1  0
  6 19  1  0
  7 20  1  0
 13 21  1  0
 14 22  1  0
 15 23  1  0
 16 24  1  0
 17 25  1  0
 17 26  1  0
V    1 0
V    2 1
V    3 2
V    4 3
V    5 4
V    6 5
V    7 6
V    8 7
V    9 8
V   10 9
V   11 10
V   12 11
V   13 12
V   14 13
V   15 14
V   16 15
V   17 16
M  END
> <DSSTox_RID>
65598

> <DSSTox_CID>
68

> <DSSTox_CID_Parent>
68

> <DSSTox_Generic_SID>
20068

> <DSSTox_FileID>
5_TXCST2_v1a

> <STRUCTURE_Formula>
C14H9NO2

> <STRUCTURE_MolecularWeight>
223.2268

> <STRUCTURE_ChemicalType>
defined organic

> <STRUCTURE_TestedForm_DefinedOrganic>
parent

> <STRUCTURE_Shown>
tested chemical

> <TestSubstance_ChemicalName>
2-Aminoanthraquinone

> <TestSubstance_CASRN>
117-79-3

> <TestSubstance_Description>
single chemical compound

> <STRUCTURE_ChemicalName_IUPAC>
2-amino-9,10-anthraquinone

> <STRUCTURE_SMILES>
O=C1C2=CC(=CC=C2C(=O)C3=C1C=CC=C3)N

> <STRUCTURE_Parent_SMILES>
O=C1C2=CC(=CC=C2C(=O)C3=C1C=CC=C3)N

> <STRUCTURE_InChIS>
InChI=1S/C14H9NO2/c15-8-5-6-11-12(7-8)14(17)10-4-2-1-3-9(10)13(11)16/h1-7H,15H2

> <STRUCTURE_InChIKey>
XOGPDSATLSAZEK-UHFFFAOYSA-N

> <Substance_modify_yyyymmdd>
20080429

> <Coord_Metals>
0

> <Index>
5

> <Canonical_Smiles>
Nc1ccc2C(=O)c3ccccc3C(=O)c2c1

> <Molecular_Weight>
223.22675

> <Frequency>
1

$$$$

  SciTegic          2D

 32 33  0  0  0  0            999 V2000
    2.5988   -1.5004    0.0000 C   0  0
    1.2990   -0.7500    0.0000 C   0  0
    1.2990    0.7500    0.0000 C   0  0
    0.0000    1.5000    0.0000 C   0  0
   -1.2990    0.7500    0.0000 C   0  0
   -1.2990   -0.7500    0.0000 C   0  0
    0.0000   -1.5000    0.0000 C   0  0
    2.5972    1.5031    0.0000 N   0  0
    2.5951    3.0039    0.0000 N   0  0
    3.8933    3.7570    0.0000 C   0  0
    3.8933    5.2571    0.0000 C   0  0
    5.1924    6.0071    0.0000 C   0  0
    6.4914    5.2571    0.0000 C   0  0
    6.4915    3.7571    0.0000 C   0  0
    5.1925    3.0071    0.0000 C   0  0
    7.7927    6.0049    0.0000 N   0  0
    5.1923    7.5079    0.0000 C   0  0
    3.4651   -1.0010    0.0000 H   0  0
    2.5985   -2.5004    0.0000 H   0  0
    3.4646   -2.0008    0.0000 H   0  0
    0.0000    2.5000    0.0000 H   0  0
   -2.1651    1.2500    0.0000 H   0  0
   -2.1651   -1.2500    0.0000 H   0  0
    0.0000   -2.5000    0.0000 H   0  0
    3.0273    5.7571    0.0000 H   0  0
    7.3575    3.2572    0.0000 H   0  0
    5.1925    2.0071    0.0000 H   0  0
    8.6580    5.5037    0.0000 H   0  0
    7.7944    7.0049    0.0000 H   0  0
    4.3266    8.0084    0.0000 H   0  0
    6.0585    8.0077    0.0000 H   0  0
    5.1928    8.5079    0.0000 H   0  0
  1  2  1  0
  2  3  2  0
  2  7  1  0
  3  4  1  0
  8  3  1  0
  4  5  2  0
  5  6  1  0
  6  7  2  0
  8  9  2  0
  9 10  1  0
 10 11  2  0
 10 15  1  0
 11 12  1  0
 12 13  2  0
 12 17  1  0
 13 14  1  0
 13 16  1  0
 14 15  2  0
  1 18  1  0
  1 19  1  0
  1 20  1  0
  4 21  1  0
  5 22  1  0
  6 23  1  0
  7 24  1  0
 11 25  1  0
 14 26  1  0
 15 27  1  0
 16 28  1  0
 16 29  1  0
 17 30  1  0
 17 31  1  0
 17 32  1  0
V    1 0
V    2 1
V    3 2
V    4 3
V    5 4
V    6 5
V    7 6
V    8 7
V    9 8
V   10 9
V   11 10
V   12 11
V   13 12
V   14 13
V   15 14
V   16 15
V   17 16
M  END
> <DSSTox_RID>
59734

> <DSSTox_CID>
69

> <DSSTox_CID_Parent>
69

> <DSSTox_Generic_SID>
20069

> <DSSTox_FileID>
6_TXCST2_v1a

> <STRUCTURE_Formula>
C14H15N3

> <STRUCTURE_MolecularWeight>
225.289

> <STRUCTURE_ChemicalType>
defined organic

> <STRUCTURE_TestedForm_DefinedOrganic>
parent

> <STRUCTURE_Shown>
tested chemical

> <TestSubstance_ChemicalName>
o-Aminoazotoluene

> <TestSubstance_CASRN>
97-56-3

> <TestSubstance_Description>
single chemical compound

> <ChemicalNote>
C.I. Solvent Yellow 3

> <STRUCTURE_ChemicalName_IUPAC>
2-methyl-4-[(E)-(2-methylphenyl)diazenyl]aniline

> <STRUCTURE_SMILES>
CC1=C(C=CC=C1)/N=N/C2=CC(=C(C=C2)N)C

> <STRUCTURE_Parent_SMILES>
CC1=C(C=CC=C1)/N=N/C2=CC(=C(C=C2)N)C

> <STRUCTURE_InChIS>
InChI=1S/C14H15N3/c1-10-5-3-4-6-14(10)17-16-12-7-8-13(15)11(2)9-12/h3-9H,15H2,1-2H3/b17-16+

> <STRUCTURE_InChIKey>
PFRYFZZSECNQOL-WUKNDPDISA-N

> <Substance_modify_yyyymmdd>
20080429

> <Coord_Metals>
0

> <Index>
6

> <Canonical_Smiles>
Cc1ccccc1N=Nc2ccc(N)c(C)c2

> <Molecular_Weight>
225.28899

> <Frequency>
1

$$$$

  SciTegic          2D

 23 23  0  0  0  0            999 V2000
    3.8933   -3.7570    0.0000 C   0  0
    2.5951   -3.0039    0.0000 C   0  0
    2.5973   -1.5031    0.0000 C   0  0
    1.2990   -0.7500    0.0000 C   0  0
    1.2990    0.7500    0.0000 C   0  0
    0.0000    1.5000    0.0000 C   0  0
   -1.2990    0.7500    0.0000 C   0  0
   -1.2990   -0.7500    0.0000 C   0  0
    0.0000   -1.5000    0.0000 C   0  0
   -2.6003    1.4977    0.0000 O   0  0
   -3.8990    0.7455    0.0000 C   0  0
    3.8919   -4.7570    0.0000 H   0  0
    4.7602   -3.2585    0.0000 H   0  0
    4.7586   -4.2584    0.0000 H   0  0
    1.7282   -3.5024    0.0000 H   0  0
    3.4642   -1.0046    0.0000 H   0  0
    2.1651    1.2500    0.0000 H   0  0
    0.0000    2.5000    0.0000 H   0  0
   -2.1651   -1.2500    0.0000 H   0  0
    0.0000   -2.5000    0.0000 H   0  0
   -4.7661    1.2437    0.0000 H   0  0
   -3.8973   -0.2545    0.0000 H   0  0
   -4.7641    0.2438    0.0000 H   0  0
  2  1  1  0
  2  3  2  0
  3  4  1  0
  4  5  2  0
  4  9  1  0
  5  6  1  0
  6  7  2  0
  7  8  1  0
  7 10  1  0
  8  9  2  0
 10 11  1  0
  1 12  1  0
  1 13  1  0
  1 14  1  0
  2 15  1  0
  3 16  1  0
  5 17  1  0
  6 18  1  0
  8 19  1  0
  9 20  1  0
 11 21  1  0
 11 22  1  0
 11 23  1  0
V    1 0
V    2 1
V    3 2
V    4 3
V    5 4
V    6 5
V    7 6
V    8 7
V    9 8
V   10 9
V   11 10
M  END
> <DSSTox_RID>
62394

> <DSSTox_CID>
87

> <DSSTox_CID_Parent>
87

> <DSSTox_Generic_SID>
20087

> <DSSTox_FileID>
7_TXCST2_v1a

> <STRUCTURE_Formula>
C10H12O

> <STRUCTURE_MolecularWeight>
148.2017

> <STRUCTURE_ChemicalType>
defined organic

> <STRUCTURE_TestedForm_DefinedOrganic>
parent

> <STRUCTURE_Shown>
tested chemical

> <TestSubstance_ChemicalName>
(E)-Anethole

> <TestSubstance_CASRN>
4180-23-8

> <TestSubstance_Description>
single chemical compound

> <ChemicalNote>
stereochem

> <STRUCTURE_ChemicalName_IUPAC>
1-(methyloxy)-4-[(1E)-prop-1-en-1-yl]benzene

> <STRUCTURE_SMILES>
C/C=C/C1=CC=C(C=C1)OC

> <STRUCTURE_Parent_SMILES>
C/C=C/C1=CC=C(C=C1)OC

> <STRUCTURE_InChIS>
InChI=1S/C10H12O/c1-3-4-9-5-7-10(11-2)8-6-9/h3-8H,1-2H3/b4-3+

> <STRUCTURE_InChIKey>
RUVINXPYWBROJD-ONEGZZNKSA-N

> <Substance_modify_yyyymmdd>
20080429

> <Coord_Metals>
0

> <Index>
7

> <Canonical_Smiles>
COc1ccc(C=CC)cc1

> <Molecular_Weight>
148.20167

> <Frequency>
1

$$$$

  SciTegic          2D

 21 22  0  0  0  0            999 V2000
    2.3383   -1.3500    0.0000 Cl  0  0
    1.2990   -0.7500    0.0000 C   0  0
    1.2990    0.7500    0.0000 N   0  0
    0.0000    1.5000    0.0000 C   0  0
   -1.2990    0.7500    0.0000 N   0  0
   -1.2990   -0.7500    0.0000 C   0  0
    0.0000   -1.5000    0.0000 N   0  0
   -2.5972   -1.5031    0.0000 N   0  0
   -2.5951   -3.0039    0.0000 C   0  0
   -3.8915   -3.7585    0.0000 C   0  0
   -3.8863   -5.2585    0.0000 C   0  0
   -2.5847   -6.0040    0.0000 C   0  0
   -1.2883   -5.2495    0.0000 C   0  0
   -1.2935   -3.7495    0.0000 C   0  0
   -0.2563   -3.1459    0.0000 Cl  0  0
    0.0000    2.7000    0.0000 Cl  0  0
   -3.4641   -1.0046    0.0000 H   0  0
   -4.7593   -3.2615    0.0000 H   0  0
   -4.7506   -5.7615    0.0000 H   0  0
   -2.5812   -7.0040    0.0000 H   0  0
   -0.4205   -5.7465    0.0000 H   0  0
  1  2  1  0
  2  3  2  0
  2  7  1  0
  3  4  1  0
  4  5  2  0
  4 16  1  0
  5  6  1  0
  6  7  2  0
  6  8  1  0
  8  9  1  0
  9 10  2  0
  9 14  1  0
 10 11  1  0
 11 12  2  0
 12 13  1  0
 13 14  2  0
 14 15  1  0
  8 17  1  0
 10 18  1  0
 11 19  1  0
 12 20  1  0
 13 21  1  0
V    1 0
V    2 1
V    3 2
V    4 3
V    5 4
V    6 5
V    7 6
V    8 7
V    9 8
V   10 9
V   11 10
V   12 11
V   13 12
V   14 13
V   15 14
V   16 15
M  END
> <DSSTox_RID>
65486

> <DSSTox_CID>
89

> <DSSTox_CID_Parent>
89

> <DSSTox_Generic_SID>
20089

> <DSSTox_FileID>
8_TXCST2_v1a

> <STRUCTURE_Formula>
C9H5Cl3N4

> <STRUCTURE_MolecularWeight>
275.5218

> <STRUCTURE_ChemicalType>
defined organic

> <STRUCTURE_TestedForm_DefinedOrganic>
parent

> <STRUCTURE_Shown>
tested chemical

> <TestSubstance_ChemicalName>
Anilazine

> <TestSubstance_CASRN>
101-05-3

> <TestSubstance_Description>
single chemical compound

> <Source_ChemicalNote>
tested chemical contained 0.058% water (0.01 moles H2O)

> <STRUCTURE_ChemicalName_IUPAC>
4,6-dichloro-N-(2-chlorophenyl)-1,3,5-triazin-2-amine

> <STRUCTURE_SMILES>
ClC1=NC(=NC(=N1)NC2=CC=CC=C2Cl)Cl

> <STRUCTURE_Parent_SMILES>
ClC1=NC(=NC(=N1)NC2=CC=CC=C2Cl)Cl

> <STRUCTURE_InChIS>
InChI=1S/C9H5Cl3N4/c10-5-3-1-2-4-6(5)13-9-15-7(11)14-8(12)16-9/h1-4H,(H,13,14,15,16)

> <STRUCTURE_InChIKey>
IMHBYKMAHXWHRP-UHFFFAOYSA-N

> <Substance_modify_yyyymmdd>
20080429

> <Coord_Metals>
0

> <Index>
8

> <Canonical_Smiles>
Clc1ccccc1Nc2nc(Cl)nc(Cl)n2

> <Molecular_Weight>
275.5218

> <Frequency>
1

$$$$

  SciTegic          2D

 20 20  0  0  0  0            999 V2000
    0.7500   -1.0323    0.0000 C   0  0
    1.2135    0.3943    0.0000 O   0  0
   -0.7500   -1.0323    0.0000 C   0  0
    0.0000    1.2760    0.0000 C   0  0
   -1.2135    0.3943    0.0000 C   0  0
   -1.4553   -2.0031    0.0000 O   0  0
   -2.6375    0.8602    0.0000 O   0  0
    0.0031    2.7742    0.0000 O   0  0
    2.2267   -0.8547    0.0000 C   0  0
    3.1085   -2.0691    0.0000 C   0  0
    2.8379    0.5160    0.0000 O   0  0
    4.6013   -1.9136    0.0000 O   0  0
    0.3298   -1.9397    0.0000 H   0  0
   -2.8440    1.8387    0.0000 H   0  0
    0.8698    3.2730    0.0000 H   0  0
    3.2213   -0.7506    0.0000 H   0  0
    3.6957   -2.8786    0.0000 H   0  0
    2.7012   -2.9824    0.0000 H   0  0
    3.8325    0.6205    0.0000 H   0  0
    5.1888   -2.7228    0.0000 H   0  0
  1  2  1  0
  1  3  1  0
  9  1  1  0
  2  4  1  0
  3  5  1  0
  3  6  2  0
  4  5  2  0
  4  8  1  0
  5  7  1  0
  9 10  1  0
  9 11  1  0
 10 12  1  0
  1 13  1  0
  7 14  1  0
  8 15  1  0
  9 16  1  0
 10 17  1  0
 10 18  1  0
 11 19  1  0
 12 20  1  0
V    1 0
V    2 1
V    3 2
V    4 3
V    5 4
V    6 5
V    7 6
V    8 7
V    9 8
V   10 9
V   11 10
V   12 11
M  END
> <DSSTox_RID>
59737
65708

> <DSSTox_CID>
105
570

> <DSSTox_CID_Parent>
106
6537

> <DSSTox_Generic_SID>
20105
20570

> <DSSTox_FileID>
9_TXCST2_v1a
100_TXCST2_v1a

> <STRUCTURE_Formula>
C6H7NaO6
C6H7NaO6

> <STRUCTURE_MolecularWeight>
198.1059
198.1059

> <STRUCTURE_ChemicalType>
defined organic
defined organic

> <STRUCTURE_TestedForm_DefinedOrganic>
salt Na
salt Na

> <STRUCTURE_Shown>
tested chemical
tested chemical

> <TestSubstance_ChemicalName>
Sodium L-ascorbate
Sodium erythorbate

> <TestSubstance_CASRN>
134-03-2
6381-77-7

> <TestSubstance_Description>
single chemical compound
single chemical compound

> <ChemicalNote>
stereochem; parent [50-81-7]
stereochem; parent [89-65-6]

> <Source_ChemicalNote>
tested chemical contained 0.044% water

> <STRUCTURE_ChemicalName_IUPAC>
sodium (2R)-2-(1,2-dihydroxyethyl)-4-hydroxy-5-oxo-2,5-dihydrofuran-3-olate
sodium (2R)-2-[(2R)-3,4-dihydroxy-5-oxo-2,5-dihydrofuran-2-yl]-2-hydroxyethanolate

> <STRUCTURE_SMILES>
[O-]C([C@H]([C@H](O)CO)O1)=C(O)C1=O.[Na+]
[Na+].OC=1C(=O)O[C@H]([C@H](O)C[O-])C=1O

> <STRUCTURE_Parent_SMILES>
OC([C@H]([C@H](O)CO)O1)=C(O)C1=O
OC=1C(=O)O[C@@H](C=1O)[C@H](O)CO

> <STRUCTURE_InChIS>
InChI=1S/C6H8O6.Na/c7-1-2(8)5-3(9)4(10)6(11)12-5;/h2,5,7-10H,1H2;/q;+1/p-1
InChI=1S/C6H7O6.Na/c7-1-2(8)5-3(9)4(10)6(11)12-5;/h2,5,8-10H,1H2;/q-1;+1/t2-,5-;/m1./s1

> <STRUCTURE_InChIKey>
PPASLZSBLFJQEF-UHFFFAOYSA-M
RBWSWDPRDBEWCR-RKJRWTFHSA-N

> <Substance_modify_yyyymmdd>
20080429
20080429

> <Coord_Metals>
0
0

> <Index>
9
100

> <Canonical_Smiles>
OCC(O)C1OC(=C(O)C1=O)O

> <Molecular_Weight>
176.12411
176.12411

> <Frequency>
2

$$$$

  SciTegic          2D

 21 21  0  0  0  0            999 V2000
    2.5951   -3.0039    0.0000 O   0  0
    2.5973   -1.5031    0.0000 C   0  0
    3.6375   -0.9049    0.0000 O   0  0
    1.2990   -0.7500    0.0000 C   0  0
    1.2990    0.7500    0.0000 C   0  0
    0.0000    1.5000    0.0000 C   0  0
   -1.2990    0.7500    0.0000 C   0  0
   -1.2990   -0.7500    0.0000 C   0  0
    0.0000   -1.5000    0.0000 C   0  0
    2.5972    1.5031    0.0000 O   0  0
    2.5951    3.0039    0.0000 C   0  0
    1.5548    3.6021    0.0000 O   0  0
    3.8933    3.7570    0.0000 C   0  0
    3.4601   -3.5057    0.0000 H   0  0
    0.0000    2.5000    0.0000 H   0  0
   -2.1651    1.2500    0.0000 H   0  0
   -2.1651   -1.2500    0.0000 H   0  0
    0.0000   -2.5000    0.0000 H   0  0
    3.8919    4.7570    0.0000 H   0  0
    4.7585    4.2584    0.0000 H   0  0
    4.7602    3.2585    0.0000 H   0  0
  1  2  1  0
  2  3  2  0
  2  4  1  0
  4  5  2  0
  4  9  1  0
  5  6  1  0
  5 10  1  0
  6  7  2  0
  7  8  1  0
  8  9  2  0
 10 11  1  0
 11 12  2  0
 11 13  1  0
  1 14  1  0
  6 15  1  0
  7 16  1  0
  8 17  1  0
  9 18  1  0
 13 19  1  0
 13 20  1  0
 13 21  1  0
V    1 0
V    2 1
V    3 2
V    4 3
V    5 4
V    6 5
V    7 6
V    8 7
V    9 8
V   10 9
V   11 10
V   12 11
V   13 12
M  END
> <DSSTox_RID>
65337

> <DSSTox_CID>
108

> <DSSTox_CID_Parent>
108

> <DSSTox_Generic_SID>
20108

> <DSSTox_FileID>
10_TXCST2_v1a

> <STRUCTURE_Formula>
C9H8O4

> <STRUCTURE_MolecularWeight>
180.1574

> <STRUCTURE_ChemicalType>
defined organic

> <STRUCTURE_TestedForm_DefinedOrganic>
parent

> <STRUCTURE_Shown>
tested chemical

> <TestSubstance_ChemicalName>
Aspirin

> <TestSubstance_CASRN>
50-78-2

> <TestSubstance_Description>
single chemical compound

> <STRUCTURE_ChemicalName_IUPAC>
2-(acetyloxy)benzoic acid

> <STRUCTURE_SMILES>
OC(=O)C1=C(C=CC=C1)OC(=O)C

> <STRUCTURE_Parent_SMILES>
OC(=O)C1=C(C=CC=C1)OC(=O)C

> <STRUCTURE_InChIS>
InChI=1S/C9H8O4/c1-6(10)13-8-5-3-2-4-7(8)9(11)12/h2-5H,1H3,(H,11,12)

> <STRUCTURE_InChIKey>
BSYNRYMUTXBXSQ-UHFFFAOYSA-N

> <Substance_modify_yyyymmdd>
20080429

> <Coord_Metals>
0

> <Index>
10

> <Canonical_Smiles>
CC(=O)Oc1ccccc1C(=O)O

> <Molecular_Weight>
180.15741

> <Frequency>
1

$$$$

  SciTegic          2D

 28 28  0  0  0  0            999 V2000
    2.3383   -1.3500    0.0000 Cl  0  0
    1.2990   -0.7500    0.0000 C   0  0
    1.2990    0.7500    0.0000 N   0  0
    0.0000    1.5000    0.0000 C   0  0
   -1.2990    0.7500    0.0000 N   0  0
   -1.2990   -0.7500    0.0000 C   0  0
    0.0000   -1.5000    0.0000 N   0  0
   -2.5972   -1.5031    0.0000 N   0  0
   -2.5951   -3.0039    0.0000 C   0  0
   -3.8933   -3.7570    0.0000 C   0  0
   -1.2941   -3.7520    0.0000 C   0  0
   -0.0031    3.0008    0.0000 N   0  0
   -1.3039    3.7494    0.0000 C   0  0
   -1.3070    5.2502    0.0000 C   0  0
   -3.4641   -1.0046    0.0000 H   0  0
   -3.4620   -2.5054    0.0000 H   0  0
   -3.8919   -4.7570    0.0000 H   0  0
   -4.7585   -4.2584    0.0000 H   0  0
   -4.7602   -3.2585    0.0000 H   0  0
   -0.4286   -3.2511    0.0000 H   0  0
   -0.4275   -4.2509    0.0000 H   0  0
   -1.2927   -4.7520    0.0000 H   0  0
    0.8620    3.5023    0.0000 H   0  0
   -1.3023    2.7494    0.0000 H   0  0
   -2.1691    3.2479    0.0000 H   0  0
   -2.1738    5.7490    0.0000 H   0  0
   -1.3086    6.2502    0.0000 H   0  0
   -0.4419    5.7517    0.0000 H   0  0
  1  2  1  0
  2  3  2  0
  2  7  1  0
  3  4  1  0
  4  5  2  0
  4 12  1  0
  5  6  1  0
  6  7  2  0
  6  8  1  0
  8  9  1  0
  9 10  1  0
  9 11  1  0
 12 13  1  0
 13 14  1  0
  8 15  1  0
  9 16  1  0
 10 17  1  0
 10 18  1  0
 10 19  1  0
 11 20  1  0
 11 21  1  0
 11 22  1  0
 12 23  1  0
 13 24  1  0
 13 25  1  0
 14 26  1  0
 14 27  1  0
 14 28  1  0
V    1 0
V    2 1
V    3 2
V    4 3
V    5 4
V    6 5
V    7 6
V    8 7
V    9 8
V   10 9
V   11 10
V   12 11
V   13 12
V   14 13
M  END
> <DSSTox_RID>
65862

> <DSSTox_CID>
112

> <DSSTox_CID_Parent>
112

> <DSSTox_Generic_SID>
20112

> <DSSTox_FileID>
11_TXCST2_v1a

> <STRUCTURE_Formula>
C8H14ClN5

> <STRUCTURE_MolecularWeight>
215.6833

> <STRUCTURE_ChemicalType>
defined organic

> <STRUCTURE_TestedForm_DefinedOrganic>
parent

> <STRUCTURE_Shown>
tested chemical

> <TestSubstance_ChemicalName>
Atrazine

> <TestSubstance_CASRN>
1912-24-9

> <TestSubstance_Description>
single chemical compound

> <Source_ChemicalNote>
tested chemical contained 0.04% water

> <STRUCTURE_ChemicalName_IUPAC>
6-chloro-N-ethyl-N'-isopropyl-1,3,5-triazine-2,4-diamine

> <STRUCTURE_SMILES>
ClC1=NC(=NC(=N1)NC(C)C)NCC

> <STRUCTURE_Parent_SMILES>
ClC1=NC(=NC(=N1)NC(C)C)NCC

> <STRUCTURE_InChIS>
InChI=1S/C8H14ClN5/c1-4-10-7-12-6(9)13-8(14-7)11-5(2)3/h5H,4H2,1-3H3,(H2,10,11,12,13,14)

> <STRUCTURE_InChIKey>
MXWJVTOOROXGIU-UHFFFAOYSA-N

> <Substance_modify_yyyymmdd>
20080429

> <Coord_Metals>
0

> <Index>
11

> <Canonical_Smiles>
CCNc1nc(Cl)nc(NC(C)C)n1

> <Molecular_Weight>
215.68325

> <Frequency>
1

$$$$

  SciTegic          2D

 26 28  0  0  0  0            999 V2000
   -2.3155    0.7475    0.0000 N   0  0
   -2.3155   -0.7475    0.0000 C   0  0
   -1.0028   -1.5132    0.0000 N   0  0
    0.2917   -0.7475    0.0000 C   0  0
    0.2917    0.7475    0.0000 C   0  0
   -1.0028    1.5132    0.0000 C   0  0
   -1.5107    2.9252    0.0000 S   0  0
   -0.5424    4.0719    0.0000 C   0  0
   -0.9119    5.5126    0.0000 N   0  0
   -2.3024    6.0703    0.0000 C   0  0
    0.3642    6.3009    0.0000 C   0  0
    1.5083    5.3308    0.0000 N   0  0
    0.9392    3.9429    0.0000 C   0  0
    1.7194    2.6639    0.0000 N   0  0
    2.9191    2.6921    0.0000 O   0  0
    1.1443    1.6107    0.0000 O   0  0
    1.7138    1.2033    0.0000 N   0  0
    2.5889    0.0182    0.0000 C   0  0
    1.7138   -1.2033    0.0000 N   0  0
   -3.1826    1.2456    0.0000 H   0  0
   -3.1826   -1.2456    0.0000 H   0  0
   -3.0892    5.4531    0.0000 H   0  0
   -2.4438    7.0602    0.0000 H   0  0
   -3.2304    6.4430    0.0000 H   0  0
    0.4391    7.2981    0.0000 H   0  0
    3.5889    0.0254    0.0000 H   0  0
  1  2  1  0
  1  6  1  0
  2  3  2  0
  3  4  1  0
  4  5  1  0
  4 19  2  0
  5  6  2  0
  5 17  1  0
  6  7  1  0
  7  8  1  0
  8  9  1  0
  8 13  2  0
  9 10  1  0
  9 11  1  0
 11 12  2  0
 12 13  1  0
 13 14  1  0
 14 15  2  0
 14 16  2  0
 17 18  2  0
 18 19  1  0
  1 20  1  0
  2 21  1  0
 10 22  1  0
 10 23  1  0
 10 24  1  0
 11 25  1  0
 18 26  1  0
V    1 0
V    2 1
V    3 2
V    4 3
V    5 4
V    6 5
V    7 6
V    8 7
V    9 8
V   10 9
V   11 10
V   12 11
V   13 12
V   14 13
V   15 14
V   16 15
V   17 16
V   18 17
V   19 18
M  END
> <DSSTox_RID>
60311

> <DSSTox_CID>
119

> <DSSTox_CID_Parent>
119

> <DSSTox_Generic_SID>
20119

> <DSSTox_FileID>
12_TXCST2_v1a

> <STRUCTURE_Formula>
C9H7N7O2S

> <STRUCTURE_MolecularWeight>
277.2626

> <STRUCTURE_ChemicalType>
defined organic

> <STRUCTURE_TestedForm_DefinedOrganic>
parent

> <STRUCTURE_Shown>
tested chemical

> <TestSubstance_ChemicalName>
Azathioprine

> <TestSubstance_CASRN>
446-86-6

> <TestSubstance_Description>
single chemical compound

> <ChemicalNote>
tautomers

> <Source_ChemicalNote>
tested chemical contained 0.2% water (0.03 moles H2O)

> <STRUCTURE_ChemicalName_IUPAC>
6-[(1-methyl-4-nitro-1H-imidazol-5-yl)thio]-7H-purine

> <STRUCTURE_SMILES>
[O-][N+](C(N=C3)=C(SC1=NC=NC2=C1NC=N2)N3C)=O

> <STRUCTURE_Parent_SMILES>
[O-][N+](C(N=C3)=C(SC1=NC=NC2=C1NC=N2)N3C)=O

> <STRUCTURE_InChIS>
InChI=1S/C9H7N7O2S/c1-15-4-14-7(16(17)18)9(15)19-8-5-6(11-2-10-5)12-3-13-8/h2-4H,1H3,(H,10,11,12,13)

> <STRUCTURE_InChIKey>
LMEKQMALGUDUQG-UHFFFAOYSA-N

> <Substance_modify_yyyymmdd>
20080429

> <Coord_Metals>
0

> <Index>
12

> <Canonical_Smiles>
Cn1cnc(c1Sc2[nH]cnc3ncnc23)N(=O)=O

> <Molecular_Weight>
277.26258

> <Frequency>
1

$$$$

  SciTegic          2D

  4  3  0  0  0  0            999 V2000
    0.2606    0.1503    0.0000 N   0  0
    1.3000    0.7500    0.0000 N   0  0
    2.6000    0.0000    0.0000 N   0  0
    3.4662    0.4997    0.0000 H   0  0
  1  2  3  0
  2  3  2  0
  3  4  1  0
V    1 1
V    2 2
V    3 3
M  END
> <DSSTox_RID>
62283

> <DSSTox_CID>
121

> <DSSTox_Generic_SID>
20121

> <DSSTox_FileID>
13_TXCST2_v1a

> <STRUCTURE_Formula>
N3Na

> <STRUCTURE_MolecularWeight>
65.0099

> <STRUCTURE_ChemicalType>
inorganic

> <STRUCTURE_Shown>
tested chemical

> <TestSubstance_ChemicalName>
Sodium azide

> <TestSubstance_CASRN>
26628-22-8

> <TestSubstance_Description>
single chemical compound

> <STRUCTURE_ChemicalName_IUPAC>
sodium azide

> <STRUCTURE_SMILES>
[Na+].[N-]=[N+]=[N-]

> <STRUCTURE_InChIS>
InChI=1S/N3.Na/c1-3-2;/q-1;+1

> <STRUCTURE_InChIKey>
PXIPVTKHYLBLMZ-UHFFFAOYSA-N

> <Substance_modify_yyyymmdd>
20080429

> <Coord_Metals>
0

> <Index>
13

> <Canonical_Smiles>
N=N#N

> <Molecular_Weight>
43.02804

> <Frequency>
1

$$$$

  SciTegic          2D

 31 32  0  0  0  0            999 V2000
    1.2964   -2.6973    0.0000 O   0  0
    1.2964   -1.4973    0.0000 C   0  0
    0.0000   -0.7486    0.0000 C   0  0
    0.0000    0.7486    0.0000 C   0  0
   -1.2964    1.4973    0.0000 C   0  0
   -2.6111    0.7486    0.0000 C   0  0
   -2.6111   -0.7486    0.0000 C   0  0
   -1.2964   -1.4973    0.0000 C   0  0
    1.2964    1.4973    0.0000 N   0  0
    2.5929    0.7486    0.0000 N   0  0
    2.5929   -0.7486    0.0000 N   0  0
    3.8926   -1.4991    0.0000 C   0  0
    3.8936   -2.9999    0.0000 S   0  0
    5.1933   -3.7503    0.0000 P   0  0
    5.1930   -4.9503    0.0000 S   0  0
    6.4936   -3.0007    0.0000 O   0  0
    7.7933   -3.7511    0.0000 C   0  0
    3.8692   -4.5167    0.0000 O   0  0
    3.8699   -6.0176    0.0000 C   0  0
   -1.2934    2.4973    0.0000 H   0  0
   -3.4756    1.2512    0.0000 H   0  0
   -3.4756   -1.2512    0.0000 H   0  0
   -1.2934   -2.4973    0.0000 H   0  0
    4.7585   -0.9988    0.0000 H   0  0
    4.7589   -1.9987    0.0000 H   0  0
    8.6597   -3.2517    0.0000 H   0  0
    7.7930   -4.7511    0.0000 H   0  0
    8.6591   -4.2515    0.0000 H   0  0
    3.0045   -6.5185    0.0000 H   0  0
    3.8709   -7.0176    0.0000 H   0  0
    4.7364   -6.5169    0.0000 H   0  0
  1  2  2  0
  2  3  1  0
  2 11  1  0
  3  4  2  0
  3  8  1  0
  4  5  1  0
  4  9  1  0
  5  6  2  0
  6  7  1  0
  7  8  2  0
  9 10  2  0
 10 11  1  0
 11 12  1  0
 12 13  1  0
 13 14  1  0
 14 15  2  0
 14 16  1  0
 14 18  1  0
 16 17  1  0
 18 19  1  0
  5 20  1  0
  6 21  1  0
  7 22  1  0
  8 23  1  0
 12 24  1  0
 12 25  1  0
 17 26  1  0
 17 27  1  0
 17 28  1  0
 19 29  1  0
 19 30  1  0
 19 31  1  0
V    1 0
V    2 1
V    3 2
V    4 3
V    5 4
V    6 5
V    7 6
V    8 7
V    9 8
V   10 9
V   11 10
V   12 11
V   13 12
V   14 13
V   15 14
V   16 15
V   17 16
V   18 17
V   19 18
M  END
> <DSSTox_RID>
66540

> <DSSTox_CID>
122

> <DSSTox_CID_Parent>
122

> <DSSTox_Generic_SID>
20122

> <DSSTox_FileID>
14_TXCST2_v1a

> <STRUCTURE_Formula>
C10H12N3O3PS2

> <STRUCTURE_MolecularWeight>
317.3243

> <STRUCTURE_ChemicalType>
defined organic

> <STRUCTURE_TestedForm_DefinedOrganic>
parent

> <STRUCTURE_Shown>
tested chemical

> <TestSubstance_ChemicalName>
Azinphos-methyl

> <TestSubstance_CASRN>
86-50-0

> <TestSubstance_Description>
single chemical compound

> <STRUCTURE_ChemicalName_IUPAC>
O,O-dimethyl S-[(4-oxo-1,2,3-benzotriazin-3(4H)-yl)methyl] dithiophosphate

> <STRUCTURE_SMILES>
O=C1C2=C(C=CC=C2)N=NN1CSP(=S)(OC)OC

> <STRUCTURE_Parent_SMILES>
O=C1C2=C(C=CC=C2)N=NN1CSP(=S)(OC)OC

> <STRUCTURE_InChIS>
InChI=1S/C10H12N3O3PS2/c1-15-17(18,16-2)19-7-13-10(14)8-5-3-4-6-9(8)11-12-13/h3-6H,7H2,1-2H3

> <STRUCTURE_InChIKey>
CJJOSEISRRTUQB-UHFFFAOYSA-N

> <Substance_modify_yyyymmdd>
20080429

> <Coord_Metals>
0

> <Index>
14

> <Canonical_Smiles>
COP(=S)(OC)SCN1N=Nc2ccccc2C1=O

> <Molecular_Weight>
317.32434

> <Frequency>
1

$$$$

  SciTegic          2D

 24 25  0  0  0  0            999 V2000
    2.5951   -3.0039    0.0000 N   0  0
    2.5973   -1.5031    0.0000 N   0  0
    1.2990   -0.7500    0.0000 C   0  0
    1.2990    0.7500    0.0000 C   0  0
    0.0000    1.5000    0.0000 C   0  0
   -1.2990    0.7500    0.0000 C   0  0
   -1.2990   -0.7500    0.0000 C   0  0
    0.0000   -1.5000    0.0000 C   0  0
    3.8933   -3.7570    0.0000 C   0  0
    3.8934   -5.2570    0.0000 C   0  0
    5.1924   -6.0070    0.0000 C   0  0
    6.4915   -5.2571    0.0000 C   0  0
    6.4915   -3.7571    0.0000 C   0  0
    5.1925   -3.0070    0.0000 C   0  0
    2.1651    1.2500    0.0000 H   0  0
    0.0000    2.5000    0.0000 H   0  0
   -2.1651    1.2500    0.0000 H   0  0
   -2.1651   -1.2500    0.0000 H   0  0
    0.0000   -2.5000    0.0000 H   0  0
    3.0274   -5.7570    0.0000 H   0  0
    5.1924   -7.0070    0.0000 H   0  0
    7.3575   -5.7571    0.0000 H   0  0
    7.3575   -3.2571    0.0000 H   0  0
    5.1925   -2.0070    0.0000 H   0  0
  1  2  2  0
  1  9  1  0
  2  3  1  0
  3  4  2  0
  3  8  1  0
  4  5  1  0
  5  6  2  0
  6  7  1  0
  7  8  2  0
  9 10  2  0
  9 14  1  0
 10 11  1  0
 11 12  2  0
 12 13  1  0
 13 14  2  0
  4 15  1  0
  5 16  1  0
  6 17  1  0
  7 18  1  0
  8 19  1  0
 10 20  1  0
 11 21  1  0
 12 22  1  0
 13 23  1  0
 14 24  1  0
V    1 0
V    2 1
V    3 2
V    4 3
V    5 4
V    6 5
V    7 6
V    8 7
V    9 8
V   10 9
V   11 10
V   12 11
V   13 12
V   14 13
M  END
> <DSSTox_RID>
66797

> <DSSTox_CID>
123

> <DSSTox_CID_Parent>
123

> <DSSTox_Generic_SID>
20123

> <DSSTox_FileID>
15_TXCST2_v1a

> <STRUCTURE_Formula>
C12H10N2

> <STRUCTURE_MolecularWeight>
182.2212

> <STRUCTURE_ChemicalType>
defined organic

> <STRUCTURE_TestedForm_DefinedOrganic>
parent

> <STRUCTURE_Shown>
tested chemical

> <TestSubstance_ChemicalName>
Azobenzene

> <TestSubstance_CASRN>
103-33-3

> <TestSubstance_Description>
single chemical compound

> <STRUCTURE_ChemicalName_IUPAC>
(E)-diphenyldiazene

> <STRUCTURE_SMILES>
C1(/N=N/C2=CC=CC=C2)=CC=CC=C1

> <STRUCTURE_Parent_SMILES>
C1(/N=N/C2=CC=CC=C2)=CC=CC=C1

> <STRUCTURE_InChIS>
InChI=1S/C12H10N2/c1-3-7-11(8-4-1)13-14-12-9-5-2-6-10-12/h1-10H/b14-13+

> <STRUCTURE_InChIKey>
DMLAVOWQYNRWNQ-BUHFOSPRSA-N

> <Substance_modify_yyyymmdd>
20080429

> <Coord_Metals>
0

> <Index>
15

> <Canonical_Smiles>
c1ccc(cc1)N=Nc2ccccc2

> <Molecular_Weight>
182.22119

> <Frequency>
1

$$$$

  SciTegic          2D

 32 33  0  0  0  0            999 V2000
    1.1207   -1.2398    0.0000 N   0  0
    0.1563   -2.3886    0.0000 C   0  0
   -1.3209   -2.1278    0.0000 N   0  0
    0.6080    0.1699    0.0000 C   0  0
   -0.8692    0.4307    0.0000 C   0  0
   -1.8336   -0.7182    0.0000 C   0  0
    0.5664   -3.5164    0.0000 O   0  0
   -3.0153   -0.5095    0.0000 O   0  0
   -1.3821    1.8411    0.0000 C   0  0
    2.5987   -1.5006    0.0000 C   0  0
    4.1697    0.2696    0.0000 C   0  0
    2.7022   -0.0406    0.0000 O   0  0
    4.9183   -1.0302    0.0000 C   0  0
    3.9134   -2.1439    0.0000 C   0  0
    4.6170   -3.6129    0.0000 N   0  0
    3.9110   -4.5832    0.0000 N   0  0
    5.5000   -2.3993    0.0000 N   0  0
    3.2776    1.4599    0.0000 C   0  0
    3.8448    2.8494    0.0000 O   0  0
   -1.9639   -2.8937    0.0000 H   0  0
    1.2510    0.9358    0.0000 H   0  0
   -0.7397    2.6074    0.0000 H   0  0
   -2.3670    2.0147    0.0000 H   0  0
   -1.7244    2.7807    0.0000 H   0  0
    2.5966   -2.5006    0.0000 H   0  0
    5.1659    0.3573    0.0000 H   0  0
    5.4941   -0.2126    0.0000 H   0  0
    3.1490   -2.7887    0.0000 H   0  0
    4.8628   -2.4578    0.0000 H   0  0
    2.6649    2.2502    0.0000 H   0  0
    2.2868    1.3246    0.0000 H   0  0
    3.2324    3.6400    0.0000 H   0  0
  1  2  1  0
  1  4  1  0
 10  1  1  0
  2  3  1  0
  2  7  2  0
  3  6  1  0
  4  5  2  0
  5  6  1  0
  5  9  1  0
  6  8  2  0
 10 12  1  0
 10 14  1  0
 11 12  1  0
 11 13  1  0
 11 18  1  0
 13 14  1  0
 13 17  1  0
 15 17  2  0
 15 16  3  0
 18 19  1  0
  3 20  1  0
  4 21  1  0
  9 22  1  0
  9 23  1  0
  9 24  1  0
 10 25  1  0
 11 26  1  0
 13 27  1  0
 14 28  1  0
 14 29  1  0
 18 30  1  0
 18 31  1  0
 19 32  1  0
V    1 0
V    2 1
V    3 2
V    4 3
V    5 4
V    6 5
V    7 6
V    8 7
V    9 8
V   10 9
V   11 10
V   12 11
V   13 12
V   14 13
V   15 14
V   16 15
V   17 16
V   18 17
V   19 18
M  END
> <DSSTox_RID>
59752

> <DSSTox_CID>
127

> <DSSTox_CID_Parent>
127

> <DSSTox_Generic_SID>
20127

> <DSSTox_FileID>
16_TXCST2_v1a

> <STRUCTURE_Formula>
C10H13N5O4

> <STRUCTURE_MolecularWeight>
267.2413

> <STRUCTURE_ChemicalType>
defined organic

> <STRUCTURE_TestedForm_DefinedOrganic>
parent

> <STRUCTURE_Shown>
tested chemical

> <TestSubstance_ChemicalName>
3'-Azido-3'-deoxythymidine

> <TestSubstance_CASRN>
30516-87-1

> <TestSubstance_Description>
single chemical compound

> <ChemicalNote>
stereochem; AZT

> <STRUCTURE_ChemicalName_IUPAC>
3'-azido-3'-deoxythymidine

> <STRUCTURE_SMILES>
O=C(N1)N([C@@H]2O[C@H](CO)[C@@H](N=[N+]=[N-])C2)C=C(C)C1=O

> <STRUCTURE_Parent_SMILES>
O=C(N1)N([C@@H]2O[C@H](CO)[C@@H](N=[N+]=[N-])C2)C=C(C)C1=O

> <STRUCTURE_InChIS>
InChI=1S/C10H13N5O4/c1-5-3-15(10(18)12-9(5)17)8-2-6(13-14-11)7(4-16)19-8/h3,6-8,16H,2,4H2,1H3,(H,12,17,18)/t6-,7+,8+/m0/s1

> <STRUCTURE_InChIKey>
HBOMLICNUCNMMY-XLPZGREQSA-N

> <Substance_modify_yyyymmdd>
20080429

> <Coord_Metals>
0

> <Index>
16

> <Canonical_Smiles>
CC1=CN(C2CC(N=N#N)C(CO)O2)C(=O)NC1=O

> <Molecular_Weight>
267.24132

> <Frequency>
1

$$$$

  SciTegic          2D

 26 27  0  0  0  0            999 V2000
    2.5973   -1.5031    0.0000 N   0  0
    1.2990   -0.7500    0.0000 C   0  0
    1.2990    0.7500    0.0000 C   0  0
    0.0000    1.5000    0.0000 C   0  0
   -1.2990    0.7500    0.0000 C   0  0
   -2.5987    1.5004    0.0000 C   0  0
   -2.6012    3.0004    0.0000 C   0  0
   -3.9015    3.7484    0.0000 C   0  0
   -5.1993    2.9963    0.0000 C   0  0
   -6.5018    3.7420    0.0000 N   0  0
   -5.1969    1.4963    0.0000 C   0  0
   -3.8967    0.7484    0.0000 C   0  0
   -1.2990   -0.7500    0.0000 C   0  0
    0.0000   -1.5000    0.0000 C   0  0
    2.5958   -2.5031    0.0000 H   0  0
    3.4642   -1.0046    0.0000 H   0  0
    2.1651    1.2500    0.0000 H   0  0
    0.0000    2.5000    0.0000 H   0  0
   -1.7360    3.5018    0.0000 H   0  0
   -3.9030    4.7484    0.0000 H   0  0
   -7.3663    3.2393    0.0000 H   0  0
   -6.5051    4.7420    0.0000 H   0  0
   -6.0621    0.9949    0.0000 H   0  0
   -3.8951   -0.2516    0.0000 H   0  0
   -2.1651   -1.2500    0.0000 H   0  0
    0.0000   -2.5000    0.0000 H   0  0
  1  2  1  0
  2  3  2  0
  2 14  1  0
  3  4  1  0
  4  5  2  0
  5  6  1  0
  5 13  1  0
  6  7  2  0
  6 12  1  0
  7  8  1  0
  8  9  2  0
  9 10  1  0
  9 11  1  0
 11 12  2  0
 13 14  2  0
  1 15  1  0
  1 16  1  0
  3 17  1  0
  4 18  1  0
  7 19  1  0
  8 20  1  0
 10 21  1  0
 10 22  1  0
 11 23  1  0
 12 24  1  0
 13 25  1  0
 14 26  1  0
V    1 0
V    2 1
V    3 2
V    4 3
V    5 4
V    6 5
V    7 6
V    8 7
V    9 8
V   10 9
V   11 10
V   12 11
V   13 12
V   14 13
M  END
> <DSSTox_RID>
60312

> <DSSTox_CID>
137

> <DSSTox_CID_Parent>
137

> <DSSTox_Generic_SID>
20137

> <DSSTox_FileID>
17_TXCST2_v1a

> <STRUCTURE_Formula>
C12H12N2

> <STRUCTURE_MolecularWeight>
184.2371

> <STRUCTURE_ChemicalType>
defined organic

> <STRUCTURE_TestedForm_DefinedOrganic>
parent

> <STRUCTURE_Shown>
tested chemical

> <TestSubstance_ChemicalName>
Benzidine

> <TestSubstance_CASRN>
92-87-5

> <TestSubstance_Description>
single chemical compound

> <STRUCTURE_ChemicalName_IUPAC>
biphenyl-4,4'-diamine

> <STRUCTURE_SMILES>
NC1=CC=C(C2=CC=C(N)C=C2)C=C1

> <STRUCTURE_Parent_SMILES>
NC1=CC=C(C2=CC=C(N)C=C2)C=C1

> <STRUCTURE_InChIS>
InChI=1S/C12H12N2/c13-11-5-1-9(2-6-11)10-3-7-12(14)8-4-10/h1-8H,13-14H2

> <STRUCTURE_InChIKey>
HFACYLZERDEVSX-UHFFFAOYSA-N

> <Substance_modify_yyyymmdd>
20080429

> <Coord_Metals>
0

> <Index>
17

> <Canonical_Smiles>
Nc1ccc(cc1)c2ccc(N)cc2

> <Molecular_Weight>
184.23707

> <Frequency>
1

$$$$

  SciTegic          2D

 15 15  0  0  0  0            999 V2000
    1.2990   -0.7500    0.0000 C   0  0
    1.2990    0.7500    0.0000 C   0  0
    0.0000    1.5000    0.0000 C   0  0
   -1.2990    0.7500    0.0000 C   0  0
   -1.2990   -0.7500    0.0000 C   0  0
    0.0000   -1.5000    0.0000 C   0  0
    2.5973   -1.5031    0.0000 C   0  0
    3.6375   -0.9049    0.0000 O   0  0
    2.5951   -3.0039    0.0000 O   0  0
    2.1651    1.2500    0.0000 H   0  0
    0.0000    2.5000    0.0000 H   0  0
   -2.1651    1.2500    0.0000 H   0  0
   -2.1651   -1.2500    0.0000 H   0  0
    0.0000   -2.5000    0.0000 H   0  0
    3.4601   -3.5057    0.0000 H   0  0
  1  2  2  0
  1  6  1  0
  1  7  1  0
  2  3  1  0
  3  4  2  0
  4  5  1  0
  5  6  2  0
  7  8  2  0
  7  9  1  0
  2 10  1  0
  3 11  1  0
  4 12  1  0
  5 13  1  0
  6 14  1  0
  9 15  1  0
V    1 0
V    2 1
V    3 2
V    4 3
V    5 4
V    6 5
V    7 6
V    8 7
V    9 8
M  END
> <DSSTox_RID>
65888
59760

> <DSSTox_CID>
140
143

> <DSSTox_Generic_SID>
20140
20143

> <DSSTox_FileID>
18_TXCST2_v1a
20_TXCST2_v1a

> <STRUCTURE_Formula>
C7H5NaO2
C7H6O2

> <STRUCTURE_MolecularWeight>
144.1032
122.1213

> <STRUCTURE_ChemicalType>
defined organic
defined organic

> <STRUCTURE_TestedForm_DefinedOrganic>
salt Na
parent

> <STRUCTURE_Shown>
tested chemical
tested chemical

> <TestSubstance_ChemicalName>
Sodium benzoate
Benzoic acid

> <TestSubstance_CASRN>
532-32-1
65-85-0

> <TestSubstance_Description>
single chemical compound
single chemical compound

> <ChemicalNote>
parent [65-85-0]

> <STRUCTURE_ChemicalName_IUPAC>
sodium benzoate
benzoic acid

> <STRUCTURE_SMILES>
C1(=CC=CC=C1)C(=O)[O-].[Na+]
OC(=O)C1=CC=CC=C1

> <STRUCTURE_Parent_SMILES>
C1(=CC=CC=C1)C(=O)O
OC(=O)C1=CC=CC=C1

> <STRUCTURE_InChIS>
InChI=1S/C7H6O2.Na/c8-7(9)6-4-2-1-3-5-6;/h1-5H,(H,8,9);/q;+1/p-1
InChI=1S/C7H6O2/c8-7(9)6-4-2-1-3-5-6/h1-5H,(H,8,9)

> <STRUCTURE_InChIKey>
WXMKPNITSTVMEF-UHFFFAOYSA-M
WPYMKLBDIGXBTP-UHFFFAOYSA-N

> <Substance_modify_yyyymmdd>
20080429
20080429

> <Coord_Metals>
0
0

> <Index>
18
20

> <Canonical_Smiles>
OC(=O)c1ccccc1

> <Molecular_Weight>
122.12134
122.12134

> <DSSTox_CID_Parent>
143

> <Frequency>
2

$$$$

  SciTegic          2D

 15 16  0  0  0  0            999 V2000
    1.7138    1.2033    0.0000 C   0  0
    2.5889    0.0182    0.0000 C   0  0
    1.7138   -1.2033    0.0000 O   0  0
    0.2917   -0.7475    0.0000 C   0  0
    0.2917    0.7475    0.0000 C   0  0
   -1.0028    1.5132    0.0000 C   0  0
   -2.3155    0.7475    0.0000 C   0  0
   -2.3155   -0.7475    0.0000 C   0  0
   -1.0028   -1.5132    0.0000 C   0  0
    2.0210    2.1549    0.0000 H   0  0
    3.5889    0.0254    0.0000 H   0  0
   -0.9997    2.5132    0.0000 H   0  0
   -3.1826    1.2456    0.0000 H   0  0
   -3.1826   -1.2456    0.0000 H   0  0
   -0.9997   -2.5132    0.0000 H   0  0
  1  2  2  0
  1  5  1  0
  2  3  1  0
  3  4  1  0
  4  5  2  0
  4  9  1  0
  5  6  1  0
  6  7  2  0
  7  8  1  0
  8  9  2  0
  1 10  1  0
  2 11  1  0
  6 12  1  0
  7 13  1  0
  8 14  1  0
  9 15  1  0
V    1 0
V    2 1
V    3 2
V    4 3
V    5 4
V    6 5
V    7 6
V    8 7
V    9 8
M  END
> <DSSTox_RID>
59755

> <DSSTox_CID>
141

> <DSSTox_CID_Parent>
141

> <DSSTox_Generic_SID>
20141

> <DSSTox_FileID>
19_TXCST2_v1a

> <STRUCTURE_Formula>
C8H6O

> <STRUCTURE_MolecularWeight>
118.1326

> <STRUCTURE_ChemicalType>
defined organic

> <STRUCTURE_TestedForm_DefinedOrganic>
parent

> <STRUCTURE_Shown>
tested chemical

> <TestSubstance_ChemicalName>
Benzofuran

> <TestSubstance_CASRN>
271-89-6

> <TestSubstance_Description>
single chemical compound

> <STRUCTURE_ChemicalName_IUPAC>
1-benzofuran

> <STRUCTURE_SMILES>
C1=COC2=C1C=CC=C2

> <STRUCTURE_Parent_SMILES>
C1=COC2=C1C=CC=C2

> <STRUCTURE_InChIS>
InChI=1S/C8H6O/c1-2-4-8-7(3-1)5-6-9-8/h1-6H

> <STRUCTURE_InChIKey>
IANQTJSKSUMEQM-UHFFFAOYSA-N

> <Substance_modify_yyyymmdd>
20080429

> <Coord_Metals>
0

> <Index>
19

> <Canonical_Smiles>
o1ccc2ccccc12

> <Molecular_Weight>
118.13264

> <Frequency>
1

$$$$

  SciTegic          2D

 15 15  0  0  0  0            999 V2000
    3.6384   -0.9011    0.0000 Cl  0  0
    2.5988   -1.5004    0.0000 C   0  0
    1.2990   -0.7500    0.0000 C   0  0
    1.2990    0.7500    0.0000 C   0  0
    0.0000    1.5000    0.0000 C   0  0
   -1.2990    0.7500    0.0000 C   0  0
   -1.2990   -0.7500    0.0000 C   0  0
    0.0000   -1.5000    0.0000 C   0  0
    2.5984   -2.7004    0.0000 Cl  0  0
    3.6377   -2.1009    0.0000 Cl  0  0
    2.1651    1.2500    0.0000 H   0  0
    0.0000    2.5000    0.0000 H   0  0
   -2.1651    1.2500    0.0000 H   0  0
   -2.1651   -1.2500    0.0000 H   0  0
    0.0000   -2.5000    0.0000 H   0  0
  1  2  1  0
  2  3  1  0
  2  9  1  0
  2 10  1  0
  3  4  2  0
  3  8  1  0
  4  5  1  0
  5  6  2  0
  6  7  1  0
  7  8  2  0
  4 11  1  0
  5 12  1  0
  6 13  1  0
  7 14  1  0
  8 15  1  0
V    1 0
V    2 1
V    3 2
V    4 3
V    5 4
V    6 5
V    7 6
V    8 7
V    9 8
V   10 9
M  END
> <DSSTox_RID>
59762

> <DSSTox_CID>
148

> <DSSTox_CID_Parent>
148

> <DSSTox_Generic_SID>
20148

> <DSSTox_FileID>
21_TXCST2_v1a

> <STRUCTURE_Formula>
C7H5Cl3

> <STRUCTURE_MolecularWeight>
195.4736

> <STRUCTURE_ChemicalType>
defined organic

> <STRUCTURE_TestedForm_DefinedOrganic>
parent

> <STRUCTURE_Shown>
tested chemical

> <TestSubstance_ChemicalName>
Benzotrichloride

> <TestSubstance_CASRN>
98-07-7

> <TestSubstance_Description>
single chemical compound

> <STRUCTURE_ChemicalName_IUPAC>
(trichloromethyl)benzene

> <STRUCTURE_SMILES>
ClC(C1=CC=CC=C1)(Cl)Cl

> <STRUCTURE_Parent_SMILES>
ClC(C1=CC=CC=C1)(Cl)Cl

> <STRUCTURE_InChIS>
InChI=1S/C7H5Cl3/c8-7(9,10)6-4-2-1-3-5-6/h1-5H

> <STRUCTURE_InChIKey>
XEMRAKSQROQPBR-UHFFFAOYSA-N

> <Substance_modify_yyyymmdd>
20080429

> <Coord_Metals>
0

> <Index>
21

> <Canonical_Smiles>
ClC(Cl)(Cl)c1ccccc1

> <Molecular_Weight>
195.47359

> <Frequency>
1

$$$$

  SciTegic          2D

 16 16  0  0  0  0            999 V2000
    3.8990   -0.7508    0.0000 O   0  0
    2.5988   -1.5004    0.0000 C   0  0
    1.2990   -0.7500    0.0000 C   0  0
    1.2990    0.7500    0.0000 C   0  0
    0.0000    1.5000    0.0000 C   0  0
   -1.2990    0.7500    0.0000 C   0  0
   -1.2990   -0.7500    0.0000 C   0  0
    0.0000   -1.5000    0.0000 C   0  0
    4.7650   -1.2508    0.0000 H   0  0
    2.5985   -2.5004    0.0000 H   0  0
    3.4646   -2.0008    0.0000 H   0  0
    2.1651    1.2500    0.0000 H   0  0
    0.0000    2.5000    0.0000 H   0  0
   -2.1651    1.2500    0.0000 H   0  0
   -2.1651   -1.2500    0.0000 H   0  0
    0.0000   -2.5000    0.0000 H   0  0
  1  2  1  0
  2  3  1  0
  3  4  2  0
  3  8  1  0
  4  5  1  0
  5  6  2  0
  6  7  1  0
  7  8  2  0
  1  9  1  0
  2 10  1  0
  2 11  1  0
  4 12  1  0
  5 13  1  0
  6 14  1  0
  7 15  1  0
  8 16  1  0
V    1 0
V    2 1
V    3 2
V    4 3
V    5 4
V    6 5
V    7 6
V    8 7
M  END
> <DSSTox_RID>
62405

> <DSSTox_CID>
152

> <DSSTox_CID_Parent>
152

> <DSSTox_Generic_SID>
20152

> <DSSTox_FileID>
22_TXCST2_v1a

> <STRUCTURE_Formula>
C7H8O

> <STRUCTURE_MolecularWeight>
108.1378

> <STRUCTURE_ChemicalType>
defined organic

> <STRUCTURE_TestedForm_DefinedOrganic>
parent

> <STRUCTURE_Shown>
tested chemical

> <TestSubstance_ChemicalName>
Benzyl alcohol

> <TestSubstance_CASRN>
100-51-6

> <TestSubstance_Description>
single chemical compound

> <STRUCTURE_ChemicalName_IUPAC>
phenylmethanol

> <STRUCTURE_SMILES>
OCC1=CC=CC=C1

> <STRUCTURE_Parent_SMILES>
OCC1=CC=CC=C1

> <STRUCTURE_InChIS>
InChI=1S/C7H8O/c8-6-7-4-2-1-3-5-7/h1-5,8H,6H2

> <STRUCTURE_InChIKey>
WVDDGKGOMKODPV-UHFFFAOYSA-N

> <Substance_modify_yyyymmdd>
20080429

> <Coord_Metals>
0

> <Index>
22

> <Canonical_Smiles>
OCc1ccccc1

> <Molecular_Weight>
108.13782

> <Frequency>
1

$$$$

  SciTegic          2D

 26 27  0  0  0  0            999 V2000
    2.5973   -1.5031    0.0000 O   0  0
    1.2990   -0.7500    0.0000 C   0  0
    1.2990    0.7500    0.0000 C   0  0
    0.0000    1.5000    0.0000 C   0  0
   -1.2990    0.7500    0.0000 C   0  0
   -1.2990   -0.7500    0.0000 C   0  0
    0.0000   -1.5000    0.0000 C   0  0
   -2.3383    1.3500    0.0000 Cl  0  0
    2.5988    1.5004    0.0000 C   0  0
    3.8990    0.7508    0.0000 C   0  0
    3.9000   -0.7492    0.0000 C   0  0
    5.1995   -1.4983    0.0000 C   0  0
    6.4981   -0.7475    0.0000 C   0  0
    6.4971    0.7525    0.0000 C   0  0
    5.1976    1.5017    0.0000 C   0  0
    2.5958   -2.5031    0.0000 H   0  0
    0.0000    2.5000    0.0000 H   0  0
   -2.1651   -1.2500    0.0000 H   0  0
    0.0000   -2.5000    0.0000 H   0  0
    2.5985    2.5004    0.0000 H   0  0
    1.7327    2.0003    0.0000 H   0  0
    3.0343   -1.2497    0.0000 H   0  0
    5.2001   -2.4983    0.0000 H   0  0
    7.3644   -1.2469    0.0000 H   0  0
    7.3628    1.2531    0.0000 H   0  0
    5.1969    2.5017    0.0000 H   0  0
  1  2  1  0
  2  3  2  0
  2  7  1  0
  3  4  1  0
  3  9  1  0
  4  5  2  0
  5  6  1  0
  5  8  1  0
  6  7  2  0
  9 10  1  0
 10 11  2  0
 10 15  1  0
 11 12  1  0
 12 13  2  0
 13 14  1  0
 14 15  2  0
  1 16  1  0
  4 17  1  0
  6 18  1  0
  7 19  1  0
  9 20  1  0
  9 21  1  0
 11 22  1  0
 12 23  1  0
 13 24  1  0
 14 25  1  0
 15 26  1  0
V    1 0
V    2 1
V    3 2
V    4 3
V    5 4
V    6 5
V    7 6
V    8 7
V    9 8
V   10 9
V   11 10
V   12 11
V   13 12
V   14 13
V   15 14
M  END
> <DSSTox_RID>
65306

> <DSSTox_CID>
154

> <DSSTox_CID_Parent>
154

> <DSSTox_Generic_SID>
20154

> <DSSTox_FileID>
23_TXCST2_v1a

> <STRUCTURE_Formula>
C13H11ClO

> <STRUCTURE_MolecularWeight>
218.6788

> <STRUCTURE_ChemicalType>
defined organic

> <STRUCTURE_TestedForm_DefinedOrganic>
parent

> <STRUCTURE_Shown>
tested chemical

> <TestSubstance_ChemicalName>
Clorophene

> <TestSubstance_CASRN>
120-32-1

> <TestSubstance_Description>
single chemical compound

> <STRUCTURE_ChemicalName_IUPAC>
2-benzyl-4-chlorophenol

> <STRUCTURE_SMILES>
OC1=C(C=C(C=C1)Cl)CC2=CC=CC=C2

> <STRUCTURE_Parent_SMILES>
OC1=C(C=C(C=C1)Cl)CC2=CC=CC=C2

> <STRUCTURE_InChIS>
InChI=1S/C13H11ClO/c14-12-6-7-13(15)11(9-12)8-10-4-2-1-3-5-10/h1-7,9,15H,8H2

> <STRUCTURE_InChIKey>
NCKMMSIFQUPKCK-UHFFFAOYSA-N

> <Substance_modify_yyyymmdd>
20080429

> <Coord_Metals>
0

> <Index>
23

> <Canonical_Smiles>
Oc1ccc(Cl)cc1Cc2ccccc2

> <Molecular_Weight>
218.67883

> <Frequency>
1

$$$$

  SciTegic          2D

 51 53  0  0  0  0            999 V2000
    5.7496   -0.4145    0.0000 C   0  0
    7.2496   -0.4138    0.0000 C   0  0
    6.4990    0.7517    0.0000 C   0  0
    8.2627   -1.5356    0.0000 C   0  0
   10.7459   -2.3060    0.0000 C   0  0
    9.7265   -1.2045    0.0000 C   0  0
    5.9848    2.1617    0.0000 C   0  0
    8.8746    5.6149    0.0000 C   0  0
    9.8373    6.7652    0.0000 C   0  0
    6.9480    3.3126    0.0000 O   0  0
    7.3971    5.8735    0.0000 C   0  0
    4.8028    2.3689    0.0000 O   0  0
   11.3156    6.5065    0.0000 C   0  0
    6.4338    4.7226    0.0000 C   0  0
   11.9163   -2.0412    0.0000 F   0  0
   10.3903   -3.4521    0.0000 F   0  0
   11.5605   -3.1871    0.0000 F   0  0
    4.4494    0.3565    0.0000 C   0  0
    5.6956   -1.9255    0.0000 C   0  0
   10.0821   -0.0584    0.0000 Cl  0  0
    9.3225    8.1741    0.0000 C   0  0
    9.3897    4.2053    0.0000 C   0  0
    7.8449    8.4327    0.0000 C   0  0
    6.8822    7.2824    0.0000 C   0  0
   12.2803    7.6553    0.0000 C   0  0
   11.8283    5.0968    0.0000 C   0  0
   13.3054    4.8359    0.0000 C   0  0
   13.7574    7.3943    0.0000 C   0  0
   14.2700    5.9846    0.0000 C   0  0
    8.1093    0.0969    0.0000 H   0  0
    7.3649    1.2520    0.0000 H   0  0
    7.9663   -2.4907    0.0000 H   0  0
    5.4488    4.8953    0.0000 H   0  0
    5.7916    3.9560    0.0000 H   0  0
    4.4726    1.3562    0.0000 H   0  0
    3.5953    0.8766    0.0000 H   0  0
    3.5719   -0.1230    0.0000 H   0  0
    4.8183   -2.4055    0.0000 H   0  0
    5.6725   -2.9252    0.0000 H   0  0
    6.5498   -2.4455    0.0000 H   0  0
    9.9643    8.9410    0.0000 H   0  0
    8.7484    3.4380    0.0000 H   0  0
   10.3748    4.0332    0.0000 H   0  0
    9.7334    3.2662    0.0000 H   0  0
    7.5017    9.3719    0.0000 H   0  0
    5.8972    7.4548    0.0000 H   0  0
   11.9386    8.5951    0.0000 H   0  0
   11.1853    4.3309    0.0000 H   0  0
   13.6472    3.8961    0.0000 H   0  0
   14.4004    8.1602    0.0000 H   0  0
   15.2547    5.8107    0.0000 H   0  0
  1  2  1  0
  1  3  1  0
  1 18  1  0
  1 19  1  0
  4  2  1  0
  2  3  1  0
  3  7  1  0
  4  6  2  0
  5  6  1  0
  5 15  1  0
  5 16  1  0
  5 17  1  0
  6 20  1  0
  7 10  1  0
  7 12  2  0
  8 11  1  0
  8  9  2  0
  8 22  1  0
  9 13  1  0
  9 21  1  0
 10 14  1  0
 11 14  1  0
 11 24  2  0
 13 25  2  0
 13 26  1  0
 21 23  2  0
 23 24  1  0
 25 28  1  0
 26 27  2  0
 27 29  1  0
 28 29  2  0
  2 30  1  0
  3 31  1  0
  4 32  1  0
 14 33  1  0
 14 34  1  0
 18 35  1  0
 18 36  1  0
 18 37  1  0
 19 38  1  0
 19 39  1  0
 19 40  1  0
 21 41  1  0
 22 42  1  0
 22 43  1  0
 22 44  1  0
 23 45  1  0
 24 46  1  0
 25 47  1  0
 26 48  1  0
 27 49  1  0
 28 50  1  0
 29 51  1  0
V    1 0
V    2 1
V    3 2
V    4 3
V    5 4
V    6 5
V    7 6
V    8 7
V    9 8
V   10 9
V   11 10
V   12 11
V   13 12
V   14 13
V   15 14
V   16 15
V   17 16
V   18 17
V   19 18
V   20 19
V   21 20
V   22 21
V   23 22
V   24 23
V   25 24
V   26 25
V   27 26
V   28 27
V   29 28
M  END
> <DSSTox_RID>
59769

> <DSSTox_CID>
160

> <DSSTox_CID_Parent>
160

> <DSSTox_Generic_SID>
20160

> <DSSTox_FileID>
24_TXCST2_v1a

> <STRUCTURE_Formula>
C23H22ClF3O2

> <STRUCTURE_MolecularWeight>
422.8678

> <STRUCTURE_ChemicalType>
defined organic

> <STRUCTURE_TestedForm_DefinedOrganic>
parent

> <STRUCTURE_Shown>
tested chemical

> <TestSubstance_ChemicalName>
Bifenthrin

> <TestSubstance_CASRN>
82657-04-3

> <TestSubstance_Description>
single chemical compound

> <ChemicalNote>
mixture of (1R,S) stereoisomers; ? 97% Z isomer; stereochem

> <Source_ChemicalNote>
tested chemical contained 0.2% water (0.05 moles H2O)

> <STRUCTURE_ChemicalName_IUPAC>
(2-methylbiphenyl-3-yl)methyl 3-[(1Z)-2-chloro-3,3,3-trifluoroprop-1-en-1-yl]-2,2-dimethylcyclopropanecarboxylate

> <STRUCTURE_SMILES>
O=C(OCC2=CC=CC(C3=CC=CC=C3)=C2C)C1C(C)(C)C1/C=C(Cl)/C(F)(F)F

> <STRUCTURE_Parent_SMILES>
O=C(OCC2=CC=CC(C3=CC=CC=C3)=C2C)C1C(C)(C)C1/C=C(Cl)/C(F)(F)F

> <STRUCTURE_InChIS>
InChI=1S/C23H22ClF3O2/c1-14-16(10-7-11-17(14)15-8-5-4-6-9-15)13-29-21(28)20-18(22(20,2)3)12-19(24)23(25,26)27/h4-12,18,20H,13H2,1-3H3/b19-12-

> <STRUCTURE_InChIKey>
OMFRMAHOUUJSGP-UNOMPAQXSA-N

> <Substance_modify_yyyymmdd>
20080429

> <Coord_Metals>
0

> <Index>
24

> <Canonical_Smiles>
Cc1c(COC(=O)C2C(C=C(Cl)C(F)(F)F)C2(C)C)cccc1c3ccccc3

> <Molecular_Weight>
422.86778

> <Frequency>
1

$$$$

  SciTegic          2D

 22 23  0  0  0  0            999 V2000
    1.2990   -0.7500    0.0000 C   0  0
    1.2990    0.7500    0.0000 C   0  0
    0.0000    1.5000    0.0000 C   0  0
   -1.2990    0.7500    0.0000 C   0  0
   -1.2990   -0.7500    0.0000 C   0  0
    0.0000   -1.5000    0.0000 C   0  0
    2.5987    1.5004    0.0000 C   0  0
    3.8991    0.7525    0.0000 C   0  0
    5.1969    1.5046    0.0000 C   0  0
    5.1945    3.0046    0.0000 C   0  0
    3.8943    3.7525    0.0000 C   0  0
    2.5964    3.0004    0.0000 C   0  0
    2.1651   -1.2500    0.0000 H   0  0
    0.0000    2.5000    0.0000 H   0  0
   -2.1651    1.2500    0.0000 H   0  0
   -2.1651   -1.2500    0.0000 H   0  0
    0.0000   -2.5000    0.0000 H   0  0
    3.9007   -0.2475    0.0000 H   0  0
    6.0637    1.0060    0.0000 H   0  0
    6.0597    3.5060    0.0000 H   0  0
    3.8927    4.7525    0.0000 H   0  0
    1.7296    3.4991    0.0000 H   0  0
  1  2  2  0
  1  6  1  0
  2  3  1  0
  2  7  1  0
  3  4  2  0
  4  5  1  0
  5  6  2  0
  7  8  2  0
  7 12  1  0
  8  9  1  0
  9 10  2  0
 10 11  1  0
 11 12  2  0
  1 13  1  0
  3 14  1  0
  4 15  1  0
  5 16  1  0
  6 17  1  0
  8 18  1  0
  9 19  1  0
 10 20  1  0
 11 21  1  0
 12 22  1  0
V    1 0
V    2 1
V    3 2
V    4 3
V    5 4
V    6 5
V    7 6
V    8 7
V    9 8
V   10 9
V   11 10
V   12 11
M  END
> <DSSTox_RID>
59515

> <DSSTox_CID>
161

> <DSSTox_CID_Parent>
161

> <DSSTox_Generic_SID>
20161

> <DSSTox_FileID>
25_TXCST2_v1a

> <STRUCTURE_Formula>
C12H10

> <STRUCTURE_MolecularWeight>
154.2078

> <STRUCTURE_ChemicalType>
defined organic

> <STRUCTURE_TestedForm_DefinedOrganic>
parent

> <STRUCTURE_Shown>
tested chemical

> <TestSubstance_ChemicalName>
Biphenyl

> <TestSubstance_CASRN>
92-52-4

> <TestSubstance_Description>
single chemical compound

> <STRUCTURE_ChemicalName_IUPAC>
biphenyl

> <STRUCTURE_SMILES>
C1=C(C=CC=C1)C2=CC=CC=C2

> <STRUCTURE_Parent_SMILES>
C1=C(C=CC=C1)C2=CC=CC=C2

> <STRUCTURE_InChIS>
InChI=1S/C12H10/c1-3-7-11(8-4-1)12-9-5-2-6-10-12/h1-10H

> <STRUCTURE_InChIKey>
ZUOUZKKEUPVFJK-UHFFFAOYSA-N

> <Substance_modify_yyyymmdd>
20080429

> <Coord_Metals>
0

> <Index>
25

> <Canonical_Smiles>
c1ccc(cc1)c2ccccc2

> <Molecular_Weight>
154.20779

> <Frequency>
1

$$$$

  SciTegic          2D

 19 18  0  0  0  0            999 V2000
    1.3000    0.7500    0.0000 O   0  0
    2.6000    0.0000    0.0000 C   0  0
    3.9000    0.7500    0.0000 C   0  0
    5.2000    0.0000    0.0000 C   0  0
    6.5000    0.7500    0.0000 O   0  0
    3.9000    2.2507    0.0000 C   0  0
    4.9388    2.8514    0.0000 Br  0  0
    3.9028   -0.7800    0.0000 C   0  0
    4.7695   -1.2789    0.0000 Br  0  0
    0.4338    0.2503    0.0000 H   0  0
    2.6000   -1.0000    0.0000 H   0  0
    1.7340   -0.5001    0.0000 H   0  0
    5.2000   -1.0000    0.0000 H   0  0
    6.0659   -0.5001    0.0000 H   0  0
    7.3661    0.2503    0.0000 H   0  0
    3.0338    2.7505    0.0000 H   0  0
    3.8995    3.2507    0.0000 H   0  0
    3.0376   -1.2813    0.0000 H   0  0
    3.9042   -1.7800    0.0000 H   0  0
  1  2  1  0
  2  3  1  0
  3  4  1  0
  3  6  1  0
  3  8  1  0
  4  5  1  0
  6  7  1  0
  8  9  1  0
  1 10  1  0
  2 11  1  0
  2 12  1  0
  4 13  1  0
  4 14  1  0
  5 15  1  0
  6 16  1  0
  6 17  1  0
  8 18  1  0
  8 19  1  0
V    1 0
V    2 1
V    3 2
V    4 3
V    5 4
V    6 5
V    7 6
V    8 7
V    9 8
M  END
> <DSSTox_RID>
66642

> <DSSTox_CID>
164

> <DSSTox_CID_Parent>
164

> <DSSTox_Generic_SID>
20164

> <DSSTox_FileID>
26_TXCST2_v1a

> <STRUCTURE_Formula>
C5H10Br2O2

> <STRUCTURE_MolecularWeight>
261.9397

> <STRUCTURE_ChemicalType>
defined organic

> <STRUCTURE_TestedForm_DefinedOrganic>
parent

> <STRUCTURE_Shown>
tested chemical

> <TestSubstance_ChemicalName>
2,2-Bis(bromomethyl)-1,3-propanediol

> <TestSubstance_CASRN>
3296-90-0

> <TestSubstance_Description>
single chemical compound

> <STRUCTURE_ChemicalName_IUPAC>
2,2-bis(bromomethyl)propane-1,3-diol

> <STRUCTURE_SMILES>
OCC(CO)(CBr)CBr

> <STRUCTURE_Parent_SMILES>
OCC(CO)(CBr)CBr

> <STRUCTURE_InChIS>
InChI=1S/C5H10Br2O2/c6-1-5(2-7,3-8)4-9/h8-9H,1-4H2

> <STRUCTURE_InChIKey>
CHUGKEQJSLOLHL-UHFFFAOYSA-N

> <Substance_modify_yyyymmdd>
20080429

> <Coord_Metals>
0

> <Index>
26

> <Canonical_Smiles>
OCC(CO)(CBr)CBr

> <Molecular_Weight>
261.9397

> <Frequency>
1

$$$$

  SciTegic          2D

 15 14  0  0  0  0            999 V2000
    0.2606    0.1503    0.0000 Cl  0  0
    1.3000    0.7500    0.0000 C   0  0
    2.6000    0.0000    0.0000 C   0  0
    3.9000    0.7500    0.0000 O   0  0
    5.2000    0.0000    0.0000 C   0  0
    6.5000    0.7500    0.0000 C   0  0
    7.5394    0.1503    0.0000 Cl  0  0
    1.3000    1.7500    0.0000 H   0  0
    0.4340    1.2501    0.0000 H   0  0
    2.6000   -1.0000    0.0000 H   0  0
    3.4659   -0.5001    0.0000 H   0  0
    5.2000   -1.0000    0.0000 H   0  0
    4.3340   -0.5001    0.0000 H   0  0
    6.5000    1.7500    0.0000 H   0  0
    7.3659    1.2501    0.0000 H   0  0
  1  2  1  0
  2  3  1  0
  3  4  1  0
  4  5  1  0
  5  6  1  0
  6  7  1  0
  2  8  1  0
  2  9  1  0
  3 10  1  0
  3 11  1  0
  5 12  1  0
  5 13  1  0
  6 14  1  0
  6 15  1  0
V    1 0
V    2 1
V    3 2
V    4 3
V    5 4
V    6 5
V    7 6
M  END
> <DSSTox_RID>
65305

> <DSSTox_CID>
168

> <DSSTox_CID_Parent>
168

> <DSSTox_Generic_SID>
20168

> <DSSTox_FileID>
27_TXCST2_v1a

> <STRUCTURE_Formula>
C4H8Cl2O

> <STRUCTURE_MolecularWeight>
143.0117

> <STRUCTURE_ChemicalType>
defined organic

> <STRUCTURE_TestedForm_DefinedOrganic>
parent

> <STRUCTURE_Shown>
tested chemical

> <TestSubstance_ChemicalName>
bis(2-Chloroethyl) ether

> <TestSubstance_CASRN>
111-44-4

> <TestSubstance_Description>
single chemical compound

> <STRUCTURE_ChemicalName_IUPAC>
bis(2-chloroethyl) ether

> <STRUCTURE_SMILES>
ClCCOCCCl

> <STRUCTURE_Parent_SMILES>
ClCCOCCCl

> <STRUCTURE_InChIS>
InChI=1S/C4H8Cl2O/c5-1-3-7-4-2-6/h1-4H2

> <STRUCTURE_InChIKey>
ZNSMNVMLTJELDZ-UHFFFAOYSA-N

> <Substance_modify_yyyymmdd>
20080429

> <Coord_Metals>
0

> <Index>
27

> <Canonical_Smiles>
ClCCOCCCl

> <Molecular_Weight>
143.01171

> <Frequency>
1

$$$$

  SciTegic          2D

 33 34  0  0  0  0            999 V2000
    4.1926   -2.4215    0.0000 C   0  0
    3.2283   -1.2715    0.0000 C   0  0
    1.7503   -1.5321    0.0000 C   0  0
    1.2372   -0.1226    0.0000 C   0  0
   -0.2400    0.1379    0.0000 C   0  0
   -1.2042   -1.0112    0.0000 C   0  0
   -0.6911   -2.4207    0.0000 C   0  0
    0.7861   -2.6812    0.0000 C   0  0
   -2.6827   -0.7536    0.0000 O   0  0
    3.7425    0.1385    0.0000 C   0  0
    5.2196   -0.1229    0.0000 C   0  0
    6.1845    1.0255    0.0000 C   0  0
    5.6723    2.4354    0.0000 C   0  0
    4.1953    2.6968    0.0000 C   0  0
    3.2304    1.5483    0.0000 C   0  0
    6.6354    3.5865    0.0000 O   0  0
    2.7012   -2.7078    0.0000 C   0  0
    5.1776   -2.2487    0.0000 H   0  0
    3.8500   -3.3609    0.0000 H   0  0
    4.8348   -3.1880    0.0000 H   0  0
    1.8800    0.6435    0.0000 H   0  0
   -0.5820    1.0776    0.0000 H   0  0
   -1.3339   -3.1868    0.0000 H   0  0
    1.1281   -3.6209    0.0000 H   0  0
   -3.3244   -1.5206    0.0000 H   0  0
    5.5610   -1.0628    0.0000 H   0  0
    7.1692    0.8513    0.0000 H   0  0
    3.8538    3.6367    0.0000 H   0  0
    2.2457    1.7226    0.0000 H   0  0
    6.2926    4.5259    0.0000 H   0  0
    1.7161   -2.8795    0.0000 H   0  0
    3.3422   -3.4754    0.0000 H   0  0
    2.3572   -3.6468    0.0000 H   0  0
  1  2  1  0
  2  3  1  0
  2 10  1  0
  2 17  1  0
  3  4  2  0
  3  8  1  0
  4  5  1  0
  5  6  2  0
  6  7  1  0
  6  9  1  0
  7  8  2  0
 10 11  2  0
 10 15  1  0
 11 12  1  0
 12 13  2  0
 13 14  1  0
 13 16  1  0
 14 15  2  0
  1 18  1  0
  1 19  1  0
  1 20  1  0
  4 21  1  0
  5 22  1  0
  7 23  1  0
  8 24  1  0
  9 25  1  0
 11 26  1  0
 12 27  1  0
 14 28  1  0
 15 29  1  0
 16 30  1  0
 17 31  1  0
 17 32  1  0
 17 33  1  0
V    1 0
V    2 1
V    3 2
V    4 3
V    5 4
V    6 5
V    7 6
V    8 7
V    9 8
V   10 9
V   11 10
V   12 11
V   13 12
V   14 13
V   15 14
V   16 15
V   17 16
M  END
> <DSSTox_RID>
60511

> <DSSTox_CID>
182

> <DSSTox_CID_Parent>
182

> <DSSTox_Generic_SID>
20182

> <DSSTox_FileID>
28_TXCST2_v1a

> <STRUCTURE_Formula>
C15H16O2

> <STRUCTURE_MolecularWeight>
228.2863

> <STRUCTURE_ChemicalType>
defined organic

> <STRUCTURE_TestedForm_DefinedOrganic>
parent

> <STRUCTURE_Shown>
tested chemical

> <TestSubstance_ChemicalName>
Bisphenol A

> <TestSubstance_CASRN>
80-05-7

> <TestSubstance_Description>
single chemical compound

> <STRUCTURE_ChemicalName_IUPAC>
4,4'-propane-2,2-diyldiphenol

> <STRUCTURE_SMILES>
C(C1C=CC(=CC=1)O)(C2=CC=C(C=C2)O)(C)C

> <STRUCTURE_Parent_SMILES>
C(C1C=CC(=CC=1)O)(C2=CC=C(C=C2)O)(C)C

> <STRUCTURE_InChIS>
InChI=1S/C15H16O2/c1-15(2,11-3-7-13(16)8-4-11)12-5-9-14(17)10-6-12/h3-10,16-17H,1-2H3

> <STRUCTURE_InChIKey>
IISBACLAFKSPIT-UHFFFAOYSA-N

> <Substance_modify_yyyymmdd>
20080429

> <Coord_Metals>
0

> <Index>
28

> <Canonical_Smiles>
CC(C)(c1ccc(O)cc1)c2ccc(O)cc2

> <Molecular_Weight>
228.28633

> <Frequency>
1

$$$$

  SciTegic          2D

 88 92  0  0  0  0            999 V2000
    3.4455   -1.6909    0.0000 O   0  0
    2.2638   -1.8997    0.0000 S   0  0
    3.0355   -2.8186    0.0000 O   0  0
    1.2990   -0.7500    0.0000 C   0  0
    1.2990    0.7500    0.0000 C   0  0
    0.0000    1.5000    0.0000 C   0  0
   -1.2990    0.7500    0.0000 C   0  0
   -1.2990   -0.7500    0.0000 C   0  0
    0.0000   -1.5000    0.0000 C   0  0
    2.5972    1.5031    0.0000 C   0  0
    2.5951    3.0039    0.0000 C   0  0
    3.8915    3.7585    0.0000 C   0  0
    3.8863    5.2585    0.0000 C   0  0
    2.5847    6.0040    0.0000 C   0  0
    2.5764    7.5048    0.0000 N   0  3
    1.2730    8.2489    0.0000 C   0  0
    1.2647    9.7497    0.0000 C   0  0
   -0.0385   10.4925    0.0000 C   0  0
   -0.0467   11.9925    0.0000 C   0  0
    1.2481   12.7496    0.0000 C   0  0
    2.5513   12.0068    0.0000 C   0  0
    2.5596   10.5068    0.0000 C   0  0
   -1.3506   12.7357    0.0000 S   0  0
   -1.3569   13.9357    0.0000 O   0  0
   -2.3929   13.3304    0.0000 O   0  0
   -2.6467   11.9789    0.0000 O   0  0
    3.8738    8.2593    0.0000 C   0  0
    5.1764    7.5138    0.0000 C   0  0
    1.2883    5.2495    0.0000 C   0  0
    1.2934    3.7495    0.0000 C   0  0
    3.8982    0.7550    0.0000 C   0  0
    5.1971    1.5055    0.0000 C   0  0
    6.4964    0.7559    0.0000 C   0  0
    6.4970   -0.7441    0.0000 C   0  0
    5.1983   -1.4946    0.0000 C   0  0
    3.8989   -0.7450    0.0000 C   0  0
    7.7955   -1.4966    0.0000 N   0  0
    7.7939   -2.9975    0.0000 C   0  0
    9.0924   -3.7501    0.0000 C   0  0
    9.0899   -5.2501    0.0000 C   0  0
   10.3877   -6.0022    0.0000 C   0  0
   11.6880   -5.2544    0.0000 C   0  0
   11.6905   -3.7544    0.0000 C   0  0
   10.3927   -3.0022    0.0000 C   0  0
   10.3852   -7.5031    0.0000 S   0  0
   11.4236   -8.1045    0.0000 O   0  0
   10.3838   -8.7031    0.0000 O   0  0
    9.0847   -8.2521    0.0000 O   0  0
    9.0947   -0.7453    0.0000 C   0  0
    9.0947    0.7555    0.0000 C   0  0
    1.7513   -3.3103    0.0000 O   0  0
    0.0000    2.5000    0.0000 H   0  0
   -2.1651    1.2500    0.0000 H   0  0
   -2.1651   -1.2500    0.0000 H   0  0
    0.0000   -2.5000    0.0000 H   0  0
    4.7593    3.2615    0.0000 H   0  0
    4.7506    5.7615    0.0000 H   0  0
    1.2780    7.2489    0.0000 H   0  0
    0.4096    7.7444    0.0000 H   0  0
   -0.9017    9.9877    0.0000 H   0  0
    1.2426   13.7496    0.0000 H   0  0
    3.4146   12.5116    0.0000 H   0  0
    3.4284   10.0116    0.0000 H   0  0
   -3.5155   12.4742    0.0000 H   0  0
    3.0061    8.7565    0.0000 H   0  0
    3.8703    9.2593    0.0000 H   0  0
    6.0408    8.0166    0.0000 H   0  0
    6.0440    7.0167    0.0000 H   0  0
    5.1798    6.5138    0.0000 H   0  0
    0.4205    5.7465    0.0000 H   0  0
    0.4291    3.2465    0.0000 H   0  0
    5.1968    2.5055    0.0000 H   0  0
    7.3623    1.2563    0.0000 H   0  0
    5.1986   -2.4946    0.0000 H   0  0
    3.0331   -1.2454    0.0000 H   0  0
    6.9285   -2.4964    0.0000 H   0  0
    6.9272   -3.4963    0.0000 H   0  0
    8.2231   -5.7486    0.0000 H   0  0
   12.5532   -5.7559    0.0000 H   0  0
   12.5574   -3.2559    0.0000 H   0  0
   10.3944   -2.0022    0.0000 H   0  0
    9.0830   -9.2521    0.0000 H   0  0
    9.0953   -1.7453    0.0000 H   0  0
    9.9610   -1.2450    0.0000 H   0  0
    9.9603    1.2561    0.0000 H   0  0
    9.0941    1.7555    0.0000 H   0  0
    8.2284    1.2552    0.0000 H   0  0
    2.3941   -4.0764    0.0000 H   0  0
  1  2  2  0
  2  3  2  0
  2  4  1  0
  2 51  1  0
  4  5  2  0
  4  9  1  0
  5  6  1  0
 10  5  1  0
  6  7  2  0
  7  8  1  0
  8  9  2  0
 10 11  2  0
 10 31  1  0
 11 12  1  0
 11 30  1  0
 12 13  2  0
 14 13  1  0
 14 15  2  0
 14 29  1  0
 15 16  1  0
 15 27  1  0
 16 17  1  0
 17 18  2  0
 17 22  1  0
 18 19  1  0
 19 20  2  0
 19 23  1  0
 20 21  1  0
 21 22  2  0
 23 24  2  0
 23 25  2  0
 23 26  1  0
 27 28  1  0
 29 30  2  0
 31 32  2  0
 31 36  1  0
 32 33  1  0
 33 34  2  0
 34 35  1  0
 34 37  1  0
 35 36  2  0
 37 38  1  0
 37 49  1  0
 38 39  1  0
 39 40  2  0
 39 44  1  0
 40 41  1  0
 41 42  2  0
 41 45  1  0
 42 43  1  0
 43 44  2  0
 45 46  2  0
 45 47  2  0
 45 48  1  0
 49 50  1  0
  6 52  1  0
  7 53  1  0
  8 54  1  0
  9 55  1  0
 12 56  1  0
 13 57  1  0
 16 58  1  0
 16 59  1  0
 18 60  1  0
 20 61  1  0
 21 62  1  0
 22 63  1  0
 26 64  1  0
 27 65  1  0
 27 66  1  0
 28 67  1  0
 28 68  1  0
 28 69  1  0
 29 70  1  0
 30 71  1  0
 32 72  1  0
 33 73  1  0
 35 74  1  0
 36 75  1  0
 38 76  1  0
 38 77  1  0
 40 78  1  0
 42 79  1  0
 43 80  1  0
 44 81  1  0
 48 82  1  0
 49 83  1  0
 49 84  1  0
 50 85  1  0
 50 86  1  0
 50 87  1  0
 51 88  1  0
M  CHG  1  15   1
V    1 0
V    2 1
V    3 2
V    4 3
V    5 4
V    6 5
V    7 6
V    8 7
V    9 8
V   10 9
V   11 10
V   12 11
V   13 12
V   14 13
V   15 14
V   16 15
V   17 16
V   18 17
V   19 18
V   20 19
V   21 20
V   22 21
V   23 22
V   24 23
V   25 24
V   26 25
V   27 26
V   28 27
V   29 28
V   30 29
V   31 30
V   32 31
V   33 32
V   34 33
V   35 34
V   36 35
V   37 36
V   38 37
V   39 38
V   40 39
V   41 40
V   42 41
V   43 42
V   44 43
V   45 44
V   46 45
V   47 46
V   48 47
V   49 48
V   50 49
V   51 50
M  END
> <DSSTox_RID>
65416

> <DSSTox_CID>
189

> <DSSTox_CID_Parent>
23758

> <DSSTox_Generic_SID>
20189

> <DSSTox_FileID>
29_TXCST2_v1a

> <STRUCTURE_Formula>
C37H34N2Na2O9S3

> <STRUCTURE_MolecularWeight>
792.8484

> <STRUCTURE_ChemicalType>
defined organic

> <STRUCTURE_TestedForm_DefinedOrganic>
salt 2Na

> <STRUCTURE_Shown>
tested chemical

> <TestSubstance_ChemicalName>
FD & C Blue no. 1

> <TestSubstance_CASRN>
3844-45-9

> <TestSubstance_Description>
single chemical compound

> <ChemicalNote>
ammonium; parent [25305-78-6]

> <Source_ChemicalNote>
tested chemical contained 3.86% water (1.77 moles H2O)

> <STRUCTURE_ChemicalName_IUPAC>
disodium 2-{(Z)-(4-{ethyl[(3-sulfonatophenyl)methyl]amino}phenyl)[(4Z)-4-{ethyl[(3-sulfonatophenyl)methyl]iminio}cyclohexa-2,5-dien-1-ylidene]methyl}benzenesulfonate

> <STRUCTURE_SMILES>
O=S(=O)(C1=C(C=CC=C1)/C(=C2\C=C/C(=[N+](/CC3=CC(=CC=C3)S(=O)(=O)[O-])CC)C=C2)C4=CC=C(C=C4)N(CC5=CC(=CC=C5)S(=O)(=O)[O-])CC)[O-].[Na+].[Na+]

> <STRUCTURE_Parent_SMILES>
O=S(=O)(C1=C(C=CC=C1)/C(=C2\C=C/C(=[N+](/CC3=CC(=CC=C3)S(=O)(=O)[O-])CC)C=C2)C4=CC=C(C=C4)N(CC5=CC(=CC=C5)S(=O)(=O)O)CC)O

> <STRUCTURE_InChIS>
InChI=1S/C37H36N2O9S3.2Na/c1-3-38(25-27-9-7-11-33(23-27)49(40,41)42)31-19-15-29(16-20-31)37(35-13-5-6-14-36(35)51(46,47)48)30-17-21-32(22-18-30)39(4-2)26-28-10-8-12-34(24-28)50(43,44)45;;/h5-24H,3-4,2
5-26H2,1-2H3,(H2-,40,41,42,43,44,45,46,47,48);;/q;2*+1/p-2

> <STRUCTURE_InChIKey>
SGHZXLIDFTYFHQ-UHFFFAOYSA-L

> <Substance_modify_yyyymmdd>
20080429

> <Coord_Metals>
0

> <Index>
29

> <Canonical_Smiles>
CCN(Cc1cccc(c1)S(=O)(=O)O)c2ccc(cc2)C(=C3C=CC(=[N+](CC)Cc4cccc(c4)S(=O)(=O)O)C=C3)c5ccccc5S(=O)(=O)O

> <Molecular_Weight>
749.89267

> <Frequency>
1

$$$$

  SciTegic          2D

  7  6  0  0  0  0            999 V2000
    1.3000    0.7500    0.0000 O   0  0
    2.6000    0.0000    0.0000 B   0  0
    3.9000    0.7500    0.0000 O   0  0
    2.6031   -1.5008    0.0000 O   0  0
    0.4338    0.2503    0.0000 H   0  0
    4.7662    0.2503    0.0000 H   0  0
    3.4698   -1.9996    0.0000 H   0  0
  1  2  1  0
  2  3  1  0
  2  4  1  0
  1  5  1  0
  3  6  1  0
  4  7  1  0
V    1 0
V    2 1
V    3 2
V    4 3
M  END
> <DSSTox_RID>
66752

> <DSSTox_CID>
194

> <DSSTox_Generic_SID>
20194

> <DSSTox_FileID>
30_TXCST2_v1a

> <STRUCTURE_Formula>
H3BO3

> <STRUCTURE_MolecularWeight>
61.833

> <STRUCTURE_ChemicalType>
inorganic

> <STRUCTURE_Shown>
tested chemical

> <TestSubstance_ChemicalName>
Boric acid

> <TestSubstance_CASRN>
10043-35-3

> <TestSubstance_Description>
single chemical compound

> <STRUCTURE_ChemicalName_IUPAC>
boric acid

> <STRUCTURE_SMILES>
OB(O)O

> <STRUCTURE_InChIS>
InChI=1S/BH3O3/c2-1(3)4/h2-4H

> <STRUCTURE_InChIKey>
KGBXLFKZBHKPEV-UHFFFAOYSA-N

> <Substance_modify_yyyymmdd>
20080429

> <Coord_Metals>
0

> <Index>
30

> <Canonical_Smiles>
OB(O)O

> <Molecular_Weight>
61.83302

> <Frequency>
1

$$$$

  SciTegic          2D

 43 44  0  0  0  0            999 V2000
    1.2990   -0.7500    0.0000 C   0  0
    1.2990    0.7500    0.0000 C   0  0
    0.0000    1.5000    0.0000 C   0  0
   -1.2990    0.7500    0.0000 C   0  0
   -1.2990   -0.7500    0.0000 C   0  0
    0.0000   -1.5000    0.0000 C   0  0
    2.5972    1.5031    0.0000 C   0  0
    2.5951    3.0039    0.0000 O   0  0
    3.8933    3.7570    0.0000 C   0  0
    3.8912    5.2578    0.0000 C   0  0
    5.1894    6.0109    0.0000 C   0  0
    5.1872    7.5118    0.0000 C   0  0
    3.6375    0.9049    0.0000 O   0  0
    2.5973   -1.5031    0.0000 C   0  0
    2.5951   -3.0039    0.0000 O   0  0
    3.8933   -3.7570    0.0000 C   0  0
    3.8912   -5.2578    0.0000 C   0  0
    5.1892   -6.0097    0.0000 C   0  0
    5.1870   -7.5097    0.0000 C   0  0
    3.8869   -8.2578    0.0000 C   0  0
    2.5890   -7.5060    0.0000 C   0  0
    2.5911   -6.0060    0.0000 C   0  0
    3.6375   -0.9049    0.0000 O   0  0
    0.0000    2.5000    0.0000 H   0  0
   -2.1651    1.2500    0.0000 H   0  0
   -2.1651   -1.2500    0.0000 H   0  0
    0.0000   -2.5000    0.0000 H   0  0
    3.8952    2.7570    0.0000 H   0  0
    4.7602    3.2585    0.0000 H   0  0
    3.0259    4.7565    0.0000 H   0  0
    3.0243    5.7563    0.0000 H   0  0
    5.1913    5.0109    0.0000 H   0  0
    6.0563    5.5125    0.0000 H   0  0
    6.0522    8.0135    0.0000 H   0  0
    5.1853    8.5118    0.0000 H   0  0
    4.3203    8.0102    0.0000 H   0  0
    3.8952   -2.7570    0.0000 H   0  0
    4.7602   -3.2585    0.0000 H   0  0
    6.0559   -5.5109    0.0000 H   0  0
    6.0523   -8.0109    0.0000 H   0  0
    3.8855   -9.2578    0.0000 H   0  0
    1.7222   -8.0047    0.0000 H   0  0
    1.7258   -5.5047    0.0000 H   0  0
  1  2  2  0
  1  6  1  0
  1 14  1  0
  2  3  1  0
  2  7  1  0
  3  4  2  0
  4  5  1  0
  5  6  2  0
  7  8  1  0
  7 13  2  0
  8  9  1  0
  9 10  1  0
 10 11  1  0
 11 12  1  0
 14 15  1  0
 14 23  2  0
 15 16  1  0
 16 17  1  0
 17 18  2  0
 17 22  1  0
 18 19  1  0
 19 20  2  0
 20 21  1  0
 21 22  2  0
  3 24  1  0
  4 25  1  0
  5 26  1  0
  6 27  1  0
  9 28  1  0
  9 29  1  0
 10 30  1  0
 10 31  1  0
 11 32  1  0
 11 33  1  0
 12 34  1  0
 12 35  1  0
 12 36  1  0
 16 37  1  0
 16 38  1  0
 18 39  1  0
 19 40  1  0
 20 41  1  0
 21 42  1  0
 22 43  1  0
V    1 0
V    2 1
V    3 2
V    4 3
V    5 4
V    6 5
V    7 6
V    8 7
V    9 8
V   10 9
V   11 10
V   12 11
V   13 12
V   14 13
V   15 14
V   16 15
V   17 16
V   18 17
V   19 18
V   20 19
V   21 20
V   22 21
V   23 22
M  END
> <DSSTox_RID>
59910

> <DSSTox_CID>
205

> <DSSTox_CID_Parent>
205

> <DSSTox_Generic_SID>
20205

> <DSSTox_FileID>
31_TXCST2_v1a

> <STRUCTURE_Formula>
C19H20O4

> <STRUCTURE_MolecularWeight>
312.3597

> <STRUCTURE_ChemicalType>
defined organic

> <STRUCTURE_TestedForm_DefinedOrganic>
parent

> <STRUCTURE_Shown>
tested chemical

> <TestSubstance_ChemicalName>
Butyl benzyl phthalate

> <TestSubstance_CASRN>
85-68-7

> <TestSubstance_Description>
single chemical compound

> <STRUCTURE_ChemicalName_IUPAC>
benzyl butyl phthalate

> <STRUCTURE_SMILES>
C1(=C(C=CC=C1)C(OCCCC)=O)C(OCC2=CC=CC=C2)=O

> <STRUCTURE_Parent_SMILES>
C1(=C(C=CC=C1)C(OCCCC)=O)C(OCC2=CC=CC=C2)=O

> <STRUCTURE_InChIS>
InChI=1S/C19H20O4/c1-2-3-13-22-18(20)16-11-7-8-12-17(16)19(21)23-14-15-9-5-4-6-10-15/h4-12H,2-3,13-14H2,1H3

> <STRUCTURE_InChIKey>
IRIAEXORFWYRCZ-UHFFFAOYSA-N

> <Substance_modify_yyyymmdd>
20080429

> <Coord_Metals>
0

> <Index>
31

> <Canonical_Smiles>
CCCCOC(=O)c1ccccc1C(=O)OCc2ccccc2

> <Molecular_Weight>
312.3597

> <Frequency>
1

$$$$

  SciTegic          2D

 29 29  0  0  0  0            999 V2000
    2.5973   -1.5031    0.0000 O   0  0
    1.2990   -0.7500    0.0000 C   0  0
    1.2990    0.7500    0.0000 C   0  0
    0.0000    1.5000    0.0000 C   0  0
   -1.2990    0.7500    0.0000 C   0  0
   -1.2990   -0.7500    0.0000 C   0  0
    0.0000   -1.5000    0.0000 C   0  0
    0.0000   -3.0008    0.0000 C   0  0
    1.2993   -3.7521    0.0000 C   0  0
    1.2993   -5.2529    0.0000 C   0  0
   -1.2999   -3.7508    0.0000 C   0  0
   -2.6003    1.4977    0.0000 N   0  0
   -3.6387    0.8962    0.0000 O   0  0
   -2.6024    2.6977    0.0000 O   0  0
    2.5972    1.5031    0.0000 N   0  0
    2.5955    2.7031    0.0000 O   0  0
    3.6375    0.9049    0.0000 O   0  0
    2.5958   -2.5031    0.0000 H   0  0
    0.0000    2.5000    0.0000 H   0  0
   -2.1651   -1.2500    0.0000 H   0  0
    0.8662   -2.5011    0.0000 H   0  0
    2.1655   -3.2523    0.0000 H   0  0
    1.2998   -2.7521    0.0000 H   0  0
    2.1650   -5.7534    0.0000 H   0  0
    0.4331   -5.7526    0.0000 H   0  0
    1.2988   -6.2529    0.0000 H   0  0
   -1.3009   -4.7508    0.0000 H   0  0
   -2.1656   -3.2502    0.0000 H   0  0
   -2.1663   -4.2501    0.0000 H   0  0
  1  2  1  0
  2  3  2  0
  2  7  1  0
  3  4  1  0
  3 15  1  0
  4  5  2  0
  5  6  1  0
  5 12  1  0
  6  7  2  0
  7  8  1  0
  8  9  1  0
  8 11  1  0
  9 10  1  0
 12 13  2  0
 12 14  2  0
 15 16  2  0
 15 17  2  0
  1 18  1  0
  4 19  1  0
  6 20  1  0
  8 21  1  0
  9 22  1  0
  9 23  1  0
 10 24  1  0
 10 25  1  0
 10 26  1  0
 11 27  1  0
 11 28  1  0
 11 29  1  0
V    1 0
V    2 1
V    3 2
V    4 3
V    5 4
V    6 5
V    7 6
V    8 7
V    9 8
V   10 9
V   11 10
V   12 11
V   13 12
V   14 13
V   15 14
V   16 15
V   17 16
M  END
> <DSSTox_RID>
59785

> <DSSTox_CID>
207

> <DSSTox_CID_Parent>
207

> <DSSTox_Generic_SID>
20207

> <DSSTox_FileID>
32_TXCST2_v1a

> <STRUCTURE_Formula>
C10H12N2O5

> <STRUCTURE_MolecularWeight>
240.2127

> <STRUCTURE_ChemicalType>
defined organic

> <STRUCTURE_TestedForm_DefinedOrganic>
parent

> <STRUCTURE_Shown>
tested chemical

> <TestSubstance_ChemicalName>
Dinoseb

> <TestSubstance_CASRN>
88-85-7

> <TestSubstance_Description>
single chemical compound

> <STRUCTURE_ChemicalName_IUPAC>
2-(1-methylpropyl)-4,6-dinitrophenol

> <STRUCTURE_SMILES>
OC1=C(C=C(C=C1C(CC)C)[N+](=O)[O-])[N+](=O)[O-]

> <STRUCTURE_Parent_SMILES>
OC1=C(C=C(C=C1C(CC)C)[N+](=O)[O-])[N+](=O)[O-]

> <STRUCTURE_InChIS>
InChI=1S/C10H12N2O5/c1-3-6(2)8-4-7(11(14)15)5-9(10(8)13)12(16)17/h4-6,13H,3H2,1-2H3

> <STRUCTURE_InChIKey>
OWZPCEFYPSAJFR-UHFFFAOYSA-N

> <Substance_modify_yyyymmdd>
20080429

> <Coord_Metals>
0

> <Index>
32

> <Canonical_Smiles>
CCC(C)c1cc(cc(c1O)N(=O)=O)N(=O)=O

> <Molecular_Weight>
240.21267

> <Frequency>
1

$$$$

  SciTegic          2D

 28 28  0  0  0  0            999 V2000
    3.6375   -0.9049    0.0000 O   0  0
    2.5973   -1.5031    0.0000 C   0  0
    1.2990   -0.7500    0.0000 C   0  0
    1.2990    0.7500    0.0000 C   0  0
    0.0000    1.5000    0.0000 C   0  0
   -1.2990    0.7500    0.0000 C   0  0
   -1.2990   -0.7500    0.0000 C   0  0
    0.0000   -1.5000    0.0000 C   0  0
   -2.6003    1.4977    0.0000 O   0  0
    2.5951   -3.0039    0.0000 O   0  0
    3.8933   -3.7570    0.0000 C   0  0
    3.8912   -5.2578    0.0000 C   0  0
    5.1894   -6.0109    0.0000 C   0  0
    5.1873   -7.5117    0.0000 C   0  0
    2.1651    1.2500    0.0000 H   0  0
    0.0000    2.5000    0.0000 H   0  0
   -2.1651   -1.2500    0.0000 H   0  0
    0.0000   -2.5000    0.0000 H   0  0
   -3.4657    0.9965    0.0000 H   0  0
    3.8952   -2.7570    0.0000 H   0  0
    4.7602   -3.2585    0.0000 H   0  0
    3.0260   -4.7564    0.0000 H   0  0
    3.0243   -5.7563    0.0000 H   0  0
    5.1913   -5.0109    0.0000 H   0  0
    6.0563   -5.5124    0.0000 H   0  0
    6.0523   -8.0135    0.0000 H   0  0
    5.1854   -8.5117    0.0000 H   0  0
    4.3204   -8.0102    0.0000 H   0  0
  1  2  2  0
  2  3  1  0
  2 10  1  0
  3  4  2  0
  3  8  1  0
  4  5  1  0
  5  6  2  0
  6  7  1  0
  6  9  1  0
  7  8  2  0
 10 11  1  0
 11 12  1  0
 12 13  1  0
 13 14  1  0
  4 15  1  0
  5 16  1  0
  7 17  1  0
  8 18  1  0
  9 19  1  0
 11 20  1  0
 11 21  1  0
 12 22  1  0
 12 23  1  0
 13 24  1  0
 13 25  1  0
 14 26  1  0
 14 27  1  0
 14 28  1  0
V    1 0
V    2 1
V    3 2
V    4 3
V    5 4
V    6 5
V    7 6
V    8 7
V    9 8
V   10 9
V   11 10
V   12 11
V   13 12
V   14 13
M  END
> <DSSTox_RID>
60364

> <DSSTox_CID>
209

> <DSSTox_CID_Parent>
209

> <DSSTox_Generic_SID>
20209

> <DSSTox_FileID>
33_TXCST2_v1a

> <STRUCTURE_Formula>
C11H14O3

> <STRUCTURE_MolecularWeight>
194.2271

> <STRUCTURE_ChemicalType>
defined organic

> <STRUCTURE_TestedForm_DefinedOrganic>
parent

> <STRUCTURE_Shown>
tested chemical

> <TestSubstance_ChemicalName>
Buty lparaben

> <TestSubstance_CASRN>
94-26-8

> <TestSubstance_Description>
single chemical compound

> <STRUCTURE_ChemicalName_IUPAC>
butyl 4-hydroxybenzoate

> <STRUCTURE_SMILES>
C(C1=CC=C(C=C1)O)(=O)OCCCC

> <STRUCTURE_Parent_SMILES>
C(C1=CC=C(C=C1)O)(=O)OCCCC

> <STRUCTURE_InChIS>
InChI=1S/C11H14O3/c1-2-3-8-14-11(13)9-4-6-10(12)7-5-9/h4-7,12H,2-3,8H2,1H3

> <STRUCTURE_InChIKey>
QFOHBWFCKVYLES-UHFFFAOYSA-N

> <Substance_modify_yyyymmdd>
20080429

> <Coord_Metals>
0

> <Index>
33

> <Canonical_Smiles>
CCCCOC(=O)c1ccc(O)cc1

> <Molecular_Weight>
194.22705

> <Frequency>
1

$$$$

  SciTegic          2D

 26 26  0  0  0  0            999 V2000
   -0.0031    3.0008    0.0000 O   0  0
    1.2990   -0.7500    0.0000 C   0  0
    1.2990    0.7500    0.0000 C   0  0
    0.0000   -1.5000    0.0000 C   0  0
    0.0000    1.5000    0.0000 C   0  0
   -1.2990   -0.7500    0.0000 C   0  0
   -1.2990    0.7500    0.0000 C   0  0
   -2.5988   -1.5004    0.0000 C   0  0
   -3.8990   -0.7508    0.0000 C   0  0
   -2.5983   -3.0012    0.0000 C   0  0
   -2.5964    0.0295    0.0000 C   0  0
   -0.0031   -3.0008    0.0000 O   0  0
   -0.8698    3.4996    0.0000 H   0  0
    2.1651   -1.2500    0.0000 H   0  0
    2.1651    1.2500    0.0000 H   0  0
   -2.1651    1.2500    0.0000 H   0  0
   -4.7650   -1.2508    0.0000 H   0  0
   -3.8993    0.2492    0.0000 H   0  0
   -4.7651   -0.2510    0.0000 H   0  0
   -3.4639   -3.5020    0.0000 H   0  0
   -1.7320   -3.5006    0.0000 H   0  0
   -2.5975   -4.0012    0.0000 H   0  0
   -1.7299    0.5287    0.0000 H   0  0
   -2.5953    1.0295    0.0000 H   0  0
   -3.4618    0.5306    0.0000 H   0  0
   -0.8698   -3.4996    0.0000 H   0  0
  1  5  1  0
  2  3  1  0
  2  4  2  0
  3  5  2  0
  4  6  1  0
  4 12  1  0
  5  7  1  0
  6  7  2  0
  6  8  1  0
  8  9  1  0
  8 10  1  0
  8 11  1  0
  1 13  1  0
  2 14  1  0
  3 15  1  0
  7 16  1  0
  9 17  1  0
  9 18  1  0
  9 19  1  0
 10 20  1  0
 10 21  1  0
 10 22  1  0
 11 23  1  0
 11 24  1  0
 11 25  1  0
 12 26  1  0
V    1 0
V    2 1
V    3 2
V    4 3
V    5 4
V    6 5
V    7 6
V    8 7
V    9 8
V   10 9
V   11 10
V   12 11
M  END
> <DSSTox_RID>
60275

> <DSSTox_CID>
220

> <DSSTox_CID_Parent>
220

> <DSSTox_Generic_SID>
20220

> <DSSTox_FileID>
34_TXCST2_v1a

> <STRUCTURE_Formula>
C10H14O2

> <STRUCTURE_MolecularWeight>
166.217

> <STRUCTURE_ChemicalType>
defined organic

> <STRUCTURE_TestedForm_DefinedOrganic>
parent

> <STRUCTURE_Shown>
tested chemical

> <TestSubstance_ChemicalName>
tert-Butylhydroquinone

> <TestSubstance_CASRN>
1948-33-0

> <TestSubstance_Description>
single chemical compound

> <STRUCTURE_ChemicalName_IUPAC>
2-(1,1-dimethylethyl)benzene-1,4-diol

> <STRUCTURE_SMILES>
CC(C)(C)c1cc(O)ccc1O

> <STRUCTURE_Parent_SMILES>
CC(C)(C)c1cc(O)ccc1O

> <STRUCTURE_InChIS>
InChI=1S/C10H14O2/c1-10(2,3)8-6-7(11)4-5-9(8)12/h4-6,11-12H,1-3H3

> <STRUCTURE_InChIKey>
BGNXCDMCOKJUMV-UHFFFAOYSA-N

> <Substance_modify_yyyymmdd>
20080429

> <Coord_Metals>
0

> <Index>
34

> <Canonical_Smiles>
CC(C)(C)c1cc(O)ccc1O

> <Molecular_Weight>
166.21695

> <Frequency>
1

$$$$

  SciTegic          2D

 25 25  0  0  0  0            999 V2000
    2.2638   -1.8997    0.0000 C   0  0
    1.2990   -0.7500    0.0000 C   0  0
    1.2990    0.7500    0.0000 C   0  0
    0.0000    1.5000    0.0000 C   0  0
   -1.2990    0.7500    0.0000 C   0  0
   -2.6003    1.4977    0.0000 O   0  0
   -1.2990   -0.7500    0.0000 C   0  0
    0.0000   -1.5000    0.0000 C   0  0
    3.7419   -1.6400    0.0000 C   0  0
    1.7500   -3.3098    0.0000 C   0  0
    2.7848   -0.4612    0.0000 C   0  0
    2.1651    1.2500    0.0000 H   0  0
    0.0000    2.5000    0.0000 H   0  0
   -3.4657    0.9965    0.0000 H   0  0
   -2.1651   -1.2500    0.0000 H   0  0
    0.0000   -2.5000    0.0000 H   0  0
    4.3847   -2.4061    0.0000 H   0  0
    4.0843   -0.7004    0.0000 H   0  0
    4.7268   -1.4665    0.0000 H   0  0
    2.3921   -4.0764    0.0000 H   0  0
    0.7651   -3.4828    0.0000 H   0  0
    1.4073   -4.2492    0.0000 H   0  0
    2.1413    0.3042    0.0000 H   0  0
    3.1258    0.4789    0.0000 H   0  0
    3.7694   -0.2863    0.0000 H   0  0
  1  2  1  0
  1  9  1  0
  1 10  1  0
  1 11  1  0
  2  3  2  0
  2  8  1  0
  3  4  1  0
  4  5  2  0
  5  6  1  0
  5  7  1  0
  7  8  2  0
  3 12  1  0
  4 13  1  0
  6 14  1  0
  7 15  1  0
  8 16  1  0
  9 17  1  0
  9 18  1  0
  9 19  1  0
 10 20  1  0
 10 21  1  0
 10 22  1  0
 11 23  1  0
 11 24  1  0
 11 25  1  0
V    1 0
V    2 1
V    3 2
V    4 3
V    5 4
V    6 5
V    7 6
V    8 7
V    9 8
V   10 9
V   11 10
M  END
> <DSSTox_RID>
59423

> <DSSTox_CID>
221

> <DSSTox_CID_Parent>
221

> <DSSTox_Generic_SID>
20221

> <DSSTox_FileID>
35_TXCST2_v1a

> <STRUCTURE_Formula>
C10H14O

> <STRUCTURE_MolecularWeight>
150.2176

> <STRUCTURE_ChemicalType>
defined organic

> <STRUCTURE_TestedForm_DefinedOrganic>
parent

> <STRUCTURE_Shown>
tested chemical

> <TestSubstance_ChemicalName>
4-tert-Butylphenol

> <TestSubstance_CASRN>
98-54-4

> <TestSubstance_Description>
single chemical compound

> <STRUCTURE_ChemicalName_IUPAC>
4-(1,1-dimethylethyl)phenol

> <STRUCTURE_SMILES>
C(C1=CC=C(O)C=C1)(C)(C)C

> <STRUCTURE_Parent_SMILES>
C(C1=CC=C(O)C=C1)(C)(C)C

> <STRUCTURE_InChIS>
InChI=1S/C10H14O/c1-10(2,3)8-4-6-9(11)7-5-8/h4-7,11H,1-3H3

> <STRUCTURE_InChIKey>
QHPQWRBYOIRBIT-UHFFFAOYSA-N

> <Substance_modify_yyyymmdd>
20080429

> <Coord_Metals>
0

> <Index>
35

> <Canonical_Smiles>
CC(C)(C)c1ccc(O)cc1

> <Molecular_Weight>
150.21755

> <Frequency>
1

$$$$

  SciTegic          2D

 12 12  0  0  0  0            999 V2000
    1.4553   -2.0031    0.0000 O   0  0
    0.7500   -1.0323    0.0000 C   0  0
    1.2135    0.3943    0.0000 C   0  0
    0.0000    1.2760    0.0000 C   0  0
   -1.2135    0.3943    0.0000 C   0  0
   -0.7500   -1.0323    0.0000 O   0  0
    1.4067    1.3755    0.0000 H   0  0
    1.9467   -0.2858    0.0000 H   0  0
    0.8734    1.7629    0.0000 H   0  0
   -0.8734    1.7631    0.0000 H   0  0
   -1.4068    1.3754    0.0000 H   0  0
   -1.9467   -0.2858    0.0000 H   0  0
  1  2  2  0
  2  3  1  0
  2  6  1  0
  3  4  1  0
  4  5  1  0
  5  6  1  0
  3  7  1  0
  3  8  1  0
  4  9  1  0
  4 10  1  0
  5 11  1  0
  5 12  1  0
V    1 0
V    2 1
V    3 2
V    4 3
V    5 4
V    6 5
M  END
> <DSSTox_RID>
59807

> <DSSTox_CID>
224

> <DSSTox_CID_Parent>
224

> <DSSTox_Generic_SID>
20224

> <DSSTox_FileID>
36_TXCST2_v1a

> <STRUCTURE_Formula>
C4H6O2

> <STRUCTURE_MolecularWeight>
86.0892

> <STRUCTURE_ChemicalType>
defined organic

> <STRUCTURE_TestedForm_DefinedOrganic>
parent

> <STRUCTURE_Shown>
tested chemical

> <TestSubstance_ChemicalName>
4-Butyrolactone

> <TestSubstance_CASRN>
96-48-0

> <TestSubstance_Description>
single chemical compound

> <STRUCTURE_ChemicalName_IUPAC>
dihydrofuran-2(3H)-one

> <STRUCTURE_SMILES>
O=C1CCCO1

> <STRUCTURE_Parent_SMILES>
O=C1CCCO1

> <STRUCTURE_InChIS>
InChI=1S/C4H6O2/c5-4-2-1-3-6-4/h1-3H2

> <STRUCTURE_InChIKey>
YEJRWHAVMIAJKC-UHFFFAOYSA-N

> <Substance_modify_yyyymmdd>
20080429

> <Coord_Metals>
0

> <Index>
36

> <Canonical_Smiles>
O=C1CCCO1

> <Molecular_Weight>
86.08924

> <Frequency>
1

$$$$

  SciTegic          2D

 24 25  0  0  0  0            999 V2000
   -0.9991   -2.7132    0.0000 O   0  0
   -1.0028   -1.5132    0.0000 C   0  0
    0.2917   -0.7475    0.0000 C   0  0
    0.2917    0.7475    0.0000 C   0  0
    1.7138    1.2033    0.0000 N   0  0
    2.5889    0.0182    0.0000 C   0  0
    1.7138   -1.2033    0.0000 N   0  0
    2.1825   -2.6263    0.0000 C   0  0
   -1.0028    1.5132    0.0000 N   0  0
   -2.3155    0.7475    0.0000 C   0  0
   -3.3560    1.3452    0.0000 O   0  0
   -2.3155   -0.7475    0.0000 N   0  0
   -3.6202   -1.4892    0.0000 C   0  0
   -0.9940    3.0137    0.0000 C   0  0
    3.5889    0.0254    0.0000 H   0  0
    1.5169   -3.3726    0.0000 H   0  0
    3.1616   -2.8300    0.0000 H   0  0
    2.4958   -3.5760    0.0000 H   0  0
   -3.6276   -2.4892    0.0000 H   0  0
   -4.4826   -0.9831    0.0000 H   0  0
   -4.4898   -1.9829    0.0000 H   0  0
   -0.1254    3.5092    0.0000 H   0  0
   -1.8573    3.5185    0.0000 H   0  0
   -0.9886    4.0137    0.0000 H   0  0
  1  2  2  0
  2  3  1  0
  2 12  1  0
  3  4  2  0
  3  7  1  0
  4  5  1  0
  4  9  1  0
  5  6  2  0
  6  7  1  0
  7  8  1  0
  9 10  1  0
  9 14  1  0
 10 11  2  0
 10 12  1  0
 12 13  1  0
  6 15  1  0
  8 16  1  0
  8 17  1  0
  8 18  1  0
 13 19  1  0
 13 20  1  0
 13 21  1  0
 14 22  1  0
 14 23  1  0
 14 24  1  0
V    1 0
V    2 1
V    3 2
V    4 3
V    5 4
V    6 5
V    7 6
V    8 7
V    9 8
V   10 9
V   11 10
V   12 11
V   13 12
V   14 13
M  END
> <DSSTox_RID>
59809

> <DSSTox_CID>
232

> <DSSTox_CID_Parent>
232

> <DSSTox_Generic_SID>
20232

> <DSSTox_FileID>
37_TXCST2_v1a

> <STRUCTURE_Formula>
C8H10N4O2

> <STRUCTURE_MolecularWeight>
194.1906

> <STRUCTURE_ChemicalType>
defined organic

> <STRUCTURE_TestedForm_DefinedOrganic>
parent

> <STRUCTURE_Shown>
tested chemical

> <TestSubstance_ChemicalName>
Caffeine

> <TestSubstance_CASRN>
58-08-2

> <TestSubstance_Description>
single chemical compound

> <STRUCTURE_ChemicalName_IUPAC>
1,3,7-trimethyl-3,7-dihydro-1H-purine-2,6-dione

> <STRUCTURE_SMILES>
O=C1C2=C(N=CN2C)N(C(=O)N1C)C

> <STRUCTURE_Parent_SMILES>
O=C1C2=C(N=CN2C)N(C(=O)N1C)C

> <STRUCTURE_InChIS>
InChI=1S/C8H10N4O2/c1-10-4-9-6-5(10)7(13)12(3)8(14)11(6)2/h4H,1-3H3

> <STRUCTURE_InChIKey>
RYYVLZVUVIJVGH-UHFFFAOYSA-N

> <Substance_modify_yyyymmdd>
20080429

> <Coord_Metals>
0

> <Index>
37

> <Canonical_Smiles>
CN1C(=O)N(C)c2ncn(C)c2C1=O

> <Molecular_Weight>
194.19059

> <Frequency>
1

$$$$

  SciTegic          2D

 19 19  0  0  0  0            999 V2000
    2.8552   -0.6517    0.0000 O   0  0
    1.6852   -0.3846    0.0000 C   0  0
    1.3514    1.0778    0.0000 C   0  0
    0.0000    1.7286    0.0000 C   0  0
   -1.3515    1.0777    0.0000 C   0  0
   -1.6852   -0.3847    0.0000 C   0  0
   -0.7500   -1.5574    0.0000 C   0  0
    0.7500   -1.5574    0.0000 N   0  0
    1.1727    2.0616    0.0000 H   0  0
    2.2709    0.6846    0.0000 H   0  0
   -0.0301    0.7290    0.0000 H   0  0
   -0.8807    2.2023    0.0000 H   0  0
   -0.5888    0.4310    0.0000 H   0  0
   -2.2709    0.6846    0.0000 H   0  0
   -0.7040   -0.1916    0.0000 H   0  0
   -1.9511   -1.3487    0.0000 H   0  0
   -0.2892   -0.6699    0.0000 H   0  0
   -0.1621   -2.3663    0.0000 H   0  0
    1.1839   -2.4584    0.0000 H   0  0
  1  2  2  0
  2  3  1  0
  2  8  1  0
  3  4  1  0
  4  5  1  0
  5  6  1  0
  6  7  1  0
  7  8  1  0
  3  9  1  0
  3 10  1  0
  4 11  1  0
  4 12  1  0
  5 13  1  0
  5 14  1  0
  6 15  1  0
  6 16  1  0
  7 17  1  0
  7 18  1  0
  8 19  1  0
V    1 0
V    2 1
V    3 2
V    4 3
V    5 4
V    6 5
V    7 6
V    8 7
M  END
> <DSSTox_RID>
65294

> <DSSTox_CID>
240

> <DSSTox_CID_Parent>
240

> <DSSTox_Generic_SID>
20240

> <DSSTox_FileID>
38_TXCST2_v1a

> <STRUCTURE_Formula>
C6H11NO

> <STRUCTURE_MolecularWeight>
113.1576

> <STRUCTURE_ChemicalType>
defined organic

> <STRUCTURE_TestedForm_DefinedOrganic>
parent

> <STRUCTURE_Shown>
tested chemical

> <TestSubstance_ChemicalName>
Caprolactam

> <TestSubstance_CASRN>
105-60-2

> <TestSubstance_Description>
single chemical compound

> <STRUCTURE_ChemicalName_IUPAC>
azepan-2-one

> <STRUCTURE_SMILES>
O=C1CCCCCN1

> <STRUCTURE_Parent_SMILES>
O=C1CCCCCN1

> <STRUCTURE_InChIS>
InChI=1S/C6H11NO/c8-6-4-2-1-3-5-7-6/h1-5H2,(H,7,8)

> <STRUCTURE_InChIKey>
JBKVHLHDHHXQEQ-UHFFFAOYSA-N

> <Substance_modify_yyyymmdd>
20080429

> <Coord_Metals>
0

> <Index>
38

> <Canonical_Smiles>
O=C1CCCCCN1

> <Molecular_Weight>
113.15764

> <Frequency>
1

$$$$

  SciTegic          2D

 27 28  0  0  0  0            999 V2000
    0.2917   -0.7475    0.0000 C   0  0
    0.2917    0.7475    0.0000 C   0  0
    1.7138    1.2033    0.0000 C   0  0
    2.0825    2.3453    0.0000 O   0  0
    2.5889    0.0182    0.0000 N   0  0
    1.7138   -1.2033    0.0000 C   0  0
    2.0907   -2.3426    0.0000 O   0  0
    4.0872    0.0320    0.0000 S   0  0
    4.8506   -1.2602    0.0000 C   0  0
    6.3513   -1.2462    0.0000 C   0  0
    6.9616   -2.2794    0.0000 Cl  0  0
    6.9413   -0.2013    0.0000 Cl  0  0
    4.2606   -2.3052    0.0000 Cl  0  0
    3.6506   -1.2719    0.0000 Cl  0  0
   -1.0028    1.5132    0.0000 C   0  0
   -2.3155    0.7475    0.0000 C   0  0
   -2.3155   -0.7475    0.0000 C   0  0
   -1.0028   -1.5132    0.0000 C   0  0
    0.4035   -1.7412    0.0000 H   0  0
    0.4035    1.7412    0.0000 H   0  0
    7.3513   -1.2364    0.0000 H   0  0
   -0.1240    1.9905    0.0000 H   0  0
   -1.8785    1.9960    0.0000 H   0  0
   -3.1826    1.2456    0.0000 H   0  0
   -3.1826   -1.2456    0.0000 H   0  0
   -0.1240   -1.9905    0.0000 H   0  0
   -1.8785   -1.9960    0.0000 H   0  0
  1  2  1  0
  1  6  1  0
  1 18  1  0
  2  3  1  0
  2 15  1  0
  3  4  2  0
  3  5  1  0
  5  6  1  0
  5  8  1  0
  6  7  2  0
  8  9  1  0
  9 10  1  0
  9 13  1  0
  9 14  1  0
 10 11  1  0
 10 12  1  0
 15 16  1  0
 16 17  2  0
 17 18  1  0
  1 19  1  0
  2 20  1  0
 10 21  1  0
 15 22  1  0
 15 23  1  0
 16 24  1  0
 17 25  1  0
 18 26  1  0
 18 27  1  0
V    1 0
V    2 1
V    3 2
V    4 3
V    5 4
V    6 5
V    7 6
V    8 7
V    9 8
V   10 9
V   11 10
V   12 11
V   13 12
V   14 13
V   15 14
V   16 15
V   17 16
V   18 17
M  END
> <DSSTox_RID>
62309

> <DSSTox_CID>
242

> <DSSTox_CID_Parent>
242

> <DSSTox_Generic_SID>
20242

> <DSSTox_FileID>
39_TXCST2_v1a

> <STRUCTURE_Formula>
C10H9Cl4NO2S

> <STRUCTURE_MolecularWeight>
349.061

> <STRUCTURE_ChemicalType>
defined organic

> <STRUCTURE_TestedForm_DefinedOrganic>
parent

> <STRUCTURE_Shown>
tested chemical

> <TestSubstance_ChemicalName>
Captafol

> <TestSubstance_CASRN>
2425-06-1

> <TestSubstance_Description>
single chemical compound

> <ChemicalNote>
mixture Z- [2939-80-2] and E-isomers; structure shown without stereochem

> <Source_ChemicalNote>
tested chemical was a mixture of isomers

> <STRUCTURE_ChemicalName_IUPAC>
2-[(1,1,2,2-tetrachloroethyl)thio]-3a,4,7,7a-tetrahydro-1H-isoindole-1,3(2H)-dione

> <STRUCTURE_SMILES>
C12C(C(=O)N(C1=O)SC(C(Cl)Cl)(Cl)Cl)C\C=C/C2

> <STRUCTURE_Parent_SMILES>
C12C(C(=O)N(C1=O)SC(C(Cl)Cl)(Cl)Cl)C\C=C/C2

> <STRUCTURE_InChIS>
InChI=1S/C10H9Cl4NO2S/c11-9(12)10(13,14)18-15-7(16)5-3-1-2-4-6(5)8(15)17/h1-2,5-6,9H,3-4H2

> <STRUCTURE_InChIKey>
JHRWWRDRBPCWTF-UHFFFAOYSA-N

> <Substance_modify_yyyymmdd>
20080429

> <Coord_Metals>
0

> <Index>
39

> <Canonical_Smiles>
ClC(Cl)C(Cl)(Cl)SN1C(=O)C2CC=CCC2C1=O

> <Molecular_Weight>
349.06096

> <Frequency>
1

$$$$

  SciTegic          2D

 24 25  0  0  0  0            999 V2000
    2.0825    2.3453    0.0000 O   0  0
    1.7138    1.2033    0.0000 C   0  0
    2.5889    0.0182    0.0000 N   0  0
    1.7138   -1.2033    0.0000 C   0  0
    2.0907   -2.3426    0.0000 O   0  0
    0.2917   -0.7475    0.0000 C   0  0
    0.2917    0.7475    0.0000 C   0  0
   -1.0028    1.5132    0.0000 C   0  0
   -2.3155    0.7475    0.0000 C   0  0
   -2.3155   -0.7475    0.0000 C   0  0
   -1.0028   -1.5132    0.0000 C   0  0
    4.0872    0.0320    0.0000 S   0  0
    4.8506   -1.2602    0.0000 C   0  0
    6.0505   -1.2490    0.0000 Cl  0  0
    4.2606   -2.3052    0.0000 Cl  0  0
    5.4604   -2.2937    0.0000 Cl  0  0
    0.4035   -1.7412    0.0000 H   0  0
    0.4035    1.7412    0.0000 H   0  0
   -0.1240    1.9905    0.0000 H   0  0
   -1.8785    1.9960    0.0000 H   0  0
   -3.1826    1.2456    0.0000 H   0  0
   -3.1826   -1.2456    0.0000 H   0  0
   -0.1240   -1.9905    0.0000 H   0  0
   -1.8785   -1.9960    0.0000 H   0  0
  1  2  2  0
  2  3  1  0
  2  7  1  0
  3  4  1  0
  3 12  1  0
  4  5  2  0
  4  6  1  0
  6  7  1  0
  6 11  1  0
  7  8  1  0
  8  9  1  0
  9 10  2  0
 10 11  1  0
 12 13  1  0
 13 14  1  0
 13 15  1  0
 13 16  1  0
  6 17  1  0
  7 18  1  0
  8 19  1  0
  8 20  1  0
  9 21  1  0
 10 22  1  0
 11 23  1  0
 11 24  1  0
V    1 0
V    2 1
V    3 2
V    4 3
V    5 4
V    6 5
V    7 6
V    8 7
V    9 8
V   10 9
V   11 10
V   12 11
V   13 12
V   14 13
V   15 14
V   16 15
M  END
> <DSSTox_RID>
62404

> <DSSTox_CID>
243

> <DSSTox_CID_Parent>
243

> <DSSTox_Generic_SID>
20243

> <DSSTox_FileID>
40_TXCST2_v1a

> <STRUCTURE_Formula>
C9H8Cl3NO2S

> <STRUCTURE_MolecularWeight>
300.5893

> <STRUCTURE_ChemicalType>
defined organic

> <STRUCTURE_TestedForm_DefinedOrganic>
parent

> <STRUCTURE_Shown>
tested chemical

> <TestSubstance_ChemicalName>
Captan

> <TestSubstance_CASRN>
133-06-2

> <TestSubstance_Description>
single chemical compound

> <STRUCTURE_ChemicalName_IUPAC>
2-[(trichloromethyl)thio]-3a,4,7,7a-tetrahydro-1H-isoindole-1,3(2H)-dione

> <STRUCTURE_SMILES>
O=C1N(C(=O)C2C1CC=CC2)SC(Cl)(Cl)Cl

> <STRUCTURE_Parent_SMILES>
O=C1N(C(=O)C2C1CC=CC2)SC(Cl)(Cl)Cl

> <STRUCTURE_InChIS>
InChI=1S/C9H8Cl3NO2S/c10-9(11,12)16-13-7(14)5-3-1-2-4-6(5)8(13)15/h1-2,5-6H,3-4H2

> <STRUCTURE_InChIKey>
LDVVMCZRFWMZSG-UHFFFAOYSA-N

> <Substance_modify_yyyymmdd>
20080429

> <Coord_Metals>
0

> <Index>
40

> <Canonical_Smiles>
ClC(Cl)(Cl)SN1C(=O)C2CC=CCC2C1=O

> <Molecular_Weight>
300.58932

> <Frequency>
1

$$$$

  SciTegic          2D

 26 27  0  0  0  0            999 V2000
   -3.6288   -3.1588    0.0000 O   0  0
   -2.5870   -3.7544    0.0000 C   0  0
   -1.2907   -2.9981    0.0000 O   0  0
   -1.2964   -1.4973    0.0000 C   0  0
    0.0000   -0.7486    0.0000 C   0  0
    0.0000    0.7486    0.0000 C   0  0
   -1.2964    1.4973    0.0000 C   0  0
   -2.6111    0.7486    0.0000 C   0  0
   -2.6111   -0.7486    0.0000 C   0  0
    1.2964    1.4973    0.0000 C   0  0
    2.5929    0.7486    0.0000 C   0  0
    2.5929   -0.7486    0.0000 C   0  0
    1.2964   -1.4973    0.0000 C   0  0
   -2.5812   -5.2552    0.0000 N   0  0
   -3.8775   -6.0115    0.0000 C   0  0
   -1.2934    2.4973    0.0000 H   0  0
   -3.4756    1.2512    0.0000 H   0  0
   -3.4756   -1.2512    0.0000 H   0  0
    1.2964    2.4973    0.0000 H   0  0
    3.4589    1.2486    0.0000 H   0  0
    3.4589   -1.2486    0.0000 H   0  0
    1.2964   -2.4973    0.0000 H   0  0
   -1.7131   -5.7516    0.0000 H   0  0
   -3.8737   -7.0115    0.0000 H   0  0
   -4.7457   -5.5152    0.0000 H   0  0
   -4.7415   -6.5150    0.0000 H   0  0
  1  2  2  0
  2  3  1  0
  2 14  1  0
  3  4  1  0
  4  5  2  0
  4  9  1  0
  5  6  1  0
  5 13  1  0
  6  7  2  0
  6 10  1  0
  7  8  1  0
  8  9  2  0
 10 11  2  0
 11 12  1  0
 12 13  2  0
 14 15  1  0
  7 16  1  0
  8 17  1  0
  9 18  1  0
 10 19  1  0
 11 20  1  0
 12 21  1  0
 13 22  1  0
 14 23  1  0
 15 24  1  0
 15 25  1  0
 15 26  1  0
V    1 0
V    2 1
V    3 2
V    4 3
V    5 4
V    6 5
V    7 6
V    8 7
V    9 8
V   10 9
V   11 10
V   12 11
V   13 12
V   14 13
V   15 14
M  END
> <DSSTox_RID>
67033

> <DSSTox_CID>
247

> <DSSTox_CID_Parent>
247

> <DSSTox_Generic_SID>
20247

> <DSSTox_FileID>
41_TXCST2_v1a

> <STRUCTURE_Formula>
C12H11NO2

> <STRUCTURE_MolecularWeight>
201.2212

> <STRUCTURE_ChemicalType>
defined organic

> <STRUCTURE_TestedForm_DefinedOrganic>
parent

> <STRUCTURE_Shown>
tested chemical

> <TestSubstance_ChemicalName>
Carbaryl

> <TestSubstance_CASRN>
63-25-2

> <TestSubstance_Description>
single chemical compound

> <STRUCTURE_ChemicalName_IUPAC>
naphthalen-1-yl methylcarbamate

> <STRUCTURE_SMILES>
O=C(OC1=C2C(=CC=C1)C=CC=C2)NC

> <STRUCTURE_Parent_SMILES>
O=C(OC1=C2C(=CC=C1)C=CC=C2)NC

> <STRUCTURE_InChIS>
InChI=1S/C12H11NO2/c1-13-12(14)15-11-8-4-6-9-5-2-3-7-10(9)11/h2-8H,1H3,(H,13,14)

> <STRUCTURE_InChIKey>
CVXBEEMKQHEXEN-UHFFFAOYSA-N

> <Substance_modify_yyyymmdd>
20080429

> <Coord_Metals>
0

> <Index>
41

> <Canonical_Smiles>
CNC(=O)Oc1cccc2ccccc12

> <Molecular_Weight>
201.22123

> <Frequency>
1

$$$$

  SciTegic          2D

 31 32  0  0  0  0            999 V2000
   -3.3352    3.1743    0.0000 O   0  0
   -2.2935    3.7700    0.0000 C   0  0
   -2.2878    5.2708    0.0000 N   0  0
   -3.5842    6.0270    0.0000 C   0  0
   -0.9971    3.0138    0.0000 O   0  0
   -1.0028    1.5132    0.0000 C   0  0
   -2.3155    0.7475    0.0000 C   0  0
   -2.3155   -0.7475    0.0000 C   0  0
   -1.0028   -1.5132    0.0000 C   0  0
    0.2917   -0.7475    0.0000 C   0  0
    1.7138   -1.2033    0.0000 C   0  0
    0.2917    0.7475    0.0000 C   0  0
    1.7138    1.2033    0.0000 O   0  0
    2.5889    0.0182    0.0000 C   0  0
    3.3214   -1.2765    0.0000 C   0  0
    3.3030    1.3236    0.0000 C   0  0
   -1.4197    5.7672    0.0000 H   0  0
   -3.5804    7.0269    0.0000 H   0  0
   -4.4523    5.5305    0.0000 H   0  0
   -4.4482    6.5304    0.0000 H   0  0
   -3.1826    1.2456    0.0000 H   0  0
   -3.1826   -1.2456    0.0000 H   0  0
   -0.9997   -2.5132    0.0000 H   0  0
    2.6959   -1.3914    0.0000 H   0  0
    1.0377   -1.9401    0.0000 H   0  0
    2.8280   -2.1463    0.0000 H   0  0
    3.8278   -2.1387    0.0000 H   0  0
    4.3214   -1.2692    0.0000 H   0  0
    4.3030    1.3315    0.0000 H   0  0
    3.7963    2.1934    0.0000 H   0  0
    2.7964    2.1858    0.0000 H   0  0
  1  2  2  0
  2  3  1  0
  2  5  1  0
  3  4  1  0
  5  6  1  0
  6  7  2  0
  6 12  1  0
  7  8  1  0
  8  9  2  0
  9 10  1  0
 10 11  1  0
 10 12  2  0
 11 14  1  0
 12 13  1  0
 13 14  1  0
 14 15  1  0
 14 16  1  0
  3 17  1  0
  4 18  1  0
  4 19  1  0
  4 20  1  0
  7 21  1  0
  8 22  1  0
  9 23  1  0
 11 24  1  0
 11 25  1  0
 15 26  1  0
 15 27  1  0
 15 28  1  0
 16 29  1  0
 16 30  1  0
 16 31  1  0
V    1 0
V    2 1
V    3 2
V    4 3
V    5 4
V    6 5
V    7 6
V    8 7
V    9 8
V   10 9
V   11 10
V   12 11
V   13 12
V   14 13
V   15 14
V   16 15
M  END
> <DSSTox_RID>
59814

> <DSSTox_CID>
249

> <DSSTox_CID_Parent>
249

> <DSSTox_Generic_SID>
20249

> <DSSTox_FileID>
42_TXCST2_v1a

> <STRUCTURE_Formula>
C12H15NO3

> <STRUCTURE_MolecularWeight>
221.2524

> <STRUCTURE_ChemicalType>
defined organic

> <STRUCTURE_TestedForm_DefinedOrganic>
parent

> <STRUCTURE_Shown>
tested chemical

> <TestSubstance_ChemicalName>
Carbofuran

> <TestSubstance_CASRN>
1563-66-2

> <TestSubstance_Description>
single chemical compound

> <Source_ChemicalNote>
tested chemical contained 0.01% water

> <STRUCTURE_ChemicalName_IUPAC>
2,2-dimethyl-2,3-dihydro-1-benzofuran-7-yl methylcarbamate

> <STRUCTURE_SMILES>
O=C(NC)OC1=CC=CC(C2)=C1OC2(C)C

> <STRUCTURE_Parent_SMILES>
O=C(NC)OC1=CC=CC(C2)=C1OC2(C)C

> <STRUCTURE_InChIS>
InChI=1S/C12H15NO3/c1-12(2)7-8-5-4-6-9(10(8)16-12)15-11(14)13-3/h4-6H,7H2,1-3H3,(H,13,14)

> <STRUCTURE_InChIKey>
DUEPRVBVGDRKAG-UHFFFAOYSA-N

> <Substance_modify_yyyymmdd>
20080429

> <Coord_Metals>
0

> <Index>
42

> <Canonical_Smiles>
CNC(=O)Oc1cccc2CC(C)(C)Oc12

> <Molecular_Weight>
221.25239

> <Frequency>
1

$$$$

  SciTegic          2D

 14 14  0  0  0  0            999 V2000
    2.5973   -1.5031    0.0000 O   0  0
    1.2990   -0.7500    0.0000 C   0  0
    1.2990    0.7500    0.0000 C   0  0
    0.0000    1.5000    0.0000 C   0  0
   -1.2990    0.7500    0.0000 C   0  0
   -1.2990   -0.7500    0.0000 C   0  0
    0.0000   -1.5000    0.0000 C   0  0
    2.5972    1.5031    0.0000 O   0  0
    2.5958   -2.5031    0.0000 H   0  0
    0.0000    2.5000    0.0000 H   0  0
   -2.1651    1.2500    0.0000 H   0  0
   -2.1651   -1.2500    0.0000 H   0  0
    0.0000   -2.5000    0.0000 H   0  0
    2.5958    2.5031    0.0000 H   0  0
  1  2  1  0
  2  3  2  0
  2  7  1  0
  3  4  1  0
  3  8  1  0
  4  5  2  0
  5  6  1  0
  6  7  2  0
  1  9  1  0
  4 10  1  0
  5 11  1  0
  6 12  1  0
  7 13  1  0
  8 14  1  0
V    1 0
V    2 1
V    3 2
V    4 3
V    5 4
V    6 5
V    7 6
V    8 7
M  END
> <DSSTox_RID>
66934

> <DSSTox_CID>
257

> <DSSTox_CID_Parent>
257

> <DSSTox_Generic_SID>
20257

> <DSSTox_FileID>
43_TXCST2_v1a

> <STRUCTURE_Formula>
C6H6O2

> <STRUCTURE_MolecularWeight>
110.1106

> <STRUCTURE_ChemicalType>
defined organic

> <STRUCTURE_TestedForm_DefinedOrganic>
parent

> <STRUCTURE_Shown>
tested chemical

> <TestSubstance_ChemicalName>
Catechol

> <TestSubstance_CASRN>
120-80-9

> <TestSubstance_Description>
single chemical compound

> <STRUCTURE_ChemicalName_IUPAC>
benzene-1,2-diol

> <STRUCTURE_SMILES>
OC1=C(C=CC=C1)O

> <STRUCTURE_Parent_SMILES>
OC1=C(C=CC=C1)O

> <STRUCTURE_InChIS>
InChI=1S/C6H6O2/c7-5-3-1-2-4-6(5)8/h1-4,7-8H

> <STRUCTURE_InChIKey>
YCIMNLLNPGFGHC-UHFFFAOYSA-N

> <Substance_modify_yyyymmdd>
20080429

> <Coord_Metals>
0

> <Index>
43

> <Canonical_Smiles>
Oc1ccccc1O

> <Molecular_Weight>
110.11064

> <Frequency>
1

$$$$

  SciTegic          2D

 17 17  0  0  0  0            999 V2000
    2.3383   -1.3500    0.0000 Cl  0  0
    1.2990   -0.7500    0.0000 C   0  0
    1.2990    0.7500    0.0000 C   0  0
    0.0000    1.5000    0.0000 C   0  0
   -1.2990    0.7500    0.0000 C   0  0
   -1.2990   -0.7500    0.0000 C   0  0
    0.0000   -1.5000    0.0000 C   0  0
   -0.0031   -3.0008    0.0000 C   0  0
    1.0351   -3.6026    0.0000 O   0  0
   -1.3039   -3.7494    0.0000 O   0  0
   -2.3383    1.3500    0.0000 Cl  0  0
    2.5972    1.5031    0.0000 N   0  0
    0.0000    2.5000    0.0000 H   0  0
   -2.1651   -1.2500    0.0000 H   0  0
   -1.3060   -4.7494    0.0000 H   0  0
    2.5958    2.5031    0.0000 H   0  0
    3.4641    1.0046    0.0000 H   0  0
  1  2  1  0
  2  3  2  0
  2  7  1  0
  3  4  1  0
  3 12  1  0
  4  5  2  0
  5  6  1  0
  5 11  1  0
  6  7  2  0
  7  8  1  0
  8  9  2  0
  8 10  1  0
  4 13  1  0
  6 14  1  0
 10 15  1  0
 12 16  1  0
 12 17  1  0
V    1 0
V    2 1
V    3 2
V    4 3
V    5 4
V    6 5
V    7 6
V    8 7
V    9 8
V   10 9
V   11 10
V   12 11
M  END
> <DSSTox_RID>
66855

> <DSSTox_CID>
262

> <DSSTox_CID_Parent>
262

> <DSSTox_Generic_SID>
20262

> <DSSTox_FileID>
44_TXCST2_v1a

> <STRUCTURE_Formula>
C7H5Cl2NO2

> <STRUCTURE_MolecularWeight>
206.0261

> <STRUCTURE_ChemicalType>
defined organic

> <STRUCTURE_TestedForm_DefinedOrganic>
parent

> <STRUCTURE_Shown>
tested chemical

> <TestSubstance_ChemicalName>
Chloramben

> <TestSubstance_CASRN>
133-90-4

> <TestSubstance_Description>
single chemical compound

> <STRUCTURE_ChemicalName_IUPAC>
3-amino-2,5-dichlorobenzoic acid

> <STRUCTURE_SMILES>
ClC1=C(C=C(C=C1C(=O)O)Cl)N

> <STRUCTURE_Parent_SMILES>
ClC1=C(C=C(C=C1C(=O)O)Cl)N

> <STRUCTURE_InChIS>
InChI=1S/C7H5Cl2NO2/c8-3-1-4(7(11)12)6(9)5(10)2-3/h1-2H,10H2,(H,11,12)

> <STRUCTURE_InChIKey>
HSSBORCLYSCBJR-UHFFFAOYSA-N

> <Substance_modify_yyyymmdd>
20080429

> <Coord_Metals>
0

> <Index>
44

> <Canonical_Smiles>
Nc1cc(Cl)cc(C(=O)O)c1Cl

> <Molecular_Weight>
206.02609

> <Frequency>
1

$$$$

  SciTegic          2D

 24 26  0  0  0  0            999 V2000
    3.0482    0.3854    0.0000 C   0  0
    2.0672   -0.9285    0.0000 C   0  0
    0.5431   -0.4029    0.0000 C   0  0
    2.0672    1.7168    0.0000 C   0  0
    0.5431    1.2263    0.0000 C   0  0
   -0.9986   -0.9285    0.0000 C   0  0
   -0.1752    0.0000    0.0000 C   0  0
   -0.1752    1.0336    0.0000 C   0  0
   -0.9986    1.7168    0.0000 C   0  0
   -1.0218    2.7166    0.0000 Cl  0  0
   -1.9621    0.3854    0.0000 C   0  0
   -2.5498    1.4316    0.0000 Cl  0  0
   -2.5434   -0.6644    0.0000 Cl  0  0
   -0.9353   -1.9265    0.0000 Cl  0  0
    0.7597   -0.3548    0.0000 Cl  0  0
    0.7300    1.4587    0.0000 Cl  0  0
    1.2489    2.5946    0.0000 Cl  0  0
    3.6367    1.4312    0.0000 Cl  0  0
    3.5333   -0.4891    0.0000 H   0  0
    1.3759   -1.6510    0.0000 H   0  0
    3.0452   -1.1372    0.0000 H   0  0
    0.5413   -1.4029    0.0000 H   0  0
    3.0480    1.9118    0.0000 H   0  0
    0.5414    2.2263    0.0000 H   0  0
  1  2  1  0
  1  4  1  0
  1 18  1  0
  2  3  1  0
  3  5  1  0
  3  6  1  0
  4  5  1  0
  4 17  1  0
  5  9  1  0
  6  7  1  0
 11  6  1  0
  6 14  1  0
  7  8  2  0
  7 15  1  0
  8  9  1  0
  8 16  1  0
  9 11  1  0
  9 10  1  0
 11 12  1  0
 11 13  1  0
  1 19  1  0
  2 20  1  0
  2 21  1  0
  3 22  1  0
  4 23  1  0
  5 24  1  0
V    1 0
V    2 1
V    3 2
V    4 3
V    5 4
V    6 5
V    7 6
V    8 7
V    9 8
V   10 9
V   11 10
V   12 11
V   13 12
V   14 13
V   15 14
V   16 15
V   17 16
V   18 17
M  END
> <DSSTox_RID>
59822

> <DSSTox_CID>
267

> <DSSTox_CID_Parent>
267

> <DSSTox_Generic_SID>
20267

> <DSSTox_FileID>
45_TXCST2_v1a

> <STRUCTURE_Formula>
C10H6Cl8

> <STRUCTURE_MolecularWeight>
409.7786

> <STRUCTURE_ChemicalType>
defined organic

> <STRUCTURE_TestedForm_DefinedOrganic>
parent

> <STRUCTURE_Shown>
tested chemical

> <TestSubstance_ChemicalName>
Chlordane

> <TestSubstance_CASRN>
57-74-9

> <TestSubstance_Description>
single chemical compound

> <ChemicalNote>
stereochem

> <Source_ChemicalNote>
tested chemcial was technical grade

> <STRUCTURE_ChemicalName_IUPAC>
(1R,2R,3aS,4R,7S,7aS)-1,2,4,5,6,7,8,8-octachloro-2,3,3a,4,7,7a-hexahydro-1H-4,7-methanoindene

> <STRUCTURE_SMILES>
Cl[C@@]23[C@@]1([H])[C@]([C@@]([C@@](Cl)3Cl)(Cl)C(Cl)=C2Cl)([H])C[C@@H](Cl)[C@@H]1Cl

> <STRUCTURE_Parent_SMILES>
Cl[C@@]23[C@@]1([H])[C@]([C@@]([C@@](Cl)3Cl)(Cl)C(Cl)=C2Cl)([H])C[C@@H](Cl)[C@@H]1Cl

> <STRUCTURE_InChIS>
InChI=1S/C10H6Cl8/c11-3-1-2-4(5(3)12)9(16)7(14)6(13)8(2,15)10(9,17)18/h2-5H,1H2/t2-,3+,4-,5-,8?,9-/m0/s1

> <STRUCTURE_InChIKey>
BIWJNBZANLAXMG-POTNBKISSA-N

> <Substance_modify_yyyymmdd>
20080815

> <Coord_Metals>
0

> <Index>
45

> <Canonical_Smiles>
ClC1CC2C(C1Cl)C3(Cl)C(=C(Cl)C2(Cl)C3(Cl)Cl)Cl

> <Molecular_Weight>
409.77864

> <Frequency>
1

$$$$

  SciTegic          2D

 23 24  0  0  0  0            999 V2000
   -2.1300    0.2400    0.0000 C   0  0
   -2.6500   -0.7400    0.0000 C   0  0
   -0.5200    0.8600    0.0000 C   0  0
   -1.0500    0.0000    0.0000 C   0  0
    0.8400    0.0700    0.0000 C   0  0
    0.3800   -0.8300    0.0000 C   0  0
   -0.7400    2.2000    0.0000 C   0  0
    1.7607   -1.4959    0.0000 C   0  0
    2.1992   -0.6660    0.0000 C   0  0
    2.7750   -0.8546    0.0000 O   0  0
    1.8215   -2.9955    0.0000 O   0  0
    2.2750   -1.8636    0.0000 O   0  0
    3.4493    0.1645    0.0000 O   0  0
   -3.5739   -1.5058    0.0000 Cl  0  0
   -3.2625    0.6368    0.0000 Cl  0  0
   -1.7330    2.8737    0.0000 Cl  0  0
    0.2653    2.8553    0.0000 Cl  0  0
   -1.6096   -1.0615    0.0000 Cl  0  0
    0.4698    1.5385    0.0000 Cl  0  0
    0.8917    1.0687    0.0000 H   0  0
   -0.4059   -1.4483    0.0000 H   0  0
    2.7068   -3.4606    0.0000 H   0  0
    4.3453   -0.2795    0.0000 H   0  0
  1  2  2  0
  1  3  1  0
  1 15  1  0
  2  4  1  0
  2 14  1  0
  3  5  1  0
  3  7  1  0
  3 19  1  0
  4  6  1  0
  4  7  1  0
  4 18  1  0
  5  6  1  0
  5  9  1  0
  6  8  1  0
  7 16  1  0
  7 17  1  0
  8 10  2  0
  8 11  1  0
  9 12  2  0
  9 13  1  0
  5 20  1  0
  6 21  1  0
 11 22  1  0
 13 23  1  0
V    1 0
V    2 1
V    3 2
V    4 3
V    5 4
V    6 5
V    7 6
V    8 7
V    9 8
V   10 9
V   11 10
V   12 11
V   13 12
V   14 13
V   15 14
V   16 15
V   17 16
V   18 17
V   19 18
M  END
> <DSSTox_RID>
60195

> <DSSTox_CID>
268

> <DSSTox_CID_Parent>
268

> <DSSTox_Generic_SID>
20268

> <DSSTox_FileID>
46_TXCST2_v1a

> <STRUCTURE_Formula>
C9H4Cl6O4

> <STRUCTURE_MolecularWeight>
388.8437

> <STRUCTURE_ChemicalType>
defined organic

> <STRUCTURE_TestedForm_DefinedOrganic>
parent

> <STRUCTURE_Shown>
tested chemical

> <TestSubstance_ChemicalName>
Chlorendic acid

> <TestSubstance_CASRN>
115-28-6

> <TestSubstance_Description>
single chemical compound

> <ChemicalNote>
stereochem

> <STRUCTURE_ChemicalName_IUPAC>
(1R,2R,3S,4S)-1,4,5,6,7,7-hexachlorobicyclo[2.2.1]hept-5-ene-2,3-dicarboxylic acid

> <STRUCTURE_SMILES>
O=[C@](O)[C@@H]1[C@@]2(Cl)C(Cl)=C(Cl)[C@@](C(Cl)2Cl)(Cl)[C@@H]1[C@](O)=O

> <STRUCTURE_Parent_SMILES>
O=[C@](O)[C@@H]1[C@@]2(Cl)C(Cl)=C(Cl)[C@@](C(Cl)2Cl)(Cl)[C@@H]1[C@](O)=O

> <STRUCTURE_InChIS>
InChI=1S/C9H4Cl6O4/c10-3-4(11)8(13)2(6(18)19)1(5(16)17)7(3,12)9(8,14)15/h1-2H,(H,16,17)(H,18,19)/t1-,2+,7-,8+

> <STRUCTURE_InChIKey>
DJKGDNKYTKCJKD-MVWZDZTGSA-N

> <Substance_modify_yyyymmdd>
20080815

> <Coord_Metals>
0

> <Index>
46

> <Canonical_Smiles>
OC(=O)C1C(C(=O)O)C2(Cl)C(=C(Cl)C1(Cl)C2(Cl)Cl)Cl

> <Molecular_Weight>
388.84366

> <Frequency>
1

$$$$

  SciTegic          2D

 14 14  0  0  0  0            999 V2000
    2.5956   -2.7031    0.0000 O   0  0
    2.5973   -1.5031    0.0000 N   0  0
    1.2990   -0.7500    0.0000 C   0  0
    1.2990    0.7500    0.0000 C   0  0
    0.0000    1.5000    0.0000 C   0  0
   -1.2990    0.7500    0.0000 C   0  0
   -1.2990   -0.7500    0.0000 C   0  0
    0.0000   -1.5000    0.0000 C   0  0
   -2.3383    1.3500    0.0000 Cl  0  0
    3.6375   -0.9049    0.0000 O   0  0
    2.1651    1.2500    0.0000 H   0  0
    0.0000    2.5000    0.0000 H   0  0
   -2.1651   -1.2500    0.0000 H   0  0
    0.0000   -2.5000    0.0000 H   0  0
  1  2  2  0
  2  3  1  0
  2 10  2  0
  3  4  2  0
  3  8  1  0
  4  5  1  0
  5  6  2  0
  6  7  1  0
  6  9  1  0
  7  8  2  0
  4 11  1  0
  5 12  1  0
  7 13  1  0
  8 14  1  0
V    1 0
V    2 1
V    3 2
V    4 3
V    5 4
V    6 5
V    7 6
V    8 7
V    9 8
V   10 9
M  END
> <DSSTox_RID>
65588

> <DSSTox_CID>
281

> <DSSTox_CID_Parent>
281

> <DSSTox_Generic_SID>
20281

> <DSSTox_FileID>
47_TXCST2_v1a

> <STRUCTURE_Formula>
C6H4ClNO2

> <STRUCTURE_MolecularWeight>
157.5545

> <STRUCTURE_ChemicalType>
defined organic

> <STRUCTURE_TestedForm_DefinedOrganic>
parent

> <STRUCTURE_Shown>
tested chemical

> <TestSubstance_ChemicalName>
1-Chloro-4-nitrobenzene

> <TestSubstance_CASRN>
100-00-5

> <TestSubstance_Description>
single chemical compound

> <STRUCTURE_ChemicalName_IUPAC>
1-chloro-4-nitrobenzene

> <STRUCTURE_SMILES>
O=[N+](C1=CC=C(C=C1)Cl)[O-]

> <STRUCTURE_Parent_SMILES>
O=[N+](C1=CC=C(C=C1)Cl)[O-]

> <STRUCTURE_InChIS>
InChI=1S/C6H4ClNO2/c7-5-1-3-6(4-2-5)8(9)10/h1-4H

> <STRUCTURE_InChIKey>
CZGCEKJOLUNIFY-UHFFFAOYSA-N

> <Substance_modify_yyyymmdd>
20080429

> <Coord_Metals>
0

> <Index>
47

> <Canonical_Smiles>
Clc1ccc(cc1)N(=O)=O

> <Molecular_Weight>
157.55445

> <Frequency>
1

$$$$

  SciTegic          2D

 16 16  0  0  0  0            999 V2000
    2.5973   -1.5031    0.0000 N   0  0
    1.2990   -0.7500    0.0000 C   0  0
    1.2990    0.7500    0.0000 C   0  0
    0.0000    1.5000    0.0000 C   0  0
   -1.2990    0.7500    0.0000 C   0  0
   -1.2990   -0.7500    0.0000 C   0  0
    0.0000   -1.5000    0.0000 C   0  0
   -2.3383   -1.3500    0.0000 Cl  0  0
    2.5972    1.5031    0.0000 N   0  0
    2.5958   -2.5031    0.0000 H   0  0
    3.4642   -1.0046    0.0000 H   0  0
    0.0000    2.5000    0.0000 H   0  0
   -2.1651    1.2500    0.0000 H   0  0
    0.0000   -2.5000    0.0000 H   0  0
    2.5958    2.5031    0.0000 H   0  0
    3.4641    1.0046    0.0000 H   0  0
  1  2  1  0
  2  3  2  0
  2  7  1  0
  3  4  1  0
  3  9  1  0
  4  5  2  0
  5  6  1  0
  6  7  2  0
  6  8  1  0
  1 10  1  0
  1 11  1  0
  4 12  1  0
  5 13  1  0
  7 14  1  0
  9 15  1  0
  9 16  1  0
V    1 0
V    2 1
V    3 2
V    4 3
V    5 4
V    6 5
V    7 6
V    8 7
V    9 8
M  END
> <DSSTox_RID>
60942

> <DSSTox_CID>
283

> <DSSTox_CID_Parent>
283

> <DSSTox_Generic_SID>
20283

> <DSSTox_FileID>
48_TXCST2_v1a

> <STRUCTURE_Formula>
C6H7ClN2

> <STRUCTURE_MolecularWeight>
142.5862

> <STRUCTURE_ChemicalType>
defined organic

> <STRUCTURE_TestedForm_DefinedOrganic>
parent

> <STRUCTURE_Shown>
tested chemical

> <TestSubstance_ChemicalName>
4-Chloro-1,2-diaminobenzene

> <TestSubstance_CASRN>
95-83-0

> <TestSubstance_Description>
single chemical compound

> <STRUCTURE_ChemicalName_IUPAC>
4-chlorobenzene-1,2-diamine

> <STRUCTURE_SMILES>
NC1=C(C=CC(=C1)Cl)N

> <STRUCTURE_Parent_SMILES>
NC1=C(C=CC(=C1)Cl)N

> <STRUCTURE_InChIS>
InChI=1S/C6H7ClN2/c7-4-1-2-5(8)6(9)3-4/h1-3H,8-9H2

> <STRUCTURE_InChIKey>
BXIXXXYDDJVHDL-UHFFFAOYSA-N

> <Substance_modify_yyyymmdd>
20080429

> <Coord_Metals>
0

> <Index>
48

> <Canonical_Smiles>
Nc1ccc(Cl)cc1N

> <Molecular_Weight>
142.58617

> <Frequency>
1

$$$$

  SciTegic          2D

 35 36  0  0  0  0            999 V2000
    4.9351    3.1627    0.0000 Cl  0  0
    3.8941    3.7597    0.0000 C   0  0
    2.5972    3.0060    0.0000 C   0  0
    1.2961    3.7523    0.0000 C   0  0
    1.2918    5.2523    0.0000 N   0  0
    2.5887    6.0060    0.0000 C   0  0
    3.8898    5.2597    0.0000 N   0  0
    2.5875    7.5068    0.0000 S   0  0
    3.8861    8.2591    0.0000 C   0  0
    3.8850    9.7599    0.0000 C   0  0
    2.8451   10.3588    0.0000 O   0  0
    5.1836   10.5122    0.0000 O   0  0
   -0.0031    3.0008    0.0000 N   0  0
   -1.3039    3.7494    0.0000 C   0  0
   -1.3092    5.2494    0.0000 C   0  0
   -2.6108    5.9949    0.0000 C   0  0
   -3.9073    5.2404    0.0000 C   0  0
   -3.9021    3.7404    0.0000 C   0  0
   -2.6005    2.9949    0.0000 C   0  0
   -2.5953    1.4941    0.0000 C   0  0
   -5.1992    2.9855    0.0000 C   0  0
    2.6001    2.0060    0.0000 H   0  0
    3.8874    7.2591    0.0000 H   0  0
    4.7527    7.7601    0.0000 H   0  0
    5.1828   11.5122    0.0000 H   0  0
   -0.0020    2.0008    0.0000 H   0  0
   -0.4449    5.7524    0.0000 H   0  0
   -2.6143    6.9949    0.0000 H   0  0
   -4.7750    5.7374    0.0000 H   0  0
   -1.7279    0.9965    0.0000 H   0  0
   -3.4598    0.9914    0.0000 H   0  0
   -2.5924    0.4941    0.0000 H   0  0
   -6.0673    3.4820    0.0000 H   0  0
   -5.1954    1.9855    0.0000 H   0  0
   -6.0633    2.4821    0.0000 H   0  0
  1  2  1  0
  2  3  2  0
  2  7  1  0
  3  4  1  0
  4  5  2  0
  4 13  1  0
  5  6  1  0
  6  7  2  0
  6  8  1  0
  8  9  1  0
  9 10  1  0
 10 11  2  0
 10 12  1  0
 13 14  1  0
 14 15  2  0
 14 19  1  0
 15 16  1  0
 16 17  2  0
 17 18  1  0
 18 19  2  0
 18 21  1  0
 19 20  1  0
  3 22  1  0
  9 23  1  0
  9 24  1  0
 12 25  1  0
 13 26  1  0
 15 27  1  0
 16 28  1  0
 17 29  1  0
 20 30  1  0
 20 31  1  0
 20 32  1  0
 21 33  1  0
 21 34  1  0
 21 35  1  0
V    1 0
V    2 1
V    3 2
V    4 3
V    5 4
V    6 5
V    7 6
V    8 7
V    9 8
V   10 9
V   11 10
V   12 11
V   13 12
V   14 13
V   15 14
V   16 15
V   17 16
V   18 17
V   19 18
V   20 19
V   21 20
M  END
> <DSSTox_RID>
59575

> <DSSTox_CID>
290

> <DSSTox_CID_Parent>
290

> <DSSTox_Generic_SID>
20290

> <DSSTox_FileID>
49_TXCST2_v1a

> <STRUCTURE_Formula>
C14H14ClN3O2S

> <STRUCTURE_MolecularWeight>
323.7979

> <STRUCTURE_ChemicalType>
defined organic

> <STRUCTURE_TestedForm_DefinedOrganic>
parent

> <STRUCTURE_Shown>
tested chemical

> <TestSubstance_ChemicalName>
Pirinixic acid

> <TestSubstance_CASRN>
50892-23-4

> <TestSubstance_Description>
single chemical compound

> <STRUCTURE_ChemicalName_IUPAC>
({4-chloro-6-[(2,3-dimethylphenyl)amino]pyrimidin-2-yl}thio)acetic acid

> <STRUCTURE_SMILES>
ClC1=CC(=NC(=N1)SCC(=O)O)NC2=CC=CC(=C2C)C

> <STRUCTURE_Parent_SMILES>
ClC1=CC(=NC(=N1)SCC(=O)O)NC2=CC=CC(=C2C)C

> <STRUCTURE_InChIS>
InChI=1S/C14H14ClN3O2S/c1-8-4-3-5-10(9(8)2)16-12-6-11(15)17-14(18-12)21-7-13(19)20/h3-6H,7H2,1-2H3,(H,19,20)(H,16,17,18)

> <STRUCTURE_InChIKey>
SZRPDCCEHVWOJX-UHFFFAOYSA-N

> <Substance_modify_yyyymmdd>
20080429

> <Coord_Metals>
0

> <Index>
49

> <Canonical_Smiles>
Cc1cccc(Nc2cc(Cl)nc(SCC(=O)O)n2)c1C

> <Molecular_Weight>
323.79786

> <Frequency>
1

$$$$

  SciTegic          2D

 17 17  0  0  0  0            999 V2000
    3.6375   -0.9049    0.0000 O   0  0
    2.5973   -1.5031    0.0000 C   0  0
    1.2990   -0.7500    0.0000 C   0  0
    1.2990    0.7500    0.0000 C   0  0
    0.0000    1.5000    0.0000 C   0  0
   -1.2990    0.7500    0.0000 C   0  0
   -1.2990   -0.7500    0.0000 C   0  0
    0.0000   -1.5000    0.0000 C   0  0
    2.5951   -3.0039    0.0000 C   0  0
    3.6331   -3.6060    0.0000 Cl  0  0
    2.1651    1.2500    0.0000 H   0  0
    0.0000    2.5000    0.0000 H   0  0
   -2.1651    1.2500    0.0000 H   0  0
   -2.1651   -1.2500    0.0000 H   0  0
    0.0000   -2.5000    0.0000 H   0  0
    2.5932   -4.0039    0.0000 H   0  0
    1.7282   -3.5024    0.0000 H   0  0
  1  2  2  0
  2  3  1  0
  2  9  1  0
  3  4  2  0
  3  8  1  0
  4  5  1  0
  5  6  2  0
  6  7  1  0
  7  8  2  0
  9 10  1  0
  4 11  1  0
  5 12  1  0
  6 13  1  0
  7 14  1  0
  8 15  1  0
  9 16  1  0
  9 17  1  0
V    1 0
V    2 1
V    3 2
V    4 3
V    5 4
V    6 5
V    7 6
V    8 7
V    9 8
V   10 9
M  END
> <DSSTox_RID>
66565

> <DSSTox_CID>
293

> <DSSTox_CID_Parent>
293

> <DSSTox_Generic_SID>
20293

> <DSSTox_FileID>
50_TXCST2_v1a

> <STRUCTURE_Formula>
C8H7ClO

> <STRUCTURE_MolecularWeight>
154.5936

> <STRUCTURE_ChemicalType>
defined organic

> <STRUCTURE_TestedForm_DefinedOrganic>
parent

> <STRUCTURE_Shown>
tested chemical

> <TestSubstance_ChemicalName>
2-Chloroacetophenone

> <TestSubstance_CASRN>
532-27-4

> <TestSubstance_Description>
single chemical compound

> <STRUCTURE_ChemicalName_IUPAC>
2-chloro-1-phenylethanone

> <STRUCTURE_SMILES>
O=C(C1=CC=CC=C1)CCl

> <STRUCTURE_Parent_SMILES>
O=C(C1=CC=CC=C1)CCl

> <STRUCTURE_InChIS>
InChI=1S/C8H7ClO/c9-6-8(10)7-4-2-1-3-5-7/h1-5H,6H2

> <STRUCTURE_InChIKey>
IMACFCSSMIZSPP-UHFFFAOYSA-N

> <Substance_modify_yyyymmdd>
20080429

> <Coord_Metals>
0

> <Index>
50

> <Canonical_Smiles>
ClCC(=O)c1ccccc1

> <Molecular_Weight>
154.59357

> <Frequency>
1

$$$$

  SciTegic          2D

 14 14  0  0  0  0            999 V2000
    2.5973   -1.5031    0.0000 N   0  0
    1.2990   -0.7500    0.0000 C   0  0
    1.2990    0.7500    0.0000 C   0  0
    0.0000    1.5000    0.0000 C   0  0
   -1.2990    0.7500    0.0000 C   0  0
   -1.2990   -0.7500    0.0000 C   0  0
    0.0000   -1.5000    0.0000 C   0  0
   -2.3383    1.3500    0.0000 Cl  0  0
    2.5958   -2.5031    0.0000 H   0  0
    3.4642   -1.0046    0.0000 H   0  0
    2.1651    1.2500    0.0000 H   0  0
    0.0000    2.5000    0.0000 H   0  0
   -2.1651   -1.2500    0.0000 H   0  0
    0.0000   -2.5000    0.0000 H   0  0
  1  2  1  0
  2  3  2  0
  2  7  1  0
  3  4  1  0
  4  5  2  0
  5  6  1  0
  5  8  1  0
  6  7  2  0
  1  9  1  0
  1 10  1  0
  3 11  1  0
  4 12  1  0
  6 13  1  0
  7 14  1  0
V    1 0
V    2 1
V    3 2
V    4 3
V    5 4
V    6 5
V    7 6
V    8 7
M  END
> <DSSTox_RID>
65527

> <DSSTox_CID>
295

> <DSSTox_CID_Parent>
295

> <DSSTox_Generic_SID>
20295

> <DSSTox_FileID>
51_TXCST2_v1a

> <STRUCTURE_Formula>
C6H6ClN

> <STRUCTURE_MolecularWeight>
127.5715

> <STRUCTURE_ChemicalType>
defined organic

> <STRUCTURE_TestedForm_DefinedOrganic>
parent

> <STRUCTURE_Shown>
tested chemical

> <TestSubstance_ChemicalName>
p-Chloroaniline

> <TestSubstance_CASRN>
106-47-8

> <TestSubstance_Description>
single chemical compound

> <STRUCTURE_ChemicalName_IUPAC>
4-chloroaniline

> <STRUCTURE_SMILES>
NC1=CC=C(C=C1)Cl

> <STRUCTURE_Parent_SMILES>
NC1=CC=C(C=C1)Cl

> <STRUCTURE_InChIS>
InChI=1S/C6H6ClN/c7-5-1-3-6(8)4-2-5/h1-4H,8H2

> <STRUCTURE_InChIKey>
QSNSCYSYFYORTR-UHFFFAOYSA-N

> <Substance_modify_yyyymmdd>
20080429

> <Coord_Metals>
0

> <Index>
51

> <Canonical_Smiles>
Nc1ccc(Cl)cc1

> <Molecular_Weight>
127.57154

> <Frequency>
1

$$$$

  SciTegic          2D

 35 36  0  0  0  0            999 V2000
    2.4093   -0.4626    0.0000 O   0  0
    2.9337   -1.8999    0.0000 C   0  0
    1.4556   -1.6393    0.0000 C   0  0
    0.9426   -0.2297    0.0000 C   0  0
   -0.5346    0.0307    0.0000 C   0  0
   -1.4988   -1.1183    0.0000 C   0  0
   -0.9858   -2.5279    0.0000 C   0  0
    0.4914   -2.7884    0.0000 C   0  0
   -2.6806   -0.9100    0.0000 Cl  0  0
    3.8990   -0.7507    0.0000 C   0  0
    5.1977   -1.5013    0.0000 C   0  0
    6.4971   -0.7520    0.0000 C   0  0
    6.4979    0.7480    0.0000 C   0  0
    5.1992    1.4987    0.0000 C   0  0
    3.8998    0.7493    0.0000 C   0  0
    7.5374    1.3474    0.0000 Cl  0  0
    3.4495   -3.3093    0.0000 C   0  0
    2.6795   -4.2297    0.0000 O   0  0
    4.9278   -3.5682    0.0000 O   0  0
    5.4436   -4.9776    0.0000 C   0  0
    6.9219   -5.2365    0.0000 C   0  0
    3.0510    0.3043    0.0000 H   0  0
    1.5854    0.5363    0.0000 H   0  0
   -0.8767    0.9704    0.0000 H   0  0
   -1.6286   -3.2939    0.0000 H   0  0
    0.8335   -3.7280    0.0000 H   0  0
    5.1971   -2.5013    0.0000 H   0  0
    7.3629   -1.2525    0.0000 H   0  0
    5.1998    2.4987    0.0000 H   0  0
    3.0340    1.2498    0.0000 H   0  0
    4.4585   -4.8056    0.0000 H   0  0
    4.8020   -5.7446    0.0000 H   0  0
    7.2656   -6.1756    0.0000 H   0  0
    7.9070   -5.4086    0.0000 H   0  0
    7.5636   -4.4696    0.0000 H   0  0
  1  2  1  0
  2  3  1  0
  2 10  1  0
  2 17  1  0
  3  4  2  0
  3  8  1  0
  4  5  1  0
  5  6  2  0
  6  7  1  0
  6  9  1  0
  7  8  2  0
 10 11  2  0
 10 15  1  0
 11 12  1  0
 12 13  2  0
 13 14  1  0
 13 16  1  0
 14 15  2  0
 17 18  2  0
 17 19  1  0
 19 20  1  0
 20 21  1  0
  1 22  1  0
  4 23  1  0
  5 24  1  0
  7 25  1  0
  8 26  1  0
 11 27  1  0
 12 28  1  0
 14 29  1  0
 15 30  1  0
 20 31  1  0
 20 32  1  0
 21 33  1  0
 21 34  1  0
 21 35  1  0
V    1 0
V    2 1
V    3 2
V    4 3
V    5 4
V    6 5
V    7 6
V    8 7
V    9 8
V   10 9
V   11 10
V   12 11
V   13 12
V   14 13
V   15 14
V   16 15
V   17 16
V   18 17
V   19 18
V   20 19
V   21 20
M  END
> <DSSTox_RID>
60104

> <DSSTox_CID>
299

> <DSSTox_CID_Parent>
299

> <DSSTox_Generic_SID>
20299

> <DSSTox_FileID>
52_TXCST2_v1a

> <STRUCTURE_Formula>
C16H14Cl2O3

> <STRUCTURE_MolecularWeight>
325.1866

> <STRUCTURE_ChemicalType>
defined organic

> <STRUCTURE_TestedForm_DefinedOrganic>
parent

> <STRUCTURE_Shown>
tested chemical

> <TestSubstance_ChemicalName>
Chlorobenzilate

> <TestSubstance_CASRN>
510-15-6

> <TestSubstance_Description>
single chemical compound

> <Source_ChemicalNote>
tested chemical contained 0.01% water

> <STRUCTURE_ChemicalName_IUPAC>
ethyl bis(4-chlorophenyl)(hydroxy)acetate

> <STRUCTURE_SMILES>
OC(C1=CC=C(C=C1)Cl)(C2=CC=C(C=C2)Cl)C(=O)OCC

> <STRUCTURE_Parent_SMILES>
OC(C1=CC=C(C=C1)Cl)(C2=CC=C(C=C2)Cl)C(=O)OCC

> <STRUCTURE_InChIS>
InChI=1S/C16H14Cl2O3/c1-2-21-15(19)16(20,11-3-7-13(17)8-4-11)12-5-9-14(18)10-6-12/h3-10,20H,2H2,1H3

> <STRUCTURE_InChIKey>
RAPBNVDSDCTNRC-UHFFFAOYSA-N

> <Substance_modify_yyyymmdd>
20080429

> <Coord_Metals>
0

> <Index>
52

> <Canonical_Smiles>
CCOC(=O)C(O)(c1ccc(Cl)cc1)c2ccc(Cl)cc2

> <Molecular_Weight>
325.18656

> <Frequency>
1

$$$$

  SciTegic          2D

 24 24  0  0  0  0            999 V2000
    1.5548   -3.6021    0.0000 O   0  0
    2.5951   -3.0039    0.0000 C   0  0
    3.8933   -3.7570    0.0000 N   0  0
    3.8912   -5.2578    0.0000 C   0  0
    5.1929   -3.0062    0.0000 C   0  0
    2.5973   -1.5031    0.0000 N   0  0
    1.2990   -0.7500    0.0000 C   0  0
    1.2990    0.7500    0.0000 C   0  0
    0.0000    1.5000    0.0000 C   0  0
   -1.2990    0.7500    0.0000 C   0  0
   -1.2990   -0.7500    0.0000 C   0  0
    0.0000   -1.5000    0.0000 C   0  0
   -2.3383    1.3500    0.0000 Cl  0  0
    4.7562   -5.7596    0.0000 H   0  0
    3.0243   -5.7563    0.0000 H   0  0
    3.8893   -6.2578    0.0000 H   0  0
    5.1932   -2.0062    0.0000 H   0  0
    6.0589   -3.5062    0.0000 H   0  0
    6.0590   -2.5063    0.0000 H   0  0
    3.4642   -1.0046    0.0000 H   0  0
    2.1651    1.2500    0.0000 H   0  0
    0.0000    2.5000    0.0000 H   0  0
   -2.1651   -1.2500    0.0000 H   0  0
    0.0000   -2.5000    0.0000 H   0  0
  1  2  2  0
  2  3  1  0
  2  6  1  0
  3  4  1  0
  3  5  1  0
  6  7  1  0
  7  8  2  0
  7 12  1  0
  8  9  1  0
  9 10  2  0
 10 11  1  0
 10 13  1  0
 11 12  2  0
  4 14  1  0
  4 15  1  0
  4 16  1  0
  5 17  1  0
  5 18  1  0
  5 19  1  0
  6 20  1  0
  8 21  1  0
  9 22  1  0
 11 23  1  0
 12 24  1  0
V    1 0
V    2 1
V    3 2
V    4 3
V    5 4
V    6 5
V    7 6
V    8 7
V    9 8
V   10 9
V   11 10
V   12 11
V   13 12
M  END
> <DSSTox_RID>
62430

> <DSSTox_CID>
311

> <DSSTox_CID_Parent>
311

> <DSSTox_Generic_SID>
20311

> <DSSTox_FileID>
53_TXCST2_v1a

> <STRUCTURE_Formula>
C9H11ClN2O

> <STRUCTURE_MolecularWeight>
198.6494

> <STRUCTURE_ChemicalType>
defined organic

> <STRUCTURE_TestedForm_DefinedOrganic>
parent

> <STRUCTURE_Shown>
tested chemical

> <TestSubstance_ChemicalName>
Monuron

> <TestSubstance_CASRN>
150-68-5

> <TestSubstance_Description>
single chemical compound

> <STRUCTURE_ChemicalName_IUPAC>
3-(4-chlorophenyl)-1,1-dimethylurea

> <STRUCTURE_SMILES>
O=C(N(C)C)NC1=CC=C(C=C1)Cl

> <STRUCTURE_Parent_SMILES>
O=C(N(C)C)NC1=CC=C(C=C1)Cl

> <STRUCTURE_InChIS>
InChI=1S/C9H11ClN2O/c1-12(2)9(13)11-8-5-3-7(10)4-6-8/h3-6H,1-2H3,(H,11,13)

> <STRUCTURE_InChIKey>
BMLIZLVNXIYGCK-UHFFFAOYSA-N

> <Substance_modify_yyyymmdd>
20080429

> <Coord_Metals>
0

> <Index>
53

> <Canonical_Smiles>
CN(C)C(=O)Nc1ccc(Cl)cc1

> <Molecular_Weight>
198.64943

> <Frequency>
1

$$$$

  SciTegic          2D

 14 14  0  0  0  0            999 V2000
    2.3383   -1.3500    0.0000 Cl  0  0
    1.2990   -0.7500    0.0000 C   0  0
    1.2990    0.7500    0.0000 C   0  0
    0.0000    1.5000    0.0000 C   0  0
   -1.2990    0.7500    0.0000 C   0  0
   -1.2990   -0.7500    0.0000 C   0  0
    0.0000   -1.5000    0.0000 C   0  0
    0.0000   -3.0008    0.0000 C   0  0
    0.0000   -4.2008    0.0000 N   0  0
   -2.3383   -1.3500    0.0000 Cl  0  0
   -2.3383    1.3500    0.0000 Cl  0  0
    0.0000    2.7000    0.0000 Cl  0  0
    2.5988    1.5004    0.0000 C   0  0
    3.6380    2.1004    0.0000 N   0  0
  1  2  1  0
  2  3  2  0
  2  7  1  0
  3  4  1  0
  3 13  1  0
  4  5  2  0
  4 12  1  0
  5  6  1  0
  5 11  1  0
  6  7  2  0
  6 10  1  0
  7  8  1  0
  8  9  3  0
 13 14  3  0
V    1 0
V    2 1
V    3 2
V    4 3
V    5 4
V    6 5
V    7 6
V    8 7
V    9 8
V   10 9
V   11 10
V   12 11
V   13 12
V   14 13
M  END
> <DSSTox_RID>
59830

> <DSSTox_CID>
319

> <DSSTox_CID_Parent>
319

> <DSSTox_Generic_SID>
20319

> <DSSTox_FileID>
54_TXCST2_v1a

> <STRUCTURE_Formula>
C8Cl4N2

> <STRUCTURE_MolecularWeight>
265.911

> <STRUCTURE_ChemicalType>
defined organic

> <STRUCTURE_TestedForm_DefinedOrganic>
parent

> <STRUCTURE_Shown>
tested chemical

> <TestSubstance_ChemicalName>
Chlorothalonil

> <TestSubstance_CASRN>
1897-45-6

> <TestSubstance_Description>
single chemical compound

> <STRUCTURE_ChemicalName_IUPAC>
2,4,5,6-tetrachloroisophthalonitrile

> <STRUCTURE_SMILES>
ClC1=C(C(=C(C(=C1C#N)Cl)Cl)Cl)C#N

> <STRUCTURE_Parent_SMILES>
ClC1=C(C(=C(C(=C1C#N)Cl)Cl)Cl)C#N

> <STRUCTURE_InChIS>
InChI=1S/C8Cl4N2/c9-5-3(1-13)6(10)8(12)7(11)4(5)2-14

> <STRUCTURE_InChIKey>
CRQQGFGUEAVUIL-UHFFFAOYSA-N

> <Substance_modify_yyyymmdd>
20080429

> <Coord_Metals>
0

> <Index>
54

> <Canonical_Smiles>
Clc1c(Cl)c(C#N)c(Cl)c(C#N)c1Cl

> <Molecular_Weight>
265.911

> <Frequency>
1

$$$$

  SciTegic          2D

 21 20  0  0  0  0            999 V2000
    5.2000   -1.5007    0.0000 O   0  0
    5.2000    0.0000    0.0000 C   0  0
    3.9000    0.7500    0.0000 C   0  0
    3.8985    2.2508    0.0000 C   0  0
    4.9374    2.8515    0.0000 O   0  0
    2.5986    3.0008    0.0000 O   0  0
    6.5000    0.7500    0.0000 C   0  0
    7.7999    0.0000    0.0000 C   0  0
    7.7999   -1.2000    0.0000 O   0  0
    9.0999    0.7500    0.0000 O   0  0
    3.8760   -0.7669    0.0000 C   0  0
    3.0095   -0.2678    0.0000 O   0  0
    3.8773   -2.2677    0.0000 O   0  0
    4.3343   -2.0013    0.0000 H   0  0
    3.0343    0.2495    0.0000 H   0  0
    3.0335    1.2493    0.0000 H   0  0
    2.5976    4.0008    0.0000 H   0  0
    6.5000    1.7500    0.0000 H   0  0
    7.3659    1.2501    0.0000 H   0  0
    9.9661    0.2503    0.0000 H   0  0
    3.0120   -2.7689    0.0000 H   0  0
  1  2  1  0
  2  3  1  0
  2  7  1  0
  2 11  1  0
  3  4  1  0
  4  5  2  0
  4  6  1  0
  7  8  1  0
  8  9  2  0
  8 10  1  0
 11 12  2  0
 11 13  1  0
  1 14  1  0
  3 15  1  0
  3 16  1  0
  6 17  1  0
  7 18  1  0
  7 19  1  0
 10 20  1  0
 13 21  1  0
V    1 0
V    2 1
V    3 2
V    4 3
V    5 4
V    6 5
V    7 6
V    8 7
V    9 8
V   10 9
V   11 10
V   12 11
V   13 12
M  END
> <DSSTox_RID>
65494

> <DSSTox_CID>
332

> <DSSTox_CID_Parent>
332

> <DSSTox_Generic_SID>
20332

> <DSSTox_FileID>
55_TXCST2_v1a

> <STRUCTURE_Formula>
C6H8O7

> <STRUCTURE_MolecularWeight>
192.1235

> <STRUCTURE_ChemicalType>
defined organic

> <STRUCTURE_TestedForm_DefinedOrganic>
parent

> <STRUCTURE_Shown>
tested chemical

> <TestSubstance_ChemicalName>
Citric acid

> <TestSubstance_CASRN>
77-92-9

> <TestSubstance_Description>
single chemical compound

> <STRUCTURE_ChemicalName_IUPAC>
2-hydroxypropane-1,2,3-tricarboxylic acid

> <STRUCTURE_SMILES>
OC(CC(=O)O)(CC(=O)O)C(=O)O

> <STRUCTURE_Parent_SMILES>
OC(CC(=O)O)(CC(=O)O)C(=O)O

> <STRUCTURE_InChIS>
InChI=1S/C6H8O7/c7-3(8)1-6(13,5(11)12)2-4(9)10/h13H,1-2H2,(H,7,8)(H,9,10)(H,11,12)

> <STRUCTURE_InChIKey>
KRKNYBCHXYNGOX-UHFFFAOYSA-N

> <Substance_modify_yyyymmdd>
20080429

> <Coord_Metals>
0

> <Index>
55

> <Canonical_Smiles>
OC(=O)CC(O)(CC(=O)O)C(=O)O

> <Molecular_Weight>
192.12351

> <Frequency>
1

$$$$

  SciTegic          2D

 31 31  0  0  0  0            999 V2000
    1.2941   -3.7520    0.0000 C   0  0
    2.5951   -3.0039    0.0000 C   0  0
    2.5973   -1.5031    0.0000 O   0  0
    3.8976   -0.7537    0.0000 C   0  0
    3.9019    0.7463    0.0000 C   0  0
    5.2031    1.4926    0.0000 C   0  0
    6.4999    0.7389    0.0000 C   0  0
    6.4957   -0.7611    0.0000 C   0  0
    5.1945   -1.5074    0.0000 C   0  0
    7.5409    1.3359    0.0000 Cl  0  0
    3.8933   -3.7570    0.0000 C   0  0
    4.9336   -3.1588    0.0000 O   0  0
    3.8912   -5.2578    0.0000 O   0  0
    5.1894   -6.0109    0.0000 C   0  0
    5.1873   -7.5117    0.0000 C   0  0
    1.2732   -2.2336    0.0000 C   0  0
    0.4287   -3.2511    0.0000 H   0  0
    0.4275   -4.2509    0.0000 H   0  0
    1.2927   -4.7520    0.0000 H   0  0
    3.0373    1.2488    0.0000 H   0  0
    5.2059    2.4926    0.0000 H   0  0
    7.3603   -1.2636    0.0000 H   0  0
    5.1917   -2.5074    0.0000 H   0  0
    5.1913   -5.0109    0.0000 H   0  0
    6.0563   -5.5124    0.0000 H   0  0
    6.0523   -8.0135    0.0000 H   0  0
    5.1854   -8.5117    0.0000 H   0  0
    4.3204   -8.0102    0.0000 H   0  0
    1.2767   -1.2336    0.0000 H   0  0
    0.4053   -2.7303    0.0000 H   0  0
    0.4090   -1.7304    0.0000 H   0  0
  1  2  1  0
  2  3  1  0
  2 11  1  0
  2 16  1  0
  3  4  1  0
  4  5  2  0
  4  9  1  0
  5  6  1  0
  6  7  2  0
  7  8  1  0
  7 10  1  0
  8  9  2  0
 11 12  2  0
 11 13  1  0
 13 14  1  0
 14 15  1  0
  1 17  1  0
  1 18  1  0
  1 19  1  0
  5 20  1  0
  6 21  1  0
  8 22  1  0
  9 23  1  0
 14 24  1  0
 14 25  1  0
 15 26  1  0
 15 27  1  0
 15 28  1  0
 16 29  1  0
 16 30  1  0
 16 31  1  0
V    1 0
V    2 1
V    3 2
V    4 3
V    5 4
V    6 5
V    7 6
V    8 7
V    9 8
V   10 9
V   11 10
V   12 11
V   13 12
V   14 13
V   15 14
V   16 15
M  END
> <DSSTox_RID>
62285

> <DSSTox_CID>
336

> <DSSTox_CID_Parent>
336

> <DSSTox_Generic_SID>
20336

> <DSSTox_FileID>
56_TXCST2_v1a

> <STRUCTURE_Formula>
C12H15ClO3

> <STRUCTURE_MolecularWeight>
242.6987

> <STRUCTURE_ChemicalType>
defined organic

> <STRUCTURE_TestedForm_DefinedOrganic>
parent

> <STRUCTURE_Shown>
tested chemical

> <TestSubstance_ChemicalName>
Clofibrate

> <TestSubstance_CASRN>
637-07-0

> <TestSubstance_Description>
single chemical compound

> <STRUCTURE_ChemicalName_IUPAC>
ethyl 2-[(4-chlorophenyl)oxy]-2-methylpropanoate

> <STRUCTURE_SMILES>
CC(OC1=CC=C(C=C1)Cl)(C(=O)OCC)C

> <STRUCTURE_Parent_SMILES>
CC(OC1=CC=C(C=C1)Cl)(C(=O)OCC)C

> <STRUCTURE_InChIS>
InChI=1S/C12H15ClO3/c1-4-15-11(14)12(2,3)16-10-7-5-9(13)6-8-10/h5-8H,4H2,1-3H3

> <STRUCTURE_InChIKey>
KNHUKKLJHYUCFP-UHFFFAOYSA-N

> <Substance_modify_yyyymmdd>
20080429

> <Coord_Metals>
0

> <Index>
56

> <Canonical_Smiles>
CCOC(=O)C(C)(C)Oc1ccc(Cl)cc1

> <Molecular_Weight>
242.69869

> <Frequency>
1

$$$$

  SciTegic          2D

 38 39  0  0  0  0            999 V2000
   -1.2876    2.9981    0.0000 C   0  0
   -1.2964    1.4973    0.0000 C   0  0
   -2.6111    0.7486    0.0000 C   0  0
   -3.6486    1.3517    0.0000 Cl  0  0
   -2.6111   -0.7486    0.0000 C   0  0
   -3.6486   -1.3517    0.0000 O   0  0
   -1.2964   -1.4973    0.0000 O   0  0
    0.0000   -0.7486    0.0000 C   0  0
    0.0000    0.7486    0.0000 C   0  0
    1.2964    1.4973    0.0000 C   0  0
    2.5929    0.7486    0.0000 C   0  0
    2.5929   -0.7486    0.0000 C   0  0
    1.2964   -1.4973    0.0000 C   0  0
    3.8911   -1.5017    0.0000 O   0  0
    3.8890   -3.0026    0.0000 P   0  0
    4.9275   -3.6037    0.0000 S   0  0
    2.5886   -3.7520    0.0000 O   0  0
    2.5865   -5.2528    0.0000 C   0  0
    1.2861   -6.0022    0.0000 C   0  0
    5.2159   -2.2409    0.0000 O   0  0
    6.5142   -2.9938    0.0000 C   0  0
    7.8159   -2.2467    0.0000 C   0  0
   -2.1503    3.5038    0.0000 H   0  0
   -0.4185    3.4927    0.0000 H   0  0
   -1.2812    3.9981    0.0000 H   0  0
    1.2964    2.4973    0.0000 H   0  0
    3.4589    1.2486    0.0000 H   0  0
    1.2964   -2.4973    0.0000 H   0  0
    3.4520   -5.7537    0.0000 H   0  0
    3.4531   -4.7539    0.0000 H   0  0
    1.2847   -7.0022    0.0000 H   0  0
    0.4207   -5.5012    0.0000 H   0  0
    0.4195   -6.5011    0.0000 H   0  0
    5.6471   -3.4920    0.0000 H   0  0
    6.5119   -3.9938    0.0000 H   0  0
    8.6809   -2.7484    0.0000 H   0  0
    8.6829   -1.7485    0.0000 H   0  0
    7.8181   -1.2467    0.0000 H   0  0
  1  2  1  0
  2  3  2  0
  2  9  1  0
  3  4  1  0
  3  5  1  0
  5  6  2  0
  5  7  1  0
  7  8  1  0
  8  9  2  0
  8 13  1  0
  9 10  1  0
 10 11  2  0
 11 12  1  0
 12 13  2  0
 12 14  1  0
 14 15  1  0
 15 16  2  0
 15 17  1  0
 15 20  1  0
 17 18  1  0
 18 19  1  0
 20 21  1  0
 21 22  1  0
  1 23  1  0
  1 24  1  0
  1 25  1  0
 10 26  1  0
 11 27  1  0
 13 28  1  0
 18 29  1  0
 18 30  1  0
 19 31  1  0
 19 32  1  0
 19 33  1  0
 21 34  1  0
 21 35  1  0
 22 36  1  0
 22 37  1  0
 22 38  1  0
V    1 0
V    2 1
V    3 2
V    4 3
V    5 4
V    6 5
V    7 6
V    8 7
V    9 8
V   10 9
V   11 10
V   12 11
V   13 12
V   14 13
V   15 14
V   16 15
V   17 16
V   18 17
V   19 18
V   20 19
V   21 20
V   22 21
M  END
> <DSSTox_RID>
59835

> <DSSTox_CID>
347

> <DSSTox_CID_Parent>
347

> <DSSTox_Generic_SID>
20347

> <DSSTox_FileID>
57_TXCST2_v1a

> <STRUCTURE_Formula>
C14H16ClO5PS

> <STRUCTURE_MolecularWeight>
362.7656

> <STRUCTURE_ChemicalType>
defined organic

> <STRUCTURE_TestedForm_DefinedOrganic>
parent

> <STRUCTURE_Shown>
tested chemical

> <TestSubstance_ChemicalName>
Coumaphos

> <TestSubstance_CASRN>
56-72-4

> <TestSubstance_Description>
single chemical compound

> <STRUCTURE_ChemicalName_IUPAC>
O-(3-chloro-4-methyl-2-oxo-2H-chromen-7-yl) O,O-diethyl thiophosphate

> <STRUCTURE_SMILES>
CC1=C(Cl)C(=O)OC2=C1C=CC(=C2)OP(=S)(OCC)OCC

> <STRUCTURE_Parent_SMILES>
CC1=C(Cl)C(=O)OC2=C1C=CC(=C2)OP(=S)(OCC)OCC

> <STRUCTURE_InChIS>
InChI=1S/C14H16ClO5PS/c1-4-17-21(22,18-5-2)20-10-6-7-11-9(3)13(15)14(16)19-12(11)8-10/h6-8H,4-5H2,1-3H3

> <STRUCTURE_InChIKey>
BXNANOICGRISHX-UHFFFAOYSA-N

> <Substance_modify_yyyymmdd>
20080429

> <Coord_Metals>
0

> <Index>
57

> <Canonical_Smiles>
CCOP(=S)(OCC)Oc1ccc2C(=C(Cl)C(=O)Oc2c1)C

> <Molecular_Weight>
362.7656

> <Frequency>
1

$$$$

  SciTegic          2D

 17 18  0  0  0  0            999 V2000
   -3.6486    1.3517    0.0000 O   0  0
   -2.6111    0.7486    0.0000 C   0  0
   -1.2964    1.4973    0.0000 O   0  0
    0.0000    0.7486    0.0000 C   0  0
    0.0000   -0.7486    0.0000 C   0  0
    1.2964   -1.4973    0.0000 C   0  0
    2.5929   -0.7486    0.0000 C   0  0
    2.5929    0.7486    0.0000 C   0  0
    1.2964    1.4973    0.0000 C   0  0
   -1.2964   -1.4973    0.0000 C   0  0
   -2.6111   -0.7486    0.0000 C   0  0
    1.2964   -2.4973    0.0000 H   0  0
    3.4589   -1.2486    0.0000 H   0  0
    3.4589    1.2486    0.0000 H   0  0
    1.2964    2.4973    0.0000 H   0  0
   -1.2934   -2.4973    0.0000 H   0  0
   -3.4756   -1.2512    0.0000 H   0  0
  1  2  2  0
  2  3  1  0
  2 11  1  0
  3  4  1  0
  4  5  2  0
  4  9  1  0
  5  6  1  0
  5 10  1  0
  6  7  2  0
  7  8  1  0
  8  9  2  0
 10 11  2  0
  6 12  1  0
  7 13  1  0
  8 14  1  0
  9 15  1  0
 10 16  1  0
 11 17  1  0
V    1 0
V    2 1
V    3 2
V    4 3
V    5 4
V    6 5
V    7 6
V    8 7
V    9 8
V   10 9
V   11 10
M  END
> <DSSTox_RID>
60199

> <DSSTox_CID>
348

> <DSSTox_CID_Parent>
348

> <DSSTox_Generic_SID>
20348

> <DSSTox_FileID>
58_TXCST2_v1a

> <STRUCTURE_Formula>
C9H6O2

> <STRUCTURE_MolecularWeight>
146.1427

> <STRUCTURE_ChemicalType>
defined organic

> <STRUCTURE_TestedForm_DefinedOrganic>
parent

> <STRUCTURE_Shown>
tested chemical

> <TestSubstance_ChemicalName>
Coumarin

> <TestSubstance_CASRN>
91-64-5

> <TestSubstance_Description>
single chemical compound

> <STRUCTURE_ChemicalName_IUPAC>
2H-chromen-2-one

> <STRUCTURE_SMILES>
O=C1OC2=C(C=CC=C2)C=C1

> <STRUCTURE_Parent_SMILES>
O=C1OC2=C(C=CC=C2)C=C1

> <STRUCTURE_InChIS>
InChI=1S/C9H6O2/c10-9-6-5-7-3-1-2-4-8(7)11-9/h1-6H

> <STRUCTURE_InChIKey>
ZYGHJZDHTFUPRJ-UHFFFAOYSA-N

> <Substance_modify_yyyymmdd>
20080429

> <Coord_Metals>
0

> <Index>
58

> <Canonical_Smiles>
O=C1Oc2ccccc2C=C1

> <Molecular_Weight>
146.14273

> <Frequency>
1

$$$$

  SciTegic          2D

 21 21  0  0  0  0            999 V2000
    2.5973   -1.5031    0.0000 N   0  0
    1.2990   -0.7500    0.0000 C   0  0
    1.2990    0.7500    0.0000 C   0  0
    0.0000    1.5000    0.0000 C   0  0
   -1.2990    0.7500    0.0000 C   0  0
   -1.2990   -0.7500    0.0000 C   0  0
    0.0000   -1.5000    0.0000 C   0  0
   -0.0031   -3.0008    0.0000 O   0  0
   -1.3039   -3.7494    0.0000 C   0  0
    0.0000    3.0008    0.0000 C   0  0
    2.5958   -2.5031    0.0000 H   0  0
    3.4642   -1.0046    0.0000 H   0  0
    2.1651    1.2500    0.0000 H   0  0
   -2.1651    1.2500    0.0000 H   0  0
   -2.1651   -1.2500    0.0000 H   0  0
   -1.3060   -4.7494    0.0000 H   0  0
   -2.1691   -3.2479    0.0000 H   0  0
   -2.1709   -4.2478    0.0000 H   0  0
    0.8657    3.5014    0.0000 H   0  0
   -0.8662    3.5005    0.0000 H   0  0
   -0.0005    4.0008    0.0000 H   0  0
  1  2  1  0
  2  3  2  0
  2  7  1  0
  3  4  1  0
  4  5  2  0
  4 10  1  0
  5  6  1  0
  6  7  2  0
  7  8  1  0
  8  9  1  0
  1 11  1  0
  1 12  1  0
  3 13  1  0
  5 14  1  0
  6 15  1  0
  9 16  1  0
  9 17  1  0
  9 18  1  0
 10 19  1  0
 10 20  1  0
 10 21  1  0
V    1 0
V    2 1
V    3 2
V    4 3
V    5 4
V    6 5
V    7 6
V    8 7
V    9 8
V   10 9
M  END
> <DSSTox_RID>
62420

> <DSSTox_CID>
350

> <DSSTox_CID_Parent>
350

> <DSSTox_Generic_SID>
20350

> <DSSTox_FileID>
59_TXCST2_v1a

> <STRUCTURE_Formula>
C8H11NO

> <STRUCTURE_MolecularWeight>
137.179

> <STRUCTURE_ChemicalType>
defined organic

> <STRUCTURE_TestedForm_DefinedOrganic>
parent

> <STRUCTURE_Shown>
tested chemical

> <TestSubstance_ChemicalName>
2-Methoxy-5-methylaniline

> <TestSubstance_CASRN>
120-71-8

> <TestSubstance_Description>
single chemical compound

> <STRUCTURE_ChemicalName_IUPAC>
2-methoxy-5-methylaniline

> <STRUCTURE_SMILES>
NC1=CC(=CC=C1OC)C

> <STRUCTURE_Parent_SMILES>
NC1=CC(=CC=C1OC)C

> <STRUCTURE_InChIS>
InChI=1S/C8H11NO/c1-6-3-4-8(10-2)7(9)5-6/h3-5H,9H2,1-2H3

> <STRUCTURE_InChIKey>
WXWCDTXEKCVRRO-UHFFFAOYSA-N

> <Substance_modify_yyyymmdd>
20080429

> <Coord_Metals>
0

> <Index>
59

> <Canonical_Smiles>
COc1ccc(C)cc1N

> <Molecular_Weight>
137.17903

> <Frequency>
1

$$$$

  SciTegic          2D

 23 22  0  0  0  0            999 V2000
    6.5000    1.9500    0.0000 O   0  0
    6.5000    0.7500    0.0000 C   0  0
    5.2000    0.0000    0.0000 C   0  0
    3.9000    0.7500    0.0000 C   0  0
    2.6000    0.0000    0.0000 C   0  0
    2.6000   -1.2000    0.0000 O   0  0
    1.3000    0.7500    0.0000 O   0  0
    7.7999    0.0000    0.0000 N   0  0
    9.0999    0.7500    0.0000 N   0  0
   10.3999    0.0000    0.0000 C   0  0
    9.0968    2.2508    0.0000 C   0  0
    6.0659   -0.5001    0.0000 H   0  0
    5.2000   -1.0000    0.0000 H   0  0
    3.0340    1.2501    0.0000 H   0  0
    3.9000    1.7500    0.0000 H   0  0
    0.4338    0.2503    0.0000 H   0  0
    7.7999   -1.0000    0.0000 H   0  0
   11.2661    0.4997    0.0000 H   0  0
   10.3999   -1.0000    0.0000 H   0  0
   11.2659   -0.5001    0.0000 H   0  0
    8.2301    2.7496    0.0000 H   0  0
    9.9620    2.7523    0.0000 H   0  0
    9.0953    3.2508    0.0000 H   0  0
  1  2  2  0
  2  3  1  0
  2  8  1  0
  3  4  1  0
  4  5  1  0
  5  6  2  0
  5  7  1  0
  8  9  1  0
  9 10  1  0
  9 11  1  0
  3 12  1  0
  3 13  1  0
  4 14  1  0
  4 15  1  0
  7 16  1  0
  8 17  1  0
 10 18  1  0
 10 19  1  0
 10 20  1  0
 11 21  1  0
 11 22  1  0
 11 23  1  0
V    1 0
V    2 1
V    3 2
V    4 3
V    5 4
V    6 5
V    7 6
V    8 7
V    9 8
V   10 9
V   11 10
M  END
> <DSSTox_RID>
65870

> <DSSTox_CID>
370

> <DSSTox_CID_Parent>
370

> <DSSTox_Generic_SID>
20370

> <DSSTox_FileID>
60_TXCST2_v1a

> <STRUCTURE_Formula>
C6H12N2O3

> <STRUCTURE_MolecularWeight>
160.1711

> <STRUCTURE_ChemicalType>
defined organic

> <STRUCTURE_TestedForm_DefinedOrganic>
parent

> <STRUCTURE_Shown>
tested chemical

> <TestSubstance_ChemicalName>
Daminozide

> <TestSubstance_CASRN>
1596-84-5

> <TestSubstance_Description>
single chemical compound

> <STRUCTURE_ChemicalName_IUPAC>
4-(2,2-dimethylhydrazino)-4-oxobutanoic acid

> <STRUCTURE_SMILES>
O=C(CCC(=O)O)NN(C)C

> <STRUCTURE_Parent_SMILES>
O=C(CCC(=O)O)NN(C)C

> <STRUCTURE_InChIS>
InChI=1S/C6H12N2O3/c1-8(2)7-5(9)3-4-6(10)11/h3-4H2,1-2H3,(H,7,9)(H,10,11)

> <STRUCTURE_InChIKey>
NOQGZXFMHARMLW-UHFFFAOYSA-N

> <Substance_modify_yyyymmdd>
20080429

> <Coord_Metals>
0

> <Index>
60

> <Canonical_Smiles>
CN(C)NC(=O)CCC(=O)O

> <Molecular_Weight>
160.17107

> <Frequency>
1

$$$$

  SciTegic          2D

 29 30  0  0  0  0            999 V2000
    2.5984   -2.7004    0.0000 O   0  0
    2.5988   -1.5004    0.0000 S   0  0
    1.5595   -2.1002    0.0000 O   0  0
    1.2990   -0.7500    0.0000 C   0  0
    1.2990    0.7500    0.0000 C   0  0
    0.0000    1.5000    0.0000 C   0  0
   -1.2990    0.7500    0.0000 C   0  0
   -1.2990   -0.7500    0.0000 C   0  0
    0.0000   -1.5000    0.0000 C   0  0
   -2.6003    1.4977    0.0000 N   0  0
    3.8990   -0.7508    0.0000 C   0  0
    5.1976   -1.5016    0.0000 C   0  0
    6.4971   -0.7525    0.0000 C   0  0
    6.4980    0.7475    0.0000 C   0  0
    5.1995    1.4984    0.0000 C   0  0
    3.9000    0.7492    0.0000 C   0  0
    7.7967    1.4998    0.0000 N   0  0
    2.1651    1.2500    0.0000 H   0  0
    0.0000    2.5000    0.0000 H   0  0
   -2.1651   -1.2500    0.0000 H   0  0
    0.0000   -2.5000    0.0000 H   0  0
   -3.4657    0.9965    0.0000 H   0  0
   -2.6021    2.4977    0.0000 H   0  0
    5.1970   -2.5016    0.0000 H   0  0
    7.3628   -1.2530    0.0000 H   0  0
    5.2001    2.4984    0.0000 H   0  0
    3.0343    1.2497    0.0000 H   0  0
    7.7959    2.4998    0.0000 H   0  0
    8.6633    1.0008    0.0000 H   0  0
  1  2  2  0
  2  3  2  0
  2  4  1  0
  2 11  1  0
  4  5  2  0
  4  9  1  0
  5  6  1  0
  6  7  2  0
  7  8  1  0
  7 10  1  0
  8  9  2  0
 11 12  2  0
 11 16  1  0
 12 13  1  0
 13 14  2  0
 14 15  1  0
 14 17  1  0
 15 16  2  0
  5 18  1  0
  6 19  1  0
  8 20  1  0
  9 21  1  0
 10 22  1  0
 10 23  1  0
 12 24  1  0
 13 25  1  0
 15 26  1  0
 16 27  1  0
 17 28  1  0
 17 29  1  0
V    1 0
V    2 1
V    3 2
V    4 3
V    5 4
V    6 5
V    7 6
V    8 7
V    9 8
V   10 9
V   11 10
V   12 11
V   13 12
V   14 13
V   15 14
V   16 15
V   17 16
M  END
> <DSSTox_RID>
60181

> <DSSTox_CID>
371

> <DSSTox_CID_Parent>
371

> <DSSTox_Generic_SID>
20371

> <DSSTox_FileID>
61_TXCST2_v1a

> <STRUCTURE_Formula>
C12H12N2O2S

> <STRUCTURE_MolecularWeight>
248.3009

> <STRUCTURE_ChemicalType>
defined organic

> <STRUCTURE_TestedForm_DefinedOrganic>
parent

> <STRUCTURE_Shown>
tested chemical

> <TestSubstance_ChemicalName>
Dapsone

> <TestSubstance_CASRN>
80-08-0

> <TestSubstance_Description>
single chemical compound

> <STRUCTURE_ChemicalName_IUPAC>
4,4'-sulfonyldianiline

> <STRUCTURE_SMILES>
O=S(=O)(C1=CC=C(C=C1)N)C2=CC=C(C=C2)N

> <STRUCTURE_Parent_SMILES>
O=S(=O)(C1=CC=C(C=C1)N)C2=CC=C(C=C2)N

> <STRUCTURE_InChIS>
InChI=1S/C12H12N2O2S/c13-9-1-5-11(6-2-9)17(15,16)12-7-3-10(14)4-8-12/h1-8H,13-14H2

> <STRUCTURE_InChIKey>
MQJKPEGWNLWLTK-UHFFFAOYSA-N

> <Substance_modify_yyyymmdd>
20080429

> <Coord_Metals>
0

> <Index>
61

> <Canonical_Smiles>
Nc1ccc(cc1)S(=O)(=O)c2ccc(N)cc2

> <Molecular_Weight>
248.30087

> <Frequency>
1

$$$$

  SciTegic          2D

 28 29  0  0  0  0            999 V2000
    1.5593   -3.6015    0.0000 Cl  0  0
    2.5983   -3.0012    0.0000 C   0  0
    2.5988   -1.5004    0.0000 C   0  0
    1.2990   -0.7500    0.0000 C   0  0
    1.2990    0.7500    0.0000 C   0  0
    0.0000    1.5000    0.0000 C   0  0
   -1.2990    0.7500    0.0000 C   0  0
   -1.2990   -0.7500    0.0000 C   0  0
    0.0000   -1.5000    0.0000 C   0  0
   -2.3383    1.3500    0.0000 Cl  0  0
    3.8990   -0.7508    0.0000 C   0  0
    5.1976   -1.5016    0.0000 C   0  0
    6.4971   -0.7525    0.0000 C   0  0
    6.4980    0.7475    0.0000 C   0  0
    5.1995    1.4984    0.0000 C   0  0
    3.9000    0.7492    0.0000 C   0  0
    7.5377    1.3469    0.0000 Cl  0  0
    2.5985   -4.2012    0.0000 Cl  0  0
    3.4643   -3.5012    0.0000 H   0  0
    2.5991   -0.5004    0.0000 H   0  0
    2.1651    1.2500    0.0000 H   0  0
    0.0000    2.5000    0.0000 H   0  0
   -2.1651   -1.2500    0.0000 H   0  0
    0.0000   -2.5000    0.0000 H   0  0
    5.1970   -2.5016    0.0000 H   0  0
    7.3628   -1.2530    0.0000 H   0  0
    5.2001    2.4984    0.0000 H   0  0
    3.0343    1.2497    0.0000 H   0  0
  1  2  1  0
  2  3  1  0
  2 18  1  0
  3  4  1  0
  3 11  1  0
  4  5  2  0
  4  9  1  0
  5  6  1  0
  6  7  2  0
  7  8  1  0
  7 10  1  0
  8  9  2  0
 11 12  2  0
 11 16  1  0
 12 13  1  0
 13 14  2  0
 14 15  1  0
 14 17  1  0
 15 16  2  0
  2 19  1  0
  3 20  1  0
  5 21  1  0
  6 22  1  0
  8 23  1  0
  9 24  1  0
 12 25  1  0
 13 26  1  0
 15 27  1  0
 16 28  1  0
V    1 0
V    2 1
V    3 2
V    4 3
V    5 4
V    6 5
V    7 6
V    8 7
V    9 8
V   10 9
V   11 10
V   12 11
V   13 12
V   14 13
V   15 14
V   16 15
V   17 16
V   18 17
M  END
> <DSSTox_RID>
60182

> <DSSTox_CID>
373

> <DSSTox_CID_Parent>
373

> <DSSTox_Generic_SID>
20373

> <DSSTox_FileID>
62_TXCST2_v1a

> <STRUCTURE_Formula>
C14H10Cl4

> <STRUCTURE_MolecularWeight>
320.0412

> <STRUCTURE_ChemicalType>
defined organic

> <STRUCTURE_TestedForm_DefinedOrganic>
parent

> <STRUCTURE_Shown>
tested chemical

> <TestSubstance_ChemicalName>
p,p'-DDD

> <TestSubstance_CASRN>
72-54-8

> <TestSubstance_Description>
single chemical compound

> <STRUCTURE_ChemicalName_IUPAC>
1,1'-(2,2-dichloroethane-1,1-diyl)bis(4-chlorobenzene)

> <STRUCTURE_SMILES>
ClC(C(C1=CC=C(C=C1)Cl)C2=CC=C(C=C2)Cl)Cl

> <STRUCTURE_Parent_SMILES>
ClC(C(C1=CC=C(C=C1)Cl)C2=CC=C(C=C2)Cl)Cl

> <STRUCTURE_InChIS>
InChI=1S/C14H10Cl4/c15-11-5-1-9(2-6-11)13(14(17)18)10-3-7-12(16)8-4-10/h1-8,13-14H

> <STRUCTURE_InChIKey>
AHJKRLASYNVKDZ-UHFFFAOYSA-N

> <Substance_modify_yyyymmdd>
20080429

> <Coord_Metals>
0

> <Index>
62

> <Canonical_Smiles>
ClC(Cl)C(c1ccc(Cl)cc1)c2ccc(Cl)cc2

> <Molecular_Weight>
320.0412

> <Frequency>
1

$$$$

  SciTegic          2D

 26 27  0  0  0  0            999 V2000
    4.9372   -1.3609    0.0000 Cl  0  0
    3.8999   -0.7576    0.0000 C   0  0
    2.5973   -1.5031    0.0000 C   0  0
    1.2990   -0.7500    0.0000 C   0  0
    1.2990    0.7500    0.0000 C   0  0
    0.0000    1.5000    0.0000 C   0  0
   -1.2990    0.7500    0.0000 C   0  0
   -1.2990   -0.7500    0.0000 C   0  0
    0.0000   -1.5000    0.0000 C   0  0
   -2.3383    1.3500    0.0000 Cl  0  0
    2.5951   -3.0039    0.0000 C   0  0
    3.8915   -3.7585    0.0000 C   0  0
    3.8864   -5.2585    0.0000 C   0  0
    2.5847   -6.0040    0.0000 C   0  0
    1.2883   -5.2495    0.0000 C   0  0
    1.2935   -3.7495    0.0000 C   0  0
    2.5806   -7.2040    0.0000 Cl  0  0
    3.9040    0.4424    0.0000 Cl  0  0
    2.1651    1.2500    0.0000 H   0  0
    0.0000    2.5000    0.0000 H   0  0
   -2.1651   -1.2500    0.0000 H   0  0
    0.0000   -2.5000    0.0000 H   0  0
    4.7593   -3.2615    0.0000 H   0  0
    4.7506   -5.7615    0.0000 H   0  0
    0.4205   -5.7465    0.0000 H   0  0
    0.4292   -3.2465    0.0000 H   0  0
  1  2  1  0
  2  3  2  0
  2 18  1  0
  3  4  1  0
  3 11  1  0
  4  5  2  0
  4  9  1  0
  5  6  1  0
  6  7  2  0
  7  8  1  0
  7 10  1  0
  8  9  2  0
 11 12  2  0
 11 16  1  0
 12 13  1  0
 13 14  2  0
 14 15  1  0
 14 17  1  0
 15 16  2  0
  5 19  1  0
  6 20  1  0
  8 21  1  0
  9 22  1  0
 12 23  1  0
 13 24  1  0
 15 25  1  0
 16 26  1  0
V    1 0
V    2 1
V    3 2
V    4 3
V    5 4
V    6 5
V    7 6
V    8 7
V    9 8
V   10 9
V   11 10
V   12 11
V   13 12
V   14 13
V   15 14
V   16 15
V   17 16
V   18 17
M  END
> <DSSTox_RID>
60183

> <DSSTox_CID>
374

> <DSSTox_CID_Parent>
374

> <DSSTox_Generic_SID>
20374

> <DSSTox_FileID>
63_TXCST2_v1a

> <STRUCTURE_Formula>
C14H8Cl4

> <STRUCTURE_MolecularWeight>
318.0253

> <STRUCTURE_ChemicalType>
defined organic

> <STRUCTURE_TestedForm_DefinedOrganic>
parent

> <STRUCTURE_Shown>
tested chemical

> <TestSubstance_ChemicalName>
p,p'-DDE

> <TestSubstance_CASRN>
72-55-9

> <TestSubstance_Description>
single chemical compound

> <STRUCTURE_ChemicalName_IUPAC>
1,1'-(2,2-dichloroethene-1,1-diyl)bis(4-chlorobenzene)

> <STRUCTURE_SMILES>
ClC(=C(C1=CC=C(C=C1)Cl)C2=CC=C(C=C2)Cl)Cl

> <STRUCTURE_Parent_SMILES>
ClC(=C(C1=CC=C(C=C1)Cl)C2=CC=C(C=C2)Cl)Cl

> <STRUCTURE_InChIS>
InChI=1S/C14H8Cl4/c15-11-5-1-9(2-6-11)13(14(17)18)10-3-7-12(16)8-4-10/h1-8H

> <STRUCTURE_InChIKey>
UCNVFOCBFJOQAL-UHFFFAOYSA-N

> <Substance_modify_yyyymmdd>
20080429

> <Coord_Metals>
0

> <Index>
63

> <Canonical_Smiles>
ClC(=C(c1ccc(Cl)cc1)c2ccc(Cl)cc2)Cl

> <Molecular_Weight>
318.02532

> <Frequency>
1

$$$$

  SciTegic          2D

 28 29  0  0  0  0            999 V2000
    1.5593   -3.6015    0.0000 Cl  0  0
    2.5983   -3.0012    0.0000 C   0  0
    2.5988   -1.5004    0.0000 C   0  0
    1.2990   -0.7500    0.0000 C   0  0
    1.2990    0.7500    0.0000 C   0  0
    0.0000    1.5000    0.0000 C   0  0
   -1.2990    0.7500    0.0000 C   0  0
   -1.2990   -0.7500    0.0000 C   0  0
    0.0000   -1.5000    0.0000 C   0  0
   -2.3383    1.3500    0.0000 Cl  0  0
    3.8990   -0.7508    0.0000 C   0  0
    5.1976   -1.5016    0.0000 C   0  0
    6.4971   -0.7525    0.0000 C   0  0
    6.4980    0.7475    0.0000 C   0  0
    5.1995    1.4984    0.0000 C   0  0
    3.9000    0.7492    0.0000 C   0  0
    7.5377    1.3469    0.0000 Cl  0  0
    2.5985   -4.2012    0.0000 Cl  0  0
    3.6376   -3.6012    0.0000 Cl  0  0
    2.5991   -0.5004    0.0000 H   0  0
    2.1651    1.2500    0.0000 H   0  0
    0.0000    2.5000    0.0000 H   0  0
   -2.1651   -1.2500    0.0000 H   0  0
    0.0000   -2.5000    0.0000 H   0  0
    5.1970   -2.5016    0.0000 H   0  0
    7.3628   -1.2530    0.0000 H   0  0
    5.2001    2.4984    0.0000 H   0  0
    3.0343    1.2497    0.0000 H   0  0
  1  2  1  0
  2  3  1  0
  2 18  1  0
  2 19  1  0
  3  4  1  0
  3 11  1  0
  4  5  2  0
  4  9  1  0
  5  6  1  0
  6  7  2  0
  7  8  1  0
  7 10  1  0
  8  9  2  0
 11 12  2  0
 11 16  1  0
 12 13  1  0
 13 14  2  0
 14 15  1  0
 14 17  1  0
 15 16  2  0
  3 20  1  0
  5 21  1  0
  6 22  1  0
  8 23  1  0
  9 24  1  0
 12 25  1  0
 13 26  1  0
 15 27  1  0
 16 28  1  0
V    1 0
V    2 1
V    3 2
V    4 3
V    5 4
V    6 5
V    7 6
V    8 7
V    9 8
V   10 9
V   11 10
V   12 11
V   13 12
V   14 13
V   15 14
V   16 15
V   17 16
V   18 17
V   19 18
M  END
> <DSSTox_RID>
59859

> <DSSTox_CID>
375

> <DSSTox_CID_Parent>
375

> <DSSTox_Generic_SID>
20375

> <DSSTox_FileID>
64_TXCST2_v1a

> <STRUCTURE_Formula>
C14H9Cl5

> <STRUCTURE_MolecularWeight>
354.4863

> <STRUCTURE_ChemicalType>
defined organic

> <STRUCTURE_TestedForm_DefinedOrganic>
parent

> <STRUCTURE_Shown>
tested chemical

> <TestSubstance_ChemicalName>
p,p'-DDT

> <TestSubstance_CASRN>
50-29-3

> <TestSubstance_Description>
single chemical compound

> <STRUCTURE_ChemicalName_IUPAC>
1,1'-(2,2,2-trichloroethane-1,1-diyl)bis(4-chlorobenzene)

> <STRUCTURE_SMILES>
ClC(C(C1=CC=C(C=C1)Cl)C2=CC=C(C=C2)Cl)(Cl)Cl

> <STRUCTURE_Parent_SMILES>
ClC(C(C1=CC=C(C=C1)Cl)C2=CC=C(C=C2)Cl)(Cl)Cl

> <STRUCTURE_InChIS>
InChI=1S/C14H9Cl5/c15-11-5-1-9(2-6-11)13(14(17,18)19)10-3-7-12(16)8-4-10/h1-8,13H

> <STRUCTURE_InChIKey>
YVGGHNCTFXOJCH-UHFFFAOYSA-N

> <Substance_modify_yyyymmdd>
20080429

> <Coord_Metals>
0

> <Index>
64

> <Canonical_Smiles>
Clc1ccc(cc1)C(c2ccc(Cl)cc2)C(Cl)(Cl)Cl

> <Molecular_Weight>
354.48626

> <Frequency>
1

$$$$

  SciTegic          2D

 32 32  0  0  0  0            999 V2000
    3.6375   -0.9049    0.0000 O   0  0
    2.5973   -1.5031    0.0000 C   0  0
    1.2990   -0.7500    0.0000 C   0  0
    1.2990    0.7500    0.0000 C   0  0
    0.0000    1.5000    0.0000 C   0  0
   -1.2990    0.7500    0.0000 C   0  0
   -1.2990   -0.7500    0.0000 C   0  0
    0.0000   -1.5000    0.0000 C   0  0
    2.5972    1.5031    0.0000 C   0  0
    3.6375    0.9049    0.0000 O   0  0
    2.5951    3.0039    0.0000 O   0  0
    3.8933    3.7570    0.0000 C   0  0
    3.8912    5.2578    0.0000 C   0  0
    5.1894    6.0109    0.0000 C   0  0
    2.5951   -3.0039    0.0000 O   0  0
    3.8933   -3.7570    0.0000 C   0  0
    3.8912   -5.2578    0.0000 C   0  0
    5.1894   -6.0109    0.0000 C   0  0
    0.0000    2.5000    0.0000 H   0  0
   -2.1651    1.2500    0.0000 H   0  0
   -2.1651   -1.2500    0.0000 H   0  0
    0.0000   -2.5000    0.0000 H   0  0
    3.8952    2.7570    0.0000 H   0  0
    4.7602    3.2585    0.0000 H   0  0
    3.0243    5.7563    0.0000 H   0  0
    5.1879    7.0109    0.0000 H   0  0
    6.0563    5.5125    0.0000 H   0  0
    3.8952   -2.7570    0.0000 H   0  0
    4.7602   -3.2585    0.0000 H   0  0
    3.0243   -5.7563    0.0000 H   0  0
    5.1880   -7.0109    0.0000 H   0  0
    6.0563   -5.5124    0.0000 H   0  0
  1  2  2  0
  2  3  1  0
  2 15  1  0
  3  4  2  0
  3  8  1  0
  4  5  1  0
  4  9  1  0
  5  6  2  0
  6  7  1  0
  7  8  2  0
  9 10  2  0
  9 11  1  0
 11 12  1  0
 12 13  1  0
 13 14  2  0
 15 16  1  0
 16 17  1  0
 17 18  2  0
  5 19  1  0
  6 20  1  0
  7 21  1  0
  8 22  1  0
 12 23  1  0
 12 24  1  0
 13 25  1  0
 14 26  1  0
 14 27  1  0
 16 28  1  0
 16 29  1  0
 17 30  1  0
 18 31  1  0
 18 32  1  0
V    1 0
V    2 1
V    3 2
V    4 3
V    5 4
V    6 5
V    7 6
V    8 7
V    9 8
V   10 9
V   11 10
V   12 11
V   13 12
V   14 13
V   15 14
V   16 15
V   17 16
V   18 17
M  END
> <DSSTox_RID>
59547

> <DSSTox_CID>
392

> <DSSTox_CID_Parent>
392

> <DSSTox_Generic_SID>
20392

> <DSSTox_FileID>
65_TXCST2_v1a

> <STRUCTURE_Formula>
C14H14O4

> <STRUCTURE_MolecularWeight>
246.2586

> <STRUCTURE_ChemicalType>
defined organic

> <STRUCTURE_TestedForm_DefinedOrganic>
parent

> <STRUCTURE_Shown>
tested chemical

> <TestSubstance_ChemicalName>
Diallyl phthalate

> <TestSubstance_CASRN>
131-17-9

> <TestSubstance_Description>
single chemical compound

> <STRUCTURE_ChemicalName_IUPAC>
diallyl phthalate

> <STRUCTURE_SMILES>
O=C(C1=C(C=CC=C1)C(=O)OCC=C)OCC=C

> <STRUCTURE_Parent_SMILES>
O=C(C1=C(C=CC=C1)C(=O)OCC=C)OCC=C

> <STRUCTURE_InChIS>
InChI=1S/C14H14O4/c1-3-9-17-13(15)11-7-5-6-8-12(11)14(16)18-10-4-2/h3-8H,1-2,9-10H2

> <STRUCTURE_InChIKey>
QUDWYFHPNIMBFC-UHFFFAOYSA-N

> <Substance_modify_yyyymmdd>
20080429

> <Coord_Metals>
0

> <Index>
65

> <Canonical_Smiles>
C=CCOC(=O)c1ccccc1C(=O)OCC=C

> <Molecular_Weight>
246.25855

> <Frequency>
1

$$$$

  SciTegic          2D

 19 19  0  0  0  0            999 V2000
    2.5973   -1.5031    0.0000 N   0  0
    1.2990   -0.7500    0.0000 C   0  0
    1.2990    0.7500    0.0000 C   0  0
    0.0000    1.5000    0.0000 C   0  0
   -1.2990    0.7500    0.0000 C   0  0
   -1.2990   -0.7500    0.0000 C   0  0
    0.0000   -1.5000    0.0000 C   0  0
   -2.5972   -1.5031    0.0000 N   0  0
    2.5988    1.5004    0.0000 C   0  0
    2.5958   -2.5031    0.0000 H   0  0
    3.4642   -1.0046    0.0000 H   0  0
    0.0000    2.5000    0.0000 H   0  0
   -2.1651    1.2500    0.0000 H   0  0
    0.0000   -2.5000    0.0000 H   0  0
   -2.5958   -2.5031    0.0000 H   0  0
   -3.4641   -1.0046    0.0000 H   0  0
    3.4651    1.0010    0.0000 H   0  0
    2.5985    2.5004    0.0000 H   0  0
    3.4646    2.0008    0.0000 H   0  0
  1  2  1  0
  2  3  2  0
  2  7  1  0
  3  4  1  0
  3  9  1  0
  4  5  2  0
  5  6  1  0
  6  7  2  0
  6  8  1  0
  1 10  1  0
  1 11  1  0
  4 12  1  0
  5 13  1  0
  7 14  1  0
  8 15  1  0
  8 16  1  0
  9 17  1  0
  9 18  1  0
  9 19  1  0
V    1 0
V    2 1
V    3 2
V    4 3
V    5 4
V    6 5
V    7 6
V    8 7
V    9 8
M  END
> <DSSTox_RID>
62333

> <DSSTox_CID>
402

> <DSSTox_CID_Parent>
402

> <DSSTox_Generic_SID>
20402

> <DSSTox_FileID>
66_TXCST2_v1a

> <STRUCTURE_Formula>
C7H10N2

> <STRUCTURE_MolecularWeight>
122.1677

> <STRUCTURE_ChemicalType>
defined organic

> <STRUCTURE_TestedForm_DefinedOrganic>
parent

> <STRUCTURE_Shown>
tested chemical

> <TestSubstance_ChemicalName>
2,4-Diaminotoluene

> <TestSubstance_CASRN>
95-80-7

> <TestSubstance_Description>
single chemical compound

> <STRUCTURE_ChemicalName_IUPAC>
4-methylbenzene-1,3-diamine

> <STRUCTURE_SMILES>
NC1=C(C=CC(=C1)N)C

> <STRUCTURE_Parent_SMILES>
NC1=C(C=CC(=C1)N)C

> <STRUCTURE_InChIS>
InChI=1S/C7H10N2/c1-5-2-3-6(8)4-7(5)9/h2-4H,8-9H2,1H3

> <STRUCTURE_InChIKey>
VOZKAJLKRJDJLL-UHFFFAOYSA-N

> <Substance_modify_yyyymmdd>
20080429

> <Coord_Metals>
0

> <Index>
66

> <Canonical_Smiles>
Cc1ccc(N)cc1N

> <Molecular_Weight>
122.1677

> <Frequency>
1

$$$$

  SciTegic          2D

 40 40  0  0  0  0            999 V2000
    3.6454   -3.5954    0.0000 S   0  0
    2.6044   -2.9986    0.0000 P   0  0
    2.6003   -1.4977    0.0000 O   0  0
    1.2990   -0.7500    0.0000 C   0  0
    1.2990    0.7500    0.0000 N   0  0
    0.0000    1.5000    0.0000 C   0  0
   -1.2990    0.7500    0.0000 N   0  0
   -1.2990   -0.7500    0.0000 C   0  0
    0.0000   -1.5000    0.0000 C   0  0
   -2.5988   -1.5004    0.0000 C   0  0
    0.0000    3.0008    0.0000 C   0  0
    1.2993    3.7521    0.0000 C   0  0
   -1.2999    3.7508    0.0000 C   0  0
    1.3071   -3.7533    0.0000 O   0  0
    1.3112   -5.2541    0.0000 C   0  0
    0.0139   -6.0088    0.0000 C   0  0
    3.9282   -2.2315    0.0000 O   0  0
    5.2295   -2.9790    0.0000 C   0  0
    6.5281   -2.2266    0.0000 C   0  0
    0.0000   -2.5000    0.0000 H   0  0
   -3.4651   -1.0010    0.0000 H   0  0
   -2.5985   -2.5004    0.0000 H   0  0
   -3.4646   -2.0008    0.0000 H   0  0
    0.8662    2.5011    0.0000 H   0  0
    1.2993    4.7521    0.0000 H   0  0
    2.1654    3.2523    0.0000 H   0  0
    2.1652    4.2522    0.0000 H   0  0
   -1.3009    4.7508    0.0000 H   0  0
   -2.1657    3.2502    0.0000 H   0  0
   -2.1664    4.2501    0.0000 H   0  0
    2.1787   -5.7515    0.0000 H   0  0
    2.1758   -4.7516    0.0000 H   0  0
    0.0166   -7.0088    0.0000 H   0  0
   -0.8536   -5.5114    0.0000 H   0  0
   -0.8507   -6.5113    0.0000 H   0  0
    4.3645   -3.4808    0.0000 H   0  0
    5.2314   -3.9790    0.0000 H   0  0
    7.3952   -2.7247    0.0000 H   0  0
    7.3931   -1.7248    0.0000 H   0  0
    6.5263   -1.2266    0.0000 H   0  0
  1  2  2  0
  2  3  1  0
  2 14  1  0
  2 17  1  0
  3  4  1  0
  4  5  2  0
  4  9  1  0
  5  6  1  0
  6  7  2  0
  6 11  1  0
  7  8  1  0
  8  9  2  0
  8 10  1  0
 11 12  1  0
 11 13  1  0
 14 15  1  0
 15 16  1  0
 17 18  1  0
 18 19  1  0
  9 20  1  0
 10 21  1  0
 10 22  1  0
 10 23  1  0
 11 24  1  0
 12 25  1  0
 12 26  1  0
 12 27  1  0
 13 28  1  0
 13 29  1  0
 13 30  1  0
 15 31  1  0
 15 32  1  0
 16 33  1  0
 16 34  1  0
 16 35  1  0
 18 36  1  0
 18 37  1  0
 19 38  1  0
 19 39  1  0
 19 40  1  0
V    1 0
V    2 1
V    3 2
V    4 3
V    5 4
V    6 5
V    7 6
V    8 7
V    9 8
V   10 9
V   11 10
V   12 11
V   13 12
V   14 13
V   15 14
V   16 15
V   17 16
V   18 17
V   19 18
M  END
> <DSSTox_RID>
62378

> <DSSTox_CID>
407

> <DSSTox_CID_Parent>
407

> <DSSTox_Generic_SID>
20407

> <DSSTox_FileID>
67_TXCST2_v1a

> <STRUCTURE_Formula>
C12H21N2O3PS

> <STRUCTURE_MolecularWeight>
304.3455

> <STRUCTURE_ChemicalType>
defined organic

> <STRUCTURE_TestedForm_DefinedOrganic>
parent

> <STRUCTURE_Shown>
tested chemical

> <TestSubstance_ChemicalName>
Diazinon

> <TestSubstance_CASRN>
333-41-5

> <TestSubstance_Description>
single chemical compound

> <STRUCTURE_ChemicalName_IUPAC>
O,O-diethyl O-[6-methyl-2-(1-methylethyl)pyrimidin-4-yl] thiophosphate

> <STRUCTURE_SMILES>
S=P(OC1=NC(=NC(=C1)C)C(C)C)(OCC)OCC

> <STRUCTURE_Parent_SMILES>
S=P(OC1=NC(=NC(=C1)C)C(C)C)(OCC)OCC

> <STRUCTURE_InChIS>
InChI=1S/C12H21N2O3PS/c1-6-15-18(19,16-7-2)17-11-8-10(5)13-12(14-11)9(3)4/h8-9H,6-7H2,1-5H3

> <STRUCTURE_InChIKey>
FHIVAFMUCKRCQO-UHFFFAOYSA-N

> <Substance_modify_yyyymmdd>
20080429

> <Coord_Metals>
0

> <Index>
67

> <Canonical_Smiles>
CCOP(=S)(OCC)Oc1cc(C)nc(n1)C(C)C

> <Molecular_Weight>
304.3455

> <Frequency>
1

$$$$

  SciTegic          2D

 27 27  0  0  0  0            999 V2000
    3.8898   -5.2577    0.0000 C   0  0
    3.8933   -3.7570    0.0000 C   0  0
    2.5951   -3.0039    0.0000 N   0  0
    2.5973   -1.5031    0.0000 C   0  0
    3.6375   -0.9049    0.0000 O   0  0
    1.2990   -0.7500    0.0000 C   0  0
    1.2990    0.7500    0.0000 C   0  0
    0.0000    1.5000    0.0000 C   0  0
   -1.2990    0.7500    0.0000 C   0  0
   -1.2990   -0.7500    0.0000 C   0  0
    0.0000   -1.5000    0.0000 C   0  0
   -2.3383   -1.3500    0.0000 Cl  0  0
    0.0000    2.7000    0.0000 Cl  0  0
    5.1951   -3.0101    0.0000 C   0  0
    6.4969   -2.2632    0.0000 C   0  0
    2.5648   -4.5158    0.0000 C   0  0
    4.7543   -5.7603    0.0000 H   0  0
    3.8869   -6.2577    0.0000 H   0  0
    3.0224   -5.7554    0.0000 H   0  0
    1.7282   -3.5024    0.0000 H   0  0
    2.1651    1.2500    0.0000 H   0  0
   -2.1651    1.2500    0.0000 H   0  0
    0.0000   -2.5000    0.0000 H   0  0
    7.3642   -1.7655    0.0000 H   0  0
    1.7008   -4.0122    0.0000 H   0  0
    1.6966   -5.0121    0.0000 H   0  0
    2.5604   -5.5157    0.0000 H   0  0
  1  2  1  0
  2  3  1  0
  2 14  1  0
  2 16  1  0
  3  4  1  0
  4  5  2  0
  4  6  1  0
  6  7  2  0
  6 11  1  0
  7  8  1  0
  8  9  2  0
  8 13  1  0
  9 10  1  0
 10 11  2  0
 10 12  1  0
 14 15  3  0
  1 17  1  0
  1 18  1  0
  1 19  1  0
  3 20  1  0
  7 21  1  0
  9 22  1  0
 11 23  1  0
 15 24  1  0
 16 25  1  0
 16 26  1  0
 16 27  1  0
V    1 0
V    2 1
V    3 2
V    4 3
V    5 4
V    6 5
V    7 6
V    8 7
V    9 8
V   10 9
V   11 10
V   12 11
V   13 12
V   14 13
V   15 14
V   16 15
M  END
> <DSSTox_RID>
62429

> <DSSTox_CID>
420

> <DSSTox_CID_Parent>
420

> <DSSTox_Generic_SID>
20420

> <DSSTox_FileID>
68_TXCST2_v1a

> <STRUCTURE_Formula>
C12H11Cl2NO

> <STRUCTURE_MolecularWeight>
256.1278

> <STRUCTURE_ChemicalType>
defined organic

> <STRUCTURE_TestedForm_DefinedOrganic>
parent

> <STRUCTURE_Shown>
tested chemical

> <TestSubstance_ChemicalName>
Propyzamide

> <TestSubstance_CASRN>
23950-58-5

> <TestSubstance_Description>
single chemical compound

> <Source_ChemicalNote>
tested chemical was a mixture of isomers

> <STRUCTURE_ChemicalName_IUPAC>
3,5-dichloro-N-(1,1-dimethylprop-2-yn-1-yl)benzamide

> <STRUCTURE_SMILES>
CC(NC(=O)C1=CC(=CC(=C1)Cl)Cl)(C#C)C

> <STRUCTURE_Parent_SMILES>
CC(NC(=O)C1=CC(=CC(=C1)Cl)Cl)(C#C)C

> <STRUCTURE_InChIS>
InChI=1S/C12H11Cl2NO/c1-4-12(2,3)15-11(16)8-5-9(13)7-10(14)6-8/h1,5-7H,2-3H3,(H,15,16)

> <STRUCTURE_InChIKey>
PHNUZKMIPFFYSO-UHFFFAOYSA-N

> <Substance_modify_yyyymmdd>
20080429

> <Coord_Metals>
0

> <Index>
68

> <Canonical_Smiles>
CC(C)(NC(=O)c1cc(Cl)cc(Cl)c1)C#C

> <Molecular_Weight>
256.12783

> <Frequency>
1

$$$$

  SciTegic          2D

 16 16  0  0  0  0            999 V2000
    2.5956   -2.7031    0.0000 O   0  0
    2.5973   -1.5031    0.0000 N   0  0
    1.2990   -0.7500    0.0000 C   0  0
    1.2990    0.7500    0.0000 C   0  0
    0.0000    1.5000    0.0000 C   0  0
   -1.2990    0.7500    0.0000 C   0  0
   -1.2990   -0.7500    0.0000 C   0  0
    0.0000   -1.5000    0.0000 C   0  0
   -2.3383   -1.3500    0.0000 Cl  0  0
   -2.6003    1.4977    0.0000 N   0  0
    0.0000    2.7000    0.0000 Cl  0  0
    3.6375   -0.9049    0.0000 O   0  0
    2.1651    1.2500    0.0000 H   0  0
    0.0000   -2.5000    0.0000 H   0  0
   -3.4657    0.9965    0.0000 H   0  0
   -2.6021    2.4977    0.0000 H   0  0
  1  2  2  0
  2  3  1  0
  2 12  2  0
  3  4  2  0
  3  8  1  0
  4  5  1  0
  5  6  2  0
  5 11  1  0
  6  7  1  0
  6 10  1  0
  7  8  2  0
  7  9  1  0
  4 13  1  0
  8 14  1  0
 10 15  1  0
 10 16  1  0
V    1 0
V    2 1
V    3 2
V    4 3
V    5 4
V    6 5
V    7 6
V    8 7
V    9 8
V   10 9
V   11 10
V   12 11
M  END
> <DSSTox_RID>
59870

> <DSSTox_CID>
426

> <DSSTox_CID_Parent>
426

> <DSSTox_Generic_SID>
20426

> <DSSTox_FileID>
69_TXCST2_v1a

> <STRUCTURE_Formula>
C6H4Cl2N2O2

> <STRUCTURE_MolecularWeight>
207.0142

> <STRUCTURE_ChemicalType>
defined organic

> <STRUCTURE_TestedForm_DefinedOrganic>
parent

> <STRUCTURE_Shown>
tested chemical

> <TestSubstance_ChemicalName>
Dicloran

> <TestSubstance_CASRN>
99-30-9

> <TestSubstance_Description>
single chemical compound

> <STRUCTURE_ChemicalName_IUPAC>
2,6-dichloro-4-nitroaniline

> <STRUCTURE_SMILES>
O=[N+](C1=CC(=C(C(=C1)Cl)N)Cl)[O-]

> <STRUCTURE_Parent_SMILES>
O=[N+](C1=CC(=C(C(=C1)Cl)N)Cl)[O-]

> <STRUCTURE_InChIS>
InChI=1S/C6H4Cl2N2O2/c7-4-1-3(10(11)12)2-5(8)6(4)9/h1-2H,9H2

> <STRUCTURE_InChIKey>
BIXZHMJUSMUDOQ-UHFFFAOYSA-N

> <Substance_modify_yyyymmdd>
20080429

> <Coord_Metals>
0

> <Index>
69

> <Canonical_Smiles>
Nc1c(Cl)cc(cc1Cl)N(=O)=O

> <Molecular_Weight>
207.01415

> <Frequency>
1

$$$$

  SciTegic          2D

  8  7  0  0  0  0            999 V2000
    3.9000    0.7500    0.0000 O   0  0
    2.6000    0.0000    0.0000 C   0  0
    2.6000   -1.2000    0.0000 O   0  0
    1.3000    0.7500    0.0000 C   0  0
    0.2606    0.1503    0.0000 Cl  0  0
    0.2609    1.3502    0.0000 Cl  0  0
    4.7662    0.2503    0.0000 H   0  0
    1.3000    1.7500    0.0000 H   0  0
  1  2  1  0
  2  3  2  0
  2  4  1  0
  4  5  1  0
  4  6  1  0
  1  7  1  0
  4  8  1  0
V    1 0
V    2 1
V    3 2
V    4 3
V    5 4
V    6 5
M  END
> <DSSTox_RID>
60163

> <DSSTox_CID>
428

> <DSSTox_CID_Parent>
428

> <DSSTox_Generic_SID>
20428

> <DSSTox_FileID>
70_TXCST2_v1a

> <STRUCTURE_Formula>
C2H2Cl2O2

> <STRUCTURE_MolecularWeight>
128.9421

> <STRUCTURE_ChemicalType>
defined organic

> <STRUCTURE_TestedForm_DefinedOrganic>
parent

> <STRUCTURE_Shown>
tested chemical

> <TestSubstance_ChemicalName>
Dichloroacetic acid

> <TestSubstance_CASRN>
79-43-6

> <TestSubstance_Description>
single chemical compound

> <Source_ChemicalNote>
tested chemical contained 0.0848% water (0.01 moles H2O)

> <STRUCTURE_ChemicalName_IUPAC>
dichloroacetic acid

> <STRUCTURE_SMILES>
OC(=O)C(Cl)Cl

> <STRUCTURE_Parent_SMILES>
OC(=O)C(Cl)Cl

> <STRUCTURE_InChIS>
InChI=1S/C2H2Cl2O2/c3-1(4)2(5)6/h1H,(H,5,6)

> <STRUCTURE_InChIKey>
JXTHNDFMNIQAHM-UHFFFAOYSA-N

> <Substance_modify_yyyymmdd>
20080429

> <Coord_Metals>
0

> <Index>
70

> <Canonical_Smiles>
OC(=O)C(Cl)Cl

> <Molecular_Weight>
128.94208

> <Frequency>
1

$$$$

  SciTegic          2D

 12 12  0  0  0  0            999 V2000
    2.3383   -1.3500    0.0000 Cl  0  0
    1.2990   -0.7500    0.0000 C   0  0
    1.2990    0.7500    0.0000 C   0  0
    0.0000    1.5000    0.0000 C   0  0
   -1.2990    0.7500    0.0000 C   0  0
   -1.2990   -0.7500    0.0000 C   0  0
    0.0000   -1.5000    0.0000 C   0  0
    2.3383    1.3500    0.0000 Cl  0  0
    0.0000    2.5000    0.0000 H   0  0
   -2.1651    1.2500    0.0000 H   0  0
   -2.1651   -1.2500    0.0000 H   0  0
    0.0000   -2.5000    0.0000 H   0  0
  1  2  1  0
  2  3  2  0
  2  7  1  0
  3  4  1  0
  3  8  1  0
  4  5  2  0
  5  6  1  0
  6  7  2  0
  4  9  1  0
  5 10  1  0
  6 11  1  0
  7 12  1  0
V    1 0
V    2 1
V    3 2
V    4 3
V    5 4
V    6 5
V    7 6
V    8 7
M  END
> <DSSTox_RID>
60203

> <DSSTox_CID>
430

> <DSSTox_CID_Parent>
430

> <DSSTox_Generic_SID>
20430

> <DSSTox_FileID>
71_TXCST2_v1a

> <STRUCTURE_Formula>
C6H4Cl2

> <STRUCTURE_MolecularWeight>
147.002

> <STRUCTURE_ChemicalType>
defined organic

> <STRUCTURE_TestedForm_DefinedOrganic>
parent

> <STRUCTURE_Shown>
tested chemical

> <TestSubstance_ChemicalName>
1,2-Dichlorobenzene

> <TestSubstance_CASRN>
95-50-1

> <TestSubstance_Description>
single chemical compound

> <STRUCTURE_ChemicalName_IUPAC>
1,2-dichlorobenzene

> <STRUCTURE_SMILES>
ClC1=C(C=CC=C1)Cl

> <STRUCTURE_Parent_SMILES>
ClC1=C(C=CC=C1)Cl

> <STRUCTURE_InChIS>
InChI=1S/C6H4Cl2/c7-5-3-1-2-4-6(5)8/h1-4H

> <STRUCTURE_InChIKey>
RFFLAFLAYFXFSW-UHFFFAOYSA-N

> <Substance_modify_yyyymmdd>
20080429

> <Coord_Metals>
0

> <Index>
71

> <Canonical_Smiles>
Clc1ccccc1Cl

> <Molecular_Weight>
147.00195

> <Frequency>
1

$$$$

  SciTegic          2D

 12 12  0  0  0  0            999 V2000
    2.3383   -1.3500    0.0000 Cl  0  0
    1.2990   -0.7500    0.0000 C   0  0
    1.2990    0.7500    0.0000 C   0  0
    0.0000    1.5000    0.0000 C   0  0
   -1.2990    0.7500    0.0000 C   0  0
   -1.2990   -0.7500    0.0000 C   0  0
    0.0000   -1.5000    0.0000 C   0  0
   -2.3383    1.3500    0.0000 Cl  0  0
    2.1651    1.2500    0.0000 H   0  0
    0.0000    2.5000    0.0000 H   0  0
   -2.1651   -1.2500    0.0000 H   0  0
    0.0000   -2.5000    0.0000 H   0  0
  1  2  1  0
  2  3  2  0
  2  7  1  0
  3  4  1  0
  4  5  2  0
  5  6  1  0
  5  8  1  0
  6  7  2  0
  3  9  1  0
  4 10  1  0
  6 11  1  0
  7 12  1  0
V    1 0
V    2 1
V    3 2
V    4 3
V    5 4
V    6 5
V    7 6
V    8 7
M  END
> <DSSTox_RID>
59540

> <DSSTox_CID>
431

> <DSSTox_CID_Parent>
431

> <DSSTox_Generic_SID>
20431

> <DSSTox_FileID>
72_TXCST2_v1a

> <STRUCTURE_Formula>
C6H4Cl2

> <STRUCTURE_MolecularWeight>
147.002

> <STRUCTURE_ChemicalType>
defined organic

> <STRUCTURE_TestedForm_DefinedOrganic>
parent

> <STRUCTURE_Shown>
tested chemical

> <TestSubstance_ChemicalName>
1,4-Dichlorobenzene

> <TestSubstance_CASRN>
106-46-7

> <TestSubstance_Description>
single chemical compound

> <STRUCTURE_ChemicalName_IUPAC>
1,4-dichlorobenzene

> <STRUCTURE_SMILES>
ClC1=CC=C(C=C1)Cl

> <STRUCTURE_Parent_SMILES>
ClC1=CC=C(C=C1)Cl

> <STRUCTURE_InChIS>
InChI=1S/C6H4Cl2/c7-5-1-2-6(8)4-3-5/h1-4H

> <STRUCTURE_InChIKey>
OCJBOOLMMGQPQU-UHFFFAOYSA-N

> <Substance_modify_yyyymmdd>
20080429

> <Coord_Metals>
0

> <Index>
72

> <Canonical_Smiles>
Clc1ccc(Cl)cc1

> <Molecular_Weight>
147.00195

> <Frequency>
1

$$$$

  SciTegic          2D

 13 13  0  0  0  0            999 V2000
    2.3383   -1.3500    0.0000 Cl  0  0
    1.2990   -0.7500    0.0000 C   0  0
    1.2990    0.7500    0.0000 C   0  0
    0.0000    1.5000    0.0000 C   0  0
   -1.2990    0.7500    0.0000 C   0  0
   -1.2990   -0.7500    0.0000 C   0  0
    0.0000   -1.5000    0.0000 C   0  0
   -2.3383   -1.3500    0.0000 Cl  0  0
    2.5972    1.5031    0.0000 O   0  0
    0.0000    2.5000    0.0000 H   0  0
   -2.1651    1.2500    0.0000 H   0  0
    0.0000   -2.5000    0.0000 H   0  0
    2.5958    2.5031    0.0000 H   0  0
  1  2  1  0
  2  3  2  0
  2  7  1  0
  3  4  1  0
  3  9  1  0
  4  5  2  0
  5  6  1  0
  6  7  2  0
  6  8  1  0
  4 10  1  0
  5 11  1  0
  7 12  1  0
  9 13  1  0
V    1 0
V    2 1
V    3 2
V    4 3
V    5 4
V    6 5
V    7 6
V    8 7
V    9 8
M  END
> <DSSTox_RID>
65417

> <DSSTox_CID>
439

> <DSSTox_CID_Parent>
439

> <DSSTox_Generic_SID>
20439

> <DSSTox_FileID>
73_TXCST2_v1a

> <STRUCTURE_Formula>
C6H4Cl2O

> <STRUCTURE_MolecularWeight>
163.0014

> <STRUCTURE_ChemicalType>
defined organic

> <STRUCTURE_TestedForm_DefinedOrganic>
parent

> <STRUCTURE_Shown>
tested chemical

> <TestSubstance_ChemicalName>
2,4-Dichlorophenol

> <TestSubstance_CASRN>
120-83-2

> <TestSubstance_Description>
single chemical compound

> <STRUCTURE_ChemicalName_IUPAC>
2,4-dichlorophenol

> <STRUCTURE_SMILES>
ClC1=C(C=CC(=C1)Cl)O

> <STRUCTURE_Parent_SMILES>
ClC1=C(C=CC(=C1)Cl)O

> <STRUCTURE_InChIS>
InChI=1S/C6H4Cl2O/c7-4-1-2-6(9)5(8)3-4/h1-3,9H

> <STRUCTURE_InChIKey>
HFZWRUODUSTPEG-UHFFFAOYSA-N

> <Substance_modify_yyyymmdd>
20080429

> <Coord_Metals>
0

> <Index>
73

> <Canonical_Smiles>
Oc1ccc(Cl)cc1Cl

> <Molecular_Weight>
163.00135

> <Frequency>
1

$$$$

  SciTegic          2D

 22 22  0  0  0  0            999 V2000
    2.3383   -1.3500    0.0000 Cl  0  0
    1.2990   -0.7500    0.0000 C   0  0
    1.2990    0.7500    0.0000 C   0  0
    0.0000    1.5000    0.0000 C   0  0
   -1.2990    0.7500    0.0000 C   0  0
   -1.2990   -0.7500    0.0000 C   0  0
    0.0000   -1.5000    0.0000 C   0  0
   -2.3383   -1.3500    0.0000 Cl  0  0
    2.5972    1.5031    0.0000 O   0  0
    2.5951    3.0039    0.0000 C   0  0
    3.8933    3.7570    0.0000 C   0  0
    4.9336    3.1588    0.0000 O   0  0
    3.8912    5.2578    0.0000 O   0  0
    1.2941    3.7520    0.0000 C   0  0
    0.0000    2.5000    0.0000 H   0  0
   -2.1651    1.2500    0.0000 H   0  0
    0.0000   -2.5000    0.0000 H   0  0
    3.4620    2.5054    0.0000 H   0  0
    4.7561    5.7596    0.0000 H   0  0
    0.4286    3.2511    0.0000 H   0  0
    0.4274    4.2509    0.0000 H   0  0
    1.2927    4.7520    0.0000 H   0  0
  1  2  1  0
  2  3  2  0
  2  7  1  0
  3  4  1  0
  3  9  1  0
  4  5  2  0
  5  6  1  0
  6  7  2  0
  6  8  1  0
  9 10  1  0
 10 11  1  0
 10 14  1  0
 11 12  2  0
 11 13  1  0
  4 15  1  0
  5 16  1  0
  7 17  1  0
 10 18  1  0
 13 19  1  0
 14 20  1  0
 14 21  1  0
 14 22  1  0
V    1 0
V    2 1
V    3 2
V    4 3
V    5 4
V    6 5
V    7 6
V    8 7
V    9 8
V   10 9
V   11 10
V   12 11
V   13 12
V   14 13
M  END
> <DSSTox_RID>
62422

> <DSSTox_CID>
440

> <DSSTox_CID_Parent>
440

> <DSSTox_Generic_SID>
20440

> <DSSTox_FileID>
74_TXCST2_v1a

> <STRUCTURE_Formula>
C9H8Cl2O3

> <STRUCTURE_MolecularWeight>
235.064

> <STRUCTURE_ChemicalType>
defined organic

> <STRUCTURE_TestedForm_DefinedOrganic>
parent

> <STRUCTURE_Shown>
tested chemical

> <TestSubstance_ChemicalName>
Dichlorprop

> <TestSubstance_CASRN>
120-36-5

> <TestSubstance_Description>
single chemical compound

> <ChemicalNote>
mixture of (2R) [15165-67-0], (2S) [15165-69-2]; structure shown without stereochem

> <Source_ChemicalNote>
tested chemical contained 0.03% water

> <STRUCTURE_ChemicalName_IUPAC>
2-(2,4-dichlorophenoxy)propanoic acid

> <STRUCTURE_SMILES>
ClC1=C(OC(C)C(O)=O)C=CC(Cl)=C1

> <STRUCTURE_Parent_SMILES>
ClC1=C(OC(C)C(O)=O)C=CC(Cl)=C1

> <STRUCTURE_InChIS>
InChI=1S/C9H8Cl2O3/c1-5(9(12)13)14-8-3-2-6(10)4-7(8)11/h2-5H,1H3,(H,12,13)

> <STRUCTURE_InChIKey>
MZHCENGPTKEIGP-UHFFFAOYSA-N

> <Substance_modify_yyyymmdd>
20080429

> <Coord_Metals>
0

> <Index>
74

> <Canonical_Smiles>
CC(Oc1ccc(Cl)cc1Cl)C(=O)O

> <Molecular_Weight>
235.06401

> <Frequency>
1

$$$$

  SciTegic          2D

 19 19  0  0  0  0            999 V2000
    2.3383   -1.3500    0.0000 Cl  0  0
    1.2990   -0.7500    0.0000 C   0  0
    1.2990    0.7500    0.0000 C   0  0
    0.0000    1.5000    0.0000 C   0  0
   -1.2990    0.7500    0.0000 C   0  0
   -1.2990   -0.7500    0.0000 C   0  0
    0.0000   -1.5000    0.0000 C   0  0
   -2.3383   -1.3500    0.0000 Cl  0  0
    2.5972    1.5031    0.0000 O   0  0
    2.5951    3.0039    0.0000 C   0  0
    3.8933    3.7570    0.0000 C   0  0
    4.9336    3.1588    0.0000 O   0  0
    3.8912    5.2578    0.0000 O   0  0
    0.0000    2.5000    0.0000 H   0  0
   -2.1651    1.2500    0.0000 H   0  0
    0.0000   -2.5000    0.0000 H   0  0
    1.7299    2.5026    0.0000 H   0  0
    1.7282    3.5024    0.0000 H   0  0
    4.7561    5.7596    0.0000 H   0  0
  1  2  1  0
  2  3  2  0
  2  7  1  0
  3  4  1  0
  3  9  1  0
  4  5  2  0
  5  6  1  0
  6  7  2  0
  6  8  1  0
  9 10  1  0
 10 11  1  0
 11 12  2  0
 11 13  1  0
  4 14  1  0
  5 15  1  0
  7 16  1  0
 10 17  1  0
 10 18  1  0
 13 19  1  0
V    1 0
V    2 1
V    3 2
V    4 3
V    5 4
V    6 5
V    7 6
V    8 7
V    9 8
V   10 9
V   11 10
V   12 11
V   13 12
M  END
> <DSSTox_RID>
62401

> <DSSTox_CID>
442

> <DSSTox_CID_Parent>
442

> <DSSTox_Generic_SID>
20442

> <DSSTox_FileID>
75_TXCST2_v1a

> <STRUCTURE_Formula>
C8H6Cl2O3

> <STRUCTURE_MolecularWeight>
221.0374

> <STRUCTURE_ChemicalType>
defined organic

> <STRUCTURE_TestedForm_DefinedOrganic>
parent

> <STRUCTURE_Shown>
tested chemical

> <TestSubstance_ChemicalName>
2,4-Dichlorophenoxyacetic acid

> <TestSubstance_CASRN>
94-75-7

> <TestSubstance_Description>
single chemical compound

> <STRUCTURE_ChemicalName_IUPAC>
(2,4-dichlorophenoxy)acetic acid

> <STRUCTURE_SMILES>
ClC1=C(C=CC(=C1)Cl)OCC(=O)O

> <STRUCTURE_Parent_SMILES>
ClC1=C(C=CC(=C1)Cl)OCC(=O)O

> <STRUCTURE_InChIS>
InChI=1S/C8H6Cl2O3/c9-5-1-2-7(6(10)3-5)13-4-8(11)12/h1-3H,4H2,(H,11,12)

> <STRUCTURE_InChIKey>
OVSKIKFHRZPJSS-UHFFFAOYSA-N

> <Substance_modify_yyyymmdd>
20080429

> <Coord_Metals>
0

> <Index>
75

> <Canonical_Smiles>
OC(=O)COc1ccc(Cl)cc1Cl

> <Molecular_Weight>
221.03743

> <Frequency>
1

$$$$

  SciTegic          2D

 24 24  0  0  0  0            999 V2000
    2.3383   -1.3500    0.0000 Cl  0  0
    1.2990   -0.7500    0.0000 C   0  0
    1.2990    0.7500    0.0000 C   0  0
    0.0000    1.5000    0.0000 C   0  0
   -1.2990    0.7500    0.0000 C   0  0
   -1.2990   -0.7500    0.0000 C   0  0
    0.0000   -1.5000    0.0000 C   0  0
   -2.5972   -1.5031    0.0000 N   0  0
   -2.5951   -3.0039    0.0000 C   0  0
   -1.5548   -3.6021    0.0000 O   0  0
   -3.8933   -3.7570    0.0000 N   0  0
   -3.8912   -5.2578    0.0000 C   0  0
   -5.1928   -3.0062    0.0000 C   0  0
    2.3383    1.3500    0.0000 Cl  0  0
    0.0000    2.5000    0.0000 H   0  0
   -2.1651    1.2500    0.0000 H   0  0
    0.0000   -2.5000    0.0000 H   0  0
   -3.4641   -1.0046    0.0000 H   0  0
   -4.7562   -5.7596    0.0000 H   0  0
   -3.8893   -6.2578    0.0000 H   0  0
   -3.0243   -5.7563    0.0000 H   0  0
   -5.1932   -2.0062    0.0000 H   0  0
   -6.0589   -3.5062    0.0000 H   0  0
   -6.0589   -2.5063    0.0000 H   0  0
  1  2  1  0
  2  3  2  0
  2  7  1  0
  3  4  1  0
  3 14  1  0
  4  5  2  0
  5  6  1  0
  6  7  2  0
  6  8  1  0
  8  9  1  0
  9 10  2  0
  9 11  1  0
 11 12  1  0
 11 13  1  0
  4 15  1  0
  5 16  1  0
  7 17  1  0
  8 18  1  0
 12 19  1  0
 12 20  1  0
 12 21  1  0
 13 22  1  0
 13 23  1  0
 13 24  1  0
V    1 0
V    2 1
V    3 2
V    4 3
V    5 4
V    6 5
V    7 6
V    8 7
V    9 8
V   10 9
V   11 10
V   12 11
V   13 12
V   14 13
M  END
> <DSSTox_RID>
62286

> <DSSTox_CID>
446

> <DSSTox_CID_Parent>
446

> <DSSTox_Generic_SID>
20446

> <DSSTox_FileID>
76_TXCST2_v1a

> <STRUCTURE_Formula>
C9H10Cl2N2O

> <STRUCTURE_MolecularWeight>
233.0945

> <STRUCTURE_ChemicalType>
defined organic

> <STRUCTURE_TestedForm_DefinedOrganic>
parent

> <STRUCTURE_Shown>
tested chemical

> <TestSubstance_ChemicalName>
Diuron

> <TestSubstance_CASRN>
330-54-1

> <TestSubstance_Description>
single chemical compound

> <STRUCTURE_ChemicalName_IUPAC>
3-(3,4-dichlorophenyl)-1,1-dimethylurea

> <STRUCTURE_SMILES>
ClC1=C(C=CC(=C1)NC(=O)N(C)C)Cl

> <STRUCTURE_Parent_SMILES>
ClC1=C(C=CC(=C1)NC(=O)N(C)C)Cl

> <STRUCTURE_InChIS>
InChI=1S/C9H10Cl2N2O/c1-13(2)9(14)12-6-3-4-7(10)8(11)5-6/h3-5H,1-2H3,(H,12,14)

> <STRUCTURE_InChIKey>
XMTQQYYKAHVGBJ-UHFFFAOYSA-N

> <Substance_modify_yyyymmdd>
20080429

> <Coord_Metals>
0

> <Index>
76

> <Canonical_Smiles>
CN(C)C(=O)Nc1ccc(Cl)c(Cl)c1

> <Molecular_Weight>
233.09449

> <Frequency>
1

$$$$

  SciTegic          2D

 18 17  0  0  0  0            999 V2000
    5.2000   -1.2000    0.0000 O   0  0
    5.2000    0.0000    0.0000 P   0  0
    3.9000    0.7500    0.0000 O   0  0
    2.6000    0.0000    0.0000 C   0  0
    1.3000    0.7500    0.0000 C   0  0
    0.2606    0.1503    0.0000 Cl  0  0
    1.3000    1.9500    0.0000 Cl  0  0
    6.5000    0.7500    0.0000 O   0  0
    7.7999    0.0000    0.0000 C   0  0
    3.8760   -0.7669    0.0000 O   0  0
    3.8773   -2.2677    0.0000 C   0  0
    2.6000   -1.0000    0.0000 H   0  0
    8.6661    0.4997    0.0000 H   0  0
    7.7999   -1.0000    0.0000 H   0  0
    8.6659   -0.5001    0.0000 H   0  0
    3.0120   -2.7689    0.0000 H   0  0
    3.8786   -3.2677    0.0000 H   0  0
    4.7439   -2.7667    0.0000 H   0  0
  1  2  2  0
  2  3  1  0
  2  8  1  0
  2 10  1  0
  3  4  1  0
  4  5  2  0
  5  6  1  0
  5  7  1  0
  8  9  1  0
 10 11  1  0
  4 12  1  0
  9 13  1  0
  9 14  1  0
  9 15  1  0
 11 16  1  0
 11 17  1  0
 11 18  1  0
V    1 0
V    2 1
V    3 2
V    4 3
V    5 4
V    6 5
V    7 6
V    8 7
V    9 8
V   10 9
V   11 10
M  END
> <DSSTox_RID>
65343

> <DSSTox_CID>
449

> <DSSTox_CID_Parent>
449

> <DSSTox_Generic_SID>
20449

> <DSSTox_FileID>
77_TXCST2_v1a

> <STRUCTURE_Formula>
C4H7Cl2O4P

> <STRUCTURE_MolecularWeight>
220.9757

> <STRUCTURE_ChemicalType>
defined organic

> <STRUCTURE_TestedForm_DefinedOrganic>
parent

> <STRUCTURE_Shown>
tested chemical

> <TestSubstance_ChemicalName>
Dichlorvos

> <TestSubstance_CASRN>
62-73-7

> <TestSubstance_Description>
single chemical compound

> <Source_ChemicalNote>
tested chemical contained 0.01% water

> <STRUCTURE_ChemicalName_IUPAC>
2,2-dichloroethenyl dimethyl phosphate

> <STRUCTURE_SMILES>
O=P(OC=C(Cl)Cl)(OC)OC

> <STRUCTURE_Parent_SMILES>
O=P(OC=C(Cl)Cl)(OC)OC

> <STRUCTURE_InChIS>
InChI=1S/C4H7Cl2O4P/c1-8-11(7,9-2)10-3-4(5)6/h3H,1-2H3

> <STRUCTURE_InChIKey>
OEBRKCOSUFCWJD-UHFFFAOYSA-N

> <Substance_modify_yyyymmdd>
20080429

> <Coord_Metals>
0

> <Index>
77

> <Canonical_Smiles>
COP(=O)(OC)OC=C(Cl)Cl

> <Molecular_Weight>
220.97574

> <Frequency>
1

$$$$

  SciTegic          2D

 29 30  0  0  0  0            999 V2000
    4.1926   -2.4215    0.0000 O   0  0
    3.2283   -1.2715    0.0000 C   0  0
    1.7503   -1.5321    0.0000 C   0  0
    1.2372   -0.1226    0.0000 C   0  0
   -0.2400    0.1379    0.0000 C   0  0
   -1.2042   -1.0112    0.0000 C   0  0
   -0.6911   -2.4207    0.0000 C   0  0
    0.7861   -2.6812    0.0000 C   0  0
   -2.3859   -0.8028    0.0000 Cl  0  0
    3.7425    0.1385    0.0000 C   0  0
    5.2196   -0.1229    0.0000 C   0  0
    6.1845    1.0255    0.0000 C   0  0
    5.6723    2.4354    0.0000 C   0  0
    4.1953    2.6968    0.0000 C   0  0
    3.2304    1.5483    0.0000 C   0  0
    6.4442    3.3542    0.0000 Cl  0  0
    2.7066   -2.7098    0.0000 C   0  0
    3.4784   -3.6287    0.0000 Cl  0  0
    2.2969   -3.8377    0.0000 Cl  0  0
    1.5250   -2.9191    0.0000 Cl  0  0
    5.1776   -2.2487    0.0000 H   0  0
    1.8800    0.6435    0.0000 H   0  0
   -0.5820    1.0776    0.0000 H   0  0
   -1.3339   -3.1868    0.0000 H   0  0
    1.1281   -3.6209    0.0000 H   0  0
    5.5610   -1.0628    0.0000 H   0  0
    7.1692    0.8513    0.0000 H   0  0
    3.8538    3.6367    0.0000 H   0  0
    2.2457    1.7226    0.0000 H   0  0
  1  2  1  0
  2  3  1  0
  2 10  1  0
  2 17  1  0
  3  4  2  0
  3  8  1  0
  4  5  1  0
  5  6  2  0
  6  7  1  0
  6  9  1  0
  7  8  2  0
 10 11  2  0
 10 15  1  0
 11 12  1  0
 12 13  2  0
 13 14  1  0
 13 16  1  0
 14 15  2  0
 17 18  1  0
 17 19  1  0
 17 20  1  0
  1 21  1  0
  4 22  1  0
  5 23  1  0
  7 24  1  0
  8 25  1  0
 11 26  1  0
 12 27  1  0
 14 28  1  0
 15 29  1  0
V    1 0
V    2 1
V    3 2
V    4 3
V    5 4
V    6 5
V    7 6
V    8 7
V    9 8
V   10 9
V   11 10
V   12 11
V   13 12
V   14 13
V   15 14
V   16 15
V   17 16
V   18 17
V   19 18
V   20 19
M  END
> <DSSTox_RID>
66549

> <DSSTox_CID>
450

> <DSSTox_CID_Parent>
450

> <DSSTox_Generic_SID>
20450

> <DSSTox_FileID>
78_TXCST2_v1a

> <STRUCTURE_Formula>
C14H9Cl5O

> <STRUCTURE_MolecularWeight>
370.4857

> <STRUCTURE_ChemicalType>
defined organic

> <STRUCTURE_TestedForm_DefinedOrganic>
parent

> <STRUCTURE_Shown>
tested chemical

> <TestSubstance_ChemicalName>
Dicofol

> <TestSubstance_CASRN>
115-32-2

> <TestSubstance_Description>
single chemical compound

> <STRUCTURE_ChemicalName_IUPAC>
2,2,2-trichloro-1,1-bis(4-chlorophenyl)ethanol

> <STRUCTURE_SMILES>
OC(C1=CC=C(C=C1)Cl)(C2=CC=C(C=C2)Cl)C(Cl)(Cl)Cl

> <STRUCTURE_Parent_SMILES>
OC(C1=CC=C(C=C1)Cl)(C2=CC=C(C=C2)Cl)C(Cl)(Cl)Cl

> <STRUCTURE_InChIS>
InChI=1S/C14H9Cl5O/c15-11-5-1-9(2-6-11)13(20,14(17,18)19)10-3-7-12(16)8-4-10/h1-8,20H

> <STRUCTURE_InChIKey>
UOAMTSKGCBMZTC-UHFFFAOYSA-N

> <Substance_modify_yyyymmdd>
20080429

> <Coord_Metals>
0

> <Index>
78

> <Canonical_Smiles>
OC(c1ccc(Cl)cc1)(c2ccc(Cl)cc2)C(Cl)(Cl)Cl

> <Molecular_Weight>
370.48566

> <Frequency>
1

$$$$

  SciTegic          2D

 27 31  0  0  0  0            999 V2000
    4.0300   -0.5100    0.0000 C   0  0
    4.9100   -2.3500    0.0000 O   0  0
    3.6300   -1.1500    0.0000 C   0  0
    2.5000    0.2700    0.0000 C   0  0
    0.7200   -0.4500    0.0000 C   0  0
    2.1100   -0.4300    0.0000 C   0  0
    2.2100    1.7700    0.0000 C   0  0
    0.3000   -1.0800    0.0000 C   0  0
   -0.7200    0.3500    0.0000 C   0  0
   -1.1200   -0.2600    0.0000 C   0  0
   -2.9300   -1.0500    0.0000 C   0  0
   -2.4600   -0.2600    0.0000 C   0  0
   -3.2198    0.6688    0.0000 Cl  0  0
   -3.8299   -1.8438    0.0000 Cl  0  0
   -1.1873   -1.4581    0.0000 Cl  0  0
   -0.9900    1.8000    0.0000 C   0  0
   -2.0507    2.3612    0.0000 Cl  0  0
   -0.0051    2.4856    0.0000 Cl  0  0
   -0.8218   -0.8457    0.0000 Cl  0  0
    4.9926   -0.7810    0.0000 H   0  0
    3.0672   -1.9766    0.0000 H   0  0
    3.3870    0.7318    0.0000 H   0  0
    0.7813    0.5481    0.0000 H   0  0
    2.0612   -1.4288    0.0000 H   0  0
    1.3205    2.2269    0.0000 H   0  0
    3.0236    2.3514    0.0000 H   0  0
   -0.6072   -1.5006    0.0000 H   0  0
  1  2  1  0
  1  3  1  0
  1  4  1  0
  3  2  1  0
  3  6  1  0
  4  5  1  0
  4  7  1  0
  5  9  1  0
  5  8  1  0
  6  7  1  0
  6  8  1  0
  8 10  1  0
  9 12  1  0
  9 16  1  0
  9 19  1  0
 10 11  1  0
 10 16  1  0
 10 15  1  0
 11 12  2  0
 11 14  1  0
 12 13  1  0
 16 17  1  0
 16 18  1  0
  1 20  1  0
  3 21  1  0
  4 22  1  0
  5 23  1  0
  6 24  1  0
  7 25  1  0
  7 26  1  0
  8 27  1  0
V    1 0
V    2 1
V    3 2
V    4 3
V    5 4
V    6 5
V    7 6
V    8 7
V    9 8
V   10 9
V   11 10
V   12 11
V   13 12
V   14 13
V   15 14
V   16 15
V   17 16
V   18 17
V   19 18
M  END
> <DSSTox_RID>
59826
60845

> <DSSTox_CID>
453
561

> <DSSTox_CID_Parent>
453
561

> <DSSTox_Generic_SID>
20453
20561

> <DSSTox_FileID>
79_TXCST2_v1a
99_TXCST2_v1a

> <STRUCTURE_Formula>
C12H8Cl6O
C12H8Cl6O

> <STRUCTURE_MolecularWeight>
380.9093
380.9093

> <STRUCTURE_ChemicalType>
defined organic
defined organic

> <STRUCTURE_TestedForm_DefinedOrganic>
parent
parent

> <STRUCTURE_Shown>
tested chemical
tested chemical

> <TestSubstance_ChemicalName>
Dieldrin
Endrin

> <TestSubstance_CASRN>
60-57-1
72-20-8

> <TestSubstance_Description>
single chemical compound
single chemical compound

> <ChemicalNote>
stereochem
stereochem; same 2D structure of dieldrin [60-57-1]

> <STRUCTURE_ChemicalName_IUPAC>
(1aR,2R,2aS,3S,6R,6aR,7S,7aS)-3,4,5,6,9,9-hexachloro-1a,2,2a,3,6,6a,7,7a-octahydro-2,7:3,6-dimethanonaphtho[2,3-b]oxirene
(1aR,2R,2aR,3R,6S,6aS,7S,7aS)-3,4,5,6,9,9-hexachloro-1a,2,2a,3,6,6a,7,7a-octahydro-2,7:3,6-dimethanonaphtho[2,3-b]oxirene

> <STRUCTURE_SMILES>
ClC4=C(Cl)[C@@]5(Cl)[C@]2([H])[C@@]([C@@](Cl)4[C@](Cl)5Cl)([H])[C@H]3[C@@H]1O[C@@H]1[C@@H]2C3
ClC4=C(Cl)[C@]5(Cl)[C@@]2([H])[C@]([C@](Cl)4[C@](Cl)5Cl)([H])[C@H]3[C@@H]1O[C@@H]1[C@@H]2C3

> <STRUCTURE_Parent_SMILES>
ClC4=C(Cl)[C@@]5(Cl)[C@]2([H])[C@@]([C@@](Cl)4[C@](Cl)5Cl)([H])[C@H]3[C@@H]1O[C@@H]1[C@@H]2C3
ClC4=C(Cl)[C@]5(Cl)[C@@]2([H])[C@]([C@](Cl)4[C@](Cl)5Cl)([H])[C@H]3[C@@H]1O[C@@H]1[C@@H]2C3

> <STRUCTURE_InChIS>
InChI=1S/C12H8Cl6O/c13-8-9(14)11(16)5-3-1-2(6-7(3)19-6)4(5)10(8,15)12(11,17)18/h2-7H,1H2/t2-,3+,4+,5-,6-,7+,10+,11-
InChI=1S/C12H8Cl6O/c13-8-9(14)11(16)5-3-1-2(6-7(3)19-6)4(5)10(8,15)12(11,17)18/h2-7H,1H2/t2-,3+,4-,5+,6-,7+,10-,11+

> <STRUCTURE_InChIKey>
DFBKLUNHFCTMDC-PICURKEMSA-N
DFBKLUNHFCTMDC-GKRDHZSOSA-N

> <Substance_modify_yyyymmdd>
20080815
20080815

> <Coord_Metals>
0
0

> <Index>
79
99

> <Canonical_Smiles>
ClC1=C(Cl)C2(Cl)C3C4CC(C5OC45)C3C1(Cl)C2(Cl)Cl

> <Molecular_Weight>
380.90932
380.90932

> <Source_ChemicalNote>
tested chemical contained 0.04% water (0.01 moles H2O)

> <Frequency>
2

$$$$

  SciTegic          2D

 29 29  0  0  0  0            999 V2000
    3.8969    0.4545    0.0000 S   0  0
    3.8990   -0.7455    0.0000 P   0  0
    2.6003   -1.4977    0.0000 O   0  0
    2.6015   -2.9986    0.0000 C   0  0
    3.9027   -3.7449    0.0000 N   0  0
    3.9070   -5.2449    0.0000 C   0  0
    2.6101   -5.9986    0.0000 C   0  0
    1.3089   -5.2523    0.0000 C   0  0
    1.3046   -3.7523    0.0000 C   0  0
    0.2637   -3.1552    0.0000 Cl  0  0
    2.6135   -7.1986    0.0000 Cl  0  0
    4.9479   -5.8419    0.0000 Cl  0  0
    5.2003   -1.4932    0.0000 O   0  0
    6.4990   -0.7409    0.0000 C   0  0
    7.8003   -1.4887    0.0000 C   0  0
    2.5738    0.0191    0.0000 O   0  0
    2.5724    1.5199    0.0000 C   0  0
    1.2724    2.2699    0.0000 C   0  0
    0.4443   -5.7547    0.0000 H   0  0
    6.4973    0.2591    0.0000 H   0  0
    5.6322   -0.2423    0.0000 H   0  0
    8.6656   -0.9874    0.0000 H   0  0
    7.8020   -2.4887    0.0000 H   0  0
    8.6671   -1.9873    0.0000 H   0  0
    3.4388    1.0206    0.0000 H   0  0
    3.4381    2.0204    0.0000 H   0  0
    1.2715    3.2699    0.0000 H   0  0
    0.4060    2.7693    0.0000 H   0  0
    0.4067    1.7694    0.0000 H   0  0
  1  2  2  0
  2  3  1  0
  2 13  1  0
  2 16  1  0
  3  4  1  0
  4  5  2  0
  4  9  1  0
  5  6  1  0
  6  7  2  0
  6 12  1  0
  7  8  1  0
  7 11  1  0
  8  9  2  0
  9 10  1  0
 13 14  1  0
 14 15  1  0
 16 17  1  0
 17 18  1  0
  8 19  1  0
 14 20  1  0
 14 21  1  0
 15 22  1  0
 15 23  1  0
 15 24  1  0
 17 25  1  0
 17 26  1  0
 18 27  1  0
 18 28  1  0
 18 29  1  0
V    1 0
V    2 1
V    3 2
V    4 3
V    5 4
V    6 5
V    7 6
V    8 7
V    9 8
V   10 9
V   11 10
V   12 11
V   13 12
V   14 13
V   15 14
V   16 15
V   17 16
V   18 17
M  END
> <DSSTox_RID>
59882

> <DSSTox_CID>
458

> <DSSTox_CID_Parent>
458

> <DSSTox_Generic_SID>
20458

> <DSSTox_FileID>
80_TXCST2_v1a

> <STRUCTURE_Formula>
C9H11Cl3NO3PS

> <STRUCTURE_MolecularWeight>
350.5863

> <STRUCTURE_ChemicalType>
defined organic

> <STRUCTURE_TestedForm_DefinedOrganic>
parent

> <STRUCTURE_Shown>
tested chemical

> <TestSubstance_ChemicalName>
Chlorpyrifos

> <TestSubstance_CASRN>
2921-88-2

> <TestSubstance_Description>
single chemical compound

> <STRUCTURE_ChemicalName_IUPAC>
O,O-diethyl O-(3,5,6-trichloropyridin-2-yl) thiophosphate

> <STRUCTURE_SMILES>
S=P(OC1=NC(=C(C=C1Cl)Cl)Cl)(OCC)OCC

> <STRUCTURE_Parent_SMILES>
S=P(OC1=NC(=C(C=C1Cl)Cl)Cl)(OCC)OCC

> <STRUCTURE_InChIS>
InChI=1S/C9H11Cl3NO3PS/c1-3-14-17(18,15-4-2)16-9-7(11)5-6(10)8(12)13-9/h5H,3-4H2,1-2H3

> <STRUCTURE_InChIKey>
SBPBAQFWLVIOKP-UHFFFAOYSA-N

> <Substance_modify_yyyymmdd>
20080429

> <Coord_Metals>
0

> <Index>
80

> <Canonical_Smiles>
CCOP(=S)(OCC)Oc1nc(Cl)c(Cl)cc1Cl

> <Molecular_Weight>
350.5863

> <Frequency>
1

$$$$

  SciTegic          2D

 17 16  0  0  0  0            999 V2000
    1.3000    0.7500    0.0000 O   0  0
    2.6000    0.0000    0.0000 C   0  0
    3.9000    0.7500    0.0000 C   0  0
    5.2000    0.0000    0.0000 O   0  0
    6.5000    0.7500    0.0000 C   0  0
    7.7999    0.0000    0.0000 C   0  0
    9.0999    0.7500    0.0000 O   0  0
    0.4338    0.2503    0.0000 H   0  0
    2.6000   -1.0000    0.0000 H   0  0
    1.7340   -0.5001    0.0000 H   0  0
    3.9000    1.7500    0.0000 H   0  0
    4.7659    1.2501    0.0000 H   0  0
    6.5000    1.7500    0.0000 H   0  0
    5.6340    1.2501    0.0000 H   0  0
    7.7999   -1.0000    0.0000 H   0  0
    8.6659   -0.5001    0.0000 H   0  0
    9.9661    0.2503    0.0000 H   0  0
  1  2  1  0
  2  3  1  0
  3  4  1  0
  4  5  1  0
  5  6  1  0
  6  7  1  0
  1  8  1  0
  2  9  1  0
  2 10  1  0
  3 11  1  0
  3 12  1  0
  5 13  1  0
  5 14  1  0
  6 15  1  0
  6 16  1  0
  7 17  1  0
V    1 0
V    2 1
V    3 2
V    4 3
V    5 4
V    6 5
V    7 6
M  END
> <DSSTox_RID>
66857

> <DSSTox_CID>
462

> <DSSTox_CID_Parent>
462

> <DSSTox_Generic_SID>
20462

> <DSSTox_FileID>
81_TXCST2_v1a

> <STRUCTURE_Formula>
C4H10O3

> <STRUCTURE_MolecularWeight>
106.1204

> <STRUCTURE_ChemicalType>
defined organic

> <STRUCTURE_TestedForm_DefinedOrganic>
parent

> <STRUCTURE_Shown>
tested chemical

> <TestSubstance_ChemicalName>
Diethylene glycol

> <TestSubstance_CASRN>
111-46-6

> <TestSubstance_Description>
single chemical compound

> <STRUCTURE_ChemicalName_IUPAC>
2,2'-oxydiethanol

> <STRUCTURE_SMILES>
OCCOCCO

> <STRUCTURE_Parent_SMILES>
OCCOCCO

> <STRUCTURE_InChIS>
InChI=1S/C4H10O3/c5-1-3-7-4-2-6/h5-6H,1-4H2

> <STRUCTURE_InChIKey>
MTHSVFCYNBDYFN-UHFFFAOYSA-N

> <Substance_modify_yyyymmdd>
20080429

> <Coord_Metals>
0

> <Index>
81

> <Canonical_Smiles>
OCCOCCO

> <Molecular_Weight>
106.1204

> <Frequency>
1

$$$$

  SciTegic          2D

 40 41  0  0  0  0            999 V2000
    1.2912   -5.2516    0.0000 C   0  0
    1.2934   -3.7508    0.0000 C   0  0
   -0.0049   -2.9977    0.0000 C   0  0
   -1.3070   -3.7424    0.0000 C   0  0
   -2.6029   -2.9870    0.0000 C   0  0
   -2.5967   -1.4870    0.0000 C   0  0
   -1.2946   -0.7424    0.0000 C   0  0
    0.0013   -1.4977    0.0000 C   0  0
   -3.8918   -0.7286    0.0000 O   0  0
    2.5960   -3.0053    0.0000 C   0  0
    2.6026   -1.5045    0.0000 C   0  0
    2.5894   -6.0047    0.0000 C   0  0
    3.8916   -5.2601    0.0000 C   0  0
    5.1875   -6.0154    0.0000 C   0  0
    5.1814   -7.5154    0.0000 C   0  0
    3.8793   -8.2601    0.0000 C   0  0
    2.5833   -7.5048    0.0000 C   0  0
    6.4765   -8.2738    0.0000 O   0  0
   -0.0114   -5.9971    0.0000 C   0  0
   -0.0180   -7.4979    0.0000 C   0  0
   -1.3111   -4.7424    0.0000 H   0  0
   -3.4710   -3.4835    0.0000 H   0  0
   -1.2905    0.2576    0.0000 H   0  0
    0.8694   -1.0013    0.0000 H   0  0
   -3.8863    0.2714    0.0000 H   0  0
    2.5920   -4.0053    0.0000 H   0  0
    3.4599   -3.5089    0.0000 H   0  0
    3.4705   -1.0078    0.0000 H   0  0
    2.6066   -0.5045    0.0000 H   0  0
    1.7386   -1.0010    0.0000 H   0  0
    3.8957   -4.2601    0.0000 H   0  0
    6.0556   -5.5190    0.0000 H   0  0
    3.8752   -9.2601    0.0000 H   0  0
    1.7153   -8.0013    0.0000 H   0  0
    6.4710   -9.2738    0.0000 H   0  0
   -0.8753   -5.4936    0.0000 H   0  0
   -0.0074   -4.9971    0.0000 H   0  0
   -0.8860   -7.9946    0.0000 H   0  0
    0.8459   -8.0015    0.0000 H   0  0
   -0.0220   -8.4979    0.0000 H   0  0
  1  2  2  0
  1 12  1  0
  1 19  1  0
  2  3  1  0
  2 10  1  0
  3  4  1  0
  3  8  2  0
  4  5  2  0
  5  6  1  0
  6  7  2  0
  6  9  1  0
  7  8  1  0
 10 11  1  0
 12 13  2  0
 12 17  1  0
 13 14  1  0
 14 15  2  0
 15 16  1  0
 15 18  1  0
 16 17  2  0
 19 20  1  0
  4 21  1  0
  5 22  1  0
  7 23  1  0
  8 24  1  0
  9 25  1  0
 10 26  1  0
 10 27  1  0
 11 28  1  0
 11 29  1  0
 11 30  1  0
 13 31  1  0
 14 32  1  0
 16 33  1  0
 17 34  1  0
 18 35  1  0
 19 36  1  0
 19 37  1  0
 20 38  1  0
 20 39  1  0
 20 40  1  0
V    1 0
V    2 1
V    3 2
V    4 3
V    5 4
V    6 5
V    7 6
V    8 7
V    9 8
V   10 9
V   11 10
V   12 11
V   13 12
V   14 13
V   15 14
V   16 15
V   17 16
V   18 17
V   19 18
V   20 19
M  END
> <DSSTox_RID>
65341

> <DSSTox_CID>
465

> <DSSTox_CID_Parent>
465

> <DSSTox_Generic_SID>
20465

> <DSSTox_FileID>
82_TXCST2_v1a

> <STRUCTURE_Formula>
C18H20O2

> <STRUCTURE_MolecularWeight>
268.3502

> <STRUCTURE_ChemicalType>
defined organic

> <STRUCTURE_TestedForm_DefinedOrganic>
parent

> <STRUCTURE_Shown>
tested chemical

> <TestSubstance_ChemicalName>
Diethylstilbestrol (DES)

> <TestSubstance_CASRN>
56-53-1

> <TestSubstance_Description>
single chemical compound

> <ChemicalNote>
stereochem

> <STRUCTURE_ChemicalName_IUPAC>
4,4'-(3E)-hex-3-ene-3,4-diyldiphenol

> <STRUCTURE_SMILES>
OC2=CC=C(C=C2)/C(CC)=C(CC)/C1=CC=C(O)C=C1

> <STRUCTURE_Parent_SMILES>
OC2=CC=C(C=C2)/C(CC)=C(CC)/C1=CC=C(O)C=C1

> <STRUCTURE_InChIS>
InChI=1S/C18H20O2/c1-3-17(13-5-9-15(19)10-6-13)18(4-2)14-7-11-16(20)12-8-14/h5-12,19-20H,3-4H2,1-2H3/b18-17+

> <STRUCTURE_InChIKey>
RGLYKWWBQGJZGM-ISLYRVAYSA-N

> <Substance_modify_yyyymmdd>
20080429

> <Coord_Metals>
0

> <Index>
82

> <Canonical_Smiles>
CCC(=C(CC)c1ccc(O)cc1)c2ccc(O)cc2

> <Molecular_Weight>
268.3502

> <Frequency>
1

$$$$

  SciTegic          2D

 24 23  0  0  0  0            999 V2000
    7.7999   -1.2000    0.0000 S   0  0
    7.7999    0.0000    0.0000 P   0  0
    6.5000    0.7500    0.0000 S   0  0
    6.4985    2.2508    0.0000 C   0  0
    5.1985    3.0008    0.0000 C   0  0
    4.1597    2.4002    0.0000 O   0  0
    5.1971    4.5016    0.0000 N   0  0
    3.8971    5.2516    0.0000 C   0  0
    9.0999    0.7500    0.0000 O   0  0
   10.3999    0.0000    0.0000 C   0  0
    6.4760   -0.7669    0.0000 O   0  0
    6.4773   -2.2677    0.0000 C   0  0
    7.3649    1.7515    0.0000 H   0  0
    7.3642    2.7514    0.0000 H   0  0
    6.0628    5.0022    0.0000 H   0  0
    3.8962    6.2516    0.0000 H   0  0
    3.0314    4.7511    0.0000 H   0  0
    3.0307    5.7510    0.0000 H   0  0
   11.2661    0.4997    0.0000 H   0  0
   10.3999   -1.0000    0.0000 H   0  0
   11.2659   -0.5001    0.0000 H   0  0
    5.6120   -2.7689    0.0000 H   0  0
    6.4785   -3.2677    0.0000 H   0  0
    7.3438   -2.7667    0.0000 H   0  0
  1  2  2  0
  2  3  1  0
  2  9  1  0
  2 11  1  0
  3  4  1  0
  4  5  1  0
  5  6  2  0
  5  7  1  0
  7  8  1  0
  9 10  1  0
 11 12  1  0
  4 13  1  0
  4 14  1  0
  7 15  1  0
  8 16  1  0
  8 17  1  0
  8 18  1  0
 10 19  1  0
 10 20  1  0
 10 21  1  0
 12 22  1  0
 12 23  1  0
 12 24  1  0
V    1 0
V    2 1
V    3 2
V    4 3
V    5 4
V    6 5
V    7 6
V    8 7
V    9 8
V   10 9
V   11 10
V   12 11
M  END
> <DSSTox_RID>
65808

> <DSSTox_CID>
479

> <DSSTox_CID_Parent>
479

> <DSSTox_Generic_SID>
20479

> <DSSTox_FileID>
83_TXCST2_v1a

> <STRUCTURE_Formula>
C5H12NO3PS2

> <STRUCTURE_MolecularWeight>
229.2574

> <STRUCTURE_ChemicalType>
defined organic

> <STRUCTURE_TestedForm_DefinedOrganic>
parent

> <STRUCTURE_Shown>
tested chemical

> <TestSubstance_ChemicalName>
Dimethoate

> <TestSubstance_CASRN>
60-51-5

> <TestSubstance_Description>
single chemical compound

> <Source_ChemicalNote>
tested chemical contained 0.08% water (0.01 moles H2O)

> <STRUCTURE_ChemicalName_IUPAC>
O,O-dimethyl S-[2-(methylamino)-2-oxoethyl] dithiophosphate

> <STRUCTURE_SMILES>
S=P(SCC(=O)NC)(OC)OC

> <STRUCTURE_Parent_SMILES>
S=P(SCC(=O)NC)(OC)OC

> <STRUCTURE_InChIS>
InChI=1S/C5H12NO3PS2/c1-6-5(7)4-12-10(11,8-2)9-3/h4H2,1-3H3,(H,6,7)

> <STRUCTURE_InChIKey>
MCWXGJITAZMZEV-UHFFFAOYSA-N

> <Substance_modify_yyyymmdd>
20080429

> <Coord_Metals>
0

> <Index>
83

> <Canonical_Smiles>
CNC(=O)CSP(=S)(OC)OC

> <Molecular_Weight>
229.25744

> <Frequency>
1

$$$$

  SciTegic          2D

 26 26  0  0  0  0            999 V2000
    1.2626   -2.2300    0.0000 C   0  0
    1.2990   -0.7500    0.0000 C   0  0
    1.2990    0.7500    0.0000 C   0  0
    0.0000    1.5000    0.0000 C   0  0
   -1.2990    0.7500    0.0000 O   0  0
   -1.2990   -0.7500    0.0000 C   0  0
    0.0000   -1.5000    0.0000 O   0  0
   -1.2626   -2.2300    0.0000 C   0  0
   -1.2999    2.2084    0.0000 O   0  0
   -2.6000    1.4585    0.0000 C   0  0
   -2.6001    0.2585    0.0000 O   0  0
   -3.8999    2.2087    0.0000 C   0  0
    0.3968   -2.7304    0.0000 H   0  0
    2.1287   -2.7299    0.0000 H   0  0
    1.2629   -3.2300    0.0000 H   0  0
    2.1526   -0.2289    0.0000 H   0  0
    0.4215    0.2706    0.0000 H   0  0
    1.2755    1.7497    0.0000 H   0  0
    0.8780    1.9786    0.0000 H   0  0
   -2.1526   -0.2289    0.0000 H   0  0
   -0.3968   -2.7304    0.0000 H   0  0
   -1.2628   -3.2300    0.0000 H   0  0
   -2.1287   -2.7299    0.0000 H   0  0
   -4.7662    1.7090    0.0000 H   0  0
   -3.8998    3.2087    0.0000 H   0  0
   -4.7658    2.7089    0.0000 H   0  0
  1  2  1  0
  2  3  1  0
  2  7  1  0
  3  4  1  0
  4  5  1  0
  4  9  1  0
  5  6  1  0
  6  7  1  0
  6  8  1  0
  9 10  1  0
 10 11  2  0
 10 12  1  0
  1 13  1  0
  1 14  1  0
  1 15  1  0
  2 16  1  0
  3 17  1  0
  3 18  1  0
  4 19  1  0
  6 20  1  0
  8 21  1  0
  8 22  1  0
  8 23  1  0
 12 24  1  0
 12 25  1  0
 12 26  1  0
V    1 0
V    2 1
V    3 2
V    4 3
V    5 4
V    6 5
V    7 6
V    8 7
V    9 8
V   10 9
V   11 10
V   12 11
M  END
> <DSSTox_RID>
65660

> <DSSTox_CID>
480

> <DSSTox_CID_Parent>
480

> <DSSTox_Generic_SID>
20480

> <DSSTox_FileID>
84_TXCST2_v1a

> <STRUCTURE_Formula>
C8H14O4

> <STRUCTURE_MolecularWeight>
174.1944

> <STRUCTURE_ChemicalType>
defined organic

> <STRUCTURE_TestedForm_DefinedOrganic>
parent

> <STRUCTURE_Shown>
tested chemical

> <TestSubstance_ChemicalName>
Dimethoxane

> <TestSubstance_CASRN>
828-00-2

> <TestSubstance_Description>
single chemical compound

> <Source_ChemicalNote>
tested chemical was a mixture of Z,E isomers

> <STRUCTURE_ChemicalName_IUPAC>
2,6-dimethyl-1,3-dioxan-4-yl acetate

> <STRUCTURE_SMILES>
CC1CC(OC(O1)C)OC(=O)C

> <STRUCTURE_Parent_SMILES>
CC1CC(OC(O1)C)OC(=O)C

> <STRUCTURE_InChIS>
InChI=1S/C8H14O4/c1-5-4-8(11-6(2)9)12-7(3)10-5/h5,7-8H,4H2,1-3H3

> <STRUCTURE_InChIKey>
PHMNXPYGVPEQSJ-UHFFFAOYSA-N

> <Substance_modify_yyyymmdd>
20080429

> <Coord_Metals>
0

> <Index>
84

> <Canonical_Smiles>
CC1CC(OC(=O)C)OC(C)O1

> <Molecular_Weight>
174.19435

> <Frequency>
1

$$$$

  SciTegic          2D

 34 35  0  0  0  0            999 V2000
    2.5973   -1.5031    0.0000 N   0  0
    1.2990   -0.7500    0.0000 C   0  0
    1.2990    0.7500    0.0000 C   0  0
    0.0000    1.5000    0.0000 C   0  0
   -1.2990    0.7500    0.0000 C   0  0
   -1.2990   -0.7500    0.0000 C   0  0
    0.0000   -1.5000    0.0000 C   0  0
   -0.0031   -3.0008    0.0000 O   0  0
   -1.3039   -3.7494    0.0000 C   0  0
   -2.5987    1.5004    0.0000 C   0  0
   -2.6012    3.0004    0.0000 C   0  0
   -3.9015    3.7484    0.0000 C   0  0
   -5.1993    2.9963    0.0000 C   0  0
   -5.1969    1.4963    0.0000 C   0  0
   -3.8967    0.7484    0.0000 C   0  0
   -6.4939    0.7411    0.0000 O   0  0
   -6.4894   -0.7597    0.0000 C   0  0
   -6.5018    3.7420    0.0000 N   0  0
    2.5958   -2.5031    0.0000 H   0  0
    3.4642   -1.0046    0.0000 H   0  0
    2.1651    1.2500    0.0000 H   0  0
    0.0000    2.5000    0.0000 H   0  0
   -2.1651   -1.2500    0.0000 H   0  0
   -1.3060   -4.7494    0.0000 H   0  0
   -2.1691   -3.2479    0.0000 H   0  0
   -2.1709   -4.2478    0.0000 H   0  0
   -1.7360    3.5018    0.0000 H   0  0
   -3.9030    4.7484    0.0000 H   0  0
   -3.8951   -0.2516    0.0000 H   0  0
   -7.3536   -1.2628    0.0000 H   0  0
   -5.6217   -1.2568    0.0000 H   0  0
   -6.4859   -1.7597    0.0000 H   0  0
   -7.3663    3.2393    0.0000 H   0  0
   -6.5051    4.7420    0.0000 H   0  0
  1  2  1  0
  2  3  2  0
  2  7  1  0
  3  4  1  0
  4  5  2  0
  5  6  1  0
  5 10  1  0
  6  7  2  0
  7  8  1  0
  8  9  1  0
 10 11  2  0
 10 15  1  0
 11 12  1  0
 12 13  2  0
 13 14  1  0
 13 18  1  0
 14 15  2  0
 14 16  1  0
 16 17  1  0
  1 19  1  0
  1 20  1  0
  3 21  1  0
  4 22  1  0
  6 23  1  0
  9 24  1  0
  9 25  1  0
  9 26  1  0
 11 27  1  0
 12 28  1  0
 15 29  1  0
 17 30  1  0
 17 31  1  0
 17 32  1  0
 18 33  1  0
 18 34  1  0
V    1 0
V    2 1
V    3 2
V    4 3
V    5 4
V    6 5
V    7 6
V    8 7
V    9 8
V   10 9
V   11 10
V   12 11
V   13 12
V   14 13
V   15 14
V   16 15
V   17 16
V   18 17
M  END
> <DSSTox_RID>
59902
59895

> <DSSTox_CID>
485
5091

> <DSSTox_CID_Parent>
5091
5091

> <DSSTox_Generic_SID>
20485
25091

> <DSSTox_FileID>
85_TXCST2_v1a
486_TXCST2_v1a

> <STRUCTURE_Formula>
C14H18Cl2N2O2
C14H16N2O2

> <STRUCTURE_MolecularWeight>
317.2109
244.289

> <STRUCTURE_ChemicalType>
defined organic
defined organic

> <STRUCTURE_TestedForm_DefinedOrganic>
complex 2HCl
parent

> <STRUCTURE_Shown>
tested chemical
tested chemical

> <TestSubstance_ChemicalName>
3,3'-Dimethoxybenzidine dihydrochloride
3,3'-Dimethoxybenzidine

> <TestSubstance_CASRN>
20325-40-0
119-90-4

> <TestSubstance_Description>
single chemical compound
single chemical compound

> <ChemicalNote>
parent [119-90-4]

> <Source_ChemicalNote>
tested chemical contained 3.8% water (0.7 moles H2O)

> <STRUCTURE_ChemicalName_IUPAC>
3,3'-dimethoxybiphenyl-4,4'-diamine dihydrochloride
3,3'-dimethoxybiphenyl-4,4'-diamine

> <STRUCTURE_SMILES>
NC1=CC=C(C2=CC=C(N)C(OC)=C2)C=C1OC.Cl.Cl
O(c(c(N)ccc1c(ccc(N)c2OC)c2)c1)C

> <STRUCTURE_Parent_SMILES>
NC1=CC=C(C2=CC=C(N)C(OC)=C2)C=C1OC
O(c(c(N)ccc1c(ccc(N)c2OC)c2)c1)C

> <STRUCTURE_InChIS>
InChI=1S/C14H16N2O2.2ClH/c1-17-13-7-9(3-5-11(13)15)10-4-6-12(16)14(8-10)18-2;;/h3-8H,15-16H2,1-2H3;2*1H
InChI=1S/C14H16N2O2/c1-17-13-7-9(3-5-11(13)15)10-4-6-12(16)14(8-10)18-2/h3-8H,15-16H2,1-2H3

> <STRUCTURE_InChIKey>
UXTIAFYTYOEQHV-UHFFFAOYSA-N
JRBJSXQPQWSCCF-UHFFFAOYSA-N

> <Substance_modify_yyyymmdd>
20080429
20080429

> <Coord_Metals>
0
0

> <Index>
85
486

> <Canonical_Smiles>
COc1cc(ccc1N)c2ccc(N)c(OC)c2

> <Molecular_Weight>
244.28903
244.28903

> <Frequency>
2

$$$$

  SciTegic          2D

 24 24  0  0  0  0            999 V2000
    3.6375   -0.9049    0.0000 O   0  0
    2.5973   -1.5031    0.0000 C   0  0
    1.2990   -0.7500    0.0000 C   0  0
    1.2990    0.7500    0.0000 C   0  0
    0.0000    1.5000    0.0000 C   0  0
   -1.2990    0.7500    0.0000 C   0  0
   -1.2990   -0.7500    0.0000 C   0  0
    0.0000   -1.5000    0.0000 C   0  0
   -2.6003    1.4977    0.0000 C   0  0
   -2.6024    2.6977    0.0000 O   0  0
   -3.8990    0.7455    0.0000 O   0  0
   -5.2003    1.4932    0.0000 C   0  0
    2.5951   -3.0039    0.0000 O   0  0
    3.8933   -3.7570    0.0000 C   0  0
    2.1651    1.2500    0.0000 H   0  0
    0.0000    2.5000    0.0000 H   0  0
   -2.1651   -1.2500    0.0000 H   0  0
    0.0000   -2.5000    0.0000 H   0  0
   -6.0656    0.9920    0.0000 H   0  0
   -6.0671    1.9918    0.0000 H   0  0
   -5.2021    2.4932    0.0000 H   0  0
    3.8919   -4.7570    0.0000 H   0  0
    4.7586   -4.2584    0.0000 H   0  0
    4.7602   -3.2585    0.0000 H   0  0
  1  2  2  0
  2  3  1  0
  2 13  1  0
  3  4  2  0
  3  8  1  0
  4  5  1  0
  5  6  2  0
  6  7  1  0
  6  9  1  0
  7  8  2  0
  9 10  2  0
  9 11  1  0
 11 12  1  0
 13 14  1  0
  4 15  1  0
  5 16  1  0
  7 17  1  0
  8 18  1  0
 12 19  1  0
 12 20  1  0
 12 21  1  0
 14 22  1  0
 14 23  1  0
 14 24  1  0
V    1 0
V    2 1
V    3 2
V    4 3
V    5 4
V    6 5
V    7 6
V    8 7
V    9 8
V   10 9
V   11 10
V   12 11
V   13 12
V   14 13
M  END
> <DSSTox_RID>
66967

> <DSSTox_CID>
498

> <DSSTox_CID_Parent>
498

> <DSSTox_Generic_SID>
20498

> <DSSTox_FileID>
86_TXCST2_v1a

> <STRUCTURE_Formula>
C10H10O4

> <STRUCTURE_MolecularWeight>
194.184

> <STRUCTURE_ChemicalType>
defined organic

> <STRUCTURE_TestedForm_DefinedOrganic>
parent

> <STRUCTURE_Shown>
tested chemical

> <TestSubstance_ChemicalName>
Dimethyl terephthalate

> <TestSubstance_CASRN>
120-61-6

> <TestSubstance_Description>
single chemical compound

> <STRUCTURE_ChemicalName_IUPAC>
dimethyl terephthalate

> <STRUCTURE_SMILES>
O=C(C1=CC=C(C=C1)C(=O)OC)OC

> <STRUCTURE_Parent_SMILES>
O=C(C1=CC=C(C=C1)C(=O)OC)OC

> <STRUCTURE_InChIS>
InChI=1S/C10H10O4/c1-13-9(11)7-3-5-8(6-4-7)10(12)14-2/h3-6H,1-2H3

> <STRUCTURE_InChIKey>
WOZVHXUHUFLZGK-UHFFFAOYSA-N

> <Substance_modify_yyyymmdd>
20080429

> <Coord_Metals>
0

> <Index>
86

> <Canonical_Smiles>
COC(=O)c1ccc(cc1)C(=O)OC

> <Molecular_Weight>
194.18399

> <Frequency>
1

$$$$

  SciTegic          2D

 50 51  0  0  0  0            999 V2000
    1.9289   -2.0214    0.0000 C   0  0
    2.4419   -0.6119    0.0000 C   0  0
    0.4517   -2.2819    0.0000 C   0  0
    1.4777    0.5372    0.0000 C   0  0
   -0.5125   -1.1328    0.0000 C   0  0
    0.0005    0.2767    0.0000 C   0  0
   -0.5130   -3.4316    0.0000 C   0  0
   -0.0022   -4.8428    0.0000 C   0  0
   -0.5171   -6.2525    0.0000 C   0  0
    0.4455   -7.4040    0.0000 N   0  0
   -0.0694   -8.8137    0.0000 C   0  0
   -1.9955   -6.5110    0.0000 C   0  0
    1.9245   -7.1485    0.0000 C   0  0
   -1.9913   -3.1718    0.0000 C   0  0
   -2.5036   -4.5816    0.0000 C   0  0
   -2.9561   -2.0232    0.0000 C   0  0
   -3.9806   -4.8428    0.0000 C   0  0
   -4.4331   -2.2845    0.0000 C   0  0
   -4.9454   -3.6943    0.0000 C   0  0
    0.9929   -3.1615    0.0000 C   0  0
    1.9616   -4.3078    0.0000 C   0  0
    3.4389   -4.0429    0.0000 C   0  0
    1.3318   -2.2207    0.0000 O   0  0
    2.5717   -2.7874    0.0000 H   0  0
    3.4267   -0.4382    0.0000 H   0  0
    1.8198    1.4769    0.0000 H   0  0
   -1.4973   -1.3065    0.0000 H   0  0
   -0.6423    1.0428    0.0000 H   0  0
    0.9823   -5.0179    0.0000 H   0  0
    0.6418   -4.0778    0.0000 H   0  0
    0.4679   -6.0803    0.0000 H   0  0
    0.5720   -9.5809    0.0000 H   0  0
   -0.4129   -9.7528    0.0000 H   0  0
   -1.0545   -8.9859    0.0000 H   0  0
   -2.6376   -5.7444    0.0000 H   0  0
   -2.9805   -6.6837    0.0000 H   0  0
   -2.3386   -7.4503    0.0000 H   0  0
    2.5650   -7.9164    0.0000 H   0  0
    2.9098   -6.9779    0.0000 H   0  0
    2.2695   -6.2099    0.0000 H   0  0
   -1.8604   -5.3473    0.0000 H   0  0
   -2.6145   -1.0833    0.0000 H   0  0
   -4.3221   -5.7827    0.0000 H   0  0
   -5.0763   -1.5187    0.0000 H   0  0
   -5.9301   -3.8684    0.0000 H   0  0
    1.6226   -5.2486    0.0000 H   0  0
    0.9774   -4.4847    0.0000 H   0  0
    4.0844   -4.8066    0.0000 H   0  0
    3.7779   -3.1021    0.0000 H   0  0
    4.4231   -3.8659    0.0000 H   0  0
  1  2  1  0
  1  3  2  0
  2  4  2  0
  3  5  1  0
  3  7  1  0
  4  6  1  0
  5  6  2  0
  7  8  1  0
  7 14  1  0
  7 20  1  0
  8  9  1  0
  9 10  1  0
  9 12  1  0
 10 11  1  0
 10 13  1  0
 14 15  1  0
 14 16  2  0
 15 17  2  0
 16 18  1  0
 17 19  1  0
 18 19  2  0
 20 21  1  0
 20 23  2  0
 21 22  1  0
  1 24  1  0
  2 25  1  0
  4 26  1  0
  5 27  1  0
  6 28  1  0
  8 29  1  0
  8 30  1  0
  9 31  1  0
 11 32  1  0
 11 33  1  0
 11 34  1  0
 12 35  1  0
 12 36  1  0
 12 37  1  0
 13 38  1  0
 13 39  1  0
 13 40  1  0
 15 41  1  0
 16 42  1  0
 17 43  1  0
 18 44  1  0
 19 45  1  0
 21 46  1  0
 21 47  1  0
 22 48  1  0
 22 49  1  0
 22 50  1  0
V    1 0
V    2 1
V    3 2
V    4 3
V    5 4
V    6 5
V    7 6
V    8 7
V    9 8
V   10 9
V   11 10
V   12 11
V   13 12
V   14 13
V   15 14
V   16 15
V   17 16
V   18 17
V   19 18
V   20 19
V   21 20
V   22 21
V   23 22
M  END
> <DSSTox_RID>
60118

> <DSSTox_CID>
501

> <DSSTox_CID_Parent>
3273

> <DSSTox_Generic_SID>
20501

> <DSSTox_FileID>
87_TXCST2_v1a

> <STRUCTURE_Formula>
C21H28ClNO

> <STRUCTURE_MolecularWeight>
345.9061

> <STRUCTURE_ChemicalType>
defined organic

> <STRUCTURE_TestedForm_DefinedOrganic>
complex HCl

> <STRUCTURE_Shown>
tested chemical

> <TestSubstance_ChemicalName>
Methadone Hydrochloride

> <TestSubstance_CASRN>
1095-90-5

> <TestSubstance_Description>
single chemical compound

> <ChemicalNote>
racemic mixture of d- [15284-15-8], l- [5967-73-7]; structure shown without stereochem; parent [76-99-3]

> <STRUCTURE_ChemicalName_IUPAC>
6-(dimethylamino)-4,4-diphenylheptan-3-one hydrochloride

> <STRUCTURE_SMILES>
O=C(C(C1=CC=CC=C1)(C2=CC=CC=C2)CC(N(C)C)C)CC.[H]Cl

> <STRUCTURE_Parent_SMILES>
O=C(C(C1=CC=CC=C1)(C2=CC=CC=C2)CC(N(C)C)C)CC

> <STRUCTURE_InChIS>
InChI=1S/C21H27NO.ClH/c1-5-20(23)21(16-17(2)22(3)4,18-12-8-6-9-13-18)19-14-10-7-11-15-19;/h6-15,17H,5,16H2,1-4H3;1H

> <STRUCTURE_InChIKey>
FJQXCDYVZAHXNS-UHFFFAOYSA-N

> <Substance_modify_yyyymmdd>
20080429

> <Coord_Metals>
0

> <Index>
87

> <Canonical_Smiles>
CCC(=O)C(CC(C)N(C)C)(c1ccccc1)c2ccccc2

> <Molecular_Weight>
309.44518

> <Frequency>
1

$$$$

  SciTegic          2D

 20 20  0  0  0  0            999 V2000
    2.5951   -3.0039    0.0000 C   0  0
    2.5973   -1.5031    0.0000 N   0  0
    1.2990   -0.7500    0.0000 C   0  0
    1.2990    0.7500    0.0000 C   0  0
    0.0000    1.5000    0.0000 C   0  0
   -1.2990    0.7500    0.0000 C   0  0
   -1.2990   -0.7500    0.0000 C   0  0
    0.0000   -1.5000    0.0000 C   0  0
    3.8968   -0.7523    0.0000 C   0  0
    3.4601   -3.5057    0.0000 H   0  0
    2.5932   -4.0039    0.0000 H   0  0
    1.7282   -3.5024    0.0000 H   0  0
    2.1651    1.2500    0.0000 H   0  0
    0.0000    2.5000    0.0000 H   0  0
   -2.1651    1.2500    0.0000 H   0  0
   -2.1651   -1.2500    0.0000 H   0  0
    0.0000   -2.5000    0.0000 H   0  0
    3.8971    0.2477    0.0000 H   0  0
    4.7629   -0.2524    0.0000 H   0  0
    4.7628   -1.2523    0.0000 H   0  0
  1  2  1  0
  2  3  1  0
  2  9  1  0
  3  4  2  0
  3  8  1  0
  4  5  1  0
  5  6  2  0
  6  7  1  0
  7  8  2  0
  1 10  1  0
  1 11  1  0
  1 12  1  0
  4 13  1  0
  5 14  1  0
  6 15  1  0
  7 16  1  0
  8 17  1  0
  9 18  1  0
  9 19  1  0
  9 20  1  0
V    1 0
V    2 1
V    3 2
V    4 3
V    5 4
V    6 5
V    7 6
V    8 7
V    9 8
M  END
> <DSSTox_RID>
62295

> <DSSTox_CID>
507

> <DSSTox_CID_Parent>
507

> <DSSTox_Generic_SID>
20507

> <DSSTox_FileID>
88_TXCST2_v1a

> <STRUCTURE_Formula>
C8H11N

> <STRUCTURE_MolecularWeight>
121.1796

> <STRUCTURE_ChemicalType>
defined organic

> <STRUCTURE_TestedForm_DefinedOrganic>
parent

> <STRUCTURE_Shown>
tested chemical

> <TestSubstance_ChemicalName>
N,N-Dimethylaniline

> <TestSubstance_CASRN>
121-69-7

> <TestSubstance_Description>
single chemical compound

> <STRUCTURE_ChemicalName_IUPAC>
N,N-dimethylaniline

> <STRUCTURE_SMILES>
CN(C1=CC=CC=C1)C

> <STRUCTURE_Parent_SMILES>
CN(C1=CC=CC=C1)C

> <STRUCTURE_InChIS>
InChI=1S/C8H11N/c1-9(2)8-6-4-3-5-7-8/h3-7H,1-2H3

> <STRUCTURE_InChIKey>
JLTDJTHDQAWBAV-UHFFFAOYSA-N

> <Substance_modify_yyyymmdd>
20080429

> <Coord_Metals>
0

> <Index>
88

> <Canonical_Smiles>
CN(C)c1ccccc1

> <Molecular_Weight>
121.17964

> <Frequency>
1

$$$$

  SciTegic          2D

 12 11  0  0  0  0            999 V2000
    1.3000    0.7500    0.0000 C   0  0
    2.6000    0.0000    0.0000 As  0  0
    2.6000   -1.2000    0.0000 O   0  0
    3.9000    0.7500    0.0000 C   0  0
    1.2761   -0.7669    0.0000 O   0  0
    0.4338    0.2503    0.0000 H   0  0
    1.3000    1.7500    0.0000 H   0  0
    0.4340    1.2501    0.0000 H   0  0
    4.7662    0.2503    0.0000 H   0  0
    3.9000    1.7500    0.0000 H   0  0
    4.7659    1.2501    0.0000 H   0  0
    1.2769   -1.7669    0.0000 H   0  0
  1  2  1  0
  2  3  2  0
  2  4  1  0
  2  5  1  0
  1  6  1  0
  1  7  1  0
  1  8  1  0
  4  9  1  0
  4 10  1  0
  4 11  1  0
  5 12  1  0
V    1 0
V    2 1
V    3 2
V    4 3
V    5 4
M  END
> <DSSTox_RID>
66563

> <DSSTox_CID>
508

> <DSSTox_Generic_SID>
20508

> <DSSTox_FileID>
89_TXCST2_v1a

> <STRUCTURE_Formula>
C2H7AsO2

> <STRUCTURE_MolecularWeight>
137.9974

> <STRUCTURE_ChemicalType>
organometallic

> <STRUCTURE_Shown>
tested chemical

> <TestSubstance_ChemicalName>
Dimethylarsinic acid

> <TestSubstance_CASRN>
75-60-5

> <TestSubstance_Description>
single chemical compound

> <STRUCTURE_ChemicalName_IUPAC>
dimethylarsinic acid

> <STRUCTURE_SMILES>
C[As](=O)(C)O

> <STRUCTURE_InChIS>
InChI=1S/C2H7AsO2/c1-3(2,4)5/h1-2H3,(H,4,5)

> <STRUCTURE_InChIKey>
OGGXGZAMXPVRFZ-UHFFFAOYSA-N

> <Substance_modify_yyyymmdd>
20080429

> <Coord_Metals>
0

> <Index>
89

> <Canonical_Smiles>
C[As](=O)(C)O

> <Molecular_Weight>
137.99737

> <Frequency>
1

$$$$

  SciTegic          2D

 36 39  0  0  0  0            999 V2000
   -1.0638    2.6699    0.0000 C   0  0
   -1.0997    1.1699    0.0000 C   0  0
   -2.4334    0.4212    0.0000 C   0  0
   -3.7203    1.1699    0.0000 C   0  0
   -5.0306    0.3744    0.0000 C   0  0
   -5.0306   -1.0295    0.0000 C   0  0
   -3.7203   -1.8485    0.0000 C   0  0
   -2.4334   -1.0997    0.0000 C   0  0
   -1.0997   -1.8485    0.0000 C   0  0
    0.1872   -1.0295    0.0000 C   0  0
    1.4975   -1.8485    0.0000 C   0  0
    2.8078   -1.0295    0.0000 C   0  0
    2.8078    0.3744    0.0000 C   0  0
    1.4975    1.1231    0.0000 C   0  0
    0.1872    0.3744    0.0000 C   0  0
    1.4975    2.6206    0.0000 C   0  0
    2.8078    3.3928    0.0000 C   0  0
    4.0947    2.6206    0.0000 C   0  0
    4.0947    1.1231    0.0000 C   0  0
   -1.0573   -3.3480    0.0000 C   0  0
   -1.9173    3.1911    0.0000 H   0  0
   -0.1859    3.1487    0.0000 H   0  0
   -1.0393    3.6696    0.0000 H   0  0
   -3.7297    2.1699    0.0000 H   0  0
   -5.9021    0.8648    0.0000 H   0  0
   -5.9053   -1.5143    0.0000 H   0  0
   -3.7362   -2.8483    0.0000 H   0  0
    1.4975   -2.8485    0.0000 H   0  0
    3.6824   -1.5143    0.0000 H   0  0
    0.6293    3.1168    0.0000 H   0  0
    2.8118    4.3928    0.0000 H   0  0
    4.9649    3.1133    0.0000 H   0  0
    4.9616    0.6246    0.0000 H   0  0
   -1.9085   -3.8729    0.0000 H   0  0
   -0.1773   -3.8230    0.0000 H   0  0
   -1.0285   -4.3476    0.0000 H   0  0
  1  2  1  0
  2  3  2  0
  2 15  1  0
  3  4  1  0
  3  8  1  0
  4  5  2  0
  5  6  1  0
  6  7  2  0
  7  8  1  0
  8  9  2  0
  9 10  1  0
  9 20  1  0
 10 11  2  0
 10 15  1  0
 11 12  1  0
 12 13  2  0
 13 14  1  0
 13 19  1  0
 14 15  2  0
 14 16  1  0
 16 17  2  0
 17 18  1  0
 18 19  2  0
  1 21  1  0
  1 22  1  0
  1 23  1  0
  4 24  1  0
  5 25  1  0
  6 26  1  0
  7 27  1  0
 11 28  1  0
 12 29  1  0
 16 30  1  0
 17 31  1  0
 18 32  1  0
 19 33  1  0
 20 34  1  0
 20 35  1  0
 20 36  1  0
V    1 0
V    2 1
V    3 2
V    4 3
V    5 4
V    6 5
V    7 6
V    8 7
V    9 8
V   10 9
V   11 10
V   12 11
V   13 12
V   14 13
V   15 14
V   16 15
V   17 16
V   18 17
V   19 18
V   20 19
M  END
> <DSSTox_RID>
59907

> <DSSTox_CID>
510

> <DSSTox_CID_Parent>
510

> <DSSTox_Generic_SID>
20510

> <DSSTox_FileID>
90_TXCST2_v1a

> <STRUCTURE_Formula>
C20H16

> <STRUCTURE_MolecularWeight>
256.341

> <STRUCTURE_ChemicalType>
defined organic

> <STRUCTURE_TestedForm_DefinedOrganic>
parent

> <STRUCTURE_Shown>
tested chemical

> <TestSubstance_ChemicalName>
7,12-Dimethylbenz(a)anthracene

> <TestSubstance_CASRN>
57-97-6

> <TestSubstance_Description>
single chemical compound

> <STRUCTURE_ChemicalName_IUPAC>
7,12-dimethyltetraphene

> <STRUCTURE_SMILES>
CC1=C2C=CC=CC2=C(C3=CC=C4C(=C13)C=CC=C4)C

> <STRUCTURE_Parent_SMILES>
CC1=C2C=CC=CC2=C(C3=CC=C4C(=C13)C=CC=C4)C

> <STRUCTURE_InChIS>
InChI=1S/C20H16/c1-13-16-8-5-6-9-17(16)14(2)20-18(13)12-11-15-7-3-4-10-19(15)20/h3-12H,1-2H3

> <STRUCTURE_InChIKey>
ARSRBNBHOADGJU-UHFFFAOYSA-N

> <Substance_modify_yyyymmdd>
20080429

> <Coord_Metals>
0

> <Index>
90

> <Canonical_Smiles>
Cc1c2ccccc2c(C)c3c1ccc4ccccc34

> <Molecular_Weight>
256.34103

> <Frequency>
1

$$$$

  SciTegic          2D

 12 11  0  0  0  0            999 V2000
    0.2606    0.1503    0.0000 O   0  0
    1.3000    0.7500    0.0000 C   0  0
    2.6000    0.0000    0.0000 N   0  0
    3.9000    0.7500    0.0000 C   0  0
    2.5969   -1.5008    0.0000 C   0  0
    1.3000    1.9500    0.0000 Cl  0  0
    4.7662    0.2503    0.0000 H   0  0
    3.9000    1.7500    0.0000 H   0  0
    4.7659    1.2501    0.0000 H   0  0
    1.7302   -1.9996    0.0000 H   0  0
    3.4620   -2.0023    0.0000 H   0  0
    2.5953   -2.5008    0.0000 H   0  0
  1  2  2  0
  2  3  1  0
  2  6  1  0
  3  4  1  0
  3  5  1  0
  4  7  1  0
  4  8  1  0
  4  9  1  0
  5 10  1  0
  5 11  1  0
  5 12  1  0
V    1 0
V    2 1
V    3 2
V    4 3
V    5 4
V    6 5
M  END
> <DSSTox_RID>
60119

> <DSSTox_CID>
512

> <DSSTox_CID_Parent>
512

> <DSSTox_Generic_SID>
20512

> <DSSTox_FileID>
91_TXCST2_v1a

> <STRUCTURE_Formula>
C3H6ClNO

> <STRUCTURE_MolecularWeight>
107.5388

> <STRUCTURE_ChemicalType>
defined organic

> <STRUCTURE_TestedForm_DefinedOrganic>
parent

> <STRUCTURE_Shown>
tested chemical

> <TestSubstance_ChemicalName>
Dimethylcarbamoyl chloride

> <TestSubstance_CASRN>
79-44-7

> <TestSubstance_Description>
single chemical compound

> <STRUCTURE_ChemicalName_IUPAC>
dimethylcarbamic chloride

> <STRUCTURE_SMILES>
O=C(N(C)C)Cl

> <STRUCTURE_Parent_SMILES>
O=C(N(C)C)Cl

> <STRUCTURE_InChIS>
InChI=1S/C3H6ClNO/c1-5(2)3(4)6/h1-2H3

> <STRUCTURE_InChIKey>
YIIMEMSDCNDGTB-UHFFFAOYSA-N

> <Substance_modify_yyyymmdd>
20080429

> <Coord_Metals>
0

> <Index>
91

> <Canonical_Smiles>
CN(C)C(=O)Cl

> <Molecular_Weight>
107.53884

> <Frequency>
1

$$$$

  SciTegic          2D

 12 11  0  0  0  0            999 V2000
    3.9000    0.7500    0.0000 C   0  0
    2.6000    0.0000    0.0000 N   0  0
    1.3000    0.7500    0.0000 C   0  0
    0.2606    0.1503    0.0000 O   0  0
    2.5969   -1.5008    0.0000 C   0  0
    4.7662    0.2503    0.0000 H   0  0
    4.7659    1.2501    0.0000 H   0  0
    3.9000    1.7500    0.0000 H   0  0
    1.3000    1.7500    0.0000 H   0  0
    1.7302   -1.9996    0.0000 H   0  0
    3.4620   -2.0023    0.0000 H   0  0
    2.5953   -2.5008    0.0000 H   0  0
  1  2  1  0
  2  3  1  0
  2  5  1  0
  3  4  2  0
  1  6  1  0
  1  7  1  0
  1  8  1  0
  3  9  1  0
  5 10  1  0
  5 11  1  0
  5 12  1  0
V    1 0
V    2 1
V    3 2
V    4 3
V    5 4
M  END
> <DSSTox_RID>
59544

> <DSSTox_CID>
515

> <DSSTox_CID_Parent>
515

> <DSSTox_Generic_SID>
20515

> <DSSTox_FileID>
92_TXCST2_v1a

> <STRUCTURE_Formula>
C3H7NO

> <STRUCTURE_MolecularWeight>
73.0938

> <STRUCTURE_ChemicalType>
defined organic

> <STRUCTURE_TestedForm_DefinedOrganic>
parent

> <STRUCTURE_Shown>
tested chemical

> <TestSubstance_ChemicalName>
N,N-Dimethylformamide

> <TestSubstance_CASRN>
68-12-2

> <TestSubstance_Description>
single chemical compound

> <STRUCTURE_ChemicalName_IUPAC>
N,N-dimethylformamide

> <STRUCTURE_SMILES>
CN(C=O)C

> <STRUCTURE_Parent_SMILES>
CN(C=O)C

> <STRUCTURE_InChIS>
InChI=1S/C3H7NO/c1-4(2)3-5/h3H,1-2H3

> <STRUCTURE_InChIKey>
ZMXDDKWLCZADIW-UHFFFAOYSA-N

> <Substance_modify_yyyymmdd>
20080429

> <Coord_Metals>
0

> <Index>
92

> <Canonical_Smiles>
CN(C)C=O

> <Molecular_Weight>
73.09378

> <Frequency>
1

$$$$

  SciTegic          2D

 17 17  0  0  0  0            999 V2000
    2.5973   -1.5031    0.0000 O   0  0
    1.2990   -0.7500    0.0000 C   0  0
    1.2990    0.7500    0.0000 C   0  0
    0.0000    1.5000    0.0000 C   0  0
   -1.2990    0.7500    0.0000 C   0  0
   -1.2990   -0.7500    0.0000 C   0  0
    0.0000   -1.5000    0.0000 C   0  0
   -2.6003    1.4977    0.0000 N   0  0
   -3.6387    0.8962    0.0000 O   0  0
   -2.6024    2.6977    0.0000 O   0  0
    2.5972    1.5031    0.0000 N   0  0
    2.5955    2.7031    0.0000 O   0  0
    3.6375    0.9049    0.0000 O   0  0
    2.5958   -2.5031    0.0000 H   0  0
    0.0000    2.5000    0.0000 H   0  0
   -2.1651   -1.2500    0.0000 H   0  0
    0.0000   -2.5000    0.0000 H   0  0
  1  2  1  0
  2  3  2  0
  2  7  1  0
  3  4  1  0
  3 11  1  0
  4  5  2  0
  5  6  1  0
  5  8  1  0
  6  7  2  0
  8  9  2  0
  8 10  2  0
 11 12  2  0
 11 13  2  0
  1 14  1  0
  4 15  1  0
  6 16  1  0
  7 17  1  0
V    1 0
V    2 1
V    3 2
V    4 3
V    5 4
V    6 5
V    7 6
V    8 7
V    9 8
V   10 9
V   11 10
V   12 11
V   13 12
M  END
> <DSSTox_RID>
66504

> <DSSTox_CID>
523

> <DSSTox_CID_Parent>
523

> <DSSTox_Generic_SID>
20523

> <DSSTox_FileID>
93_TXCST2_v1a

> <STRUCTURE_Formula>
C6H4N2O5

> <STRUCTURE_MolecularWeight>
184.1064

> <STRUCTURE_ChemicalType>
defined organic

> <STRUCTURE_TestedForm_DefinedOrganic>
parent

> <STRUCTURE_Shown>
tested chemical

> <TestSubstance_ChemicalName>
2,4-Dinitrophenol

> <TestSubstance_CASRN>
51-28-5

> <TestSubstance_Description>
single chemical compound

> <STRUCTURE_ChemicalName_IUPAC>
2,4-dinitrophenol

> <STRUCTURE_SMILES>
OC1=C(C=C(C=C1)[N+](=O)[O-])[N+](=O)[O-]

> <STRUCTURE_Parent_SMILES>
OC1=C(C=C(C=C1)[N+](=O)[O-])[N+](=O)[O-]

> <STRUCTURE_InChIS>
InChI=1S/C6H4N2O5/c9-6-2-1-4(7(10)11)3-5(6)8(12)13/h1-3,9H

> <STRUCTURE_InChIKey>
UFBJCMHMOXMLKC-UHFFFAOYSA-N

> <Substance_modify_yyyymmdd>
20080429

> <Coord_Metals>
0

> <Index>
93

> <Canonical_Smiles>
Oc1ccc(cc1N(=O)=O)N(=O)=O

> <Molecular_Weight>
184.10635

> <Frequency>
1

$$$$

  SciTegic          2D

 19 19  0  0  0  0            999 V2000
    2.5988   -1.5004    0.0000 C   0  0
    1.2990   -0.7500    0.0000 C   0  0
    1.2990    0.7500    0.0000 C   0  0
    0.0000    1.5000    0.0000 C   0  0
   -1.2990    0.7500    0.0000 C   0  0
   -1.2990   -0.7500    0.0000 C   0  0
    0.0000   -1.5000    0.0000 C   0  0
   -0.0031   -3.0008    0.0000 N   0  0
   -1.0432   -3.5994    0.0000 O   0  0
    1.0351   -3.6026    0.0000 O   0  0
    2.5972    1.5031    0.0000 N   0  0
    2.5955    2.7031    0.0000 O   0  0
    3.6375    0.9049    0.0000 O   0  0
    3.4651   -1.0010    0.0000 H   0  0
    2.5985   -2.5004    0.0000 H   0  0
    3.4646   -2.0008    0.0000 H   0  0
    0.0000    2.5000    0.0000 H   0  0
   -2.1651    1.2500    0.0000 H   0  0
   -2.1651   -1.2500    0.0000 H   0  0
  1  2  1  0
  2  3  2  0
  2  7  1  0
  3  4  1  0
  3 11  1  0
  4  5  2  0
  5  6  1  0
  6  7  2  0
  7  8  1  0
  8  9  2  0
  8 10  2  0
 11 12  2  0
 11 13  2  0
  1 14  1  0
  1 15  1  0
  1 16  1  0
  4 17  1  0
  5 18  1  0
  6 19  1  0
V    1 0
V    2 1
V    3 2
V    4 3
V    5 4
V    6 5
V    7 6
V    8 7
V    9 8
V   10 9
V   11 10
V   12 11
V   13 12
M  END
> <DSSTox_RID>
66538

> <DSSTox_CID>
528

> <DSSTox_CID_Parent>
528

> <DSSTox_Generic_SID>
20528

> <DSSTox_FileID>
94_TXCST2_v1a

> <STRUCTURE_Formula>
C7H6N2O4

> <STRUCTURE_MolecularWeight>
182.1335

> <STRUCTURE_ChemicalType>
defined organic

> <STRUCTURE_TestedForm_DefinedOrganic>
parent

> <STRUCTURE_Shown>
tested chemical

> <TestSubstance_ChemicalName>
2,6-Dinitrotoluene

> <TestSubstance_CASRN>
606-20-2

> <TestSubstance_Description>
single chemical compound

> <STRUCTURE_ChemicalName_IUPAC>
2-methyl-1,3-dinitrobenzene

> <STRUCTURE_SMILES>
CC1=C(C=CC=C1[N+](=O)[O-])[N+](=O)[O-]

> <STRUCTURE_Parent_SMILES>
CC1=C(C=CC=C1[N+](=O)[O-])[N+](=O)[O-]

> <STRUCTURE_InChIS>
InChI=1S/C7H6N2O4/c1-5-6(8(10)11)3-2-4-7(5)9(12)13/h2-4H,1H3

> <STRUCTURE_InChIKey>
XTRDKALNCIHHNI-UHFFFAOYSA-N

> <Substance_modify_yyyymmdd>
20080429

> <Coord_Metals>
0

> <Index>
94

> <Canonical_Smiles>
Cc1c(cccc1N(=O)=O)N(=O)=O

> <Molecular_Weight>
182.13353

> <Frequency>
1

$$$$

  SciTegic          2D

 19 19  0  0  0  0            999 V2000
    2.5988   -1.5004    0.0000 C   0  0
    1.2990   -0.7500    0.0000 C   0  0
    1.2990    0.7500    0.0000 C   0  0
    0.0000    1.5000    0.0000 C   0  0
   -1.2990    0.7500    0.0000 C   0  0
   -1.2990   -0.7500    0.0000 C   0  0
    0.0000   -1.5000    0.0000 C   0  0
   -2.6003    1.4977    0.0000 N   0  0
   -3.6387    0.8962    0.0000 O   0  0
   -2.6024    2.6977    0.0000 O   0  0
    2.5972    1.5031    0.0000 N   0  0
    2.5955    2.7031    0.0000 O   0  0
    3.6375    0.9049    0.0000 O   0  0
    3.4651   -1.0010    0.0000 H   0  0
    2.5985   -2.5004    0.0000 H   0  0
    3.4646   -2.0008    0.0000 H   0  0
    0.0000    2.5000    0.0000 H   0  0
   -2.1651   -1.2500    0.0000 H   0  0
    0.0000   -2.5000    0.0000 H   0  0
  1  2  1  0
  2  3  2  0
  2  7  1  0
  3  4  1  0
  3 11  1  0
  4  5  2  0
  5  6  1  0
  5  8  1  0
  6  7  2  0
  8  9  2  0
  8 10  2  0
 11 12  2  0
 11 13  2  0
  1 14  1  0
  1 15  1  0
  1 16  1  0
  4 17  1  0
  6 18  1  0
  7 19  1  0
V    1 0
V    2 1
V    3 2
V    4 3
V    5 4
V    6 5
V    7 6
V    8 7
V    9 8
V   10 9
V   11 10
V   12 11
V   13 12
M  END
> <DSSTox_RID>
67057

> <DSSTox_CID>
529

> <DSSTox_CID_Parent>
529

> <DSSTox_Generic_SID>
20529

> <DSSTox_FileID>
95_TXCST2_v1a

> <STRUCTURE_Formula>
C7H6N2O4

> <STRUCTURE_MolecularWeight>
182.1335

> <STRUCTURE_ChemicalType>
defined organic

> <STRUCTURE_TestedForm_DefinedOrganic>
parent

> <STRUCTURE_Shown>
tested chemical

> <TestSubstance_ChemicalName>
2,4-Dinitrotoluene

> <TestSubstance_CASRN>
121-14-2

> <TestSubstance_Description>
single chemical compound

> <STRUCTURE_ChemicalName_IUPAC>
1-methyl-2,4-dinitrobenzene

> <STRUCTURE_SMILES>
CC1=C(C=C(C=C1)[N+](=O)[O-])[N+](=O)[O-]

> <STRUCTURE_Parent_SMILES>
CC1=C(C=C(C=C1)[N+](=O)[O-])[N+](=O)[O-]

> <STRUCTURE_InChIS>
InChI=1S/C7H6N2O4/c1-5-2-3-6(8(10)11)4-7(5)9(12)13/h2-4H,1H3

> <STRUCTURE_InChIKey>
RMBFBMJGBANMMK-UHFFFAOYSA-N

> <Substance_modify_yyyymmdd>
20080429

> <Coord_Metals>
0

> <Index>
95

> <Canonical_Smiles>
Cc1ccc(cc1N(=O)=O)N(=O)=O

> <Molecular_Weight>
182.13353

> <Frequency>
1

$$$$

  SciTegic          2D

 40 41  0  0  0  0            999 V2000
    2.5988   -1.5004    0.0000 C   0  0
    1.2990   -0.7500    0.0000 C   0  0
    1.2990    0.7500    0.0000 C   0  0
    0.0000    1.5000    0.0000 C   0  0
   -1.2990    0.7500    0.0000 C   0  0
   -1.2990   -0.7500    0.0000 C   0  0
    0.0000   -1.5000    0.0000 C   0  0
    3.8990   -0.7507    0.0000 C   0  0
    5.1977   -1.5013    0.0000 C   0  0
    6.4971   -0.7520    0.0000 C   0  0
    6.4979    0.7480    0.0000 C   0  0
    5.1992    1.4987    0.0000 C   0  0
    3.8998    0.7493    0.0000 C   0  0
    2.6015   -3.0012    0.0000 O   0  0
    3.9021   -3.7502    0.0000 C   0  0
    3.9048   -5.2510    0.0000 C   0  0
    5.2054   -5.9999    0.0000 N   0  0
    5.2080   -7.5007    0.0000 C   0  0
    6.5056   -5.2503    0.0000 C   0  0
    1.7332   -2.0012    0.0000 H   0  0
    2.1651    1.2500    0.0000 H   0  0
    0.0000    2.5000    0.0000 H   0  0
   -2.1651    1.2500    0.0000 H   0  0
   -2.1651   -1.2500    0.0000 H   0  0
    0.0000   -2.5000    0.0000 H   0  0
    5.1971   -2.5013    0.0000 H   0  0
    7.3629   -1.2525    0.0000 H   0  0
    7.3642    1.2475    0.0000 H   0  0
    5.1998    2.4987    0.0000 H   0  0
    3.0340    1.2498    0.0000 H   0  0
    3.9008   -2.7502    0.0000 H   0  0
    4.7674   -3.2489    0.0000 H   0  0
    3.9061   -6.2510    0.0000 H   0  0
    3.0395   -5.7523    0.0000 H   0  0
    6.0746   -7.9997    0.0000 H   0  0
    5.2093   -8.5007    0.0000 H   0  0
    4.3428   -8.0020    0.0000 H   0  0
    7.3716   -5.7502    0.0000 H   0  0
    6.5059   -4.2503    0.0000 H   0  0
    7.3717   -4.7504    0.0000 H   0  0
  1  2  1  0
  1  8  1  0
  1 14  1  0
  2  3  2  0
  2  7  1  0
  3  4  1  0
  4  5  2  0
  5  6  1  0
  6  7  2  0
  8  9  2  0
  8 13  1  0
  9 10  1  0
 10 11  2  0
 11 12  1  0
 12 13  2  0
 14 15  1  0
 15 16  1  0
 16 17  1  0
 17 18  1  0
 17 19  1  0
  1 20  1  0
  3 21  1  0
  4 22  1  0
  5 23  1  0
  6 24  1  0
  7 25  1  0
  9 26  1  0
 10 27  1  0
 11 28  1  0
 12 29  1  0
 13 30  1  0
 15 31  1  0
 15 32  1  0
 16 33  1  0
 16 34  1  0
 18 35  1  0
 18 36  1  0
 18 37  1  0
 19 38  1  0
 19 39  1  0
 19 40  1  0
V    1 1
V    2 2
V    3 3
V    4 4
V    5 5
V    6 6
V    7 7
V    8 8
V    9 9
V   10 10
V   11 11
V   12 12
V   13 13
V   14 14
V   15 15
V   16 16
V   17 17
V   18 18
V   19 19
M  END
> <DSSTox_RID>
65929

> <DSSTox_CID>
537

> <DSSTox_CID_Parent>
2949

> <DSSTox_Generic_SID>
20537

> <DSSTox_FileID>
96_TXCST2_v1a

> <STRUCTURE_Formula>
C17H22ClNO

> <STRUCTURE_MolecularWeight>
291.8157

> <STRUCTURE_ChemicalType>
defined organic

> <STRUCTURE_TestedForm_DefinedOrganic>
complex HCl

> <STRUCTURE_Shown>
tested chemical

> <TestSubstance_ChemicalName>
Diphenhydramine hydrochloride

> <TestSubstance_CASRN>
147-24-0

> <TestSubstance_Description>
single chemical compound

> <ChemicalNote>
parent [58-73-1]

> <STRUCTURE_ChemicalName_IUPAC>
2-[(diphenylmethyl)oxy]-N,N-dimethylethanamine hydrochloride

> <STRUCTURE_SMILES>
CN(C)CCOC(C2=CC=CC=C2)C1=CC=CC=C1.Cl

> <STRUCTURE_Parent_SMILES>
CN(C)CCOC(C2=CC=CC=C2)C1=CC=CC=C1

> <STRUCTURE_InChIS>
InChI=1S/C17H21NO.ClH/c1-18(2)13-14-19-17(15-9-5-3-6-10-15)16-11-7-4-8-12-16;/h3-12,17H,13-14H2,1-2H3;1H

> <STRUCTURE_InChIKey>
PCHPORCSPXIHLZ-UHFFFAOYSA-N

> <Substance_modify_yyyymmdd>
20080429

> <Coord_Metals>
0

> <Index>
96

> <Canonical_Smiles>
CN(C)CCOC(c1ccccc1)c2ccccc2

> <Molecular_Weight>
255.35473

> <Frequency>
1

$$$$

  SciTegic          2D

 31 33  0  0  0  0            999 V2000
    4.1030   -3.1257    0.0000 O   0  0
    3.9134   -2.1439    0.0000 C   0  0
    2.5987   -1.5006    0.0000 C   0  0
    1.2990   -0.7500    0.0000 C   0  0
   -0.0002   -1.4997    0.0000 C   0  0
   -1.2990   -0.7494    0.0000 C   0  0
   -1.2987    0.7506    0.0000 C   0  0
    0.0005    1.5003    0.0000 C   0  0
    1.2994    0.7500    0.0000 C   0  0
    2.5956   -3.0018    0.0000 C   0  0
    3.8931   -3.7545    0.0000 C   0  0
    3.8899   -5.2545    0.0000 C   0  0
    2.5893   -6.0018    0.0000 C   0  0
    1.2919   -5.2491    0.0000 C   0  0
    1.2950   -3.7491    0.0000 C   0  0
    2.7022   -0.0406    0.0000 N   0  0
    4.1697    0.2696    0.0000 C   0  0
    4.6590    1.3653    0.0000 O   0  0
    4.9183   -1.0302    0.0000 N   0  0
   -0.0004   -2.4997    0.0000 H   0  0
   -2.1652   -1.2492    0.0000 H   0  0
   -2.1646    1.2508    0.0000 H   0  0
    0.0007    2.5003    0.0000 H   0  0
    2.1655    1.2498    0.0000 H   0  0
    4.7601   -3.2563    0.0000 H   0  0
    4.7549   -5.7563    0.0000 H   0  0
    2.5872   -7.0018    0.0000 H   0  0
    0.4248   -5.7473    0.0000 H   0  0
    0.4300   -3.2473    0.0000 H   0  0
    1.9481    0.6162    0.0000 H   0  0
    5.9127   -1.1359    0.0000 H   0  0
  1  2  2  0
  2  3  1  0
  2 19  1  0
  3  4  1  0
  3 10  1  0
  3 16  1  0
  4  5  2  0
  4  9  1  0
  5  6  1  0
  6  7  2  0
  7  8  1  0
  8  9  2  0
 10 11  2  0
 10 15  1  0
 11 12  1  0
 12 13  2  0
 13 14  1  0
 14 15  2  0
 16 17  1  0
 17 18  2  0
 17 19  1  0
  5 20  1  0
  6 21  1  0
  7 22  1  0
  8 23  1  0
  9 24  1  0
 11 25  1  0
 12 26  1  0
 13 27  1  0
 14 28  1  0
 15 29  1  0
 16 30  1  0
 19 31  1  0
V    1 0
V    2 1
V    3 2
V    4 3
V    5 4
V    6 5
V    7 6
V    8 7
V    9 8
V   10 9
V   11 10
V   12 11
V   13 12
V   14 13
V   15 14
V   16 15
V   17 16
V   18 17
V   19 18
M  END
> <DSSTox_RID>
65420

> <DSSTox_CID>
541

> <DSSTox_CID_Parent>
541

> <DSSTox_Generic_SID>
20541

> <DSSTox_FileID>
97_TXCST2_v1a

> <STRUCTURE_Formula>
C15H12N2O2

> <STRUCTURE_MolecularWeight>
252.268

> <STRUCTURE_ChemicalType>
defined organic

> <STRUCTURE_TestedForm_DefinedOrganic>
parent

> <STRUCTURE_Shown>
tested chemical

> <TestSubstance_ChemicalName>
5,5-Diphenylhydantoin

> <TestSubstance_CASRN>
57-41-0

> <TestSubstance_Description>
single chemical compound

> <STRUCTURE_ChemicalName_IUPAC>
5,5-diphenylimidazolidine-2,4-dione

> <STRUCTURE_SMILES>
O=C1C(C2=CC=CC=C2)(C3=CC=CC=C3)NC(=O)N1

> <STRUCTURE_Parent_SMILES>
O=C1C(C2=CC=CC=C2)(C3=CC=CC=C3)NC(=O)N1

> <STRUCTURE_InChIS>
InChI=1S/C15H12N2O2/c18-13-15(17-14(19)16-13,11-7-3-1-4-8-11)12-9-5-2-6-10-12/h1-10H,(H2,16,17,18,19)

> <STRUCTURE_InChIKey>
CXOFVDLJLONNDW-UHFFFAOYSA-N

> <Substance_modify_yyyymmdd>
20080429

> <Coord_Metals>
0

> <Index>
97

> <Canonical_Smiles>
O=C1NC(=O)C(N1)(c2ccccc2)c3ccccc3

> <Molecular_Weight>
252.26797

> <Frequency>
1

$$$$

  SciTegic          2D

 25 27  0  0  0  0            999 V2000
   -3.0700    0.5700    0.0000 O   0  0
   -4.0000   -0.4300    0.0000 S   0  0
   -1.5200    0.5700    0.0000 C   0  0
   -3.1500   -1.4900    0.0000 O   0  0
   -0.5300    0.0000    0.0000 C   0  0
   -0.9400   -0.8200    0.0000 C   0  0
   -1.6300   -1.4900    0.0000 C   0  0
   -5.1992   -0.3861    0.0000 O   0  0
    1.2100    0.5700    0.0000 C   0  0
    0.8000    0.0000    0.0000 C   0  0
    2.6900   -0.2700    0.0000 C   0  0
    2.3100   -0.9100    0.0000 C   0  0
    0.9700    2.0400    0.0000 C   0  0
    3.8499    0.0378    0.0000 Cl  0  0
    2.6026   -2.0738    0.0000 Cl  0  0
    1.0904   -0.6240    0.0000 Cl  0  0
    0.7388   -1.1984    0.0000 Cl  0  0
   -0.0785    2.6236    0.0000 Cl  0  0
    1.9692    2.7046    0.0000 Cl  0  0
   -0.5429    0.7830    0.0000 H   0  0
   -2.2604    1.2421    0.0000 H   0  0
   -1.4428   -0.4084    0.0000 H   0  0
   -0.3708   -1.6422    0.0000 H   0  0
   -2.0389   -0.5774    0.0000 H   0  0
   -2.2725   -2.2563    0.0000 H   0  0
  1  2  1  0
  1  3  1  0
  2  4  1  0
  2  8  2  0
  3  5  1  0
  4  7  1  0
  5  6  1  0
  5  9  1  0
  6  7  1  0
  6 10  1  0
  9 11  1  0
  9 13  1  0
  9 16  1  0
 10 12  1  0
 10 13  1  0
 10 17  1  0
 11 12  2  0
 11 14  1  0
 12 15  1  0
 13 18  1  0
 13 19  1  0
  3 20  1  0
  3 21  1  0
  5 22  1  0
  6 23  1  0
  7 24  1  0
  7 25  1  0
V    1 0
V    2 1
V    3 2
V    4 3
V    5 4
V    6 5
V    7 6
V    8 7
V    9 8
V   10 9
V   11 10
V   12 11
V   13 12
V   14 13
V   15 14
V   16 15
V   17 16
V   18 17
V   19 18
M  END
> <DSSTox_RID>
67066

> <DSSTox_CID>
560

> <DSSTox_CID_Parent>
560

> <DSSTox_Generic_SID>
20560

> <DSSTox_FileID>
98_TXCST2_v1a

> <STRUCTURE_Formula>
C9H6Cl6O3S

> <STRUCTURE_MolecularWeight>
406.9251

> <STRUCTURE_ChemicalType>
defined organic

> <STRUCTURE_TestedForm_DefinedOrganic>
parent

> <STRUCTURE_Shown>
tested chemical

> <TestSubstance_ChemicalName>
Endosulfan

> <TestSubstance_CASRN>
115-29-7

> <TestSubstance_Description>
single chemical compound

> <ChemicalNote>
mixture of alpha- [959-98-8] and beta-endosulfan [33213-65-9]; structure shown without stereochem

> <Source_ChemicalNote>
tested chemical contained 0.06% water (0.01 moles H2O)

> <STRUCTURE_ChemicalName_IUPAC>
6,7,8,9,10,10-hexachloro-1,5,5a,6,9,9a-hexahydro-6,9-methano-2,4,3-benzodioxathiepine 3-oxide

> <STRUCTURE_SMILES>
O=S1OCC(C3(Cl)C(Cl)=C(Cl)C(Cl)2C(Cl)3Cl)C2CO1

> <STRUCTURE_Parent_SMILES>
O=S1OCC(C3(Cl)C(Cl)=C(Cl)C(Cl)2C(Cl)3Cl)C2CO1

> <STRUCTURE_InChIS>
InChI=1S/C9H6Cl6O3S/c10-5-6(11)8(13)4-2-18-19(16)17-1-3(4)7(5,12)9(8,14)15/h3-4H,1-2H2

> <STRUCTURE_InChIKey>
RDYMFSUJUZBWLH-UHFFFAOYSA-N

> <Substance_modify_yyyymmdd>
20080429

> <Coord_Metals>
0

> <Index>
98

> <Canonical_Smiles>
ClC1=C(Cl)C2(Cl)C3COS(=O)OCC3C1(Cl)C2(Cl)Cl

> <Molecular_Weight>
406.92513

> <Frequency>
1

$$$$

  SciTegic          2D

 44 47  0  0  0  0            999 V2000
    2.0440    1.7885    0.0000 C   0  0
    2.0440    0.3467    0.0000 C   0  0
    0.8030   -0.3650    0.0000 C   0  0
   -0.4380    0.3285    0.0000 C   0  0
   -1.6790   -0.3832    0.0000 C   0  0
   -1.6790   -1.8250    0.0000 C   0  0
    0.8030    2.5185    0.0000 C   0  0
   -0.4562    1.7885    0.0000 C   0  0
    0.8212   -1.8067    0.0000 C   0  0
    4.5625    0.3285    0.0000 C   0  0
   -2.9565    0.3102    0.0000 C   0  0
    3.3032    2.5367    0.0000 C   0  0
   -0.4197   -2.5550    0.0000 C   0  0
   -2.9382   -2.5732    0.0000 C   0  0
    4.5625    1.8067    0.0000 C   0  0
   -4.1792   -1.8432    0.0000 C   0  0
   -4.1792   -0.4015    0.0000 C   0  0
    2.0418    3.2897    0.0000 C   0  0
    4.5993    3.2532    0.0000 O   0  0
   -5.4839   -2.5865    0.0000 O   0  0
    2.2979   -0.6205    0.0000 H   0  0
    1.6715   -0.8608    0.0000 H   0  0
   -1.3064    0.8243    0.0000 H   0  0
    0.7766    1.5188    0.0000 H   0  0
   -0.0728    3.0012    0.0000 H   0  0
   -1.3067    1.2625    0.0000 H   0  0
   -0.4404    2.7884    0.0000 H   0  0
   -0.0639   -1.3415    0.0000 H   0  0
    0.8133   -2.8067    0.0000 H   0  0
    4.2971   -0.6356    0.0000 H   0  0
    5.5286    0.5867    0.0000 H   0  0
   -2.9714    1.3101    0.0000 H   0  0
    3.3325    1.5372    0.0000 H   0  0
    0.4615   -3.0276    0.0000 H   0  0
   -1.2927   -3.0428    0.0000 H   0  0
   -2.9360   -3.5732    0.0000 H   0  0
    4.5397    2.8065    0.0000 H   0  0
    5.4160    1.2857    0.0000 H   0  0
   -5.0461    0.0970    0.0000 H   0  0
    2.9068    3.7916    0.0000 H   0  0
    1.1749    3.7880    0.0000 H   0  0
    2.0398    4.2897    0.0000 H   0  0
    5.4682    2.7582    0.0000 H   0  0
   -6.3473   -2.0821    0.0000 H   0  0
  1  2  1  0
  1  7  1  0
  1 12  1  0
  1 18  1  0
  2  3  1  0
  2 10  1  0
  3  9  1  0
  3  4  1  0
  4  8  1  0
  4  5  1  0
  5  6  1  0
  5 11  2  0
  6 14  2  0
  6 13  1  0
  7  8  1  0
  9 13  1  0
 10 15  1  0
 11 17  1  0
 12 15  1  0
 12 19  1  0
 14 16  1  0
 16 17  2  0
 16 20  1  0
  2 21  1  0
  3 22  1  0
  4 23  1  0
  7 24  1  0
  7 25  1  0
  8 26  1  0
  8 27  1  0
  9 28  1  0
  9 29  1  0
 10 30  1  0
 10 31  1  0
 11 32  1  0
 12 33  1  0
 13 34  1  0
 13 35  1  0
 14 36  1  0
 15 37  1  0
 15 38  1  0
 17 39  1  0
 18 40  1  0
 18 41  1  0
 18 42  1  0
 19 43  1  0
 20 44  1  0
V    1 0
V    2 1
V    3 2
V    4 3
V    5 4
V    6 5
V    7 6
V    8 7
V    9 8
V   10 9
V   11 10
V   12 11
V   13 12
V   14 13
V   15 14
V   16 15
V   17 16
V   18 17
V   19 18
V   20 19
M  END
> <DSSTox_RID>
65480

> <DSSTox_CID>
573

> <DSSTox_CID_Parent>
573

> <DSSTox_Generic_SID>
20573

> <DSSTox_FileID>
101_TXCST2_v1a

> <STRUCTURE_Formula>
C18H24O2

> <STRUCTURE_MolecularWeight>
272.382

> <STRUCTURE_ChemicalType>
defined organic

> <STRUCTURE_TestedForm_DefinedOrganic>
parent

> <STRUCTURE_Shown>
tested chemical

> <TestSubstance_ChemicalName>
beta-Estradiol

> <TestSubstance_CASRN>
50-28-2

> <TestSubstance_Description>
single chemical compound

> <ChemicalNote>
stereochem

> <STRUCTURE_ChemicalName_IUPAC>
(17beta)-estra-1(10),2,4-triene-3,17-diol

> <STRUCTURE_SMILES>
Oc3cc4CC[C@@H]1[C@H](CC[C@]2(C)[C@@H](O)CC[C@@H]12)c4cc3

> <STRUCTURE_Parent_SMILES>
Oc3cc4CC[C@@H]1[C@H](CC[C@]2(C)[C@@H](O)CC[C@@H]12)c4cc3

> <STRUCTURE_InChIS>
InChI=1S/C18H24O2/c1-18-9-8-14-13-5-3-12(19)10-11(13)2-4-15(14)16(18)6-7-17(18)20/h3,5,10,14-17,19-20H,2,4,6-9H2,1H3/t14-,15-,16+,17+,18+/m1/s1

> <STRUCTURE_InChIKey>
VOXZDWNPVJITMN-ZBRFXRBCSA-N

> <Substance_modify_yyyymmdd>
20080429

> <Coord_Metals>
0

> <Index>
101

> <Canonical_Smiles>
CC12CCC3C(CCc4cc(O)ccc34)C1CCC2O

> <Molecular_Weight>
272.38196

> <Frequency>
1

$$$$

  SciTegic          2D

 46 49  0  0  0  0            999 V2000
    2.0440    1.7885    0.0000 C   0  0
    2.0440    0.3467    0.0000 C   0  0
    0.8030   -0.3650    0.0000 C   0  0
   -0.4380    0.3285    0.0000 C   0  0
   -1.6790   -0.3832    0.0000 C   0  0
    3.3032    2.5367    0.0000 C   0  0
   -1.6790   -1.8250    0.0000 C   0  0
    2.0003    3.2404    0.0000 C   0  0
    0.8030    2.5185    0.0000 C   0  0
   -0.4562    1.7885    0.0000 C   0  0
    4.5625    0.3285    0.0000 C   0  0
    0.8212   -1.8067    0.0000 C   0  0
    0.6973    3.9850    0.0000 C   0  0
   -2.9565    0.3102    0.0000 C   0  0
   -0.4197   -2.5550    0.0000 C   0  0
    4.5625    1.8067    0.0000 C   0  0
   -2.9382   -2.5732    0.0000 C   0  0
   -4.1792   -1.8432    0.0000 C   0  0
    4.5987    3.2547    0.0000 O   0  0
   -4.1792   -0.4015    0.0000 C   0  0
    2.0418    3.2897    0.0000 C   0  0
   -5.4839   -2.5865    0.0000 O   0  0
    2.2979   -0.6205    0.0000 H   0  0
    1.6715   -0.8608    0.0000 H   0  0
   -1.3064    0.8243    0.0000 H   0  0
    0.7766    1.5188    0.0000 H   0  0
   -0.0728    3.0012    0.0000 H   0  0
   -1.3067    1.2625    0.0000 H   0  0
   -0.4404    2.7884    0.0000 H   0  0
    4.2971   -0.6356    0.0000 H   0  0
    5.5286    0.5867    0.0000 H   0  0
   -0.0639   -1.3415    0.0000 H   0  0
    0.8133   -2.8067    0.0000 H   0  0
   -0.1710    4.4812    0.0000 H   0  0
   -2.9714    1.3101    0.0000 H   0  0
    0.4615   -3.0276    0.0000 H   0  0
   -1.2927   -3.0428    0.0000 H   0  0
    5.4159    1.2856    0.0000 H   0  0
    3.7080    1.2872    0.0000 H   0  0
   -2.9360   -3.5732    0.0000 H   0  0
    5.4682    2.7609    0.0000 H   0  0
   -5.0461    0.0970    0.0000 H   0  0
    1.1754    3.7889    0.0000 H   0  0
    2.9072    3.7907    0.0000 H   0  0
    2.0408    4.2897    0.0000 H   0  0
   -6.3473   -2.0821    0.0000 H   0  0
  1  2  1  0
  1  6  1  0
  1  9  1  0
  1 21  1  0
  2  3  1  0
  2 11  1  0
  3 12  1  0
  3  4  1  0
  4 10  1  0
  4  5  1  0
  5  7  1  0
  5 14  2  0
  6  8  1  0
  6 16  1  0
  6 19  1  0
  7 17  2  0
  7 15  1  0
  8 13  3  0
  9 10  1  0
 11 16  1  0
 12 15  1  0
 14 20  1  0
 17 18  1  0
 18 20  2  0
 18 22  1  0
  2 23  1  0
  3 24  1  0
  4 25  1  0
  9 26  1  0
  9 27  1  0
 10 28  1  0
 10 29  1  0
 11 30  1  0
 11 31  1  0
 12 32  1  0
 12 33  1  0
 13 34  1  0
 14 35  1  0
 15 36  1  0
 15 37  1  0
 16 38  1  0
 16 39  1  0
 17 40  1  0
 19 41  1  0
 20 42  1  0
 21 43  1  0
 21 44  1  0
 21 45  1  0
 22 46  1  0
V    1 0
V    2 1
V    3 2
V    4 3
V    5 4
V    6 5
V    7 6
V    8 7
V    9 8
V   10 9
V   11 10
V   12 11
V   13 12
V   14 13
V   15 14
V   16 15
V   17 16
V   18 17
V   19 18
V   20 19
V   21 20
V   22 21
M  END
> <DSSTox_RID>
59944

> <DSSTox_CID>
576

> <DSSTox_CID_Parent>
576

> <DSSTox_Generic_SID>
20576

> <DSSTox_FileID>
102_TXCST2_v1a

> <STRUCTURE_Formula>
C20H24O2

> <STRUCTURE_MolecularWeight>
296.4034

> <STRUCTURE_ChemicalType>
defined organic

> <STRUCTURE_TestedForm_DefinedOrganic>
parent

> <STRUCTURE_Shown>
tested chemical

> <TestSubstance_ChemicalName>
17alpha-Ethynylestradiol

> <TestSubstance_CASRN>
57-63-6

> <TestSubstance_Description>
single chemical compound

> <ChemicalNote>
stereochem

> <STRUCTURE_ChemicalName_IUPAC>
(17beta)-17-ethynylestra-1(10),2,4-triene-3,17-diol

> <STRUCTURE_SMILES>
[H][C@]14[C@@]([C@]3([H])CC[C@@](O)(C#C)[C@](C)3CC4)([H])CCC2=CC(O)=CC=C12

> <STRUCTURE_Parent_SMILES>
[H][C@]14[C@@]([C@]3([H])CC[C@@](O)(C#C)[C@](C)3CC4)([H])CCC2=CC(O)=CC=C12

> <STRUCTURE_InChIS>
InChI=1S/C20H24O2/c1-3-20(22)11-9-18-17-6-4-13-12-14(21)5-7-15(13)16(17)8-10-19(18,20)2/h1,5,7,12,16-18,21-22H,4,6,8-11H2,2H3/t16-,17-,18+,19+,20+/m1/s1

> <STRUCTURE_InChIKey>
BFPYWIDHMRZLRN-SLHNCBLASA-N

> <Substance_modify_yyyymmdd>
20080429

> <Coord_Metals>
0

> <Index>
102

> <Canonical_Smiles>
CC12CCC3C(CCc4cc(O)ccc34)C1CCC2(O)C#C

> <Molecular_Weight>
296.40336

> <Frequency>
1

$$$$

  SciTegic          2D

 35 36  0  0  0  0            999 V2000
   -1.2876    2.9981    0.0000 C   0  0
   -1.2964    1.4973    0.0000 C   0  0
   -2.6111    0.7486    0.0000 C   0  0
   -2.6111   -0.7486    0.0000 C   0  0
   -1.2964   -1.4973    0.0000 N   0  0
    0.0000   -0.7486    0.0000 C   0  0
    0.0000    0.7486    0.0000 C   0  0
    1.2964    1.4973    0.0000 C   0  0
    2.5929    0.7486    0.0000 C   0  0
    2.5929   -0.7486    0.0000 C   0  0
    1.2964   -1.4973    0.0000 C   0  0
    3.8942    1.4964    0.0000 O   0  0
    5.1929    0.7441    0.0000 C   0  0
    6.4942    1.4919    0.0000 C   0  0
   -2.5706   -2.2287    0.0000 C   0  0
   -3.8777    0.0190    0.0000 C   0  0
   -2.1503    3.5038    0.0000 H   0  0
   -0.4185    3.4927    0.0000 H   0  0
   -1.2812    3.9981    0.0000 H   0  0
   -3.4756    1.2512    0.0000 H   0  0
   -1.2934   -2.4973    0.0000 H   0  0
    1.2964    2.4973    0.0000 H   0  0
    3.4589   -1.2486    0.0000 H   0  0
    1.2964   -2.4973    0.0000 H   0  0
    5.1911   -0.2559    0.0000 H   0  0
    4.3260    0.2455    0.0000 H   0  0
    7.3595    0.9906    0.0000 H   0  0
    6.4959    2.4919    0.0000 H   0  0
    7.3610    1.9905    0.0000 H   0  0
   -1.7033   -2.7265    0.0000 H   0  0
   -2.5679   -3.2287    0.0000 H   0  0
   -3.4352   -2.7312    0.0000 H   0  0
   -4.7426   -0.4830    0.0000 H   0  0
   -4.7449    0.5169    0.0000 H   0  0
   -3.8802    1.0190    0.0000 H   0  0
  1  2  1  0
  2  3  2  0
  2  7  1  0
  3  4  1  0
  4  5  1  0
  4 15  1  0
  4 16  1  0
  5  6  1  0
  6  7  2  0
  6 11  1  0
  7  8  1  0
  8  9  2  0
  9 10  1  0
  9 12  1  0
 10 11  2  0
 12 13  1  0
 13 14  1  0
  1 17  1  0
  1 18  1  0
  1 19  1  0
  3 20  1  0
  5 21  1  0
  8 22  1  0
 10 23  1  0
 11 24  1  0
 13 25  1  0
 13 26  1  0
 14 27  1  0
 14 28  1  0
 14 29  1  0
 15 30  1  0
 15 31  1  0
 15 32  1  0
 16 33  1  0
 16 34  1  0
 16 35  1  0
V    1 0
V    2 1
V    3 2
V    4 3
V    5 4
V    6 5
V    7 6
V    8 7
V    9 8
V   10 9
V   11 10
V   12 11
V   13 12
V   14 13
V   15 14
V   16 15
M  END
> <DSSTox_RID>
66690

> <DSSTox_CID>
582

> <DSSTox_CID_Parent>
582

> <DSSTox_Generic_SID>
20582

> <DSSTox_FileID>
103_TXCST2_v1a

> <STRUCTURE_Formula>
C14H19NO

> <STRUCTURE_MolecularWeight>
217.3068

> <STRUCTURE_ChemicalType>
defined organic

> <STRUCTURE_TestedForm_DefinedOrganic>
parent

> <STRUCTURE_Shown>
tested chemical

> <TestSubstance_ChemicalName>
Ethoxyquin

> <TestSubstance_CASRN>
91-53-2

> <TestSubstance_Description>
single chemical compound

> <STRUCTURE_ChemicalName_IUPAC>
6-(ethyloxy)-2,2,4-trimethyl-1,2-dihydroquinoline

> <STRUCTURE_SMILES>
CC1=CC(NC2=C1C=C(C=C2)OCC)(C)C

> <STRUCTURE_Parent_SMILES>
CC1=CC(NC2=C1C=C(C=C2)OCC)(C)C

> <STRUCTURE_InChIS>
InChI=1S/C14H19NO/c1-5-16-11-6-7-13-12(8-11)10(2)9-14(3,4)15-13/h6-9,15H,5H2,1-4H3

> <STRUCTURE_InChIKey>
DECIPOUIJURFOJ-UHFFFAOYSA-N

> <Substance_modify_yyyymmdd>
20080429

> <Coord_Metals>
0

> <Index>
103

> <Canonical_Smiles>
CCOc1ccc2NC(C)(C)C=C(C)c2c1

> <Molecular_Weight>
217.30675

> <Frequency>
1

$$$$

  SciTegic          2D

 10  9  0  0  0  0            999 V2000
    3.9000    0.7500    0.0000 C   0  0
    2.6000    0.0000    0.0000 C   0  0
    1.3000    0.7500    0.0000 O   0  0
    5.2000    0.0000    0.0000 O   0  0
    3.9000    1.7500    0.0000 H   0  0
    4.7659    1.2501    0.0000 H   0  0
    2.6000   -1.0000    0.0000 H   0  0
    1.7340   -0.5001    0.0000 H   0  0
    0.4338    0.2503    0.0000 H   0  0
    6.0661    0.4997    0.0000 H   0  0
  1  2  1  0
  1  4  1  0
  2  3  1  0
  1  5  1  0
  1  6  1  0
  2  7  1  0
  2  8  1  0
  3  9  1  0
  4 10  1  0
V    1 0
V    2 1
V    3 2
V    4 3
M  END
> <DSSTox_RID>
65476

> <DSSTox_CID>
597

> <DSSTox_CID_Parent>
597

> <DSSTox_Generic_SID>
20597

> <DSSTox_FileID>
104_TXCST2_v1a

> <STRUCTURE_Formula>
C2H6O2

> <STRUCTURE_MolecularWeight>
62.0678

> <STRUCTURE_ChemicalType>
defined organic

> <STRUCTURE_TestedForm_DefinedOrganic>
parent

> <STRUCTURE_Shown>
tested chemical

> <TestSubstance_ChemicalName>
Ethylene glycol

> <TestSubstance_CASRN>
107-21-1

> <TestSubstance_Description>
single chemical compound

> <Source_ChemicalNote>
tested chemical contained 0.001% water

> <STRUCTURE_ChemicalName_IUPAC>
ethylene glycol

> <STRUCTURE_SMILES>
C(CO)O

> <STRUCTURE_Parent_SMILES>
C(CO)O

> <STRUCTURE_InChIS>
InChI=1S/C2H6O2/c3-1-2-4/h3-4H,1-2H2

> <STRUCTURE_InChIKey>
LYCAIKOWRPUZTN-UHFFFAOYSA-N

> <Substance_modify_yyyymmdd>
20080429

> <Coord_Metals>
0

> <Index>
104

> <Canonical_Smiles>
OCCO

> <Molecular_Weight>
62.06783

> <Frequency>
1

$$$$

  SciTegic          2D

 12 12  0  0  0  0            999 V2000
    1.4553   -2.0031    0.0000 S   0  0
    0.7500   -1.0323    0.0000 C   0  0
    1.2135    0.3943    0.0000 N   0  0
    0.0000    1.2760    0.0000 C   0  0
   -1.2135    0.3943    0.0000 C   0  0
   -0.7500   -1.0323    0.0000 N   0  0
    2.1646    0.7033    0.0000 H   0  0
   -0.8734    1.7629    0.0000 H   0  0
    0.8733    1.7631    0.0000 H   0  0
   -1.4068    1.3754    0.0000 H   0  0
   -1.9467   -0.2858    0.0000 H   0  0
   -1.3378   -1.8413    0.0000 H   0  0
  1  2  2  0
  2  3  1  0
  2  6  1  0
  3  4  1  0
  4  5  1  0
  5  6  1  0
  3  7  1  0
  4  8  1  0
  4  9  1  0
  5 10  1  0
  5 11  1  0
  6 12  1  0
V    1 0
V    2 1
V    3 2
V    4 3
V    5 4
V    6 5
M  END
> <DSSTox_RID>
65576

> <DSSTox_CID>
601

> <DSSTox_CID_Parent>
601

> <DSSTox_Generic_SID>
20601

> <DSSTox_FileID>
105_TXCST2_v1a

> <STRUCTURE_Formula>
C3H6N2S

> <STRUCTURE_MolecularWeight>
102.1581

> <STRUCTURE_ChemicalType>
defined organic

> <STRUCTURE_TestedForm_DefinedOrganic>
parent

> <STRUCTURE_Shown>
tested chemical

> <TestSubstance_ChemicalName>
Ethylenethiourea

> <TestSubstance_CASRN>
96-45-7

> <TestSubstance_Description>
single chemical compound

> <STRUCTURE_ChemicalName_IUPAC>
imidazolidine-2-thione

> <STRUCTURE_SMILES>
S=C1NCCN1

> <STRUCTURE_Parent_SMILES>
S=C1NCCN1

> <STRUCTURE_InChIS>
InChI=1S/C3H6N2S/c6-3-4-1-2-5-3/h1-2H2,(H2,4,5,6)

> <STRUCTURE_InChIKey>
PDQAZBWRQCGBEV-UHFFFAOYSA-N

> <Substance_modify_yyyymmdd>
20080429

> <Coord_Metals>
0

> <Index>
105

> <Canonical_Smiles>
S=C1NCCN1

> <Molecular_Weight>
102.15814

> <Frequency>
1

$$$$

  SciTegic          2D

 22 24  0  0  0  0            999 V2000
   -1.5349    0.5440    0.0000 O   0  0
   -2.8950   -0.2914    0.0000 C   0  0
   -2.8950    1.2046    0.0000 C   0  0
   -4.1773    1.9429    0.0000 C   0  0
   -5.4597    1.1658    0.0000 C   0  0
   -5.4597   -0.2914    0.0000 C   0  0
   -4.1773   -1.0298    0.0000 C   0  0
   -6.9112   -0.0010    0.0000 C   0  0
   -8.2386   -0.3959    0.0000 C   0  0
   -7.1004   -1.3728    0.0000 O   0  0
   -3.4062    0.5680    0.0000 H   0  0
   -2.4268    2.0882    0.0000 H   0  0
   -3.3056    2.4329    0.0000 H   0  0
   -5.0598    2.4133    0.0000 H   0  0
   -6.3076    0.6356    0.0000 H   0  0
   -4.6006    0.6539    0.0000 H   0  0
   -5.4356   -1.2912    0.0000 H   0  0
   -3.2997   -1.5091    0.0000 H   0  0
   -4.1537   -0.0300    0.0000 H   0  0
   -7.2537    0.9385    0.0000 H   0  0
   -8.5592    0.5513    0.0000 H   0  0
   -8.9179   -1.1297    0.0000 H   0  0
  1  2  1  0
  1  3  1  0
  2  3  1  0
  2  7  1  0
  3  4  1  0
  4  5  1  0
  5  6  1  0
  6  7  1  0
  6  8  1  0
  8  9  1  0
  8 10  1  0
  9 10  1  0
  2 11  1  0
  3 12  1  0
  4 13  1  0
  4 14  1  0
  5 15  1  0
  5 16  1  0
  6 17  1  0
  7 18  1  0
  7 19  1  0
  8 20  1  0
  9 21  1  0
  9 22  1  0
V    1 0
V    2 1
V    3 2
V    4 3
V    5 4
V    6 5
V    7 6
V    8 7
V    9 8
V   10 9
M  END
> <DSSTox_RID>
59586

> <DSSTox_CID>
604

> <DSSTox_CID_Parent>
604

> <DSSTox_Generic_SID>
20604

> <DSSTox_FileID>
106_TXCST2_v1a

> <STRUCTURE_Formula>
C8H12O2

> <STRUCTURE_MolecularWeight>
140.1797

> <STRUCTURE_ChemicalType>
defined organic

> <STRUCTURE_TestedForm_DefinedOrganic>
parent

> <STRUCTURE_Shown>
tested chemical

> <TestSubstance_ChemicalName>
4-Vinyl-1-cyclohexene dioxide

> <TestSubstance_CASRN>
106-87-6

> <TestSubstance_Description>
single chemical compound

> <Source_ChemicalNote>
tested chemical was a mixture of isomers

> <STRUCTURE_ChemicalName_IUPAC>
3-oxiran-2-yl-7-oxabicyclo[4.1.0]heptane

> <STRUCTURE_SMILES>
O1C2C1CCC(C2)C1CO1

> <STRUCTURE_Parent_SMILES>
O1C2C1CCC(C2)C1CO1

> <STRUCTURE_InChIS>
InChI=1S/C8H12O2/c1-2-6-7(10-6)3-5(1)8-4-9-8/h5-8H,1-4H2

> <STRUCTURE_InChIKey>
OECTYKWYRCHAKR-UHFFFAOYSA-N

> <Substance_modify_yyyymmdd>
20080429

> <Coord_Metals>
0

> <Index>
106

> <Canonical_Smiles>
C1CC2OC2CC1C3CO3

> <Molecular_Weight>
140.17967

> <Frequency>
1

$$$$

  SciTegic          2D

 27 26  0  0  0  0            999 V2000
    1.3000    0.7500    0.0000 C   0  0
    2.6000    0.0000    0.0000 C   0  0
    3.9000    0.7500    0.0000 C   0  0
    5.2000    0.0000    0.0000 C   0  0
    6.5000    0.7500    0.0000 C   0  0
    7.7999    0.0000    0.0000 C   0  0
    6.5000    2.2507    0.0000 C   0  0
    7.7992    3.0020    0.0000 C   0  0
    9.0999    0.7500    0.0000 O   0  0
    0.4338    0.2503    0.0000 H   0  0
    0.4340    1.2501    0.0000 H   0  0
    1.3000    1.7500    0.0000 H   0  0
    1.7340   -0.5001    0.0000 H   0  0
    2.6000   -1.0000    0.0000 H   0  0
    3.0340    1.2501    0.0000 H   0  0
    3.9000    1.7500    0.0000 H   0  0
    4.3340   -0.5001    0.0000 H   0  0
    5.2000   -1.0000    0.0000 H   0  0
    6.5000   -0.2500    0.0000 H   0  0
    7.7999   -1.0000    0.0000 H   0  0
    8.6659   -0.5001    0.0000 H   0  0
    5.6338    2.7505    0.0000 H   0  0
    6.4995    3.2507    0.0000 H   0  0
    7.7992    4.0020    0.0000 H   0  0
    8.6654    2.5023    0.0000 H   0  0
    8.6652    3.5021    0.0000 H   0  0
    9.9661    0.2503    0.0000 H   0  0
  1  2  1  0
  2  3  1  0
  3  4  1  0
  4  5  1  0
  5  6  1  0
  5  7  1  0
  6  9  1  0
  7  8  1  0
  1 10  1  0
  1 11  1  0
  1 12  1  0
  2 13  1  0
  2 14  1  0
  3 15  1  0
  3 16  1  0
  4 17  1  0
  4 18  1  0
  5 19  1  0
  6 20  1  0
  6 21  1  0
  7 22  1  0
  7 23  1  0
  8 24  1  0
  8 25  1  0
  8 26  1  0
  9 27  1  0
V    1 0
V    2 1
V    3 2
V    4 3
V    5 4
V    6 5
V    7 6
V    8 7
V    9 8
M  END
> <DSSTox_RID>
66658

> <DSSTox_CID>
605

> <DSSTox_CID_Parent>
605

> <DSSTox_Generic_SID>
20605

> <DSSTox_FileID>
107_TXCST2_v1a

> <STRUCTURE_Formula>
C8H18O

> <STRUCTURE_MolecularWeight>
130.2279

> <STRUCTURE_ChemicalType>
defined organic

> <STRUCTURE_TestedForm_DefinedOrganic>
parent

> <STRUCTURE_Shown>
tested chemical

> <TestSubstance_ChemicalName>
2-Ethyl-1-hexanol

> <TestSubstance_CASRN>
104-76-7

> <TestSubstance_Description>
single chemical compound

> <STRUCTURE_ChemicalName_IUPAC>
2-ethylhexan-1-ol

> <STRUCTURE_SMILES>
CCC(CCCC)CO

> <STRUCTURE_Parent_SMILES>
CCC(CCCC)CO

> <STRUCTURE_InChIS>
InChI=1S/C8H18O/c1-3-5-6-8(4-2)7-9/h8-9H,3-7H2,1-2H3

> <STRUCTURE_InChIKey>
YIWUKEYIRIRTPP-UHFFFAOYSA-N

> <Substance_modify_yyyymmdd>
20080429

> <Coord_Metals>
0

> <Index>
107

> <Canonical_Smiles>
CCCCC(CC)CO

> <Molecular_Weight>
130.22792

> <Frequency>
1

$$$$

  SciTegic          2D

 68 67  0  0  0  0            999 V2000
   19.5006   -2.2520    0.0000 C   0  0
   20.7998   -1.5007    0.0000 C   0  0
   20.7998    0.0000    0.0000 C   0  0
   19.4998    0.7500    0.0000 C   0  0
   18.1999    0.0000    0.0000 O   0  0
   16.8999    0.7500    0.0000 C   0  0
   16.8999    1.9500    0.0000 O   0  0
   15.5999    0.0000    0.0000 C   0  0
   14.2999    0.7500    0.0000 C   0  0
   12.9999    0.0000    0.0000 C   0  0
   11.6999    0.7500    0.0000 C   0  0
   10.3999    0.0000    0.0000 C   0  0
   10.3999   -1.2000    0.0000 O   0  0
    9.0999    0.7500    0.0000 O   0  0
    7.7999    0.0000    0.0000 C   0  0
    6.8349    1.1494    0.0000 C   0  0
    5.3568    0.8892    0.0000 C   0  0
    4.3917    2.0386    0.0000 C   0  0
    2.9136    1.7785    0.0000 C   0  0
    1.9485    2.9279    0.0000 C   0  0
    6.3089   -0.2873    0.0000 C   0  0
    4.8306   -0.5461    0.0000 C   0  0
   22.0998    0.7500    0.0000 C   0  0
   23.3998    0.0000    0.0000 C   0  0
   24.6998    0.7500    0.0000 C   0  0
   25.9998    0.0000    0.0000 C   0  0
   19.5006   -3.2520    0.0000 H   0  0
   18.6344   -1.7523    0.0000 H   0  0
   18.6346   -2.7521    0.0000 H   0  0
   21.6660   -2.0005    0.0000 H   0  0
   20.8003   -2.5007    0.0000 H   0  0
   20.7998    1.0000    0.0000 H   0  0
   18.6339    1.2501    0.0000 H   0  0
   19.4998    1.7500    0.0000 H   0  0
   16.4658   -0.5001    0.0000 H   0  0
   15.5999   -1.0000    0.0000 H   0  0
   13.4339    1.2501    0.0000 H   0  0
   14.2999    1.7500    0.0000 H   0  0
   12.1340   -0.5001    0.0000 H   0  0
   12.9999   -1.0000    0.0000 H   0  0
   10.8340    1.2501    0.0000 H   0  0
   11.6999    1.7500    0.0000 H   0  0
    8.6659   -0.5001    0.0000 H   0  0
    7.7999   -1.0000    0.0000 H   0  0
    7.1769    2.0891    0.0000 H   0  0
    5.0147   -0.0504    0.0000 H   0  0
    4.3720    0.7154    0.0000 H   0  0
    4.7337    2.9783    0.0000 H   0  0
    3.7490    2.8048    0.0000 H   0  0
    2.5716    0.8388    0.0000 H   0  0
    1.9288    1.6047    0.0000 H   0  0
    0.9636    2.7545    0.0000 H   0  0
    2.2905    3.8676    0.0000 H   0  0
    1.3058    3.6940    0.0000 H   0  0
    7.2940   -0.1154    0.0000 H   0  0
    6.9505   -1.0544    0.0000 H   0  0
    4.4867   -1.4851    0.0000 H   0  0
    3.8454   -0.7180    0.0000 H   0  0
    4.1890    0.2210    0.0000 H   0  0
   22.0998    1.7500    0.0000 H   0  0
   21.2339    1.2501    0.0000 H   0  0
   23.3998   -1.0000    0.0000 H   0  0
   22.5339   -0.5001    0.0000 H   0  0
   24.6998    1.7500    0.0000 H   0  0
   23.8339    1.2501    0.0000 H   0  0
   26.8660    0.4997    0.0000 H   0  0
   25.9998   -1.0000    0.0000 H   0  0
   26.8657   -0.5001    0.0000 H   0  0
  1  2  1  0
  2  3  1  0
  3  4  1  0
  3 23  1  0
  4  5  1  0
  5  6  1  0
  6  7  2  0
  6  8  1  0
  8  9  1  0
  9 10  1  0
 10 11  1  0
 11 12  1  0
 12 13  2  0
 12 14  1  0
 14 15  1  0
 15 16  1  0
 16 17  1  0
 16 21  1  0
 17 18  1  0
 18 19  1  0
 19 20  1  0
 21 22  1  0
 23 24  1  0
 24 25  1  0
 25 26  1  0
  1 27  1  0
  1 28  1  0
  1 29  1  0
  2 30  1  0
  2 31  1  0
  3 32  1  0
  4 33  1  0
  4 34  1  0
  8 35  1  0
  8 36  1  0
  9 37  1  0
  9 38  1  0
 10 39  1  0
 10 40  1  0
 11 41  1  0
 11 42  1  0
 15 43  1  0
 15 44  1  0
 16 45  1  0
 17 46  1  0
 17 47  1  0
 18 48  1  0
 18 49  1  0
 19 50  1  0
 19 51  1  0
 20 52  1  0
 20 53  1  0
 20 54  1  0
 21 55  1  0
 21 56  1  0
 22 57  1  0
 22 58  1  0
 22 59  1  0
 23 60  1  0
 23 61  1  0
 24 62  1  0
 24 63  1  0
 25 64  1  0
 25 65  1  0
 26 66  1  0
 26 67  1  0
 26 68  1  0
V    1 0
V    2 1
V    3 2
V    4 3
V    5 4
V    6 5
V    7 6
V    8 7
V    9 8
V   10 9
V   11 10
V   12 11
V   13 12
V   14 13
V   15 14
V   16 15
V   17 16
V   18 17
V   19 18
V   20 19
V   21 20
V   22 21
V   23 22
V   24 23
V   25 24
V   26 25
M  END
> <DSSTox_RID>
65333

> <DSSTox_CID>
606

> <DSSTox_CID_Parent>
606

> <DSSTox_Generic_SID>
20606

> <DSSTox_FileID>
108_TXCST2_v1a

> <STRUCTURE_Formula>
C22H42O4

> <STRUCTURE_MolecularWeight>
370.5665

> <STRUCTURE_ChemicalType>
defined organic

> <STRUCTURE_TestedForm_DefinedOrganic>
parent

> <STRUCTURE_Shown>
tested chemical

> <TestSubstance_ChemicalName>
Di(2-ethylhexyl)adipate

> <TestSubstance_CASRN>
103-23-1

> <TestSubstance_Description>
single chemical compound

> <STRUCTURE_ChemicalName_IUPAC>
bis(2-ethylhexyl) adipate

> <STRUCTURE_SMILES>
CCC(COC(=O)CCCCC(=O)OCC(CCCC)CC)CCCC

> <STRUCTURE_Parent_SMILES>
CCC(COC(=O)CCCCC(=O)OCC(CCCC)CC)CCCC

> <STRUCTURE_InChIS>
InChI=1S/C22H42O4/c1-5-9-13-19(7-3)17-25-21(23)15-11-12-16-22(24)26-18-20(8-4)14-10-6-2/h19-20H,5-18H2,1-4H3

> <STRUCTURE_InChIKey>
SAOKZLXYCUGLFA-UHFFFAOYSA-N

> <Substance_modify_yyyymmdd>
20080429

> <Coord_Metals>
0

> <Index>
108

> <Canonical_Smiles>
CCCCC(CC)COC(=O)CCCCC(=O)OCC(CC)CCCC

> <Molecular_Weight>
370.56648

> <Frequency>
1

$$$$

  SciTegic          2D

 66 66  0  0  0  0            999 V2000
    3.6375   -0.9049    0.0000 O   0  0
    2.5973   -1.5031    0.0000 C   0  0
    1.2990   -0.7500    0.0000 C   0  0
    1.2990    0.7500    0.0000 C   0  0
    0.0000    1.5000    0.0000 C   0  0
   -1.2990    0.7500    0.0000 C   0  0
   -1.2990   -0.7500    0.0000 C   0  0
    0.0000   -1.5000    0.0000 C   0  0
    2.5972    1.5031    0.0000 C   0  0
    3.6375    0.9049    0.0000 O   0  0
    2.5951    3.0039    0.0000 O   0  0
    3.8933    3.7570    0.0000 C   0  0
    3.3780    5.1666    0.0000 C   0  0
    4.3403    6.3183    0.0000 C   0  0
    3.8250    7.7279    0.0000 C   0  0
    4.7873    8.8796    0.0000 C   0  0
    4.2720   10.2891    0.0000 C   0  0
    4.8856    4.9064    0.0000 C   0  0
    5.8469    6.0590    0.0000 C   0  0
    2.5951   -3.0039    0.0000 O   0  0
    3.8933   -3.7570    0.0000 C   0  0
    3.3780   -5.1666    0.0000 C   0  0
    4.3404   -6.3183    0.0000 C   0  0
    3.8250   -7.7278    0.0000 C   0  0
    4.7874   -8.8795    0.0000 C   0  0
    4.2721  -10.2891    0.0000 C   0  0
    4.8857   -4.9063    0.0000 C   0  0
    5.8469   -6.0589    0.0000 C   0  0
    0.0000    2.5000    0.0000 H   0  0
   -2.1651    1.2500    0.0000 H   0  0
   -2.1651   -1.2500    0.0000 H   0  0
    0.0000   -2.5000    0.0000 H   0  0
    4.7602    3.2585    0.0000 H   0  0
    3.8952    2.7570    0.0000 H   0  0
    2.3929    5.3385    0.0000 H   0  0
    4.6841    5.3792    0.0000 H   0  0
    5.3254    6.1464    0.0000 H   0  0
    3.1834    6.9608    0.0000 H   0  0
    2.8399    7.8998    0.0000 H   0  0
    5.1311    7.9405    0.0000 H   0  0
    5.7724    8.7076    0.0000 H   0  0
    4.9132   11.0565    0.0000 H   0  0
    3.9282   11.2282    0.0000 H   0  0
    3.2869   10.4611    0.0000 H   0  0
    5.2308    3.9678    0.0000 H   0  0
    4.2455    4.1381    0.0000 H   0  0
    6.8323    5.8889    0.0000 H   0  0
    5.5017    6.9975    0.0000 H   0  0
    6.4870    6.8273    0.0000 H   0  0
    4.7602   -3.2585    0.0000 H   0  0
    3.8952   -2.7570    0.0000 H   0  0
    2.3929   -5.3385    0.0000 H   0  0
    4.6842   -5.3792    0.0000 H   0  0
    5.3255   -6.1463    0.0000 H   0  0
    3.1835   -6.9608    0.0000 H   0  0
    2.8399   -7.8998    0.0000 H   0  0
    5.1312   -7.9405    0.0000 H   0  0
    5.7725   -8.7076    0.0000 H   0  0
    4.9133  -11.0565    0.0000 H   0  0
    3.9283  -11.2281    0.0000 H   0  0
    3.2870  -10.4610    0.0000 H   0  0
    5.2308   -3.9678    0.0000 H   0  0
    4.2455   -4.1381    0.0000 H   0  0
    6.8324   -5.8889    0.0000 H   0  0
    5.5018   -6.9975    0.0000 H   0  0
    6.4870   -6.8272    0.0000 H   0  0
  1  2  2  0
  2  3  1  0
  2 20  1  0
  3  4  2  0
  3  8  1  0
  4  5  1  0
  4  9  1  0
  5  6  2  0
  6  7  1  0
  7  8  2  0
  9 10  2  0
  9 11  1  0
 11 12  1  0
 12 13  1  0
 13 14  1  0
 13 18  1  0
 14 15  1  0
 15 16  1  0
 16 17  1  0
 18 19  1  0
 20 21  1  0
 21 22  1  0
 22 23  1  0
 22 27  1  0
 23 24  1  0
 24 25  1  0
 25 26  1  0
 27 28  1  0
  5 29  1  0
  6 30  1  0
  7 31  1  0
  8 32  1  0
 12 33  1  0
 12 34  1  0
 13 35  1  0
 14 36  1  0
 14 37  1  0
 15 38  1  0
 15 39  1  0
 16 40  1  0
 16 41  1  0
 17 42  1  0
 17 43  1  0
 17 44  1  0
 18 45  1  0
 18 46  1  0
 19 47  1  0
 19 48  1  0
 19 49  1  0
 21 50  1  0
 21 51  1  0
 22 52  1  0
 23 53  1  0
 23 54  1  0
 24 55  1  0
 24 56  1  0
 25 57  1  0
 25 58  1  0
 26 59  1  0
 26 60  1  0
 26 61  1  0
 27 62  1  0
 27 63  1  0
 28 64  1  0
 28 65  1  0
 28 66  1  0
V    1 0
V    2 1
V    3 2
V    4 3
V    5 4
V    6 5
V    7 6
V    8 7
V    9 8
V   10 9
V   11 10
V   12 11
V   13 12
V   14 13
V   15 14
V   16 15
V   17 16
V   18 17
V   19 18
V   20 19
V   21 20
V   22 21
V   23 22
V   24 23
V   25 24
V   26 25
V   27 26
V   28 27
M  END
> <DSSTox_RID>
59965

> <DSSTox_CID>
607

> <DSSTox_CID_Parent>
607

> <DSSTox_Generic_SID>
20607

> <DSSTox_FileID>
109_TXCST2_v1a

> <STRUCTURE_Formula>
C24H38O4

> <STRUCTURE_MolecularWeight>
390.5561

> <STRUCTURE_ChemicalType>
defined organic

> <STRUCTURE_TestedForm_DefinedOrganic>
parent

> <STRUCTURE_Shown>
tested chemical

> <TestSubstance_ChemicalName>
Di(2-ethylhexyl) phthalate

> <TestSubstance_CASRN>
117-81-7

> <TestSubstance_Description>
single chemical compound

> <STRUCTURE_ChemicalName_IUPAC>
bis(2-ethylhexyl) phthalate

> <STRUCTURE_SMILES>
O=C(C1=C(C=CC=C1)C(=O)OCC(CCCC)CC)OCC(CCCC)CC

> <STRUCTURE_Parent_SMILES>
O=C(C1=C(C=CC=C1)C(=O)OCC(CCCC)CC)OCC(CCCC)CC

> <STRUCTURE_InChIS>
InChI=1S/C24H38O4/c1-5-9-13-19(7-3)17-27-23(25)21-15-11-12-16-22(21)24(26)28-18-20(8-4)14-10-6-2/h11-12,15-16,19-20H,5-10,13-14,17-18H2,1-4H3

> <STRUCTURE_InChIKey>
BJQHLKABXJIVAM-UHFFFAOYSA-N

> <Substance_modify_yyyymmdd>
20080429

> <Coord_Metals>
0

> <Index>
109

> <Canonical_Smiles>
CCCCC(CC)COC(=O)c1ccccc1C(=O)OCC(CC)CCCC

> <Molecular_Weight>
390.55612

> <Frequency>
1

$$$$

  SciTegic          2D

 24 24  0  0  0  0            999 V2000
    2.5973   -1.5031    0.0000 O   0  0
    1.2990   -0.7500    0.0000 C   0  0
    1.2990    0.7500    0.0000 C   0  0
    0.0000    1.5000    0.0000 C   0  0
   -1.2990    0.7500    0.0000 C   0  0
   -1.2990   -0.7500    0.0000 C   0  0
    0.0000   -1.5000    0.0000 C   0  0
   -2.5988    1.5004    0.0000 C   0  0
   -2.5998    3.0012    0.0000 C   0  0
   -3.8995    3.7516    0.0000 C   0  0
    2.5972    1.5031    0.0000 O   0  0
    2.5951    3.0039    0.0000 C   0  0
    2.5958   -2.5031    0.0000 H   0  0
    0.0000    2.5000    0.0000 H   0  0
   -2.1651   -1.2500    0.0000 H   0  0
    0.0000   -2.5000    0.0000 H   0  0
   -3.4647    1.0001    0.0000 H   0  0
   -3.4651    2.0000    0.0000 H   0  0
   -1.7339    3.5015    0.0000 H   0  0
   -3.9002    4.7516    0.0000 H   0  0
   -4.7654    3.2514    0.0000 H   0  0
    3.4601    3.5057    0.0000 H   0  0
    1.7282    3.5024    0.0000 H   0  0
    2.5932    4.0039    0.0000 H   0  0
  1  2  1  0
  2  3  2  0
  2  7  1  0
  3  4  1  0
  3 11  1  0
  4  5  2  0
  5  6  1  0
  5  8  1  0
  6  7  2  0
  8  9  1  0
  9 10  2  0
 11 12  1  0
  1 13  1  0
  4 14  1  0
  6 15  1  0
  7 16  1  0
  8 17  1  0
  8 18  1  0
  9 19  1  0
 10 20  1  0
 10 21  1  0
 12 22  1  0
 12 23  1  0
 12 24  1  0
V    1 0
V    2 1
V    3 2
V    4 3
V    5 4
V    6 5
V    7 6
V    8 7
V    9 8
V   10 9
V   11 10
V   12 11
M  END
> <DSSTox_RID>
65289

> <DSSTox_CID>
617

> <DSSTox_CID_Parent>
617

> <DSSTox_Generic_SID>
20617

> <DSSTox_FileID>
110_TXCST2_v1a

> <STRUCTURE_Formula>
C10H12O2

> <STRUCTURE_MolecularWeight>
164.2011

> <STRUCTURE_ChemicalType>
defined organic

> <STRUCTURE_TestedForm_DefinedOrganic>
parent

> <STRUCTURE_Shown>
tested chemical

> <TestSubstance_ChemicalName>
Eugenol

> <TestSubstance_CASRN>
97-53-0

> <TestSubstance_Description>
single chemical compound

> <STRUCTURE_ChemicalName_IUPAC>
4-allyl-2-methoxyphenol

> <STRUCTURE_SMILES>
OC1=C(C=C(C=C1)CC=C)OC

> <STRUCTURE_Parent_SMILES>
OC1=C(C=C(C=C1)CC=C)OC

> <STRUCTURE_InChIS>
InChI=1S/C10H12O2/c1-3-4-8-5-6-9(11)10(7-8)12-2/h3,5-7,11H,1,4H2,2H3

> <STRUCTURE_InChIKey>
RRAFCDWBNXTKKO-UHFFFAOYSA-N

> <Substance_modify_yyyymmdd>
20080429

> <Coord_Metals>
0

> <Index>
110

> <Canonical_Smiles>
COc1cc(CC=C)ccc1O

> <Molecular_Weight>
164.20107

> <Frequency>
1

$$$$

  SciTegic          2D

 31 31  0  0  0  0            999 V2000
    3.6337   -3.6051    0.0000 S   0  0
    2.5951   -3.0039    0.0000 P   0  0
    2.5973   -1.5031    0.0000 O   0  0
    1.2990   -0.7500    0.0000 C   0  0
    1.2990    0.7500    0.0000 C   0  0
    0.0000    1.5000    0.0000 C   0  0
   -1.2990    0.7500    0.0000 C   0  0
   -1.2990   -0.7500    0.0000 C   0  0
    0.0000   -1.5000    0.0000 C   0  0
   -2.6003    1.4977    0.0000 S   0  0
   -3.8990    0.7455    0.0000 C   0  0
    0.0000    3.0008    0.0000 C   0  0
    1.2948   -3.7533    0.0000 O   0  0
    1.2926   -5.2541    0.0000 C   0  0
    3.9220   -2.2423    0.0000 O   0  0
    5.2203   -2.9952    0.0000 C   0  0
    2.1651    1.2500    0.0000 H   0  0
   -2.1651   -1.2500    0.0000 H   0  0
    0.0000   -2.5000    0.0000 H   0  0
   -4.7661    1.2437    0.0000 H   0  0
   -3.8973   -0.2545    0.0000 H   0  0
   -4.7641    0.2438    0.0000 H   0  0
    0.8657    3.5014    0.0000 H   0  0
   -0.8662    3.5005    0.0000 H   0  0
   -0.0005    4.0008    0.0000 H   0  0
    0.4262   -5.7534    0.0000 H   0  0
    2.1581   -5.7551    0.0000 H   0  0
    1.2917   -6.2541    0.0000 H   0  0
    6.0876   -2.4974    0.0000 H   0  0
    5.2181   -3.9952    0.0000 H   0  0
    6.0852   -3.4972    0.0000 H   0  0
  1  2  2  0
  2  3  1  0
  2 13  1  0
  2 15  1  0
  3  4  1  0
  4  5  2  0
  4  9  1  0
  5  6  1  0
  6  7  2  0
  6 12  1  0
  7  8  1  0
  7 10  1  0
  8  9  2  0
 10 11  1  0
 13 14  1  0
 15 16  1  0
  5 17  1  0
  8 18  1  0
  9 19  1  0
 11 20  1  0
 11 21  1  0
 11 22  1  0
 12 23  1  0
 12 24  1  0
 12 25  1  0
 14 26  1  0
 14 27  1  0
 14 28  1  0
 16 29  1  0
 16 30  1  0
 16 31  1  0
V    1 0
V    2 1
V    3 2
V    4 3
V    5 4
V    6 5
V    7 6
V    8 7
V    9 8
V   10 9
V   11 10
V   12 11
V   13 12
V   14 13
V   15 14
V   16 15
M  END
> <DSSTox_RID>
66803

> <DSSTox_CID>
620

> <DSSTox_CID_Parent>
620

> <DSSTox_Generic_SID>
20620

> <DSSTox_FileID>
111_TXCST2_v1a

> <STRUCTURE_Formula>
C10H15O3PS2

> <STRUCTURE_MolecularWeight>
278.3281

> <STRUCTURE_ChemicalType>
defined organic

> <STRUCTURE_TestedForm_DefinedOrganic>
parent

> <STRUCTURE_Shown>
tested chemical

> <TestSubstance_ChemicalName>
Fenthion

> <TestSubstance_CASRN>
55-38-9

> <TestSubstance_Description>
single chemical compound

> <STRUCTURE_ChemicalName_IUPAC>
O,O-dimethyl O-[3-methyl-4-(methylthio)phenyl] thiophosphate

> <STRUCTURE_SMILES>
S=P(OC1=CC(=C(C=C1)SC)C)(OC)OC

> <STRUCTURE_Parent_SMILES>
S=P(OC1=CC(=C(C=C1)SC)C)(OC)OC

> <STRUCTURE_InChIS>
InChI=1S/C10H15O3PS2/c1-8-7-9(5-6-10(8)16-4)13-14(15,11-2)12-3/h5-7H,1-4H3

> <STRUCTURE_InChIKey>
PNVJTZOFSHSLTO-UHFFFAOYSA-N

> <Substance_modify_yyyymmdd>
20080429

> <Coord_Metals>
0

> <Index>
111

> <Canonical_Smiles>
COP(=S)(OC)Oc1ccc(SC)c(C)c1

> <Molecular_Weight>
278.32806

> <Frequency>
1

$$$$

  SciTegic          2D

 34 36  0  0  0  0            999 V2000
    2.2991   -5.5491    0.0000 N   0  0
    1.5462   -4.2517    0.0000 C   0  0
    2.5475   -3.1348    0.0000 N   0  0
    3.9002   -3.7528    0.0000 N   0  0
    3.7657   -5.2340    0.0000 C   0  0
    5.1982   -2.9995    0.0000 C   0  0
    5.1959   -1.4987    0.0000 C   0  0
    3.8954   -0.7495    0.0000 C   0  0
    3.8930    0.7513    0.0000 N   0  0
    5.1052    1.6129    0.0000 N   0  0
    4.6394    3.0388    0.0000 C   0  0
    3.1394    3.0364    0.0000 N   0  0
    2.6781    1.6091    0.0000 C   0  0
    6.4946   -0.7467    0.0000 C   0  0
    7.7946   -1.4950    0.0000 C   0  0
    9.0927   -0.7434    0.0000 C   0  0
    9.0908    0.7566    0.0000 C   0  0
    7.7908    1.5050    0.0000 C   0  0
    6.4927    0.7533    0.0000 C   0  0
   10.1292    1.3579    0.0000 F   0  0
    7.7961   -2.6950    0.0000 F   0  0
    3.8704   -2.2629    0.0000 O   0  0
    0.5515   -4.1494    0.0000 H   0  0
    4.5143   -5.8970    0.0000 H   0  0
    6.0652   -3.4979    0.0000 H   0  0
    5.2003   -3.9995    0.0000 H   0  0
    3.0300   -1.2506    0.0000 H   0  0
    3.0286   -0.2508    0.0000 H   0  0
    5.2259    3.8487    0.0000 H   0  0
    1.7294    1.2929    0.0000 H   0  0
    9.9593   -1.2423    0.0000 H   0  0
    7.7895    2.5050    0.0000 H   0  0
    5.6260    1.2522    0.0000 H   0  0
    3.0044   -1.7629    0.0000 H   0  0
  1  2  1  0
  1  5  2  0
  2  3  2  0
  3  4  1  0
  4  5  1  0
  4  6  1  0
  6  7  1  0
  7  8  1  0
  7 14  1  0
  7 22  1  0
  8  9  1  0
  9 10  1  0
  9 13  1  0
 10 11  2  0
 11 12  1  0
 12 13  2  0
 14 15  2  0
 14 19  1  0
 15 16  1  0
 15 21  1  0
 16 17  2  0
 17 18  1  0
 17 20  1  0
 18 19  2  0
  2 23  1  0
  5 24  1  0
  6 25  1  0
  6 26  1  0
  8 27  1  0
  8 28  1  0
 11 29  1  0
 13 30  1  0
 16 31  1  0
 18 32  1  0
 19 33  1  0
 22 34  1  0
V    1 0
V    2 1
V    3 2
V    4 3
V    5 4
V    6 5
V    7 6
V    8 7
V    9 8
V   10 9
V   11 10
V   12 11
V   13 12
V   14 13
V   15 14
V   16 15
V   17 16
V   18 17
V   19 18
V   20 19
V   21 20
V   22 21
M  END
> <DSSTox_RID>
65296

> <DSSTox_CID>
627

> <DSSTox_CID_Parent>
627

> <DSSTox_Generic_SID>
20627

> <DSSTox_FileID>
112_TXCST2_v1a

> <STRUCTURE_Formula>
C13H12F2N6O

> <STRUCTURE_MolecularWeight>
306.2708

> <STRUCTURE_ChemicalType>
defined organic

> <STRUCTURE_TestedForm_DefinedOrganic>
parent

> <STRUCTURE_Shown>
tested chemical

> <TestSubstance_ChemicalName>
Fluconazole

> <TestSubstance_CASRN>
86386-73-4

> <TestSubstance_Description>
single chemical compound

> <STRUCTURE_ChemicalName_IUPAC>
2-(2,4-difluorophenyl)-1,3-di-1H-1,2,4-triazol-1-ylpropan-2-ol

> <STRUCTURE_SMILES>
N1C=NN(C=1)CC(CN2N=CN=C2)(C3=C(C=C(C=C3)F)F)O

> <STRUCTURE_Parent_SMILES>
N1C=NN(C=1)CC(CN2N=CN=C2)(C3=C(C=C(C=C3)F)F)O

> <STRUCTURE_InChIS>
InChI=1S/C13H12F2N6O/c14-10-1-2-11(12(15)3-10)13(22,4-20-8-16-6-18-20)5-21-9-17-7-19-21/h1-3,6-9,22H,4-5H2

> <STRUCTURE_InChIKey>
RFHAOTPXVQNOHP-UHFFFAOYSA-N

> <Substance_modify_yyyymmdd>
20080429

> <Coord_Metals>
0

> <Index>
112

> <Canonical_Smiles>
OC(Cn1cncn1)(Cn2cncn2)c3ccc(F)cc3F

> <Molecular_Weight>
306.27078

> <Frequency>
1

$$$$

  SciTegic          2D

 27 27  0  0  0  0            999 V2000
    1.5548   -3.6021    0.0000 O   0  0
    2.5951   -3.0039    0.0000 C   0  0
    2.5973   -1.5031    0.0000 N   0  0
    1.2990   -0.7500    0.0000 C   0  0
    1.2990    0.7500    0.0000 C   0  0
    0.0000    1.5000    0.0000 C   0  0
   -1.2990    0.7500    0.0000 C   0  0
   -1.2990   -0.7500    0.0000 C   0  0
    0.0000   -1.5000    0.0000 C   0  0
   -2.5988   -1.5004    0.0000 C   0  0
   -3.6384   -0.9011    0.0000 F   0  0
   -2.5984   -2.7004    0.0000 F   0  0
   -3.6377   -2.1009    0.0000 F   0  0
    3.8933   -3.7570    0.0000 N   0  0
    3.8912   -5.2578    0.0000 C   0  0
    5.1929   -3.0062    0.0000 C   0  0
    3.4642   -1.0046    0.0000 H   0  0
    2.1651    1.2500    0.0000 H   0  0
    0.0000    2.5000    0.0000 H   0  0
   -2.1651    1.2500    0.0000 H   0  0
    0.0000   -2.5000    0.0000 H   0  0
    4.7562   -5.7596    0.0000 H   0  0
    3.8893   -6.2578    0.0000 H   0  0
    3.0243   -5.7563    0.0000 H   0  0
    5.1932   -2.0062    0.0000 H   0  0
    6.0589   -3.5062    0.0000 H   0  0
    6.0590   -2.5063    0.0000 H   0  0
  1  2  2  0
  2  3  1  0
  2 14  1  0
  3  4  1  0
  4  5  2  0
  4  9  1  0
  5  6  1  0
  6  7  2  0
  7  8  1  0
  8  9  2  0
  8 10  1  0
 10 11  1  0
 10 12  1  0
 10 13  1  0
 14 15  1  0
 14 16  1  0
  3 17  1  0
  5 18  1  0
  6 19  1  0
  7 20  1  0
  9 21  1  0
 15 22  1  0
 15 23  1  0
 15 24  1  0
 16 25  1  0
 16 26  1  0
 16 27  1  0
V    1 0
V    2 1
V    3 2
V    4 3
V    5 4
V    6 5
V    7 6
V    8 7
V    9 8
V   10 9
V   11 10
V   12 11
V   13 12
V   14 13
V   15 14
V   16 15
M  END
> <DSSTox_RID>
59698

> <DSSTox_CID>
628

> <DSSTox_CID_Parent>
628

> <DSSTox_Generic_SID>
20628

> <DSSTox_FileID>
113_TXCST2_v1a

> <STRUCTURE_Formula>
C10H11F3N2O

> <STRUCTURE_MolecularWeight>
232.2023

> <STRUCTURE_ChemicalType>
defined organic

> <STRUCTURE_TestedForm_DefinedOrganic>
parent

> <STRUCTURE_Shown>
tested chemical

> <TestSubstance_ChemicalName>
Fluometuron

> <TestSubstance_CASRN>
2164-17-2

> <TestSubstance_Description>
single chemical compound

> <Source_ChemicalNote>
tested chemical contained 0.06% water (0.01 moles H2O)

> <STRUCTURE_ChemicalName_IUPAC>
1,1-dimethyl-3-[3-(trifluoromethyl)phenyl]urea

> <STRUCTURE_SMILES>
O=C(NC1=CC=CC(=C1)C(F)(F)F)N(C)C

> <STRUCTURE_Parent_SMILES>
O=C(NC1=CC=CC(=C1)C(F)(F)F)N(C)C

> <STRUCTURE_InChIS>
InChI=1S/C10H11F3N2O/c1-15(2)9(16)14-8-5-3-4-7(6-8)10(11,12)13/h3-6H,1-2H3,(H,14,16)

> <STRUCTURE_InChIKey>
RZILCCPWPBTYDO-UHFFFAOYSA-N

> <Substance_modify_yyyymmdd>
20080429

> <Coord_Metals>
0

> <Index>
113

> <Canonical_Smiles>
CN(C)C(=O)Nc1cccc(c1)C(F)(F)F

> <Molecular_Weight>
232.20234

> <Frequency>
1

$$$$

  SciTegic          2D

 12 12  0  0  0  0            999 V2000
    2.5973   -1.5031    0.0000 O   0  0
    1.2990   -0.7500    0.0000 C   0  0
    1.2990    0.7500    0.0000 C   0  0
    0.0000    1.5000    0.0000 C   0  0
   -1.2990    0.7500    0.0000 N   0  0
   -1.2990   -0.7500    0.0000 C   0  0
   -2.5972   -1.5031    0.0000 O   0  0
    0.0000   -1.5000    0.0000 N   0  0
    2.3383    1.3500    0.0000 F   0  0
    2.5958   -2.5031    0.0000 H   0  0
    0.0000    2.5000    0.0000 H   0  0
   -2.5958   -2.5031    0.0000 H   0  0
  1  2  1  0
  2  3  2  0
  2  8  1  0
  3  4  1  0
  3  9  1  0
  4  5  2  0
  5  6  1  0
  6  7  1  0
  6  8  2  0
  1 10  1  0
  4 11  1  0
  7 12  1  0
V    1 0
V    2 1
V    3 2
V    4 3
V    5 4
V    6 5
V    7 6
V    8 7
V    9 8
M  END
> <DSSTox_RID>
59980

> <DSSTox_CID>
634

> <DSSTox_CID_Parent>
634

> <DSSTox_Generic_SID>
20634

> <DSSTox_FileID>
114_TXCST2_v1a

> <STRUCTURE_Formula>
C4H3FN2O2

> <STRUCTURE_MolecularWeight>
130.0772

> <STRUCTURE_ChemicalType>
defined organic

> <STRUCTURE_TestedForm_DefinedOrganic>
parent

> <STRUCTURE_Shown>
tested chemical

> <TestSubstance_ChemicalName>
5-Fluorouracil

> <TestSubstance_CASRN>
51-21-8

> <TestSubstance_Description>
single chemical compound

> <Source_ChemicalNote>
tested chemical contained 0.1% water (0.01 moles H2O)

> <STRUCTURE_ChemicalName_IUPAC>
5-fluoropyrimidine-2,4(1H,3H)-dione

> <STRUCTURE_SMILES>
O=C1C(=CNC(=O)N1)F

> <STRUCTURE_Parent_SMILES>
O=C1C(=CNC(=O)N1)F

> <STRUCTURE_InChIS>
InChI=1S/C4H3FN2O2/c5-2-1-6-4(9)7-3(2)8/h1H,(H2,6,7,8,9)

> <STRUCTURE_InChIKey>
GHASVSINZRGABV-UHFFFAOYSA-N

> <Substance_modify_yyyymmdd>
20080429

> <Coord_Metals>
0

> <Index>
114

> <Canonical_Smiles>
Oc1ncc(F)c(O)n1

> <Molecular_Weight>
130.07722

> <Frequency>
1

$$$$

  SciTegic          2D

 11 11  0  0  0  0            999 V2000
    1.1385   -3.3418    0.0000 O   0  0
    1.6281   -2.2462    0.0000 C   0  0
    0.7500   -1.0323    0.0000 C   0  0
    1.2135    0.3943    0.0000 C   0  0
    0.0000    1.2760    0.0000 C   0  0
   -1.2135    0.3943    0.0000 C   0  0
   -0.7500   -1.0323    0.0000 O   0  0
    2.6228   -2.1434    0.0000 H   0  0
    2.1646    0.7033    0.0000 H   0  0
    0.0000    2.2760    0.0000 H   0  0
   -2.1646    0.7033    0.0000 H   0  0
  1  2  2  0
  2  3  1  0
  3  4  2  0
  3  7  1  0
  4  5  1  0
  5  6  2  0
  6  7  1  0
  2  8  1  0
  4  9  1  0
  5 10  1  0
  6 11  1  0
V    1 0
V    2 1
V    3 2
V    4 3
V    5 4
V    6 5
V    7 6
M  END
> <DSSTox_RID>
66768

> <DSSTox_CID>
647

> <DSSTox_CID_Parent>
647

> <DSSTox_Generic_SID>
20647

> <DSSTox_FileID>
115_TXCST2_v1a

> <STRUCTURE_Formula>
C5H4O2

> <STRUCTURE_MolecularWeight>
96.0841

> <STRUCTURE_ChemicalType>
defined organic

> <STRUCTURE_TestedForm_DefinedOrganic>
parent

> <STRUCTURE_Shown>
tested chemical

> <TestSubstance_ChemicalName>
Furfural

> <TestSubstance_CASRN>
98-01-1

> <TestSubstance_Description>
single chemical compound

> <STRUCTURE_ChemicalName_IUPAC>
2-furaldehyde

> <STRUCTURE_SMILES>
O=CC1=CC=CO1

> <STRUCTURE_Parent_SMILES>
O=CC1=CC=CO1

> <STRUCTURE_InChIS>
InChI=1S/C5H4O2/c6-4-5-2-1-3-7-5/h1-4H

> <STRUCTURE_InChIKey>
HYBBIBNJHNGZAN-UHFFFAOYSA-N

> <Substance_modify_yyyymmdd>
20080429

> <Coord_Metals>
0

> <Index>
115

> <Canonical_Smiles>
O=Cc1occc1

> <Molecular_Weight>
96.08406

> <Frequency>
1

$$$$

  SciTegic          2D

 58 60  0  0  0  0            999 V2000
    1.2990   -0.7500    0.0000 C   0  0
   -2.5973    1.5031    0.0000 N   0  3
    2.5973   -1.5031    0.0000 C   0  0
   -1.2990    0.7500    0.0000 C   0  0
    1.2990    0.7500    0.0000 C   0  0
    0.0000   -1.5000    0.0000 C   0  0
   -1.2990   -0.7500    0.0000 C   0  0
    0.0000    1.5000    0.0000 C   0  0
    2.5951   -3.0039    0.0000 C   0  0
    3.8982   -0.7550    0.0000 C   0  0
    2.5847   -6.0040    0.0000 C   0  0
    6.4970    0.7441    0.0000 C   0  0
    7.7986    1.4914    0.0000 N   0  0
    2.5826   -7.5048    0.0000 N   0  0
    5.1971   -1.5054    0.0000 C   0  0
    3.8915   -3.7585    0.0000 C   0  0
    3.8989    0.7451    0.0000 C   0  0
    1.2935   -3.7495    0.0000 C   0  0
    3.8864   -5.2585    0.0000 C   0  0
    5.1982    1.4946    0.0000 C   0  0
    1.2883   -5.2495    0.0000 C   0  0
    6.4964   -0.7559    0.0000 C   0  0
   -2.5951    3.0039    0.0000 C   0  0
   -3.8968    0.7522    0.0000 C   0  0
    3.8809   -8.2579    0.0000 C   0  0
    9.0970    0.7386    0.0000 C   0  0
    1.2800   -8.2503    0.0000 C   0  0
    7.7987    2.9922    0.0000 C   0  0
    2.1651    1.2500    0.0000 H   0  0
    0.0000   -2.5000    0.0000 H   0  0
   -2.1651   -1.2500    0.0000 H   0  0
    0.0000    2.5000    0.0000 H   0  0
    5.1968   -2.5054    0.0000 H   0  0
    4.7593   -3.2615    0.0000 H   0  0
    3.0331    1.2454    0.0000 H   0  0
    0.4292   -3.2465    0.0000 H   0  0
    4.7506   -5.7615    0.0000 H   0  0
    5.1986    2.4946    0.0000 H   0  0
    0.4205   -5.7465    0.0000 H   0  0
    7.3623   -1.2562    0.0000 H   0  0
   -3.4601    3.5057    0.0000 H   0  0
   -2.5932    4.0039    0.0000 H   0  0
   -1.7282    3.5024    0.0000 H   0  0
   -3.8971   -0.2478    0.0000 H   0  0
   -4.7629    0.2524    0.0000 H   0  0
   -4.7628    1.2522    0.0000 H   0  0
    3.8795   -9.2579    0.0000 H   0  0
    4.7461   -8.7592    0.0000 H   0  0
    4.7477   -7.7594    0.0000 H   0  0
    9.9642    1.2365    0.0000 H   0  0
    9.9619    0.2366    0.0000 H   0  0
    9.0949   -0.2614    0.0000 H   0  0
    0.4156   -7.7476    0.0000 H   0  0
    0.4124   -8.7475    0.0000 H   0  0
    1.2766   -9.2503    0.0000 H   0  0
    6.9330    3.4928    0.0000 H   0  0
    7.7992    3.9922    0.0000 H   0  0
    8.6649    3.4919    0.0000 H   0  0
  1  3  2  0
  1  5  1  0
  1  6  1  0
  2  4  2  0
  2 23  1  0
  2 24  1  0
  3  9  1  0
  3 10  1  0
  4  7  1  0
  4  8  1  0
  5  8  2  0
  6  7  2  0
  9 16  2  0
  9 18  1  0
 10 15  2  0
 10 17  1  0
 11 21  1  0
 11 14  1  0
 11 19  2  0
 12 20  1  0
 12 13  1  0
 12 22  2  0
 13 26  1  0
 13 28  1  0
 14 25  1  0
 14 27  1  0
 15 22  1  0
 16 19  1  0
 17 20  2  0
 18 21  2  0
  5 29  1  0
  6 30  1  0
  7 31  1  0
  8 32  1  0
 15 33  1  0
 16 34  1  0
 17 35  1  0
 18 36  1  0
 19 37  1  0
 20 38  1  0
 21 39  1  0
 22 40  1  0
 23 41  1  0
 23 42  1  0
 23 43  1  0
 24 44  1  0
 24 45  1  0
 24 46  1  0
 25 47  1  0
 25 48  1  0
 25 49  1  0
 26 50  1  0
 26 51  1  0
 26 52  1  0
 27 53  1  0
 27 54  1  0
 27 55  1  0
 28 56  1  0
 28 57  1  0
 28 58  1  0
M  CHG  1   2   1
V    1 0
V    2 1
V    3 2
V    4 3
V    5 4
V    6 5
V    7 6
V    8 7
V    9 8
V   10 9
V   11 10
V   12 11
V   13 12
V   14 13
V   15 14
V   16 15
V   17 16
V   18 17
V   19 18
V   20 19
V   21 20
V   22 21
V   23 22
V   24 23
V   25 24
V   26 25
V   27 26
V   28 27
M  END
> <DSSTox_RID>
60391

> <DSSTox_CID>
653

> <DSSTox_Generic_SID>
20653

> <DSSTox_FileID>
116_TXCST2_v1a

> <STRUCTURE_Formula>
C25H30ClN3

> <STRUCTURE_MolecularWeight>
407.9788

> <STRUCTURE_ChemicalType>
defined organic

> <STRUCTURE_TestedForm_DefinedOrganic>
salt Cl

> <STRUCTURE_Shown>
tested chemical

> <TestSubstance_ChemicalName>
Crystal violet

> <TestSubstance_CASRN>
548-62-9

> <TestSubstance_Description>
single chemical compound

> <ChemicalNote>
ammonium; C.I. 42555

> <STRUCTURE_ChemicalName_IUPAC>
N-(4-{bis[4-(dimethylamino)phenyl]methylidene}cyclohexa-2,5-dien-1-ylidene)-N-methylmethanaminium chloride

> <STRUCTURE_SMILES>
[Cl-].C/[N+](C)=C1\C=C/C(C=C1)=C(\c2ccc(cc2)N(C)C)c3ccc(cc3)N(C)C

> <STRUCTURE_Parent_SMILES>
C/[N+](C)=C1\C=C/C(C=C1)=C(\c2ccc(cc2)N(C)C)c3ccc(cc3)N(C)C

> <STRUCTURE_InChIS>
InChI=1S/C25H30N3.ClH/c1-26(2)22-13-7-19(8-14-22)25(20-9-15-23(16-10-20)27(3)4)21-11-17-24(18-12-21)28(5)6;/h7-18H,1-6H3;1H/q+1;/p-1

> <STRUCTURE_InChIKey>
ZXJXZNDDNMQXFV-UHFFFAOYSA-M

> <Substance_modify_yyyymmdd>
20080429

> <Coord_Metals>
0

> <Index>
116

> <Canonical_Smiles>
CN(C)c1ccc(cc1)C(=C2C=CC(=[N+](C)C)C=C2)c3ccc(cc3)N(C)C

> <Molecular_Weight>
372.5258

> <Frequency>
1

$$$$

  SciTegic          2D

 34 33  0  0  0  0            999 V2000
   12.9999   -1.2000    0.0000 O   0  0
   12.9999    0.0000    0.0000 C   0  0
   11.6999    0.7500    0.0000 O   0  0
   10.3999    0.0000    0.0000 C   0  0
    9.0999    0.7500    0.0000 C   0  0
    7.7999    0.0000    0.0000 C   0  0
    6.5000    0.7500    0.0000 C   0  0
    5.2000    0.0000    0.0000 C   0  0
    3.9000    0.7500    0.0000 C   0  0
    2.6000    0.0000    0.0000 C   0  0
    1.3000    0.7500    0.0000 C   0  0
    2.6031   -1.5008    0.0000 C   0  0
    7.8030   -1.5008    0.0000 C   0  0
   14.2999    0.7500    0.0000 C   0  0
   11.2659   -0.5001    0.0000 H   0  0
   10.3999   -1.0000    0.0000 H   0  0
    9.0999    1.7500    0.0000 H   0  0
    6.5000    1.7500    0.0000 H   0  0
    7.3659    1.2501    0.0000 H   0  0
    5.2000   -1.0000    0.0000 H   0  0
    4.3340   -0.5001    0.0000 H   0  0
    3.9000    1.7500    0.0000 H   0  0
    0.4338    0.2503    0.0000 H   0  0
    0.4340    1.2501    0.0000 H   0  0
    1.3000    1.7500    0.0000 H   0  0
    3.4698   -1.9996    0.0000 H   0  0
    2.6046   -2.5008    0.0000 H   0  0
    1.7379   -2.0023    0.0000 H   0  0
    8.6698   -1.9996    0.0000 H   0  0
    7.8046   -2.5008    0.0000 H   0  0
    6.9379   -2.0023    0.0000 H   0  0
   15.1661    0.2503    0.0000 H   0  0
   14.2999    1.7500    0.0000 H   0  0
   15.1658    1.2501    0.0000 H   0  0
  1  2  2  0
  2  3  1  0
  2 14  1  0
  3  4  1  0
  5  4  1  0
  5  6  2  0
  6  7  1  0
  6 13  1  0
  7  8  1  0
  8  9  1  0
  9 10  2  0
 10 11  1  0
 10 12  1  0
  4 15  1  0
  4 16  1  0
  5 17  1  0
  7 18  1  0
  7 19  1  0
  8 20  1  0
  8 21  1  0
  9 22  1  0
 11 23  1  0
 11 24  1  0
 11 25  1  0
 12 26  1  0
 12 27  1  0
 12 28  1  0
 13 29  1  0
 13 30  1  0
 13 31  1  0
 14 32  1  0
 14 33  1  0
 14 34  1  0
V    1 0
V    2 1
V    3 2
V    4 3
V    5 4
V    6 5
V    7 6
V    8 7
V    9 8
V   10 9
V   11 10
V   12 11
V   13 12
V   14 13
M  END
> <DSSTox_RID>
59981

> <DSSTox_CID>
654

> <DSSTox_CID_Parent>
654

> <DSSTox_Generic_SID>
20654

> <DSSTox_FileID>
117_TXCST2_v1a

> <STRUCTURE_Formula>
C12H20O2

> <STRUCTURE_MolecularWeight>
196.286

> <STRUCTURE_ChemicalType>
defined organic

> <STRUCTURE_TestedForm_DefinedOrganic>
parent

> <STRUCTURE_Shown>
tested chemical

> <TestSubstance_ChemicalName>
Geranyl acetate

> <TestSubstance_CASRN>
105-87-3

> <TestSubstance_Description>
single chemical compound

> <ChemicalNote>
stereochem

> <STRUCTURE_ChemicalName_IUPAC>
(2E)-3,7-dimethylocta-2,6-dien-1-yl acetate

> <STRUCTURE_SMILES>
O=C(C)OC/C=C(C)/CC/C=C(C)/C

> <STRUCTURE_Parent_SMILES>
O=C(C)OC/C=C(C)/CC/C=C(C)/C

> <STRUCTURE_InChIS>
InChI=1S/C12H20O2/c1-10(2)6-5-7-11(3)8-9-14-12(4)13/h6,8H,5,7,9H2,1-4H3/b11-8+

> <STRUCTURE_InChIKey>
HIGQPQRQIQDZMP-DHZHZOJOSA-N

> <Substance_modify_yyyymmdd>
20080429

> <Coord_Metals>
0

> <Index>
117

> <Canonical_Smiles>
CC(=CCCC(=CCOC(=O)C)C)C

> <Molecular_Weight>
196.28599

> <Frequency>
1

$$$$

  SciTegic          2D

 14 13  0  0  0  0            999 V2000
    3.9000    0.7500    0.0000 C   0  0
    3.9000    2.2507    0.0000 O   0  0
    1.3000    0.7500    0.0000 O   0  0
    6.5000    0.7500    0.0000 O   0  0
    5.2000    0.0000    0.0000 C   0  0
    2.6000    0.0000    0.0000 C   0  0
    3.0340    1.2501    0.0000 H   0  0
    4.7657    2.7513    0.0000 H   0  0
    0.4338    0.2503    0.0000 H   0  0
    7.3661    0.2503    0.0000 H   0  0
    5.2000   -1.0000    0.0000 H   0  0
    6.0659   -0.5001    0.0000 H   0  0
    2.6000   -1.0000    0.0000 H   0  0
    1.7340   -0.5001    0.0000 H   0  0
  1  2  1  0
  1  5  1  0
  1  6  1  0
  3  6  1  0
  4  5  1  0
  1  7  1  0
  2  8  1  0
  3  9  1  0
  4 10  1  0
  5 11  1  0
  5 12  1  0
  6 13  1  0
  6 14  1  0
V    1 0
V    2 1
V    3 2
V    4 3
V    5 4
V    6 5
M  END
> <DSSTox_RID>
65969

> <DSSTox_CID>
662

> <DSSTox_CID_Parent>
662

> <DSSTox_Generic_SID>
20663

> <DSSTox_FileID>
118_TXCST2_v1a

> <STRUCTURE_Formula>
C3H8O3

> <STRUCTURE_MolecularWeight>
92.0938

> <STRUCTURE_ChemicalType>
defined organic

> <STRUCTURE_TestedForm_DefinedOrganic>
parent

> <STRUCTURE_Shown>
tested chemical

> <TestSubstance_ChemicalName>
Glycerol

> <TestSubstance_CASRN>
56-81-5

> <TestSubstance_Description>
single chemical compound

> <Source_ChemicalNote>
tested chemical contained 0.063% water

> <STRUCTURE_ChemicalName_IUPAC>
propane-1,2,3-triol

> <STRUCTURE_SMILES>
OCC(O)CO

> <STRUCTURE_Parent_SMILES>
OCC(O)CO

> <STRUCTURE_InChIS>
InChI=1S/C3H8O3/c4-1-3(6)2-5/h3-6H,1-2H2

> <STRUCTURE_InChIKey>
PEDCQBHIVMGVHV-UHFFFAOYSA-N

> <Substance_modify_yyyymmdd>
20080429

> <Coord_Metals>
0

> <Index>
118

> <Canonical_Smiles>
OCC(O)CO

> <Molecular_Weight>
92.09382

> <Frequency>
1

$$$$

  SciTegic          2D

 11 11  0  0  0  0            999 V2000
   -2.0668    1.8090    0.0000 O   0  0
   -2.0662    0.3081    0.0000 C   0  0
   -0.7500   -0.4330    0.0000 C   0  0
    0.7500   -0.4330    0.0000 C   0  0
    0.0000    0.8660    0.0000 O   0  0
   -2.9326    2.3092    0.0000 H   0  0
   -2.9323   -0.1919    0.0000 H   0  0
   -2.9324    0.8080    0.0000 H   0  0
   -0.7610   -1.4330    0.0000 H   0  0
    0.7618   -1.4329    0.0000 H   0  0
    1.6220    0.0565    0.0000 H   0  0
  1  2  1  0
  2  3  1  0
  3  4  1  0
  3  5  1  0
  4  5  1  0
  1  6  1  0
  2  7  1  0
  2  8  1  0
  3  9  1  0
  4 10  1  0
  4 11  1  0
V    1 0
V    2 1
V    3 2
V    4 3
V    5 4
M  END
> <DSSTox_RID>
66923

> <DSSTox_CID>
666

> <DSSTox_CID_Parent>
666

> <DSSTox_Generic_SID>
20666

> <DSSTox_FileID>
119_TXCST2_v1a

> <STRUCTURE_Formula>
C3H6O2

> <STRUCTURE_MolecularWeight>
74.0785

> <STRUCTURE_ChemicalType>
defined organic

> <STRUCTURE_TestedForm_DefinedOrganic>
parent

> <STRUCTURE_Shown>
tested chemical

> <TestSubstance_ChemicalName>
Glycidol

> <TestSubstance_CASRN>
556-52-5

> <TestSubstance_Description>
single chemical compound

> <STRUCTURE_ChemicalName_IUPAC>
oxiran-2-ylmethanol

> <STRUCTURE_SMILES>
OCC1CO1

> <STRUCTURE_Parent_SMILES>
OCC1CO1

> <STRUCTURE_InChIS>
InChI=1S/C3H6O2/c4-1-3-2-5-3/h3-4H,1-2H2

> <STRUCTURE_InChIKey>
CTKINSOISVBQLD-UHFFFAOYSA-N

> <Substance_modify_yyyymmdd>
20080429

> <Coord_Metals>
0

> <Index>
119

> <Canonical_Smiles>
OCC1CO1

> <Molecular_Weight>
74.07854

> <Frequency>
1

$$$$

  SciTegic          2D

 22 24  0  0  0  0            999 V2000
   -0.9986    1.7168    0.0000 C   0  0
   -0.9986   -0.9285    0.0000 C   0  0
   -1.9621    0.3854    0.0000 C   0  0
   -0.1752    1.0336    0.0000 C   0  0
   -0.1752    0.0000    0.0000 C   0  0
    0.5431    1.2263    0.0000 C   0  0
    0.5431   -0.4029    0.0000 C   0  0
    2.0672   -0.9285    0.0000 C   0  0
    3.0482    0.3854    0.0000 C   0  0
    2.0672    1.7168    0.0000 C   0  0
   -1.0218    2.7166    0.0000 Cl  0  0
   -0.9353   -1.9265    0.0000 Cl  0  0
   -2.5432   -0.6645    0.0000 Cl  0  0
   -2.5500    1.4315    0.0000 Cl  0  0
    0.7300    1.4587    0.0000 Cl  0  0
    0.7597   -0.3548    0.0000 Cl  0  0
    1.2489    2.5946    0.0000 Cl  0  0
    0.5414    2.2263    0.0000 H   0  0
    0.5413   -1.4029    0.0000 H   0  0
    2.3615   -1.8842    0.0000 H   0  0
    4.0482    0.3822    0.0000 H   0  0
    3.0480    1.9118    0.0000 H   0  0
  1  3  1  0
  1  4  1  0
  1  6  1  0
  1 11  1  0
  2  3  1  0
  2 12  1  0
  2  7  1  0
  2  5  1  0
  3 13  1  0
  3 14  1  0
  4  5  2  0
  4 15  1  0
  5 16  1  0
  6  7  1  0
  6 10  1  0
  7  8  1  0
  8  9  2  0
  9 10  1  0
 10 17  1  0
  6 18  1  0
  7 19  1  0
  8 20  1  0
  9 21  1  0
 10 22  1  0
V    1 0
V    2 1
V    3 2
V    4 3
V    5 4
V    6 5
V    7 6
V    8 7
V    9 8
V   10 9
V   11 10
V   12 11
V   13 12
V   14 13
V   15 14
V   16 15
V   17 16
M  END
> <DSSTox_RID>
67017

> <DSSTox_CID>
679

> <DSSTox_CID_Parent>
679

> <DSSTox_Generic_SID>
20679

> <DSSTox_FileID>
120_TXCST2_v1a

> <STRUCTURE_Formula>
C10H5Cl7

> <STRUCTURE_MolecularWeight>
373.3177

> <STRUCTURE_ChemicalType>
defined organic

> <STRUCTURE_TestedForm_DefinedOrganic>
parent

> <STRUCTURE_Shown>
tested chemical

> <TestSubstance_ChemicalName>
Heptachlor

> <TestSubstance_CASRN>
76-44-8

> <TestSubstance_Description>
single chemical compound

> <ChemicalNote>
stereochem

> <STRUCTURE_ChemicalName_IUPAC>
1,4,5,6,7,8,8-heptachloro-3a,4,7,7a-tetrahydro-1H-4,7-methanoindene

> <STRUCTURE_SMILES>
ClC1/C=C\C2C1C3(Cl)C(/Cl)=C(/Cl)C2(Cl)C3(Cl)Cl

> <STRUCTURE_Parent_SMILES>
ClC1/C=C\C2C1C3(Cl)C(/Cl)=C(/Cl)C2(Cl)C3(Cl)Cl

> <STRUCTURE_InChIS>
InChI=1S/C10H5Cl7/c11-4-2-1-3-5(4)9(15)7(13)6(12)8(3,14)10(9,16)17/h1-5H

> <STRUCTURE_InChIKey>
FRCCEHPWNOQAEU-UHFFFAOYSA-N

> <Substance_modify_yyyymmdd>
20080429

> <Coord_Metals>
0

> <Index>
120

> <Canonical_Smiles>
ClC1C=CC2C1C3(Cl)C(=C(Cl)C2(Cl)C3(Cl)Cl)Cl

> <Molecular_Weight>
373.3177

> <Frequency>
1

$$$$

  SciTegic          2D

 18 18  0  0  0  0            999 V2000
    1.2990   -0.7500    0.0000 C   0  0
    1.2990    0.7500    0.0000 C   0  0
    0.0000    1.5000    0.0000 C   0  0
   -1.2990    0.7500    0.0000 C   0  0
   -1.2990   -0.7500    0.0000 C   0  0
    0.0000   -1.5000    0.0000 C   0  0
    2.3238   -0.1256    0.0000 Cl  0  0
   -2.3238   -0.1256    0.0000 Cl  0  0
    2.3238    0.1257    0.0000 Cl  0  0
    1.0531    2.0753    0.0000 Cl  0  0
   -1.2707    1.9497    0.0000 Cl  0  0
   -1.0531   -2.0753    0.0000 Cl  0  0
    1.2756   -1.7497    0.0000 H   0  0
    0.4450    0.2298    0.0000 H   0  0
   -0.8775    1.9795    0.0000 H   0  0
   -0.4215    0.2705    0.0000 H   0  0
   -1.2755   -1.7497    0.0000 H   0  0
   -0.0235   -0.5003    0.0000 H   0  0
  1  2  1  0
  1  6  1  0
  1  7  1  0
  2  3  1  0
  2  9  1  0
  3  4  1  0
  3 10  1  0
  4  5  1  0
  4 11  1  0
  5  6  1  0
  5  8  1  0
  6 12  1  0
  1 13  1  0
  2 14  1  0
  3 15  1  0
  4 16  1  0
  5 17  1  0
  6 18  1  0
V    1 0
V    2 1
V    3 2
V    4 3
V    5 4
V    6 5
V    7 6
V    8 7
V    9 8
V   10 9
V   11 10
V   12 11
M  END
> <DSSTox_RID>
65336
66569

> <DSSTox_CID>
685
686

> <DSSTox_CID_Parent>
685
686

> <DSSTox_Generic_SID>
20685
20686

> <DSSTox_FileID>
121_TXCST2_v1a
122_TXCST2_v1a

> <STRUCTURE_Formula>
C6H6Cl6
C6H6Cl6

> <STRUCTURE_MolecularWeight>
290.8298
290.8298

> <STRUCTURE_ChemicalType>
defined organic
defined organic

> <STRUCTURE_TestedForm_DefinedOrganic>
parent
parent

> <STRUCTURE_Shown>
tested chemical
tested chemical

> <TestSubstance_ChemicalName>
beta-1,2,3,4,5,6-Hexachlorocyclohexane
gamma-1,2,3,4,5,6-Hexachlorocyclohexane

> <TestSubstance_CASRN>
319-85-7
58-89-9

> <TestSubstance_Description>
single chemical compound
single chemical compound

> <ChemicalNote>
stereochem; same 2D structure alpha-HCH [319-84-6]; gamma-HCH (Lindane) [58-89-9]; delta-HCH [319-86-8]; epsilon-HCH [6108-10-7]; zeta-HCH or iota-HCH [6108-11-8]; eta-HCH  [6108-12-9]; theta-HCH [610
8-13-0]
lindane (gamma-HCH); stereochem; same 2D structure alpha-HCH [319-84-6]; beta-HCH [319-85-7]; delta-HCH [319-86-8]; epsilon-HCH [6108-10-7]; zeta-HCH or iota-HCH [6108-11-8]; eta-HCH  [6108-12-9]; the
ta-HCH [6108-13-0]

> <STRUCTURE_ChemicalName_IUPAC>
(1r,2r,3r,4r,5r,6r)-1,2,3,4,5,6-hexachlorocyclohexane
(1r,2R,3S,4r,5R,6S)-1,2,3,4,5,6-hexachlorocyclohexane

> <STRUCTURE_SMILES>
Cl[C@H]1[C@H](Cl)[C@@H](Cl)[C@H](Cl)[C@@H](Cl)[C@@H]1Cl
Cl[C@@H]1[C@@H](Cl)[C@H](Cl)[C@H](Cl)[C@@H](Cl)[C@@H]1Cl

> <STRUCTURE_Parent_SMILES>
Cl[C@H]1[C@H](Cl)[C@@H](Cl)[C@H](Cl)[C@@H](Cl)[C@@H]1Cl
Cl[C@@H]1[C@@H](Cl)[C@H](Cl)[C@H](Cl)[C@@H](Cl)[C@@H]1Cl

> <STRUCTURE_InChIS>
InChI=1S/C6H6Cl6/c7-1-2(8)4(10)6(12)5(11)3(1)9/h1-6H/t1-,2-,3+,4+,5-,6-
InChI=1S/C6H6Cl6/c7-1-2(8)4(10)6(12)5(11)3(1)9/h1-6H/t1-,2-,3-,4+,5+,6+

> <STRUCTURE_InChIKey>
JLYXXMFPNIAWKQ-CDRYSYESSA-N
JLYXXMFPNIAWKQ-GNIYUCBRSA-N

> <Substance_modify_yyyymmdd>
20080429
20080429

> <Coord_Metals>
0
0

> <Index>
121
122

> <Canonical_Smiles>
ClC1C(Cl)C(Cl)C(Cl)C(Cl)C1Cl

> <Molecular_Weight>
290.82984
290.82984

> <Frequency>
2

$$$$

  SciTegic          2D

 22 24  0  0  0  0            999 V2000
    1.7607   -0.2751    0.0000 N   0  0
   -0.8987    0.0000    0.0000 N   0  0
   -0.6052   -0.9721    0.0000 N   0  0
    0.4035    1.7790    0.0000 N   0  0
   -2.0541   -1.3755    0.0000 C   0  0
    0.3852   -0.6052    0.0000 C   0  0
   -0.6052    0.5686    0.0000 C   0  0
    1.7790    1.2105    0.0000 C   0  0
   -0.8987    1.3205    0.0000 C   0  0
    0.7703   -1.5223    0.0000 C   0  0
   -2.0260   -2.3751    0.0000 H   0  0
   -2.9525   -0.9362    0.0000 H   0  0
    0.5275    0.3846    0.0000 H   0  0
    1.2184   -1.1581    0.0000 H   0  0
   -0.7416    1.5592    0.0000 H   0  0
   -1.3442   -0.1052    0.0000 H   0  0
    1.7018    2.2075    0.0000 H   0  0
    2.6654    0.7474    0.0000 H   0  0
   -0.7904    2.3146    0.0000 H   0  0
   -1.8005    0.8884    0.0000 H   0  0
    0.0518   -2.2178    0.0000 H   0  0
    1.7392   -1.7698    0.0000 H   0  0
  1  6  1  0
  1  8  1  0
  1 10  1  0
  2  6  1  0
  2  5  1  0
  2  9  1  0
  3 10  1  0
  3  5  1  0
  3  7  1  0
  4  8  1  0
  4  9  1  0
  4  7  1  0
  5 11  1  0
  5 12  1  0
  6 13  1  0
  6 14  1  0
  7 15  1  0
  7 16  1  0
  8 17  1  0
  8 18  1  0
  9 19  1  0
  9 20  1  0
 10 21  1  0
 10 22  1  0
V    1 0
V    2 1
V    3 2
V    4 3
V    5 4
V    6 5
V    7 6
V    8 7
V    9 8
V   10 9
M  END
> <DSSTox_RID>
59675

> <DSSTox_CID>
692

> <DSSTox_CID_Parent>
692

> <DSSTox_Generic_SID>
20692

> <DSSTox_FileID>
123_TXCST2_v1a

> <STRUCTURE_Formula>
C6H12N4

> <STRUCTURE_MolecularWeight>
140.1863

> <STRUCTURE_ChemicalType>
defined organic

> <STRUCTURE_TestedForm_DefinedOrganic>
parent

> <STRUCTURE_Shown>
tested chemical

> <TestSubstance_ChemicalName>
Hexamethylenetetramine

> <TestSubstance_CASRN>
100-97-0

> <TestSubstance_Description>
single chemical compound

> <STRUCTURE_ChemicalName_IUPAC>
1,3,5,7-tetraazatricyclo[3.3.1.1~3,7~]decane

> <STRUCTURE_SMILES>
C1N2CN3CN(C2)CN1C3

> <STRUCTURE_Parent_SMILES>
C1N2CN3CN(C2)CN1C3

> <STRUCTURE_InChIS>
InChI=1S/C6H12N4/c1-7-2-9-4-8(1)5-10(3-7)6-9/h1-6H2

> <STRUCTURE_InChIKey>
VKYKSIONXSXAKP-UHFFFAOYSA-N

> <Substance_modify_yyyymmdd>
20080429

> <Coord_Metals>
0

> <Index>
123

> <Canonical_Smiles>
C1N2CN3CN(CN1C3)C2

> <Molecular_Weight>
140.18627

> <Frequency>
1

$$$$

  SciTegic          2D

 32 32  0  0  0  0            999 V2000
    2.5973   -1.5031    0.0000 O   0  0
    1.2990   -0.7500    0.0000 C   0  0
    1.2990    0.7500    0.0000 C   0  0
    0.0000    1.5000    0.0000 C   0  0
   -1.2990    0.7500    0.0000 C   0  0
   -1.2990   -0.7500    0.0000 C   0  0
    0.0000   -1.5000    0.0000 C   0  0
   -2.5972   -1.5031    0.0000 O   0  0
    2.5988    1.5004    0.0000 C   0  0
    3.8990    0.7508    0.0000 C   0  0
    5.1988    1.5013    0.0000 C   0  0
    6.4990    0.7517    0.0000 C   0  0
    7.7987    1.5021    0.0000 C   0  0
    9.0990    0.7525    0.0000 C   0  0
    2.5958   -2.5031    0.0000 H   0  0
    0.0000    2.5000    0.0000 H   0  0
   -2.1651    1.2500    0.0000 H   0  0
    0.0000   -2.5000    0.0000 H   0  0
   -2.5958   -2.5031    0.0000 H   0  0
    2.5985    2.5004    0.0000 H   0  0
    1.7327    2.0003    0.0000 H   0  0
    3.8993   -0.2492    0.0000 H   0  0
    3.0332    0.2504    0.0000 H   0  0
    5.1984    2.5013    0.0000 H   0  0
    4.3327    2.0011    0.0000 H   0  0
    6.4993   -0.2483    0.0000 H   0  0
    5.6332    0.2513    0.0000 H   0  0
    7.7984    2.5021    0.0000 H   0  0
    6.9326    2.0020    0.0000 H   0  0
    9.9650    1.2525    0.0000 H   0  0
    9.0993   -0.2475    0.0000 H   0  0
    9.9651    0.2527    0.0000 H   0  0
  1  2  1  0
  2  3  2  0
  2  7  1  0
  3  4  1  0
  3  9  1  0
  4  5  2  0
  5  6  1  0
  6  7  2  0
  6  8  1  0
  9 10  1  0
 10 11  1  0
 11 12  1  0
 12 13  1  0
 13 14  1  0
  1 15  1  0
  4 16  1  0
  5 17  1  0
  7 18  1  0
  8 19  1  0
  9 20  1  0
  9 21  1  0
 10 22  1  0
 10 23  1  0
 11 24  1  0
 11 25  1  0
 12 26  1  0
 12 27  1  0
 13 28  1  0
 13 29  1  0
 14 30  1  0
 14 31  1  0
 14 32  1  0
V    1 0
V    2 1
V    3 2
V    4 3
V    5 4
V    6 5
V    7 6
V    8 7
V    9 8
V   10 9
V   11 10
V   12 11
V   13 12
V   14 13
M  END
> <DSSTox_RID>
66537

> <DSSTox_CID>
699

> <DSSTox_CID_Parent>
699

> <DSSTox_Generic_SID>
20699

> <DSSTox_FileID>
124_TXCST2_v1a

> <STRUCTURE_Formula>
C12H18O2

> <STRUCTURE_MolecularWeight>
194.2701

> <STRUCTURE_ChemicalType>
defined organic

> <STRUCTURE_TestedForm_DefinedOrganic>
parent

> <STRUCTURE_Shown>
tested chemical

> <TestSubstance_ChemicalName>
4-Hexylresorcinol

> <TestSubstance_CASRN>
136-77-6

> <TestSubstance_Description>
single chemical compound

> <STRUCTURE_ChemicalName_IUPAC>
4-hexylbenzene-1,3-diol

> <STRUCTURE_SMILES>
OC1=C(C=CC(=C1)O)CCCCCC

> <STRUCTURE_Parent_SMILES>
OC1=C(C=CC(=C1)O)CCCCCC

> <STRUCTURE_InChIS>
InChI=1S/C12H18O2/c1-2-3-4-5-6-10-7-8-11(13)9-12(10)14/h7-9,13-14H,2-6H2,1H3

> <STRUCTURE_InChIKey>
WFJIVOKAWHGMBH-UHFFFAOYSA-N

> <Substance_modify_yyyymmdd>
20080429

> <Coord_Metals>
0

> <Index>
124

> <Canonical_Smiles>
CCCCCCc1ccc(O)cc1O

> <Molecular_Weight>
194.27011

> <Frequency>
1

$$$$

  SciTegic          2D

 26 27  0  0  0  0            999 V2000
    2.5973   -1.5031    0.0000 N   0  0
    1.2990   -0.7500    0.0000 C   0  0
    1.2990    0.7500    0.0000 C   0  0
    0.0000    1.5000    0.0000 C   0  0
   -1.2990    0.7500    0.0000 C   0  0
   -1.2990   -0.7500    0.0000 C   0  0
    0.0000   -1.5000    0.0000 C   0  0
    2.5951   -3.0039    0.0000 N   0  0
    3.8933   -3.7570    0.0000 C   0  0
    3.8934   -5.2570    0.0000 C   0  0
    5.1924   -6.0070    0.0000 C   0  0
    6.4915   -5.2571    0.0000 C   0  0
    6.4915   -3.7571    0.0000 C   0  0
    5.1925   -3.0070    0.0000 C   0  0
    3.4642   -1.0046    0.0000 H   0  0
    2.1651    1.2500    0.0000 H   0  0
    0.0000    2.5000    0.0000 H   0  0
   -2.1651    1.2500    0.0000 H   0  0
   -2.1651   -1.2500    0.0000 H   0  0
    0.0000   -2.5000    0.0000 H   0  0
    1.7282   -3.5024    0.0000 H   0  0
    3.0274   -5.7570    0.0000 H   0  0
    5.1924   -7.0070    0.0000 H   0  0
    7.3575   -5.7571    0.0000 H   0  0
    7.3575   -3.2571    0.0000 H   0  0
    5.1925   -2.0070    0.0000 H   0  0
  1  2  1  0
  1  8  1  0
  2  3  2  0
  2  7  1  0
  3  4  1  0
  4  5  2  0
  5  6  1  0
  6  7  2  0
  8  9  1  0
  9 10  2  0
  9 14  1  0
 10 11  1  0
 11 12  2  0
 12 13  1  0
 13 14  2  0
  1 15  1  0
  3 16  1  0
  4 17  1  0
  5 18  1  0
  6 19  1  0
  7 20  1  0
  8 21  1  0
 10 22  1  0
 11 23  1  0
 12 24  1  0
 13 25  1  0
 14 26  1  0
V    1 0
V    2 1
V    3 2
V    4 3
V    5 4
V    6 5
V    7 6
V    8 7
V    9 8
V   10 9
V   11 10
V   12 11
V   13 12
V   14 13
M  END
> <DSSTox_RID>
65976

> <DSSTox_CID>
710

> <DSSTox_CID_Parent>
710

> <DSSTox_Generic_SID>
20710

> <DSSTox_FileID>
125_TXCST2_v1a

> <STRUCTURE_Formula>
C12H12N2

> <STRUCTURE_MolecularWeight>
184.2371

> <STRUCTURE_ChemicalType>
defined organic

> <STRUCTURE_TestedForm_DefinedOrganic>
parent

> <STRUCTURE_Shown>
tested chemical

> <TestSubstance_ChemicalName>
1,2-Diphenylhydrazine

> <TestSubstance_CASRN>
122-66-7

> <TestSubstance_Description>
single chemical compound

> <STRUCTURE_ChemicalName_IUPAC>
1,2-diphenylhydrazine

> <STRUCTURE_SMILES>
N(C1=CC=CC=C1)NC2=CC=CC=C2

> <STRUCTURE_Parent_SMILES>
N(C1=CC=CC=C1)NC2=CC=CC=C2

> <STRUCTURE_InChIS>
InChI=1S/C12H12N2/c1-3-7-11(8-4-1)13-14-12-9-5-2-6-10-12/h1-10,13-14H

> <STRUCTURE_InChIKey>
YBQZXXMEJHZYMB-UHFFFAOYSA-N

> <Substance_modify_yyyymmdd>
20080429

> <Coord_Metals>
0

> <Index>
125

> <Canonical_Smiles>
N(Nc1ccccc1)c2ccccc2

> <Molecular_Weight>
184.23707

> <Frequency>
1

$$$$

  SciTegic          2D

 25 26  0  0  0  0            999 V2000
    0.2433   -2.0726    0.0000 O   0  0
    1.2964   -1.4973    0.0000 S   0  0
    2.3495   -2.0727    0.0000 O   0  0
    0.0000   -0.7486    0.0000 C   0  0
    0.0000    0.7486    0.0000 C   0  0
   -1.2964    1.4973    0.0000 C   0  0
   -2.6111    0.7486    0.0000 C   0  0
   -2.6111   -0.7486    0.0000 C   0  0
   -1.2964   -1.4973    0.0000 C   0  0
   -3.9106   -1.4992    0.0000 S   0  0
   -3.9101   -2.6992    0.0000 O   0  0
   -4.9495   -2.0999    0.0000 O   0  0
   -5.2109   -0.7498    0.0000 N   0  0
   -3.6486    1.3517    0.0000 Cl  0  0
    1.2964    1.4973    0.0000 N   0  0
    2.5929    0.7486    0.0000 C   0  0
    2.5929   -0.7486    0.0000 N   0  0
   -1.2934    2.4973    0.0000 H   0  0
   -1.2934   -2.4973    0.0000 H   0  0
   -6.0769   -1.2499    0.0000 H   0  0
   -5.2114    0.2502    0.0000 H   0  0
    1.2964    2.4973    0.0000 H   0  0
    3.4468    0.2283    0.0000 H   0  0
    2.5694    1.7484    0.0000 H   0  0
    3.4589   -1.2486    0.0000 H   0  0
  1  2  2  0
  2  3  2  0
  2  4  1  0
  2 17  1  0
  4  5  2  0
  4  9  1  0
  5  6  1  0
  5 15  1  0
  6  7  2  0
  7  8  1  0
  7 14  1  0
  8  9  2  0
  8 10  1  0
 10 11  2  0
 10 12  2  0
 10 13  1  0
 15 16  1  0
 16 17  1  0
  6 18  1  0
  9 19  1  0
 13 20  1  0
 13 21  1  0
 15 22  1  0
 16 23  1  0
 16 24  1  0
 17 25  1  0
V    1 0
V    2 1
V    3 2
V    4 3
V    5 4
V    6 5
V    7 6
V    8 7
V    9 8
V   10 9
V   11 10
V   12 11
V   13 12
V   14 13
V   15 14
V   16 15
V   17 16
M  END
> <DSSTox_RID>
60009

> <DSSTox_CID>
713

> <DSSTox_CID_Parent>
713

> <DSSTox_Generic_SID>
20713

> <DSSTox_FileID>
126_TXCST2_v1a

> <STRUCTURE_Formula>
C7H8ClN3O4S2

> <STRUCTURE_MolecularWeight>
297.7391

> <STRUCTURE_ChemicalType>
defined organic

> <STRUCTURE_TestedForm_DefinedOrganic>
parent

> <STRUCTURE_Shown>
tested chemical

> <TestSubstance_ChemicalName>
Hydrochlorothiazide

> <TestSubstance_CASRN>
58-93-5

> <TestSubstance_Description>
single chemical compound

> <Source_ChemicalNote>
tested chemical contained 0.03% water

> <STRUCTURE_ChemicalName_IUPAC>
6-chloro-3,4-dihydro-2H-1,2,4-benzothiadiazine-7-sulfonamide 1,1-dioxide

> <STRUCTURE_SMILES>
O=S1(=O)C2=C(C=C(C(=C2)S(=O)(=O)N)Cl)NCN1

> <STRUCTURE_Parent_SMILES>
O=S1(=O)C2=C(C=C(C(=C2)S(=O)(=O)N)Cl)NCN1

> <STRUCTURE_InChIS>
InChI=1S/C7H8ClN3O4S2/c8-4-1-5-7(2-6(4)16(9,12)13)17(14,15)11-3-10-5/h1-2,10-11H,3H2,(H2,9,12,13)

> <STRUCTURE_InChIKey>
JZUFKLXOESDKRF-UHFFFAOYSA-N

> <Substance_modify_yyyymmdd>
20080429

> <Coord_Metals>
0

> <Index>
126

> <Canonical_Smiles>
NS(=O)(=O)c1cc2c(NCNS2(=O)=O)cc1Cl

> <Molecular_Weight>
297.73912

> <Frequency>
1

$$$$

  SciTegic          2D

 14 14  0  0  0  0            999 V2000
    2.5973   -1.5031    0.0000 O   0  0
    1.2990   -0.7500    0.0000 C   0  0
    1.2990    0.7500    0.0000 C   0  0
    0.0000    1.5000    0.0000 C   0  0
   -1.2990    0.7500    0.0000 C   0  0
   -1.2990   -0.7500    0.0000 C   0  0
    0.0000   -1.5000    0.0000 C   0  0
   -2.6003    1.4977    0.0000 O   0  0
    2.5958   -2.5031    0.0000 H   0  0
    2.1651    1.2500    0.0000 H   0  0
    0.0000    2.5000    0.0000 H   0  0
   -2.1651   -1.2500    0.0000 H   0  0
    0.0000   -2.5000    0.0000 H   0  0
   -3.4657    0.9965    0.0000 H   0  0
  1  2  1  0
  2  3  2  0
  2  7  1  0
  3  4  1  0
  4  5  2  0
  5  6  1  0
  5  8  1  0
  6  7  2  0
  1  9  1  0
  3 10  1  0
  4 11  1  0
  6 12  1  0
  7 13  1  0
  8 14  1  0
V    1 0
V    2 1
V    3 2
V    4 3
V    5 4
V    6 5
V    7 6
V    8 7
M  END
> <DSSTox_RID>
59707

> <DSSTox_CID>
716

> <DSSTox_CID_Parent>
716

> <DSSTox_Generic_SID>
20716

> <DSSTox_FileID>
127_TXCST2_v1a

> <STRUCTURE_Formula>
C6H6O2

> <STRUCTURE_MolecularWeight>
110.1106

> <STRUCTURE_ChemicalType>
defined organic

> <STRUCTURE_TestedForm_DefinedOrganic>
parent

> <STRUCTURE_Shown>
tested chemical

> <TestSubstance_ChemicalName>
Hydroquinone

> <TestSubstance_CASRN>
123-31-9

> <TestSubstance_Description>
single chemical compound

> <STRUCTURE_ChemicalName_IUPAC>
hydroquinone

> <STRUCTURE_SMILES>
OC1=CC=C(C=C1)O

> <STRUCTURE_Parent_SMILES>
OC1=CC=C(C=C1)O

> <STRUCTURE_InChIS>
InChI=1S/C6H6O2/c7-5-1-2-6(8)4-3-5/h1-4,7-8H

> <STRUCTURE_InChIKey>
QIGBRXMKCJKVMJ-UHFFFAOYSA-N

> <Substance_modify_yyyymmdd>
20080429

> <Coord_Metals>
0

> <Index>
127

> <Canonical_Smiles>
Oc1ccc(O)cc1

> <Molecular_Weight>
110.11064

> <Frequency>
1

$$$$

  SciTegic          2D

 18 19  0  0  0  0            999 V2000
   -1.2907    2.9981    0.0000 O   0  0
   -1.2964    1.4973    0.0000 C   0  0
   -2.6111    0.7486    0.0000 C   0  0
   -2.6111   -0.7486    0.0000 C   0  0
   -1.2964   -1.4973    0.0000 C   0  0
    0.0000   -0.7486    0.0000 C   0  0
    1.2964   -1.4973    0.0000 C   0  0
    2.5929   -0.7486    0.0000 C   0  0
    2.5929    0.7486    0.0000 C   0  0
    1.2964    1.4973    0.0000 N   0  0
    0.0000    0.7486    0.0000 C   0  0
   -2.1544    3.5020    0.0000 H   0  0
   -3.4756    1.2512    0.0000 H   0  0
   -3.4756   -1.2512    0.0000 H   0  0
   -1.2934   -2.4973    0.0000 H   0  0
    1.2964   -2.4973    0.0000 H   0  0
    3.4589   -1.2486    0.0000 H   0  0
    3.4589    1.2486    0.0000 H   0  0
  1  2  1  0
  2  3  2  0
  2 11  1  0
  3  4  1  0
  4  5  2  0
  5  6  1  0
  6  7  2  0
  6 11  1  0
  7  8  1  0
  8  9  2  0
  9 10  1  0
 10 11  2  0
  1 12  1  0
  3 13  1  0
  4 14  1  0
  5 15  1  0
  7 16  1  0
  8 17  1  0
  9 18  1  0
V    1 0
V    2 1
V    3 2
V    4 3
V    5 4
V    6 5
V    7 6
V    8 7
V    9 8
V   10 9
V   11 10
M  END
> <DSSTox_RID>
66787

> <DSSTox_CID>
730

> <DSSTox_CID_Parent>
730

> <DSSTox_Generic_SID>
20730

> <DSSTox_FileID>
128_TXCST2_v1a

> <STRUCTURE_Formula>
C9H7NO

> <STRUCTURE_MolecularWeight>
145.158

> <STRUCTURE_ChemicalType>
defined organic

> <STRUCTURE_TestedForm_DefinedOrganic>
parent

> <STRUCTURE_Shown>
tested chemical

> <TestSubstance_ChemicalName>
8-Hydroxyquinoline

> <TestSubstance_CASRN>
148-24-3

> <TestSubstance_Description>
single chemical compound

> <STRUCTURE_ChemicalName_IUPAC>
quinolin-8-ol

> <STRUCTURE_SMILES>
OC1=CC=CC2=CC=CN=C12

> <STRUCTURE_Parent_SMILES>
OC1=CC=CC2=CC=CN=C12

> <STRUCTURE_InChIS>
InChI=1S/C9H7NO/c11-8-5-1-3-7-4-2-6-10-9(7)8/h1-6,11H

> <STRUCTURE_InChIKey>
MCJGNVYPOGVAJF-UHFFFAOYSA-N

> <Substance_modify_yyyymmdd>
20080429

> <Coord_Metals>
0

> <Index>
128

> <Canonical_Smiles>
Oc1cccc2cccnc12

> <Molecular_Weight>
145.15797

> <Frequency>
1

$$$$

  SciTegic          2D

 41 43  0  0  0  0            999 V2000
    4.0872    0.0351    0.0000 C   0  0
    2.5889    0.0182    0.0000 C   0  0
    1.7138   -1.2033    0.0000 C   0  0
    0.2917   -0.7475    0.0000 C   0  0
    0.2917    0.7475    0.0000 C   0  0
   -1.0028    1.5132    0.0000 C   0  0
   -2.3155    0.7475    0.0000 C   0  0
   -2.3155   -0.7475    0.0000 C   0  0
   -1.0028   -1.5132    0.0000 C   0  0
   -3.6187   -1.4919    0.0000 O   0  0
   -3.6267   -2.9927    0.0000 C   0  0
    1.7138    1.2033    0.0000 N   0  0
    2.6400    2.3814    0.0000 C   0  0
    3.8278    2.2105    0.0000 O   0  0
    2.0828    3.7750    0.0000 C   0  0
    3.0082    4.9556    0.0000 C   0  0
    2.4485    6.3472    0.0000 C   0  0
    0.9634    6.5584    0.0000 C   0  0
    0.0380    5.3779    0.0000 C   0  0
    0.5977    3.9862    0.0000 C   0  0
    0.5157    7.6718    0.0000 Cl  0  0
    2.1825   -2.6263    0.0000 C   0  0
    3.6516   -2.9334    0.0000 C   0  0
    4.4513   -2.0387    0.0000 O   0  0
    4.1211   -4.3589    0.0000 O   0  0
    4.5976   -0.8248    0.0000 H   0  0
    4.5770    0.9069    0.0000 H   0  0
    5.0871    0.0470    0.0000 H   0  0
   -0.9997    2.5132    0.0000 H   0  0
   -3.1826    1.2456    0.0000 H   0  0
   -0.9997   -2.5132    0.0000 H   0  0
   -4.4951   -3.4886    0.0000 H   0  0
   -2.7632   -3.4971    0.0000 H   0  0
   -3.6316   -3.9927    0.0000 H   0  0
    3.9982    4.8148    0.0000 H   0  0
    3.0654    7.1343    0.0000 H   0  0
   -0.9520    5.5187    0.0000 H   0  0
   -0.0193    3.1992    0.0000 H   0  0
    2.4949   -3.5763    0.0000 H   0  0
    1.5162   -3.3719    0.0000 H   0  0
    5.1000   -4.5635    0.0000 H   0  0
  1  2  1  0
  2  3  2  0
  2 12  1  0
  3  4  1  0
  3 22  1  0
  4  5  2  0
  4  9  1  0
  5  6  1  0
  5 12  1  0
  6  7  2  0
  7  8  1  0
  8  9  2  0
  8 10  1  0
 10 11  1  0
 12 13  1  0
 13 14  2  0
 13 15  1  0
 15 16  2  0
 15 20  1  0
 16 17  1  0
 17 18  2  0
 18 19  1  0
 18 21  1  0
 19 20  2  0
 22 23  1  0
 23 24  2  0
 23 25  1  0
  1 26  1  0
  1 27  1  0
  1 28  1  0
  6 29  1  0
  7 30  1  0
  9 31  1  0
 11 32  1  0
 11 33  1  0
 11 34  1  0
 16 35  1  0
 17 36  1  0
 19 37  1  0
 20 38  1  0
 22 39  1  0
 22 40  1  0
 25 41  1  0
V    1 0
V    2 1
V    3 2
V    4 3
V    5 4
V    6 5
V    7 6
V    8 7
V    9 8
V   10 9
V   11 10
V   12 11
V   13 12
V   14 13
V   15 14
V   16 15
V   17 16
V   18 17
V   19 18
V   20 19
V   21 20
V   22 21
V   23 22
V   24 23
V   25 24
M  END
> <DSSTox_RID>
65986

> <DSSTox_CID>
740

> <DSSTox_CID_Parent>
740

> <DSSTox_Generic_SID>
20740

> <DSSTox_FileID>
129_TXCST2_v1a

> <STRUCTURE_Formula>
C19H16ClNO4

> <STRUCTURE_MolecularWeight>
357.7876

> <STRUCTURE_ChemicalType>
defined organic

> <STRUCTURE_TestedForm_DefinedOrganic>
parent

> <STRUCTURE_Shown>
tested chemical

> <TestSubstance_ChemicalName>
Indomethacin

> <TestSubstance_CASRN>
53-86-1

> <TestSubstance_Description>
single chemical compound

> <STRUCTURE_ChemicalName_IUPAC>
[1-(4-chlorobenzoyl)-5-methoxy-2-methyl-1H-indol-3-yl]acetic acid

> <STRUCTURE_SMILES>
CC1=C(C2=C(C=CC(=C2)OC)N1C(=O)C3=CC=C(C=C3)Cl)CC(=O)O

> <STRUCTURE_Parent_SMILES>
CC1=C(C2=C(C=CC(=C2)OC)N1C(=O)C3=CC=C(C=C3)Cl)CC(=O)O

> <STRUCTURE_InChIS>
InChI=1S/C19H16ClNO4/c1-11-15(10-18(22)23)16-9-14(25-2)7-8-17(16)21(11)19(24)12-3-5-13(20)6-4-12/h3-9H,10H2,1-2H3,(H,22,23)

> <STRUCTURE_InChIKey>
CGIGDMFJXJATDK-UHFFFAOYSA-N

> <Substance_modify_yyyymmdd>
20080429

> <Coord_Metals>
0

> <Index>
129

> <Canonical_Smiles>
COc1ccc2c(c1)c(CC(=O)O)c(C)n2C(=O)c3ccc(Cl)cc3

> <Molecular_Weight>
357.78764

> <Frequency>
1

$$$$

  SciTegic          2D

 17 17  0  0  0  0            999 V2000
    3.6375   -0.9049    0.0000 O   0  0
    2.5973   -1.5031    0.0000 C   0  0
    1.2990   -0.7500    0.0000 C   0  0
    1.2990    0.7500    0.0000 C   0  0
    0.0000    1.5000    0.0000 C   0  0
   -1.2990    0.7500    0.0000 N   0  0
   -1.2990   -0.7500    0.0000 C   0  0
    0.0000   -1.5000    0.0000 C   0  0
    2.5951   -3.0039    0.0000 N   0  0
    3.8933   -3.7570    0.0000 N   0  0
    2.1651    1.2500    0.0000 H   0  0
    0.0000    2.5000    0.0000 H   0  0
   -2.1651   -1.2500    0.0000 H   0  0
    0.0000   -2.5000    0.0000 H   0  0
    1.7282   -3.5024    0.0000 H   0  0
    3.8919   -4.7570    0.0000 H   0  0
    4.7602   -3.2585    0.0000 H   0  0
  1  2  2  0
  2  3  1  0
  2  9  1  0
  3  4  2  0
  3  8  1  0
  4  5  1  0
  5  6  2  0
  6  7  1  0
  7  8  2  0
  9 10  1  0
  4 11  1  0
  5 12  1  0
  7 13  1  0
  8 14  1  0
  9 15  1  0
 10 16  1  0
 10 17  1  0
V    1 0
V    2 1
V    3 2
V    4 3
V    5 4
V    6 5
V    7 6
V    8 7
V    9 8
V   10 9
M  END
> <DSSTox_RID>
60027

> <DSSTox_CID>
755

> <DSSTox_CID_Parent>
755

> <DSSTox_Generic_SID>
20755

> <DSSTox_FileID>
130_TXCST2_v1a

> <STRUCTURE_Formula>
C6H7N3O

> <STRUCTURE_MolecularWeight>
137.1393

> <STRUCTURE_ChemicalType>
defined organic

> <STRUCTURE_TestedForm_DefinedOrganic>
parent

> <STRUCTURE_Shown>
tested chemical

> <TestSubstance_ChemicalName>
Isoniazid

> <TestSubstance_CASRN>
54-85-3

> <TestSubstance_Description>
single chemical compound

> <STRUCTURE_ChemicalName_IUPAC>
isonicotinohydrazide

> <STRUCTURE_SMILES>
O=C(C1=CC=NC=C1)NN

> <STRUCTURE_Parent_SMILES>
O=C(C1=CC=NC=C1)NN

> <STRUCTURE_InChIS>
InChI=1S/C6H7N3O/c7-9-6(10)5-1-3-8-4-2-5/h1-4H,7H2,(H,9,10)

> <STRUCTURE_InChIKey>
QRXWMOHMRWLFEY-UHFFFAOYSA-N

> <Substance_modify_yyyymmdd>
20080429

> <Coord_Metals>
0

> <Index>
130

> <Canonical_Smiles>
NNC(=O)c1ccncc1

> <Molecular_Weight>
137.13927

> <Frequency>
1

$$$$

  SciTegic          2D

 24 24  0  0  0  0            999 V2000
    2.5625    0.0216    0.0000 C   0  0
    1.2990   -0.7500    0.0000 C   0  0
    1.2990    0.7500    0.0000 C   0  0
    0.0000    1.5000    0.0000 C   0  0
   -1.2990    0.7500    0.0000 C   0  0
   -1.2990   -0.7500    0.0000 C   0  0
   -2.3383   -1.3500    0.0000 O   0  0
    0.0000   -1.5000    0.0000 C   0  0
    0.0000    3.0008    0.0000 C   0  0
    1.2628   -2.2303    0.0000 C   0  0
    2.5629    1.0216    0.0000 H   0  0
    3.4287    0.5213    0.0000 H   0  0
    3.4285   -0.4785    0.0000 H   0  0
    0.4215    0.2706    0.0000 H   0  0
    1.2755    1.7497    0.0000 H   0  0
   -2.1651    1.2500    0.0000 H   0  0
   -0.0236   -0.5003    0.0000 H   0  0
   -0.8775   -1.9795    0.0000 H   0  0
    0.8657    3.5014    0.0000 H   0  0
   -0.8662    3.5005    0.0000 H   0  0
   -0.0005    4.0008    0.0000 H   0  0
    2.1284   -2.7310    0.0000 H   0  0
    1.2622   -3.2303    0.0000 H   0  0
    0.3965   -2.7300    0.0000 H   0  0
  1  2  1  0
  2  3  1  0
  2  8  1  0
  2 10  1  0
  3  4  1  0
  4  5  2  0
  4  9  1  0
  5  6  1  0
  6  7  2  0
  6  8  1  0
  1 11  1  0
  1 12  1  0
  1 13  1  0
  3 14  1  0
  3 15  1  0
  5 16  1  0
  8 17  1  0
  8 18  1  0
  9 19  1  0
  9 20  1  0
  9 21  1  0
 10 22  1  0
 10 23  1  0
 10 24  1  0
V    1 0
V    2 1
V    3 2
V    4 3
V    5 4
V    6 5
V    7 6
V    8 7
V    9 8
V   10 9
M  END
> <DSSTox_RID>
65331

> <DSSTox_CID>
759

> <DSSTox_CID_Parent>
759

> <DSSTox_Generic_SID>
20759

> <DSSTox_FileID>
131_TXCST2_v1a

> <STRUCTURE_Formula>
C9H14O

> <STRUCTURE_MolecularWeight>
138.2069

> <STRUCTURE_ChemicalType>
defined organic

> <STRUCTURE_TestedForm_DefinedOrganic>
parent

> <STRUCTURE_Shown>
tested chemical

> <TestSubstance_ChemicalName>
Isophorone

> <TestSubstance_CASRN>
78-59-1

> <TestSubstance_Description>
single chemical compound

> <STRUCTURE_ChemicalName_IUPAC>
3,5,5-trimethylcyclohex-2-en-1-one

> <STRUCTURE_SMILES>
CC1(CC(=CC(=O)C1)C)C

> <STRUCTURE_Parent_SMILES>
CC1(CC(=CC(=O)C1)C)C

> <STRUCTURE_InChIS>
InChI=1S/C9H14O/c1-7-4-8(10)6-9(2,3)5-7/h4H,5-6H2,1-3H3

> <STRUCTURE_InChIKey>
HJOVHMDZYOCNQW-UHFFFAOYSA-N

> <Substance_modify_yyyymmdd>
20080429

> <Coord_Metals>
0

> <Index>
131

> <Canonical_Smiles>
CC1=CC(=O)CC(C)(C)C1

> <Molecular_Weight>
138.20685

> <Frequency>
1

$$$$

  SciTegic          2D

 26 26  0  0  0  0            999 V2000
    1.5548   -3.6021    0.0000 O   0  0
    2.5951   -3.0039    0.0000 C   0  0
    2.5973   -1.5031    0.0000 N   0  0
    1.2990   -0.7500    0.0000 C   0  0
    1.2990    0.7500    0.0000 C   0  0
    0.0000    1.5000    0.0000 C   0  0
   -1.2990    0.7500    0.0000 C   0  0
   -1.2990   -0.7500    0.0000 C   0  0
    0.0000   -1.5000    0.0000 C   0  0
   -2.3383   -1.3500    0.0000 Cl  0  0
    3.8933   -3.7570    0.0000 O   0  0
    3.8912   -5.2578    0.0000 C   0  0
    5.1894   -6.0109    0.0000 C   0  0
    2.5902   -6.0059    0.0000 C   0  0
    3.4642   -1.0046    0.0000 H   0  0
    2.1651    1.2500    0.0000 H   0  0
    0.0000    2.5000    0.0000 H   0  0
   -2.1651    1.2500    0.0000 H   0  0
    0.0000   -2.5000    0.0000 H   0  0
    4.7581   -4.7593    0.0000 H   0  0
    5.1880   -7.0109    0.0000 H   0  0
    6.0563   -5.5124    0.0000 H   0  0
    6.0546   -6.5123    0.0000 H   0  0
    1.7247   -5.5050    0.0000 H   0  0
    1.7235   -6.5048    0.0000 H   0  0
    2.5888   -7.0059    0.0000 H   0  0
  1  2  2  0
  2  3  1  0
  2 11  1  0
  3  4  1  0
  4  5  2  0
  4  9  1  0
  5  6  1  0
  6  7  2  0
  7  8  1  0
  8  9  2  0
  8 10  1  0
 11 12  1  0
 12 13  1  0
 12 14  1  0
  3 15  1  0
  5 16  1  0
  6 17  1  0
  7 18  1  0
  9 19  1  0
 12 20  1  0
 13 21  1  0
 13 22  1  0
 13 23  1  0
 14 24  1  0
 14 25  1  0
 14 26  1  0
V    1 0
V    2 1
V    3 2
V    4 3
V    5 4
V    6 5
V    7 6
V    8 7
V    9 8
V   10 9
V   11 10
V   12 11
V   13 12
V   14 13
M  END
> <DSSTox_RID>
59821

> <DSSTox_CID>
764

> <DSSTox_CID_Parent>
764

> <DSSTox_Generic_SID>
20764

> <DSSTox_FileID>
132_TXCST2_v1a

> <STRUCTURE_Formula>
C10H12ClNO2

> <STRUCTURE_MolecularWeight>
213.6608

> <STRUCTURE_ChemicalType>
defined organic

> <STRUCTURE_TestedForm_DefinedOrganic>
parent

> <STRUCTURE_Shown>
tested chemical

> <TestSubstance_ChemicalName>
Chlorpropham

> <TestSubstance_CASRN>
101-21-3

> <TestSubstance_Description>
single chemical compound

> <STRUCTURE_ChemicalName_IUPAC>
1-methylethyl (3-chlorophenyl)carbamate

> <STRUCTURE_SMILES>
O=C(NC1=CC=CC(=C1)Cl)OC(C)C

> <STRUCTURE_Parent_SMILES>
O=C(NC1=CC=CC(=C1)Cl)OC(C)C

> <STRUCTURE_InChIS>
InChI=1S/C10H12ClNO2/c1-7(2)14-10(13)12-9-5-3-4-8(11)6-9/h3-7H,1-2H3,(H,12,13)

> <STRUCTURE_InChIKey>
CWJSHJJYOPWUGX-UHFFFAOYSA-N

> <Substance_modify_yyyymmdd>
20080429

> <Coord_Metals>
0

> <Index>
132

> <Canonical_Smiles>
CC(C)OC(=O)Nc1cccc(Cl)c1

> <Molecular_Weight>
213.66077

> <Frequency>
1

$$$$

  SciTegic          2D

 21 25  0  0  0  0            999 V2000
   -1.3100    1.0700    0.0000 C   0  0
    0.3500   -0.5100    0.0000 C   0  0
   -0.4400    0.3100    0.0000 C   0  0
    1.2100   -1.3100    0.0000 C   0  0
    0.3600    1.0700    0.0000 C   0  0
    1.2100    0.3100    0.0000 C   0  0
   -1.3100   -0.5100    0.0000 C   0  0
   -0.4300   -1.3200    0.0000 C   0  0
    1.7200    1.7600    0.0000 C   0  0
   -1.8600   -1.9100    0.0000 C   0  0
   -2.7047   -2.7623    0.0000 O   0  0
   -1.6347    0.4222    0.0000 Cl  0  0
    1.5457   -0.4085    0.0000 Cl  0  0
    1.8608   -2.3182    0.0000 Cl  0  0
   -2.3150    1.7257    0.0000 Cl  0  0
    0.2714    2.2667    0.0000 Cl  0  0
    2.3955    0.1240    0.0000 Cl  0  0
   -2.4898   -0.2907    0.0000 Cl  0  0
   -0.5903   -2.5093    0.0000 Cl  0  0
    1.5868    2.9526    0.0000 Cl  0  0
    2.8456    1.3442    0.0000 Cl  0  0
  1  3  1  0
  1  5  1  0
  1  7  1  0
  1 15  1  0
  2  7  1  0
  2  4  1  0
  2 13  1  0
  2  5  1  0
  3  6  1  0
  3  8  1  0
  3 12  1  0
  4 14  1  0
  4  8  1  0
  4  6  1  0
  5  9  1  0
  5 16  1  0
  6 17  1  0
  6  9  1  0
  7 10  1  0
  7 18  1  0
  8 19  1  0
  8 10  1  0
  9 20  1  0
  9 21  1  0
 10 11  2  0
V    1 0
V    2 1
V    3 2
V    4 3
V    5 4
V    6 5
V    7 6
V    8 7
V    9 8
V   10 9
V   11 10
V   12 11
V   13 12
V   14 13
V   15 14
V   16 15
V   17 16
V   18 17
V   19 18
V   20 19
V   21 20
M  END
> <DSSTox_RID>
66798

> <DSSTox_CID>
770

> <DSSTox_CID_Parent>
770

> <DSSTox_Generic_SID>
20770

> <DSSTox_FileID>
133_TXCST2_v1a

> <STRUCTURE_Formula>
C10Cl10O

> <STRUCTURE_MolecularWeight>
490.6364

> <STRUCTURE_ChemicalType>
defined organic

> <STRUCTURE_TestedForm_DefinedOrganic>
parent

> <STRUCTURE_Shown>
tested chemical

> <TestSubstance_ChemicalName>
Kepone

> <TestSubstance_CASRN>
143-50-0

> <TestSubstance_Description>
single chemical compound

> <ChemicalNote>
stereochem

> <Source_ChemicalNote>
tested chemical contained 3.5% water (0.99 moles H2O)

> <STRUCTURE_ChemicalName_IUPAC>
1,1a,3,3a,4,5,5,5a,5b,6-decachlorooctahydro-2H-1,3,4-(methanetriyl)cyclobuta[cd]pentalen-2-one

> <STRUCTURE_SMILES>
ClC54C(=O)C1(Cl)C2(Cl)C5(Cl)C3(Cl)C4(Cl)C1(Cl)C2(Cl)C3(Cl)Cl

> <STRUCTURE_Parent_SMILES>
ClC54C(=O)C1(Cl)C2(Cl)C5(Cl)C3(Cl)C4(Cl)C1(Cl)C2(Cl)C3(Cl)Cl

> <STRUCTURE_InChIS>
InChI=1S/C10Cl10O/c11-2-1(21)3(12)6(15)4(2,13)8(17)5(2,14)7(3,16)9(6,18)10(8,19)20

> <STRUCTURE_InChIKey>
LHHGDZSESBACKH-UHFFFAOYSA-N

> <Substance_modify_yyyymmdd>
20080429

> <Coord_Metals>
0

> <Index>
133

> <Canonical_Smiles>
ClC1(Cl)C2(Cl)C3(Cl)C4(Cl)C(=O)C5(Cl)C(Cl)(C1(Cl)C35Cl)C24Cl

> <Molecular_Weight>
490.63639

> <Frequency>
1

$$$$

  SciTegic          2D

 65 67  0  0  0  0            999 V2000
    2.5123   -4.1117    0.0000 C   0  0
    1.2908   -3.2459    0.0000 C   0  0
    1.4298   -1.7553    0.0000 C   0  0
   -4.2505   -0.4786    0.0000 C   0  0
   -0.3357    0.1539    0.0000 C   0  0
    2.3733   -5.6023    0.0000 C   0  0
    3.8728   -3.4870    0.0000 C   0  0
    1.0903   -0.3143    0.0000 O   0  0
   -0.0697   -3.8706    0.0000 C   0  0
   -3.3396   -1.6704    0.0000 O   0  0
    1.0023   -6.2419    0.0000 C   0  0
   -5.7381   -0.6715    0.0000 C   0  0
   -1.5420   -4.0232    0.0000 C   0  0
    2.7903   -1.1306    0.0000 C   0  0
   -0.2192   -5.3760    0.0000 C   0  0
   -3.9415   -3.0221    0.0000 C   0  0
   -1.0807   -0.5132    0.0000 O   0  0
   -6.3147   -2.0563    0.0000 C   0  0
   -3.7892    0.6292    0.0000 O   0  0
    4.0118   -1.9964    0.0000 C   0  0
   -5.4038   -3.2480    0.0000 C   0  0
   -0.6441    1.6227    0.0000 C   0  0
   -2.4530   -2.8305    0.0000 C   0  0
   -7.1845   -0.8583    0.0000 O   0  0
   -0.3252   -6.8529    0.0000 C   0  0
    5.1981   -2.8820    0.0000 C   0  0
   -2.0700    2.0909    0.0000 C   0  0
    0.4740    2.6238    0.0000 C   0  0
   -2.3785    3.5597    0.0000 C   0  0
    0.4750   -2.6675    0.0000 H   0  0
    0.5315   -2.1948    0.0000 H   0  0
    3.1909   -6.1782    0.0000 H   0  0
    4.6886   -4.0654    0.0000 H   0  0
    0.0508   -2.8778    0.0000 H   0  0
    0.9123   -7.2379    0.0000 H   0  0
   -5.1122   -1.4515    0.0000 H   0  0
   -5.3321    0.2423    0.0000 H   0  0
   -2.5338   -4.1514    0.0000 H   0  0
   -1.9271   -4.9461    0.0000 H   0  0
    3.7086   -0.7348    0.0000 H   0  0
    1.9611   -0.5715    0.0000 H   0  0
   -1.0190   -4.7757    0.0000 H   0  0
   -4.3251   -3.9456    0.0000 H   0  0
   -6.6764   -2.9886    0.0000 H   0  0
    4.0802   -0.9988    0.0000 H   0  0
   -5.0517   -2.3121    0.0000 H   0  0
   -6.3968   -3.3665    0.0000 H   0  0
   -1.3891    0.9556    0.0000 H   0  0
   -2.0679   -1.9076    0.0000 H   0  0
   -1.4612   -2.7024    0.0000 H   0  0
   -6.8004    0.0650    0.0000 H   0  0
    0.4886   -7.4340    0.0000 H   0  0
   -0.4214   -7.8483    0.0000 H   0  0
   -1.2353   -7.2674    0.0000 H   0  0
    5.1057   -3.8777    0.0000 H   0  0
    6.0141   -3.4601    0.0000 H   0  0
    6.1068   -2.4645    0.0000 H   0  0
   -2.8150    1.4238    0.0000 H   0  0
   -1.3249    2.7578    0.0000 H   0  0
    0.2694    3.6027    0.0000 H   0  0
    1.2193    3.2905    0.0000 H   0  0
    1.4241    2.3118    0.0000 H   0  0
   -3.3285    3.8716    0.0000 H   0  0
   -1.6335    4.2268    0.0000 H   0  0
   -2.5835    4.5384    0.0000 H   0  0
  1  2  1  0
  1  6  1  0
  1  7  2  0
  2  3  1  0
  2  9  1  0
  3  8  1  0
  3 14  1  0
  4 10  1  0
  4 19  2  0
  4 12  1  0
  5  8  1  0
  5 17  2  0
  5 22  1  0
  6 11  2  0
  7 20  1  0
  9 13  1  0
  9 15  1  0
 10 16  1  0
 11 15  1  0
 12 18  1  0
 13 23  1  0
 14 20  1  0
 15 25  1  0
 16 23  1  0
 16 21  1  0
 18 21  1  0
 18 24  1  0
 20 26  1  0
 22 27  1  0
 22 28  1  0
 27 29  1  0
  2 30  1  0
  3 31  1  0
  6 32  1  0
  7 33  1  0
  9 34  1  0
 11 35  1  0
 12 36  1  0
 12 37  1  0
 13 38  1  0
 13 39  1  0
 14 40  1  0
 14 41  1  0
 15 42  1  0
 16 43  1  0
 18 44  1  0
 20 45  1  0
 21 46  1  0
 21 47  1  0
 22 48  1  0
 23 49  1  0
 23 50  1  0
 24 51  1  0
 25 52  1  0
 25 53  1  0
 25 54  1  0
 26 55  1  0
 26 56  1  0
 26 57  1  0
 27 58  1  0
 27 59  1  0
 28 60  1  0
 28 61  1  0
 28 62  1  0
 29 63  1  0
 29 64  1  0
 29 65  1  0
V    1 0
V    2 1
V    3 2
V    4 3
V    5 4
V    6 5
V    7 6
V    8 7
V    9 8
V   10 9
V   11 10
V   12 11
V   13 12
V   14 13
V   15 14
V   16 15
V   17 16
V   18 17
V   19 18
V   20 19
V   21 20
V   22 21
V   23 22
V   24 23
V   25 24
V   26 25
V   27 26
V   28 27
V   29 28
M  END
> <DSSTox_RID>
62380

> <DSSTox_CID>
784

> <DSSTox_CID_Parent>
784

> <DSSTox_Generic_SID>
20784

> <DSSTox_FileID>
134_TXCST2_v1a

> <STRUCTURE_Formula>
C24H36O5

> <STRUCTURE_MolecularWeight>
404.5396

> <STRUCTURE_ChemicalType>
defined organic

> <STRUCTURE_TestedForm_DefinedOrganic>
parent

> <STRUCTURE_Shown>
tested chemical

> <TestSubstance_ChemicalName>
Lovastatin

> <TestSubstance_CASRN>
75330-75-5

> <TestSubstance_Description>
single chemical compound

> <ChemicalNote>
stereochem

> <Source_ChemicalNote>
tested chemical contained 0.4% water (0.09 moles H2O)

> <STRUCTURE_ChemicalName_IUPAC>
(1S,3R,7S,8S,8aR)-8-{2-[(2R,4R)-4-hydroxy-6-oxotetrahydro-2H-pyran-2-yl]ethyl}-3,7-dimethyl-1,2,3,7,8,8a-hexahydronaphthalen-1-yl (2S)-2-methylbutanoate

> <STRUCTURE_SMILES>
C[C@@H](CC)C(=O)O[C@H]2C[C@@H](C)\C=C3\C=C/[C@H](C)[C@H](CC[C@@H]1C[C@@H](O)CC(=O)O1)[C@@H]23

> <STRUCTURE_Parent_SMILES>
C[C@@H](CC)C(=O)O[C@H]2C[C@@H](C)\C=C3\C=C/[C@H](C)[C@H](CC[C@@H]1C[C@@H](O)CC(=O)O1)[C@@H]23

> <STRUCTURE_InChIS>
InChI=1S/C24H36O5/c1-5-15(3)24(27)29-21-11-14(2)10-17-7-6-16(4)20(23(17)21)9-8-19-12-18(25)13-22(26)28-19/h6-7,10,14-16,18-21,23,25H,5,8-9,11-13H2,1-4H3/t14-,15-,16-,18+,19+,20-,21-,23-/m0/s1

> <STRUCTURE_InChIKey>
PCZOHLXUXFIOCF-BXMDZJJMSA-N

> <Substance_modify_yyyymmdd>
20080429

> <Coord_Metals>
0

> <Index>
134

> <Canonical_Smiles>
CCC(C)C(=O)OC1CC(C)C=C2C=CC(C)C(CCC3CC(O)CC(=O)O3)C12

> <Molecular_Weight>
404.53964

> <Frequency>
1

$$$$

  SciTegic          2D

 38 37  0  0  0  0            999 V2000
    9.0999    1.9500    0.0000 O   0  0
    9.0999    0.7500    0.0000 C   0  0
    7.7999    0.0000    0.0000 C   0  0
    7.7999   -1.5007    0.0000 S   0  0
    9.0992   -2.2520    0.0000 P   0  0
    8.0601   -2.8523    0.0000 O   0  0
    9.1009   -3.7528    0.0000 O   0  0
    7.8025   -4.5055    0.0000 C   0  0
   10.3978   -1.4994    0.0000 O   0  0
   11.6992   -2.2468    0.0000 C   0  0
    6.5000    0.7500    0.0000 C   0  0
    5.2000    0.0000    0.0000 C   0  0
    5.2000   -1.2000    0.0000 O   0  0
    3.9000    0.7500    0.0000 O   0  0
    2.6000    0.0000    0.0000 C   0  0
    1.3000    0.7500    0.0000 C   0  0
   10.3999    0.0000    0.0000 O   0  0
   11.6999    0.7500    0.0000 C   0  0
   12.9999    0.0000    0.0000 C   0  0
    8.6659   -0.5001    0.0000 H   0  0
    7.8035   -5.5055    0.0000 H   0  0
    6.9371   -5.0066    0.0000 H   0  0
    6.9357   -4.0067    0.0000 H   0  0
   12.5644   -1.7454    0.0000 H   0  0
   12.5661   -2.7453    0.0000 H   0  0
   11.7012   -3.2468    0.0000 H   0  0
    6.5000    1.7500    0.0000 H   0  0
    5.6340    1.2501    0.0000 H   0  0
    2.6000   -1.0000    0.0000 H   0  0
    3.4659   -0.5001    0.0000 H   0  0
    0.4338    0.2503    0.0000 H   0  0
    1.3000    1.7500    0.0000 H   0  0
    0.4340    1.2501    0.0000 H   0  0
   11.6999    1.7500    0.0000 H   0  0
   10.8340    1.2501    0.0000 H   0  0
   13.8661    0.4997    0.0000 H   0  0
   12.9999   -1.0000    0.0000 H   0  0
   13.8658   -0.5001    0.0000 H   0  0
  1  2  2  0
  2  3  1  0
  2 17  1  0
  3  4  1  0
  3 11  1  0
  4  5  1  0
  5  6  2  0
  5  7  1  0
  5  9  1  0
  7  8  1  0
  9 10  1  0
 11 12  1  0
 12 13  2  0
 12 14  1  0
 14 15  1  0
 15 16  1  0
 17 18  1  0
 18 19  1  0
  3 20  1  0
  8 21  1  0
  8 22  1  0
  8 23  1  0
 10 24  1  0
 10 25  1  0
 10 26  1  0
 11 27  1  0
 11 28  1  0
 15 29  1  0
 15 30  1  0
 16 31  1  0
 16 32  1  0
 16 33  1  0
 18 34  1  0
 18 35  1  0
 19 36  1  0
 19 37  1  0
 19 38  1  0
V    1 0
V    2 1
V    3 2
V    4 3
V    5 4
V    6 5
V    7 6
V    8 7
V    9 8
V   10 9
V   11 10
V   12 11
V   13 12
V   14 13
V   15 14
V   16 15
V   17 16
V   18 17
V   19 18
M  END
> <DSSTox_RID>
65282

> <DSSTox_CID>
790

> <DSSTox_CID_Parent>
790

> <DSSTox_Generic_SID>
20790

> <DSSTox_FileID>
135_TXCST2_v1a

> <STRUCTURE_Formula>
C10H19O7PS

> <STRUCTURE_MolecularWeight>
314.2924

> <STRUCTURE_ChemicalType>
defined organic

> <STRUCTURE_TestedForm_DefinedOrganic>
parent

> <STRUCTURE_Shown>
tested chemical

> <TestSubstance_ChemicalName>
Malaoxon

> <TestSubstance_CASRN>
1634-78-2

> <TestSubstance_Description>
single chemical compound

> <STRUCTURE_ChemicalName_IUPAC>
diethyl 2-[(dimethoxyphosphoryl)thio]succinate

> <STRUCTURE_SMILES>
O=C(C(SP(=O)(OC)OC)CC(=O)OCC)OCC

> <STRUCTURE_Parent_SMILES>
O=C(C(SP(=O)(OC)OC)CC(=O)OCC)OCC

> <STRUCTURE_InChIS>
InChI=1S/C10H19O7PS/c1-5-16-9(11)7-8(10(12)17-6-2)19-18(13,14-3)15-4/h8H,5-7H2,1-4H3

> <STRUCTURE_InChIKey>
WSORODGWGUUOBO-UHFFFAOYSA-N

> <Substance_modify_yyyymmdd>
20080429

> <Coord_Metals>
0

> <Index>
135

> <Canonical_Smiles>
CCOC(=O)CC(SP(=O)(OC)OC)C(=O)OCC

> <Molecular_Weight>
314.29242

> <Frequency>
1

$$$$

  SciTegic          2D

 38 37  0  0  0  0            999 V2000
    9.0999    1.9500    0.0000 O   0  0
    9.0999    0.7500    0.0000 C   0  0
    7.7999    0.0000    0.0000 C   0  0
    7.7999   -1.5007    0.0000 S   0  0
    9.0992   -2.2520    0.0000 P   0  0
    8.0601   -2.8523    0.0000 S   0  0
    9.1009   -3.7528    0.0000 O   0  0
    7.8025   -4.5055    0.0000 C   0  0
   10.3978   -1.4994    0.0000 O   0  0
   11.6992   -2.2468    0.0000 C   0  0
    6.5000    0.7500    0.0000 C   0  0
    5.2000    0.0000    0.0000 C   0  0
    5.2000   -1.2000    0.0000 O   0  0
    3.9000    0.7500    0.0000 O   0  0
    2.6000    0.0000    0.0000 C   0  0
    1.3000    0.7500    0.0000 C   0  0
   10.3999    0.0000    0.0000 O   0  0
   11.6999    0.7500    0.0000 C   0  0
   12.9999    0.0000    0.0000 C   0  0
    8.6659   -0.5001    0.0000 H   0  0
    7.8035   -5.5055    0.0000 H   0  0
    6.9371   -5.0066    0.0000 H   0  0
    6.9357   -4.0067    0.0000 H   0  0
   12.5644   -1.7454    0.0000 H   0  0
   12.5661   -2.7453    0.0000 H   0  0
   11.7012   -3.2468    0.0000 H   0  0
    6.5000    1.7500    0.0000 H   0  0
    5.6340    1.2501    0.0000 H   0  0
    2.6000   -1.0000    0.0000 H   0  0
    3.4659   -0.5001    0.0000 H   0  0
    0.4338    0.2503    0.0000 H   0  0
    1.3000    1.7500    0.0000 H   0  0
    0.4340    1.2501    0.0000 H   0  0
   11.6999    1.7500    0.0000 H   0  0
   10.8340    1.2501    0.0000 H   0  0
   13.8661    0.4997    0.0000 H   0  0
   12.9999   -1.0000    0.0000 H   0  0
   13.8658   -0.5001    0.0000 H   0  0
  1  2  2  0
  2  3  1  0
  2 17  1  0
  3  4  1  0
  3 11  1  0
  4  5  1  0
  5  6  2  0
  5  7  1  0
  5  9  1  0
  7  8  1  0
  9 10  1  0
 11 12  1  0
 12 13  2  0
 12 14  1  0
 14 15  1  0
 15 16  1  0
 17 18  1  0
 18 19  1  0
  3 20  1  0
  8 21  1  0
  8 22  1  0
  8 23  1  0
 10 24  1  0
 10 25  1  0
 10 26  1  0
 11 27  1  0
 11 28  1  0
 15 29  1  0
 15 30  1  0
 16 31  1  0
 16 32  1  0
 16 33  1  0
 18 34  1  0
 18 35  1  0
 19 36  1  0
 19 37  1  0
 19 38  1  0
V    1 0
V    2 1
V    3 2
V    4 3
V    5 4
V    6 5
V    7 6
V    8 7
V    9 8
V   10 9
V   11 10
V   12 11
V   13 12
V   14 13
V   15 14
V   16 15
V   17 16
V   18 17
V   19 18
M  END
> <DSSTox_RID>
62424

> <DSSTox_CID>
791

> <DSSTox_CID_Parent>
791

> <DSSTox_Generic_SID>
20791

> <DSSTox_FileID>
136_TXCST2_v1a

> <STRUCTURE_Formula>
C10H19O6PS2

> <STRUCTURE_MolecularWeight>
330.358

> <STRUCTURE_ChemicalType>
defined organic

> <STRUCTURE_TestedForm_DefinedOrganic>
parent

> <STRUCTURE_Shown>
tested chemical

> <TestSubstance_ChemicalName>
Malathion

> <TestSubstance_CASRN>
121-75-5

> <TestSubstance_Description>
single chemical compound

> <STRUCTURE_ChemicalName_IUPAC>
diethyl 2-[(dimethoxyphosphorothioyl)thio]succinate

> <STRUCTURE_SMILES>
O=C(C(SP(=S)(OC)OC)CC(=O)OCC)OCC

> <STRUCTURE_Parent_SMILES>
O=C(C(SP(=S)(OC)OC)CC(=O)OCC)OCC

> <STRUCTURE_InChIS>
InChI=1S/C10H19O6PS2/c1-5-15-9(11)7-8(10(12)16-6-2)19-17(18,13-3)14-4/h8H,5-7H2,1-4H3

> <STRUCTURE_InChIKey>
JXSJBGJIGXNWCI-UHFFFAOYSA-N

> <Substance_modify_yyyymmdd>
20080429

> <Coord_Metals>
0

> <Index>
136

> <Canonical_Smiles>
CCOC(=O)CC(SP(=S)(OC)OC)C(=O)OCC

> <Molecular_Weight>
330.35802

> <Frequency>
1

$$$$

  SciTegic          2D

 12 12  0  0  0  0            999 V2000
    2.3383   -1.3500    0.0000 O   0  0
    1.2990   -0.7500    0.0000 C   0  0
    1.2990    0.7500    0.0000 C   0  0
    0.0000    1.5000    0.0000 C   0  0
   -1.2990    0.7500    0.0000 C   0  0
   -2.3383    1.3500    0.0000 O   0  0
   -1.2990   -0.7500    0.0000 N   0  0
    0.0000   -1.5000    0.0000 N   0  0
    2.1651    1.2500    0.0000 H   0  0
    0.0000    2.5000    0.0000 H   0  0
   -2.1651   -1.2500    0.0000 H   0  0
    0.0000   -2.5000    0.0000 H   0  0
  1  2  2  0
  2  3  1  0
  2  8  1  0
  3  4  2  0
  4  5  1  0
  5  6  2  0
  5  7  1  0
  7  8  1  0
  3  9  1  0
  4 10  1  0
  7 11  1  0
  8 12  1  0
V    1 0
V    2 1
V    3 2
V    4 3
V    5 4
V    6 5
V    7 6
V    8 7
M  END
> <DSSTox_RID>
65421

> <DSSTox_CID>
792

> <DSSTox_CID_Parent>
792

> <DSSTox_Generic_SID>
20792

> <DSSTox_FileID>
137_TXCST2_v1a

> <STRUCTURE_Formula>
C4H4N2O2

> <STRUCTURE_MolecularWeight>
112.0868

> <STRUCTURE_ChemicalType>
defined organic

> <STRUCTURE_TestedForm_DefinedOrganic>
parent

> <STRUCTURE_Shown>
tested chemical

> <TestSubstance_ChemicalName>
Maleic hydrazide

> <TestSubstance_CASRN>
123-33-1

> <TestSubstance_Description>
single chemical compound

> <STRUCTURE_ChemicalName_IUPAC>
1,2-dihydropyridazine-3,6-dione

> <STRUCTURE_SMILES>
O=C1C=CC(=O)NN1

> <STRUCTURE_Parent_SMILES>
O=C1C=CC(=O)NN1

> <STRUCTURE_InChIS>
InChI=1S/C4H4N2O2/c7-3-1-2-4(8)6-5-3/h1-2H,(H,5,7)(H,6,8)

> <STRUCTURE_InChIKey>
BGRDGMRNKXEXQD-UHFFFAOYSA-N

> <Substance_modify_yyyymmdd>
20080429

> <Coord_Metals>
0

> <Index>
137

> <Canonical_Smiles>
O=C1NNC(=O)C=C1

> <Molecular_Weight>
112.08676

> <Frequency>
1

$$$$

  SciTegic          2D

 18 17  0  0  0  0            999 V2000
    2.6000    0.0000    0.0000 C   0  0
    2.6000   -1.2000    0.0000 S   0  0
    1.3000    0.7500    0.0000 S   0  0
    3.9000    0.7500    0.0000 N   0  0
    5.2000    0.0000    0.0000 C   0  0
    6.5000    0.7500    0.0000 C   0  0
    7.7999    0.0000    0.0000 N   0  0
    9.0999    0.7500    0.0000 C   0  0
    9.0999    1.9500    0.0000 S   0  0
   10.3999    0.0000    0.0000 S   0  0
    0.4338    0.2503    0.0000 H   0  0
    3.9000    1.7500    0.0000 H   0  0
    4.3340   -0.5001    0.0000 H   0  0
    5.2000   -1.0000    0.0000 H   0  0
    7.3659    1.2501    0.0000 H   0  0
    6.5000    1.7500    0.0000 H   0  0
    7.7999   -1.0000    0.0000 H   0  0
   11.2661    0.4997    0.0000 H   0  0
  1  2  2  0
  1  3  1  0
  1  4  1  0
  4  5  1  0
  5  6  1  0
  6  7  1  0
  7  8  1  0
  8  9  2  0
  8 10  1  0
  3 11  1  0
  4 12  1  0
  5 13  1  0
  5 14  1  0
  6 15  1  0
  6 16  1  0
  7 17  1  0
 10 18  1  0
V    1 0
V    2 1
V    3 2
V    4 3
V    5 4
V    6 5
V    7 6
V    8 7
V    9 8
V   10 9
M  END
> <DSSTox_RID>
59602
62325

> <DSSTox_CID>
794
14695

> <DSSTox_Generic_SID>
20794
34695

> <DSSTox_FileID>
138_TXCST2_v1a
742_TXCST2_v1a

> <STRUCTURE_Formula>
C4H6MnN2S4
C8H12MnN4S8Zn

> <STRUCTURE_MolecularWeight>
265.3019
541.0747

> <STRUCTURE_ChemicalType>
organometallic
organometallic

> <STRUCTURE_Shown>
tested chemical
tested chemical

> <TestSubstance_ChemicalName>
Maneb
Mancozeb

> <TestSubstance_CASRN>
12427-38-2
8018-01-7

> <TestSubstance_Description>
single chemical compound
single chemical compound

> <Source_ChemicalNote>
MolWt is recorded as x(265.3)
tested chemical contained 1.93% water (0.59 moles H2O)

> <STRUCTURE_ChemicalName_IUPAC>
manganese(2+) ethane-1,2-diylbis(dithiocarbamate)
manganese(2+) ethane-1,2-diylbis(dithiocarbamate) zinc ethane-1,2-diylbis(dithiocarbamate)

> <STRUCTURE_SMILES>
[Mn+2].[S-]C(=S)NCCNC(=S)[S-]
S=C([S-])NCCNC([S-])=S.S=C([S-])NCCNC([S-])=S.[Zn+2].[Mn+2]

> <STRUCTURE_InChIS>
InChI=1S/C4H8N2S4.Mn/c7-3(8)5-1-2-6-4(9)10;/h1-2H2,(H2,5,7,8)(H2,6,9,10);/q;+2/p-2
InChI=1S/2C4H8N2S4.Mn.Zn/c2*7-3(8)5-1-2-6-4(9)10;;/h2*1-2H2,(H2,5,7,8)(H2,6,9,10);;/q;;2*+2/p-4

> <STRUCTURE_InChIKey>
YKSNLCVSTHTHJA-UHFFFAOYSA-L
CHNQZRKUZPNOOH-UHFFFAOYSA-J

> <Substance_modify_yyyymmdd>
20080429
20080429

> <Coord_Metals>
1
1

> <Index>
138
742

> <Canonical_Smiles>
SC(=S)NCCNC(=S)S

> <Molecular_Weight>
212.37971
212.37971

> <Frequency>
2

$$$$

  SciTegic          2D

 15 16  0  0  0  0            999 V2000
    4.0872    0.0382    0.0000 S   0  0
    2.5889    0.0182    0.0000 C   0  0
    1.7138   -1.2033    0.0000 N   0  0
    0.2917   -0.7475    0.0000 C   0  0
    0.2917    0.7475    0.0000 C   0  0
   -1.0028    1.5132    0.0000 C   0  0
   -2.3155    0.7475    0.0000 C   0  0
   -2.3155   -0.7475    0.0000 C   0  0
   -1.0028   -1.5132    0.0000 C   0  0
    1.7138    1.2033    0.0000 S   0  0
    4.5760    0.9106    0.0000 H   0  0
   -0.9997    2.5132    0.0000 H   0  0
   -3.1826    1.2456    0.0000 H   0  0
   -3.1826   -1.2456    0.0000 H   0  0
   -0.9997   -2.5132    0.0000 H   0  0
  1  2  1  0
  2  3  2  0
  2 10  1  0
  3  4  1  0
  4  5  2  0
  4  9  1  0
  5  6  1  0
  5 10  1  0
  6  7  2  0
  7  8  1  0
  8  9  2  0
  1 11  1  0
  6 12  1  0
  7 13  1  0
  8 14  1  0
  9 15  1  0
V    1 0
V    2 1
V    3 2
V    4 3
V    5 4
V    6 5
V    7 6
V    8 7
V    9 8
V   10 9
M  END
> <DSSTox_RID>
66534

> <DSSTox_CID>
807

> <DSSTox_CID_Parent>
807

> <DSSTox_Generic_SID>
20807

> <DSSTox_FileID>
139_TXCST2_v1a

> <STRUCTURE_Formula>
C7H5NS2

> <STRUCTURE_MolecularWeight>
167.2513

> <STRUCTURE_ChemicalType>
defined organic

> <STRUCTURE_TestedForm_DefinedOrganic>
parent

> <STRUCTURE_Shown>
tested chemical

> <TestSubstance_ChemicalName>
2-Mercaptobenzothiazole

> <TestSubstance_CASRN>
149-30-4

> <TestSubstance_Description>
single chemical compound

> <ChemicalNote>
tautomers

> <STRUCTURE_ChemicalName_IUPAC>
1,3-benzothiazole-2-thiol

> <STRUCTURE_SMILES>
SC1=NC2=C(C=CC=C2)S1

> <STRUCTURE_Parent_SMILES>
SC1=NC2=C(C=CC=C2)S1

> <STRUCTURE_InChIS>
InChI=1S/C7H5NS2/c9-7-8-5-3-1-2-4-6(5)10-7/h1-4H,(H,8,9)

> <STRUCTURE_InChIKey>
YXIWHUQXZSMYRE-UHFFFAOYSA-N

> <Substance_modify_yyyymmdd>
20080429

> <Coord_Metals>
0

> <Index>
139

> <Canonical_Smiles>
Sc1nc2ccccc2s1

> <Molecular_Weight>
167.25129

> <Frequency>
1

$$$$

  SciTegic          2D

  1  0  0  0  0  0            999 V2000
    0.0000    0.0000    0.0000 Hg  0  2
M  CHG  1   1   2
V    1 0
M  END
> <DSSTox_RID>
65283

> <DSSTox_CID>
811

> <DSSTox_Generic_SID>
20811

> <DSSTox_FileID>
140_TXCST2_v1a

> <STRUCTURE_Formula>
Cl2Hg

> <STRUCTURE_MolecularWeight>
271.496

> <STRUCTURE_ChemicalType>
inorganic

> <STRUCTURE_Shown>
tested chemical

> <TestSubstance_ChemicalName>
Mercuric chloride

> <TestSubstance_CASRN>
7487-94-7

> <TestSubstance_Description>
single chemical compound

> <STRUCTURE_ChemicalName_IUPAC>
mercury(2+) dichloride

> <STRUCTURE_SMILES>
[Hg+2].[Cl-].[Cl-]

> <STRUCTURE_InChIS>
InChI=1S/2ClH.Hg/h2*1H;/q;;+2/p-2

> <STRUCTURE_InChIKey>
LWJROJCJINYWOX-UHFFFAOYSA-L

> <Substance_modify_yyyymmdd>
20080429

> <Coord_Metals>
1

> <Index>
140

> <Canonical_Smiles>
[Hg+2]

> <Molecular_Weight>
200.59

> <Frequency>
1

$$$$

  SciTegic          2D

 27 27  0  0  0  0            999 V2000
    5.1989   -3.1768    0.0000 S   0  0
    4.0055   -3.3026    0.0000 P   0  0
    3.1234   -2.0885    0.0000 S   0  0
    1.6307   -2.2444    0.0000 C   0  0
    0.7500   -1.0323    0.0000 N   0  0
    1.2135    0.3943    0.0000 C   0  0
    2.3548    0.7651    0.0000 O   0  0
    0.0000    1.2760    0.0000 S   0  0
   -1.2135    0.3943    0.0000 C   0  0
   -0.7500   -1.0323    0.0000 N   0  0
   -2.6394    0.8543    0.0000 O   0  0
   -3.7533   -0.1515    0.0000 C   0  0
    3.3960   -4.6741    0.0000 O   0  0
    4.2781   -5.8883    0.0000 C   0  0
    4.6293   -1.9056    0.0000 O   0  0
    6.1220   -1.7495    0.0000 C   0  0
    1.2236   -3.1578    0.0000 H   0  0
    2.2181   -3.0537    0.0000 H   0  0
   -4.7050    0.1555    0.0000 H   0  0
   -3.5437   -1.1293    0.0000 H   0  0
   -4.4951   -0.8221    0.0000 H   0  0
    3.8720   -6.8021    0.0000 H   0  0
    5.2726   -5.7834    0.0000 H   0  0
    4.8663   -6.6970    0.0000 H   0  0
    6.5298   -0.8364    0.0000 H   0  0
    7.1166   -1.6459    0.0000 H   0  0
    6.7091   -2.5590    0.0000 H   0  0
  1  2  2  0
  2  3  1  0
  2 13  1  0
  2 15  1  0
  3  4  1  0
  4  5  1  0
  5  6  1  0
  5 10  1  0
  6  7  2  0
  6  8  1  0
  8  9  1  0
  9 10  2  0
  9 11  1  0
 11 12  1  0
 13 14  1  0
 15 16  1  0
  4 17  1  0
  4 18  1  0
 12 19  1  0
 12 20  1  0
 12 21  1  0
 14 22  1  0
 14 23  1  0
 14 24  1  0
 16 25  1  0
 16 26  1  0
 16 27  1  0
V    1 0
V    2 1
V    3 2
V    4 3
V    5 4
V    6 5
V    7 6
V    8 7
V    9 8
V   10 9
V   11 10
V   12 11
V   13 12
V   14 13
V   15 14
V   16 15
M  END
> <DSSTox_RID>
66860

> <DSSTox_CID>
819

> <DSSTox_CID_Parent>
819

> <DSSTox_Generic_SID>
20819

> <DSSTox_FileID>
141_TXCST2_v1a

> <STRUCTURE_Formula>
C6H11N2O4PS3

> <STRUCTURE_MolecularWeight>
302.3313

> <STRUCTURE_ChemicalType>
defined organic

> <STRUCTURE_TestedForm_DefinedOrganic>
parent

> <STRUCTURE_Shown>
tested chemical

> <TestSubstance_ChemicalName>
Methidathion

> <TestSubstance_CASRN>
950-37-8

> <TestSubstance_Description>
single chemical compound

> <STRUCTURE_ChemicalName_IUPAC>
S-[(5-methoxy-2-oxo-1,3,4-thiadiazol-3(2H)-yl)methyl] O,O-dimethyl dithiophosphate

> <STRUCTURE_SMILES>
S=P(SCN1C(=O)SC(=N1)OC)(OC)OC

> <STRUCTURE_Parent_SMILES>
S=P(SCN1C(=O)SC(=N1)OC)(OC)OC

> <STRUCTURE_InChIS>
InChI=1S/C6H11N2O4PS3/c1-10-5-7-8(6(9)16-5)4-15-13(14,11-2)12-3/h4H2,1-3H3

> <STRUCTURE_InChIKey>
MEBQXILRKZHVCX-UHFFFAOYSA-N

> <Substance_modify_yyyymmdd>
20080429

> <Coord_Metals>
0

> <Index>
141

> <Canonical_Smiles>
COC1=NN(CSP(=S)(OC)OC)C(=O)S1

> <Molecular_Weight>
302.3313

> <Frequency>
1

$$$$

  SciTegic          2D

 13 13  0  0  0  0            999 V2000
    0.7500   -1.0323    0.0000 N   0  0
    1.2135    0.3943    0.0000 C   0  0
    0.0000    1.2760    0.0000 N   0  0
   -1.2135    0.3943    0.0000 C   0  0
   -0.7500   -1.0323    0.0000 C   0  0
    0.0000    2.7742    0.0000 C   0  0
    2.6394    0.8543    0.0000 S   0  0
   -2.1646    0.7033    0.0000 H   0  0
   -1.3378   -1.8413    0.0000 H   0  0
    0.8657    3.2748    0.0000 H   0  0
   -0.8662    3.2739    0.0000 H   0  0
   -0.0005    3.7742    0.0000 H   0  0
    3.3816    0.1841    0.0000 H   0  0
  1  2  2  0
  1  5  1  0
  2  3  1  0
  2  7  1  0
  3  4  1  0
  3  6  1  0
  4  5  2  0
  4  8  1  0
  5  9  1  0
  6 10  1  0
  6 11  1  0
  6 12  1  0
  7 13  1  0
V    1 0
V    2 1
V    3 2
V    4 3
V    5 4
V    6 5
V    7 6
M  END
> <DSSTox_RID>
66492

> <DSSTox_CID>
820

> <DSSTox_CID_Parent>
820

> <DSSTox_Generic_SID>
20820

> <DSSTox_FileID>
142_TXCST2_v1a

> <STRUCTURE_Formula>
C4H6N2S

> <STRUCTURE_MolecularWeight>
114.1688

> <STRUCTURE_ChemicalType>
defined organic

> <STRUCTURE_TestedForm_DefinedOrganic>
parent

> <STRUCTURE_Shown>
tested chemical

> <TestSubstance_ChemicalName>
Methimazole

> <TestSubstance_CASRN>
60-56-0

> <TestSubstance_Description>
single chemical compound

> <ChemicalNote>
tautomers

> <STRUCTURE_ChemicalName_IUPAC>
1-methyl-1,3-dihydro-2H-imidazole-2-thione

> <STRUCTURE_SMILES>
N/1C(N(\C=C\1)C)=S

> <STRUCTURE_Parent_SMILES>
N\1C(N(/C=C/1)C)=S

> <STRUCTURE_InChIS>
InChI=1S/C4H6N2S/c1-6-3-2-5-4(6)7/h2-3H,1H3,(H,5,7)

> <STRUCTURE_InChIKey>
PMRYVIKBURPHAH-UHFFFAOYSA-N

> <Substance_modify_yyyymmdd>
20080429

> <Coord_Metals>
0

> <Index>
142

> <Canonical_Smiles>
Cn1ccnc1S

> <Molecular_Weight>
114.16884

> <Frequency>
1

$$$$

  SciTegic          2D

 55 57  0  0  0  0            999 V2000
   -1.2907   -2.9981    0.0000 N   0  0
   -1.2964   -1.4973    0.0000 C   0  0
    0.0000   -0.7486    0.0000 C   0  0
    0.0000    0.7486    0.0000 C   0  0
   -1.2964    1.4973    0.0000 N   0  0
   -2.6111    0.7486    0.0000 C   0  0
   -2.6111   -0.7486    0.0000 N   0  0
   -3.9122    1.4966    0.0000 N   0  0
    1.2964    1.4973    0.0000 N   0  0
    2.5929    0.7486    0.0000 C   0  0
    2.5929   -0.7486    0.0000 C   0  0
    1.2964   -1.4973    0.0000 N   0  0
    3.8926   -1.4991    0.0000 C   0  0
    5.1929   -0.7495    0.0000 N   0  0
    6.4926   -1.4999    0.0000 C   0  0
    7.7932   -0.7526    0.0000 C   0  0
    9.0908   -1.5052    0.0000 C   0  0
    9.0877   -3.0052    0.0000 C   0  0
    7.7871   -3.7526    0.0000 C   0  0
    6.4896   -2.9999    0.0000 C   0  0
   10.3844   -3.7610    0.0000 C   0  0
   11.4259   -3.1649    0.0000 O   0  0
   10.3792   -5.2618    0.0000 N   0  0
   11.6759   -6.0175    0.0000 C   0  0
   11.6707   -7.5183    0.0000 C   0  0
   12.9673   -8.2740    0.0000 C   0  0
   12.9622   -9.7749    0.0000 C   0  0
   11.9207  -10.3709    0.0000 O   0  0
   14.2588  -10.5306    0.0000 O   0  0
   12.9784   -5.2720    0.0000 C   0  0
   12.9825   -4.0720    0.0000 O   0  0
   14.2758   -6.0265    0.0000 O   0  0
    5.1964    0.7514    0.0000 C   0  0
   -2.1544   -3.5020    0.0000 H   0  0
   -0.4226   -3.4945    0.0000 H   0  0
   -4.7775    0.9954    0.0000 H   0  0
   -3.9138    2.4966    0.0000 H   0  0
    3.4589    1.2486    0.0000 H   0  0
    4.7584   -1.9995    0.0000 H   0  0
    3.8923   -2.4991    0.0000 H   0  0
    7.7953    0.2474    0.0000 H   0  0
    9.9578   -1.0070    0.0000 H   0  0
    7.7851   -4.7526    0.0000 H   0  0
    5.6226   -3.4982    0.0000 H   0  0
    9.5113   -5.7585    0.0000 H   0  0
   11.6798   -5.0175    0.0000 H   0  0
   10.8028   -8.0150    0.0000 H   0  0
   10.8065   -7.0152    0.0000 H   0  0
   13.8353   -7.7773    0.0000 H   0  0
   13.8316   -8.7772    0.0000 H   0  0
   14.2554  -11.5306    0.0000 H   0  0
   15.1437   -5.5298    0.0000 H   0  0
    6.0633    1.2499    0.0000 H   0  0
    5.1983    1.7514    0.0000 H   0  0
    4.3314    1.2531    0.0000 H   0  0
  1  2  1  0
  2  3  2  0
  2  7  1  0
  3  4  1  0
  3 12  1  0
  4  5  2  0
  4  9  1  0
  5  6  1  0
  6  7  2  0
  6  8  1  0
  9 10  2  0
 10 11  1  0
 11 12  2  0
 11 13  1  0
 13 14  1  0
 14 15  1  0
 14 33  1  0
 15 16  2  0
 15 20  1  0
 16 17  1  0
 17 18  2  0
 18 19  1  0
 18 21  1  0
 19 20  2  0
 21 22  2  0
 21 23  1  0
 24 23  1  0
 24 25  1  0
 24 30  1  0
 25 26  1  0
 26 27  1  0
 27 28  2  0
 27 29  1  0
 30 31  2  0
 30 32  1  0
  1 34  1  0
  1 35  1  0
  8 36  1  0
  8 37  1  0
 10 38  1  0
 13 39  1  0
 13 40  1  0
 16 41  1  0
 17 42  1  0
 19 43  1  0
 20 44  1  0
 23 45  1  0
 24 46  1  0
 25 47  1  0
 25 48  1  0
 26 49  1  0
 26 50  1  0
 29 51  1  0
 32 52  1  0
 33 53  1  0
 33 54  1  0
 33 55  1  0
V    1 0
V    2 1
V    3 2
V    4 3
V    5 4
V    6 5
V    7 6
V    8 7
V    9 8
V   10 9
V   11 10
V   12 11
V   13 12
V   14 13
V   15 14
V   16 15
V   17 16
V   18 17
V   19 18
V   20 19
V   21 20
V   22 21
V   23 22
V   24 23
V   25 24
V   26 25
V   27 26
V   28 27
V   29 28
V   30 29
V   31 30
V   32 31
V   33 32
M  END
> <DSSTox_RID>
62281

> <DSSTox_CID>
822

> <DSSTox_CID_Parent>
822

> <DSSTox_Generic_SID>
20822

> <DSSTox_FileID>
143_TXCST2_v1a

> <STRUCTURE_Formula>
C20H22N8O5

> <STRUCTURE_MolecularWeight>
454.4393

> <STRUCTURE_ChemicalType>
defined organic

> <STRUCTURE_TestedForm_DefinedOrganic>
parent

> <STRUCTURE_Shown>
tested chemical

> <TestSubstance_ChemicalName>
Methotrexate

> <TestSubstance_CASRN>
59-05-2

> <TestSubstance_Description>
single chemical compound

> <ChemicalNote>
stereochem

> <Source_ChemicalNote>
tested chemical contained 0.001% water

> <STRUCTURE_ChemicalName_IUPAC>
N-[(4-{[(2,4-diaminopteridin-6-yl)methyl](methyl)amino}phenyl)carbonyl]-L-glutamic acid

> <STRUCTURE_SMILES>
NC1=C2C(=NC(=N1)N)N=CC(=N2)CN(C3=CC=C(C=C3)C(=O)N[C@@H](CCC(=O)O)C(=O)O)C

> <STRUCTURE_Parent_SMILES>
NC1=C2C(=NC(=N1)N)N=CC(=N2)CN(C3=CC=C(C=C3)C(=O)N[C@@H](CCC(=O)O)C(=O)O)C

> <STRUCTURE_InChIS>
InChI=1S/C20H22N8O5/c1-28(9-11-8-23-17-15(24-11)16(21)26-20(22)27-17)12-4-2-10(3-5-12)18(31)25-13(19(32)33)6-7-14(29)30/h2-5,8,13H,6-7,9H2,1H3,(H,25,31)(H,29,30)(H,32,33)(H4,21,22,23,26,27)/t13-/m0/s1

> <STRUCTURE_InChIKey>
FBOZXECLQNJBKD-ZDUSSCGKSA-N

> <Substance_modify_yyyymmdd>
20080429

> <Coord_Metals>
0

> <Index>
143

> <Canonical_Smiles>
CN(Cc1cnc2nc(N)nc(N)c2n1)c3ccc(cc3)C(=O)NC(CCC(=O)O)C(=O)O

> <Molecular_Weight>
454.43928

> <Frequency>
1

$$$$

  SciTegic          2D

 36 37  0  0  0  0            999 V2000
    1.5593   -3.6015    0.0000 Cl  0  0
    2.5983   -3.0012    0.0000 C   0  0
    2.5988   -1.5004    0.0000 C   0  0
    1.2990   -0.7500    0.0000 C   0  0
    1.2990    0.7500    0.0000 C   0  0
    0.0000    1.5000    0.0000 C   0  0
   -1.2990    0.7500    0.0000 C   0  0
   -1.2990   -0.7500    0.0000 C   0  0
    0.0000   -1.5000    0.0000 C   0  0
   -2.6003    1.4977    0.0000 O   0  0
   -3.8990    0.7455    0.0000 C   0  0
    3.8990   -0.7508    0.0000 C   0  0
    5.1976   -1.5016    0.0000 C   0  0
    6.4971   -0.7525    0.0000 C   0  0
    6.4980    0.7475    0.0000 C   0  0
    5.1995    1.4984    0.0000 C   0  0
    3.9000    0.7492    0.0000 C   0  0
    7.7967    1.4998    0.0000 O   0  0
    7.7955    3.0006    0.0000 C   0  0
    2.5985   -4.2012    0.0000 Cl  0  0
    3.6376   -3.6012    0.0000 Cl  0  0
    2.5991   -0.5004    0.0000 H   0  0
    2.1651    1.2500    0.0000 H   0  0
    0.0000    2.5000    0.0000 H   0  0
   -2.1651   -1.2500    0.0000 H   0  0
    0.0000   -2.5000    0.0000 H   0  0
   -4.7661    1.2437    0.0000 H   0  0
   -3.8973   -0.2545    0.0000 H   0  0
   -4.7641    0.2438    0.0000 H   0  0
    5.1970   -2.5016    0.0000 H   0  0
    7.3628   -1.2530    0.0000 H   0  0
    5.2001    2.4984    0.0000 H   0  0
    3.0343    1.2497    0.0000 H   0  0
    8.6609    3.5019    0.0000 H   0  0
    6.9290    3.4997    0.0000 H   0  0
    7.7943    4.0006    0.0000 H   0  0
  1  2  1  0
  2  3  1  0
  2 20  1  0
  2 21  1  0
  3  4  1  0
  3 12  1  0
  4  5  2  0
  4  9  1  0
  5  6  1  0
  6  7  2  0
  7  8  1  0
  7 10  1  0
  8  9  2  0
 10 11  1  0
 12 13  2  0
 12 17  1  0
 13 14  1  0
 14 15  2  0
 15 16  1  0
 15 18  1  0
 16 17  2  0
 18 19  1  0
  3 22  1  0
  5 23  1  0
  6 24  1  0
  8 25  1  0
  9 26  1  0
 11 27  1  0
 11 28  1  0
 11 29  1  0
 13 30  1  0
 14 31  1  0
 16 32  1  0
 17 33  1  0
 19 34  1  0
 19 35  1  0
 19 36  1  0
V    1 0
V    2 1
V    3 2
V    4 3
V    5 4
V    6 5
V    7 6
V    8 7
V    9 8
V   10 9
V   11 10
V   12 11
V   13 12
V   14 13
V   15 14
V   16 15
V   17 16
V   18 17
V   19 18
V   20 19
V   21 20
M  END
> <DSSTox_RID>
65611

> <DSSTox_CID>
827

> <DSSTox_CID_Parent>
827

> <DSSTox_Generic_SID>
20827

> <DSSTox_FileID>
144_TXCST2_v1a

> <STRUCTURE_Formula>
C16H15Cl3O2

> <STRUCTURE_MolecularWeight>
345.6481

> <STRUCTURE_ChemicalType>
defined organic

> <STRUCTURE_TestedForm_DefinedOrganic>
parent

> <STRUCTURE_Shown>
tested chemical

> <TestSubstance_ChemicalName>
Methoxychlor

> <TestSubstance_CASRN>
72-43-5

> <TestSubstance_Description>
single chemical compound

> <STRUCTURE_ChemicalName_IUPAC>
1,1'-(2,2,2-trichloroethane-1,1-diyl)bis[4-(methyloxy)benzene]

> <STRUCTURE_SMILES>
ClC(C(C1=CC=C(C=C1)OC)C2=CC=C(C=C2)OC)(Cl)Cl

> <STRUCTURE_Parent_SMILES>
ClC(C(C1=CC=C(C=C1)OC)C2=CC=C(C=C2)OC)(Cl)Cl

> <STRUCTURE_InChIS>
InChI=1S/C16H15Cl3O2/c1-20-13-7-3-11(4-8-13)15(16(17,18)19)12-5-9-14(21-2)10-6-12/h3-10,15H,1-2H3

> <STRUCTURE_InChIKey>
IAKOZHOLGAGEJT-UHFFFAOYSA-N

> <Substance_modify_yyyymmdd>
20080429

> <Coord_Metals>
0

> <Index>
144

> <Canonical_Smiles>
COc1ccc(cc1)C(c2ccc(OC)cc2)C(Cl)(Cl)Cl

> <Molecular_Weight>
345.6481

> <Frequency>
1

$$$$

  SciTegic          2D

 12 11  0  0  0  0            999 V2000
    1.3000    0.7500    0.0000 C   0  0
    2.6000    0.0000    0.0000 S   0  0
    2.6000   -1.2000    0.0000 O   0  0
    3.6391   -0.6002    0.0000 O   0  0
    3.9000    0.7500    0.0000 O   0  0
    5.2000    0.0000    0.0000 C   0  0
    0.4338    0.2503    0.0000 H   0  0
    1.3000    1.7500    0.0000 H   0  0
    0.4340    1.2501    0.0000 H   0  0
    6.0661    0.4997    0.0000 H   0  0
    5.2000   -1.0000    0.0000 H   0  0
    6.0659   -0.5001    0.0000 H   0  0
  1  2  1  0
  2  3  2  0
  2  4  2  0
  2  5  1  0
  5  6  1  0
  1  7  1  0
  1  8  1  0
  1  9  1  0
  6 10  1  0
  6 11  1  0
  6 12  1  0
V    1 0
V    2 1
V    3 2
V    4 3
V    5 4
V    6 5
M  END
> <DSSTox_RID>
65342

> <DSSTox_CID>
845

> <DSSTox_CID_Parent>
845

> <DSSTox_Generic_SID>
20845

> <DSSTox_FileID>
145_TXCST2_v1a

> <STRUCTURE_Formula>
C2H6O3S

> <STRUCTURE_MolecularWeight>
110.1322

> <STRUCTURE_ChemicalType>
defined organic

> <STRUCTURE_TestedForm_DefinedOrganic>
parent

> <STRUCTURE_Shown>
tested chemical

> <TestSubstance_ChemicalName>
Methyl methanesulfonate

> <TestSubstance_CASRN>
66-27-3

> <TestSubstance_Description>
single chemical compound

> <STRUCTURE_ChemicalName_IUPAC>
methyl methanesulfonate

> <STRUCTURE_SMILES>
CS(=O)(=O)OC

> <STRUCTURE_Parent_SMILES>
CS(=O)(=O)OC

> <STRUCTURE_InChIS>
InChI=1S/C2H6O3S/c1-5-6(2,3)4/h1-2H3

> <STRUCTURE_InChIKey>
MBABOKRGFJTBAE-UHFFFAOYSA-N

> <Substance_modify_yyyymmdd>
20080429

> <Coord_Metals>
0

> <Index>
145

> <Canonical_Smiles>
COS(=O)(=O)C

> <Molecular_Weight>
110.13224

> <Frequency>
1

$$$$

  SciTegic          2D

 26 26  0  0  0  0            999 V2000
    3.6337   -3.6051    0.0000 S   0  0
    2.5951   -3.0039    0.0000 P   0  0
    2.5973   -1.5031    0.0000 O   0  0
    1.2990   -0.7500    0.0000 C   0  0
    1.2990    0.7500    0.0000 C   0  0
    0.0000    1.5000    0.0000 C   0  0
   -1.2990    0.7500    0.0000 C   0  0
   -1.2990   -0.7500    0.0000 C   0  0
    0.0000   -1.5000    0.0000 C   0  0
   -2.6003    1.4977    0.0000 N   0  0
   -3.6387    0.8962    0.0000 O   0  0
   -2.6024    2.6977    0.0000 O   0  0
    1.2948   -3.7533    0.0000 O   0  0
    1.2926   -5.2541    0.0000 C   0  0
    3.9220   -2.2423    0.0000 O   0  0
    5.2203   -2.9952    0.0000 C   0  0
    2.1651    1.2500    0.0000 H   0  0
    0.0000    2.5000    0.0000 H   0  0
   -2.1651   -1.2500    0.0000 H   0  0
    0.0000   -2.5000    0.0000 H   0  0
    0.4262   -5.7534    0.0000 H   0  0
    2.1581   -5.7551    0.0000 H   0  0
    1.2917   -6.2541    0.0000 H   0  0
    6.0876   -2.4974    0.0000 H   0  0
    5.2181   -3.9952    0.0000 H   0  0
    6.0852   -3.4972    0.0000 H   0  0
  1  2  2  0
  2  3  1  0
  2 13  1  0
  2 15  1  0
  3  4  1  0
  4  5  2  0
  4  9  1  0
  5  6  1  0
  6  7  2  0
  7  8  1  0
  7 10  1  0
  8  9  2  0
 10 11  2  0
 10 12  2  0
 13 14  1  0
 15 16  1  0
  5 17  1  0
  6 18  1  0
  8 19  1  0
  9 20  1  0
 14 21  1  0
 14 22  1  0
 14 23  1  0
 16 24  1  0
 16 25  1  0
 16 26  1  0
V    1 0
V    2 1
V    3 2
V    4 3
V    5 4
V    6 5
V    7 6
V    8 7
V    9 8
V   10 9
V   11 10
V   12 11
V   13 12
V   14 13
V   15 14
V   16 15
M  END
> <DSSTox_RID>
60141

> <DSSTox_CID>
855

> <DSSTox_CID_Parent>
855

> <DSSTox_Generic_SID>
20855

> <DSSTox_FileID>
146_TXCST2_v1a

> <STRUCTURE_Formula>
C8H10NO5PS

> <STRUCTURE_MolecularWeight>
263.2075

> <STRUCTURE_ChemicalType>
defined organic

> <STRUCTURE_TestedForm_DefinedOrganic>
parent

> <STRUCTURE_Shown>
tested chemical

> <TestSubstance_ChemicalName>
Parathion-methyl

> <TestSubstance_CASRN>
298-00-0

> <TestSubstance_Description>
single chemical compound

> <STRUCTURE_ChemicalName_IUPAC>
O,O-dimethyl O-(4-nitrophenyl) thiophosphate

> <STRUCTURE_SMILES>
S=P(OC1=CC=C(C=C1)[N+](=O)[O-])(OC)OC

> <STRUCTURE_Parent_SMILES>
S=P(OC1=CC=C(C=C1)[N+](=O)[O-])(OC)OC

> <STRUCTURE_InChIS>
InChI=1S/C8H10NO5PS/c1-12-15(16,13-2)14-8-5-3-7(4-6-8)9(10)11/h3-6H,1-2H3

> <STRUCTURE_InChIKey>
RLBIQVVOMOPOHC-UHFFFAOYSA-N

> <Substance_modify_yyyymmdd>
20080429

> <Coord_Metals>
0

> <Index>
146

> <Canonical_Smiles>
COP(=S)(OC)Oc1ccc(cc1)N(=O)=O

> <Molecular_Weight>
263.20746

> <Frequency>
1

$$$$

  SciTegic          2D

 16 16  0  0  0  0            999 V2000
    1.4553   -2.0031    0.0000 O   0  0
    0.7500   -1.0323    0.0000 C   0  0
    1.2135    0.3943    0.0000 N   0  0
    0.0000    1.2760    0.0000 C   0  0
   -1.2135    0.3943    0.0000 C   0  0
   -0.7500   -1.0323    0.0000 C   0  0
    2.6384    0.8573    0.0000 C   0  0
   -0.8734    1.7629    0.0000 H   0  0
    0.8733    1.7631    0.0000 H   0  0
   -1.4068    1.3754    0.0000 H   0  0
   -1.9467   -0.2858    0.0000 H   0  0
   -1.7428   -0.9129    0.0000 H   0  0
   -0.3297   -1.9397    0.0000 H   0  0
    3.3820    0.1886    0.0000 H   0  0
    2.8460    1.8355    0.0000 H   0  0
    3.5893    1.1668    0.0000 H   0  0
  1  2  2  0
  2  3  1  0
  2  6  1  0
  3  4  1  0
  3  7  1  0
  4  5  1  0
  5  6  1  0
  4  8  1  0
  4  9  1  0
  5 10  1  0
  5 11  1  0
  6 12  1  0
  6 13  1  0
  7 14  1  0
  7 15  1  0
  7 16  1  0
V    1 0
V    2 1
V    3 2
V    4 3
V    5 4
V    6 5
V    7 6
M  END
> <DSSTox_RID>
65846

> <DSSTox_CID>
856

> <DSSTox_CID_Parent>
856

> <DSSTox_Generic_SID>
20856

> <DSSTox_FileID>
147_TXCST2_v1a

> <STRUCTURE_Formula>
C5H9NO

> <STRUCTURE_MolecularWeight>
99.1311

> <STRUCTURE_ChemicalType>
defined organic

> <STRUCTURE_TestedForm_DefinedOrganic>
parent

> <STRUCTURE_Shown>
tested chemical

> <TestSubstance_ChemicalName>
N-Methyl-2-pyrrolidone

> <TestSubstance_CASRN>
872-50-4

> <TestSubstance_Description>
single chemical compound

> <Source_ChemicalNote>
tested chemical contained 0.032% water

> <STRUCTURE_ChemicalName_IUPAC>
1-methylpyrrolidin-2-one

> <STRUCTURE_SMILES>
O=C1N(CCC1)C

> <STRUCTURE_Parent_SMILES>
O=C1N(CCC1)C

> <STRUCTURE_InChIS>
InChI=1S/C5H9NO/c1-6-4-2-3-5(6)7/h2-4H2,1H3

> <STRUCTURE_InChIKey>
SECXISVLQFMRJM-UHFFFAOYSA-N

> <Substance_modify_yyyymmdd>
20080429

> <Coord_Metals>
0

> <Index>
147

> <Canonical_Smiles>
CN1CCCC1=O

> <Molecular_Weight>
99.13106

> <Frequency>
1

$$$$

  SciTegic          2D

 28 28  0  0  0  0            999 V2000
    3.8990   -0.7508    0.0000 C   0  0
    5.1988   -1.5012    0.0000 C   0  0
    6.4990   -0.7516    0.0000 O   0  0
    5.1985   -2.5012    0.0000 O   0  0
    2.5988   -1.5004    0.0000 C   0  0
    1.2990   -0.7500    0.0000 C   0  0
    1.2990    0.7500    0.0000 C   0  0
    0.0000    1.5000    0.0000 C   0  0
   -1.2990    0.7500    0.0000 C   0  0
   -2.6003    1.4977    0.0000 O   0  0
   -1.2990   -0.7500    0.0000 C   0  0
    0.0000   -1.5000    0.0000 C   0  0
   -0.0031    3.0008    0.0000 O   0  0
    3.8995    0.7499    0.0000 C   0  0
    3.9014   -2.2808    0.0000 N   0  0
    7.3650   -1.2516    0.0000 H   0  0
    1.7327   -2.0003    0.0000 H   0  0
    2.5985   -2.5004    0.0000 H   0  0
    2.1651    1.2500    0.0000 H   0  0
   -3.4657    0.9965    0.0000 H   0  0
   -2.1651   -1.2500    0.0000 H   0  0
    0.0000   -2.5000    0.0000 H   0  0
   -0.8698    3.4996    0.0000 H   0  0
    3.0339    1.2508    0.0000 H   0  0
    3.9003    1.7499    0.0000 H   0  0
    4.7658    1.2494    0.0000 H   0  0
    4.7679   -2.7799    0.0000 H   0  0
    3.0360   -2.7819    0.0000 H   0  0
  1  2  1  0
  1  5  1  0
  1 14  1  0
  1 15  1  0
  2  3  1  0
  2  4  2  0
  5  6  1  0
  6  7  2  0
  6 12  1  0
  7  8  1  0
  8  9  2  0
  8 13  1  0
  9 10  1  0
  9 11  1  0
 11 12  2  0
  3 16  1  0
  5 17  1  0
  5 18  1  0
  7 19  1  0
 10 20  1  0
 11 21  1  0
 12 22  1  0
 13 23  1  0
 14 24  1  0
 14 25  1  0
 14 26  1  0
 15 27  1  0
 15 28  1  0
V    1 0
V    2 1
V    3 2
V    4 3
V    5 4
V    6 5
V    7 6
V    8 7
V    9 8
V   10 9
V   11 10
V   12 11
V   13 12
V   14 13
V   15 14
M  END
> <DSSTox_RID>
61623

> <DSSTox_CID>
863

> <DSSTox_CID_Parent>
3295

> <DSSTox_Generic_SID>
20863

> <DSSTox_FileID>
148_TXCST2_v1a

> <STRUCTURE_Formula>
C20H32N2O11

> <STRUCTURE_MolecularWeight>
476.4749

> <STRUCTURE_ChemicalType>
defined organic

> <STRUCTURE_TestedForm_DefinedOrganic>
complex bis 3H2O

> <STRUCTURE_Shown>
tested chemical

> <TestSubstance_ChemicalName>
Methyldopa sesquihydrate

> <TestSubstance_CASRN>
41372-08-1

> <TestSubstance_Description>
single chemical compound

> <ChemicalNote>
stereochem; parent [555-30-6]

> <Source_ChemicalNote>
tested chemical contained 11.55% water (1.53 moles H2O)

> <STRUCTURE_ChemicalName_IUPAC>
3-hydroxy-alpha-methyl-L-tyrosine trihydrate

> <STRUCTURE_SMILES>
OC([C@](N)(C)CC1=CC(O)=C(C=C1)O)=O.OC([C@](N)(C)CC2=CC(O)=C(C=C2)O)=O.O.O.O

> <STRUCTURE_Parent_SMILES>
OC([C@](N)(C)CC1=CC(O)=C(C=C1)O)=O.OC([C@](N)(C)CC2=CC(O)=C(C=C2)O)=O

> <STRUCTURE_InChIS>
InChI=1S/2C10H13NO4.3H2O/c2*1-10(11,9(14)15)5-6-2-3-7(12)8(13)4-6;;;/h2*2-4,12-13H,5,11H2,1H3,(H,14,15);3*1H2/t2*10-;;;/m00.../s1

> <STRUCTURE_InChIKey>
YKFCISHFRZHKHY-NGQGLHOPSA-N

> <Substance_modify_yyyymmdd>
20080429

> <Coord_Metals>
0

> <Index>
148

> <Canonical_Smiles>
CC(N)(Cc1ccc(O)c(O)c1)C(=O)O

> <Molecular_Weight>
211.21451

> <Frequency>
1

$$$$

  SciTegic          2D

 35 36  0  0  0  0            999 V2000
    2.5988   -1.5004    0.0000 C   0  0
    1.2990   -0.7500    0.0000 C   0  0
    1.2990    0.7500    0.0000 C   0  0
    0.0000    1.5000    0.0000 C   0  0
   -1.2990    0.7500    0.0000 C   0  0
   -1.2990   -0.7500    0.0000 C   0  0
    0.0000   -1.5000    0.0000 C   0  0
   -2.5988   -1.5004    0.0000 C   0  0
   -3.8990   -0.7508    0.0000 C   0  0
   -5.1976   -1.5017    0.0000 C   0  0
   -6.4971   -0.7525    0.0000 C   0  0
   -6.4980    0.7475    0.0000 C   0  0
   -5.1995    1.4983    0.0000 C   0  0
   -3.9000    0.7492    0.0000 C   0  0
   -7.7967    1.4998    0.0000 N   0  0
   -7.7964   -1.5037    0.0000 C   0  0
    2.5972    1.5031    0.0000 N   0  0
    3.4651   -1.0010    0.0000 H   0  0
    2.5985   -2.5004    0.0000 H   0  0
    3.4646   -2.0008    0.0000 H   0  0
    0.0000    2.5000    0.0000 H   0  0
   -2.1651    1.2500    0.0000 H   0  0
    0.0000   -2.5000    0.0000 H   0  0
   -2.5985   -2.5004    0.0000 H   0  0
   -1.7327   -2.0003    0.0000 H   0  0
   -5.1969   -2.5017    0.0000 H   0  0
   -5.2001    2.4983    0.0000 H   0  0
   -3.0343    1.2497    0.0000 H   0  0
   -7.7960    2.4998    0.0000 H   0  0
   -8.6633    1.0007    0.0000 H   0  0
   -7.7964   -2.5037    0.0000 H   0  0
   -8.6626   -1.0040    0.0000 H   0  0
   -8.6623   -2.0039    0.0000 H   0  0
    2.5958    2.5031    0.0000 H   0  0
    3.4641    1.0046    0.0000 H   0  0
  1  2  1  0
  2  3  2  0
  2  7  1  0
  3  4  1  0
  3 17  1  0
  4  5  2  0
  5  6  1  0
  6  7  2  0
  6  8  1  0
  8  9  1  0
  9 10  2  0
  9 14  1  0
 10 11  1  0
 11 12  2  0
 11 16  1  0
 12 13  1  0
 12 15  1  0
 13 14  2  0
  1 18  1  0
  1 19  1  0
  1 20  1  0
  4 21  1  0
  5 22  1  0
  7 23  1  0
  8 24  1  0
  8 25  1  0
 10 26  1  0
 13 27  1  0
 14 28  1  0
 15 29  1  0
 15 30  1  0
 16 31  1  0
 16 32  1  0
 16 33  1  0
 17 34  1  0
 17 35  1  0
V    1 0
V    2 1
V    3 2
V    4 3
V    5 4
V    6 5
V    7 6
V    8 7
V    9 8
V   10 9
V   11 10
V   12 11
V   13 12
V   14 13
V   15 14
V   16 15
V   17 16
M  END
> <DSSTox_RID>
59661

> <DSSTox_CID>
867

> <DSSTox_CID_Parent>
867

> <DSSTox_Generic_SID>
20867

> <DSSTox_FileID>
149_TXCST2_v1a

> <STRUCTURE_Formula>
C15H18N2

> <STRUCTURE_MolecularWeight>
226.3168

> <STRUCTURE_ChemicalType>
defined organic

> <STRUCTURE_TestedForm_DefinedOrganic>
parent

> <STRUCTURE_Shown>
tested chemical

> <TestSubstance_ChemicalName>
4,4'-Methylene bis(2-methylaniline)

> <TestSubstance_CASRN>
838-88-0

> <TestSubstance_Description>
single chemical compound

> <STRUCTURE_ChemicalName_IUPAC>
4,4'-methanediylbis(2-methylaniline)

> <STRUCTURE_SMILES>
CC1=C(C=CC(=C1)CC2=CC(=C(C=C2)N)C)N

> <STRUCTURE_Parent_SMILES>
CC1=C(C=CC(=C1)CC2=CC(=C(C=C2)N)C)N

> <STRUCTURE_InChIS>
InChI=1S/C15H18N2/c1-10-7-12(3-5-14(10)16)9-13-4-6-15(17)11(2)8-13/h3-8H,9,16-17H2,1-2H3

> <STRUCTURE_InChIKey>
WECDUOXQLAIPQW-UHFFFAOYSA-N

> <Substance_modify_yyyymmdd>
20080429

> <Coord_Metals>
0

> <Index>
149

> <Canonical_Smiles>
Cc1cc(Cc2ccc(N)c(C)c2)ccc1N

> <Molecular_Weight>
226.31681

> <Frequency>
1

$$$$

  SciTegic          2D

 41 42  0  0  0  0            999 V2000
    2.5988   -1.5004    0.0000 C   0  0
    1.2990   -0.7500    0.0000 C   0  0
    1.2990    0.7500    0.0000 C   0  0
    0.0000   -1.5000    0.0000 C   0  0
    0.0000    1.5000    0.0000 C   0  0
   -1.2990   -0.7500    0.0000 C   0  0
   -1.2990    0.7500    0.0000 C   0  0
   -2.6003    1.4977    0.0000 N   0  0
   -3.8990    0.7455    0.0000 C   0  0
   -2.5999    2.9986    0.0000 C   0  0
    3.8990   -0.7508    0.0000 C   0  0
    5.1976   -1.5016    0.0000 C   0  0
    3.9000    0.7492    0.0000 C   0  0
    6.4971   -0.7525    0.0000 C   0  0
    5.1995    1.4984    0.0000 C   0  0
    6.4980    0.7475    0.0000 C   0  0
    7.7967    1.4998    0.0000 N   0  0
    7.7955    3.0006    0.0000 C   0  0
    9.0958    0.7482    0.0000 C   0  0
    2.5985   -2.5004    0.0000 H   0  0
    1.7327   -2.0003    0.0000 H   0  0
    2.1651    1.2500    0.0000 H   0  0
    0.0000   -2.5000    0.0000 H   0  0
    0.0000    2.5000    0.0000 H   0  0
   -2.1651   -1.2500    0.0000 H   0  0
   -4.7661    1.2437    0.0000 H   0  0
   -4.7641    0.2438    0.0000 H   0  0
   -3.8973   -0.2545    0.0000 H   0  0
   -1.7340    3.4988    0.0000 H   0  0
   -2.6000    3.9986    0.0000 H   0  0
   -3.4659    3.4986    0.0000 H   0  0
    5.1970   -2.5016    0.0000 H   0  0
    3.0343    1.2497    0.0000 H   0  0
    7.3628   -1.2530    0.0000 H   0  0
    5.2001    2.4984    0.0000 H   0  0
    8.6609    3.5019    0.0000 H   0  0
    7.7943    4.0006    0.0000 H   0  0
    6.9290    3.4997    0.0000 H   0  0
    9.0955   -0.2518    0.0000 H   0  0
    9.9616    0.2478    0.0000 H   0  0
    9.9621    1.2476    0.0000 H   0  0
  1  2  1  0
  1 11  1  0
  2  3  2  0
  2  4  1  0
  3  5  1  0
  4  6  2  0
  5  7  2  0
  6  7  1  0
  7  8  1  0
  8  9  1  0
  8 10  1  0
 11 12  2  0
 11 13  1  0
 12 14  1  0
 13 15  2  0
 14 16  2  0
 15 16  1  0
 16 17  1  0
 17 18  1  0
 17 19  1  0
  1 20  1  0
  1 21  1  0
  3 22  1  0
  4 23  1  0
  5 24  1  0
  6 25  1  0
  9 26  1  0
  9 27  1  0
  9 28  1  0
 10 29  1  0
 10 30  1  0
 10 31  1  0
 12 32  1  0
 13 33  1  0
 14 34  1  0
 15 35  1  0
 18 36  1  0
 18 37  1  0
 18 38  1  0
 19 39  1  0
 19 40  1  0
 19 41  1  0
V    1 0
V    2 1
V    3 2
V    4 3
V    5 4
V    6 5
V    7 6
V    8 7
V    9 8
V   10 9
V   11 10
V   12 11
V   13 12
V   14 13
V   15 14
V   16 15
V   17 16
V   18 17
V   19 18
M  END
> <DSSTox_RID>
60093

> <DSSTox_CID>
869

> <DSSTox_CID_Parent>
869

> <DSSTox_Generic_SID>
20869

> <DSSTox_FileID>
150_TXCST2_v1a

> <STRUCTURE_Formula>
C17H22N2

> <STRUCTURE_MolecularWeight>
254.37

> <STRUCTURE_ChemicalType>
defined organic

> <STRUCTURE_TestedForm_DefinedOrganic>
parent

> <STRUCTURE_Shown>
tested chemical

> <TestSubstance_ChemicalName>
4,4'-methylenebis(N,N-dimethylaniline)

> <TestSubstance_CASRN>
101-61-1

> <TestSubstance_Description>
single chemical compound

> <ChemicalNote>
Michler's Base

> <STRUCTURE_ChemicalName_IUPAC>
4,4'-methylenebis(N,N-dimethylaniline)

> <STRUCTURE_SMILES>
CN(C)C2=CC=C(C=C2)CC1=CC=C(N(C)C)C=C1

> <STRUCTURE_Parent_SMILES>
CN(C)C2=CC=C(C=C2)CC1=CC=C(N(C)C)C=C1

> <STRUCTURE_InChIS>
InChI=1S/C17H22N2/c1-18(2)16-9-5-14(6-10-16)13-15-7-11-17(12-8-15)19(3)4/h5-12H,13H2,1-4H3

> <STRUCTURE_InChIKey>
JNRLEMMIVRBKJE-UHFFFAOYSA-N

> <Substance_modify_yyyymmdd>
20080429

> <Coord_Metals>
0

> <Index>
150

> <Canonical_Smiles>
CN(C)c1ccc(Cc2ccc(cc2)N(C)C)cc1

> <Molecular_Weight>
254.36997

> <Frequency>
1

$$$$

  SciTegic          2D

 21 22  0  0  0  0            999 V2000
   -1.2876   -2.9981    0.0000 C   0  0
   -1.2964   -1.4973    0.0000 C   0  0
    0.0000   -0.7486    0.0000 C   0  0
    0.0000    0.7486    0.0000 C   0  0
   -1.2964    1.4973    0.0000 C   0  0
   -2.6111    0.7486    0.0000 C   0  0
   -2.6111   -0.7486    0.0000 C   0  0
    1.2964    1.4973    0.0000 C   0  0
    2.5929    0.7486    0.0000 C   0  0
    2.5929   -0.7486    0.0000 C   0  0
    1.2964   -1.4973    0.0000 C   0  0
   -0.4189   -3.4935    0.0000 H   0  0
   -2.1508   -3.5030    0.0000 H   0  0
   -1.2821   -3.9981    0.0000 H   0  0
   -1.2934    2.4973    0.0000 H   0  0
   -3.4756    1.2512    0.0000 H   0  0
   -3.4756   -1.2512    0.0000 H   0  0
    1.2964    2.4973    0.0000 H   0  0
    3.4589    1.2486    0.0000 H   0  0
    3.4589   -1.2486    0.0000 H   0  0
    1.2964   -2.4973    0.0000 H   0  0
  1  2  1  0
  2  3  2  0
  2  7  1  0
  3  4  1  0
  3 11  1  0
  4  5  2  0
  4  8  1  0
  5  6  1  0
  6  7  2  0
  8  9  2  0
  9 10  1  0
 10 11  2  0
  1 12  1  0
  1 13  1  0
  1 14  1  0
  5 15  1  0
  6 16  1  0
  7 17  1  0
  8 18  1  0
  9 19  1  0
 10 20  1  0
 11 21  1  0
V    1 0
V    2 1
V    3 2
V    4 3
V    5 4
V    6 5
V    7 6
V    8 7
V    9 8
V   10 9
V   11 10
M  END
> <DSSTox_RID>
65590

> <DSSTox_CID>
877

> <DSSTox_CID_Parent>
877

> <DSSTox_Generic_SID>
20877

> <DSSTox_FileID>
151_TXCST2_v1a

> <STRUCTURE_Formula>
C11H10

> <STRUCTURE_MolecularWeight>
142.1971

> <STRUCTURE_ChemicalType>
defined organic

> <STRUCTURE_TestedForm_DefinedOrganic>
parent

> <STRUCTURE_Shown>
tested chemical

> <TestSubstance_ChemicalName>
1-Methylnaphthalene

> <TestSubstance_CASRN>
90-12-0

> <TestSubstance_Description>
single chemical compound

> <STRUCTURE_ChemicalName_IUPAC>
1-methylnaphthalene

> <STRUCTURE_SMILES>
CC1=C2C(=CC=C1)C=CC=C2

> <STRUCTURE_Parent_SMILES>
CC1=CC=CC2=C1C=CC=C2

> <STRUCTURE_InChIS>
InChI=1S/C11H10/c1-9-5-4-7-10-6-2-3-8-11(9)10/h2-8H,1H3

> <STRUCTURE_InChIKey>
QPUYECUOLPXSFR-UHFFFAOYSA-N

> <Substance_modify_yyyymmdd>
20080429

> <Coord_Metals>
0

> <Index>
151

> <Canonical_Smiles>
Cc1cccc2ccccc12

> <Molecular_Weight>
142.19709

> <Frequency>
1

$$$$

  SciTegic          2D

 20 21  0  0  0  0            999 V2000
   -3.9106    1.4992    0.0000 C   0  0
   -2.6111    0.7486    0.0000 C   0  0
   -1.2964    1.4973    0.0000 C   0  0
    0.0000    0.7486    0.0000 C   0  0
    1.2964    1.4973    0.0000 C   0  0
    2.5929    0.7486    0.0000 C   0  0
    2.5929   -0.7486    0.0000 C   0  0
    1.2964   -1.4973    0.0000 N   0  0
    0.0000   -0.7486    0.0000 C   0  0
   -1.2964   -1.4973    0.0000 C   0  0
   -2.6111   -0.7486    0.0000 C   0  0
   -3.9111    2.4992    0.0000 H   0  0
   -4.7765    0.9991    0.0000 H   0  0
   -4.7768    1.9989    0.0000 H   0  0
   -1.2934    2.4973    0.0000 H   0  0
    1.2964    2.4973    0.0000 H   0  0
    3.4589    1.2486    0.0000 H   0  0
    3.4589   -1.2486    0.0000 H   0  0
   -1.2934   -2.4973    0.0000 H   0  0
   -3.4756   -1.2512    0.0000 H   0  0
  1  2  1  0
  2  3  2  0
  2 11  1  0
  3  4  1  0
  4  5  2  0
  4  9  1  0
  5  6  1  0
  6  7  2  0
  7  8  1  0
  8  9  2  0
  9 10  1  0
 10 11  2  0
  1 12  1  0
  1 13  1  0
  1 14  1  0
  3 15  1  0
  5 16  1  0
  6 17  1  0
  7 18  1  0
 10 19  1  0
 11 20  1  0
V    1 0
V    2 1
V    3 2
V    4 3
V    5 4
V    6 5
V    7 6
V    8 7
V    9 8
V   10 9
V   11 10
M  END
> <DSSTox_RID>
66550

> <DSSTox_CID>
887

> <DSSTox_CID_Parent>
887

> <DSSTox_Generic_SID>
20887

> <DSSTox_FileID>
152_TXCST2_v1a

> <STRUCTURE_Formula>
C10H9N

> <STRUCTURE_MolecularWeight>
143.1852

> <STRUCTURE_ChemicalType>
defined organic

> <STRUCTURE_TestedForm_DefinedOrganic>
parent

> <STRUCTURE_Shown>
tested chemical

> <TestSubstance_ChemicalName>
6-Methylquinoline

> <TestSubstance_CASRN>
91-62-3

> <TestSubstance_Description>
single chemical compound

> <STRUCTURE_ChemicalName_IUPAC>
6-methylquinoline

> <STRUCTURE_SMILES>
CC1=CC2=CC=CN=C2C=C1

> <STRUCTURE_Parent_SMILES>
CC1=CC2=CC=CN=C2C=C1

> <STRUCTURE_InChIS>
InChI=1S/C10H9N/c1-8-4-5-10-9(7-8)3-2-6-11-10/h2-7H,1H3

> <STRUCTURE_InChIKey>
LUYISICIYVKBTA-UHFFFAOYSA-N

> <Substance_modify_yyyymmdd>
20080429

> <Coord_Metals>
0

> <Index>
152

> <Canonical_Smiles>
Cc1ccc2ncccc2c1

> <Molecular_Weight>
143.18515

> <Frequency>
1

$$$$

  SciTegic          2D

 15 15  0  0  0  0            999 V2000
    2.5988   -1.5004    0.0000 C   0  0
    1.2990   -0.7500    0.0000 C   0  0
    1.2990    0.7500    0.0000 C   0  0
    0.0000    1.5000    0.0000 C   0  0
   -0.0031    3.0008    0.0000 O   0  0
   -1.2990    0.7500    0.0000 N   0  0
   -1.2990   -0.7500    0.0000 C   0  0
   -2.5972   -1.5031    0.0000 S   0  0
    0.0000   -1.5000    0.0000 N   0  0
    3.4651   -1.0010    0.0000 H   0  0
    2.5985   -2.5004    0.0000 H   0  0
    3.4646   -2.0008    0.0000 H   0  0
    2.1651    1.2500    0.0000 H   0  0
   -0.8698    3.4996    0.0000 H   0  0
   -2.5958   -2.5031    0.0000 H   0  0
  1  2  1  0
  2  3  2  0
  2  9  1  0
  3  4  1  0
  4  5  1  0
  4  6  2  0
  6  7  1  0
  7  8  1  0
  7  9  2  0
  1 10  1  0
  1 11  1  0
  1 12  1  0
  3 13  1  0
  5 14  1  0
  8 15  1  0
V    1 0
V    2 1
V    3 2
V    4 3
V    5 4
V    6 5
V    7 6
V    8 7
V    9 8
M  END
> <DSSTox_RID>
65630

> <DSSTox_CID>
890

> <DSSTox_CID_Parent>
890

> <DSSTox_Generic_SID>
20890

> <DSSTox_FileID>
153_TXCST2_v1a

> <STRUCTURE_Formula>
C5H6N2OS

> <STRUCTURE_MolecularWeight>
142.1789

> <STRUCTURE_ChemicalType>
defined organic

> <STRUCTURE_TestedForm_DefinedOrganic>
parent

> <STRUCTURE_Shown>
tested chemical

> <TestSubstance_ChemicalName>
Methylthiouracil

> <TestSubstance_CASRN>
56-04-2

> <TestSubstance_Description>
single chemical compound

> <STRUCTURE_ChemicalName_IUPAC>
6-methyl-2-thioxo-2,3-dihydropyrimidin-4(1H)-one

> <STRUCTURE_SMILES>
CC1=CC(=O)NC(=S)N1

> <STRUCTURE_Parent_SMILES>
CC1=CC(=O)NC(=S)N1

> <STRUCTURE_InChIS>
InChI=1S/C5H6N2OS/c1-3-2-4(8)7-5(9)6-3/h2H,1H3,(H2,6,7,8,9)

> <STRUCTURE_InChIKey>
HWGBHCRJGXAGEU-UHFFFAOYSA-N

> <Substance_modify_yyyymmdd>
20080429

> <Coord_Metals>
0

> <Index>
153

> <Canonical_Smiles>
Cc1cc(O)nc(S)n1

> <Molecular_Weight>
142.17893

> <Frequency>
1

$$$$

  SciTegic          2D

 40 41  0  0  0  0            999 V2000
    3.6375   -0.9049    0.0000 O   0  0
    2.5973   -1.5031    0.0000 C   0  0
    1.2990   -0.7500    0.0000 C   0  0
    1.2990    0.7500    0.0000 C   0  0
    0.0000    1.5000    0.0000 C   0  0
   -1.2990    0.7500    0.0000 C   0  0
   -1.2990   -0.7500    0.0000 C   0  0
    0.0000   -1.5000    0.0000 C   0  0
   -2.6003    1.4977    0.0000 N   0  0
   -3.8990    0.7455    0.0000 C   0  0
   -2.5999    2.9986    0.0000 C   0  0
    2.5951   -3.0039    0.0000 C   0  0
    3.8915   -3.7585    0.0000 C   0  0
    3.8864   -5.2585    0.0000 C   0  0
    2.5847   -6.0040    0.0000 C   0  0
    1.2883   -5.2495    0.0000 C   0  0
    1.2935   -3.7495    0.0000 C   0  0
    2.5765   -7.5048    0.0000 N   0  0
    1.2731   -8.2489    0.0000 C   0  0
    3.8739   -8.2593    0.0000 C   0  0
    2.1651    1.2500    0.0000 H   0  0
    0.0000    2.5000    0.0000 H   0  0
   -2.1651   -1.2500    0.0000 H   0  0
    0.0000   -2.5000    0.0000 H   0  0
   -4.7661    1.2437    0.0000 H   0  0
   -4.7641    0.2438    0.0000 H   0  0
   -3.8973   -0.2545    0.0000 H   0  0
   -1.7340    3.4988    0.0000 H   0  0
   -2.6000    3.9986    0.0000 H   0  0
   -3.4659    3.4986    0.0000 H   0  0
    4.7593   -3.2615    0.0000 H   0  0
    4.7506   -5.7615    0.0000 H   0  0
    0.4205   -5.7465    0.0000 H   0  0
    0.4292   -3.2465    0.0000 H   0  0
    1.2675   -9.2488    0.0000 H   0  0
    0.4044   -8.7442    0.0000 H   0  0
    0.4096   -7.7444    0.0000 H   0  0
    4.7418   -7.7626    0.0000 H   0  0
    4.7381   -8.7624    0.0000 H   0  0
    3.8704   -9.2593    0.0000 H   0  0
  1  2  2  0
  2  3  1  0
  2 12  1  0
  3  4  2  0
  3  8  1  0
  4  5  1  0
  5  6  2  0
  6  7  1  0
  6  9  1  0
  7  8  2  0
  9 10  1  0
  9 11  1  0
 12 13  2  0
 12 17  1  0
 13 14  1  0
 14 15  2  0
 15 16  1  0
 15 18  1  0
 16 17  2  0
 18 19  1  0
 18 20  1  0
  4 21  1  0
  5 22  1  0
  7 23  1  0
  8 24  1  0
 10 25  1  0
 10 26  1  0
 10 27  1  0
 11 28  1  0
 11 29  1  0
 11 30  1  0
 13 31  1  0
 14 32  1  0
 16 33  1  0
 17 34  1  0
 19 35  1  0
 19 36  1  0
 19 37  1  0
 20 38  1  0
 20 39  1  0
 20 40  1  0
V    1 0
V    2 1
V    3 2
V    4 3
V    5 4
V    6 5
V    7 6
V    8 7
V    9 8
V   10 9
V   11 10
V   12 11
V   13 12
V   14 13
V   15 14
V   16 15
V   17 16
V   18 17
V   19 18
V   20 19
M  END
> <DSSTox_RID>
65511

> <DSSTox_CID>
894

> <DSSTox_CID_Parent>
894

> <DSSTox_Generic_SID>
20894

> <DSSTox_FileID>
154_TXCST2_v1a

> <STRUCTURE_Formula>
C17H20N2O

> <STRUCTURE_MolecularWeight>
268.3535

> <STRUCTURE_ChemicalType>
defined organic

> <STRUCTURE_TestedForm_DefinedOrganic>
parent

> <STRUCTURE_Shown>
tested chemical

> <TestSubstance_ChemicalName>
Michler's ketone

> <TestSubstance_CASRN>
90-94-8

> <TestSubstance_Description>
single chemical compound

> <ChemicalNote>
Michler's ketone

> <STRUCTURE_ChemicalName_IUPAC>
bis[4-(dimethylamino)phenyl]methanone

> <STRUCTURE_SMILES>
O=C(C1=CC=C(C=C1)N(C)C)C2=CC=C(C=C2)N(C)C

> <STRUCTURE_Parent_SMILES>
O=C(C1=CC=C(C=C1)N(C)C)C2=CC=C(C=C2)N(C)C

> <STRUCTURE_InChIS>
InChI=1S/C17H20N2O/c1-18(2)15-9-5-13(6-10-15)17(20)14-7-11-16(12-8-14)19(3)4/h5-12H,1-4H3

> <STRUCTURE_InChIKey>
VVBLNCFGVYUYGU-UHFFFAOYSA-N

> <Substance_modify_yyyymmdd>
20080429

> <Coord_Metals>
0

> <Index>
154

> <Canonical_Smiles>
CN(C)c1ccc(cc1)C(=O)c2ccc(cc2)N(C)C

> <Molecular_Weight>
268.3535

> <Frequency>
1

$$$$

  SciTegic          2D

 22 26  0  0  0  0            999 V2000
    4.2600    0.4600    0.0000 C   0  0
    1.5800    0.7100    0.0000 C   0  0
    2.9700   -1.3900    0.0000 C   0  0
    2.1900   -0.1800    0.0000 C   0  0
    0.4200    0.4500    0.0000 C   0  0
    1.4500   -1.0700    0.0000 C   0  0
    2.3100    1.5800    0.0000 C   0  0
    3.2800    0.0900    0.0000 C   0  0
    0.3700   -0.6400    0.0000 C   0  0
    3.3700    1.1700    0.0000 C   0  0
    3.6428   -2.3836    0.0000 Cl  0  0
    1.0035   -0.0005    0.0000 Cl  0  0
    5.4218    0.1597    0.0000 Cl  0  0
    0.9476    1.7298    0.0000 Cl  0  0
    4.2087   -0.6699    0.0000 Cl  0  0
   -0.4002    1.3259    0.0000 Cl  0  0
    2.1177    2.7645    0.0000 Cl  0  0
    1.0846   -2.2130    0.0000 Cl  0  0
   -0.5026    0.1838    0.0000 Cl  0  0
    0.0151   -1.7863    0.0000 Cl  0  0
    2.7557    2.2008    0.0000 Cl  0  0
    4.5612    1.3154    0.0000 Cl  0  0
  1  3  1  0
  1  5  1  0
  1  7  1  0
  1 13  1  0
  2  7  1  0
  2  4  1  0
  2 14  1  0
  2  5  1  0
  3  6  1  0
  3  8  1  0
  3 11  1  0
  4 12  1  0
  4  8  1  0
  4  6  1  0
  5  9  1  0
  5 16  1  0
  6 18  1  0
  6  9  1  0
  7 10  1  0
  7 17  1  0
  8 15  1  0
  8 10  1  0
  9 19  1  0
  9 20  1  0
 10 21  1  0
 10 22  1  0
V    1 0
V    2 1
V    3 2
V    4 3
V    5 4
V    6 5
V    7 6
V    8 7
V    9 8
V   10 9
V   11 10
V   12 11
V   13 12
V   14 13
V   15 14
V   16 15
V   17 16
V   18 17
V   19 18
V   20 19
V   21 20
V   22 21
M  END
> <DSSTox_RID>
65489

> <DSSTox_CID>
895

> <DSSTox_CID_Parent>
895

> <DSSTox_Generic_SID>
20895

> <DSSTox_FileID>
155_TXCST2_v1a

> <STRUCTURE_Formula>
C10Cl12

> <STRUCTURE_MolecularWeight>
545.543

> <STRUCTURE_ChemicalType>
defined organic

> <STRUCTURE_TestedForm_DefinedOrganic>
parent

> <STRUCTURE_Shown>
tested chemical

> <TestSubstance_ChemicalName>
Mirex

> <TestSubstance_CASRN>
2385-85-5

> <TestSubstance_Description>
single chemical compound

> <ChemicalNote>
stereochem

> <Source_ChemicalNote>
tested chemical contained 0.019% water (0.01 moles H2O)

> <STRUCTURE_ChemicalName_IUPAC>
1,1a,2,2,3,3a,4,5,5,5a,5b,6-dodecachlorooctahydro-1H-1,3,4-(methanetriyl)cyclobuta[cd]pentalene

> <STRUCTURE_SMILES>
ClC53C1(Cl)C4(Cl)C2(Cl)C1(Cl)C(Cl)(Cl)C5(Cl)C2(Cl)C3(Cl)C4(Cl)Cl

> <STRUCTURE_Parent_SMILES>
ClC53C1(Cl)C4(Cl)C2(Cl)C1(Cl)C(Cl)(Cl)C5(Cl)C2(Cl)C3(Cl)C4(Cl)Cl

> <STRUCTURE_InChIS>
InChI=1S/C10Cl12/c11-1-2(12)7(17)4(14)3(13,5(1,15)9(7,19)20)6(1,16)10(21,22)8(2,4)18

> <STRUCTURE_InChIKey>
GVYLCNUFSHDAAW-UHFFFAOYSA-N

> <Substance_modify_yyyymmdd>
20080429

> <Coord_Metals>
0

> <Index>
155

> <Canonical_Smiles>
ClC1(Cl)C2(Cl)C3(Cl)C4(Cl)C(Cl)(Cl)C5(Cl)C(Cl)(C1(Cl)C35Cl)C24Cl

> <Molecular_Weight>
545.54299

> <Frequency>
1

$$$$

  SciTegic          2D

 28 27  0  0  0  0            999 V2000
    3.9000    0.7500    0.0000 O   0  0
    2.6000    0.0000    0.0000 S   0  0
    2.6000   -1.2000    0.0000 O   0  0
    3.6391   -0.6002    0.0000 O   0  0
    1.3000    0.7500    0.0000 C   0  0
    5.2000    0.0000    0.0000 C   0  0
    6.5000    0.7500    0.0000 C   0  0
    7.7999    0.0000    0.0000 C   0  0
    9.0999    0.7500    0.0000 C   0  0
   10.3999    0.0000    0.0000 O   0  0
   11.6999    0.7500    0.0000 S   0  0
   11.6999    1.9500    0.0000 O   0  0
   12.9999    0.0000    0.0000 C   0  0
   10.6608    1.3502    0.0000 O   0  0
    0.4338    0.2503    0.0000 H   0  0
    1.3000    1.7500    0.0000 H   0  0
    0.4340    1.2501    0.0000 H   0  0
    5.2000   -1.0000    0.0000 H   0  0
    4.3340   -0.5001    0.0000 H   0  0
    6.5000    1.7500    0.0000 H   0  0
    5.6340    1.2501    0.0000 H   0  0
    7.7999   -1.0000    0.0000 H   0  0
    6.9340   -0.5001    0.0000 H   0  0
    9.0999    1.7500    0.0000 H   0  0
    9.9659    1.2501    0.0000 H   0  0
   13.8661    0.4997    0.0000 H   0  0
   12.9999   -1.0000    0.0000 H   0  0
   13.8658   -0.5001    0.0000 H   0  0
  1  2  1  0
  1  6  1  0
  2  3  2  0
  2  4  2  0
  2  5  1  0
  6  7  1  0
  7  8  1  0
  8  9  1  0
  9 10  1  0
 10 11  1  0
 11 12  2  0
 11 13  1  0
 11 14  2  0
  5 15  1  0
  5 16  1  0
  5 17  1  0
  6 18  1  0
  6 19  1  0
  7 20  1  0
  7 21  1  0
  8 22  1  0
  8 23  1  0
  9 24  1  0
  9 25  1  0
 13 26  1  0
 13 27  1  0
 13 28  1  0
V    1 0
V    2 1
V    3 2
V    4 3
V    5 4
V    6 5
V    7 6
V    8 7
V    9 8
V   10 9
V   11 10
V   12 11
V   13 12
V   14 13
M  END
> <DSSTox_RID>
60123

> <DSSTox_CID>
910

> <DSSTox_CID_Parent>
910

> <DSSTox_Generic_SID>
20910

> <DSSTox_FileID>
156_TXCST2_v1a

> <STRUCTURE_Formula>
C6H14O6S2

> <STRUCTURE_MolecularWeight>
246.3018

> <STRUCTURE_ChemicalType>
defined organic

> <STRUCTURE_TestedForm_DefinedOrganic>
parent

> <STRUCTURE_Shown>
tested chemical

> <TestSubstance_ChemicalName>
Busulfan

> <TestSubstance_CASRN>
55-98-1

> <TestSubstance_Description>
single chemical compound

> <STRUCTURE_ChemicalName_IUPAC>
butane-1,4-diyl dimethanesulfonate

> <STRUCTURE_SMILES>
O(S(=O)(=O)C)CCCCOS(=O)(C)=O

> <STRUCTURE_Parent_SMILES>
O(S(=O)(=O)C)CCCCOS(=O)(C)=O

> <STRUCTURE_InChIS>
InChI=1S/C6H14O6S2/c1-13(7,8)11-5-3-4-6-12-14(2,9)10/h3-6H2,1-2H3

> <STRUCTURE_InChIKey>
COVZYZSDYWQREU-UHFFFAOYSA-N

> <Substance_modify_yyyymmdd>
20080429

> <Coord_Metals>
0

> <Index>
156

> <Canonical_Smiles>
CS(=O)(=O)OCCCCOS(=O)(=O)C

> <Molecular_Weight>
246.30175

> <Frequency>
1

$$$$

  SciTegic          2D

 18 19  0  0  0  0            999 V2000
   -1.2964   -1.4973    0.0000 C   0  0
    0.0000   -0.7486    0.0000 C   0  0
    0.0000    0.7486    0.0000 C   0  0
   -1.2964    1.4973    0.0000 C   0  0
   -2.6111    0.7486    0.0000 C   0  0
   -2.6111   -0.7486    0.0000 C   0  0
    1.2964    1.4973    0.0000 C   0  0
    2.5929    0.7486    0.0000 C   0  0
    2.5929   -0.7486    0.0000 C   0  0
    1.2964   -1.4973    0.0000 C   0  0
   -1.2934   -2.4973    0.0000 H   0  0
   -1.2934    2.4973    0.0000 H   0  0
   -3.4756    1.2512    0.0000 H   0  0
   -3.4756   -1.2512    0.0000 H   0  0
    1.2964    2.4973    0.0000 H   0  0
    3.4589    1.2486    0.0000 H   0  0
    3.4589   -1.2486    0.0000 H   0  0
    1.2964   -2.4973    0.0000 H   0  0
  1  2  2  0
  1  6  1  0
  2  3  1  0
  2 10  1  0
  3  4  2  0
  3  7  1  0
  4  5  1  0
  5  6  2  0
  7  8  2  0
  8  9  1  0
  9 10  2  0
  1 11  1  0
  4 12  1  0
  5 13  1  0
  6 14  1  0
  7 15  1  0
  8 16  1  0
  9 17  1  0
 10 18  1  0
V    1 0
V    2 1
V    3 2
V    4 3
V    5 4
V    6 5
V    7 6
V    8 7
V    9 8
V   10 9
M  END
> <DSSTox_RID>
65920

> <DSSTox_CID>
913

> <DSSTox_CID_Parent>
913

> <DSSTox_Generic_SID>
20913

> <DSSTox_FileID>
157_TXCST2_v1a

> <STRUCTURE_Formula>
C10H8

> <STRUCTURE_MolecularWeight>
128.1705

> <STRUCTURE_ChemicalType>
defined organic

> <STRUCTURE_TestedForm_DefinedOrganic>
parent

> <STRUCTURE_Shown>
tested chemical

> <TestSubstance_ChemicalName>
Naphthalene

> <TestSubstance_CASRN>
91-20-3

> <TestSubstance_Description>
single chemical compound

> <STRUCTURE_ChemicalName_IUPAC>
naphthalene

> <STRUCTURE_SMILES>
C1=C2C(=CC=C1)C=CC=C2

> <STRUCTURE_Parent_SMILES>
C1=C2C(=CC=C1)C=CC=C2

> <STRUCTURE_InChIS>
InChI=1S/C10H8/c1-2-6-10-8-4-3-7-9(10)5-1/h1-8H

> <STRUCTURE_InChIKey>
UFWIBTONFRDIAS-UHFFFAOYSA-N

> <Substance_modify_yyyymmdd>
20080429

> <Coord_Metals>
0

> <Index>
157

> <Canonical_Smiles>
c1ccc2ccccc2c1

> <Molecular_Weight>
128.17052

> <Frequency>
1

$$$$

  SciTegic          2D

 22 23  0  0  0  0            999 V2000
   -1.2907   -2.9981    0.0000 N   0  0
   -1.2964   -1.4973    0.0000 C   0  0
    0.0000   -0.7486    0.0000 C   0  0
    0.0000    0.7486    0.0000 C   0  0
   -1.2964    1.4973    0.0000 C   0  0
   -2.6111    0.7486    0.0000 C   0  0
   -2.6111   -0.7486    0.0000 C   0  0
    1.2964    1.4973    0.0000 C   0  0
    2.5929    0.7486    0.0000 C   0  0
    2.5929   -0.7486    0.0000 C   0  0
    1.2964   -1.4973    0.0000 C   0  0
    1.2995    2.9981    0.0000 N   0  0
   -2.1544   -3.5020    0.0000 H   0  0
   -0.4226   -3.4945    0.0000 H   0  0
   -1.2934    2.4973    0.0000 H   0  0
   -3.4756    1.2512    0.0000 H   0  0
   -3.4756   -1.2512    0.0000 H   0  0
    3.4589    1.2486    0.0000 H   0  0
    3.4589   -1.2486    0.0000 H   0  0
    1.2964   -2.4973    0.0000 H   0  0
    2.1663    3.4969    0.0000 H   0  0
    0.4344    3.4996    0.0000 H   0  0
  1  2  1  0
  2  3  2  0
  2  7  1  0
  3  4  1  0
  3 11  1  0
  4  5  2  0
  4  8  1  0
  5  6  1  0
  6  7  2  0
  8  9  2  0
  8 12  1  0
  9 10  1  0
 10 11  2  0
  1 13  1  0
  1 14  1  0
  5 15  1  0
  6 16  1  0
  7 17  1  0
  9 18  1  0
 10 19  1  0
 11 20  1  0
 12 21  1  0
 12 22  1  0
V    1 0
V    2 1
V    3 2
V    4 3
V    5 4
V    6 5
V    7 6
V    8 7
V    9 8
V   10 9
V   11 10
V   12 11
M  END
> <DSSTox_RID>
59608

> <DSSTox_CID>
916

> <DSSTox_CID_Parent>
916

> <DSSTox_Generic_SID>
20916

> <DSSTox_FileID>
158_TXCST2_v1a

> <STRUCTURE_Formula>
C10H10N2

> <STRUCTURE_MolecularWeight>
158.1998

> <STRUCTURE_ChemicalType>
defined organic

> <STRUCTURE_TestedForm_DefinedOrganic>
parent

> <STRUCTURE_Shown>
tested chemical

> <TestSubstance_ChemicalName>
1,5-Naphthalenediamine

> <TestSubstance_CASRN>
2243-62-1

> <TestSubstance_Description>
single chemical compound

> <STRUCTURE_ChemicalName_IUPAC>
naphthalene-1,5-diamine

> <STRUCTURE_SMILES>
NC1=C2C(=CC=C1)C(=CC=C2)N

> <STRUCTURE_Parent_SMILES>
NC1=C2C(=CC=C1)C(=CC=C2)N

> <STRUCTURE_InChIS>
InChI=1S/C10H10N2/c11-9-5-1-3-7-8(9)4-2-6-10(7)12/h1-6H,11-12H2

> <STRUCTURE_InChIKey>
KQSABULTKYLFEV-UHFFFAOYSA-N

> <Substance_modify_yyyymmdd>
20080429

> <Coord_Metals>
0

> <Index>
158

> <Canonical_Smiles>
Nc1cccc2c(N)cccc12

> <Molecular_Weight>
158.19979

> <Frequency>
1

$$$$

  SciTegic          2D

 20 21  0  0  0  0            999 V2000
    0.0000   -0.7486    0.0000 C   0  0
    0.0000    0.7486    0.0000 C   0  0
   -1.2964    1.4973    0.0000 C   0  0
   -2.6111    0.7486    0.0000 C   0  0
   -2.6111   -0.7486    0.0000 C   0  0
   -1.2964   -1.4973    0.0000 C   0  0
   -3.9091   -1.5019    0.0000 N   0  0
    1.2964    1.4973    0.0000 C   0  0
    2.5929    0.7486    0.0000 C   0  0
    2.5929   -0.7486    0.0000 C   0  0
    1.2964   -1.4973    0.0000 C   0  0
   -1.2934    2.4973    0.0000 H   0  0
   -3.4756    1.2512    0.0000 H   0  0
   -1.2934   -2.4973    0.0000 H   0  0
   -3.9075   -2.5019    0.0000 H   0  0
   -4.7760   -1.0035    0.0000 H   0  0
    1.2964    2.4973    0.0000 H   0  0
    3.4589    1.2486    0.0000 H   0  0
    3.4589   -1.2486    0.0000 H   0  0
    1.2964   -2.4973    0.0000 H   0  0
  1  2  2  0
  1  6  1  0
  1 11  1  0
  2  3  1  0
  2  8  1  0
  3  4  2  0
  4  5  1  0
  5  6  2  0
  5  7  1  0
  8  9  2  0
  9 10  1  0
 10 11  2  0
  3 12  1  0
  4 13  1  0
  6 14  1  0
  7 15  1  0
  7 16  1  0
  8 17  1  0
  9 18  1  0
 10 19  1  0
 11 20  1  0
V    1 0
V    2 1
V    3 2
V    4 3
V    5 4
V    6 5
V    7 6
V    8 7
V    9 8
V   10 9
V   11 10
M  END
> <DSSTox_RID>
60134

> <DSSTox_CID>
921

> <DSSTox_CID_Parent>
921

> <DSSTox_Generic_SID>
20921

> <DSSTox_FileID>
159_TXCST2_v1a

> <STRUCTURE_Formula>
C10H9N

> <STRUCTURE_MolecularWeight>
143.1852

> <STRUCTURE_ChemicalType>
defined organic

> <STRUCTURE_TestedForm_DefinedOrganic>
parent

> <STRUCTURE_Shown>
tested chemical

> <TestSubstance_ChemicalName>
2-Naphthylamine

> <TestSubstance_CASRN>
91-59-8

> <TestSubstance_Description>
single chemical compound

> <STRUCTURE_ChemicalName_IUPAC>
naphthalen-2-amine

> <STRUCTURE_SMILES>
NC1=CC2=C(C=CC=C2)C=C1

> <STRUCTURE_Parent_SMILES>
NC1=CC2=C(C=CC=C2)C=C1

> <STRUCTURE_InChIS>
InChI=1S/C10H9N/c11-10-6-5-8-3-1-2-4-9(8)7-10/h1-7H,11H2

> <STRUCTURE_InChIKey>
JBIJLHTVPXGSAM-UHFFFAOYSA-N

> <Substance_modify_yyyymmdd>
20080429

> <Coord_Metals>
0

> <Index>
159

> <Canonical_Smiles>
Nc1ccc2ccccc2c1

> <Molecular_Weight>
143.18515

> <Frequency>
1

$$$$

  SciTegic          2D

 26 27  0  0  0  0            999 V2000
    2.7022   -0.0406    0.0000 N   0  0
    2.5987   -1.5006    0.0000 C   0  0
    1.6341   -0.3507    0.0000 C   0  0
    1.1830    2.2079    0.0000 N   0  0
    2.1472    1.0588    0.0000 C   0  0
    4.1697    0.2696    0.0000 C   0  0
    1.5679    0.9379    0.0000 C   0  0
    3.9134   -2.1439    0.0000 C   0  0
    4.9183   -1.0302    0.0000 C   0  0
    0.1569   -0.6112    0.0000 C   0  0
   -0.2942    1.9474    0.0000 C   0  0
   -0.8073    0.5378    0.0000 C   0  0
    2.5966   -2.5006    0.0000 H   0  0
    3.1320    1.2325    0.0000 H   0  0
    5.1658    0.3581    0.0000 H   0  0
    3.7756   -0.6494    0.0000 H   0  0
    0.6234    0.6092    0.0000 H   0  0
    1.7551    1.9202    0.0000 H   0  0
    0.8109    1.5913    0.0000 H   0  0
    3.1490   -2.7887    0.0000 H   0  0
    4.8628   -2.4578    0.0000 H   0  0
    5.3103   -1.9502    0.0000 H   0  0
    5.4949   -0.2132    0.0000 H   0  0
   -0.1851   -1.5509    0.0000 H   0  0
   -0.9370    2.7134    0.0000 H   0  0
   -1.7921    0.3642    0.0000 H   0  0
  1  2  1  0
  1  6  1  0
  1  7  1  0
  2  3  1  0
  2  8  1  0
  3  5  2  0
  3 10  1  0
  4  5  1  0
  4 11  2  0
  6  9  1  0
  8  9  1  0
 10 12  2  0
 11 12  1  0
  2 13  1  0
  5 14  1  0
  6 15  1  0
  6 16  1  0
  7 17  1  0
  7 18  1  0
  7 19  1  0
  8 20  1  0
  8 21  1  0
  9 22  1  0
  9 23  1  0
 10 24  1  0
 11 25  1  0
 12 26  1  0
V    1 0
V    2 1
V    3 2
V    4 3
V    5 4
V    6 5
V    7 6
V    8 7
V    9 8
V   10 9
V   11 10
V   12 11
M  END
> <DSSTox_RID>
60137

> <DSSTox_CID>
930

> <DSSTox_CID_Parent>
930

> <DSSTox_Generic_SID>
20930

> <DSSTox_FileID>
160_TXCST2_v1a

> <STRUCTURE_Formula>
C10H14N2

> <STRUCTURE_MolecularWeight>
162.2316

> <STRUCTURE_ChemicalType>
defined organic

> <STRUCTURE_TestedForm_DefinedOrganic>
parent

> <STRUCTURE_Shown>
tested chemical

> <TestSubstance_ChemicalName>
Nicotine

> <TestSubstance_CASRN>
54-11-5

> <TestSubstance_Description>
single chemical compound

> <ChemicalNote>
stereochem

> <STRUCTURE_ChemicalName_IUPAC>
3-[(2S)-1-methylpyrrolidin-2-yl]pyridine

> <STRUCTURE_SMILES>
CN(CCC2)[C@@H]2[C@]1=CN=CC=C1

> <STRUCTURE_Parent_SMILES>
CN(CCC2)[C@@H]2[C@]1=CN=CC=C1

> <STRUCTURE_InChIS>
InChI=1S/C10H14N2/c1-12-7-3-5-10(12)9-4-2-6-11-8-9/h2,4,6,8,10H,3,5,7H2,1H3/t10-/m0/s1

> <STRUCTURE_InChIKey>
SNICXCGAKADSCV-JTQLQIEISA-N

> <Substance_modify_yyyymmdd>
20080429

> <Coord_Metals>
0

> <Index>
160

> <Canonical_Smiles>
CN1CCCC1c2cccnc2

> <Molecular_Weight>
162.23155

> <Frequency>
1

$$$$

  SciTegic          2D

 22 21  0  0  0  0            999 V2000
    1.3000    0.7500    0.0000 O   0  0
    2.6000    0.0000    0.0000 C   0  0
    2.6000   -1.2000    0.0000 O   0  0
    3.9000    0.7500    0.0000 C   0  0
    5.2000    0.0000    0.0000 N   0  0
    6.5000    0.7500    0.0000 C   0  0
    7.7999    0.0000    0.0000 C   0  0
    7.7999   -1.2000    0.0000 O   0  0
    9.0999    0.7500    0.0000 O   0  0
    5.2030   -1.5008    0.0000 C   0  0
    6.5039   -2.2494    0.0000 C   0  0
    7.5421   -1.6476    0.0000 O   0  0
    6.5070   -3.7502    0.0000 O   0  0
    0.4338    0.2503    0.0000 H   0  0
    3.9000    1.7500    0.0000 H   0  0
    3.0340    1.2501    0.0000 H   0  0
    6.5000    1.7500    0.0000 H   0  0
    5.6340    1.2501    0.0000 H   0  0
    9.9661    0.2503    0.0000 H   0  0
    4.3379   -2.0023    0.0000 H   0  0
    4.3361   -1.0025    0.0000 H   0  0
    7.3737   -4.2490    0.0000 H   0  0
  1  2  1  0
  2  3  2  0
  2  4  1  0
  4  5  1  0
  5  6  1  0
  5 10  1  0
  6  7  1  0
  7  8  2  0
  7  9  1  0
 10 11  1  0
 11 12  2  0
 11 13  1  0
  1 14  1  0
  4 15  1  0
  4 16  1  0
  6 17  1  0
  6 18  1  0
  9 19  1  0
 10 20  1  0
 10 21  1  0
 13 22  1  0
V    1 0
V    2 1
V    3 2
V    4 3
V    5 4
V    6 5
V    7 6
V    8 7
V    9 8
V   10 9
V   11 10
V   12 11
V   13 12
M  END
> <DSSTox_RID>
60320

> <DSSTox_CID>
939

> <DSSTox_CID_Parent>
939

> <DSSTox_Generic_SID>
20939

> <DSSTox_FileID>
161_TXCST2_v1a

> <STRUCTURE_Formula>
C6H9NO6

> <STRUCTURE_MolecularWeight>
191.1388

> <STRUCTURE_ChemicalType>
defined organic

> <STRUCTURE_TestedForm_DefinedOrganic>
parent

> <STRUCTURE_Shown>
tested chemical

> <TestSubstance_ChemicalName>
Nitrilotriacetic acid

> <TestSubstance_CASRN>
139-13-9

> <TestSubstance_Description>
single chemical compound

> <STRUCTURE_ChemicalName_IUPAC>
2,2',2''-nitrilotriacetic acid

> <STRUCTURE_SMILES>
OC(=O)CN(CC(=O)O)CC(=O)O

> <STRUCTURE_Parent_SMILES>
OC(=O)CN(CC(=O)O)CC(=O)O

> <STRUCTURE_InChIS>
InChI=1S/C6H9NO6/c8-4(9)1-7(2-5(10)11)3-6(12)13/h1-3H2,(H,8,9)(H,10,11)(H,12,13)

> <STRUCTURE_InChIKey>
MGFYIUFZLHCRTH-UHFFFAOYSA-N

> <Substance_modify_yyyymmdd>
20080429

> <Coord_Metals>
0

> <Index>
161

> <Canonical_Smiles>
OC(=O)CN(CC(=O)O)CC(=O)O

> <Molecular_Weight>
191.13875

> <Frequency>
1

$$$$

  SciTegic          2D

  4  3  0  0  0  0            999 V2000
    0.2606    0.1503    0.0000 O   0  0
    1.3000    0.7500    0.0000 N   0  0
    2.6000    0.0000    0.0000 O   0  0
    3.4662    0.4997    0.0000 H   0  0
  1  2  2  0
  2  3  1  0
  3  4  1  0
V    1 0
V    2 1
V    3 2
M  END
> <DSSTox_RID>
59603

> <DSSTox_CID>
941

> <DSSTox_Generic_SID>
20941

> <DSSTox_FileID>
162_TXCST2_v1a

> <STRUCTURE_Formula>
NNaO2

> <STRUCTURE_MolecularWeight>
68.9953

> <STRUCTURE_ChemicalType>
inorganic

> <STRUCTURE_Shown>
tested chemical

> <TestSubstance_ChemicalName>
Sodium nitrite

> <TestSubstance_CASRN>
7632-00-0

> <TestSubstance_Description>
single chemical compound

> <STRUCTURE_ChemicalName_IUPAC>
sodium nitrite

> <STRUCTURE_SMILES>
O=N[O-].[Na+]

> <STRUCTURE_InChIS>
InChI=1S/HNO2.Na/c2-1-3;/h(H,2,3);/q;+1/p-1

> <STRUCTURE_InChIKey>
LPXPTNMVRIOKMN-UHFFFAOYSA-M

> <Substance_modify_yyyymmdd>
20080429

> <Coord_Metals>
0

> <Index>
162

> <Canonical_Smiles>
ON=O

> <Molecular_Weight>
47.01344

> <Frequency>
1

$$$$

  SciTegic          2D

 20 20  0  0  0  0            999 V2000
    2.5956   -2.7031    0.0000 O   0  0
    2.5973   -1.5031    0.0000 N   0  0
    1.2990   -0.7500    0.0000 C   0  0
    1.2990    0.7500    0.0000 C   0  0
    0.0000    1.5000    0.0000 C   0  0
   -1.2990    0.7500    0.0000 C   0  0
   -1.2990   -0.7500    0.0000 C   0  0
    0.0000   -1.5000    0.0000 C   0  0
   -2.6003    1.4977    0.0000 O   0  0
   -3.8990    0.7455    0.0000 C   0  0
   -0.0031    3.0008    0.0000 N   0  0
    3.6375   -0.9049    0.0000 O   0  0
    2.1651    1.2500    0.0000 H   0  0
   -2.1651   -1.2500    0.0000 H   0  0
    0.0000   -2.5000    0.0000 H   0  0
   -4.7661    1.2437    0.0000 H   0  0
   -3.8973   -0.2545    0.0000 H   0  0
   -4.7641    0.2438    0.0000 H   0  0
   -0.8698    3.4996    0.0000 H   0  0
    0.8620    3.5023    0.0000 H   0  0
  1  2  2  0
  2  3  1  0
  2 12  2  0
  3  4  2  0
  3  8  1  0
  4  5  1  0
  5  6  2  0
  5 11  1  0
  6  7  1  0
  6  9  1  0
  7  8  2  0
  9 10  1  0
  4 13  1  0
  7 14  1  0
  8 15  1  0
 10 16  1  0
 10 17  1  0
 10 18  1  0
 11 19  1  0
 11 20  1  0
V    1 0
V    2 1
V    3 2
V    4 3
V    5 4
V    6 5
V    7 6
V    8 7
V    9 8
V   10 9
V   11 10
V   12 11
M  END
> <DSSTox_RID>
65550

> <DSSTox_CID>
943

> <DSSTox_CID_Parent>
943

> <DSSTox_Generic_SID>
20943

> <DSSTox_FileID>
163_TXCST2_v1a

> <STRUCTURE_Formula>
C7H8N2O3

> <STRUCTURE_MolecularWeight>
168.15

> <STRUCTURE_ChemicalType>
defined organic

> <STRUCTURE_TestedForm_DefinedOrganic>
parent

> <STRUCTURE_Shown>
tested chemical

> <TestSubstance_ChemicalName>
2-Methoxy-5-nitroaniline

> <TestSubstance_CASRN>
99-59-2

> <TestSubstance_Description>
single chemical compound

> <STRUCTURE_ChemicalName_IUPAC>
2-methoxy-5-nitroaniline

> <STRUCTURE_SMILES>
O=[N+](C1=CC(=C(C=C1)OC)N)[O-]

> <STRUCTURE_Parent_SMILES>
O=[N+](C1=CC(=C(C=C1)OC)N)[O-]

> <STRUCTURE_InChIS>
InChI=1S/C7H8N2O3/c1-12-7-3-2-5(9(10)11)4-6(7)8/h2-4H,8H2,1H3

> <STRUCTURE_InChIKey>
NIPDVSLAMPAWTP-UHFFFAOYSA-N

> <Substance_modify_yyyymmdd>
20080429

> <Coord_Metals>
0

> <Index>
163

> <Canonical_Smiles>
COc1ccc(cc1N)N(=O)=O

> <Molecular_Weight>
168.15001

> <Frequency>
1

$$$$

  SciTegic          2D

 20 20  0  0  0  0            999 V2000
    1.1385   -3.3418    0.0000 O   0  0
    1.6281   -2.2462    0.0000 N   0  0
    0.7500   -1.0323    0.0000 C   0  0
    1.2135    0.3943    0.0000 C   0  0
    0.0000    1.2760    0.0000 C   0  0
   -1.2135    0.3943    0.0000 C   0  0
   -0.7500   -1.0323    0.0000 O   0  0
   -2.6394    0.8543    0.0000 C   0  0
   -3.7533   -0.1515    0.0000 N   0  0
   -5.1816    0.3093    0.0000 N   0  0
   -6.2955   -0.6966    0.0000 C   0  0
   -6.0439   -1.8699    0.0000 O   0  0
   -7.7238   -0.2358    0.0000 N   0  0
    2.8218   -2.1229    0.0000 O   0  0
    2.1646    0.7033    0.0000 H   0  0
    0.0000    2.2760    0.0000 H   0  0
   -2.8490    1.8321    0.0000 H   0  0
   -5.3913    1.2870    0.0000 H   0  0
   -8.4660   -0.9060    0.0000 H   0  0
   -7.9335    0.7420    0.0000 H   0  0
  1  2  2  0
  2  3  1  0
  2 14  2  0
  3  4  2  0
  3  7  1  0
  4  5  1  0
  5  6  2  0
  6  7  1  0
  8  6  1  0
  8  9  2  0
  9 10  1  0
 10 11  1  0
 11 12  2  0
 11 13  1  0
  4 15  1  0
  5 16  1  0
  8 17  1  0
 10 18  1  0
 13 19  1  0
 13 20  1  0
V    1 0
V    2 1
V    3 2
V    4 3
V    5 4
V    6 5
V    7 6
V    8 7
V    9 8
V   10 9
V   11 10
V   12 11
V   13 12
V   14 13
M  END
> <DSSTox_RID>
59604

> <DSSTox_CID>
944

> <DSSTox_CID_Parent>
944

> <DSSTox_Generic_SID>
20944

> <DSSTox_FileID>
164_TXCST2_v1a

> <STRUCTURE_Formula>
C6H6N4O4

> <STRUCTURE_MolecularWeight>
198.1362

> <STRUCTURE_ChemicalType>
defined organic

> <STRUCTURE_TestedForm_DefinedOrganic>
parent

> <STRUCTURE_Shown>
tested chemical

> <TestSubstance_ChemicalName>
5-Nitro-2-furaldehyde semicarbazone

> <TestSubstance_CASRN>
59-87-0

> <TestSubstance_Description>
single chemical compound

> <STRUCTURE_ChemicalName_IUPAC>
5-nitrofuran-2-carbaldehyde semicarbazone

> <STRUCTURE_SMILES>
O=[N+](C1=CC=C(O1)/C=N/NC(=O)N)[O-]

> <STRUCTURE_Parent_SMILES>
O=[N+](C1=CC=C(O1)/C=N/NC(=O)N)[O-]

> <STRUCTURE_InChIS>
InChI=1S/C6H6N4O4/c7-6(11)9-8-3-4-1-2-5(14-4)10(12)13/h1-3H,(H3,7,9,11)/b8-3+

> <STRUCTURE_InChIKey>
IAIWVQXQOWNYOU-FPYGCLRLSA-N

> <Substance_modify_yyyymmdd>
20080429

> <Coord_Metals>
0

> <Index>
164

> <Canonical_Smiles>
NC(=O)NN=Cc1oc(cc1)N(=O)=O

> <Molecular_Weight>
198.13623

> <Frequency>
1

$$$$

  SciTegic          2D

 19 19  0  0  0  0            999 V2000
    2.5956   -2.7031    0.0000 O   0  0
    2.5973   -1.5031    0.0000 N   0  0
    1.2990   -0.7500    0.0000 C   0  0
    1.2990    0.7500    0.0000 C   0  0
    0.0000    1.5000    0.0000 C   0  0
   -1.2990    0.7500    0.0000 C   0  0
   -1.2990   -0.7500    0.0000 C   0  0
    0.0000   -1.5000    0.0000 C   0  0
   -2.5988    1.5004    0.0000 C   0  0
   -0.0031    3.0008    0.0000 N   0  0
    3.6375   -0.9049    0.0000 O   0  0
    2.1651    1.2500    0.0000 H   0  0
   -2.1651   -1.2500    0.0000 H   0  0
    0.0000   -2.5000    0.0000 H   0  0
   -2.5994    2.5004    0.0000 H   0  0
   -3.4647    1.0001    0.0000 H   0  0
   -3.4651    2.0000    0.0000 H   0  0
   -0.8698    3.4996    0.0000 H   0  0
    0.8620    3.5023    0.0000 H   0  0
  1  2  2  0
  2  3  1  0
  2 11  2  0
  3  4  2  0
  3  8  1  0
  4  5  1  0
  5  6  2  0
  5 10  1  0
  6  7  1  0
  6  9  1  0
  7  8  2  0
  4 12  1  0
  7 13  1  0
  8 14  1  0
  9 15  1  0
  9 16  1  0
  9 17  1  0
 10 18  1  0
 10 19  1  0
V    1 0
V    2 1
V    3 2
V    4 3
V    5 4
V    6 5
V    7 6
V    8 7
V    9 8
V   10 9
V   11 10
M  END
> <DSSTox_RID>
66573

> <DSSTox_CID>
959

> <DSSTox_CID_Parent>
959

> <DSSTox_Generic_SID>
20959

> <DSSTox_FileID>
165_TXCST2_v1a

> <STRUCTURE_Formula>
C7H8N2O2

> <STRUCTURE_MolecularWeight>
152.1506

> <STRUCTURE_ChemicalType>
defined organic

> <STRUCTURE_TestedForm_DefinedOrganic>
parent

> <STRUCTURE_Shown>
tested chemical

> <TestSubstance_ChemicalName>
2-Methyl-5-nitroaniline

> <TestSubstance_CASRN>
99-55-8

> <TestSubstance_Description>
single chemical compound

> <STRUCTURE_ChemicalName_IUPAC>
2-methyl-5-nitroaniline

> <STRUCTURE_SMILES>
O=[N+](C1=CC(=C(C=C1)C)N)[O-]

> <STRUCTURE_Parent_SMILES>
O=[N+](C1=CC(=C(C=C1)C)N)[O-]

> <STRUCTURE_InChIS>
InChI=1S/C7H8N2O2/c1-5-2-3-6(9(10)11)4-7(5)8/h2-4H,8H2,1H3

> <STRUCTURE_InChIKey>
DSBIJCMXAIKKKI-UHFFFAOYSA-N

> <Substance_modify_yyyymmdd>
20080429

> <Coord_Metals>
0

> <Index>
165

> <Canonical_Smiles>
Cc1ccc(cc1N)N(=O)=O

> <Molecular_Weight>
152.15061

> <Frequency>
1

$$$$

  SciTegic          2D

 16 16  0  0  0  0            999 V2000
    2.5956   -2.7031    0.0000 O   0  0
    2.5973   -1.5031    0.0000 N   0  0
    1.2990   -0.7500    0.0000 C   0  0
    1.2990    0.7500    0.0000 C   0  0
    0.0000    1.5000    0.0000 C   0  0
   -1.2990    0.7500    0.0000 C   0  0
   -1.2990   -0.7500    0.0000 C   0  0
    0.0000   -1.5000    0.0000 C   0  0
   -2.6003    1.4977    0.0000 N   0  0
    3.6375   -0.9049    0.0000 O   0  0
    2.1651    1.2500    0.0000 H   0  0
    0.0000    2.5000    0.0000 H   0  0
   -2.1651   -1.2500    0.0000 H   0  0
    0.0000   -2.5000    0.0000 H   0  0
   -3.4657    0.9965    0.0000 H   0  0
   -2.6021    2.4977    0.0000 H   0  0
  1  2  2  0
  2  3  1  0
  2 10  2  0
  3  4  2  0
  3  8  1  0
  4  5  1  0
  5  6  2  0
  6  7  1  0
  6  9  1  0
  7  8  2  0
  4 11  1  0
  5 12  1  0
  7 13  1  0
  8 14  1  0
  9 15  1  0
  9 16  1  0
V    1 0
V    2 1
V    3 2
V    4 3
V    5 4
V    6 5
V    7 6
V    8 7
V    9 8
V   10 9
M  END
> <DSSTox_RID>
66596

> <DSSTox_CID>
961

> <DSSTox_CID_Parent>
961

> <DSSTox_Generic_SID>
20961

> <DSSTox_FileID>
166_TXCST2_v1a

> <STRUCTURE_Formula>
C6H6N2O2

> <STRUCTURE_MolecularWeight>
138.124

> <STRUCTURE_ChemicalType>
defined organic

> <STRUCTURE_TestedForm_DefinedOrganic>
parent

> <STRUCTURE_Shown>
tested chemical

> <TestSubstance_ChemicalName>
4-Nitroaniline

> <TestSubstance_CASRN>
100-01-6

> <TestSubstance_Description>
single chemical compound

> <STRUCTURE_ChemicalName_IUPAC>
4-nitroaniline

> <STRUCTURE_SMILES>
O=[N+](C1=CC=C(C=C1)N)[O-]

> <STRUCTURE_Parent_SMILES>
O=[N+](C1=CC=C(C=C1)N)[O-]

> <STRUCTURE_InChIS>
InChI=1S/C6H6N2O2/c7-5-1-3-6(4-2-5)8(9)10/h1-4H,7H2

> <STRUCTURE_InChIKey>
TYMLOMAKGOJONV-UHFFFAOYSA-N

> <Substance_modify_yyyymmdd>
20080429

> <Coord_Metals>
0

> <Index>
166

> <Canonical_Smiles>
Nc1ccc(cc1)N(=O)=O

> <Molecular_Weight>
138.12403

> <Frequency>
1

$$$$

  SciTegic          2D

 14 14  0  0  0  0            999 V2000
    2.5956   -2.7031    0.0000 O   0  0
    2.5973   -1.5031    0.0000 N   0  0
    1.2990   -0.7500    0.0000 C   0  0
    1.2990    0.7500    0.0000 C   0  0
    0.0000    1.5000    0.0000 C   0  0
   -1.2990    0.7500    0.0000 C   0  0
   -1.2990   -0.7500    0.0000 C   0  0
    0.0000   -1.5000    0.0000 C   0  0
    3.6375   -0.9049    0.0000 O   0  0
    2.1651    1.2500    0.0000 H   0  0
    0.0000    2.5000    0.0000 H   0  0
   -2.1651    1.2500    0.0000 H   0  0
   -2.1651   -1.2500    0.0000 H   0  0
    0.0000   -2.5000    0.0000 H   0  0
  1  2  2  0
  2  3  1  0
  2  9  2  0
  3  4  2  0
  3  8  1  0
  4  5  1  0
  5  6  2  0
  6  7  1  0
  7  8  2  0
  4 10  1  0
  5 11  1  0
  6 12  1  0
  7 13  1  0
  8 14  1  0
V    1 0
V    2 1
V    3 2
V    4 3
V    5 4
V    6 5
V    7 6
V    8 7
V    9 8
M  END
> <DSSTox_RID>
60243

> <DSSTox_CID>
964

> <DSSTox_CID_Parent>
964

> <DSSTox_Generic_SID>
20964

> <DSSTox_FileID>
167_TXCST2_v1a

> <STRUCTURE_Formula>
C6H5NO2

> <STRUCTURE_MolecularWeight>
123.1094

> <STRUCTURE_ChemicalType>
defined organic

> <STRUCTURE_TestedForm_DefinedOrganic>
parent

> <STRUCTURE_Shown>
tested chemical

> <TestSubstance_ChemicalName>
Nitrobenzene

> <TestSubstance_CASRN>
98-95-3

> <TestSubstance_Description>
single chemical compound

> <STRUCTURE_ChemicalName_IUPAC>
nitrobenzene

> <STRUCTURE_SMILES>
O=[N+](C1=CC=CC=C1)[O-]

> <STRUCTURE_Parent_SMILES>
O=[N+](C1=CC=CC=C1)[O-]

> <STRUCTURE_InChIS>
InChI=1S/C6H5NO2/c8-7(9)6-4-2-1-3-5-6/h1-5H

> <STRUCTURE_InChIKey>
LQNUZADURLCDLV-UHFFFAOYSA-N

> <Substance_modify_yyyymmdd>
20080429

> <Coord_Metals>
0

> <Index>
167

> <Canonical_Smiles>
O=N(=O)c1ccccc1

> <Molecular_Weight>
123.1094

> <Frequency>
1

$$$$

  SciTegic          2D

 17 17  0  0  0  0            999 V2000
    2.5951   -3.0039    0.0000 O   0  0
    2.5973   -1.5031    0.0000 C   0  0
    3.6375   -0.9049    0.0000 O   0  0
    1.2990   -0.7500    0.0000 C   0  0
    1.2990    0.7500    0.0000 C   0  0
    0.0000    1.5000    0.0000 C   0  0
   -1.2990    0.7500    0.0000 C   0  0
   -1.2990   -0.7500    0.0000 C   0  0
    0.0000   -1.5000    0.0000 C   0  0
   -2.6003    1.4977    0.0000 N   0  0
   -3.6387    0.8962    0.0000 O   0  0
   -2.6024    2.6977    0.0000 O   0  0
    3.4601   -3.5057    0.0000 H   0  0
    2.1651    1.2500    0.0000 H   0  0
    0.0000    2.5000    0.0000 H   0  0
   -2.1651   -1.2500    0.0000 H   0  0
    0.0000   -2.5000    0.0000 H   0  0
  1  2  1  0
  2  3  2  0
  2  4  1  0
  4  5  2  0
  4  9  1  0
  5  6  1  0
  6  7  2  0
  7  8  1  0
  7 10  1  0
  8  9  2  0
 10 11  2  0
 10 12  2  0
  1 13  1  0
  5 14  1  0
  6 15  1  0
  8 16  1  0
  9 17  1  0
V    1 0
V    2 1
V    3 2
V    4 3
V    5 4
V    6 5
V    7 6
V    8 7
V    9 8
V   10 9
V   11 10
V   12 11
M  END
> <DSSTox_RID>
66057

> <DSSTox_CID>
966

> <DSSTox_CID_Parent>
966

> <DSSTox_Generic_SID>
20966

> <DSSTox_FileID>
168_TXCST2_v1a

> <STRUCTURE_Formula>
C7H5NO4

> <STRUCTURE_MolecularWeight>
167.1189

> <STRUCTURE_ChemicalType>
defined organic

> <STRUCTURE_TestedForm_DefinedOrganic>
parent

> <STRUCTURE_Shown>
tested chemical

> <TestSubstance_ChemicalName>
4-Nitrobenzoic acid

> <TestSubstance_CASRN>
62-23-7

> <TestSubstance_Description>
single chemical compound

> <STRUCTURE_ChemicalName_IUPAC>
4-nitrobenzoic acid

> <STRUCTURE_SMILES>
OC(=O)C1=CC=C(C=C1)[N+](=O)[O-]

> <STRUCTURE_Parent_SMILES>
OC(=O)C1=CC=C(C=C1)[N+](=O)[O-]

> <STRUCTURE_InChIS>
InChI=1S/C7H5NO4/c9-7(10)5-1-3-6(4-2-5)8(11)12/h1-4H,(H,9,10)

> <STRUCTURE_InChIKey>
OTLNPYWUJOZPPA-UHFFFAOYSA-N

> <Substance_modify_yyyymmdd>
20080429

> <Coord_Metals>
0

> <Index>
168

> <Canonical_Smiles>
OC(=O)c1ccc(cc1)N(=O)=O

> <Molecular_Weight>
167.11889

> <Frequency>
1

$$$$

  SciTegic          2D

 25 26  0  0  0  0            999 V2000
    2.3383   -1.3500    0.0000 Cl  0  0
    1.2990   -0.7500    0.0000 C   0  0
    1.2990    0.7500    0.0000 C   0  0
    0.0000    1.5000    0.0000 C   0  0
   -1.2990    0.7500    0.0000 C   0  0
   -1.2990   -0.7500    0.0000 C   0  0
    0.0000   -1.5000    0.0000 C   0  0
   -2.3383   -1.3500    0.0000 Cl  0  0
    2.5972    1.5031    0.0000 O   0  0
    2.5951    3.0039    0.0000 C   0  0
    3.8915    3.7585    0.0000 C   0  0
    3.8863    5.2585    0.0000 C   0  0
    2.5847    6.0040    0.0000 C   0  0
    1.2883    5.2495    0.0000 C   0  0
    1.2934    3.7495    0.0000 C   0  0
    2.5764    7.5048    0.0000 N   0  0
    1.5342    8.0997    0.0000 O   0  0
    3.6125    8.1102    0.0000 O   0  0
    0.0000    2.5000    0.0000 H   0  0
   -2.1651    1.2500    0.0000 H   0  0
    0.0000   -2.5000    0.0000 H   0  0
    4.7593    3.2615    0.0000 H   0  0
    4.7506    5.7615    0.0000 H   0  0
    0.4205    5.7465    0.0000 H   0  0
    0.4291    3.2465    0.0000 H   0  0
  1  2  1  0
  2  3  2  0
  2  7  1  0
  3  4  1  0
  3  9  1  0
  4  5  2  0
  5  6  1  0
  6  7  2  0
  6  8  1  0
  9 10  1  0
 10 11  2  0
 10 15  1  0
 11 12  1  0
 12 13  2  0
 13 14  1  0
 13 16  1  0
 14 15  2  0
 16 17  2  0
 16 18  2  0
  4 19  1  0
  5 20  1  0
  7 21  1  0
 11 22  1  0
 12 23  1  0
 14 24  1  0
 15 25  1  0
V    1 0
V    2 1
V    3 2
V    4 3
V    5 4
V    6 5
V    7 6
V    8 7
V    9 8
V   10 9
V   11 10
V   12 11
V   13 12
V   14 13
V   15 14
V   16 15
V   17 16
V   18 17
M  END
> <DSSTox_RID>
66811

> <DSSTox_CID>
970

> <DSSTox_CID_Parent>
970

> <DSSTox_Generic_SID>
20970

> <DSSTox_FileID>
169_TXCST2_v1a

> <STRUCTURE_Formula>
C12H7Cl2NO3

> <STRUCTURE_MolecularWeight>
284.0949

> <STRUCTURE_ChemicalType>
defined organic

> <STRUCTURE_TestedForm_DefinedOrganic>
parent

> <STRUCTURE_Shown>
tested chemical

> <TestSubstance_ChemicalName>
Nitrofen

> <TestSubstance_CASRN>
1836-75-5

> <TestSubstance_Description>
single chemical compound

> <STRUCTURE_ChemicalName_IUPAC>
2,4-dichloro-1-[(4-nitrophenyl)oxy]benzene

> <STRUCTURE_SMILES>
ClC1=C(C=CC(=C1)Cl)OC2=CC=C(C=C2)[N+](=O)[O-]

> <STRUCTURE_Parent_SMILES>
ClC1=C(C=CC(=C1)Cl)OC2=CC=C(C=C2)[N+](=O)[O-]

> <STRUCTURE_InChIS>
InChI=1S/C12H7Cl2NO3/c13-8-1-6-12(11(14)7-8)18-10-4-2-9(3-5-10)15(16)17/h1-7H

> <STRUCTURE_InChIKey>
XITQUSLLOSKDTB-UHFFFAOYSA-N

> <Substance_modify_yyyymmdd>
20080429

> <Coord_Metals>
0

> <Index>
169

> <Canonical_Smiles>
Clc1ccc(Oc2ccc(cc2)N(=O)=O)c(Cl)c1

> <Molecular_Weight>
284.09488

> <Frequency>
1

$$$$

  SciTegic          2D

 23 24  0  0  0  0            999 V2000
    1.4553   -2.0031    0.0000 O   0  0
    0.7500   -1.0323    0.0000 C   0  0
    1.2135    0.3943    0.0000 N   0  0
    0.0000    1.2760    0.0000 C   0  0
   -1.2135    0.3943    0.0000 C   0  0
   -2.3548    0.7651    0.0000 O   0  0
   -0.7500   -1.0323    0.0000 N   0  0
    2.6394    0.8543    0.0000 N   0  0
    3.7533   -0.1515    0.0000 C   0  0
    5.1816    0.3093    0.0000 C   0  0
    6.3743   -0.5791    0.0000 C   0  0
    7.5879    0.3025    0.0000 C   0  0
    7.1244    1.7291    0.0000 C   0  0
    5.6244    1.7292    0.0000 O   0  0
    8.0025    2.9431    0.0000 N   0  0
    7.5129    4.0386    0.0000 O   0  0
    9.1962    2.8197    0.0000 O   0  0
    0.8734    1.7629    0.0000 H   0  0
   -0.8734    1.7631    0.0000 H   0  0
   -1.3378   -1.8413    0.0000 H   0  0
    3.5437   -1.1293    0.0000 H   0  0
    6.3684   -1.5791    0.0000 H   0  0
    8.5389   -0.0065    0.0000 H   0  0
  1  2  2  0
  2  3  1  0
  2  7  1  0
  3  4  1  0
  8  3  1  0
  4  5  1  0
  5  6  2  0
  5  7  1  0
  8  9  2  0
  9 10  1  0
 10 11  2  0
 10 14  1  0
 11 12  1  0
 12 13  2  0
 13 14  1  0
 13 15  1  0
 15 16  2  0
 15 17  2  0
  4 18  1  0
  4 19  1  0
  7 20  1  0
  9 21  1  0
 11 22  1  0
 12 23  1  0
V    1 0
V    2 1
V    3 2
V    4 3
V    5 4
V    6 5
V    7 6
V    8 7
V    9 8
V   10 9
V   11 10
V   12 11
V   13 12
V   14 13
V   15 14
V   16 15
V   17 16
M  END
> <DSSTox_RID>
61329

> <DSSTox_CID>
972

> <DSSTox_CID_Parent>
972

> <DSSTox_Generic_SID>
20972

> <DSSTox_FileID>
170_TXCST2_v1a

> <STRUCTURE_Formula>
C8H6N4O5

> <STRUCTURE_MolecularWeight>
238.157

> <STRUCTURE_ChemicalType>
defined organic

> <STRUCTURE_TestedForm_DefinedOrganic>
parent

> <STRUCTURE_Shown>
tested chemical

> <TestSubstance_ChemicalName>
Nitrofurantoin

> <TestSubstance_CASRN>
67-20-9

> <TestSubstance_Description>
single chemical compound

> <ChemicalNote>
stereochem

> <STRUCTURE_ChemicalName_IUPAC>
1-{[(1E)-(5-nitrofuran-2-yl)methylidene]amino}imidazolidine-2,4-dione

> <STRUCTURE_SMILES>
O=C1N(CC(=O)N1)/N=C/C2=CC=C(O2)[N+](=O)[O-]

> <STRUCTURE_Parent_SMILES>
O=C1N(CC(=O)N1)/N=C/C2=CC=C(O2)[N+](=O)[O-]

> <STRUCTURE_InChIS>
InChI=1S/C8H6N4O5/c13-6-4-11(8(14)10-6)9-3-5-1-2-7(17-5)12(15)16/h1-3H,4H2,(H,10,13,14)/b9-3+

> <STRUCTURE_InChIKey>
NXFQHRVNIOXGAQ-YCRREMRBSA-N

> <Substance_modify_yyyymmdd>
20080429

> <Coord_Metals>
0

> <Index>
170

> <Canonical_Smiles>
O=C1CN(N=Cc2oc(cc2)N(=O)=O)C(=O)N1

> <Molecular_Weight>
238.15703

> <Frequency>
1

$$$$

  SciTegic          2D

 29 28  0  0  0  0            999 V2000
    7.5431    2.8494    0.0000 O   0  0
    6.5030    2.2508    0.0000 N   0  0
    6.5000    0.7500    0.0000 N   0  0
    5.2000    0.0000    0.0000 C   0  0
    3.9000    0.7500    0.0000 C   0  0
    2.6000    0.0000    0.0000 C   0  0
    1.3000    0.7500    0.0000 C   0  0
    7.7999    0.0000    0.0000 C   0  0
    9.0999    0.7500    0.0000 C   0  0
   10.3999    0.0000    0.0000 C   0  0
   11.6999    0.7500    0.0000 C   0  0
    6.0659   -0.5001    0.0000 H   0  0
    5.2000   -1.0000    0.0000 H   0  0
    3.0340    1.2501    0.0000 H   0  0
    3.9000    1.7500    0.0000 H   0  0
    1.7340   -0.5001    0.0000 H   0  0
    2.6000   -1.0000    0.0000 H   0  0
    0.4338    0.2503    0.0000 H   0  0
    0.4340    1.2501    0.0000 H   0  0
    1.3000    1.7500    0.0000 H   0  0
    6.9340   -0.5001    0.0000 H   0  0
    7.7999   -1.0000    0.0000 H   0  0
    8.2340    1.2501    0.0000 H   0  0
    9.0999    1.7500    0.0000 H   0  0
    9.5340   -0.5001    0.0000 H   0  0
   10.3999   -1.0000    0.0000 H   0  0
   12.5661    0.2503    0.0000 H   0  0
   12.5659    1.2501    0.0000 H   0  0
   11.6999    1.7500    0.0000 H   0  0
  1  2  2  0
  2  3  1  0
  3  4  1  0
  3  8  1  0
  4  5  1  0
  5  6  1  0
  6  7  1  0
  8  9  1  0
  9 10  1  0
 10 11  1  0
  4 12  1  0
  4 13  1  0
  5 14  1  0
  5 15  1  0
  6 16  1  0
  6 17  1  0
  7 18  1  0
  7 19  1  0
  7 20  1  0
  8 21  1  0
  8 22  1  0
  9 23  1  0
  9 24  1  0
 10 25  1  0
 10 26  1  0
 11 27  1  0
 11 28  1  0
 11 29  1  0
V    1 0
V    2 1
V    3 2
V    4 3
V    5 4
V    6 5
V    7 6
V    8 7
V    9 8
V   10 9
V   11 10
M  END
> <DSSTox_RID>
66918

> <DSSTox_CID>
1026

> <DSSTox_CID_Parent>
1026

> <DSSTox_Generic_SID>
21026

> <DSSTox_FileID>
171_TXCST2_v1a

> <STRUCTURE_Formula>
C8H18N2O

> <STRUCTURE_MolecularWeight>
158.2413

> <STRUCTURE_ChemicalType>
defined organic

> <STRUCTURE_TestedForm_DefinedOrganic>
parent

> <STRUCTURE_Shown>
tested chemical

> <TestSubstance_ChemicalName>
N-Nitrosodibutylamine

> <TestSubstance_CASRN>
924-16-3

> <TestSubstance_Description>
single chemical compound

> <STRUCTURE_ChemicalName_IUPAC>
N-butyl-N-nitrosobutan-1-amine

> <STRUCTURE_SMILES>
O=NN(CCCC)CCCC

> <STRUCTURE_Parent_SMILES>
O=NN(CCCC)CCCC

> <STRUCTURE_InChIS>
InChI=1S/C8H18N2O/c1-3-5-7-10(9-11)8-6-4-2/h3-8H2,1-2H3

> <STRUCTURE_InChIKey>
YGJHZCLPZAZIHH-UHFFFAOYSA-N

> <Substance_modify_yyyymmdd>
20080429

> <Coord_Metals>
0

> <Index>
171

> <Canonical_Smiles>
CCCCN(CCCC)N=O

> <Molecular_Weight>
158.24131

> <Frequency>
1

$$$$

  SciTegic          2D

 17 16  0  0  0  0            999 V2000
    1.3000    0.7500    0.0000 C   0  0
    2.6000    0.0000    0.0000 C   0  0
    3.9000    0.7500    0.0000 N   0  0
    5.2000    0.0000    0.0000 C   0  0
    6.5000    0.7500    0.0000 C   0  0
    3.9031    2.2508    0.0000 N   0  0
    4.9431    2.8494    0.0000 O   0  0
    0.4338    0.2503    0.0000 H   0  0
    0.4340    1.2501    0.0000 H   0  0
    1.3000    1.7500    0.0000 H   0  0
    3.4659   -0.5001    0.0000 H   0  0
    2.6000   -1.0000    0.0000 H   0  0
    4.3340   -0.5001    0.0000 H   0  0
    5.2000   -1.0000    0.0000 H   0  0
    7.3661    0.2503    0.0000 H   0  0
    7.3659    1.2501    0.0000 H   0  0
    6.5000    1.7500    0.0000 H   0  0
  1  2  1  0
  2  3  1  0
  3  4  1  0
  3  6  1  0
  4  5  1  0
  6  7  2  0
  1  8  1  0
  1  9  1  0
  1 10  1  0
  2 11  1  0
  2 12  1  0
  4 13  1  0
  4 14  1  0
  5 15  1  0
  5 16  1  0
  5 17  1  0
V    1 0
V    2 1
V    3 2
V    4 3
V    5 4
V    6 5
V    7 6
M  END
> <DSSTox_RID>
66772

> <DSSTox_CID>
1028

> <DSSTox_CID_Parent>
1028

> <DSSTox_Generic_SID>
21028

> <DSSTox_FileID>
172_TXCST2_v1a

> <STRUCTURE_Formula>
C4H10N2O

> <STRUCTURE_MolecularWeight>
102.135

> <STRUCTURE_ChemicalType>
defined organic

> <STRUCTURE_TestedForm_DefinedOrganic>
parent

> <STRUCTURE_Shown>
tested chemical

> <TestSubstance_ChemicalName>
N-Nitrosodiethylamine

> <TestSubstance_CASRN>
55-18-5

> <TestSubstance_Description>
single chemical compound

> <STRUCTURE_ChemicalName_IUPAC>
N-ethyl-N-nitrosoethanamine

> <STRUCTURE_SMILES>
CCN(CC)N=O

> <STRUCTURE_Parent_SMILES>
CCN(CC)N=O

> <STRUCTURE_InChIS>
InChI=1S/C4H10N2O/c1-3-6(4-2)5-7/h3-4H2,1-2H3

> <STRUCTURE_InChIKey>
WBNQDOYYEUMPFS-UHFFFAOYSA-N

> <Substance_modify_yyyymmdd>
20080429

> <Coord_Metals>
0

> <Index>
172

> <Canonical_Smiles>
CCN(CC)N=O

> <Molecular_Weight>
102.135

> <Frequency>
1

$$$$

  SciTegic          2D

 25 26  0  0  0  0            999 V2000
    4.9372   -1.3609    0.0000 O   0  0
    3.8999   -0.7576    0.0000 N   0  0
    2.5973   -1.5031    0.0000 N   0  0
    1.2990   -0.7500    0.0000 C   0  0
    1.2990    0.7500    0.0000 C   0  0
    0.0000    1.5000    0.0000 C   0  0
   -1.2990    0.7500    0.0000 C   0  0
   -1.2990   -0.7500    0.0000 C   0  0
    0.0000   -1.5000    0.0000 C   0  0
    2.5951   -3.0039    0.0000 C   0  0
    3.8915   -3.7585    0.0000 C   0  0
    3.8864   -5.2585    0.0000 C   0  0
    2.5847   -6.0040    0.0000 C   0  0
    1.2883   -5.2495    0.0000 C   0  0
    1.2935   -3.7495    0.0000 C   0  0
    2.1651    1.2500    0.0000 H   0  0
    0.0000    2.5000    0.0000 H   0  0
   -2.1651    1.2500    0.0000 H   0  0
   -2.1651   -1.2500    0.0000 H   0  0
    0.0000   -2.5000    0.0000 H   0  0
    4.7593   -3.2615    0.0000 H   0  0
    4.7506   -5.7615    0.0000 H   0  0
    2.5813   -7.0040    0.0000 H   0  0
    0.4205   -5.7465    0.0000 H   0  0
    0.4292   -3.2465    0.0000 H   0  0
  1  2  2  0
  2  3  1  0
  3  4  1  0
  3 10  1  0
  4  5  2  0
  4  9  1  0
  5  6  1  0
  6  7  2  0
  7  8  1  0
  8  9  2  0
 10 11  2  0
 10 15  1  0
 11 12  1  0
 12 13  2  0
 13 14  1  0
 14 15  2  0
  5 16  1  0
  6 17  1  0
  7 18  1  0
  8 19  1  0
  9 20  1  0
 11 21  1  0
 12 22  1  0
 13 23  1  0
 14 24  1  0
 15 25  1  0
V    1 0
V    2 1
V    3 2
V    4 3
V    5 4
V    6 5
V    7 6
V    8 7
V    9 8
V   10 9
V   11 10
V   12 11
V   13 12
V   14 13
V   15 14
M  END
> <DSSTox_RID>
61267

> <DSSTox_CID>
1030

> <DSSTox_CID_Parent>
1030

> <DSSTox_Generic_SID>
21030

> <DSSTox_FileID>
173_TXCST2_v1a

> <STRUCTURE_Formula>
C12H10N2O

> <STRUCTURE_MolecularWeight>
198.2206

> <STRUCTURE_ChemicalType>
defined organic

> <STRUCTURE_TestedForm_DefinedOrganic>
parent

> <STRUCTURE_Shown>
tested chemical

> <TestSubstance_ChemicalName>
N-Nitrosodiphenylamine

> <TestSubstance_CASRN>
86-30-6

> <TestSubstance_Description>
single chemical compound

> <STRUCTURE_ChemicalName_IUPAC>
N-nitroso-N-phenylaniline

> <STRUCTURE_SMILES>
O=NN(C1=CC=CC=C1)C2=CC=CC=C2

> <STRUCTURE_Parent_SMILES>
O=NN(C1=CC=CC=C1)C2=CC=CC=C2

> <STRUCTURE_InChIS>
InChI=1S/C12H10N2O/c15-13-14(11-7-3-1-4-8-11)12-9-5-2-6-10-12/h1-10H

> <STRUCTURE_InChIKey>
UBUCNCOMADRQHX-UHFFFAOYSA-N

> <Substance_modify_yyyymmdd>
20080429

> <Coord_Metals>
0

> <Index>
173

> <Canonical_Smiles>
O=NN(c1ccccc1)c2ccccc2

> <Molecular_Weight>
198.22059

> <Frequency>
1

$$$$

  SciTegic          2D

 23 22  0  0  0  0            999 V2000
    6.2431   -2.0994    0.0000 O   0  0
    5.2030   -1.5008    0.0000 N   0  0
    5.2000    0.0000    0.0000 N   0  0
    3.9000    0.7500    0.0000 C   0  0
    2.6000    0.0000    0.0000 C   0  0
    1.3000    0.7500    0.0000 C   0  0
    6.5000    0.7500    0.0000 C   0  0
    7.7999    0.0000    0.0000 C   0  0
    9.0999    0.7500    0.0000 C   0  0
    4.7659    1.2501    0.0000 H   0  0
    3.9000    1.7500    0.0000 H   0  0
    1.7340   -0.5001    0.0000 H   0  0
    2.6000   -1.0000    0.0000 H   0  0
    0.4338    0.2503    0.0000 H   0  0
    0.4340    1.2501    0.0000 H   0  0
    1.3000    1.7500    0.0000 H   0  0
    5.6340    1.2501    0.0000 H   0  0
    6.5000    1.7500    0.0000 H   0  0
    6.9340   -0.5001    0.0000 H   0  0
    7.7999   -1.0000    0.0000 H   0  0
    9.9661    0.2503    0.0000 H   0  0
    9.9659    1.2501    0.0000 H   0  0
    9.0999    1.7500    0.0000 H   0  0
  1  2  2  0
  2  3  1  0
  3  4  1  0
  3  7  1  0
  4  5  1  0
  5  6  1  0
  7  8  1  0
  8  9  1  0
  4 10  1  0
  4 11  1  0
  5 12  1  0
  5 13  1  0
  6 14  1  0
  6 15  1  0
  6 16  1  0
  7 17  1  0
  7 18  1  0
  8 19  1  0
  8 20  1  0
  9 21  1  0
  9 22  1  0
  9 23  1  0
V    1 0
V    2 1
V    3 2
V    4 3
V    5 4
V    6 5
V    7 6
V    8 7
V    9 8
M  END
> <DSSTox_RID>
62363

> <DSSTox_CID>
1032

> <DSSTox_CID_Parent>
1032

> <DSSTox_Generic_SID>
21032

> <DSSTox_FileID>
174_TXCST2_v1a

> <STRUCTURE_Formula>
C6H14N2O

> <STRUCTURE_MolecularWeight>
130.1882

> <STRUCTURE_ChemicalType>
defined organic

> <STRUCTURE_TestedForm_DefinedOrganic>
parent

> <STRUCTURE_Shown>
tested chemical

> <TestSubstance_ChemicalName>
N-Nitrosodipropylamine

> <TestSubstance_CASRN>
621-64-7

> <TestSubstance_Description>
single chemical compound

> <STRUCTURE_ChemicalName_IUPAC>
N-nitroso-N-propylpropan-1-amine

> <STRUCTURE_SMILES>
O=NN(CCC)CCC

> <STRUCTURE_Parent_SMILES>
O=NN(CCC)CCC

> <STRUCTURE_InChIS>
InChI=1S/C6H14N2O/c1-3-5-8(7-9)6-4-2/h3-6H2,1-2H3

> <STRUCTURE_InChIKey>
YLKFDHTUAUWZPQ-UHFFFAOYSA-N

> <Substance_modify_yyyymmdd>
20080429

> <Coord_Metals>
0

> <Index>
174

> <Canonical_Smiles>
CCCN(CCC)N=O

> <Molecular_Weight>
130.18816

> <Frequency>
1

$$$$

  SciTegic          2D

 27 26  0  0  0  0            999 V2000
    9.0999    1.9500    0.0000 O   0  0
    9.0999    0.7500    0.0000 C   0  0
    7.7999    0.0000    0.0000 C   0  0
    6.5000    0.7500    0.0000 N   0  0
    5.2000    0.0000    0.0000 O   0  0
    3.9000    0.7500    0.0000 C   0  0
    3.9000    1.9500    0.0000 O   0  0
    2.6000    0.0000    0.0000 N   0  0
    1.3000    0.7500    0.0000 C   0  0
    7.7969   -1.5008    0.0000 S   0  0
    6.4960   -2.2494    0.0000 C   0  0
   10.3999    0.0000    0.0000 N   0  0
   11.6999    0.7500    0.0000 C   0  0
   10.3968   -1.5008    0.0000 C   0  0
    2.6000   -1.0000    0.0000 H   0  0
    0.4338    0.2503    0.0000 H   0  0
    0.4340    1.2501    0.0000 H   0  0
    1.3000    1.7500    0.0000 H   0  0
    6.4940   -3.2494    0.0000 H   0  0
    5.6291   -2.7477    0.0000 H   0  0
    5.6309   -1.7479    0.0000 H   0  0
   12.5661    0.2503    0.0000 H   0  0
   11.6999    1.7500    0.0000 H   0  0
   12.5659    1.2501    0.0000 H   0  0
    9.5301   -1.9996    0.0000 H   0  0
   10.3953   -2.5008    0.0000 H   0  0
   11.2620   -2.0023    0.0000 H   0  0
  1  2  2  0
  2  3  1  0
  2 12  1  0
  3  4  2  0
  3 10  1  0
  4  5  1  0
  5  6  1  0
  6  7  2  0
  6  8  1  0
  8  9  1  0
 10 11  1  0
 12 13  1  0
 12 14  1  0
  8 15  1  0
  9 16  1  0
  9 17  1  0
  9 18  1  0
 11 19  1  0
 11 20  1  0
 11 21  1  0
 13 22  1  0
 13 23  1  0
 13 24  1  0
 14 25  1  0
 14 26  1  0
 14 27  1  0
V    1 0
V    2 1
V    3 2
V    4 3
V    5 4
V    6 5
V    7 6
V    8 7
V    9 8
V   10 9
V   11 10
V   12 11
V   13 12
V   14 13
M  END
> <DSSTox_RID>
59659

> <DSSTox_CID>
1086

> <DSSTox_CID_Parent>
1086

> <DSSTox_Generic_SID>
21086

> <DSSTox_FileID>
175_TXCST2_v1a

> <STRUCTURE_Formula>
C7H13N3O3S

> <STRUCTURE_MolecularWeight>
219.2614

> <STRUCTURE_ChemicalType>
defined organic

> <STRUCTURE_TestedForm_DefinedOrganic>
parent

> <STRUCTURE_Shown>
tested chemical

> <TestSubstance_ChemicalName>
Oxamyl

> <TestSubstance_CASRN>
23135-22-0

> <TestSubstance_Description>
single chemical compound

> <Source_ChemicalNote>
tested chemical contained 0.12% water (0.01 moles H2O)

> <STRUCTURE_ChemicalName_IUPAC>
methyl (1Z)-2-(dimethylamino)-N-{[(methylamino)carbonyl]oxy}-2-oxoethanimidothioate

> <STRUCTURE_SMILES>
O=C(C(=NOC(=O)NC)SC)N(C)C

> <STRUCTURE_Parent_SMILES>
O=C(C(=NOC(=O)NC)SC)N(C)C

> <STRUCTURE_InChIS>
InChI=1S/C7H13N3O3S/c1-8-7(12)13-9-5(14-4)6(11)10(2)3/h1-4H3,(H,8,12)/b9-5-

> <STRUCTURE_InChIKey>
KZAUOCCYDRDERY-UITAMQMPSA-N

> <Substance_modify_yyyymmdd>
20080429

> <Coord_Metals>
0

> <Index>
175

> <Canonical_Smiles>
CNC(=O)ON=C(SC)C(=O)N(C)C

> <Molecular_Weight>
219.26141

> <Frequency>
1

$$$$

  SciTegic          2D

 27 28  0  0  0  0            999 V2000
    2.5973   -1.5031    0.0000 N   0  0
    1.2990   -0.7500    0.0000 C   0  0
    1.2990    0.7500    0.0000 C   0  0
    0.0000    1.5000    0.0000 C   0  0
   -1.2990    0.7500    0.0000 C   0  0
   -1.2990   -0.7500    0.0000 C   0  0
    0.0000   -1.5000    0.0000 C   0  0
   -2.6003    1.4977    0.0000 O   0  0
   -3.8990    0.7455    0.0000 C   0  0
   -5.2007    1.4909    0.0000 C   0  0
   -6.4972    0.7364    0.0000 C   0  0
   -6.4920   -0.7636    0.0000 C   0  0
   -5.1903   -1.5091    0.0000 C   0  0
   -3.8939   -0.7546    0.0000 C   0  0
   -7.7876   -1.5212    0.0000 N   0  0
    2.5958   -2.5031    0.0000 H   0  0
    3.4642   -1.0046    0.0000 H   0  0
    2.1651    1.2500    0.0000 H   0  0
    0.0000    2.5000    0.0000 H   0  0
   -2.1651   -1.2500    0.0000 H   0  0
    0.0000   -2.5000    0.0000 H   0  0
   -5.2042    2.4909    0.0000 H   0  0
   -7.3649    1.2334    0.0000 H   0  0
   -5.1869   -2.5091    0.0000 H   0  0
   -3.0262   -1.2516    0.0000 H   0  0
   -7.7827   -2.5212    0.0000 H   0  0
   -8.6562   -1.0257    0.0000 H   0  0
  1  2  1  0
  2  3  2  0
  2  7  1  0
  3  4  1  0
  4  5  2  0
  5  6  1  0
  5  8  1  0
  6  7  2  0
  8  9  1  0
  9 10  2  0
  9 14  1  0
 10 11  1  0
 11 12  2  0
 12 13  1  0
 12 15  1  0
 13 14  2  0
  1 16  1  0
  1 17  1  0
  3 18  1  0
  4 19  1  0
  6 20  1  0
  7 21  1  0
 10 22  1  0
 11 23  1  0
 13 24  1  0
 14 25  1  0
 15 26  1  0
 15 27  1  0
V    1 0
V    2 1
V    3 2
V    4 3
V    5 4
V    6 5
V    7 6
V    8 7
V    9 8
V   10 9
V   11 10
V   12 11
V   13 12
V   14 13
V   15 14
M  END
> <DSSTox_RID>
66812

> <DSSTox_CID>
1094

> <DSSTox_CID_Parent>
1094

> <DSSTox_Generic_SID>
21094

> <DSSTox_FileID>
176_TXCST2_v1a

> <STRUCTURE_Formula>
C12H12N2O

> <STRUCTURE_MolecularWeight>
200.2365

> <STRUCTURE_ChemicalType>
defined organic

> <STRUCTURE_TestedForm_DefinedOrganic>
parent

> <STRUCTURE_Shown>
tested chemical

> <TestSubstance_ChemicalName>
4,4'-Diaminodiphenyl ether

> <TestSubstance_CASRN>
101-80-4

> <TestSubstance_Description>
single chemical compound

> <STRUCTURE_ChemicalName_IUPAC>
4,4'-oxydianiline

> <STRUCTURE_SMILES>
NC1=CC=C(C=C1)OC2=CC=C(C=C2)N

> <STRUCTURE_Parent_SMILES>
NC1=CC=C(C=C1)OC2=CC=C(C=C2)N

> <STRUCTURE_InChIS>
InChI=1S/C12H12N2O/c13-9-1-5-11(6-2-9)15-12-7-3-10(14)4-8-12/h1-8H,13-14H2

> <STRUCTURE_InChIKey>
HLBLWEWZXPIGSM-UHFFFAOYSA-N

> <Substance_modify_yyyymmdd>
20080429

> <Coord_Metals>
0

> <Index>
176

> <Canonical_Smiles>
Nc1ccc(Oc2ccc(N)cc2)cc1

> <Molecular_Weight>
200.23647

> <Frequency>
1

$$$$

  SciTegic          2D

 57 60  0  0  0  0            999 V2000
    1.9711    0.2243    0.0000 C   0  0
   -0.6089    0.2243    0.0000 C   0  0
    1.9711   -1.2660    0.0000 C   0  0
    4.5671    0.2243    0.0000 C   0  0
    0.6891    0.9935    0.0000 C   0  0
   -0.6089   -1.2660    0.0000 C   0  0
    3.2691    0.9935    0.0000 C   0  0
    4.5671   -1.2660    0.0000 C   0  0
   -1.9070    0.9935    0.0000 C   0  0
   -1.9070   -2.0191    0.0000 C   0  0
    3.2691   -2.0191    0.0000 C   0  0
    0.6891   -2.0191    0.0000 C   0  0
   -3.2050    0.2243    0.0000 C   0  0
   -3.2050   -1.2660    0.0000 C   0  0
    5.8752    0.9603    0.0000 C   0  0
    4.2482   -3.1297    0.0000 N   0  0
    3.2722    2.4940    0.0000 O   0  0
   -1.9070    2.1935    0.0000 O   0  0
   -4.5030    0.9935    0.0000 C   0  0
    1.9739    1.7256    0.0000 O   0  0
    6.9076    0.3486    0.0000 O   0  0
    0.6937    2.4940    0.0000 O   0  0
    5.4337   -1.7650    0.0000 O   0  0
    1.9909   -2.7247    0.0000 O   0  0
    5.8928    2.4611    0.0000 N   0  0
   -4.5030   -2.0191    0.0000 C   0  0
   -4.5061    2.4940    0.0000 O   0  0
   -5.8010   -1.2660    0.0000 C   0  0
   -5.8010    0.2243    0.0000 C   0  0
    5.7263   -2.8697    0.0000 C   0  0
    3.7376   -4.5410    0.0000 C   0  0
   -0.6070   -2.7279    0.0000 O   0  0
   -3.2071   -2.7282    0.0000 C   0  0
    2.8357   -0.7636    0.0000 H   0  0
    0.2571   -0.7660    0.0000 H   0  0
    2.3912   -2.4980    0.0000 H   0  0
   -0.1874   -2.5005    0.0000 H   0  0
    4.1389    2.9928    0.0000 H   0  0
    2.8405    2.2246    0.0000 H   0  0
   -0.1705    2.9972    0.0000 H   0  0
    2.8558   -2.2228    0.0000 H   0  0
    6.7642    2.9515    0.0000 H   0  0
    5.0325    2.9709    0.0000 H   0  0
   -4.5030   -3.0191    0.0000 H   0  0
   -5.3728    2.9928    0.0000 H   0  0
   -6.6676   -1.7650    0.0000 H   0  0
   -6.6698    0.7194    0.0000 H   0  0
    6.3693   -3.6356    0.0000 H   0  0
    6.0685   -1.9301    0.0000 H   0  0
    6.7111   -2.6960    0.0000 H   0  0
    4.3814   -5.3062    0.0000 H   0  0
    2.7531   -4.7163    0.0000 H   0  0
    3.3970   -5.4812    0.0000 H   0  0
    0.2592   -2.2282    0.0000 H   0  0
   -3.2079   -3.7282    0.0000 H   0  0
   -2.3414   -3.2287    0.0000 H   0  0
   -4.0729   -2.2278    0.0000 H   0  0
  1  3  1  0
  1  5  1  0
  1  7  1  0
  1 20  1  0
  2  5  2  0
  2  6  1  0
  2  9  1  0
  3 11  1  0
  3 12  1  0
  4  7  2  0
  4  8  1  0
  4 15  1  0
  5 22  1  0
  6 10  1  0
  6 12  1  0
  7 17  1  0
  8 23  2  0
  8 11  1  0
  9 13  1  0
  9 18  2  0
 10 14  1  0
 10 32  1  0
 10 33  1  0
 11 16  1  0
 12 24  1  0
 13 14  2  0
 13 19  1  0
 14 26  1  0
 15 21  2  0
 15 25  1  0
 16 30  1  0
 16 31  1  0
 19 27  1  0
 19 29  2  0
 26 28  2  0
 28 29  1  0
  3 34  1  0
  6 35  1  0
 11 36  1  0
 12 37  1  0
 17 38  1  0
 20 39  1  0
 22 40  1  0
 24 41  1  0
 25 42  1  0
 25 43  1  0
 26 44  1  0
 27 45  1  0
 28 46  1  0
 29 47  1  0
 30 48  1  0
 30 49  1  0
 30 50  1  0
 31 51  1  0
 31 52  1  0
 31 53  1  0
 32 54  1  0
 33 55  1  0
 33 56  1  0
 33 57  1  0
V    1 0
V    2 1
V    3 2
V    4 3
V    5 4
V    6 5
V    7 6
V    8 7
V    9 8
V   10 9
V   11 10
V   12 11
V   13 12
V   14 13
V   15 14
V   16 15
V   17 16
V   18 17
V   19 18
V   20 19
V   21 20
V   22 21
V   23 22
V   24 23
V   25 24
V   26 25
V   27 26
V   28 27
V   29 28
V   30 29
V   31 30
V   32 33
V   33 34
M  END
> <DSSTox_RID>
62291
59636

> <DSSTox_CID>
1097
3412

> <DSSTox_CID_Parent>
14260
14260

> <DSSTox_Generic_SID>
21097
23412

> <DSSTox_FileID>
177_TXCST2_v1a
338_TXCST2_v1a

> <STRUCTURE_Formula>
C22H25ClN2O9
C22H28N2O11

> <STRUCTURE_MolecularWeight>
496.8949
496.4645

> <STRUCTURE_ChemicalType>
defined organic
defined organic

> <STRUCTURE_TestedForm_DefinedOrganic>
complex HCl
complex 2H2O

> <STRUCTURE_Shown>
tested chemical
tested chemical

> <TestSubstance_ChemicalName>
Oxytetracycline hydrochloride
Oxytetracycline dihydrate

> <TestSubstance_CASRN>
2058-46-0
6153-64-6

> <TestSubstance_Description>
single chemical compound
single chemical compound

> <ChemicalNote>
stereochem; parent [79-57-2]
stereochem; tautomers; parent [79-57-2]

> <Source_ChemicalNote>
tested chemical contained 2% water (0.56 moles H2O)
tested chemical contained 7.9% water (2.19 moles H2O)

> <STRUCTURE_ChemicalName_IUPAC>
(4S,4aR,5S,5aR,6S,12aS)-4-(dimethylamino)-3,5,6,10,12,12a-hexahydroxy-6-methyl-1,11-dioxo-1,4,4a,5,5a,6,11,12a-octahydrotetracene-2-carboxamide hydrochloride
(4S,4aR,5S,5aR,6S,12aS)-4-(dimethylamino)-3,5,6,10,12,12a-hexahydroxy-6-methyl-1,11-dioxo-1,4,4a,5,5a,6,11,12a-octahydrotetracene-2-carboxamide dihydrate

> <STRUCTURE_SMILES>
O=C1[C@](C(O)=C2[C@@]3([H])[C@@](O)(C)C4=C(C(O)=CC=C4)C2=O)(O)[C@]([C@H]3O)([H])[C@H](N(C)C)C(O)=C1C(N)=O.Cl
O=C1[C@](C(O)=C2[C@@]3([H])[C@@](O)(C)C4=C(C(O)=CC=C4)C2=O)(O)[C@]([C@H]3O)([H])[C@H](N(C)C)C(O)=C1C(N)=O.O.O

> <STRUCTURE_Parent_SMILES>
O=C1[C@](C(O)=C2[C@@]3([H])[C@@](O)(C)C4=C(C(O)=CC=C4)C2=O)(O)[C@]([C@H]3O)([H])[C@H](N(C)C)C(O)=C1C(N)=O
[C@]\21([C@H]([C@@H](C(=C(/C1=O)C(=O)N)\O)N(C)C)[C@H]([C@H]3/C(=C/2O)C(c4c([C@]3(O)C)cccc4O)=O)O)O

> <STRUCTURE_InChIS>
InChI=1S/C22H24N2O9.ClH/c1-21(32)7-5-4-6-8(25)9(7)15(26)10-12(21)17(28)13-14(24(2)3)16(27)11(20(23)31)19(30)22(13,33)18(10)29;/h4-6,12-14,17,25,27-29,32-33H,1-3H3,(H2,23,31);1H/t12-,13-,14+,17+,21-,22
+;/m1./s1
InChI=1S/C22H24N2O9.2H2O/c1-21(32)7-5-4-6-8(25)9(7)15(26)10-12(21)17(28)13-14(24(2)3)16(27)11(20(23)31)19(30)22(13,33)18(10)29;;/h4-6,12-14,17,25,27-29,32-33H,1-3H3,(H2,23,31);2*1H2/t12-,13-,14+,17+,2
1-,22+;;/m1../s1

> <STRUCTURE_InChIKey>
UBDNTYUBJLXUNN-IFLJXUKPSA-N
SRRPEXWCHWWJOC-JEKSYDDFSA-N

> <Substance_modify_yyyymmdd>
20080429
20080429

> <Coord_Metals>
0
0

> <Index>
177
338

> <Canonical_Smiles>
CN(C)C1C2C(O)C3C(=C(O)C2(O)C(=C(C(=O)N)C1=O)O)C(=O)c4c(O)cccc4C3(C)O

> <Molecular_Weight>
460.43396
460.43396

> <Frequency>
2

$$$$

  SciTegic          2D

 32 32  0  0  0  0            999 V2000
    3.9019    0.4438    0.0000 S   0  0
    3.8990   -0.7562    0.0000 P   0  0
    2.5973   -1.5031    0.0000 O   0  0
    2.5923   -3.0039    0.0000 C   0  0
    3.8873   -3.7609    0.0000 C   0  0
    3.8792   -5.2609    0.0000 C   0  0
    2.5761   -6.0039    0.0000 C   0  0
    1.2812   -5.2469    0.0000 C   0  0
    1.2892   -3.7469    0.0000 C   0  0
    2.5650   -7.5047    0.0000 N   0  0
    1.5217   -8.0976    0.0000 O   0  0
    3.5999   -8.1120    0.0000 O   0  0
    5.1972   -1.5092    0.0000 O   0  0
    6.4990   -0.7623    0.0000 C   0  0
    7.7972   -1.5154    0.0000 C   0  0
    2.5769    0.0138    0.0000 O   0  0
    2.5817    1.5146    0.0000 C   0  0
    1.2848    2.2700    0.0000 C   0  0
    4.7560   -3.2656    0.0000 H   0  0
    4.7425   -5.7655    0.0000 H   0  0
    0.4125   -5.7422    0.0000 H   0  0
    0.4259   -3.2423    0.0000 H   0  0
    6.5014    0.2377    0.0000 H   0  0
    5.6342   -0.2601    0.0000 H   0  0
    8.6646   -1.0177    0.0000 H   0  0
    7.7948   -2.5154    0.0000 H   0  0
    8.6620   -2.0176    0.0000 H   0  0
    3.4461    1.0117    0.0000 H   0  0
    3.4495    2.0116    0.0000 H   0  0
    1.2880    3.2700    0.0000 H   0  0
    0.4205    2.7729    0.0000 H   0  0
    0.4171    1.7730    0.0000 H   0  0
  1  2  2  0
  2  3  1  0
  2 13  1  0
  2 16  1  0
  3  4  1  0
  4  5  2  0
  4  9  1  0
  5  6  1  0
  6  7  2  0
  7  8  1  0
  7 10  1  0
  8  9  2  0
 10 11  2  0
 10 12  2  0
 13 14  1  0
 14 15  1  0
 16 17  1  0
 17 18  1  0
  5 19  1  0
  6 20  1  0
  8 21  1  0
  9 22  1  0
 14 23  1  0
 14 24  1  0
 15 25  1  0
 15 26  1  0
 15 27  1  0
 17 28  1  0
 17 29  1  0
 18 30  1  0
 18 31  1  0
 18 32  1  0
V    1 0
V    2 1
V    3 2
V    4 3
V    5 4
V    6 5
V    7 6
V    8 7
V    9 8
V   10 9
V   11 10
V   12 11
V   13 12
V   14 13
V   15 14
V   16 15
V   17 16
V   18 17
M  END
> <DSSTox_RID>
65338

> <DSSTox_CID>
1100

> <DSSTox_CID_Parent>
1100

> <DSSTox_Generic_SID>
21100

> <DSSTox_FileID>
178_TXCST2_v1a

> <STRUCTURE_Formula>
C10H14NO5PS

> <STRUCTURE_MolecularWeight>
291.2606

> <STRUCTURE_ChemicalType>
defined organic

> <STRUCTURE_TestedForm_DefinedOrganic>
parent

> <STRUCTURE_Shown>
tested chemical

> <TestSubstance_ChemicalName>
Parathion

> <TestSubstance_CASRN>
56-38-2

> <TestSubstance_Description>
single chemical compound

> <STRUCTURE_ChemicalName_IUPAC>
O,O-diethyl O-(4-nitrophenyl) thiophosphate

> <STRUCTURE_SMILES>
S=P(OC1=CC=C(C=C1)[N+](=O)[O-])(OCC)OCC

> <STRUCTURE_Parent_SMILES>
S=P(OC1=CC=C(C=C1)[N+](=O)[O-])(OCC)OCC

> <STRUCTURE_InChIS>
InChI=1S/C10H14NO5PS/c1-3-14-17(18,15-4-2)16-10-7-5-9(6-8-10)11(12)13/h5-8H,3-4H2,1-2H3

> <STRUCTURE_InChIKey>
LCCNCVORNKJIRZ-UHFFFAOYSA-N

> <Substance_modify_yyyymmdd>
20080429

> <Coord_Metals>
0

> <Index>
178

> <Canonical_Smiles>
CCOP(=S)(OCC)Oc1ccc(cc1)N(=O)=O

> <Molecular_Weight>
291.26062

> <Frequency>
1

$$$$

  SciTegic          2D

 14 14  0  0  0  0            999 V2000
    2.3383   -1.3500    0.0000 Cl  0  0
    1.2990   -0.7500    0.0000 C   0  0
    1.2990    0.7500    0.0000 C   0  0
    0.0000    1.5000    0.0000 C   0  0
   -1.2990    0.7500    0.0000 C   0  0
   -1.2990   -0.7500    0.0000 C   0  0
    0.0000   -1.5000    0.0000 C   0  0
    0.0000   -2.7000    0.0000 Cl  0  0
   -2.3383   -1.3500    0.0000 Cl  0  0
   -2.3383    1.3500    0.0000 Cl  0  0
    0.0000    2.7000    0.0000 Cl  0  0
    2.5972    1.5031    0.0000 N   0  0
    2.5955    2.7031    0.0000 O   0  0
    3.6375    0.9049    0.0000 O   0  0
  1  2  1  0
  2  3  2  0
  2  7  1  0
  3  4  1  0
  3 12  1  0
  4  5  2  0
  4 11  1  0
  5  6  1  0
  5 10  1  0
  6  7  2  0
  6  9  1  0
  7  8  1  0
 12 13  2  0
 12 14  2  0
V    1 0
V    2 1
V    3 2
V    4 3
V    5 4
V    6 5
V    7 6
V    8 7
V    9 8
V   10 9
V   11 10
V   12 11
V   13 12
V   14 13
M  END
> <DSSTox_RID>
60206

> <DSSTox_CID>
1105

> <DSSTox_CID_Parent>
1105

> <DSSTox_Generic_SID>
21105

> <DSSTox_FileID>
179_TXCST2_v1a

> <STRUCTURE_Formula>
C6Cl5NO2

> <STRUCTURE_MolecularWeight>
295.3347

> <STRUCTURE_ChemicalType>
defined organic

> <STRUCTURE_TestedForm_DefinedOrganic>
parent

> <STRUCTURE_Shown>
tested chemical

> <TestSubstance_ChemicalName>
Pentachloronitrobenzene

> <TestSubstance_CASRN>
82-68-8

> <TestSubstance_Description>
single chemical compound

> <STRUCTURE_ChemicalName_IUPAC>
1,2,3,4,5-pentachloro-6-nitrobenzene

> <STRUCTURE_SMILES>
ClC1=C(C(=C(C(=C1Cl)Cl)Cl)Cl)[N+](=O)[O-]

> <STRUCTURE_Parent_SMILES>
ClC1=C(C(=C(C(=C1Cl)Cl)Cl)Cl)[N+](=O)[O-]

> <STRUCTURE_InChIS>
InChI=1S/C6Cl5NO2/c7-1-2(8)4(10)6(12(13)14)5(11)3(1)9

> <STRUCTURE_InChIKey>
LKPLKUMXSAEKID-UHFFFAOYSA-N

> <Substance_modify_yyyymmdd>
20080429

> <Coord_Metals>
0

> <Index>
179

> <Canonical_Smiles>
Clc1c(Cl)c(Cl)c(c(Cl)c1Cl)N(=O)=O

> <Molecular_Weight>
295.3347

> <Frequency>
1

$$$$

  SciTegic          2D

 13 13  0  0  0  0            999 V2000
    2.5973   -1.5031    0.0000 O   0  0
    1.2990   -0.7500    0.0000 C   0  0
    1.2990    0.7500    0.0000 C   0  0
    0.0000    1.5000    0.0000 C   0  0
   -1.2990    0.7500    0.0000 C   0  0
   -1.2990   -0.7500    0.0000 C   0  0
    0.0000   -1.5000    0.0000 C   0  0
    0.0000   -2.7000    0.0000 Cl  0  0
   -2.3383   -1.3500    0.0000 Cl  0  0
   -2.3383    1.3500    0.0000 Cl  0  0
    0.0000    2.7000    0.0000 Cl  0  0
    2.3383    1.3500    0.0000 Cl  0  0
    2.5958   -2.5031    0.0000 H   0  0
  1  2  1  0
  2  3  2  0
  2  7  1  0
  3  4  1  0
  3 12  1  0
  4  5  2  0
  4 11  1  0
  5  6  1  0
  5 10  1  0
  6  7  2  0
  6  9  1  0
  7  8  1  0
  1 13  1  0
V    1 0
V    2 1
V    3 2
V    4 3
V    5 4
V    6 5
V    7 6
V    8 7
V    9 8
V   10 9
V   11 10
V   12 11
M  END
> <DSSTox_RID>
66341

> <DSSTox_CID>
1106

> <DSSTox_CID_Parent>
1106

> <DSSTox_Generic_SID>
21106

> <DSSTox_FileID>
180_TXCST2_v1a

> <STRUCTURE_Formula>
C6HCl5O

> <STRUCTURE_MolecularWeight>
266.3365

> <STRUCTURE_ChemicalType>
defined organic

> <STRUCTURE_TestedForm_DefinedOrganic>
parent

> <STRUCTURE_Shown>
tested chemical

> <TestSubstance_ChemicalName>
Pentachlorophenol

> <TestSubstance_CASRN>
87-86-5

> <TestSubstance_Description>
single chemical compound

> <STRUCTURE_ChemicalName_IUPAC>
pentachlorophenol

> <STRUCTURE_SMILES>
OC1=C(C(=C(C(=C1Cl)Cl)Cl)Cl)Cl

> <STRUCTURE_Parent_SMILES>
OC1=C(C(=C(C(=C1Cl)Cl)Cl)Cl)Cl

> <STRUCTURE_InChIS>
InChI=1S/C6HCl5O/c7-1-2(8)4(10)6(12)5(11)3(1)9/h12H

> <STRUCTURE_InChIKey>
IZUPBVBPLAPZRR-UHFFFAOYSA-N

> <Substance_modify_yyyymmdd>
20080429

> <Coord_Metals>
0

> <Index>
180

> <Canonical_Smiles>
Oc1c(Cl)c(Cl)c(Cl)c(Cl)c1Cl

> <Molecular_Weight>
266.33654

> <Frequency>
1

$$$$

  SciTegic          2D

 29 30  0  0  0  0            999 V2000
    1.2990   -0.7500    0.0000 C   0  0
    2.7506   -0.4572    0.0000 C   0  0
    3.2289    0.9645    0.0000 C   0  0
    4.6993    1.2611    0.0000 C   0  0
    5.6914    0.1360    0.0000 C   0  0
    5.2130   -1.2857    0.0000 C   0  0
    3.7426   -1.5823    0.0000 C   0  0
    1.2990    0.7500    0.0000 C   0  0
    0.0000    1.5000    0.0000 N   0  0
   -1.2990    0.7500    0.0000 C   0  0
   -1.2990   -0.7500    0.0000 N   0  0
    0.0000   -1.5000    0.0000 C   0  0
    0.0000   -2.5000    0.0000 O   0  0
   -2.3383    1.3500    0.0000 O   0  0
    2.1651    1.2500    0.0000 O   0  0
    1.7710   -2.1532    0.0000 C   0  0
    0.8068   -3.3033    0.0000 C   0  0
    2.5676    1.7146    0.0000 H   0  0
    5.0182    2.2089    0.0000 H   0  0
    6.6716    0.3337    0.0000 H   0  0
    5.8744   -2.0358    0.0000 H   0  0
    3.4238   -2.5301    0.0000 H   0  0
    0.0000    2.5000    0.0000 H   0  0
   -2.1651   -1.2500    0.0000 H   0  0
    2.1132   -3.0928    0.0000 H   0  0
    2.7558   -2.3267    0.0000 H   0  0
    1.1486   -4.2431    0.0000 H   0  0
    0.1639   -4.0693    0.0000 H   0  0
   -0.1781   -3.1298    0.0000 H   0  0
  1  2  1  0
  1  8  1  0
  1 12  1  0
  1 16  1  0
  2  3  2  0
  2  7  1  0
  3  4  1  0
  4  5  2  0
  5  6  1  0
  6  7  2  0
  8  9  1  0
  8 15  2  0
  9 10  1  0
 10 11  1  0
 10 14  2  0
 11 12  1  0
 12 13  2  0
 16 17  1  0
  3 18  1  0
  4 19  1  0
  5 20  1  0
  6 21  1  0
  7 22  1  0
  9 23  1  0
 11 24  1  0
 16 25  1  0
 16 26  1  0
 17 27  1  0
 17 28  1  0
 17 29  1  0
V    1 0
V    2 1
V    3 2
V    4 3
V    5 4
V    6 5
V    7 6
V    8 7
V    9 8
V   10 9
V   11 10
V   12 11
V   13 12
V   14 13
V   15 14
V   16 15
V   17 16
M  END
> <DSSTox_RID>
60215

> <DSSTox_CID>
1123

> <DSSTox_CID_Parent>
1122

> <DSSTox_Generic_SID>
21123

> <DSSTox_FileID>
181_TXCST2_v1a

> <STRUCTURE_Formula>
C12H11N2NaO3

> <STRUCTURE_MolecularWeight>
254.2171

> <STRUCTURE_ChemicalType>
defined organic

> <STRUCTURE_TestedForm_DefinedOrganic>
salt Na

> <STRUCTURE_Shown>
tested chemical

> <TestSubstance_ChemicalName>
Phenobarbital Na salt

> <TestSubstance_CASRN>
57-30-7

> <TestSubstance_Description>
single chemical compound

> <ChemicalNote>
parent [50-06-6]

> <Source_ChemicalNote>
tested chemical contained 2.2% water (0.32 moles H2O)

> <STRUCTURE_ChemicalName_IUPAC>
sodium 5-ethyl-4,6-dioxo-5-phenyl-1,4,5,6-tetrahydropyrimidin-2-olate

> <STRUCTURE_SMILES>
C1(C2=CC=CC=C2)(C(NC(=NC1=O)[O-])=O)CC.[Na+]

> <STRUCTURE_Parent_SMILES>
C1(C2=CC=CC=C2)(C(NC(=NC1=O)O)=O)CC

> <STRUCTURE_InChIS>
InChI=1S/C12H12N2O3.Na/c1-2-12(8-6-4-3-5-7-8)9(15)13-11(17)14-10(12)16;/h3-7H,2H2,1H3,(H2,13,14,15,16,17);/q;+1/p-1

> <STRUCTURE_InChIKey>
WRLGYAWRGXKSKG-UHFFFAOYSA-M

> <Substance_modify_yyyymmdd>
20080429

> <Coord_Metals>
0

> <Index>
181

> <FIXED>
SPEC_TAUTOMER_ADJ

> <Canonical_Smiles>
CCC1(C(=O)NC(=O)NC1=O)c2ccccc2

> <Molecular_Weight>
232.23527

> <Frequency>
1

$$$$

  SciTegic          2D

 13 13  0  0  0  0            999 V2000
    2.5973   -1.5031    0.0000 O   0  0
    1.2990   -0.7500    0.0000 C   0  0
    1.2990    0.7500    0.0000 C   0  0
    0.0000    1.5000    0.0000 C   0  0
   -1.2990    0.7500    0.0000 C   0  0
   -1.2990   -0.7500    0.0000 C   0  0
    0.0000   -1.5000    0.0000 C   0  0
    2.5958   -2.5031    0.0000 H   0  0
    2.1651    1.2500    0.0000 H   0  0
    0.0000    2.5000    0.0000 H   0  0
   -2.1651    1.2500    0.0000 H   0  0
   -2.1651   -1.2500    0.0000 H   0  0
    0.0000   -2.5000    0.0000 H   0  0
  1  2  1  0
  2  3  2  0
  2  7  1  0
  3  4  1  0
  4  5  2  0
  5  6  1  0
  6  7  2  0
  1  8  1  0
  3  9  1  0
  4 10  1  0
  5 11  1  0
  6 12  1  0
  7 13  1  0
V    1 0
V    2 1
V    3 2
V    4 3
V    5 4
V    6 5
V    7 6
M  END
> <DSSTox_RID>
65584

> <DSSTox_CID>
1124

> <DSSTox_CID_Parent>
1124

> <DSSTox_Generic_SID>
21124

> <DSSTox_FileID>
182_TXCST2_v1a

> <STRUCTURE_Formula>
C6H6O

> <STRUCTURE_MolecularWeight>
94.1112

> <STRUCTURE_ChemicalType>
defined organic

> <STRUCTURE_TestedForm_DefinedOrganic>
parent

> <STRUCTURE_Shown>
tested chemical

> <TestSubstance_ChemicalName>
Phenol

> <TestSubstance_CASRN>
108-95-2

> <TestSubstance_Description>
single chemical compound

> <STRUCTURE_ChemicalName_IUPAC>
phenol

> <STRUCTURE_SMILES>
OC1=CC=CC=C1

> <STRUCTURE_Parent_SMILES>
OC1=CC=CC=C1

> <STRUCTURE_InChIS>
InChI=1S/C6H6O/c7-6-4-2-1-3-5-6/h1-5,7H

> <STRUCTURE_InChIKey>
ISWSIDIOOBJBQZ-UHFFFAOYSA-N

> <Substance_modify_yyyymmdd>
20080429

> <Coord_Metals>
0

> <Index>
182

> <Canonical_Smiles>
Oc1ccccc1

> <Molecular_Weight>
94.11124

> <Frequency>
1

$$$$

  SciTegic          2D

 38 41  0  0  0  0            999 V2000
    2.0825    2.3453    0.0000 O   0  0
    1.7138    1.2033    0.0000 C   0  0
    2.5889    0.0182    0.0000 O   0  0
    1.7138   -1.2033    0.0000 C   0  0
    0.2917   -0.7475    0.0000 C   0  0
    0.2917    0.7475    0.0000 C   0  0
   -1.0028    1.5132    0.0000 C   0  0
   -2.3155    0.7475    0.0000 C   0  0
   -2.3155   -0.7475    0.0000 C   0  0
   -1.0028   -1.5132    0.0000 C   0  0
    1.1434   -2.5770    0.0000 C   0  0
    2.0556   -3.7678    0.0000 C   0  0
    1.4804   -5.1532    0.0000 C   0  0
   -0.0069   -5.3477    0.0000 C   0  0
   -0.9191   -4.1569    0.0000 C   0  0
   -0.3439   -2.7716    0.0000 C   0  0
   -0.5853   -6.7326    0.0000 O   0  0
    3.1827   -0.9667    0.0000 C   0  0
    4.1297   -2.1300    0.0000 C   0  0
    5.6106   -1.8915    0.0000 C   0  0
    6.1445   -0.4897    0.0000 C   0  0
    5.1975    0.6735    0.0000 C   0  0
    3.7166    0.4350    0.0000 C   0  0
    7.6257   -0.2480    0.0000 O   0  0
   -0.9997    2.5132    0.0000 H   0  0
   -3.1826    1.2456    0.0000 H   0  0
   -3.1826   -1.2456    0.0000 H   0  0
   -0.9997   -2.5132    0.0000 H   0  0
    3.0471   -3.6381    0.0000 H   0  0
    2.0885   -5.9470    0.0000 H   0  0
   -1.9106   -4.2866    0.0000 H   0  0
   -0.9520   -1.9777    0.0000 H   0  0
   -1.5770   -6.8609    0.0000 H   0  0
    3.7737   -3.0645    0.0000 H   0  0
    6.2419   -2.6670    0.0000 H   0  0
    5.5534    1.6081    0.0000 H   0  0
    3.0852    1.2105    0.0000 H   0  0
    7.9803    0.6870    0.0000 H   0  0
  1  2  2  0
  2  3  1  0
  2  6  1  0
  3  4  1  0
  4  5  1  0
  4 11  1  0
  4 18  1  0
  5  6  2  0
  5 10  1  0
  6  7  1  0
  7  8  2  0
  8  9  1  0
  9 10  2  0
 11 12  2  0
 11 16  1  0
 12 13  1  0
 13 14  2  0
 14 15  1  0
 14 17  1  0
 15 16  2  0
 18 19  2  0
 18 23  1  0
 19 20  1  0
 20 21  2  0
 21 22  1  0
 21 24  1  0
 22 23  2  0
  7 25  1  0
  8 26  1  0
  9 27  1  0
 10 28  1  0
 12 29  1  0
 13 30  1  0
 15 31  1  0
 16 32  1  0
 17 33  1  0
 19 34  1  0
 20 35  1  0
 22 36  1  0
 23 37  1  0
 24 38  1  0
V    1 0
V    2 1
V    3 2
V    4 3
V    5 4
V    6 5
V    7 6
V    8 7
V    9 8
V   10 9
V   11 10
V   12 11
V   13 12
V   14 13
V   15 14
V   16 15
V   17 16
V   18 17
V   19 18
V   20 19
V   21 20
V   22 21
V   23 22
V   24 23
M  END
> <DSSTox_RID>
60221

> <DSSTox_CID>
1125

> <DSSTox_CID_Parent>
1125

> <DSSTox_Generic_SID>
21125

> <DSSTox_FileID>
183_TXCST2_v1a

> <STRUCTURE_Formula>
C20H14O4

> <STRUCTURE_MolecularWeight>
318.3228

> <STRUCTURE_ChemicalType>
defined organic

> <STRUCTURE_TestedForm_DefinedOrganic>
parent

> <STRUCTURE_Shown>
tested chemical

> <TestSubstance_ChemicalName>
Phenolphthalein

> <TestSubstance_CASRN>
77-09-8

> <TestSubstance_Description>
single chemical compound

> <ChemicalNote>
furanone form shown [77-09-8]; acid form [81-90-3]

> <STRUCTURE_ChemicalName_IUPAC>
3,3-bis(4-hydroxyphenyl)-2-benzofuran-1(3H)-one

> <STRUCTURE_SMILES>
O=C1OC(C2=C1C=CC=C2)(C3=CC=C(C=C3)O)C4=CC=C(C=C4)O

> <STRUCTURE_Parent_SMILES>
O=C1OC(C2=C1C=CC=C2)(C3=CC=C(C=C3)O)C4=CC=C(C=C4)O

> <STRUCTURE_InChIS>
InChI=1S/C20H14O4/c21-15-9-5-13(6-10-15)20(14-7-11-16(22)12-8-14)18-4-2-1-3-17(18)19(23)24-20/h1-12,21-22H

> <STRUCTURE_InChIKey>
KJFMBFZCATUALV-UHFFFAOYSA-N

> <Substance_modify_yyyymmdd>
20080429

> <Coord_Metals>
0

> <Index>
183

> <Canonical_Smiles>
Oc1ccc(cc1)C2(OC(=O)c3ccccc23)c4ccc(O)cc4

> <Molecular_Weight>
318.32276

> <Frequency>
1

$$$$

  SciTegic          2D

 23 25  0  0  0  0            999 V2000
    0.0000   -1.5002    0.0000 N   0  0
   -1.2989   -0.7501    0.0000 C   0  0
   -1.2989    0.7501    0.0000 C   0  0
   -2.5978    1.5002    0.0000 C   0  0
   -3.8968    0.7501    0.0000 C   0  0
   -3.8968   -0.7501    0.0000 C   0  0
   -2.5978   -1.5002    0.0000 C   0  0
    0.0000    1.5002    0.0000 S   0  0
    1.2806    0.7501    0.0000 C   0  0
    2.5978    1.5002    0.0000 C   0  0
    3.8968    0.7501    0.0000 C   0  0
    3.8968   -0.7501    0.0000 C   0  0
    2.5978   -1.5002    0.0000 C   0  0
    1.2806   -0.7501    0.0000 C   0  0
    0.0031   -2.5002    0.0000 H   0  0
   -2.5978    2.5002    0.0000 H   0  0
   -4.7628    1.2500    0.0000 H   0  0
   -4.7628   -1.2500    0.0000 H   0  0
   -2.5978   -2.5002    0.0000 H   0  0
    2.6009    2.5002    0.0000 H   0  0
    4.7628    1.2500    0.0000 H   0  0
    4.7628   -1.2500    0.0000 H   0  0
    2.6009   -2.5002    0.0000 H   0  0
  1  2  1  0
  1 14  1  0
  2  3  2  0
  2  7  1  0
  3  4  1  0
  3  8  1  0
  4  5  2  0
  5  6  1  0
  6  7  2  0
  8  9  1  0
  9 10  2  0
  9 14  1  0
 10 11  1  0
 11 12  2  0
 12 13  1  0
 13 14  2  0
  1 15  1  0
  4 16  1  0
  5 17  1  0
  6 18  1  0
  7 19  1  0
 10 20  1  0
 11 21  1  0
 12 22  1  0
 13 23  1  0
V    1 0
V    2 1
V    3 2
V    4 3
V    5 4
V    6 5
V    7 6
V    8 7
V    9 8
V   10 9
V   11 10
V   12 11
V   13 12
V   14 13
M  END
> <DSSTox_RID>
65581

> <DSSTox_CID>
1126

> <DSSTox_CID_Parent>
1126

> <DSSTox_Generic_SID>
21126

> <DSSTox_FileID>
184_TXCST2_v1a

> <STRUCTURE_Formula>
C12H9NS

> <STRUCTURE_MolecularWeight>
199.2716

> <STRUCTURE_ChemicalType>
defined organic

> <STRUCTURE_TestedForm_DefinedOrganic>
parent

> <STRUCTURE_Shown>
tested chemical

> <TestSubstance_ChemicalName>
Phenothiazine

> <TestSubstance_CASRN>
92-84-2

> <TestSubstance_Description>
single chemical compound

> <STRUCTURE_ChemicalName_IUPAC>
10H-phenothiazine

> <STRUCTURE_SMILES>
N1C2=C(C=CC=C2)SC3=CC=CC=C13

> <STRUCTURE_Parent_SMILES>
N1C2=C(C=CC=C2)SC3=CC=CC=C13

> <STRUCTURE_InChIS>
InChI=1S/C12H9NS/c1-3-7-11-9(5-1)13-10-6-2-4-8-12(10)14-11/h1-8,13H

> <STRUCTURE_InChIKey>
WJFKNYWRSNBZNX-UHFFFAOYSA-N

> <Substance_modify_yyyymmdd>
20080429

> <Coord_Metals>
0

> <Index>
184

> <Canonical_Smiles>
N1c2ccccc2Sc3ccccc13

> <Molecular_Weight>
199.27155

> <Frequency>
1

$$$$

  SciTegic          2D

 31 33  0  0  0  0            999 V2000
   -3.9091    1.5019    0.0000 O   0  0
   -2.6111    0.7486    0.0000 C   0  0
   -2.6111   -0.7486    0.0000 C   0  0
   -1.2964   -1.4973    0.0000 C   0  0
    0.0000   -0.7486    0.0000 C   0  0
    0.0000    0.7486    0.0000 C   0  0
   -1.2964    1.4973    0.0000 C   0  0
   -1.2907    2.9981    0.0000 N   0  0
   -2.5870    3.7544    0.0000 N   0  0
   -2.5812    5.2552    0.0000 C   0  0
   -3.8758    6.0130    0.0000 C   0  0
   -3.8669    7.5130    0.0000 C   0  0
   -2.5634    8.2553    0.0000 C   0  0
   -1.2688    7.4976    0.0000 C   0  0
   -1.2777    5.9976    0.0000 C   0  0
    1.2964    1.4973    0.0000 C   0  0
    2.5929    0.7486    0.0000 C   0  0
    2.5929   -0.7486    0.0000 C   0  0
    1.2964   -1.4973    0.0000 C   0  0
   -3.9075    2.5019    0.0000 H   0  0
   -3.4756   -1.2512    0.0000 H   0  0
   -1.2934   -2.4973    0.0000 H   0  0
   -4.7447    5.5182    0.0000 H   0  0
   -4.7299    8.0181    0.0000 H   0  0
   -2.5575    9.2552    0.0000 H   0  0
   -0.3999    7.9925    0.0000 H   0  0
   -0.4147    5.4925    0.0000 H   0  0
    1.2964    2.4973    0.0000 H   0  0
    3.4589    1.2486    0.0000 H   0  0
    3.4589   -1.2486    0.0000 H   0  0
    1.2964   -2.4973    0.0000 H   0  0
  1  2  1  0
  2  3  2  0
  2  7  1  0
  3  4  1  0
  4  5  2  0
  5  6  1  0
  5 19  1  0
  6  7  2  0
  6 16  1  0
  8  7  1  0
  8  9  2  0
  9 10  1  0
 10 11  2  0
 10 15  1  0
 11 12  1  0
 12 13  2  0
 13 14  1  0
 14 15  2  0
 16 17  2  0
 17 18  1  0
 18 19  2  0
  1 20  1  0
  3 21  1  0
  4 22  1  0
 11 23  1  0
 12 24  1  0
 13 25  1  0
 14 26  1  0
 15 27  1  0
 16 28  1  0
 17 29  1  0
 18 30  1  0
 19 31  1  0
V    1 0
V    2 1
V    3 2
V    4 3
V    5 4
V    6 5
V    7 6
V    8 7
V    9 8
V   10 9
V   11 10
V   12 11
V   13 12
V   14 13
V   15 14
V   16 15
V   17 16
V   18 17
V   19 18
M  END
> <DSSTox_RID>
59464

> <DSSTox_CID>
1135

> <DSSTox_CID_Parent>
1135

> <DSSTox_Generic_SID>
21135

> <DSSTox_FileID>
185_TXCST2_v1a

> <STRUCTURE_Formula>
C16H12N2O

> <STRUCTURE_MolecularWeight>
248.2793

> <STRUCTURE_ChemicalType>
defined organic

> <STRUCTURE_TestedForm_DefinedOrganic>
parent

> <STRUCTURE_Shown>
tested chemical

> <TestSubstance_ChemicalName>
C.I Solvent yellow 14

> <TestSubstance_CASRN>
842-07-9

> <TestSubstance_Description>
single chemical compound

> <STRUCTURE_ChemicalName_IUPAC>
1-[(E)-phenyldiazenyl]-2-naphthol

> <STRUCTURE_SMILES>
OC1=CC=C2C(=C1/N=N/C3=CC=CC=C3)C=CC=C2

> <STRUCTURE_Parent_SMILES>
OC1=CC=C2C(=C1/N=N/C3=CC=CC=C3)C=CC=C2

> <STRUCTURE_InChIS>
InChI=1S/C16H12N2O/c19-15-11-10-12-6-4-5-9-14(12)16(15)18-17-13-7-2-1-3-8-13/h1-11,19H/b18-17+

> <STRUCTURE_InChIKey>
MRQIXHXHHPWVIL-ISLYRVAYSA-N

> <Substance_modify_yyyymmdd>
20080429

> <Coord_Metals>
0

> <Index>
185

> <Canonical_Smiles>
Oc1ccc2ccccc2c1N=Nc3ccccc3

> <Molecular_Weight>
248.27927

> <Frequency>
1

$$$$

  SciTegic          2D

 16 16  0  0  0  0            999 V2000
    2.5973   -1.5031    0.0000 N   0  0
    1.2990   -0.7500    0.0000 C   0  0
    1.2990    0.7500    0.0000 C   0  0
    0.0000    1.5000    0.0000 C   0  0
   -1.2990    0.7500    0.0000 C   0  0
   -1.2990   -0.7500    0.0000 C   0  0
    0.0000   -1.5000    0.0000 C   0  0
   -0.0031    3.0008    0.0000 N   0  0
    2.5958   -2.5031    0.0000 H   0  0
    3.4642   -1.0046    0.0000 H   0  0
    2.1651    1.2500    0.0000 H   0  0
   -2.1651    1.2500    0.0000 H   0  0
   -2.1651   -1.2500    0.0000 H   0  0
    0.0000   -2.5000    0.0000 H   0  0
   -0.8698    3.4996    0.0000 H   0  0
    0.8620    3.5023    0.0000 H   0  0
  1  2  1  0
  2  3  2  0
  2  7  1  0
  3  4  1  0
  4  5  2  0
  4  8  1  0
  5  6  1  0
  6  7  2  0
  1  9  1  0
  1 10  1  0
  3 11  1  0
  5 12  1  0
  6 13  1  0
  7 14  1  0
  8 15  1  0
  8 16  1  0
V    1 0
V    2 1
V    3 2
V    4 3
V    5 4
V    6 5
V    7 6
V    8 7
M  END
> <DSSTox_RID>
66862

> <DSSTox_CID>
1137

> <DSSTox_CID_Parent>
1137

> <DSSTox_Generic_SID>
21137

> <DSSTox_FileID>
186_TXCST2_v1a

> <STRUCTURE_Formula>
C6H8N2

> <STRUCTURE_MolecularWeight>
108.1411

> <STRUCTURE_ChemicalType>
defined organic

> <STRUCTURE_TestedForm_DefinedOrganic>
parent

> <STRUCTURE_Shown>
tested chemical

> <TestSubstance_ChemicalName>
1,3-Benzenediamine

> <TestSubstance_CASRN>
108-45-2

> <TestSubstance_Description>
single chemical compound

> <STRUCTURE_ChemicalName_IUPAC>
benzene-1,3-diamine

> <STRUCTURE_SMILES>
NC1=CC(=CC=C1)N

> <STRUCTURE_Parent_SMILES>
NC1=CC(=CC=C1)N

> <STRUCTURE_InChIS>
InChI=1S/C6H8N2/c7-5-2-1-3-6(8)4-5/h1-4H,7-8H2

> <STRUCTURE_InChIKey>
WZCQRUWWHSTZEM-UHFFFAOYSA-N

> <Substance_modify_yyyymmdd>
20080429

> <Coord_Metals>
0

> <Index>
186

> <Canonical_Smiles>
Nc1cccc(N)c1

> <Molecular_Weight>
108.14112

> <Frequency>
1

$$$$

  SciTegic          2D

 19 19  0  0  0  0            999 V2000
    3.8912   -5.2578    0.0000 C   0  0
    3.8933   -3.7570    0.0000 C   0  0
    4.9336   -3.1588    0.0000 O   0  0
    2.5951   -3.0039    0.0000 O   0  0
    2.5973   -1.5031    0.0000 Hg  0  0
    1.2990   -0.7500    0.0000 C   0  0
    1.2990    0.7500    0.0000 C   0  0
    0.0000    1.5000    0.0000 C   0  0
   -1.2990    0.7500    0.0000 C   0  0
   -1.2990   -0.7500    0.0000 C   0  0
    0.0000   -1.5000    0.0000 C   0  0
    4.7562   -5.7596    0.0000 H   0  0
    3.8893   -6.2578    0.0000 H   0  0
    3.0243   -5.7563    0.0000 H   0  0
    2.1651    1.2500    0.0000 H   0  0
    0.0000    2.5000    0.0000 H   0  0
   -2.1651    1.2500    0.0000 H   0  0
   -2.1651   -1.2500    0.0000 H   0  0
    0.0000   -2.5000    0.0000 H   0  0
  1  2  1  0
  2  3  2  0
  2  4  1  0
  4  5  1  0
  5  6  1  0
  6  7  2  0
  6 11  1  0
  7  8  1  0
  8  9  2  0
  9 10  1  0
 10 11  2  0
  1 12  1  0
  1 13  1  0
  1 14  1  0
  7 15  1  0
  8 16  1  0
  9 17  1  0
 10 18  1  0
 11 19  1  0
V    1 0
V    2 1
V    3 2
V    4 3
V    5 4
V    6 5
V    7 6
V    8 7
V    9 8
V   10 9
V   11 10
M  END
> <DSSTox_RID>
65309

> <DSSTox_CID>
1150

> <DSSTox_Generic_SID>
21150

> <DSSTox_FileID>
187_TXCST2_v1a

> <STRUCTURE_Formula>
C8H8HgO2

> <STRUCTURE_MolecularWeight>
336.7379

> <STRUCTURE_ChemicalType>
organometallic

> <STRUCTURE_Shown>
tested chemical

> <TestSubstance_ChemicalName>
Phenylmercuric acetate

> <TestSubstance_CASRN>
62-38-4

> <TestSubstance_Description>
single chemical compound

> <STRUCTURE_ChemicalName_IUPAC>
(acetato-kappaO)(phenyl)mercury

> <STRUCTURE_SMILES>
CC(=O)O[Hg]C1=CC=CC=C1

> <STRUCTURE_InChIS>
InChI=1S/C6H5.C2H4O2.Hg/c1-2-4-6-5-3-1;1-2(3)4;/h1-5H;1H3,(H,3,4);/q;;+1/p-1

> <STRUCTURE_InChIKey>
XEBWQGVWTUSTLN-UHFFFAOYSA-M

> <Substance_modify_yyyymmdd>
20080429

> <Coord_Metals>
1

> <Index>
187

> <Canonical_Smiles>
CC(=O)O[Hg]c1ccccc1

> <Molecular_Weight>
336.73792

> <Frequency>
1

$$$$

  SciTegic          2D

 23 24  0  0  0  0            999 V2000
    2.5973   -1.5031    0.0000 O   0  0
    1.2990   -0.7500    0.0000 C   0  0
    1.2990    0.7500    0.0000 C   0  0
    0.0000    1.5000    0.0000 C   0  0
   -1.2990    0.7500    0.0000 C   0  0
   -1.2990   -0.7500    0.0000 C   0  0
    0.0000   -1.5000    0.0000 C   0  0
    2.5987    1.5004    0.0000 C   0  0
    3.8991    0.7525    0.0000 C   0  0
    5.1969    1.5046    0.0000 C   0  0
    5.1945    3.0046    0.0000 C   0  0
    3.8943    3.7525    0.0000 C   0  0
    2.5964    3.0004    0.0000 C   0  0
    2.5958   -2.5031    0.0000 H   0  0
    0.0000    2.5000    0.0000 H   0  0
   -2.1651    1.2500    0.0000 H   0  0
   -2.1651   -1.2500    0.0000 H   0  0
    0.0000   -2.5000    0.0000 H   0  0
    3.9007   -0.2475    0.0000 H   0  0
    6.0637    1.0060    0.0000 H   0  0
    6.0597    3.5060    0.0000 H   0  0
    3.8927    4.7525    0.0000 H   0  0
    1.7296    3.4991    0.0000 H   0  0
  1  2  1  0
  2  3  2  0
  2  7  1  0
  3  4  1  0
  3  8  1  0
  4  5  2  0
  5  6  1  0
  6  7  2  0
  8  9  2  0
  8 13  1  0
  9 10  1  0
 10 11  2  0
 11 12  1  0
 12 13  2  0
  1 14  1  0
  4 15  1  0
  5 16  1  0
  6 17  1  0
  7 18  1  0
  9 19  1  0
 10 20  1  0
 11 21  1  0
 12 22  1  0
 13 23  1  0
V    1 0
V    2 1
V    3 2
V    4 3
V    5 4
V    6 5
V    7 6
V    8 7
V    9 8
V   10 9
V   11 10
V   12 11
V   13 12
M  END
> <DSSTox_RID>
65310

> <DSSTox_CID>
1151

> <DSSTox_CID_Parent>
1151

> <DSSTox_Generic_SID>
21151

> <DSSTox_FileID>
188_TXCST2_v1a

> <STRUCTURE_Formula>
C12H10O

> <STRUCTURE_MolecularWeight>
170.2072

> <STRUCTURE_ChemicalType>
defined organic

> <STRUCTURE_TestedForm_DefinedOrganic>
parent

> <STRUCTURE_Shown>
tested chemical

> <TestSubstance_ChemicalName>
2-Phenylphenol

> <TestSubstance_CASRN>
90-43-7

> <TestSubstance_Description>
single chemical compound

> <STRUCTURE_ChemicalName_IUPAC>
biphenyl-2-ol

> <STRUCTURE_SMILES>
OC1=C(C=CC=C1)C2=CC=CC=C2

> <STRUCTURE_Parent_SMILES>
OC1=C(C=CC=C1)C2=CC=CC=C2

> <STRUCTURE_InChIS>
InChI=1S/C12H10O/c13-12-9-5-4-8-11(12)10-6-2-1-3-7-10/h1-9,13H

> <STRUCTURE_InChIKey>
LLEMOWNGBBNAJR-UHFFFAOYSA-N

> <Substance_modify_yyyymmdd>
20080429

> <Coord_Metals>
0

> <Index>
188

> <Canonical_Smiles>
Oc1ccccc1c2ccccc2

> <Molecular_Weight>
170.20719

> <Frequency>
1

$$$$

  SciTegic          2D

 16 16  0  0  0  0            999 V2000
    1.2990   -0.7500    0.0000 C   0  0
    1.2990    0.7500    0.0000 N   0  0
    0.0000   -1.5000    0.0000 C   0  0
   -1.2990    0.7500    0.0000 C   0  0
   -1.2990   -0.7500    0.0000 C   0  0
    0.0000    1.5000    0.0000 C   0  0
    2.6003   -1.4977    0.0000 C   0  0
    2.6024   -2.6977    0.0000 O   0  0
   -2.6003   -1.4978    0.0000 N   0  0
   -2.3383    1.3500    0.0000 Cl  0  0
    0.0000   -2.7000    0.0000 Cl  0  0
    0.0000    2.7000    0.0000 Cl  0  0
    3.8990   -0.7455    0.0000 O   0  0
   -3.4657   -0.9965    0.0000 H   0  0
   -2.6021   -2.4978    0.0000 H   0  0
    4.7661   -1.2437    0.0000 H   0  0
  1  2  2  0
  1  3  1  0
  1  7  1  0
  2  6  1  0
  3  5  2  0
  3 11  1  0
  4  5  1  0
  4 10  1  0
  4  6  2  0
  5  9  1  0
  6 12  1  0
  7  8  2  0
  7 13  1  0
  9 14  1  0
  9 15  1  0
 13 16  1  0
V    1 0
V    2 1
V    3 2
V    4 3
V    5 4
V    6 5
V    7 6
V    8 7
V    9 8
V   10 9
V   11 10
V   12 11
V   13 12
M  END
> <DSSTox_RID>
60236

> <DSSTox_CID>
1160

> <DSSTox_CID_Parent>
1160

> <DSSTox_Generic_SID>
21160

> <DSSTox_FileID>
189_TXCST2_v1a

> <STRUCTURE_Formula>
C6H3Cl3N2O2

> <STRUCTURE_MolecularWeight>
241.4592

> <STRUCTURE_ChemicalType>
defined organic

> <STRUCTURE_TestedForm_DefinedOrganic>
parent

> <STRUCTURE_Shown>
tested chemical

> <TestSubstance_ChemicalName>
Picloram

> <TestSubstance_CASRN>
1918-02-1

> <TestSubstance_Description>
single chemical compound

> <STRUCTURE_ChemicalName_IUPAC>
4-amino-3,5,6-trichloropyridine-2-carboxylic acid

> <STRUCTURE_SMILES>
ClC1=C(Cl)N=C(C(O)=O)C(Cl)=C1N

> <STRUCTURE_Parent_SMILES>
ClC1=C(Cl)N=C(C(O)=O)C(Cl)=C1N

> <STRUCTURE_InChIS>
InChI=1S/C6H3Cl3N2O2/c7-1-3(10)2(8)5(9)11-4(1)6(12)13/h(H2,10,11)(H,12,13)

> <STRUCTURE_InChIKey>
NQQVFXUMIDALNH-UHFFFAOYSA-N

> <Substance_modify_yyyymmdd>
20080429

> <Coord_Metals>
0

> <Index>
189

> <Canonical_Smiles>
Nc1c(Cl)c(Cl)nc(C(=O)O)c1Cl

> <Molecular_Weight>
241.45922

> <Frequency>
1

$$$$

  SciTegic          2D

 16 16  0  0  0  0            999 V2000
    1.2990   -0.7500    0.0000 C   0  0
    1.2990    0.7500    0.0000 C   0  0
    0.0000    1.5000    0.0000 N   0  0
   -1.2990    0.7500    0.0000 C   0  0
   -1.2990   -0.7500    0.0000 C   0  0
    0.0000   -1.5000    0.0000 N   0  0
    2.1530   -0.2297    0.0000 H   0  0
    1.2756   -1.7497    0.0000 H   0  0
    2.1530    0.2297    0.0000 H   0  0
    1.2755    1.7497    0.0000 H   0  0
    0.0000    2.5000    0.0000 H   0  0
   -2.1530    0.2297    0.0000 H   0  0
   -1.2756    1.7497    0.0000 H   0  0
   -0.4215   -0.2706    0.0000 H   0  0
   -1.2755   -1.7497    0.0000 H   0  0
    0.0000   -2.5000    0.0000 H   0  0
  1  2  1  0
  1  6  1  0
  2  3  1  0
  3  4  1  0
  4  5  1  0
  5  6  1  0
  1  7  1  0
  1  8  1  0
  2  9  1  0
  2 10  1  0
  3 11  1  0
  4 12  1  0
  4 13  1  0
  5 14  1  0
  5 15  1  0
  6 16  1  0
V    1 0
V    2 1
V    3 2
V    4 3
V    5 4
V    6 5
M  END
> <DSSTox_RID>
62296

> <DSSTox_CID>
1164

> <DSSTox_CID_Parent>
1164

> <DSSTox_Generic_SID>
21164

> <DSSTox_FileID>
190_TXCST2_v1a

> <STRUCTURE_Formula>
C4H10N2

> <STRUCTURE_MolecularWeight>
86.1356

> <STRUCTURE_ChemicalType>
defined organic

> <STRUCTURE_TestedForm_DefinedOrganic>
parent

> <STRUCTURE_Shown>
tested chemical

> <TestSubstance_ChemicalName>
Piperazine

> <TestSubstance_CASRN>
110-85-0

> <TestSubstance_Description>
single chemical compound

> <Source_ChemicalNote>
tested chemical contained 0.68% water (0.03 moles H2O)

> <STRUCTURE_ChemicalName_IUPAC>
piperazine

> <STRUCTURE_SMILES>
C1CNCCN1

> <STRUCTURE_Parent_SMILES>
C1CNCCN1

> <STRUCTURE_InChIS>
InChI=1S/C4H10N2/c1-2-6-4-3-5-1/h5-6H,1-4H2

> <STRUCTURE_InChIKey>
GLUUGHFHXGJENI-UHFFFAOYSA-N

> <Substance_modify_yyyymmdd>
20080429

> <Coord_Metals>
0

> <Index>
190

> <Canonical_Smiles>
C1CNCCN1

> <Molecular_Weight>
86.1356

> <Frequency>
1

$$$$

  SciTegic          2D

 54 55  0  0  0  0            999 V2000
   -4.9361    3.7316    0.0000 C   0  0
   -3.6313    2.9900    0.0000 C   0  0
   -3.6202    1.4892    0.0000 C   0  0
   -2.3155    0.7475    0.0000 C   0  0
   -1.0028    1.5132    0.0000 C   0  0
    0.2917    0.7475    0.0000 C   0  0
    0.2917   -0.7475    0.0000 C   0  0
   -1.0028   -1.5132    0.0000 C   0  0
   -2.3155   -0.7475    0.0000 C   0  0
   -3.6202   -1.4892    0.0000 C   0  0
   -4.9153   -0.7308    0.0000 O   0  0
   -6.2201   -1.4724    0.0000 C   0  0
   -7.5152   -0.7140    0.0000 C   0  0
   -8.8200   -1.4556    0.0000 O   0  0
  -10.1151   -0.6972    0.0000 C   0  0
  -11.4200   -1.4388    0.0000 C   0  0
  -12.7151   -0.6804    0.0000 O   0  0
  -14.0199   -1.4220    0.0000 C   0  0
  -15.3150   -0.6636    0.0000 C   0  0
  -16.6198   -1.4052    0.0000 C   0  0
  -17.9149   -0.6468    0.0000 C   0  0
    1.7138   -1.2033    0.0000 O   0  0
    2.5889    0.0182    0.0000 C   0  0
    1.7138    1.2033    0.0000 O   0  0
   -4.9435    4.7315    0.0000 H   0  0
   -5.7986    3.2254    0.0000 H   0  0
   -5.8058    4.2253    0.0000 H   0  0
   -2.7689    3.4961    0.0000 H   0  0
   -2.7617    2.4963    0.0000 H   0  0
   -4.4826    0.9831    0.0000 H   0  0
   -3.6132    0.4892    0.0000 H   0  0
   -0.9997    2.5132    0.0000 H   0  0
   -0.9997   -2.5132    0.0000 H   0  0
   -3.6266   -2.4892    0.0000 H   0  0
   -4.4893   -1.9837    0.0000 H   0  0
   -6.2266   -2.4724    0.0000 H   0  0
   -5.3574   -1.9781    0.0000 H   0  0
   -7.5088    0.2860    0.0000 H   0  0
   -8.3779   -0.2083    0.0000 H   0  0
  -10.1087    0.3028    0.0000 H   0  0
   -9.2460   -0.2027    0.0000 H   0  0
  -11.4264   -2.4388    0.0000 H   0  0
  -12.2891   -1.9333    0.0000 H   0  0
  -14.0263   -2.4219    0.0000 H   0  0
  -13.1572   -1.9277    0.0000 H   0  0
  -15.3085    0.3364    0.0000 H   0  0
  -14.4458   -0.1690    0.0000 H   0  0
  -16.6263   -2.4051    0.0000 H   0  0
  -15.7571   -1.9109    0.0000 H   0  0
  -18.7843   -1.1409    0.0000 H   0  0
  -17.9085    0.3532    0.0000 H   0  0
  -18.7776   -0.1410    0.0000 H   0  0
    3.0696    0.8951    0.0000 H   0  0
    3.0823   -0.8516    0.0000 H   0  0
  1  2  1  0
  2  3  1  0
  3  4  1  0
  4  5  2  0
  4  9  1  0
  5  6  1  0
  6  7  2  0
  6 24  1  0
  7  8  1  0
  7 22  1  0
  8  9  2  0
  9 10  1  0
 10 11  1  0
 11 12  1  0
 12 13  1  0
 13 14  1  0
 14 15  1  0
 15 16  1  0
 16 17  1  0
 17 18  1  0
 18 19  1  0
 19 20  1  0
 20 21  1  0
 22 23  1  0
 23 24  1  0
  1 25  1  0
  1 26  1  0
  1 27  1  0
  2 28  1  0
  2 29  1  0
  3 30  1  0
  3 31  1  0
  5 32  1  0
  8 33  1  0
 10 34  1  0
 10 35  1  0
 12 36  1  0
 12 37  1  0
 13 38  1  0
 13 39  1  0
 15 40  1  0
 15 41  1  0
 16 42  1  0
 16 43  1  0
 18 44  1  0
 18 45  1  0
 19 46  1  0
 19 47  1  0
 20 48  1  0
 20 49  1  0
 21 50  1  0
 21 51  1  0
 21 52  1  0
 23 53  1  0
 23 54  1  0
V    1 0
V    2 1
V    3 2
V    4 3
V    5 4
V    6 5
V    7 6
V    8 7
V    9 8
V   10 9
V   11 10
V   12 11
V   13 12
V   14 13
V   15 14
V   16 15
V   17 16
V   18 17
V   19 18
V   20 19
V   21 20
V   22 21
V   23 22
V   24 23
M  END
> <DSSTox_RID>
65744

> <DSSTox_CID>
1166

> <DSSTox_CID_Parent>
1166

> <DSSTox_Generic_SID>
21166

> <DSSTox_FileID>
191_TXCST2_v1a

> <STRUCTURE_Formula>
C19H30O5

> <STRUCTURE_MolecularWeight>
338.4385

> <STRUCTURE_ChemicalType>
defined organic

> <STRUCTURE_TestedForm_DefinedOrganic>
parent

> <STRUCTURE_Shown>
tested chemical

> <TestSubstance_ChemicalName>
Piperonyl butoxide

> <TestSubstance_CASRN>
51-03-6

> <TestSubstance_Description>
single chemical compound

> <STRUCTURE_ChemicalName_IUPAC>
5-{[(2-{[2-(butyloxy)ethyl]oxy}ethyl)oxy]methyl}-6-propyl-1,3-benzodioxole

> <STRUCTURE_SMILES>
CCCC1=CC2=C(C=C1COCCOCCOCCCC)OCO2

> <STRUCTURE_Parent_SMILES>
CCCC1=CC2=C(C=C1COCCOCCOCCCC)OCO2

> <STRUCTURE_InChIS>
InChI=1S/C19H30O5/c1-3-5-7-20-8-9-21-10-11-22-14-17-13-19-18(23-15-24-19)12-16(17)6-4-2/h12-13H,3-11,14-15H2,1-2H3

> <STRUCTURE_InChIKey>
FIPWRIJSWJWJAI-UHFFFAOYSA-N

> <Substance_modify_yyyymmdd>
20080429

> <Coord_Metals>
0

> <Index>
191

> <Canonical_Smiles>
CCCCOCCOCCOCc1cc2OCOc2cc1CCC

> <Molecular_Weight>
338.4385

> <Frequency>
1

$$$$

  SciTegic          2D

 52 55  0  0  0  0            999 V2000
    2.0440    1.7885    0.0000 C   0  0
   -1.6790   -0.3832    0.0000 C   0  0
    3.3032    2.5367    0.0000 C   0  0
   -0.4380    0.3285    0.0000 C   0  0
    0.8030   -0.3650    0.0000 C   0  0
    2.0440    0.3467    0.0000 C   0  0
   -0.4562    1.7885    0.0000 C   0  0
   -1.6790   -1.8250    0.0000 C   0  0
    0.8030    2.5185    0.0000 C   0  0
   -2.9565    0.3102    0.0000 C   0  0
   -2.9382   -2.5732    0.0000 C   0  0
    4.2761    3.6533    0.0000 C   0  0
    4.5625    1.8067    0.0000 C   0  0
    4.5625    0.3285    0.0000 C   0  0
    0.8212   -1.8067    0.0000 C   0  0
   -4.1792   -0.4015    0.0000 C   0  0
   -4.1792   -1.8432    0.0000 C   0  0
   -0.4197   -2.5550    0.0000 C   0  0
   -1.4997    2.3811    0.0000 O   0  0
    3.8595    4.7786    0.0000 O   0  0
   -5.2209   -2.4390    0.0000 O   0  0
    1.9993    3.2395    0.0000 O   0  0
    2.0418    3.2897    0.0000 C   0  0
   -2.9731   -1.1442    0.0000 C   0  0
    5.7556    3.4012    0.0000 C   0  0
    6.7144    4.5559    0.0000 O   0  0
   -1.3064    0.8243    0.0000 H   0  0
    1.6715   -0.8608    0.0000 H   0  0
    2.2979   -0.6205    0.0000 H   0  0
    0.7766    1.5188    0.0000 H   0  0
   -0.0728    3.0012    0.0000 H   0  0
   -2.9714    1.3101    0.0000 H   0  0
   -2.9360   -3.5732    0.0000 H   0  0
    5.4159    1.2856    0.0000 H   0  0
    4.5398    2.8065    0.0000 H   0  0
    4.2971   -0.6356    0.0000 H   0  0
    5.5286    0.5867    0.0000 H   0  0
   -0.0639   -1.3415    0.0000 H   0  0
    0.8133   -2.8067    0.0000 H   0  0
   -5.0461    0.0970    0.0000 H   0  0
    0.4615   -3.0276    0.0000 H   0  0
   -1.2927   -3.0428    0.0000 H   0  0
    1.9931    4.2395    0.0000 H   0  0
    2.9068    3.7916    0.0000 H   0  0
    1.1749    3.7880    0.0000 H   0  0
    2.0398    4.2897    0.0000 H   0  0
   -3.8434   -0.6517    0.0000 H   0  0
   -2.9649   -2.1442    0.0000 H   0  0
   -3.8349   -1.6515    0.0000 H   0  0
    6.1028    2.4634    0.0000 H   0  0
    6.7413    3.2329    0.0000 H   0  0
    7.7002    4.3880    0.0000 H   0  0
  1  3  1  0
  1  6  1  0
  1  9  1  0
  1 23  1  0
  2  4  1  0
  2  8  1  0
  2 10  1  0
  2 24  1  0
  3 12  1  0
  3 13  1  0
  3 22  1  0
  4  7  1  0
  4  5  1  0
  5  6  1  0
  5 15  1  0
  6 14  1  0
  7  9  1  0
  7 19  2  0
  8 11  2  0
  8 18  1  0
 10 16  2  0
 11 17  1  0
 12 20  2  0
 12 25  1  0
 13 14  1  0
 15 18  1  0
 16 17  1  0
 17 21  2  0
 25 26  1  0
  4 27  1  0
  5 28  1  0
  6 29  1  0
  9 30  1  0
  9 31  1  0
 10 32  1  0
 11 33  1  0
 13 34  1  0
 13 35  1  0
 14 36  1  0
 14 37  1  0
 15 38  1  0
 15 39  1  0
 16 40  1  0
 18 41  1  0
 18 42  1  0
 22 43  1  0
 23 44  1  0
 23 45  1  0
 23 46  1  0
 24 47  1  0
 24 48  1  0
 24 49  1  0
 25 50  1  0
 25 51  1  0
 26 52  1  0
V    1 0
V    2 1
V    3 2
V    4 3
V    5 4
V    6 5
V    7 6
V    8 7
V    9 8
V   10 9
V   11 10
V   12 11
V   13 12
V   14 13
V   15 14
V   16 15
V   17 16
V   18 17
V   19 18
V   20 19
V   21 20
V   22 21
V   23 22
V   24 23
V   25 24
V   26 25
M  END
> <DSSTox_RID>
59465

> <DSSTox_CID>
1185

> <DSSTox_CID_Parent>
1185

> <DSSTox_Generic_SID>
21185

> <DSSTox_FileID>
192_TXCST2_v1a

> <STRUCTURE_Formula>
C21H26O5

> <STRUCTURE_MolecularWeight>
358.4281

> <STRUCTURE_ChemicalType>
defined organic

> <STRUCTURE_TestedForm_DefinedOrganic>
parent

> <STRUCTURE_Shown>
tested chemical

> <TestSubstance_ChemicalName>
Prednisone

> <TestSubstance_CASRN>
53-03-2

> <TestSubstance_Description>
single chemical compound

> <ChemicalNote>
stereochem; tautomers

> <STRUCTURE_ChemicalName_IUPAC>
17,21-dihydroxypregna-1,4-diene-3,11,20-trione

> <STRUCTURE_SMILES>
O=C1[C@]([C@](CC4)([H])[C@@]3([H])[C@@](C1)(C)[C@@](CC3)(O)[C@@](CO)=O)([H])[C@](C=C2)(C)C4=CC2=O

> <STRUCTURE_Parent_SMILES>
O=C1[C@]([C@](CC4)([H])[C@@]3([H])[C@@](C1)(C)[C@@](CC3)(O)[C@@](CO)=O)([H])[C@](C=C2)(C)C4=CC2=O

> <STRUCTURE_InChIS>
InChI=1S/C21H26O5/c1-19-7-5-13(23)9-12(19)3-4-14-15-6-8-21(26,17(25)11-22)20(15,2)10-16(24)18(14)19/h5,7,9,14-15,18,22,26H,3-4,6,8,10-11H2,1-2H3/t14-,15-,18+,19-,20-,21-/m0/s1

> <STRUCTURE_InChIKey>
XOFYZVNMUHMLCC-ZPOLXVRWSA-N

> <Substance_modify_yyyymmdd>
20080429

> <Coord_Metals>
0

> <Index>
192

> <Canonical_Smiles>
CC12CC(=O)C3C(CCC4=CC(=O)C=CC34C)C1CCC2(O)C(=O)CO

> <Molecular_Weight>
358.42814

> <Frequency>
1

$$$$

  SciTegic          2D

 13 13  0  0  0  0            999 V2000
    1.9414   -0.8890    0.0000 O   0  0
    0.7500   -1.0323    0.0000 S   0  0
    0.2457   -2.1212    0.0000 O   0  0
    1.2135    0.3943    0.0000 C   0  0
    0.0000    1.2760    0.0000 C   0  0
   -1.2135    0.3943    0.0000 C   0  0
   -0.7500   -1.0323    0.0000 O   0  0
    1.9466   -0.2859    0.0000 H   0  0
    1.4069    1.3754    0.0000 H   0  0
    0.8734    1.7629    0.0000 H   0  0
   -0.8734    1.7631    0.0000 H   0  0
   -1.4068    1.3754    0.0000 H   0  0
   -1.9467   -0.2858    0.0000 H   0  0
  1  2  2  0
  2  3  2  0
  2  4  1  0
  2  7  1  0
  4  5  1  0
  5  6  1  0
  6  7  1  0
  4  8  1  0
  4  9  1  0
  5 10  1  0
  5 11  1  0
  6 12  1  0
  6 13  1  0
V    1 0
V    2 1
V    3 2
V    4 3
V    5 4
V    6 5
V    7 6
M  END
> <DSSTox_RID>
65335

> <DSSTox_CID>
1195

> <DSSTox_CID_Parent>
1195

> <DSSTox_Generic_SID>
21195

> <DSSTox_FileID>
193_TXCST2_v1a

> <STRUCTURE_Formula>
C3H6O3S

> <STRUCTURE_MolecularWeight>
122.1429

> <STRUCTURE_ChemicalType>
defined organic

> <STRUCTURE_TestedForm_DefinedOrganic>
parent

> <STRUCTURE_Shown>
tested chemical

> <TestSubstance_ChemicalName>
1,3-Propane sultone

> <TestSubstance_CASRN>
1120-71-4

> <TestSubstance_Description>
single chemical compound

> <STRUCTURE_ChemicalName_IUPAC>
1,2-oxathiolane 2,2-dioxide

> <STRUCTURE_SMILES>
O=S1(=O)CCCO1

> <STRUCTURE_Parent_SMILES>
O=S1(=O)CCCO1

> <STRUCTURE_InChIS>
InChI=1S/C3H6O3S/c4-7(5)3-1-2-6-7/h1-3H2

> <STRUCTURE_InChIKey>
FSSPGSAQUIYDCN-UHFFFAOYSA-N

> <Substance_modify_yyyymmdd>
20080429

> <Coord_Metals>
0

> <Index>
193

> <Canonical_Smiles>
O=S1(=O)CCCO1

> <Molecular_Weight>
122.14294

> <Frequency>
1

$$$$

  SciTegic          2D

 31 31  0  0  0  0            999 V2000
    2.3383   -1.3500    0.0000 Cl  0  0
    1.2990   -0.7500    0.0000 C   0  0
    1.2990    0.7500    0.0000 N   0  0
    0.0000    1.5000    0.0000 C   0  0
   -1.2990    0.7500    0.0000 N   0  0
   -1.2990   -0.7500    0.0000 C   0  0
    0.0000   -1.5000    0.0000 N   0  0
   -2.5972   -1.5031    0.0000 N   0  0
   -2.5951   -3.0039    0.0000 C   0  0
   -3.8933   -3.7570    0.0000 C   0  0
   -1.2941   -3.7520    0.0000 C   0  0
   -0.0031    3.0008    0.0000 N   0  0
   -1.3039    3.7494    0.0000 C   0  0
   -1.3070    5.2502    0.0000 C   0  0
   -2.6023    2.9967    0.0000 C   0  0
   -3.4641   -1.0046    0.0000 H   0  0
   -3.4620   -2.5054    0.0000 H   0  0
   -3.8919   -4.7570    0.0000 H   0  0
   -4.7585   -4.2584    0.0000 H   0  0
   -4.7602   -3.2585    0.0000 H   0  0
   -0.4286   -3.2511    0.0000 H   0  0
   -0.4275   -4.2509    0.0000 H   0  0
   -1.2927   -4.7520    0.0000 H   0  0
    0.8620    3.5023    0.0000 H   0  0
   -0.4388    4.2509    0.0000 H   0  0
   -2.1738    5.7490    0.0000 H   0  0
   -1.3086    6.2502    0.0000 H   0  0
   -0.4419    5.7517    0.0000 H   0  0
   -2.6012    1.9967    0.0000 H   0  0
   -3.4677    2.4956    0.0000 H   0  0
   -3.4690    3.4955    0.0000 H   0  0
  1  2  1  0
  2  3  2  0
  2  7  1  0
  3  4  1  0
  4  5  2  0
  4 12  1  0
  5  6  1  0
  6  7  2  0
  6  8  1  0
  8  9  1  0
  9 10  1  0
  9 11  1  0
 12 13  1  0
 13 14  1  0
 13 15  1  0
  8 16  1  0
  9 17  1  0
 10 18  1  0
 10 19  1  0
 10 20  1  0
 11 21  1  0
 11 22  1  0
 11 23  1  0
 12 24  1  0
 13 25  1  0
 14 26  1  0
 14 27  1  0
 14 28  1  0
 15 29  1  0
 15 30  1  0
 15 31  1  0
V    1 0
V    2 1
V    3 2
V    4 3
V    5 4
V    6 5
V    7 6
V    8 7
V    9 8
V   10 9
V   11 10
V   12 11
V   13 12
V   14 13
V   15 14
M  END
> <DSSTox_RID>
60268

> <DSSTox_CID>
1196

> <DSSTox_CID_Parent>
1196

> <DSSTox_Generic_SID>
21196

> <DSSTox_FileID>
194_TXCST2_v1a

> <STRUCTURE_Formula>
C9H16ClN5

> <STRUCTURE_MolecularWeight>
229.7098

> <STRUCTURE_ChemicalType>
defined organic

> <STRUCTURE_TestedForm_DefinedOrganic>
parent

> <STRUCTURE_Shown>
tested chemical

> <TestSubstance_ChemicalName>
Propazine

> <TestSubstance_CASRN>
139-40-2

> <TestSubstance_Description>
single chemical compound

> <STRUCTURE_ChemicalName_IUPAC>
6-chloro-N,N'-diisopropyl-1,3,5-triazine-2,4-diamine

> <STRUCTURE_SMILES>
ClC1=NC(=NC(=N1)NC(C)C)NC(C)C

> <STRUCTURE_Parent_SMILES>
ClC1=NC(=NC(=N1)NC(C)C)NC(C)C

> <STRUCTURE_InChIS>
InChI=1S/C9H16ClN5/c1-5(2)11-8-13-7(10)14-9(15-8)12-6(3)4/h5-6H,1-4H3,(H2,11,12,13,14,15)

> <STRUCTURE_InChIKey>
WJNRPILHGGKWCK-UHFFFAOYSA-N

> <Substance_modify_yyyymmdd>
20080429

> <Coord_Metals>
0

> <Index>
194

> <Canonical_Smiles>
CC(C)Nc1nc(Cl)nc(NC(C)C)n1

> <Molecular_Weight>
229.70983

> <Frequency>
1

$$$$

  SciTegic          2D

 27 27  0  0  0  0            999 V2000
    3.6375   -0.9049    0.0000 O   0  0
    2.5973   -1.5031    0.0000 C   0  0
    1.2990   -0.7500    0.0000 C   0  0
    1.2990    0.7500    0.0000 C   0  0
    0.0000    1.5000    0.0000 C   0  0
   -1.2990    0.7500    0.0000 C   0  0
   -1.2990   -0.7500    0.0000 C   0  0
    0.0000   -1.5000    0.0000 C   0  0
   -2.5972   -1.5031    0.0000 O   0  0
   -2.6003    1.4977    0.0000 O   0  0
   -0.0031    3.0008    0.0000 O   0  0
    2.5951   -3.0039    0.0000 O   0  0
    3.8933   -3.7570    0.0000 C   0  0
    3.8912   -5.2578    0.0000 C   0  0
    5.1894   -6.0109    0.0000 C   0  0
    2.1651    1.2500    0.0000 H   0  0
    0.0000   -2.5000    0.0000 H   0  0
   -2.5958   -2.5031    0.0000 H   0  0
   -3.4657    0.9965    0.0000 H   0  0
   -0.8698    3.4996    0.0000 H   0  0
    3.8952   -2.7570    0.0000 H   0  0
    4.7602   -3.2585    0.0000 H   0  0
    3.0260   -4.7564    0.0000 H   0  0
    3.0243   -5.7563    0.0000 H   0  0
    5.1880   -7.0109    0.0000 H   0  0
    6.0546   -6.5123    0.0000 H   0  0
    6.0563   -5.5124    0.0000 H   0  0
  1  2  2  0
  2  3  1  0
  2 12  1  0
  3  4  2  0
  3  8  1  0
  4  5  1  0
  5  6  2  0
  5 11  1  0
  6  7  1  0
  6 10  1  0
  7  8  2  0
  7  9  1  0
 12 13  1  0
 13 14  1  0
 14 15  1  0
  4 16  1  0
  8 17  1  0
  9 18  1  0
 10 19  1  0
 11 20  1  0
 13 21  1  0
 13 22  1  0
 14 23  1  0
 14 24  1  0
 15 25  1  0
 15 26  1  0
 15 27  1  0
V    1 0
V    2 1
V    3 2
V    4 3
V    5 4
V    6 5
V    7 6
V    8 7
V    9 8
V   10 9
V   11 10
V   12 11
V   13 12
V   14 13
V   15 14
M  END
> <DSSTox_RID>
60250

> <DSSTox_CID>
1201

> <DSSTox_CID_Parent>
1201

> <DSSTox_Generic_SID>
21201

> <DSSTox_FileID>
195_TXCST2_v1a

> <STRUCTURE_Formula>
C10H12O5

> <STRUCTURE_MolecularWeight>
212.1993

> <STRUCTURE_ChemicalType>
defined organic

> <STRUCTURE_TestedForm_DefinedOrganic>
parent

> <STRUCTURE_Shown>
tested chemical

> <TestSubstance_ChemicalName>
Propyl gallate

> <TestSubstance_CASRN>
121-79-9

> <TestSubstance_Description>
single chemical compound

> <STRUCTURE_ChemicalName_IUPAC>
propyl 3,4,5-trihydroxybenzoate

> <STRUCTURE_SMILES>
O=C(C1=CC(=C(C(=C1)O)O)O)OCCC

> <STRUCTURE_Parent_SMILES>
O=C(C1=CC(=C(C(=C1)O)O)O)OCCC

> <STRUCTURE_InChIS>
InChI=1S/C10H12O5/c1-2-3-15-10(14)6-4-7(11)9(13)8(12)5-6/h4-5,11-13H,2-3H2,1H3

> <STRUCTURE_InChIKey>
ZTHYODDOHIVTJV-UHFFFAOYSA-N

> <Substance_modify_yyyymmdd>
20080429

> <Coord_Metals>
0

> <Index>
195

> <Canonical_Smiles>
CCCOC(=O)c1cc(O)c(O)c(O)c1

> <Molecular_Weight>
212.19927

> <Frequency>
1

$$$$

  SciTegic          2D

 13 12  0  0  0  0            999 V2000
    1.3000    0.7500    0.0000 C   0  0
    2.6000    0.0000    0.0000 C   0  0
    3.9000    0.7500    0.0000 C   0  0
    5.2000    0.0000    0.0000 O   0  0
    2.6000   -1.5007    0.0000 O   0  0
    0.4338    0.2503    0.0000 H   0  0
    0.4340    1.2501    0.0000 H   0  0
    1.3000    1.7500    0.0000 H   0  0
    1.7340   -0.5001    0.0000 H   0  0
    3.9000    1.7500    0.0000 H   0  0
    4.7659    1.2501    0.0000 H   0  0
    6.0661    0.4997    0.0000 H   0  0
    1.7343   -2.0013    0.0000 H   0  0
  1  2  1  0
  2  3  1  0
  2  5  1  0
  3  4  1  0
  1  6  1  0
  1  7  1  0
  1  8  1  0
  2  9  1  0
  3 10  1  0
  3 11  1  0
  4 12  1  0
  5 13  1  0
V    1 0
V    2 1
V    3 2
V    4 3
V    5 4
M  END
> <DSSTox_RID>
66037

> <DSSTox_CID>
1206

> <DSSTox_CID_Parent>
1206

> <DSSTox_Generic_SID>
21206

> <DSSTox_FileID>
196_TXCST2_v1a

> <STRUCTURE_Formula>
C3H8O2

> <STRUCTURE_MolecularWeight>
76.0944

> <STRUCTURE_ChemicalType>
defined organic

> <STRUCTURE_TestedForm_DefinedOrganic>
parent

> <STRUCTURE_Shown>
tested chemical

> <TestSubstance_ChemicalName>
Propylene glycol

> <TestSubstance_CASRN>
57-55-6

> <TestSubstance_Description>
single chemical compound

> <STRUCTURE_ChemicalName_IUPAC>
propylene glycol

> <STRUCTURE_SMILES>
CC(CO)O

> <STRUCTURE_Parent_SMILES>
CC(CO)O

> <STRUCTURE_InChIS>
InChI=1S/C3H8O2/c1-3(5)2-4/h3-5H,2H2,1H3

> <STRUCTURE_InChIKey>
DNIAPMSPPWPWGF-UHFFFAOYSA-N

> <Substance_modify_yyyymmdd>
20080429

> <Coord_Metals>
0

> <Index>
196

> <Canonical_Smiles>
CC(O)CO

> <Molecular_Weight>
76.09442

> <Frequency>
1

$$$$

  SciTegic          2D

 21 21  0  0  0  0            999 V2000
    2.5973   -1.5031    0.0000 O   0  0
    1.2990   -0.7500    0.0000 C   0  0
    1.2990    0.7500    0.0000 C   0  0
    0.0000    1.5000    0.0000 C   0  0
   -1.2990    0.7500    0.0000 N   0  0
   -1.2990   -0.7500    0.0000 C   0  0
   -2.5972   -1.5031    0.0000 S   0  0
    0.0000   -1.5000    0.0000 N   0  0
    0.0000    3.0008    0.0000 C   0  0
    1.2993    3.7521    0.0000 C   0  0
    1.2992    5.2529    0.0000 C   0  0
    2.5958   -2.5031    0.0000 H   0  0
    2.1651    1.2500    0.0000 H   0  0
   -2.5958   -2.5031    0.0000 H   0  0
   -0.8662    3.5005    0.0000 H   0  0
   -0.8660    2.5007    0.0000 H   0  0
    2.1654    3.2523    0.0000 H   0  0
    1.2997    2.7521    0.0000 H   0  0
    2.1650    5.7534    0.0000 H   0  0
    0.4331    5.7526    0.0000 H   0  0
    1.2988    6.2529    0.0000 H   0  0
  1  2  1  0
  2  3  2  0
  2  8  1  0
  3  4  1  0
  4  5  2  0
  4  9  1  0
  5  6  1  0
  6  7  1  0
  6  8  2  0
  9 10  1  0
 10 11  1  0
  1 12  1  0
  3 13  1  0
  7 14  1  0
  9 15  1  0
  9 16  1  0
 10 17  1  0
 10 18  1  0
 11 19  1  0
 11 20  1  0
 11 21  1  0
V    1 0
V    2 1
V    3 2
V    4 3
V    5 4
V    6 5
V    7 6
V    8 7
V    9 8
V   10 9
V   11 10
M  END
> <DSSTox_RID>
60282

> <DSSTox_CID>
1209

> <DSSTox_CID_Parent>
1209

> <DSSTox_Generic_SID>
21209

> <DSSTox_FileID>
197_TXCST2_v1a

> <STRUCTURE_Formula>
C7H10N2OS

> <STRUCTURE_MolecularWeight>
170.2321

> <STRUCTURE_ChemicalType>
defined organic

> <STRUCTURE_TestedForm_DefinedOrganic>
parent

> <STRUCTURE_Shown>
tested chemical

> <TestSubstance_ChemicalName>
6-Propyl-2-thiouracil

> <TestSubstance_CASRN>
51-52-5

> <TestSubstance_Description>
single chemical compound

> <STRUCTURE_ChemicalName_IUPAC>
6-propyl-2-thioxo-2,3-dihydropyrimidin-4(1H)-one

> <STRUCTURE_SMILES>
O=C1C=C(NC(=S)N1)CCC

> <STRUCTURE_Parent_SMILES>
O=C1C=C(NC(=S)N1)CCC

> <STRUCTURE_InChIS>
InChI=1S/C7H10N2OS/c1-2-3-5-4-6(10)9-7(11)8-5/h4H,2-3H2,1H3,(H2,8,9,10,11)

> <STRUCTURE_InChIKey>
KNAHARQHSZJURB-UHFFFAOYSA-N

> <Substance_modify_yyyymmdd>
20080429

> <Coord_Metals>
0

> <Index>
197

> <Canonical_Smiles>
CCCc1cc(O)nc(S)n1

> <Molecular_Weight>
170.23209

> <Frequency>
1

$$$$

  SciTegic          2D

 30 31  0  0  0  0            999 V2000
    2.5973   -1.5031    0.0000 N   0  0
    1.2990   -0.7500    0.0000 C   0  0
    1.2990    0.7500    0.0000 C   0  0
    0.0000    1.5000    0.0000 C   0  0
   -1.2990    0.7500    0.0000 N   0  0
   -1.2990   -0.7500    0.0000 C   0  0
    0.0000   -1.5000    0.0000 N   0  0
   -2.5972   -1.5031    0.0000 N   0  0
    0.0000    3.0008    0.0000 C   0  0
   -1.2993    3.7521    0.0000 C   0  0
    2.5987    1.5004    0.0000 C   0  0
    2.6012    3.0005    0.0000 C   0  0
    3.9014    3.7484    0.0000 C   0  0
    5.1993    2.9963    0.0000 C   0  0
    5.1969    1.4963    0.0000 C   0  0
    3.8967    0.7484    0.0000 C   0  0
    6.2394    3.5947    0.0000 Cl  0  0
    2.5958   -2.5031    0.0000 H   0  0
    3.4642   -1.0046    0.0000 H   0  0
   -2.5958   -2.5031    0.0000 H   0  0
   -3.4641   -1.0046    0.0000 H   0  0
    0.8662    3.5006    0.0000 H   0  0
    0.8659    2.5007    0.0000 H   0  0
   -1.2993    4.7521    0.0000 H   0  0
   -2.1655    3.2523    0.0000 H   0  0
   -2.1652    4.2522    0.0000 H   0  0
    1.7360    3.5019    0.0000 H   0  0
    3.9030    4.7484    0.0000 H   0  0
    6.0621    0.9950    0.0000 H   0  0
    3.8951   -0.2516    0.0000 H   0  0
  1  2  1  0
  2  3  2  0
  2  7  1  0
  3  4  1  0
  3 11  1  0
  4  5  2  0
  4  9  1  0
  5  6  1  0
  6  7  2  0
  6  8  1  0
  9 10  1  0
 11 12  2  0
 11 16  1  0
 12 13  1  0
 13 14  2  0
 14 15  1  0
 14 17  1  0
 15 16  2  0
  1 18  1  0
  1 19  1  0
  8 20  1  0
  8 21  1  0
  9 22  1  0
  9 23  1  0
 10 24  1  0
 10 25  1  0
 10 26  1  0
 12 27  1  0
 13 28  1  0
 15 29  1  0
 16 30  1  0
V    1 0
V    2 1
V    3 2
V    4 3
V    5 4
V    6 5
V    7 6
V    8 7
V    9 8
V   10 9
V   11 10
V   12 11
V   13 12
V   14 13
V   15 14
V   16 15
V   17 16
M  END
> <DSSTox_RID>
66574

> <DSSTox_CID>
1217

> <DSSTox_CID_Parent>
1217

> <DSSTox_Generic_SID>
21217

> <DSSTox_FileID>
198_TXCST2_v1a

> <STRUCTURE_Formula>
C12H13ClN4

> <STRUCTURE_MolecularWeight>
248.7114

> <STRUCTURE_ChemicalType>
defined organic

> <STRUCTURE_TestedForm_DefinedOrganic>
parent

> <STRUCTURE_Shown>
tested chemical

> <TestSubstance_ChemicalName>
Pyrimethamine

> <TestSubstance_CASRN>
58-14-0

> <TestSubstance_Description>
single chemical compound

> <STRUCTURE_ChemicalName_IUPAC>
5-(4-chlorophenyl)-6-ethylpyrimidine-2,4-diamine

> <STRUCTURE_SMILES>
NC1=C(C(=NC(=N1)N)CC)C2=CC=C(C=C2)Cl

> <STRUCTURE_Parent_SMILES>
NC1=C(C(=NC(=N1)N)CC)C2=CC=C(C=C2)Cl

> <STRUCTURE_InChIS>
InChI=1S/C12H13ClN4/c1-2-9-10(11(14)17-12(15)16-9)7-3-5-8(13)6-4-7/h3-6H,2H2,1H3,(H4,14,15,16,17)

> <STRUCTURE_InChIKey>
WKSAUQYGYAYLPV-UHFFFAOYSA-N

> <Substance_modify_yyyymmdd>
20080429

> <Coord_Metals>
0

> <Index>
198

> <Canonical_Smiles>
CCc1nc(N)nc(N)c1c2ccc(Cl)cc2

> <Molecular_Weight>
248.71141

> <Frequency>
1

$$$$

  SciTegic          2D

 32 34  0  0  0  0            999 V2000
    1.2964   -2.6973    0.0000 O   0  0
    1.2964   -1.4973    0.0000 C   0  0
    0.0000   -0.7486    0.0000 C   0  0
    0.0000    0.7486    0.0000 C   0  0
   -1.2964    1.4973    0.0000 C   0  0
   -2.6111    0.7486    0.0000 C   0  0
   -2.6111   -0.7486    0.0000 C   0  0
   -1.2964   -1.4973    0.0000 C   0  0
   -1.2907   -2.9981    0.0000 O   0  0
   -3.9122    1.4966    0.0000 O   0  0
    1.2964    1.4973    0.0000 O   0  0
    2.5929    0.7486    0.0000 C   0  0
    2.5929   -0.7486    0.0000 C   0  0
    3.8942   -1.4964    0.0000 O   0  0
    3.8926    1.4990    0.0000 C   0  0
    5.1929    0.7510    0.0000 C   0  0
    6.4908    1.5029    0.0000 C   0  0
    6.4885    3.0029    0.0000 C   0  0
    5.1883    3.7510    0.0000 C   0  0
    3.8904    2.9990    0.0000 C   0  0
    7.7856    3.7580    0.0000 O   0  0
    7.7932    0.7572    0.0000 O   0  0
   -1.2934    2.4973    0.0000 H   0  0
   -3.4756   -1.2512    0.0000 H   0  0
   -2.1544   -3.5020    0.0000 H   0  0
   -4.7775    0.9954    0.0000 H   0  0
    4.7595   -0.9952    0.0000 H   0  0
    5.1944   -0.2490    0.0000 H   0  0
    5.1868    4.7510    0.0000 H   0  0
    3.0236    3.4977    0.0000 H   0  0
    7.7826    4.7580    0.0000 H   0  0
    8.6577    1.2597    0.0000 H   0  0
  1  2  2  0
  2  3  1  0
  2 13  1  0
  3  4  2  0
  3  8  1  0
  4  5  1  0
  4 11  1  0
  5  6  2  0
  6  7  1  0
  6 10  1  0
  7  8  2  0
  8  9  1  0
 11 12  1  0
 12 13  2  0
 12 15  1  0
 13 14  1  0
 15 16  2  0
 15 20  1  0
 16 17  1  0
 17 18  2  0
 17 22  1  0
 18 19  1  0
 18 21  1  0
 19 20  2  0
  5 23  1  0
  7 24  1  0
  9 25  1  0
 10 26  1  0
 14 27  1  0
 16 28  1  0
 19 29  1  0
 20 30  1  0
 21 31  1  0
 22 32  1  0
V    1 0
V    2 1
V    3 2
V    4 3
V    5 4
V    6 5
V    7 6
V    8 7
V    9 8
V   10 9
V   11 10
V   12 11
V   13 12
V   14 13
V   15 14
V   16 15
V   17 16
V   18 17
V   19 18
V   20 19
V   21 20
V   22 21
M  END
> <DSSTox_RID>
66054

> <DSSTox_CID>
1218

> <DSSTox_CID_Parent>
1218

> <DSSTox_Generic_SID>
21218

> <DSSTox_FileID>
199_TXCST2_v1a

> <STRUCTURE_Formula>
C15H10O7

> <STRUCTURE_MolecularWeight>
302.2357

> <STRUCTURE_ChemicalType>
defined organic

> <STRUCTURE_TestedForm_DefinedOrganic>
parent

> <STRUCTURE_Shown>
tested chemical

> <TestSubstance_ChemicalName>
2-(3,4-Dihydroxy-phenyl)-3,5,7-trihydroxy-chromen-4-one

> <TestSubstance_CASRN>
117-39-5

> <TestSubstance_Description>
single chemical compound

> <STRUCTURE_ChemicalName_IUPAC>
2-(3,4-dihydroxyphenyl)-3,5,7-trihydroxy-4H-chromen-4-one

> <STRUCTURE_SMILES>
O=C1C2=C(C=C(C=C2O)O)OC(=C1O)C3=CC(=C(C=C3)O)O

> <STRUCTURE_Parent_SMILES>
O=C1C2=C(C=C(C=C2O)O)OC(=C1O)C3=CC(=C(C=C3)O)O

> <STRUCTURE_InChIS>
InChI=1S/C15H10O7/c16-7-4-10(19)12-11(5-7)22-15(14(21)13(12)20)6-1-2-8(17)9(18)3-6/h1-5,16-19,21H

> <STRUCTURE_InChIKey>
REFJWTPEDVJJIY-UHFFFAOYSA-N

> <Substance_modify_yyyymmdd>
20080429

> <Coord_Metals>
0

> <Index>
199

> <Canonical_Smiles>
OC1=C(Oc2cc(O)cc(O)c2C1=O)c3ccc(O)c(O)c3

> <Molecular_Weight>
302.2357

> <Frequency>
1

$$$$

  SciTegic          2D

 84 89  0  0  0  0            999 V2000
   -1.3402   -0.8190    0.0000 C   0  0
   -2.5314    0.0372    0.0000 N   0  0
   -1.7993   -2.2336    0.0000 C   0  0
    2.4818    2.6803    0.0000 C   0  0
    2.0599    1.2533    0.0000 C   0  0
    0.1365   -0.5088    0.0000 C   0  0
    1.1416   -1.6132    0.0000 N   0  0
   -3.7475   -0.7942    0.0000 C   0  0
   -3.2884   -2.2336    0.0000 C   0  0
    3.0650    0.1365    0.0000 C   0  0
    5.0132    1.8986    0.0000 C   0  0
    6.3646   -0.3230    0.0000 C   0  0
    0.5708    0.9059    0.0000 C   0  0
    3.9833    3.0154    0.0000 C   0  0
    7.6920   -1.0233    0.0000 C   0  0
   10.3484   -2.4177    0.0000 C   0  0
    2.9472    4.0863    0.0000 C   0  0
    6.3064    1.1767    0.0000 O   0  0
    2.6183   -1.2781    0.0000 C   0  0
    9.0805   -3.2193    0.0000 C   0  0
   10.2881   -0.9189    0.0000 C   0  0
    4.5417    0.4715    0.0000 C   0  0
   -0.7818   -3.3504    0.0000 C   0  0
    7.7524   -2.5221    0.0000 C   0  0
    8.9600   -0.2217    0.0000 C   0  0
   -5.1993   -0.4964    0.0000 C   0  0
   -4.3183   -3.3504    0.0000 C   0  0
    0.6949   -3.0154    0.0000 C   0  0
    5.5185   -0.8560    0.0000 O   0  0
    4.1278    4.3010    0.0000 O   0  0
   -6.2169   -1.5635    0.0000 C   0  0
   11.6758   -3.1180    0.0000 O   0  0
   -5.7950   -3.0154    0.0000 C   0  0
    2.9540    4.0794    0.0000 O   0  0
    1.9767    5.2311    0.0000 O   0  0
    9.1378   -4.7190    0.0000 O   0  0
   11.5550   -0.1142    0.0000 O   0  0
   -7.6733   -1.2007    0.0000 O   0  0
   11.7340   -4.6177    0.0000 C   0  0
    3.3302    5.5324    0.0000 C   0  0
    7.8681   -5.5193    0.0000 C   0  0
   11.4926    1.3853    0.0000 C   0  0
    0.4998    4.9640    0.0000 C   0  0
   -8.7165   -2.2798    0.0000 C   0  0
   -2.5197    1.0372    0.0000 H   0  0
    1.5133    2.4313    0.0000 H   0  0
    1.7731    0.2953    0.0000 H   0  0
   -0.5378    0.2297    0.0000 H   0  0
    3.7423   -0.5993    0.0000 H   0  0
    5.2962    2.8577    0.0000 H   0  0
   -0.3978    0.6572    0.0000 H   0  0
    0.8852    1.8552    0.0000 H   0  0
    3.6614    2.0686    0.0000 H   0  0
    1.9237   -0.5587    0.0000 H   0  0
    2.2972   -2.2252    0.0000 H   0  0
    3.8876    1.2279    0.0000 H   0  0
    5.5135    0.7074    0.0000 H   0  0
   -0.0884   -4.0710    0.0000 H   0  0
   -1.7626   -3.5452    0.0000 H   0  0
    6.9072   -3.0565    0.0000 H   0  0
    8.9198    0.7775    0.0000 H   0  0
   -5.4981    0.4580    0.0000 H   0  0
   -4.0215   -4.3053    0.0000 H   0  0
    0.0364   -2.2628    0.0000 H   0  0
    1.6655   -2.7748    0.0000 H   0  0
   -6.4807   -3.7433    0.0000 H   0  0
   12.6185   -5.0843    0.0000 H   0  0
   10.8878   -5.1506    0.0000 H   0  0
   11.7723   -5.6169    0.0000 H   0  0
    2.6175    6.2339    0.0000 H   0  0
    3.5813    6.5003    0.0000 H   0  0
    4.2940    5.7991    0.0000 H   0  0
    7.9062   -6.5185    0.0000 H   0  0
    6.9835   -5.0529    0.0000 H   0  0
    7.0219   -6.0521    0.0000 H   0  0
   12.3367    1.9214    0.0000 H   0  0
   10.6063    1.8485    0.0000 H   0  0
   11.4505    2.3844    0.0000 H   0  0
   -0.1468    5.7268    0.0000 H   0  0
    0.1623    4.0227    0.0000 H   0  0
   -0.4841    4.7855    0.0000 H   0  0
   -9.6868   -2.0379    0.0000 H   0  0
   -8.4411   -3.2411    0.0000 H   0  0
   -9.4112   -2.9990    0.0000 H   0  0
  1  2  1  0
  1  3  2  0
  1  6  1  0
  2  8  1  0
  3  9  1  0
  3 23  1  0
  4  5  1  0
  4 14  1  0
  4 17  1  0
  5 13  1  0
  5 10  1  0
  6  7  1  0
  6 13  1  0
  7 19  1  0
  7 28  1  0
  8 26  1  0
  8  9  2  0
  9 27  1  0
 10 22  1  0
 10 19  1  0
 11 22  1  0
 11 18  1  0
 11 14  1  0
 12 18  1  0
 12 15  1  0
 12 29  2  0
 14 34  1  0
 15 24  2  0
 15 25  1  0
 16 21  1  0
 16 32  1  0
 16 20  2  0
 17 30  2  0
 17 35  1  0
 20 24  1  0
 20 36  1  0
 21 25  2  0
 21 37  1  0
 23 28  1  0
 26 31  2  0
 27 33  2  0
 31 38  1  0
 31 33  1  0
 32 39  1  0
 34 40  1  0
 35 43  1  0
 36 41  1  0
 37 42  1  0
 38 44  1  0
  2 45  1  0
  4 46  1  0
  5 47  1  0
  6 48  1  0
 10 49  1  0
 11 50  1  0
 13 51  1  0
 13 52  1  0
 14 53  1  0
 19 54  1  0
 19 55  1  0
 22 56  1  0
 22 57  1  0
 23 58  1  0
 23 59  1  0
 24 60  1  0
 25 61  1  0
 26 62  1  0
 27 63  1  0
 28 64  1  0
 28 65  1  0
 33 66  1  0
 39 67  1  0
 39 68  1  0
 39 69  1  0
 40 70  1  0
 40 71  1  0
 40 72  1  0
 41 73  1  0
 41 74  1  0
 41 75  1  0
 42 76  1  0
 42 77  1  0
 42 78  1  0
 43 79  1  0
 43 80  1  0
 43 81  1  0
 44 82  1  0
 44 83  1  0
 44 84  1  0
V    1 0
V    2 1
V    3 2
V    4 3
V    5 4
V    6 5
V    7 6
V    8 7
V    9 8
V   10 9
V   11 10
V   12 11
V   13 12
V   14 13
V   15 14
V   16 15
V   17 16
V   18 17
V   19 18
V   20 19
V   21 20
V   22 21
V   23 22
V   24 23
V   25 24
V   26 25
V   27 26
V   28 27
V   29 28
V   30 29
V   31 30
V   32 31
V   33 32
V   34 33
V   35 34
V   36 35
V   37 36
V   38 37
V   39 38
V   40 39
V   41 40
V   42 41
V   43 42
V   44 43
M  END
> <DSSTox_RID>
60286

> <DSSTox_CID>
1237

> <DSSTox_CID_Parent>
1237

> <DSSTox_Generic_SID>
21237

> <DSSTox_FileID>
200_TXCST2_v1a

> <STRUCTURE_Formula>
C33H40N2O9

> <STRUCTURE_MolecularWeight>
608.6787

> <STRUCTURE_ChemicalType>
defined organic

> <STRUCTURE_TestedForm_DefinedOrganic>
parent

> <STRUCTURE_Shown>
tested chemical

> <TestSubstance_ChemicalName>
Reserpine

> <TestSubstance_CASRN>
50-55-5

> <TestSubstance_Description>
single chemical compound

> <ChemicalNote>
stereochem

> <STRUCTURE_ChemicalName_IUPAC>
methyl (3beta,16beta,17alpha,18beta,20alpha)-11,17-bis(methyloxy)-18-({[3,4,5-tris(methyloxy)phenyl]carbonyl}oxy)yohimban-16-carboxylate

> <STRUCTURE_SMILES>
O=C(C4=CC(OC)=C(OC)C(OC)=C4)O[C@@H]1C[C@@]3([H])[C@@](C[C@](N5C3)([H])C2=C(CC5)C(C=C6)=C(C=C6OC)N2)([H])[C@H]([C@](OC)=O)[C@H]1OC

> <STRUCTURE_Parent_SMILES>
O=C(C4=CC(OC)=C(OC)C(OC)=C4)O[C@@H]1C[C@@]3([H])[C@@](C[C@](N5C3)([H])C2=C(CC5)C(C=C6)=C(C=C6OC)N2)([H])[C@H]([C@](OC)=O)[C@H]1OC

> <STRUCTURE_InChIS>
InChI=1S/C33H40N2O9/c1-38-19-7-8-20-21-9-10-35-16-18-13-27(44-32(36)17-11-25(39-2)30(41-4)26(12-17)40-3)31(42-5)28(33(37)43-6)22(18)15-24(35)29(21)34-23(20)14-19/h7-8,11-12,14,18,22,24,27-28,31,34H,9-
10,13,15-16H2,1-6H3/t18-,22+,24-,27-,28+,31+/m1/s1

> <STRUCTURE_InChIKey>
QEVHRUUCFGRFIF-MDEJGZGSSA-N

> <Substance_modify_yyyymmdd>
20080429

> <Coord_Metals>
0

> <Index>
200

> <Canonical_Smiles>
COC1C(CC2CN3CCc4c([nH]c5cc(OC)ccc45)C3CC2C1C(=O)OC)OC(=O)c6cc(OC)c(OC)c(OC)c6

> <Molecular_Weight>
608.67869

> <Frequency>
1

$$$$

  SciTegic          2D

 14 14  0  0  0  0            999 V2000
    2.5973   -1.5031    0.0000 O   0  0
    1.2990   -0.7500    0.0000 C   0  0
    1.2990    0.7500    0.0000 C   0  0
    0.0000    1.5000    0.0000 C   0  0
   -1.2990    0.7500    0.0000 C   0  0
   -1.2990   -0.7500    0.0000 C   0  0
    0.0000   -1.5000    0.0000 C   0  0
   -0.0031    3.0008    0.0000 O   0  0
    2.5958   -2.5031    0.0000 H   0  0
    2.1651    1.2500    0.0000 H   0  0
   -2.1651    1.2500    0.0000 H   0  0
   -2.1651   -1.2500    0.0000 H   0  0
    0.0000   -2.5000    0.0000 H   0  0
   -0.8698    3.4996    0.0000 H   0  0
  1  2  1  0
  2  3  2  0
  2  7  1  0
  3  4  1  0
  4  5  2  0
  4  8  1  0
  5  6  1  0
  6  7  2  0
  1  9  1  0
  3 10  1  0
  5 11  1  0
  6 12  1  0
  7 13  1  0
  8 14  1  0
V    1 0
V    2 1
V    3 2
V    4 3
V    5 4
V    6 5
V    7 6
V    8 7
M  END
> <DSSTox_RID>
65577

> <DSSTox_CID>
1238

> <DSSTox_CID_Parent>
1238

> <DSSTox_Generic_SID>
21238

> <DSSTox_FileID>
201_TXCST2_v1a

> <STRUCTURE_Formula>
C6H6O2

> <STRUCTURE_MolecularWeight>
110.1106

> <STRUCTURE_ChemicalType>
defined organic

> <STRUCTURE_TestedForm_DefinedOrganic>
parent

> <STRUCTURE_Shown>
tested chemical

> <TestSubstance_ChemicalName>
Resorcinol

> <TestSubstance_CASRN>
108-46-3

> <TestSubstance_Description>
single chemical compound

> <STRUCTURE_ChemicalName_IUPAC>
resorcinol

> <STRUCTURE_SMILES>
OC1=CC(=CC=C1)O

> <STRUCTURE_Parent_SMILES>
OC1=CC(=CC=C1)O

> <STRUCTURE_InChIS>
InChI=1S/C6H6O2/c7-5-2-1-3-6(8)4-5/h1-4,7-8H

> <STRUCTURE_InChIKey>
GHMLBKRAJCXXBS-UHFFFAOYSA-N

> <Substance_modify_yyyymmdd>
20080429

> <Coord_Metals>
0

> <Index>
201

> <Canonical_Smiles>
Oc1cccc(O)c1

> <Molecular_Weight>
110.11064

> <Frequency>
1

$$$$

  SciTegic          2D

 50 50  0  0  0  0            999 V2000
    1.2990   -0.7500    0.0000 C   0  0
    2.7776   -1.0076    0.0000 C   0  0
    1.2990    0.7500    0.0000 C   0  0
    0.0000   -1.5000    0.0000 C   0  0
    3.2947   -2.4165    0.0000 C   0  0
    9.2817   -7.4160    0.0000 C   0  0
   10.7603   -7.6736    0.0000 C   0  0
    6.7689   -4.3406    0.0000 C   0  0
    8.7646   -6.0071    0.0000 C   0  0
    4.7733   -2.6741    0.0000 C   0  0
    7.2860   -5.7495    0.0000 C   0  0
    5.2904   -4.0830    0.0000 C   0  0
   11.5294   -6.7525    0.0000 O   0  0
   11.2774   -9.0825    0.0000 O   0  0
    0.0000    1.5000    0.0000 C   0  0
   -1.2990   -0.7500    0.0000 C   0  0
    2.5988    1.5004    0.0000 C   0  0
   -1.2999   -2.2084    0.0000 C   0  0
    1.3002   -2.2087    0.0000 C   0  0
   -1.2990    0.7500    0.0000 C   0  0
    9.7242   -4.8531    0.0000 C   0  0
    5.7376   -1.5241    0.0000 C   0  0
    3.4186   -0.2400    0.0000 H   0  0
    2.6537   -3.1841    0.0000 H   0  0
    8.6407   -8.1836    0.0000 H   0  0
    7.4099   -3.5730    0.0000 H   0  0
    6.6451   -6.5171    0.0000 H   0  0
    4.6494   -4.8506    0.0000 H   0  0
   12.2625   -9.2541    0.0000 H   0  0
   -0.8776    1.9794    0.0000 H   0  0
    0.8775    1.9795    0.0000 H   0  0
   -2.1530   -0.2297    0.0000 H   0  0
   -0.4450   -0.2298    0.0000 H   0  0
    3.4651    1.0010    0.0000 H   0  0
    2.5985    2.5004    0.0000 H   0  0
    3.4646    2.0008    0.0000 H   0  0
   -2.1662   -1.7088    0.0000 H   0  0
   -2.1658   -2.7087    0.0000 H   0  0
   -1.2998   -3.2084    0.0000 H   0  0
    1.3009   -3.2087    0.0000 H   0  0
    2.1665   -2.7082    0.0000 H   0  0
    2.1660   -1.7084    0.0000 H   0  0
   -1.2755    1.7497    0.0000 H   0  0
   -2.1531    0.2298    0.0000 H   0  0
    9.3786   -3.9147    0.0000 H   0  0
   10.7097   -5.0227    0.0000 H   0  0
   10.3640   -4.0845    0.0000 H   0  0
    6.7226   -1.6968    0.0000 H   0  0
    5.3950   -0.5846    0.0000 H   0  0
    6.3798   -0.7575    0.0000 H   0  0
  2  1  1  0
  1  3  2  0
  1  4  1  0
  2  5  2  0
  3 15  1  0
  3 17  1  0
  4 16  1  0
  4 18  1  0
  4 19  1  0
  5 10  1  0
  6  9  2  0
  6  7  1  0
  7 13  2  0
  7 14  1  0
  8 12  1  0
  8 11  2  0
  9 11  1  0
  9 21  1  0
 10 12  2  0
 10 22  1  0
 15 20  1  0
 16 20  1  0
  2 23  1  0
  5 24  1  0
  6 25  1  0
  8 26  1  0
 11 27  1  0
 12 28  1  0
 14 29  1  0
 15 30  1  0
 15 31  1  0
 16 32  1  0
 16 33  1  0
 17 34  1  0
 17 35  1  0
 17 36  1  0
 18 37  1  0
 18 38  1  0
 18 39  1  0
 19 40  1  0
 19 41  1  0
 19 42  1  0
 20 43  1  0
 20 44  1  0
 21 45  1  0
 21 46  1  0
 21 47  1  0
 22 48  1  0
 22 49  1  0
 22 50  1  0
V    1 0
V    2 1
V    3 2
V    4 3
V    5 4
V    6 5
V    7 6
V    8 7
V    9 8
V   10 9
V   11 10
V   12 11
V   13 12
V   14 13
V   15 14
V   16 15
V   17 16
V   18 17
V   19 18
V   20 19
V   21 20
V   22 21
M  END
> <DSSTox_RID>
65561

> <DSSTox_CID>
1239

> <DSSTox_CID_Parent>
1239

> <DSSTox_Generic_SID>
21239

> <DSSTox_FileID>
202_TXCST2_v1a

> <STRUCTURE_Formula>
C20H28O2

> <STRUCTURE_MolecularWeight>
300.4351

> <STRUCTURE_ChemicalType>
defined organic

> <STRUCTURE_TestedForm_DefinedOrganic>
parent

> <STRUCTURE_Shown>
tested chemical

> <TestSubstance_ChemicalName>
trans-Retinoic acid

> <TestSubstance_CASRN>
302-79-4

> <TestSubstance_Description>
single chemical compound

> <ChemicalNote>
stereochem

> <Source_ChemicalNote>
tested chemical contained 0.1% water (0.02 moles H2O)

> <STRUCTURE_ChemicalName_IUPAC>
retinoic acid

> <STRUCTURE_SMILES>
O=C(O)/C=C(C)/C=C/C=C(C)/C=C/C1=C(C)CCCC(C)1C

> <STRUCTURE_Parent_SMILES>
O=C(O)/C=C(C)/C=C/C=C(C)/C=C/C1=C(C)CCCC(C)1C

> <STRUCTURE_InChIS>
InChI=1S/C20H28O2/c1-15(8-6-9-16(2)14-19(21)22)11-12-18-17(3)10-7-13-20(18,4)5/h6,8-9,11-12,14H,7,10,13H2,1-5H3,(H,21,22)/b9-6+,12-11+,15-8+,16-14+

> <STRUCTURE_InChIKey>
SHGAZHPCJJPHSC-YCNIQYBTSA-N

> <Substance_modify_yyyymmdd>
20080429

> <Coord_Metals>
0

> <Index>
202

> <Canonical_Smiles>
CC(=CC=CC(=CC(=O)O)C)C=CC1=C(C)CCCC1(C)C

> <Molecular_Weight>
300.43512

> <Frequency>
1

$$$$

  SciTegic          2D

117121  0  0  0  0            999 V2000
    1.2100   -1.9800    0.0000 C   0  0
    5.4100    0.4200    0.0000 C   0  0
    5.4100   -1.1700    0.0000 C   0  0
   -0.1600   -1.1700    0.0000 C   0  0
    2.6100    0.4200    0.0000 C   0  0
    2.6100   -1.1700    0.0000 C   0  0
   -0.7000   -3.7400    0.0000 C   0  0
    6.8200    1.2300    0.0000 N   0  0
   -1.3600   -2.2500    0.0000 O   0  0
    4.0000    1.2300    0.0000 C   0  0
    4.0000   -1.9800    0.0000 C   0  0
    1.2100    1.2300    0.0000 C   0  0
    0.8800   -3.5500    0.0000 C   0  0
   -0.1600    0.4200    0.0000 C   0  0
   -3.7700   -0.5500    0.0000 C   0  0
    6.4200    3.1700    0.0000 C   0  0
   -4.0400    0.9800    0.0000 C   0  0
   -2.8600    3.3500    0.0000 C   0  0
   -2.6100    1.7700    0.0000 C   0  0
    6.7110   -1.9161    0.0000 C   0  0
   -5.2000   -1.3500    0.0000 C   0  0
    9.3110   -1.9097    0.0000 N   0  0
   -1.4300    4.1100    0.0000 C   0  0
    8.0091   -1.1629    0.0000 N   0  0
    5.2400    3.7400    0.0000 C   0  0
   -1.5200   -5.1200    0.0000 O   0  0
   11.9102   -3.4079    0.0000 N   0  0
   -3.1000   -4.8300    0.0000 C   0  0
   -3.3500   -3.2400    0.0000 C   0  0
   -4.9400   -2.9400    0.0000 C   0  0
    2.3600    2.7300    0.0000 C   0  0
    1.6906   -4.4348    0.0000 O   0  0
    3.6200    3.7900    0.0000 C   0  0
    7.3665    3.9077    0.0000 O   0  0
   10.6095   -1.1589    0.0000 C   0  0
    9.3121   -3.4098    0.0000 C   0  0
   -0.2200    3.0400    0.0000 C   0  0
    1.1400    3.8200    0.0000 C   0  0
    3.9879    2.7296    0.0000 O   0  0
    3.9941   -3.4796    0.0000 O   0  0
    1.1934    2.7296    0.0000 O   0  0
   10.6117   -4.1589    0.0000 C   0  0
   11.9091   -1.9079    0.0000 C   0  0
   -2.5332    0.2856    0.0000 O   0  0
   -2.6363    4.9778    0.0000 O   0  0
   -2.1999   -3.7358    0.0000 C   0  0
   -1.4632    1.1630    0.0000 C   0  0
   -4.0862    2.5089    0.0000 C   0  0
   -4.5479   -4.3737    0.0000 O   0  0
   13.2105   -4.1574    0.0000 C   0  0
    5.7596    5.1570    0.0000 C   0  0
    0.9999    2.1896    0.0000 C   0  0
   -5.5845   -5.4590    0.0000 C   0  0
   -5.2518    0.1183    0.0000 C   0  0
   -4.6512   -1.7475    0.0000 O   0  0
   -5.8860   -2.6006    0.0000 C   0  0
   -5.8048   -3.5973    0.0000 O   0  0
   -7.2426   -1.9586    0.0000 C   0  0
   -5.2846    0.1340    0.0000 C   0  0
    7.7319    0.8195    0.0000 H   0  0
   -4.6805   -0.1365    0.0000 H   0  0
   -4.1014    1.9781    0.0000 H   0  0
   -2.9044    4.3490    0.0000 H   0  0
   -1.7902    2.3427    0.0000 H   0  0
    6.7134   -2.9161    0.0000 H   0  0
   -6.0167   -1.9270    0.0000 H   0  0
   -0.5044    4.4885    0.0000 H   0  0
   -3.8161   -5.5280    0.0000 H   0  0
   -2.6322   -2.5438    0.0000 H   0  0
   -4.2124   -2.2540    0.0000 H   0  0
    2.3451    1.7301    0.0000 H   0  0
    3.2919    4.7346    0.0000 H   0  0
   11.4868   -0.6788    0.0000 H   0  0
    9.7317   -0.6799    0.0000 H   0  0
    9.3365   -4.4095    0.0000 H   0  0
    8.4577   -2.8902    0.0000 H   0  0
   -1.1389    2.6454    0.0000 H   0  0
    1.2440    4.8146    0.0000 H   0  0
    3.1182    3.2231    0.0000 H   0  0
    4.8578   -3.9836    0.0000 H   0  0
    0.3221    3.2204    0.0000 H   0  0
   10.6346   -3.1591    0.0000 H   0  0
   11.4896   -4.6377    0.0000 H   0  0
   11.0555   -2.4288    0.0000 H   0  0
   12.7635   -2.4275    0.0000 H   0  0
   -3.3625   -0.2733    0.0000 H   0  0
   -3.5553    4.5834    0.0000 H   0  0
   -2.6997   -2.8696    0.0000 H   0  0
   -2.7003   -4.6015    0.0000 H   0  0
   -3.1999   -3.7354    0.0000 H   0  0
   -2.3268    0.6588    0.0000 H   0  0
   -1.4683    2.1629    0.0000 H   0  0
   -1.4582    0.1630    0.0000 H   0  0
   -4.0257    1.5108    0.0000 H   0  0
   -4.9203    1.9573    0.0000 H   0  0
   -4.9810    2.9554    0.0000 H   0  0
   13.2119   -5.1574    0.0000 H   0  0
   14.0760   -3.6565    0.0000 H   0  0
   14.0771   -4.6563    0.0000 H   0  0
    6.7450    5.3274    0.0000 H   0  0
    5.1196    5.9254    0.0000 H   0  0
    6.1049    6.0955    0.0000 H   0  0
    1.9124    2.5987    0.0000 H   0  0
    1.8106    1.6040    0.0000 H   0  0
    0.8984    1.1947    0.0000 H   0  0
   -5.3041   -6.4189    0.0000 H   0  0
   -6.2755   -6.1819    0.0000 H   0  0
   -6.5560   -5.2222    0.0000 H   0  0
   -5.1744   -0.8787    0.0000 H   0  0
   -6.0765   -0.4474    0.0000 H   0  0
   -6.1541    0.5495    0.0000 H   0  0
   -8.0654   -2.5270    0.0000 H   0  0
   -7.3238   -0.9619    0.0000 H   0  0
   -8.1463   -1.5305    0.0000 H   0  0
   -4.4583    0.6972    0.0000 H   0  0
   -5.3590    1.1312    0.0000 H   0  0
   -6.1854    0.5682    0.0000 H   0  0
  1  4  2  0
  1  6  1  0
  1 13  1  0
  2  3  2  0
  2  8  1  0
  2 10  1  0
  3 11  1  0
 20  3  1  0
  4  9  1  0
  4 14  1  0
  5  6  1  0
  5 10  2  0
  5 12  1  0
  6 11  2  0
  7 13  1  0
  7 26  1  0
  7 46  1  0
  7  9  1  0
  8 16  1  0
 10 39  1  0
 11 40  1  0
 12 41  1  0
 12 14  2  0
 13 32  2  0
 14 47  1  0
 15 21  1  0
 15 17  1  0
 15 55  1  0
 16 25  1  0
 16 34  2  0
 17 19  1  0
 17 54  1  0
 18 19  1  0
 18 23  1  0
 18 48  1  0
 19 44  1  0
 20 24  2  0
 21 30  1  0
 21 59  1  0
 22 24  1  0
 22 35  1  0
 22 36  1  0
 23 45  1  0
 23 37  1  0
 25 33  2  0
 25 51  1  0
 28 26  1  0
 27 42  1  0
 27 50  1  0
 27 43  1  0
 28 29  2  0
 29 30  1  0
 30 49  1  0
 33 31  1  0
 31 38  2  0
 35 43  1  0
 36 42  1  0
 37 38  1  0
 37 52  1  0
 49 53  1  0
 55 56  1  0
 56 57  2  0
 56 58  1  0
  8 60  1  0
 15 61  1  0
 17 62  1  0
 18 63  1  0
 19 64  1  0
 20 65  1  0
 21 66  1  0
 23 67  1  0
 28 68  1  0
 29 69  1  0
 30 70  1  0
 31 71  1  0
 33 72  1  0
 35 73  1  0
 35 74  1  0
 36 75  1  0
 36 76  1  0
 37 77  1  0
 38 78  1  0
 39 79  1  0
 40 80  1  0
 41 81  1  0
 42 82  1  0
 42 83  1  0
 43 84  1  0
 43 85  1  0
 44 86  1  0
 45 87  1  0
 46 88  1  0
 46 89  1  0
 46 90  1  0
 47 91  1  0
 47 92  1  0
 47 93  1  0
 48 94  1  0
 48 95  1  0
 48 96  1  0
 50 97  1  0
 50 98  1  0
 50 99  1  0
 51100  1  0
 51101  1  0
 51102  1  0
 52103  1  0
 52104  1  0
 52105  1  0
 53106  1  0
 53107  1  0
 53108  1  0
 54109  1  0
 54110  1  0
 54111  1  0
 58112  1  0
 58113  1  0
 58114  1  0
 59115  1  0
 59116  1  0
 59117  1  0
V    1 0
V    2 1
V    3 2
V    4 3
V    5 4
V    6 5
V    7 6
V    8 7
V    9 8
V   10 9
V   11 10
V   12 11
V   13 12
V   14 13
V   15 14
V   16 15
V   17 16
V   18 17
V   19 18
V   20 19
V   21 20
V   22 21
V   23 22
V   24 23
V   25 24
V   26 25
V   27 26
V   28 27
V   29 28
V   30 29
V   31 30
V   32 31
V   33 32
V   34 33
V   35 34
V   36 35
V   37 36
V   38 37
V   39 38
V   40 39
V   41 40
V   42 41
V   43 42
V   44 43
V   45 44
V   46 45
V   47 46
V   48 47
V   49 48
V   50 49
V   51 50
V   52 51
V   53 52
V   54 53
V   55 54
V   56 55
V   57 56
V   58 57
V   59 58
M  END
> <DSSTox_RID>
65422

> <DSSTox_CID>
1244

> <DSSTox_CID_Parent>
1244

> <DSSTox_Generic_SID>
21244

> <DSSTox_FileID>
203_TXCST2_v1a

> <STRUCTURE_Formula>
C43H58N4O12

> <STRUCTURE_MolecularWeight>
822.9402

> <STRUCTURE_ChemicalType>
defined organic

> <STRUCTURE_TestedForm_DefinedOrganic>
parent

> <STRUCTURE_Shown>
tested chemical

> <TestSubstance_ChemicalName>
Rifampin (Rif) (Rifampicin)

> <TestSubstance_CASRN>
13292-46-1

> <TestSubstance_Description>
single chemical compound

> <ChemicalNote>
SV form [6998-60-3]; stereochem

> <STRUCTURE_ChemicalName_IUPAC>
(2S,12Z,14E,16S,17S,18R,19R,20R,21S,22R,23S,24E)-5,6,9,17,19-pentahydroxy-23-methoxy-2,4,12,16,18,20,22-heptamethyl-8-{(E)-[(4-methylpiperazin-1-yl)imino]methyl}-1,11-dioxo-1,2-dihydro-2,7-(epoxypenta
deca[1,11,13]trienoimino)naphtho[2,1-b]furan-21-yl acetate

> <STRUCTURE_SMILES>
O=C1C(C2=C(C(O)=C3C)C(O)=C(NC(\C(C)=C/C=C/[C@@H]5C)=O)C(/C=N/N4CCN(C)CC4)=C2O)=C3O[C@@](C)1O/C=C/[C@H](OC)[C@@H](C)[C@@H](OC(C)=O)[C@H](C)[C@H](O)[C@H](C)[C@H]5O

> <STRUCTURE_Parent_SMILES>
O=C1C(C2=C(C(O)=C3C)C(O)=C(NC(\C(C)=C/C=C/[C@@H]5C)=O)C(/C=N/N4CCN(C)CC4)=C2O)=C3O[C@@](C)1O/C=C/[C@H](OC)[C@@H](C)[C@@H](OC(C)=O)[C@H](C)[C@H](O)[C@H](C)[C@H]5O

> <STRUCTURE_InChIS>
InChI=1S/C43H58N4O12/c1-21-12-11-13-22(2)42(55)45-33-28(20-44-47-17-15-46(9)16-18-47)37(52)30-31(38(33)53)36(51)26(6)40-32(30)41(54)43(8,59-40)57-19-14-29(56-10)23(3)39(58-27(7)48)25(5)35(50)24(4)34(2
1)49/h11-14,19-21,23-25,29,34-35,39,49-53H,15-18H2,1-10H3,(H,45,55)/b12-11+,19-14+,22-13-,44-20+/t21-,23+,24+,25+,29-,34-,35+,39+,43-/m0/s1

> <STRUCTURE_InChIKey>
JQXXHWHPUNPDRT-WLSIYKJHSA-N

> <Substance_modify_yyyymmdd>
20080429

> <Coord_Metals>
0

> <Index>
203

> <Canonical_Smiles>
COC1C=COC2(C)Oc3c(C)c(O)c4c(O)c(NC(=O)C(=CC=CC(C)C(O)C(C)C(O)C(C)C(OC(=O)C)C1C)C)c(C=NN5CCN(C)CC5)c(O)c4c3C2=O

> <Molecular_Weight>
822.94021

> <Frequency>
1

$$$$

  SciTegic          2D

 51 55  0  0  0  0            999 V2000
    1.7200    0.8500    0.0000 C   0  0
   -1.1300    0.9200    0.0000 C   0  0
   -1.1300   -0.6700    0.0000 C   0  0
    0.3500    1.7000    0.0000 C   0  0
    3.2000    1.7000    0.0000 C   0  0
   -2.6700   -1.4700    0.0000 C   0  0
    1.7200   -0.7700    0.0000 O   0  0
    0.2000   -1.5700    0.0000 C   0  0
   -2.6700   -3.1400    0.0000 C   0  0
    4.8000    3.9200    0.0000 O   0  0
    3.2000    3.3200    0.0000 C   0  0
    4.8000    1.2200    0.0000 C   0  0
    5.8100    2.6000    0.0000 C   0  0
   -4.0100   -0.5600    0.0000 C   0  0
   -1.2700   -3.9900    0.0000 O   0  0
   -4.1300   -3.8900    0.0000 C   0  0
    0.3500    3.3200    0.0000 C   0  0
   -5.5600   -1.3400    0.0000 C   0  0
   -5.5600   -2.9900    0.0000 C   0  0
    6.5210    3.9076    0.0000 C   0  0
    0.2000   -3.2400    0.0000 C   0  0
   -2.1575    1.5399    0.0000 O   0  0
    1.7700    4.1500    0.0000 C   0  0
    5.7573    5.1996    0.0000 C   0  0
   -6.8468   -0.5729    0.0000 O   0  0
   -6.8791   -3.7034    0.0000 O   0  0
    8.0217    3.9266    0.0000 C   0  0
   -8.1579   -2.9178    0.0000 C   0  0
   -6.8263    0.9278    0.0000 C   0  0
   -1.9847   -0.1509    0.0000 H   0  0
    1.0561   -2.0868    0.0000 H   0  0
    5.7832    1.0372    0.0000 H   0  0
    4.1262    0.4811    0.0000 H   0  0
    6.3065    1.7319    0.0000 H   0  0
   -3.9449    0.4379    0.0000 H   0  0
   -4.1736   -4.8890    0.0000 H   0  0
   -0.5174    3.8177    0.0000 H   0  0
    1.0683   -2.7439    0.0000 H   0  0
    0.1528   -4.2389    0.0000 H   0  0
    1.7685    5.1500    0.0000 H   0  0
    6.2479    6.0710    0.0000 H   0  0
    4.7574    5.1890    0.0000 H   0  0
    8.5113    4.7985    0.0000 H   0  0
    9.0217    3.9387    0.0000 H   0  0
    8.5324    3.0668    0.0000 H   0  0
   -9.0376   -3.3933    0.0000 H   0  0
   -8.1302   -1.9181    0.0000 H   0  0
   -9.0097   -2.3939    0.0000 H   0  0
   -7.6851    1.4401    0.0000 H   0  0
   -5.9534    1.4156    0.0000 H   0  0
   -6.8122    1.9277    0.0000 H   0  0
  1  4  2  0
  1  5  1  0
  1  7  1  0
  2  4  1  0
  2 22  2  0
  2  3  1  0
  3  8  1  0
  3  6  1  0
  4 17  1  0
  5 11  2  0
  5 12  1  0
  6 14  1  0
  6  9  2  0
  7  8  1  0
  8 21  1  0
  9 15  1  0
  9 16  1  0
 10 11  1  0
 10 13  1  0
 11 23  1  0
 12 13  1  0
 13 20  1  0
 14 18  2  0
 15 21  1  0
 16 19  2  0
 17 23  2  0
 18 25  1  0
 18 19  1  0
 19 26  1  0
 20 24  2  0
 20 27  1  0
 25 29  1  0
 26 28  1  0
  3 30  1  0
  8 31  1  0
 12 32  1  0
 12 33  1  0
 13 34  1  0
 14 35  1  0
 16 36  1  0
 17 37  1  0
 21 38  1  0
 21 39  1  0
 23 40  1  0
 24 41  1  0
 24 42  1  0
 27 43  1  0
 27 44  1  0
 27 45  1  0
 28 46  1  0
 28 47  1  0
 28 48  1  0
 29 49  1  0
 29 50  1  0
 29 51  1  0
V    1 0
V    2 1
V    3 2
V    4 3
V    5 4
V    6 5
V    7 6
V    8 7
V    9 8
V   10 9
V   11 10
V   12 11
V   13 12
V   14 13
V   15 14
V   16 15
V   17 16
V   18 17
V   19 18
V   20 19
V   21 20
V   22 21
V   23 22
V   24 23
V   25 24
V   26 25
V   27 26
V   28 27
V   29 28
M  END
> <DSSTox_RID>
66987

> <DSSTox_CID>
1248

> <DSSTox_CID_Parent>
1248

> <DSSTox_Generic_SID>
21248

> <DSSTox_FileID>
204_TXCST2_v1a

> <STRUCTURE_Formula>
C23H22O6

> <STRUCTURE_MolecularWeight>
394.4172

> <STRUCTURE_ChemicalType>
defined organic

> <STRUCTURE_TestedForm_DefinedOrganic>
parent

> <STRUCTURE_Shown>
tested chemical

> <TestSubstance_ChemicalName>
Rotenone

> <TestSubstance_CASRN>
83-79-4

> <TestSubstance_Description>
single chemical compound

> <ChemicalNote>
stereochem

> <STRUCTURE_ChemicalName_IUPAC>
(2R,6aS,12aS)-2-isopropenyl-8,9-dimethoxy-1,2,12,12a-tetrahydrochromeno[3,4-b]furo[2,3-h]chromen-6(6aH)-one

> <STRUCTURE_SMILES>
O=C([C@](C(C=C4OC)=C(C=C4OC)OC3)([H])[C@]3([H])O2)C(C=C5)=C2C1=C5O[C@@H]([C@@](C)=C)C1

> <STRUCTURE_Parent_SMILES>
O=C([C@](C(C=C4OC)=C(C=C4OC)OC3)([H])[C@]3([H])O2)C(C=C5)=C2C1=C5O[C@@H]([C@@](C)=C)C1

> <STRUCTURE_InChIS>
InChI=1S/C23H22O6/c1-11(2)16-8-14-15(28-16)6-5-12-22(24)21-13-7-18(25-3)19(26-4)9-17(13)27-10-20(21)29-23(12)14/h5-7,9,16,20-21H,1,8,10H2,2-4H3/t16-,20-,21+/m1/s1

> <STRUCTURE_InChIKey>
JUVIOZPCNVVQFO-HBGVWJBISA-N

> <Substance_modify_yyyymmdd>
20080429

> <Coord_Metals>
0

> <Index>
204

> <Canonical_Smiles>
COc1cc2OCC3Oc4c5CC(Oc5ccc4C(=O)C3c2cc1OC)C(=C)C

> <Molecular_Weight>
394.41718

> <Frequency>
1

$$$$

  SciTegic          2D

 22 23  0  0  0  0            999 V2000
   -6.2201    1.4724    0.0000 C   0  0
   -4.9153    0.7308    0.0000 C   0  0
   -3.6202    1.4892    0.0000 C   0  0
   -2.3155    0.7475    0.0000 C   0  0
   -2.3155   -0.7475    0.0000 C   0  0
   -1.0028   -1.5132    0.0000 C   0  0
    0.2917   -0.7475    0.0000 C   0  0
    0.2917    0.7475    0.0000 C   0  0
   -1.0028    1.5132    0.0000 C   0  0
    1.7138    1.2033    0.0000 O   0  0
    2.5889    0.0182    0.0000 C   0  0
    1.7138   -1.2033    0.0000 O   0  0
   -7.0830    0.9671    0.0000 H   0  0
   -6.2266    2.4724    0.0000 H   0  0
   -4.9088   -0.2692    0.0000 H   0  0
   -3.6266    2.4892    0.0000 H   0  0
   -4.4893    1.9837    0.0000 H   0  0
   -3.1826   -1.2456    0.0000 H   0  0
   -0.9997   -2.5132    0.0000 H   0  0
   -0.9997    2.5132    0.0000 H   0  0
    3.0822   -0.8516    0.0000 H   0  0
    3.0698    0.8950    0.0000 H   0  0
  1  2  2  0
  2  3  1  0
  3  4  1  0
  4  5  2  0
  4  9  1  0
  5  6  1  0
  6  7  2  0
  7  8  1  0
  7 12  1  0
  8  9  2  0
  8 10  1  0
 10 11  1  0
 11 12  1  0
  1 13  1  0
  1 14  1  0
  2 15  1  0
  3 16  1  0
  3 17  1  0
  5 18  1  0
  6 19  1  0
  9 20  1  0
 11 21  1  0
 11 22  1  0
V    1 0
V    2 1
V    3 2
V    4 3
V    5 4
V    6 5
V    7 6
V    8 7
V    9 8
V   10 9
V   11 10
V   12 11
M  END
> <DSSTox_RID>
66059

> <DSSTox_CID>
1254

> <DSSTox_CID_Parent>
1254

> <DSSTox_Generic_SID>
21254

> <DSSTox_FileID>
205_TXCST2_v1a

> <STRUCTURE_Formula>
C10H10O2

> <STRUCTURE_MolecularWeight>
162.1852

> <STRUCTURE_ChemicalType>
defined organic

> <STRUCTURE_TestedForm_DefinedOrganic>
parent

> <STRUCTURE_Shown>
tested chemical

> <TestSubstance_ChemicalName>
Safrole

> <TestSubstance_CASRN>
94-59-7

> <TestSubstance_Description>
single chemical compound

> <STRUCTURE_ChemicalName_IUPAC>
5-allyl-1,3-benzodioxole

> <STRUCTURE_SMILES>
C=CCC1=CC=C2C(=C1)OCO2

> <STRUCTURE_Parent_SMILES>
C=CCC1=CC=C2C(=C1)OCO2

> <STRUCTURE_InChIS>
InChI=1S/C10H10O2/c1-2-3-8-4-5-9-10(6-8)12-7-11-9/h2,4-6H,1,3,7H2

> <STRUCTURE_InChIKey>
ZMQAAUBTXCXRIC-UHFFFAOYSA-N

> <Substance_modify_yyyymmdd>
20080429

> <Coord_Metals>
0

> <Index>
205

> <Canonical_Smiles>
C=CCc1ccc2OCOc2c1

> <Molecular_Weight>
162.18519

> <Frequency>
1

$$$$

  SciTegic          2D

 42 44  0  0  0  0            999 V2000
    1.2990   -0.7500    0.0000 C   0  0
    1.2990    0.7500    0.0000 C   0  0
    0.0000    1.5000    0.0000 C   0  0
   -1.2990    0.7500    0.0000 C   0  0
   -1.2990   -0.7500    0.0000 C   0  0
   -2.5972   -1.5031    0.0000 N   0  0
   -2.5951   -3.0039    0.0000 S   0  0
   -1.5548   -3.6021    0.0000 O   0  0
   -1.5568   -2.4023    0.0000 O   0  0
   -3.8933   -3.7570    0.0000 C   0  0
   -3.8902   -5.2570    0.0000 C   0  0
   -5.1877   -6.0097    0.0000 C   0  0
   -6.4883   -5.2624    0.0000 C   0  0
   -7.7880   -6.0128    0.0000 N   0  0
   -9.0883   -5.2632    0.0000 N   0  0
  -10.3880   -6.0136    0.0000 C   0  0
  -11.6887   -5.2663    0.0000 C   0  0
  -12.9862   -6.0190    0.0000 C   0  0
  -12.9831   -7.5190    0.0000 C   0  0
  -14.2798   -8.2747    0.0000 O   0  0
  -11.6826   -8.2663    0.0000 C   0  0
  -11.6764   -9.7671    0.0000 C   0  0
  -10.3741  -10.5131    0.0000 O   0  0
  -12.7134  -10.3711    0.0000 O   0  0
  -10.3850   -7.5137    0.0000 C   0  0
   -6.4914   -3.7624    0.0000 C   0  0
   -5.1939   -3.0097    0.0000 C   0  0
    0.0000   -1.5000    0.0000 N   0  0
    2.1651   -1.2500    0.0000 H   0  0
    2.1651    1.2500    0.0000 H   0  0
    0.0000    2.5000    0.0000 H   0  0
   -2.1651    1.2500    0.0000 H   0  0
   -3.4641   -1.0046    0.0000 H   0  0
   -3.0232   -5.7552    0.0000 H   0  0
   -5.1857   -7.0097    0.0000 H   0  0
  -11.6907   -4.2663    0.0000 H   0  0
  -13.8532   -5.5207    0.0000 H   0  0
  -14.2763   -9.2747    0.0000 H   0  0
  -10.3700  -11.5130    0.0000 H   0  0
   -9.5180   -8.0119    0.0000 H   0  0
   -7.3584   -3.2642    0.0000 H   0  0
   -5.1960   -2.0097    0.0000 H   0  0
  1  2  1  0
  1 28  2  0
  2  3  2  0
  3  4  1  0
  4  5  2  0
  5  6  1  0
  5 28  1  0
  6  7  1  0
  7  8  2  0
  7  9  2  0
  7 10  1  0
 10 11  2  0
 10 27  1  0
 11 12  1  0
 12 13  2  0
 14 13  1  0
 13 26  1  0
 14 15  2  0
 15 16  1  0
 16 17  2  0
 16 25  1  0
 17 18  1  0
 18 19  2  0
 19 20  1  0
 19 21  1  0
 21 22  1  0
 21 25  2  0
 22 23  1  0
 22 24  2  0
 26 27  2  0
  1 29  1  0
  2 30  1  0
  3 31  1  0
  4 32  1  0
  6 33  1  0
 11 34  1  0
 12 35  1  0
 17 36  1  0
 18 37  1  0
 20 38  1  0
 23 39  1  0
 25 40  1  0
 26 41  1  0
 27 42  1  0
V    1 0
V    2 1
V    3 2
V    4 3
V    5 4
V    6 5
V    7 6
V    8 7
V    9 8
V   10 9
V   11 10
V   12 11
V   13 12
V   14 13
V   15 14
V   16 15
V   17 16
V   18 17
V   19 18
V   20 19
V   21 20
V   22 21
V   23 22
V   24 23
V   25 24
V   26 25
V   27 26
V   28 27
M  END
> <DSSTox_RID>
65423

> <DSSTox_CID>
1256

> <DSSTox_CID_Parent>
1256

> <DSSTox_Generic_SID>
21256

> <DSSTox_FileID>
206_TXCST2_v1a

> <STRUCTURE_Formula>
C18H14N4O5S

> <STRUCTURE_MolecularWeight>
398.3926

> <STRUCTURE_ChemicalType>
defined organic

> <STRUCTURE_TestedForm_DefinedOrganic>
parent

> <STRUCTURE_Shown>
tested chemical

> <TestSubstance_ChemicalName>
Sulfasalazine

> <TestSubstance_CASRN>
599-79-1

> <TestSubstance_Description>
single chemical compound

> <STRUCTURE_ChemicalName_IUPAC>
2-hydroxy-5-[(E)-{4-[(pyridin-2-ylamino)sulfonyl]phenyl}diazenyl]benzoic acid

> <STRUCTURE_SMILES>
C3=CC=CC(NS(=O)(=O)C2=CC=C(N=NC1=CC=C(O)C(C(O)=O)=C1)C=C2)=N3

> <STRUCTURE_Parent_SMILES>
C3=CC=CC(NS(=O)(=O)C2=CC=C(N=NC1=CC=C(O)C(C(O)=O)=C1)C=C2)=N3

> <STRUCTURE_InChIS>
InChI=1S/C18H14N4O5S/c23-16-9-6-13(11-15(16)18(24)25)21-20-12-4-7-14(8-5-12)28(26,27)22-17-3-1-2-10-19-17/h1-11,23H,(H,19,22)(H,24,25)/b21-20+

> <STRUCTURE_InChIKey>
NCEXYHBECQHGNR-QZQOTICOSA-N

> <Substance_modify_yyyymmdd>
20080429

> <Coord_Metals>
0

> <Index>
206

> <Canonical_Smiles>
OC(=O)c1cc(ccc1O)N=Nc2ccc(cc2)S(=O)(=O)Nc3ccccn3

> <Molecular_Weight>
398.39256

> <Frequency>
1

$$$$

  SciTegic          2D

 25 25  0  0  0  0            999 V2000
    2.3383   -1.3500    0.0000 Cl  0  0
    1.2990   -0.7500    0.0000 C   0  0
    1.2990    0.7500    0.0000 N   0  0
    0.0000    1.5000    0.0000 C   0  0
   -1.2990    0.7500    0.0000 N   0  0
   -1.2990   -0.7500    0.0000 C   0  0
    0.0000   -1.5000    0.0000 N   0  0
   -2.5972   -1.5031    0.0000 N   0  0
   -2.5951   -3.0039    0.0000 C   0  0
   -3.8933   -3.7570    0.0000 C   0  0
   -0.0031    3.0008    0.0000 N   0  0
   -1.3039    3.7494    0.0000 C   0  0
   -1.3070    5.2502    0.0000 C   0  0
   -3.4641   -1.0046    0.0000 H   0  0
   -1.7299   -2.5025    0.0000 H   0  0
   -1.7282   -3.5024    0.0000 H   0  0
   -3.8919   -4.7570    0.0000 H   0  0
   -4.7585   -4.2584    0.0000 H   0  0
   -4.7602   -3.2585    0.0000 H   0  0
    0.8620    3.5023    0.0000 H   0  0
   -1.3023    2.7494    0.0000 H   0  0
   -2.1691    3.2479    0.0000 H   0  0
   -2.1738    5.7490    0.0000 H   0  0
   -1.3086    6.2502    0.0000 H   0  0
   -0.4419    5.7517    0.0000 H   0  0
  1  2  1  0
  2  3  2  0
  2  7  1  0
  3  4  1  0
  4  5  2  0
  4 11  1  0
  5  6  1  0
  6  7  2  0
  6  8  1  0
  8  9  1  0
  9 10  1  0
 11 12  1  0
 12 13  1  0
  8 14  1  0
  9 15  1  0
  9 16  1  0
 10 17  1  0
 10 18  1  0
 10 19  1  0
 11 20  1  0
 12 21  1  0
 12 22  1  0
 13 23  1  0
 13 24  1  0
 13 25  1  0
V    1 0
V    2 1
V    3 2
V    4 3
V    5 4
V    6 5
V    7 6
V    8 7
V    9 8
V   10 9
V   11 10
V   12 11
V   13 12
M  END
> <DSSTox_RID>
60336

> <DSSTox_CID>
1268

> <DSSTox_CID_Parent>
1268

> <DSSTox_Generic_SID>
21268

> <DSSTox_FileID>
207_TXCST2_v1a

> <STRUCTURE_Formula>
C7H12ClN5

> <STRUCTURE_MolecularWeight>
201.6567

> <STRUCTURE_ChemicalType>
defined organic

> <STRUCTURE_TestedForm_DefinedOrganic>
parent

> <STRUCTURE_Shown>
tested chemical

> <TestSubstance_ChemicalName>
Simazine

> <TestSubstance_CASRN>
122-34-9

> <TestSubstance_Description>
single chemical compound

> <Source_ChemicalNote>
tested chemical contained 0.5% water (0.06 moles H2O)

> <STRUCTURE_ChemicalName_IUPAC>
6-chloro-N,N'-diethyl-1,3,5-triazine-2,4-diamine

> <STRUCTURE_SMILES>
ClC1=NC(=NC(=N1)NCC)NCC

> <STRUCTURE_Parent_SMILES>
ClC1=NC(=NC(=N1)NCC)NCC

> <STRUCTURE_InChIS>
InChI=1S/C7H12ClN5/c1-3-9-6-11-5(8)12-7(13-6)10-4-2/h3-4H2,1-2H3,(H2,9,10,11,12,13)

> <STRUCTURE_InChIKey>
ODCWYMIRDDJXKW-UHFFFAOYSA-N

> <Substance_modify_yyyymmdd>
20080429

> <Coord_Metals>
0

> <Index>
207

> <Canonical_Smiles>
CCNc1nc(Cl)nc(NCC)n1

> <Molecular_Weight>
201.65667

> <Frequency>
1

$$$$

  SciTegic          2D

 16 15  0  0  0  0            999 V2000
    1.3000    0.7500    0.0000 O   0  0
    2.6000    0.0000    0.0000 C   0  0
    2.6000   -1.2000    0.0000 O   0  0
    3.9000    0.7500    0.0000 C   0  0
    5.2000    0.0000    0.0000 C   0  0
    6.5000    0.7500    0.0000 C   0  0
    7.7999    0.0000    0.0000 C   0  0
    9.0999    0.7500    0.0000 C   0  0
    0.4338    0.2503    0.0000 H   0  0
    3.9000    1.7500    0.0000 H   0  0
    5.2000   -1.0000    0.0000 H   0  0
    6.5000    1.7500    0.0000 H   0  0
    7.7999   -1.0000    0.0000 H   0  0
    9.9661    0.2503    0.0000 H   0  0
    9.9659    1.2501    0.0000 H   0  0
    9.0999    1.7500    0.0000 H   0  0
  1  2  1  0
  2  3  2  0
  4  2  1  0
  4  5  2  0
  5  6  1  0
  6  7  2  0
  7  8  1  0
  1  9  1  0
  4 10  1  0
  5 11  1  0
  6 12  1  0
  7 13  1  0
  8 14  1  0
  8 15  1  0
  8 16  1  0
V    1 0
V    2 1
V    3 2
V    4 3
V    5 4
V    6 5
V    7 6
V    8 7
M  END
> <DSSTox_RID>
60338

> <DSSTox_CID>
1277

> <DSSTox_CID_Parent>
1277

> <DSSTox_Generic_SID>
21277

> <DSSTox_FileID>
208_TXCST2_v1a

> <STRUCTURE_Formula>
C6H8O2

> <STRUCTURE_MolecularWeight>
112.1265

> <STRUCTURE_ChemicalType>
defined organic

> <STRUCTURE_TestedForm_DefinedOrganic>
parent

> <STRUCTURE_Shown>
tested chemical

> <TestSubstance_ChemicalName>
Sorbic acid

> <TestSubstance_CASRN>
110-44-1

> <TestSubstance_Description>
single chemical compound

> <ChemicalNote>
stereochem

> <STRUCTURE_ChemicalName_IUPAC>
(2E,4E)-hexa-2,4-dienoic acid

> <STRUCTURE_SMILES>
OC(=O)C=CC=CC

> <STRUCTURE_Parent_SMILES>
OC(=O)C=CC=CC

> <STRUCTURE_InChIS>
InChI=1S/C6H8O2/c1-2-3-4-5-6(7)8/h2-5H,1H3,(H,7,8)/b3-2+,5-4+

> <STRUCTURE_InChIKey>
WSWCOQWTEOXDQX-MQQKCMAXSA-N

> <Substance_modify_yyyymmdd>
20080429

> <Coord_Metals>
0

> <Index>
208

> <Canonical_Smiles>
CC=CC=CC(=O)O

> <Molecular_Weight>
112.12652

> <Frequency>
1

$$$$

  SciTegic          2D

 17 18  0  0  0  0            999 V2000
    3.9834   -1.5686    0.0000 C   0  0
    2.5987   -1.5006    0.0000 C   0  0
    1.2990   -0.7500    0.0000 C   0  0
    1.2990    0.7500    0.0000 C   0  0
    0.0000    1.5000    0.0000 C   0  0
   -1.2990    0.7500    0.0000 C   0  0
   -1.2990   -0.7500    0.0000 C   0  0
    0.0000   -1.5000    0.0000 C   0  0
    3.2349   -0.2687    0.0000 O   0  0
    3.9712   -2.5685    0.0000 H   0  0
    4.8680   -1.1021    0.0000 H   0  0
    2.5966   -2.5006    0.0000 H   0  0
    2.1651    1.2500    0.0000 H   0  0
    0.0000    2.5000    0.0000 H   0  0
   -2.1651    1.2500    0.0000 H   0  0
   -2.1651   -1.2500    0.0000 H   0  0
    0.0000   -2.5000    0.0000 H   0  0
  1  2  1  0
  1  9  1  0
  2  3  1  0
  2  9  1  0
  3  4  2  0
  3  8  1  0
  4  5  1  0
  5  6  2  0
  6  7  1  0
  7  8  2  0
  1 10  1  0
  1 11  1  0
  2 12  1  0
  4 13  1  0
  5 14  1  0
  6 15  1  0
  7 16  1  0
  8 17  1  0
V    1 0
V    2 1
V    3 2
V    4 3
V    5 4
V    6 5
V    7 6
V    8 7
V    9 8
M  END
> <DSSTox_RID>
60341

> <DSSTox_CID>
1286

> <DSSTox_CID_Parent>
1286

> <DSSTox_Generic_SID>
21286

> <DSSTox_FileID>
209_TXCST2_v1a

> <STRUCTURE_Formula>
C8H8O

> <STRUCTURE_MolecularWeight>
120.1485

> <STRUCTURE_ChemicalType>
defined organic

> <STRUCTURE_TestedForm_DefinedOrganic>
parent

> <STRUCTURE_Shown>
tested chemical

> <TestSubstance_ChemicalName>
Styrene oxide

> <TestSubstance_CASRN>
96-09-3

> <TestSubstance_Description>
single chemical compound

> <STRUCTURE_ChemicalName_IUPAC>
2-phenyloxirane

> <STRUCTURE_SMILES>
C1C(C2=CC=CC=C2)O1

> <STRUCTURE_Parent_SMILES>
C1C(C2=CC=CC=C2)O1

> <STRUCTURE_InChIS>
InChI=1S/C8H8O/c1-2-4-7(5-3-1)8-6-9-8/h1-5,8H,6H2

> <STRUCTURE_InChIKey>
AWMVMTVKBNGEAK-UHFFFAOYSA-N

> <Substance_modify_yyyymmdd>
20080429

> <Coord_Metals>
0

> <Index>
209

> <Canonical_Smiles>
C1OC1c2ccccc2

> <Molecular_Weight>
120.14852

> <Frequency>
1

$$$$

  SciTegic          2D

 45 46  0  0  0  0            999 V2000
    2.5238   -3.0442    0.0000 C   0  0
    1.2990   -0.7500    0.0000 C   0  0
    1.2710   -3.8008    0.0000 C   0  0
    1.2990    0.7500    0.0000 C   0  0
    3.6951   -3.9217    0.0000 O   0  0
    1.2626   -2.2300    0.0000 O   0  0
    0.0000    1.5000    0.0000 C   0  0
    0.0000   -1.5000    0.0000 O   0  0
    1.6629   -5.2487    0.0000 C   0  0
   -1.2990    0.7500    0.0000 C   0  0
    3.1611   -5.3234    0.0000 C   0  0
   -1.2990   -0.7500    0.0000 C   0  0
    3.8594   -2.3597    0.0000 C   0  0
    0.1137   -4.7371    0.0000 O   0  0
    1.2626    2.2300    0.0000 O   0  0
   -1.2999    2.2084    0.0000 O   0  0
    2.2216   -6.6273    0.0000 O   0  0
   -2.5625   -0.0216    0.0000 O   0  0
    4.6448   -5.2181    0.0000 C   0  0
   -1.2626   -2.2300    0.0000 C   0  0
    5.1206   -3.1733    0.0000 O   0  0
    5.3233   -3.8794    0.0000 O   0  0
    0.0369   -2.9809    0.0000 O   0  0
    2.1526   -0.2289    0.0000 H   0  0
    1.1438   -2.8089    0.0000 H   0  0
    0.4210    0.2714    0.0000 H   0  0
    0.8780    1.9786    0.0000 H   0  0
    0.6774   -5.0791    0.0000 H   0  0
   -0.4455    0.2289    0.0000 H   0  0
    2.6952   -6.2083    0.0000 H   0  0
   -2.1526   -0.2290    0.0000 H   0  0
    3.9091   -1.3609    0.0000 H   0  0
    4.7492   -1.9032    0.0000 H   0  0
    0.2549   -5.7271    0.0000 H   0  0
    0.3968    2.7304    0.0000 H   0  0
   -2.1662    1.7088    0.0000 H   0  0
    3.2097   -6.7816    0.0000 H   0  0
   -2.5629   -1.0216    0.0000 H   0  0
    5.6433   -5.1635    0.0000 H   0  0
    5.1915   -6.0554    0.0000 H   0  0
   -1.2628   -3.2300    0.0000 H   0  0
   -2.1287   -2.7299    0.0000 H   0  0
    6.0105   -2.7172    0.0000 H   0  0
    6.3218   -3.8243    0.0000 H   0  0
    0.0371   -3.9809    0.0000 H   0  0
  1  3  1  0
  1  5  1  0
  1  6  1  0
  1 13  1  0
  2  6  1  0
  2  4  1  0
  2  8  1  0
  3  9  1  0
  3 14  1  0
  4  7  1  0
  4 15  1  0
  5 11  1  0
  7 16  1  0
  7 10  1  0
  8 12  1  0
  9 17  1  0
  9 11  1  0
 10 12  1  0
 10 18  1  0
 11 19  1  0
 12 20  1  0
 13 21  1  0
 19 22  1  0
 20 23  1  0
  2 24  1  0
  3 25  1  0
  4 26  1  0
  7 27  1  0
  9 28  1  0
 10 29  1  0
 11 30  1  0
 12 31  1  0
 13 32  1  0
 13 33  1  0
 14 34  1  0
 15 35  1  0
 16 36  1  0
 17 37  1  0
 18 38  1  0
 19 39  1  0
 19 40  1  0
 20 41  1  0
 20 42  1  0
 21 43  1  0
 22 44  1  0
 23 45  1  0
V    1 0
V    2 1
V    3 2
V    4 3
V    5 4
V    6 5
V    7 6
V    8 7
V    9 8
V   10 9
V   11 10
V   12 11
V   13 12
V   14 13
V   15 14
V   16 15
V   17 16
V   18 17
V   19 18
V   20 19
V   21 20
V   22 21
V   23 22
M  END
> <DSSTox_RID>
66093

> <DSSTox_CID>
1288

> <DSSTox_CID_Parent>
1288

> <DSSTox_Generic_SID>
21288

> <DSSTox_FileID>
210_TXCST2_v1a

> <STRUCTURE_Formula>
C12H22O11

> <STRUCTURE_MolecularWeight>
342.2965

> <STRUCTURE_ChemicalType>
defined organic

> <STRUCTURE_TestedForm_DefinedOrganic>
parent

> <STRUCTURE_Shown>
tested chemical

> <TestSubstance_ChemicalName>
Sucrose

> <TestSubstance_CASRN>
57-50-1

> <TestSubstance_Description>
single chemical compound

> <ChemicalNote>
stereochem

> <STRUCTURE_ChemicalName_IUPAC>
beta-D-fructofuranosyl alpha-D-glucopyranoside

> <STRUCTURE_SMILES>
O[C@H]1[C@H](O[C@H](CO)[C@@H](O)[C@@H]1O)O[C@]2(CO)O[C@H](CO)[C@@H](O)[C@@H]2O

> <STRUCTURE_Parent_SMILES>
O[C@H]1[C@H](O[C@H](CO)[C@@H](O)[C@@H]1O)O[C@]2(CO)O[C@H](CO)[C@@H](O)[C@@H]2O

> <STRUCTURE_InChIS>
InChI=1S/C12H22O11/c13-1-4-6(16)8(18)9(19)11(21-4)23-12(3-15)10(20)7(17)5(2-14)22-12/h4-11,13-20H,1-3H2/t4-,5-,6-,7-,8+,9-,10+,11-,12+/m1/s1

> <STRUCTURE_InChIKey>
CZMRCDWAGMRECN-UGDNZRGBSA-N

> <Substance_modify_yyyymmdd>
20080429

> <Coord_Metals>
0

> <Index>
210

> <Canonical_Smiles>
OCC1OC(OC2(CO)OC(CO)C(O)C2O)C(O)C(O)C1O

> <Molecular_Weight>
342.29648

> <Frequency>
1

$$$$

  SciTegic          2D

 57 59  0  0  0  0            999 V2000
    3.8994   -0.5965    0.0000 C   0  0
    4.8610   -1.7488    0.0000 C   0  0
    4.4156    0.8127    0.0000 C   0  0
    2.4208   -0.8536    0.0000 C   0  0
    4.3448   -3.1581    0.0000 C   0  0
    5.7147    1.5627    0.0000 C   0  0
    3.1166    1.5627    0.0000 C   0  0
    7.0234    8.3115    0.0000 N   0  0
    4.4156    3.8127    0.0000 C   0  0
    5.7146    3.0627    0.0000 C   0  0
    3.1166    3.0627    0.0000 C   0  0
    6.3391   -1.4887    0.0000 C   0  0
    4.4187    5.3136    0.0000 O   0  0
    5.7195    6.0621    0.0000 C   0  0
    5.7226    7.5630    0.0000 C   0  0
    5.8210   -3.4247    0.0000 C   0  0
    3.3759   -4.3033    0.0000 C   0  0
    2.4151   -2.3537    0.0000 C   0  0
    1.1245   -0.0989    0.0000 C   0  0
    7.0265    9.8123    0.0000 C   0  0
    8.3234    7.5615    0.0000 C   0  0
    7.3042   -2.6381    0.0000 C   0  0
   -0.1773   -0.8440    0.0000 C   0  0
    6.3282   -4.8363    0.0000 C   0  0
    3.8832   -5.7149    0.0000 C   0  0
    1.1133   -3.0988    0.0000 C   0  0
    5.3593   -5.9814    0.0000 C   0  0
   -0.1829   -2.3440    0.0000 C   0  0
    6.5807    1.0627    0.0000 H   0  0
    2.2505    1.0627    0.0000 H   0  0
    6.5807    3.5628    0.0000 H   0  0
    2.2505    3.5627    0.0000 H   0  0
    5.6965   -0.7225    0.0000 H   0  0
    6.6812   -0.5490    0.0000 H   0  0
    5.7179    5.0621    0.0000 H   0  0
    6.5847    5.5606    0.0000 H   0  0
    5.7242    8.5630    0.0000 H   0  0
    4.8574    8.0645    0.0000 H   0  0
    6.4669   -2.6613    0.0000 H   0  0
    2.3919   -4.1256    0.0000 H   0  0
    3.2793   -2.8570    0.0000 H   0  0
    1.1282    0.9011    0.0000 H   0  0
    7.8932   10.3111    0.0000 H   0  0
    7.0281   10.8123    0.0000 H   0  0
    6.1613   10.3138    0.0000 H   0  0
    9.1896    8.0613    0.0000 H   0  0
    9.1894    7.0614    0.0000 H   0  0
    8.3234    6.5615    0.0000 H   0  0
    8.2891   -2.4647    0.0000 H   0  0
    7.9469   -3.4042    0.0000 H   0  0
    6.9622   -3.5777    0.0000 H   0  0
   -1.0415   -0.3408    0.0000 H   0  0
    7.3123   -5.0140    0.0000 H   0  0
    3.2373   -6.4783    0.0000 H   0  0
    1.1096   -4.0988    0.0000 H   0  0
    5.6975   -6.9225    0.0000 H   0  0
   -1.0508   -2.8407    0.0000 H   0  0
  1  2  2  0
  1  3  1  0
  1  4  1  0
  2  5  1  0
  2 12  1  0
  3  6  1  0
  3  7  2  0
  4 18  2  0
  4 19  1  0
  5 16  1  0
  5 17  2  0
  6 10  2  0
  7 11  1  0
  8 15  1  0
  8 20  1  0
  8 21  1  0
  9 11  2  0
  9 13  1  0
  9 10  1  0
 12 22  1  0
 13 14  1  0
 14 15  1  0
 16 24  2  0
 17 25  1  0
 18 26  1  0
 19 23  2  0
 23 28  1  0
 24 27  1  0
 25 27  2  0
 26 28  2  0
  6 29  1  0
  7 30  1  0
 10 31  1  0
 11 32  1  0
 12 33  1  0
 12 34  1  0
 14 35  1  0
 14 36  1  0
 15 37  1  0
 15 38  1  0
 16 39  1  0
 17 40  1  0
 18 41  1  0
 19 42  1  0
 20 43  1  0
 20 44  1  0
 20 45  1  0
 21 46  1  0
 21 47  1  0
 21 48  1  0
 22 49  1  0
 22 50  1  0
 22 51  1  0
 23 52  1  0
 24 53  1  0
 25 54  1  0
 26 55  1  0
 27 56  1  0
 28 57  1  0
V    1 0
V    2 1
V    3 2
V    4 3
V    5 4
V    6 5
V    7 6
V    8 7
V    9 8
V   10 9
V   11 10
V   12 11
V   13 12
V   14 13
V   15 14
V   16 15
V   17 16
V   18 17
V   19 18
V   20 19
V   21 20
V   22 21
V   23 22
V   24 23
V   25 24
V   26 25
V   27 26
V   28 27
M  END
> <DSSTox_RID>
59536
62302

> <DSSTox_CID>
1301
14187

> <DSSTox_CID_Parent>
14187
14187

> <DSSTox_Generic_SID>
21301
34187

> <DSSTox_FileID>
211_TXCST2_v1a
702_TXCST2_v1a

> <STRUCTURE_Formula>
C32H37NO8
C26H29NO

> <STRUCTURE_MolecularWeight>
563.6381
371.5146

> <STRUCTURE_ChemicalType>
defined organic
defined organic

> <STRUCTURE_TestedForm_DefinedOrganic>
complex citric acid (C6H8O7)
parent

> <STRUCTURE_Shown>
tested chemical
tested chemical

> <TestSubstance_ChemicalName>
Tamoxifen citrate
Tamoxifen

> <TestSubstance_CASRN>
54965-24-1
10540-29-1

> <TestSubstance_Description>
single chemical compound
single chemical compound

> <ChemicalNote>
stereochem; parent [10540-29-1]
stereochem

> <STRUCTURE_ChemicalName_IUPAC>
2-{4-[(1Z)-1,2-diphenylbut-1-en-1-yl]phenoxy}-N,N-dimethylethanamine 2-hydroxypropane-1,2,3-tricarboxylate (salt)
2-{4-[(1Z)-1,2-diphenylbut-1-en-1-yl]phenoxy}-N,N-dimethylethanamine

> <STRUCTURE_SMILES>
CC/C(C2=CC=CC=C2)=C(C1=CC=CC=C1)/C(C=C3)=CC=C3OCCN(C)C.OC(C(CC(O)=O)(O)CC(O)=O)=O
CN(C)CCOC3=CC=C(C=C3)\C(C2=CC=CC=C2)=C(CC)/C1=CC=CC=C1

> <STRUCTURE_Parent_SMILES>
CN(C)CCOC3=CC=C(C=C3)\C(C2=CC=CC=C2)=C(CC)/C1=CC=CC=C1
CN(C)CCOC3=CC=C(C=C3)\C(C2=CC=CC=C2)=C(CC)/C1=CC=CC=C1

> <STRUCTURE_InChIS>
InChI=1S/C26H29NO.C6H8O7/c1-4-25(21-11-7-5-8-12-21)26(22-13-9-6-10-14-22)23-15-17-24(18-16-23)28-20-19-27(2)3;7-3(8)1-6(13,5(11)12)2-4(9)10/h5-18H,4,19-20H2,1-3H3;13H,1-2H2,(H,7,8)(H,9,10)(H,11,12)/b2
6-25-;
InChI=1S/C26H29NO/c1-4-25(21-11-7-5-8-12-21)26(22-13-9-6-10-14-22)23-15-17-24(18-16-23)28-20-19-27(2)3/h5-18H,4,19-20H2,1-3H3/b26-25-

> <STRUCTURE_InChIKey>
FQZYTYWMLGAPFJ-OQKDUQJOSA-N
NKANXQFJJICGDU-QPLCGJKRSA-N

> <Substance_modify_yyyymmdd>
20080429
20080429

> <Coord_Metals>
0
0

> <Index>
211
702

> <Canonical_Smiles>
CCC(=C(c1ccccc1)c2ccc(OCCN(C)C)cc2)c3ccccc3

> <Molecular_Weight>
371.51456
371.51456

> <Frequency>
2

$$$$

  SciTegic          2D

 49 49  0  0  0  0            999 V2000
    2.5973   -1.5031    0.0000 O   0  0
    1.2990   -0.7500    0.0000 C   0  0
    1.2990    0.7500    0.0000 C   0  0
    0.0000    1.5000    0.0000 C   0  0
   -1.2990    0.7500    0.0000 C   0  0
   -1.2990   -0.7500    0.0000 C   0  0
    0.0000   -1.5000    0.0000 C   0  0
    0.0000   -3.0008    0.0000 C   0  0
   -1.2993   -3.7521    0.0000 C   0  0
    1.2999   -3.7508    0.0000 C   0  0
   -1.3238   -2.2338    0.0000 C   0  0
   -2.7771    1.0106    0.0000 C   0  0
   -3.2913    2.4206    0.0000 C   0  0
   -3.7414   -0.1393    0.0000 C   0  0
   -1.7918    2.1811    0.0000 C   0  0
    2.2637    1.8997    0.0000 C   0  0
    3.7419    1.6400    0.0000 C   0  0
    1.7500    3.3098    0.0000 C   0  0
    2.7848    0.4612    0.0000 C   0  0
    2.5958   -2.5031    0.0000 H   0  0
    0.0000    2.5000    0.0000 H   0  0
   -2.1651   -1.2500    0.0000 H   0  0
   -1.2993   -4.7521    0.0000 H   0  0
   -2.1655   -3.2523    0.0000 H   0  0
   -2.1652   -4.2522    0.0000 H   0  0
    1.3009   -4.7508    0.0000 H   0  0
    2.1656   -3.2502    0.0000 H   0  0
    2.1664   -4.2501    0.0000 H   0  0
   -1.3228   -1.2338    0.0000 H   0  0
   -2.1893   -1.7328    0.0000 H   0  0
   -2.1904   -2.7327    0.0000 H   0  0
   -4.2761    2.5942    0.0000 H   0  0
   -2.6487    3.1868    0.0000 H   0  0
   -3.6335    3.3602    0.0000 H   0  0
   -4.7263    0.0334    0.0000 H   0  0
   -3.3987   -1.0788    0.0000 H   0  0
   -4.3835   -0.9059    0.0000 H   0  0
   -0.8072    2.0065    0.0000 H   0  0
   -1.1482    2.9464    0.0000 H   0  0
   -2.1327    3.1212    0.0000 H   0  0
    4.3847    2.4061    0.0000 H   0  0
    4.0843    0.7005    0.0000 H   0  0
    4.7268    1.4666    0.0000 H   0  0
    2.3920    4.0764    0.0000 H   0  0
    0.7651    3.4828    0.0000 H   0  0
    1.4072    4.2492    0.0000 H   0  0
    2.1413   -0.3042    0.0000 H   0  0
    3.1258   -0.4789    0.0000 H   0  0
    3.7694    0.2863    0.0000 H   0  0
  1  2  1  0
  2  3  2  0
  2  7  1  0
  3  4  1  0
  3 16  1  0
  4  5  2  0
  5  6  1  0
  5 12  1  0
  6  7  2  0
  7  8  1  0
  8  9  1  0
  8 10  1  0
  8 11  1  0
 12 13  1  0
 12 14  1  0
 12 15  1  0
 16 17  1  0
 16 18  1  0
 16 19  1  0
  1 20  1  0
  4 21  1  0
  6 22  1  0
  9 23  1  0
  9 24  1  0
  9 25  1  0
 10 26  1  0
 10 27  1  0
 10 28  1  0
 11 29  1  0
 11 30  1  0
 11 31  1  0
 13 32  1  0
 13 33  1  0
 13 34  1  0
 14 35  1  0
 14 36  1  0
 14 37  1  0
 15 38  1  0
 15 39  1  0
 15 40  1  0
 17 41  1  0
 17 42  1  0
 17 43  1  0
 18 44  1  0
 18 45  1  0
 18 46  1  0
 19 47  1  0
 19 48  1  0
 19 49  1  0
V    1 0
V    2 1
V    3 2
V    4 3
V    5 4
V    6 5
V    7 6
V    8 7
V    9 8
V   10 9
V   11 10
V   12 11
V   13 12
V   14 13
V   15 14
V   16 15
V   17 16
V   18 17
V   19 18
M  END
> <DSSTox_RID>
59920

> <DSSTox_CID>
1311

> <DSSTox_CID_Parent>
1311

> <DSSTox_Generic_SID>
21311

> <DSSTox_FileID>
212_TXCST2_v1a

> <STRUCTURE_Formula>
C18H30O

> <STRUCTURE_MolecularWeight>
262.4302

> <STRUCTURE_ChemicalType>
defined organic

> <STRUCTURE_TestedForm_DefinedOrganic>
parent

> <STRUCTURE_Shown>
tested chemical

> <TestSubstance_ChemicalName>
2,4,6-Tris(tert-butyl)phenol

> <TestSubstance_CASRN>
732-26-3

> <TestSubstance_Description>
single chemical compound

> <STRUCTURE_ChemicalName_IUPAC>
2,4,6-tris(1,1-dimethylethyl)phenol

> <STRUCTURE_SMILES>
OC1=C(C=C(C=C1C(C)(C)C)C(C)(C)C)C(C)(C)C

> <STRUCTURE_Parent_SMILES>
OC1=C(C=C(C=C1C(C)(C)C)C(C)(C)C)C(C)(C)C

> <STRUCTURE_InChIS>
InChI=1S/C18H30O/c1-16(2,3)12-10-13(17(4,5)6)15(19)14(11-12)18(7,8)9/h10-11,19H,1-9H3

> <STRUCTURE_InChIKey>
PFEFOYRSMXVNEL-UHFFFAOYSA-N

> <Substance_modify_yyyymmdd>
20080429

> <Coord_Metals>
0

> <Index>
212

> <Canonical_Smiles>
CC(C)(C)c1cc(c(O)c(c1)C(C)(C)C)C(C)(C)C

> <Molecular_Weight>
262.43019

> <Frequency>
1

$$$$

  SciTegic          2D

 36 35  0  0  0  0            999 V2000
    5.2000   -1.2000    0.0000 S   0  0
    5.2000    0.0000    0.0000 C   0  0
    3.9000    0.7500    0.0000 N   0  0
    2.6000    0.0000    0.0000 C   0  0
    1.3000    0.7500    0.0000 C   0  0
    3.9031    2.2508    0.0000 C   0  0
    5.2039    2.9994    0.0000 C   0  0
    6.5000    0.7500    0.0000 S   0  0
    7.7999    0.0000    0.0000 S   0  0
    9.0999    0.7500    0.0000 C   0  0
    9.0999    1.9500    0.0000 S   0  0
   10.3999    0.0000    0.0000 N   0  0
   11.6999    0.7500    0.0000 C   0  0
   12.9999    0.0000    0.0000 C   0  0
   10.3968   -1.5008    0.0000 C   0  0
    9.0960   -2.2494    0.0000 C   0  0
    2.6000   -1.0000    0.0000 H   0  0
    3.4659   -0.5001    0.0000 H   0  0
    0.4338    0.2503    0.0000 H   0  0
    1.3000    1.7500    0.0000 H   0  0
    0.4340    1.2501    0.0000 H   0  0
    3.0379    2.7523    0.0000 H   0  0
    3.0361    1.7525    0.0000 H   0  0
    5.2059    3.9994    0.0000 H   0  0
    6.0690    2.4979    0.0000 H   0  0
    6.0708    3.4977    0.0000 H   0  0
   11.6999    1.7500    0.0000 H   0  0
   10.8340    1.2501    0.0000 H   0  0
   13.8661    0.4997    0.0000 H   0  0
   12.9999   -1.0000    0.0000 H   0  0
   13.8658   -0.5001    0.0000 H   0  0
   11.2638   -1.0025    0.0000 H   0  0
   11.2620   -2.0023    0.0000 H   0  0
    9.0940   -3.2494    0.0000 H   0  0
    8.2290   -2.7477    0.0000 H   0  0
    8.2309   -1.7479    0.0000 H   0  0
  1  2  2  0
  2  3  1  0
  2  8  1  0
  3  4  1  0
  3  6  1  0
  4  5  1  0
  6  7  1  0
  8  9  1  0
  9 10  1  0
 10 11  2  0
 10 12  1  0
 12 13  1  0
 12 15  1  0
 13 14  1  0
 15 16  1  0
  4 17  1  0
  4 18  1  0
  5 19  1  0
  5 20  1  0
  5 21  1  0
  6 22  1  0
  6 23  1  0
  7 24  1  0
  7 25  1  0
  7 26  1  0
 13 27  1  0
 13 28  1  0
 14 29  1  0
 14 30  1  0
 14 31  1  0
 15 32  1  0
 15 33  1  0
 16 34  1  0
 16 35  1  0
 16 36  1  0
V    1 0
V    2 1
V    3 2
V    4 3
V    5 4
V    6 5
V    7 6
V    8 7
V    9 8
V   10 9
V   11 10
V   12 11
V   13 12
V   14 13
V   15 14
V   16 15
M  END
> <DSSTox_RID>
65474

> <DSSTox_CID>
1322

> <DSSTox_CID_Parent>
1322

> <DSSTox_Generic_SID>
21322

> <DSSTox_FileID>
213_TXCST2_v1a

> <STRUCTURE_Formula>
C10H20N2S4

> <STRUCTURE_MolecularWeight>
296.5392

> <STRUCTURE_ChemicalType>
defined organic

> <STRUCTURE_TestedForm_DefinedOrganic>
parent

> <STRUCTURE_Shown>
tested chemical

> <TestSubstance_ChemicalName>
Disulfiram

> <TestSubstance_CASRN>
97-77-8

> <TestSubstance_Description>
single chemical compound

> <STRUCTURE_ChemicalName_IUPAC>
1,1',1'',1'''-[dithiobis(carbonothioylnitrilo)]tetraethane

> <STRUCTURE_SMILES>
S=C(N(CC)CC)SSC(=S)N(CC)CC

> <STRUCTURE_Parent_SMILES>
S=C(N(CC)CC)SSC(=S)N(CC)CC

> <STRUCTURE_InChIS>
InChI=1S/C10H20N2S4/c1-5-11(6-2)9(13)15-16-10(14)12(7-3)8-4/h5-8H2,1-4H3

> <STRUCTURE_InChIKey>
AUZONCFQVSMFAP-UHFFFAOYSA-N

> <Substance_modify_yyyymmdd>
20080429

> <Coord_Metals>
0

> <Index>
213

> <Canonical_Smiles>
CCN(CC)C(=S)SSC(=S)N(CC)CC

> <Molecular_Weight>
296.5392

> <Frequency>
1

$$$$

  SciTegic          2D

 24 23  0  0  0  0            999 V2000
    3.9000    1.9500    0.0000 S   0  0
    3.9000    0.7500    0.0000 C   0  0
    2.6000    0.0000    0.0000 N   0  0
    1.3000    0.7500    0.0000 C   0  0
    2.6031   -1.5008    0.0000 C   0  0
    5.2000    0.0000    0.0000 S   0  0
    6.5000    0.7500    0.0000 S   0  0
    7.7999    0.0000    0.0000 C   0  0
    7.7999   -1.2000    0.0000 S   0  0
    9.0999    0.7500    0.0000 N   0  0
   10.3999    0.0000    0.0000 C   0  0
    9.0968    2.2508    0.0000 C   0  0
    0.4338    0.2503    0.0000 H   0  0
    1.3000    1.7500    0.0000 H   0  0
    0.4340    1.2501    0.0000 H   0  0
    3.4698   -1.9996    0.0000 H   0  0
    2.6046   -2.5008    0.0000 H   0  0
    1.7379   -2.0023    0.0000 H   0  0
   11.2661    0.4997    0.0000 H   0  0
   10.3999   -1.0000    0.0000 H   0  0
   11.2659   -0.5001    0.0000 H   0  0
    8.2301    2.7496    0.0000 H   0  0
    9.0953    3.2508    0.0000 H   0  0
    9.9620    2.7523    0.0000 H   0  0
  1  2  2  0
  2  3  1  0
  2  6  1  0
  3  4  1  0
  3  5  1  0
  6  7  1  0
  7  8  1  0
  8  9  2  0
  8 10  1  0
 10 11  1  0
 10 12  1  0
  4 13  1  0
  4 14  1  0
  4 15  1  0
  5 16  1  0
  5 17  1  0
  5 18  1  0
 11 19  1  0
 11 20  1  0
 11 21  1  0
 12 22  1  0
 12 23  1  0
 12 24  1  0
V    1 0
V    2 1
V    3 2
V    4 3
V    5 4
V    6 5
V    7 6
V    8 7
V    9 8
V   10 9
V   11 10
V   12 11
M  END
> <DSSTox_RID>
60379

> <DSSTox_CID>
1332

> <DSSTox_CID_Parent>
1332

> <DSSTox_Generic_SID>
21332

> <DSSTox_FileID>
214_TXCST2_v1a

> <STRUCTURE_Formula>
C6H12N2S4

> <STRUCTURE_MolecularWeight>
240.4329

> <STRUCTURE_ChemicalType>
defined organic

> <STRUCTURE_TestedForm_DefinedOrganic>
parent

> <STRUCTURE_Shown>
tested chemical

> <TestSubstance_ChemicalName>
Thiram

> <TestSubstance_CASRN>
137-26-8

> <TestSubstance_Description>
single chemical compound

> <STRUCTURE_ChemicalName_IUPAC>
[dithiobis(carbonothioylnitrilo)]tetramethane

> <STRUCTURE_SMILES>
S=C(N(C)C)SSC(=S)N(C)C

> <STRUCTURE_Parent_SMILES>
S=C(N(C)C)SSC(=S)N(C)C

> <STRUCTURE_InChIS>
InChI=1S/C6H12N2S4/c1-7(2)5(9)11-12-6(10)8(3)4/h1-4H3

> <STRUCTURE_InChIKey>
KUAZQDVKQLNFPE-UHFFFAOYSA-N

> <Substance_modify_yyyymmdd>
20080429

> <Coord_Metals>
0

> <Index>
214

> <Canonical_Smiles>
CN(C)C(=S)SSC(=S)N(C)C

> <Molecular_Weight>
240.43287

> <Frequency>
1

$$$$

  SciTegic          2D

 21 22  0  0  0  0            999 V2000
   -1.0028   -1.5132    0.0000 N   0  0
    0.2917   -0.7475    0.0000 C   0  0
   -2.3155    0.7475    0.0000 N   0  0
   -2.3155   -0.7475    0.0000 C   0  0
    0.2917    0.7475    0.0000 C   0  0
   -1.0028    1.5132    0.0000 C   0  0
    1.7138   -1.2033    0.0000 N   0  0
    1.7138    1.2033    0.0000 N   0  0
    2.5889    0.0182    0.0000 C   0  0
   -3.3560   -1.3452    0.0000 O   0  0
   -0.9991    2.7132    0.0000 O   0  0
   -0.9940   -3.0137    0.0000 C   0  0
   -3.6202    1.4892    0.0000 C   0  0
    2.0279   -2.1527    0.0000 H   0  0
    3.5889    0.0254    0.0000 H   0  0
   -0.1254   -3.5092    0.0000 H   0  0
   -1.8573   -3.5185    0.0000 H   0  0
   -0.9886   -4.0137    0.0000 H   0  0
   -4.4831    0.9839    0.0000 H   0  0
   -3.6266    2.4892    0.0000 H   0  0
   -4.4893    1.9837    0.0000 H   0  0
  1  2  1  0
  1  4  1  0
  1 12  1  0
  2  5  2  0
  2  7  1  0
  3  4  1  0
  3  6  1  0
  3 13  1  0
  4 10  2  0
  5  8  1  0
  5  6  1  0
  6 11  2  0
  7  9  1  0
  8  9  2  0
  7 14  1  0
  9 15  1  0
 12 16  1  0
 12 17  1  0
 12 18  1  0
 13 19  1  0
 13 20  1  0
 13 21  1  0
V    1 0
V    2 1
V    3 2
V    4 3
V    5 4
V    6 5
V    7 6
V    8 7
V    9 8
V   10 9
V   11 10
V   12 11
V   13 12
M  END
> <DSSTox_RID>
62428

> <DSSTox_CID>
1336

> <DSSTox_CID_Parent>
1336

> <DSSTox_Generic_SID>
21336

> <DSSTox_FileID>
215_TXCST2_v1a

> <STRUCTURE_Formula>
C7H8N4O2

> <STRUCTURE_MolecularWeight>
180.164

> <STRUCTURE_ChemicalType>
defined organic

> <STRUCTURE_TestedForm_DefinedOrganic>
parent

> <STRUCTURE_Shown>
tested chemical

> <TestSubstance_ChemicalName>
Theophylline

> <TestSubstance_CASRN>
58-55-9

> <TestSubstance_Description>
single chemical compound

> <ChemicalNote>
tautomers

> <Source_ChemicalNote>
tested chemical contained 0.001% water

> <STRUCTURE_ChemicalName_IUPAC>
1,3-dimethyl-3,7-dihydro-1H-purine-2,6-dione

> <STRUCTURE_SMILES>
O=C2C=1/N=C\NC=1N(C)C(=O)N2C

> <STRUCTURE_Parent_SMILES>
O=C2C=1/N=C\NC=1N(C)C(=O)N2C

> <STRUCTURE_InChIS>
InChI=1S/C7H8N4O2/c1-10-5-4(8-3-9-5)6(12)11(2)7(10)13/h3H,1-2H3,(H,8,9)

> <STRUCTURE_InChIKey>
ZFXYFBGIUFBOJW-UHFFFAOYSA-N

> <Substance_modify_yyyymmdd>
20080429

> <Coord_Metals>
0

> <Index>
215

> <Canonical_Smiles>
CN1C(=O)N(C)c2[nH]cnc2C1=O

> <Molecular_Weight>
180.16401

> <Frequency>
1

$$$$

  SciTegic          2D

 21 23  0  0  0  0            999 V2000
    1.7138    1.2033    0.0000 N   0  0
    2.5889    0.0182    0.0000 C   0  0
    1.7138   -1.2033    0.0000 N   0  0
    0.2917   -0.7475    0.0000 C   0  0
    0.2917    0.7475    0.0000 C   0  0
   -1.0028    1.5132    0.0000 C   0  0
   -2.3155    0.7475    0.0000 C   0  0
   -2.3155   -0.7475    0.0000 C   0  0
   -1.0028   -1.5132    0.0000 C   0  0
    4.0896    0.0290    0.0000 C   0  0
    5.0454   -1.1042    0.0000 C   0  0
    6.4277   -0.5216    0.0000 S   0  0
    6.3008    0.9730    0.0000 C   0  0
    4.8401    1.3141    0.0000 N   0  0
    2.0279   -2.1527    0.0000 H   0  0
   -0.9997    2.5132    0.0000 H   0  0
   -3.1826    1.2456    0.0000 H   0  0
   -3.1826   -1.2456    0.0000 H   0  0
   -0.9997   -2.5132    0.0000 H   0  0
    4.8120   -2.0766    0.0000 H   0  0
    7.0571    1.6271    0.0000 H   0  0
  1  2  2  0
  1  5  1  0
  2  3  1  0
  2 10  1  0
  3  4  1  0
  4  5  2  0
  4  9  1  0
  5  6  1  0
  6  7  2  0
  7  8  1  0
  8  9  2  0
 10 11  2  0
 10 14  1  0
 11 12  1  0
 12 13  1  0
 13 14  2  0
  3 15  1  0
  6 16  1  0
  7 17  1  0
  8 18  1  0
  9 19  1  0
 11 20  1  0
 13 21  1  0
V    1 0
V    2 1
V    3 2
V    4 3
V    5 4
V    6 5
V    7 6
V    8 7
V    9 8
V   10 9
V   11 10
V   12 11
V   13 12
V   14 13
M  END
> <DSSTox_RID>
60865

> <DSSTox_CID>
1337

> <DSSTox_CID_Parent>
1337

> <DSSTox_Generic_SID>
21337

> <DSSTox_FileID>
216_TXCST2_v1a

> <STRUCTURE_Formula>
C10H7N3S

> <STRUCTURE_MolecularWeight>
201.2477

> <STRUCTURE_ChemicalType>
defined organic

> <STRUCTURE_TestedForm_DefinedOrganic>
parent

> <STRUCTURE_Shown>
tested chemical

> <TestSubstance_ChemicalName>
Thiabendazole

> <TestSubstance_CASRN>
148-79-8

> <TestSubstance_Description>
single chemical compound

> <STRUCTURE_ChemicalName_IUPAC>
2-(1,3-thiazol-4-yl)-1H-benzimidazole

> <STRUCTURE_SMILES>
N1C(=NC2=C1C=CC=C2)C3=CSC=N3

> <STRUCTURE_Parent_SMILES>
N1C(=NC2=C1C=CC=C2)C3=CSC=N3

> <STRUCTURE_InChIS>
InChI=1S/C10H7N3S/c1-2-4-8-7(3-1)12-10(13-8)9-5-14-6-11-9/h1-6H,(H,12,13)

> <STRUCTURE_InChIKey>
WJCNZQLZVWNLKY-UHFFFAOYSA-N

> <Substance_modify_yyyymmdd>
20080429

> <Coord_Metals>
0

> <Index>
216

> <Canonical_Smiles>
c1ccc2[nH]c(nc2c1)c3cscn3

> <Molecular_Weight>
201.24767

> <Frequency>
1

$$$$

  SciTegic          2D

 42 43  0  0  0  0            999 V2000
    4.6751   -4.8068    0.0000 O   0  0
    5.4929   -3.9285    0.0000 S   0  0
    4.3234   -3.6597    0.0000 O   0  0
    6.9554   -4.2655    0.0000 C   0  0
    7.3946   -5.6997    0.0000 C   0  0
    8.8563   -6.0365    0.0000 C   0  0
    9.8788   -4.9390    0.0000 C   0  0
    9.4396   -3.5047    0.0000 C   0  0
    7.9779   -3.1680    0.0000 C   0  0
   11.3413   -5.2760    0.0000 C   0  0
    5.0525   -2.4938    0.0000 N   0  0
    3.5900   -2.1568    0.0000 C   0  0
    2.7723   -3.0350    0.0000 O   0  0
    3.1497   -0.7220    0.0000 N   0  0
    1.6852   -0.3846    0.0000 N   0  0
    1.3514    1.0778    0.0000 C   0  0
    0.0000    1.7286    0.0000 C   0  0
   -1.3515    1.0777    0.0000 C   0  0
   -1.6852   -0.3847    0.0000 C   0  0
   -0.7500   -1.5574    0.0000 C   0  0
    0.7500   -1.5574    0.0000 C   0  0
    6.7129   -6.4314    0.0000 H   0  0
    9.1491   -6.9927    0.0000 H   0  0
   10.1213   -2.7731    0.0000 H   0  0
    7.6851   -2.2118    0.0000 H   0  0
   11.6347   -6.2319    0.0000 H   0  0
   12.0227   -4.5441    0.0000 H   0  0
   12.3159   -5.5000    0.0000 H   0  0
    5.7340   -1.7619    0.0000 H   0  0
    3.8311    0.0098    0.0000 H   0  0
    1.1727    2.0616    0.0000 H   0  0
    2.2709    0.6846    0.0000 H   0  0
   -0.0301    0.7290    0.0000 H   0  0
   -0.8807    2.2023    0.0000 H   0  0
   -0.5888    0.4310    0.0000 H   0  0
   -2.2709    0.6846    0.0000 H   0  0
   -0.7040   -0.1916    0.0000 H   0  0
   -1.9511   -1.3487    0.0000 H   0  0
   -0.2892   -0.6699    0.0000 H   0  0
   -0.1621   -2.3663    0.0000 H   0  0
    0.3435   -0.6438    0.0000 H   0  0
    1.7490   -1.6021    0.0000 H   0  0
  1  2  2  0
  2  3  2  0
  2  4  1  0
  2 11  1  0
  4  5  2  0
  4  9  1  0
  5  6  1  0
  6  7  2  0
  7  8  1  0
  7 10  1  0
  8  9  2  0
 11 12  1  0
 12 13  2  0
 12 14  1  0
 14 15  1  0
 15 16  1  0
 15 21  1  0
 16 17  1  0
 17 18  1  0
 18 19  1  0
 19 20  1  0
 20 21  1  0
  5 22  1  0
  6 23  1  0
  8 24  1  0
  9 25  1  0
 10 26  1  0
 10 27  1  0
 10 28  1  0
 11 29  1  0
 14 30  1  0
 16 31  1  0
 16 32  1  0
 17 33  1  0
 17 34  1  0
 18 35  1  0
 18 36  1  0
 19 37  1  0
 19 38  1  0
 20 39  1  0
 20 40  1  0
 21 41  1  0
 21 42  1  0
V    1 0
V    2 1
V    3 2
V    4 3
V    5 4
V    6 5
V    7 6
V    8 7
V    9 8
V   10 9
V   11 10
V   12 11
V   13 12
V   14 13
V   15 14
V   16 15
V   17 16
V   18 17
V   19 18
V   20 19
V   21 20
M  END
> <DSSTox_RID>
60395

> <DSSTox_CID>
1358

> <DSSTox_CID_Parent>
1358

> <DSSTox_Generic_SID>
21358

> <DSSTox_FileID>
217_TXCST2_v1a

> <STRUCTURE_Formula>
C14H21N3O3S

> <STRUCTURE_MolecularWeight>
311.3998

> <STRUCTURE_ChemicalType>
defined organic

> <STRUCTURE_TestedForm_DefinedOrganic>
parent

> <STRUCTURE_Shown>
tested chemical

> <TestSubstance_ChemicalName>
Tolazamide

> <TestSubstance_CASRN>
1156-19-0

> <TestSubstance_Description>
single chemical compound

> <STRUCTURE_ChemicalName_IUPAC>
N-[(azepan-1-ylamino)carbonyl]-4-methylbenzenesulfonamide

> <STRUCTURE_SMILES>
O=S(=O)(C1=CC=C(C=C1)C)NC(=O)NN2CCCCCC2

> <STRUCTURE_Parent_SMILES>
O=S(=O)(C1=CC=C(C=C1)C)NC(=O)NN2CCCCCC2

> <STRUCTURE_InChIS>
InChI=1S/C14H21N3O3S/c1-12-6-8-13(9-7-12)21(19,20)16-14(18)15-17-10-4-2-3-5-11-17/h6-9H,2-5,10-11H2,1H3,(H2,15,16,18)

> <STRUCTURE_InChIKey>
OUDSBRTVNLOZBN-UHFFFAOYSA-N

> <Substance_modify_yyyymmdd>
20080429

> <Coord_Metals>
0

> <Index>
217

> <Canonical_Smiles>
Cc1ccc(cc1)S(=O)(=O)NC(=O)NN2CCCCCC2

> <Molecular_Weight>
311.39984

> <Frequency>
1

$$$$

  SciTegic          2D

  8  7  0  0  0  0            999 V2000
    0.2606    0.1503    0.0000 Cl  0  0
    1.3000    0.7500    0.0000 C   0  0
    2.6000    0.0000    0.0000 C   0  0
    2.6000   -1.2000    0.0000 O   0  0
    3.9000    0.7500    0.0000 O   0  0
    1.3000    1.9500    0.0000 Cl  0  0
    0.2609    1.3502    0.0000 Cl  0  0
    4.7662    0.2503    0.0000 H   0  0
  1  2  1  0
  2  3  1  0
  2  6  1  0
  2  7  1  0
  3  4  2  0
  3  5  1  0
  5  8  1  0
V    1 0
V    2 1
V    3 2
V    4 3
V    5 4
V    6 5
V    7 6
M  END
> <DSSTox_RID>
62391

> <DSSTox_CID>
1378

> <DSSTox_CID_Parent>
1378

> <DSSTox_Generic_SID>
21378

> <DSSTox_FileID>
218_TXCST2_v1a

> <STRUCTURE_Formula>
C2HCl3O2

> <STRUCTURE_MolecularWeight>
163.3871

> <STRUCTURE_ChemicalType>
defined organic

> <STRUCTURE_TestedForm_DefinedOrganic>
parent

> <STRUCTURE_Shown>
tested chemical

> <TestSubstance_ChemicalName>
Trichloroacetic acid

> <TestSubstance_CASRN>
76-03-9

> <TestSubstance_Description>
single chemical compound

> <STRUCTURE_ChemicalName_IUPAC>
trichloroacetic acid

> <STRUCTURE_SMILES>
ClC(C(=O)O)(Cl)Cl

> <STRUCTURE_Parent_SMILES>
ClC(C(=O)O)(Cl)Cl

> <STRUCTURE_InChIS>
InChI=1S/C2HCl3O2/c3-2(4,5)1(6)7/h(H,6,7)

> <STRUCTURE_InChIKey>
YNJBWRMUSHSURL-UHFFFAOYSA-N

> <Substance_modify_yyyymmdd>
20080429

> <Coord_Metals>
0

> <Index>
218

> <Canonical_Smiles>
OC(=O)C(Cl)(Cl)Cl

> <Molecular_Weight>
163.38713

> <Frequency>
1

$$$$

  SciTegic          2D

 20 21  0  0  0  0            999 V2000
    2.0825    2.3453    0.0000 O   0  0
    1.7138    1.2033    0.0000 C   0  0
    2.5889    0.0182    0.0000 N   0  0
    1.7138   -1.2033    0.0000 C   0  0
    2.0907   -2.3426    0.0000 O   0  0
    0.2917   -0.7475    0.0000 C   0  0
    0.2917    0.7475    0.0000 C   0  0
   -1.0028    1.5132    0.0000 C   0  0
   -2.3155    0.7475    0.0000 C   0  0
   -2.3155   -0.7475    0.0000 C   0  0
   -1.0028   -1.5132    0.0000 C   0  0
    4.0872    0.0320    0.0000 S   0  0
    4.8506   -1.2602    0.0000 C   0  0
    6.0505   -1.2490    0.0000 Cl  0  0
    4.2606   -2.3052    0.0000 Cl  0  0
    5.4604   -2.2937    0.0000 Cl  0  0
   -0.9997    2.5132    0.0000 H   0  0
   -3.1826    1.2456    0.0000 H   0  0
   -3.1826   -1.2456    0.0000 H   0  0
   -0.9997   -2.5132    0.0000 H   0  0
  1  2  2  0
  2  3  1  0
  2  7  1  0
  3  4  1  0
  3 12  1  0
  4  5  2  0
  4  6  1  0
  6  7  2  0
  6 11  1  0
  7  8  1  0
  8  9  2  0
  9 10  1  0
 10 11  2  0
 12 13  1  0
 13 14  1  0
 13 15  1  0
 13 16  1  0
  8 17  1  0
  9 18  1  0
 10 19  1  0
 11 20  1  0
V    1 0
V    2 1
V    3 2
V    4 3
V    5 4
V    6 5
V    7 6
V    8 7
V    9 8
V   10 9
V   11 10
V   12 11
V   13 12
V   14 13
V   15 14
V   16 15
M  END
> <DSSTox_RID>
59533

> <DSSTox_CID>
1385

> <DSSTox_CID_Parent>
1385

> <DSSTox_Generic_SID>
21385

> <DSSTox_FileID>
219_TXCST2_v1a

> <STRUCTURE_Formula>
C9H4Cl3NO2S

> <STRUCTURE_MolecularWeight>
296.5576

> <STRUCTURE_ChemicalType>
defined organic

> <STRUCTURE_TestedForm_DefinedOrganic>
parent

> <STRUCTURE_Shown>
tested chemical

> <TestSubstance_ChemicalName>
Folpet

> <TestSubstance_CASRN>
133-07-3

> <TestSubstance_Description>
single chemical compound

> <STRUCTURE_ChemicalName_IUPAC>
2-[(trichloromethyl)thio]-1H-isoindole-1,3(2H)-dione

> <STRUCTURE_SMILES>
O=C1N(C(=O)C2=C1C=CC=C2)SC(Cl)(Cl)Cl

> <STRUCTURE_Parent_SMILES>
O=C1N(C(=O)C2=C1C=CC=C2)SC(Cl)(Cl)Cl

> <STRUCTURE_InChIS>
InChI=1S/C9H4Cl3NO2S/c10-9(11,12)16-13-7(14)5-3-1-2-4-6(5)8(13)15/h1-4H

> <STRUCTURE_InChIKey>
HKIOYBQGHSTUDB-UHFFFAOYSA-N

> <Substance_modify_yyyymmdd>
20080429

> <Coord_Metals>
0

> <Index>
219

> <Canonical_Smiles>
ClC(Cl)(Cl)SN1C(=O)c2ccccc2C1=O

> <Molecular_Weight>
296.55756

> <Frequency>
1

$$$$

  SciTegic          2D

 13 13  0  0  0  0            999 V2000
    2.5973   -1.5031    0.0000 O   0  0
    1.2990   -0.7500    0.0000 C   0  0
    1.2990    0.7500    0.0000 C   0  0
    0.0000    1.5000    0.0000 C   0  0
   -1.2990    0.7500    0.0000 C   0  0
   -1.2990   -0.7500    0.0000 C   0  0
    0.0000   -1.5000    0.0000 C   0  0
    0.0000   -2.7000    0.0000 Cl  0  0
   -2.3383    1.3500    0.0000 Cl  0  0
    2.3383    1.3500    0.0000 Cl  0  0
    2.5958   -2.5031    0.0000 H   0  0
    0.0000    2.5000    0.0000 H   0  0
   -2.1651   -1.2500    0.0000 H   0  0
  1  2  1  0
  2  3  2  0
  2  7  1  0
  3  4  1  0
  3 10  1  0
  4  5  2  0
  5  6  1  0
  5  9  1  0
  6  7  2  0
  7  8  1  0
  1 11  1  0
  4 12  1  0
  6 13  1  0
V    1 0
V    2 1
V    3 2
V    4 3
V    5 4
V    6 5
V    7 6
V    8 7
V    9 8
V   10 9
M  END
> <DSSTox_RID>
65424

> <DSSTox_CID>
1386

> <DSSTox_CID_Parent>
1386

> <DSSTox_Generic_SID>
21386

> <DSSTox_FileID>
220_TXCST2_v1a

> <STRUCTURE_Formula>
C6H3Cl3O

> <STRUCTURE_MolecularWeight>
197.4464

> <STRUCTURE_ChemicalType>
defined organic

> <STRUCTURE_TestedForm_DefinedOrganic>
parent

> <STRUCTURE_Shown>
tested chemical

> <TestSubstance_ChemicalName>
2,4,6-Trichlorophenol

> <TestSubstance_CASRN>
88-06-2

> <TestSubstance_Description>
single chemical compound

> <STRUCTURE_ChemicalName_IUPAC>
2,4,6-trichlorophenol

> <STRUCTURE_SMILES>
OC1=C(C=C(C=C1Cl)Cl)Cl

> <STRUCTURE_Parent_SMILES>
OC1=C(C=C(C=C1Cl)Cl)Cl

> <STRUCTURE_InChIS>
InChI=1S/C6H3Cl3O/c7-3-1-4(8)6(10)5(9)2-3/h1-2,10H

> <STRUCTURE_InChIKey>
LINPIYWFGCPVIE-UHFFFAOYSA-N

> <Substance_modify_yyyymmdd>
20080429

> <Coord_Metals>
0

> <Index>
220

> <Canonical_Smiles>
Oc1c(Cl)cc(Cl)cc1Cl

> <Molecular_Weight>
197.44642

> <Frequency>
1

$$$$

  SciTegic          2D

 20 19  0  0  0  0            999 V2000
    3.9000    0.7500    0.0000 P   0  0
    2.6000    0.0000    0.0000 C   0  0
    1.3000    0.7500    0.0000 C   0  0
    3.9000    1.9500    0.0000 O   0  0
    0.2606    0.1503    0.0000 Cl  0  0
    0.2609    1.3502    0.0000 Cl  0  0
    1.3000    1.9500    0.0000 Cl  0  0
    5.2000    0.0000    0.0000 O   0  0
    2.5761    1.5169    0.0000 O   0  0
    2.6000   -1.5007    0.0000 O   0  0
    2.5773    3.0177    0.0000 C   0  0
    6.5000    0.7500    0.0000 C   0  0
    1.7340   -0.5001    0.0000 H   0  0
    1.7343   -2.0013    0.0000 H   0  0
    1.7120    3.5189    0.0000 H   0  0
    2.5786    4.0177    0.0000 H   0  0
    3.4439    3.5167    0.0000 H   0  0
    7.3661    0.2503    0.0000 H   0  0
    6.5000    1.7500    0.0000 H   0  0
    7.3659    1.2501    0.0000 H   0  0
  1  2  1  0
  1  4  2  0
  1  8  1  0
  1  9  1  0
  2  3  1  0
  2 10  1  0
  3  5  1  0
  3  6  1  0
  3  7  1  0
  8 12  1  0
  9 11  1  0
  2 13  1  0
 10 14  1  0
 11 15  1  0
 11 16  1  0
 11 17  1  0
 12 18  1  0
 12 19  1  0
 12 20  1  0
V    1 0
V    2 1
V    3 2
V    4 3
V    5 4
V    6 5
V    7 6
V    8 7
V    9 8
V   10 9
V   11 10
V   12 11
M  END
> <DSSTox_RID>
66905

> <DSSTox_CID>
1389

> <DSSTox_CID_Parent>
1389

> <DSSTox_Generic_SID>
21389

> <DSSTox_FileID>
221_TXCST2_v1a

> <STRUCTURE_Formula>
C4H8Cl3O4P

> <STRUCTURE_MolecularWeight>
257.4367

> <STRUCTURE_ChemicalType>
defined organic

> <STRUCTURE_TestedForm_DefinedOrganic>
parent

> <STRUCTURE_Shown>
tested chemical

> <TestSubstance_ChemicalName>
Trichlorfon

> <TestSubstance_CASRN>
52-68-6

> <TestSubstance_Description>
single chemical compound

> <Source_ChemicalNote>
tested chemical contained 0.05% water (0.01 moles H2O)

> <STRUCTURE_ChemicalName_IUPAC>
dimethyl (2,2,2-trichloro-1-hydroxyethyl)phosphonate

> <STRUCTURE_SMILES>
OC(C(Cl)(Cl)Cl)P(=O)(OC)OC

> <STRUCTURE_Parent_SMILES>
OC(C(Cl)(Cl)Cl)P(=O)(OC)OC

> <STRUCTURE_InChIS>
InChI=1S/C4H8Cl3O4P/c1-10-12(9,11-2)3(8)4(5,6)7/h3,8H,1-2H3

> <STRUCTURE_InChIKey>
NFACJZMKEDPNKN-UHFFFAOYSA-N

> <Substance_modify_yyyymmdd>
20080429

> <Coord_Metals>
0

> <Index>
221

> <Canonical_Smiles>
COP(=O)(OC)C(O)C(Cl)(Cl)Cl

> <Molecular_Weight>
257.43668

> <Frequency>
1

$$$$

  SciTegic          2D

 25 24  0  0  0  0            999 V2000
    1.3000    0.7500    0.0000 O   0  0
    2.6000    0.0000    0.0000 C   0  0
    3.9000    0.7500    0.0000 C   0  0
    5.2000    0.0000    0.0000 N   0  0
    6.5000    0.7500    0.0000 C   0  0
    7.7999    0.0000    0.0000 C   0  0
    9.0999    0.7500    0.0000 O   0  0
    5.2030   -1.5008    0.0000 C   0  0
    6.5039   -2.2494    0.0000 C   0  0
    6.5070   -3.7502    0.0000 O   0  0
    0.4338    0.2503    0.0000 H   0  0
    1.7340   -0.5001    0.0000 H   0  0
    2.6000   -1.0000    0.0000 H   0  0
    4.7659    1.2501    0.0000 H   0  0
    3.9000    1.7500    0.0000 H   0  0
    5.6340    1.2501    0.0000 H   0  0
    6.5000    1.7500    0.0000 H   0  0
    8.6659   -0.5001    0.0000 H   0  0
    7.7999   -1.0000    0.0000 H   0  0
    9.9661    0.2503    0.0000 H   0  0
    4.3361   -1.0025    0.0000 H   0  0
    4.3379   -2.0023    0.0000 H   0  0
    7.3708   -2.7477    0.0000 H   0  0
    7.3690   -1.7479    0.0000 H   0  0
    7.3737   -4.2490    0.0000 H   0  0
  1  2  1  0
  2  3  1  0
  3  4  1  0
  4  5  1  0
  4  8  1  0
  5  6  1  0
  6  7  1  0
  8  9  1  0
  9 10  1  0
  1 11  1  0
  2 12  1  0
  2 13  1  0
  3 14  1  0
  3 15  1  0
  5 16  1  0
  5 17  1  0
  6 18  1  0
  6 19  1  0
  7 20  1  0
  8 21  1  0
  8 22  1  0
  9 23  1  0
  9 24  1  0
 10 25  1  0
V    1 0
V    2 1
V    3 2
V    4 3
V    5 4
V    6 5
V    7 6
V    8 7
V    9 8
V   10 9
M  END
> <DSSTox_RID>
66087

> <DSSTox_CID>
1392

> <DSSTox_CID_Parent>
1392

> <DSSTox_Generic_SID>
21392

> <DSSTox_FileID>
222_TXCST2_v1a

> <STRUCTURE_Formula>
C6H15NO3

> <STRUCTURE_MolecularWeight>
149.1882

> <STRUCTURE_ChemicalType>
defined organic

> <STRUCTURE_TestedForm_DefinedOrganic>
parent

> <STRUCTURE_Shown>
tested chemical

> <TestSubstance_ChemicalName>
Triethanolamine

> <TestSubstance_CASRN>
102-71-6

> <TestSubstance_Description>
single chemical compound

> <STRUCTURE_ChemicalName_IUPAC>
2,2',2''-nitrilotriethanol

> <STRUCTURE_SMILES>
OCCN(CCO)CCO

> <STRUCTURE_Parent_SMILES>
OCCN(CCO)CCO

> <STRUCTURE_InChIS>
InChI=1S/C6H15NO3/c8-4-1-7(2-5-9)3-6-10/h8-10H,1-6H2

> <STRUCTURE_InChIKey>
GSEJCLTVZPLZKY-UHFFFAOYSA-N

> <Substance_modify_yyyymmdd>
20080429

> <Coord_Metals>
0

> <Index>
222

> <Canonical_Smiles>
OCCN(CCO)CCO

> <Molecular_Weight>
149.18819

> <Frequency>
1

$$$$

  SciTegic          2D

 24 23  0  0  0  0            999 V2000
    1.3000    0.7500    0.0000 O   0  0
    2.6000    0.0000    0.0000 C   0  0
    3.9000    0.7500    0.0000 C   0  0
    5.2000    0.0000    0.0000 O   0  0
    6.5000    0.7500    0.0000 C   0  0
    7.7999    0.0000    0.0000 C   0  0
    9.0999    0.7500    0.0000 O   0  0
   10.3999    0.0000    0.0000 C   0  0
   11.6999    0.7500    0.0000 C   0  0
   12.9999    0.0000    0.0000 O   0  0
    0.4338    0.2503    0.0000 H   0  0
    2.6000   -1.0000    0.0000 H   0  0
    1.7340   -0.5001    0.0000 H   0  0
    3.9000    1.7500    0.0000 H   0  0
    4.7659    1.2501    0.0000 H   0  0
    6.5000    1.7500    0.0000 H   0  0
    5.6340    1.2501    0.0000 H   0  0
    7.7999   -1.0000    0.0000 H   0  0
    8.6659   -0.5001    0.0000 H   0  0
   10.3999   -1.0000    0.0000 H   0  0
    9.5340   -0.5001    0.0000 H   0  0
   11.6999    1.7500    0.0000 H   0  0
   12.5659    1.2501    0.0000 H   0  0
   13.8661    0.4997    0.0000 H   0  0
  1  2  1  0
  2  3  1  0
  3  4  1  0
  4  5  1  0
  5  6  1  0
  6  7  1  0
  7  8  1  0
  8  9  1  0
  9 10  1  0
  1 11  1  0
  2 12  1  0
  2 13  1  0
  3 14  1  0
  3 15  1  0
  5 16  1  0
  5 17  1  0
  6 18  1  0
  6 19  1  0
  8 20  1  0
  8 21  1  0
  9 22  1  0
  9 23  1  0
 10 24  1  0
V    1 0
V    2 1
V    3 2
V    4 3
V    5 4
V    6 5
V    7 6
V    8 7
V    9 8
V   10 9
M  END
> <DSSTox_RID>
65302

> <DSSTox_CID>
1393

> <DSSTox_CID_Parent>
1393

> <DSSTox_Generic_SID>
21393

> <DSSTox_FileID>
223_TXCST2_v1a

> <STRUCTURE_Formula>
C6H14O4

> <STRUCTURE_MolecularWeight>
150.173

> <STRUCTURE_ChemicalType>
defined organic

> <STRUCTURE_TestedForm_DefinedOrganic>
parent

> <STRUCTURE_Shown>
tested chemical

> <TestSubstance_ChemicalName>
Triethylene glycol

> <TestSubstance_CASRN>
112-27-6

> <TestSubstance_Description>
single chemical compound

> <STRUCTURE_ChemicalName_IUPAC>
2,2'-[ethane-1,2-diylbis(oxy)]diethanol

> <STRUCTURE_SMILES>
OCCOCCOCCO

> <STRUCTURE_Parent_SMILES>
OCCOCCOCCO

> <STRUCTURE_InChIS>
InChI=1S/C6H14O4/c7-1-3-9-5-6-10-4-2-8/h7-8H,1-6H2

> <STRUCTURE_InChIKey>
ZIBGPFATKBEMQZ-UHFFFAOYSA-N

> <Substance_modify_yyyymmdd>
20080429

> <Coord_Metals>
0

> <Index>
223

> <Canonical_Smiles>
OCCOCCOCCO

> <Molecular_Weight>
150.17295

> <Frequency>
1

$$$$

  SciTegic          2D

 39 39  0  0  0  0            999 V2000
    2.5956   -2.7031    0.0000 O   0  0
    2.5973   -1.5031    0.0000 N   0  0
    1.2990   -0.7500    0.0000 C   0  0
    1.2990    0.7500    0.0000 C   0  0
    0.0000    1.5000    0.0000 C   0  0
   -1.2990    0.7500    0.0000 C   0  0
   -1.2990   -0.7500    0.0000 C   0  0
    0.0000   -1.5000    0.0000 C   0  0
   -2.5988   -1.5004    0.0000 C   0  0
   -3.6384   -0.9011    0.0000 F   0  0
   -2.5984   -2.7004    0.0000 F   0  0
   -3.6377   -2.1009    0.0000 F   0  0
   -0.0031    3.0008    0.0000 N   0  0
    1.0345    3.6036    0.0000 O   0  0
   -1.0438    3.5984    0.0000 O   0  0
    2.5972    1.5031    0.0000 N   0  0
    2.5951    3.0039    0.0000 C   0  0
    3.8933    3.7570    0.0000 C   0  0
    3.8912    5.2578    0.0000 C   0  0
    3.8968    0.7523    0.0000 C   0  0
    5.1972    1.5015    0.0000 C   0  0
    6.4968    0.7507    0.0000 C   0  0
    3.4642   -1.0046    0.0000 O   0  0
   -2.1651    1.2500    0.0000 H   0  0
    0.0000   -2.5000    0.0000 H   0  0
    1.7299    2.5026    0.0000 H   0  0
    1.7282    3.5024    0.0000 H   0  0
    3.8952    2.7570    0.0000 H   0  0
    4.7602    3.2585    0.0000 H   0  0
    4.7561    5.7596    0.0000 H   0  0
    3.8892    6.2578    0.0000 H   0  0
    3.0243    5.7563    0.0000 H   0  0
    3.0305    0.2527    0.0000 H   0  0
    3.8961   -0.2477    0.0000 H   0  0
    4.3316    2.0022    0.0000 H   0  0
    5.1979    2.5015    0.0000 H   0  0
    7.3632    1.2498    0.0000 H   0  0
    7.3624    0.2500    0.0000 H   0  0
    6.4961   -0.2493    0.0000 H   0  0
  1  2  2  0
  2  3  1  0
  2 23  2  0
  3  4  2  0
  3  8  1  0
  4  5  1  0
  4 16  1  0
  5  6  2  0
  5 13  1  0
  6  7  1  0
  7  8  2  0
  7  9  1  0
  9 10  1  0
  9 11  1  0
  9 12  1  0
 13 14  2  0
 13 15  2  0
 16 17  1  0
 16 20  1  0
 17 18  1  0
 18 19  1  0
 20 21  1  0
 21 22  1  0
  6 24  1  0
  8 25  1  0
 17 26  1  0
 17 27  1  0
 18 28  1  0
 18 29  1  0
 19 30  1  0
 19 31  1  0
 19 32  1  0
 20 33  1  0
 20 34  1  0
 21 35  1  0
 21 36  1  0
 22 37  1  0
 22 38  1  0
 22 39  1  0
V    1 0
V    2 1
V    3 2
V    4 3
V    5 4
V    6 5
V    7 6
V    8 7
V    9 8
V   10 9
V   11 10
V   12 11
V   13 12
V   14 13
V   15 14
V   16 15
V   17 16
V   18 17
V   19 18
V   20 19
V   21 20
V   22 21
V   23 22
M  END
> <DSSTox_RID>
59440

> <DSSTox_CID>
1395

> <DSSTox_CID_Parent>
1395

> <DSSTox_Generic_SID>
21395

> <DSSTox_FileID>
224_TXCST2_v1a

> <STRUCTURE_Formula>
C13H16F3N3O4

> <STRUCTURE_MolecularWeight>
335.279

> <STRUCTURE_ChemicalType>
defined organic

> <STRUCTURE_TestedForm_DefinedOrganic>
parent

> <STRUCTURE_Shown>
tested chemical

> <TestSubstance_ChemicalName>
Trifluralin

> <TestSubstance_CASRN>
1582-09-8

> <TestSubstance_Description>
single chemical compound

> <STRUCTURE_ChemicalName_IUPAC>
2,6-dinitro-N,N-dipropyl-4-(trifluoromethyl)aniline

> <STRUCTURE_SMILES>
O=[N+](C1=C(C(=CC(=C1)C(F)(F)F)[N+](=O)[O-])N(CCC)CCC)[O-]

> <STRUCTURE_Parent_SMILES>
O=[N+](C1=C(C(=CC(=C1)C(F)(F)F)[N+](=O)[O-])N(CCC)CCC)[O-]

> <STRUCTURE_InChIS>
InChI=1S/C13H16F3N3O4/c1-3-5-17(6-4-2)12-10(18(20)21)7-9(13(14,15)16)8-11(12)19(22)23/h7-8H,3-6H2,1-2H3

> <STRUCTURE_InChIKey>
ZSDSQXJSNMTJDA-UHFFFAOYSA-N

> <Substance_modify_yyyymmdd>
20080429

> <Coord_Metals>
0

> <Index>
224

> <Canonical_Smiles>
CCCN(CCC)c1c(cc(cc1N(=O)=O)C(F)(F)F)N(=O)=O

> <Molecular_Weight>
335.27904

> <Frequency>
1

$$$$

  SciTegic          2D

 21 21  0  0  0  0            999 V2000
    2.5988   -1.5004    0.0000 C   0  0
    1.2990   -0.7500    0.0000 C   0  0
    1.2990    0.7500    0.0000 C   0  0
    0.0000    1.5000    0.0000 C   0  0
   -1.2990    0.7500    0.0000 C   0  0
   -1.2990   -0.7500    0.0000 C   0  0
    0.0000   -1.5000    0.0000 C   0  0
   -2.5988   -1.5004    0.0000 C   0  0
    2.5988    1.5004    0.0000 C   0  0
    3.4651   -1.0010    0.0000 H   0  0
    2.5985   -2.5004    0.0000 H   0  0
    3.4646   -2.0008    0.0000 H   0  0
    0.0000    2.5000    0.0000 H   0  0
   -2.1651    1.2500    0.0000 H   0  0
    0.0000   -2.5000    0.0000 H   0  0
   -3.4651   -1.0010    0.0000 H   0  0
   -2.5985   -2.5004    0.0000 H   0  0
   -3.4646   -2.0008    0.0000 H   0  0
    3.4651    1.0010    0.0000 H   0  0
    2.5985    2.5004    0.0000 H   0  0
    3.4646    2.0008    0.0000 H   0  0
  1  2  1  0
  2  3  2  0
  2  7  1  0
  3  4  1  0
  3  9  1  0
  4  5  2  0
  5  6  1  0
  6  7  2  0
  6  8  1  0
  1 10  1  0
  1 11  1  0
  1 12  1  0
  4 13  1  0
  5 14  1  0
  7 15  1  0
  8 16  1  0
  8 17  1  0
  8 18  1  0
  9 19  1  0
  9 20  1  0
  9 21  1  0
V    1 0
V    2 1
V    3 2
V    4 3
V    5 4
V    6 5
V    7 6
V    8 7
V    9 8
M  END
> <DSSTox_RID>
62294

> <DSSTox_CID>
1402

> <DSSTox_CID_Parent>
1402

> <DSSTox_Generic_SID>
21402

> <DSSTox_FileID>
225_TXCST2_v1a

> <STRUCTURE_Formula>
C9H12

> <STRUCTURE_MolecularWeight>
120.1916

> <STRUCTURE_ChemicalType>
defined organic

> <STRUCTURE_TestedForm_DefinedOrganic>
parent

> <STRUCTURE_Shown>
tested chemical

> <TestSubstance_ChemicalName>
1,2,4-Trimethylbenzene

> <TestSubstance_CASRN>
95-63-6

> <TestSubstance_Description>
single chemical compound

> <STRUCTURE_ChemicalName_IUPAC>
1,2,4-trimethylbenzene

> <STRUCTURE_SMILES>
CC1=C(C=CC(=C1)C)C

> <STRUCTURE_Parent_SMILES>
CC1=C(C=CC(=C1)C)C

> <STRUCTURE_InChIS>
InChI=1S/C9H12/c1-7-4-5-8(2)9(3)6-7/h4-6H,1-3H3

> <STRUCTURE_InChIKey>
GWHJZXXIDMPWGX-UHFFFAOYSA-N

> <Substance_modify_yyyymmdd>
20080429

> <Coord_Metals>
0

> <Index>
225

> <Canonical_Smiles>
Cc1ccc(C)c(C)c1

> <Molecular_Weight>
120.19158

> <Frequency>
1

$$$$

  SciTegic          2D

 36 38  0  0  0  0            999 V2000
    2.5983   -3.0012    0.0000 O   0  0
    2.5988   -1.5004    0.0000 Sn  0  0
    1.2990   -0.7500    0.0000 C   0  0
    1.2990    0.7500    0.0000 C   0  0
    0.0000    1.5000    0.0000 C   0  0
   -1.2990    0.7500    0.0000 C   0  0
   -1.2990   -0.7500    0.0000 C   0  0
    0.0000   -1.5000    0.0000 C   0  0
    3.8990   -0.7508    0.0000 C   0  0
    5.1976   -1.5016    0.0000 C   0  0
    6.4971   -0.7525    0.0000 C   0  0
    6.4980    0.7475    0.0000 C   0  0
    5.1995    1.4984    0.0000 C   0  0
    3.9000    0.7492    0.0000 C   0  0
    1.2990   -2.2506    0.0000 C   0  0
    1.2988   -3.7506    0.0000 C   0  0
   -0.0004   -4.5004    0.0000 C   0  0
   -1.2993   -3.7502    0.0000 C   0  0
   -1.2991   -2.2502    0.0000 C   0  0
    0.0001   -1.5004    0.0000 C   0  0
    3.4639   -3.5020    0.0000 H   0  0
    2.1651    1.2500    0.0000 H   0  0
    0.0000    2.5000    0.0000 H   0  0
   -2.1651    1.2500    0.0000 H   0  0
   -2.1651   -1.2500    0.0000 H   0  0
    0.0000   -2.5000    0.0000 H   0  0
    5.1970   -2.5016    0.0000 H   0  0
    7.3628   -1.2530    0.0000 H   0  0
    7.3644    1.2470    0.0000 H   0  0
    5.2001    2.4984    0.0000 H   0  0
    3.0343    1.2497    0.0000 H   0  0
    2.1647   -4.2507    0.0000 H   0  0
   -0.0006   -5.5004    0.0000 H   0  0
   -2.1654   -4.2500    0.0000 H   0  0
   -2.1650   -1.7500    0.0000 H   0  0
    0.0002   -0.5004    0.0000 H   0  0
  1  2  1  0
  2  3  1  0
  2  9  1  0
  2 15  1  0
  3  4  2  0
  3  8  1  0
  4  5  1  0
  5  6  2  0
  6  7  1  0
  7  8  2  0
  9 10  2  0
  9 14  1  0
 10 11  1  0
 11 12  2  0
 12 13  1  0
 13 14  2  0
 15 16  2  0
 15 20  1  0
 16 17  1  0
 17 18  2  0
 18 19  1  0
 19 20  2  0
  1 21  1  0
  4 22  1  0
  5 23  1  0
  6 24  1  0
  7 25  1  0
  8 26  1  0
 10 27  1  0
 11 28  1  0
 12 29  1  0
 13 30  1  0
 14 31  1  0
 16 32  1  0
 17 33  1  0
 18 34  1  0
 19 35  1  0
 20 36  1  0
V    1 0
V    2 1
V    3 2
V    4 3
V    5 4
V    6 5
V    7 6
V    8 7
V    9 8
V   10 9
V   11 10
V   12 11
V   13 12
V   14 13
V   15 14
V   16 15
V   17 16
V   18 17
V   19 18
V   20 19
M  END
> <DSSTox_RID>
60414

> <DSSTox_CID>
1409

> <DSSTox_Generic_SID>
21409

> <DSSTox_FileID>
226_TXCST2_v1a

> <STRUCTURE_Formula>
C18H16OSn

> <STRUCTURE_MolecularWeight>
367.029

> <STRUCTURE_ChemicalType>
organometallic

> <STRUCTURE_Shown>
tested chemical

> <TestSubstance_ChemicalName>
Triphenyltin hydroxide

> <TestSubstance_CASRN>
76-87-9

> <TestSubstance_Description>
single chemical compound

> <STRUCTURE_ChemicalName_IUPAC>
triphenylstannanol

> <STRUCTURE_SMILES>
O[Sn](C1=CC=CC=C1)(C2=CC=CC=C2)C3=CC=CC=C3

> <STRUCTURE_Parent_SMILES>
O[Sn](C1=CC=CC=C1)(C2=CC=CC=C2)C3=CC=CC=C3

> <STRUCTURE_InChIS>
InChI=1S/3C6H5.H2O.Sn/c3*1-2-4-6-5-3-1;;/h3*1-5H;1H2;/q;;;;+1/p-1

> <STRUCTURE_InChIKey>
BFWMWWXRWVJXSE-UHFFFAOYSA-M

> <Substance_modify_yyyymmdd>
20080429

> <Coord_Metals>
1

> <Index>
226

> <Canonical_Smiles>
O[Sn](c1ccccc1)(c2ccccc2)c3ccccc3

> <Molecular_Weight>
367.02904

> <Frequency>
1

$$$$

  SciTegic          2D

 26 25  0  0  0  0            999 V2000
    5.2000   -1.2000    0.0000 O   0  0
    5.2000    0.0000    0.0000 P   0  0
    3.9000    0.7500    0.0000 O   0  0
    3.8985    2.2508    0.0000 C   0  0
    2.5986    3.0008    0.0000 C   0  0
    2.5974    4.2008    0.0000 Cl  0  0
    6.5000    0.7500    0.0000 O   0  0
    7.7999    0.0000    0.0000 C   0  0
    9.0999    0.7500    0.0000 C   0  0
   10.1394    0.1503    0.0000 Cl  0  0
    3.8760   -0.7669    0.0000 O   0  0
    3.8773   -2.2677    0.0000 C   0  0
    2.5786   -3.0200    0.0000 C   0  0
    2.5796   -4.2200    0.0000 Cl  0  0
    4.7643    2.7514    0.0000 H   0  0
    4.7650    1.7515    0.0000 H   0  0
    1.7328    2.5003    0.0000 H   0  0
    1.7321    3.5001    0.0000 H   0  0
    7.7999   -1.0000    0.0000 H   0  0
    6.9340   -0.5001    0.0000 H   0  0
    9.0999    1.7500    0.0000 H   0  0
    9.9659    1.2501    0.0000 H   0  0
    4.7428   -1.7668    0.0000 H   0  0
    4.7439   -2.7667    0.0000 H   0  0
    1.7131   -3.5208    0.0000 H   0  0
    1.7120   -2.5210    0.0000 H   0  0
  1  2  2  0
  2  3  1  0
  2  7  1  0
  2 11  1  0
  3  4  1  0
  4  5  1  0
  5  6  1  0
  7  8  1  0
  8  9  1  0
  9 10  1  0
 11 12  1  0
 12 13  1  0
 13 14  1  0
  4 15  1  0
  4 16  1  0
  5 17  1  0
  5 18  1  0
  8 19  1  0
  8 20  1  0
  9 21  1  0
  9 22  1  0
 12 23  1  0
 12 24  1  0
 13 25  1  0
 13 26  1  0
V    1 0
V    2 1
V    3 2
V    4 3
V    5 4
V    6 5
V    7 6
V    8 7
V    9 8
V   10 9
V   11 10
V   12 11
V   13 12
V   14 13
M  END
> <DSSTox_RID>
65749

> <DSSTox_CID>
1411

> <DSSTox_CID_Parent>
1411

> <DSSTox_Generic_SID>
21411

> <DSSTox_FileID>
227_TXCST2_v1a

> <STRUCTURE_Formula>
C6H12Cl3O4P

> <STRUCTURE_MolecularWeight>
285.4898

> <STRUCTURE_ChemicalType>
defined organic

> <STRUCTURE_TestedForm_DefinedOrganic>
parent

> <STRUCTURE_Shown>
tested chemical

> <TestSubstance_ChemicalName>
Tris(2-chloroethyl) phosphate

> <TestSubstance_CASRN>
115-96-8

> <TestSubstance_Description>
single chemical compound

> <STRUCTURE_ChemicalName_IUPAC>
tris(2-chloroethyl) phosphate

> <STRUCTURE_SMILES>
O=P(OCCCl)(OCCCl)OCCCl

> <STRUCTURE_Parent_SMILES>
O=P(OCCCl)(OCCCl)OCCCl

> <STRUCTURE_InChIS>
InChI=1S/C6H12Cl3O4P/c7-1-4-11-14(10,12-5-2-8)13-6-3-9/h1-6H2

> <STRUCTURE_InChIKey>
HQUQLFOMPYWACS-UHFFFAOYSA-N

> <Substance_modify_yyyymmdd>
20080429

> <Coord_Metals>
0

> <Index>
227

> <Canonical_Smiles>
ClCCOP(=O)(OCCCl)OCCCl

> <Molecular_Weight>
285.48984

> <Frequency>
1

$$$$

  SciTegic          2D

 80 79  0  0  0  0            999 V2000
   10.3999   -1.2000    0.0000 O   0  0
   10.3999    0.0000    0.0000 P   0  0
    9.0999    0.7500    0.0000 O   0  0
    9.0985    2.2508    0.0000 C   0  0
    7.7985    3.0008    0.0000 C   0  0
    6.4985    2.2508    0.0000 C   0  0
    5.1985    3.0008    0.0000 C   0  0
    3.8985    2.2508    0.0000 C   0  0
    2.5986    3.0008    0.0000 C   0  0
    7.7985    4.5016    0.0000 C   0  0
    9.0978    5.2528    0.0000 C   0  0
   11.6999    0.7500    0.0000 O   0  0
   12.9999    0.0000    0.0000 C   0  0
   14.2999    0.7500    0.0000 C   0  0
   15.5999    0.0000    0.0000 C   0  0
   16.8999    0.7500    0.0000 C   0  0
   18.1999    0.0000    0.0000 C   0  0
   19.4998    0.7500    0.0000 C   0  0
   14.2999    2.2507    0.0000 C   0  0
   15.5992    3.0020    0.0000 C   0  0
    9.0760   -0.7669    0.0000 O   0  0
    9.0772   -2.2677    0.0000 C   0  0
    7.7786   -3.0200    0.0000 C   0  0
    7.7798   -4.5208    0.0000 C   0  0
    6.4811   -5.2731    0.0000 C   0  0
    6.4824   -6.7739    0.0000 C   0  0
    5.1837   -7.5262    0.0000 C   0  0
    6.4780   -2.2711    0.0000 C   0  0
    6.4754   -0.7703    0.0000 C   0  0
    9.9642    2.7514    0.0000 H   0  0
    9.9649    1.7515    0.0000 H   0  0
    7.7985    2.0008    0.0000 H   0  0
    5.6326    1.7507    0.0000 H   0  0
    6.4985    1.2508    0.0000 H   0  0
    4.3326    3.5010    0.0000 H   0  0
    5.1985    4.0008    0.0000 H   0  0
    3.0326    1.7507    0.0000 H   0  0
    3.8985    1.2508    0.0000 H   0  0
    1.7324    2.5011    0.0000 H   0  0
    1.7326    3.5010    0.0000 H   0  0
    2.5986    4.0008    0.0000 H   0  0
    7.7980    5.5016    0.0000 H   0  0
    6.9323    5.0013    0.0000 H   0  0
    9.0978    6.2528    0.0000 H   0  0
    9.9637    5.7529    0.0000 H   0  0
    9.9640    4.7531    0.0000 H   0  0
   12.1340   -0.5001    0.0000 H   0  0
   12.9999   -1.0000    0.0000 H   0  0
   14.2999   -0.2500    0.0000 H   0  0
   15.5999   -1.0000    0.0000 H   0  0
   14.7339   -0.5001    0.0000 H   0  0
   16.8999    1.7500    0.0000 H   0  0
   16.0339    1.2501    0.0000 H   0  0
   18.1999   -1.0000    0.0000 H   0  0
   17.3339   -0.5001    0.0000 H   0  0
   20.3660    0.2503    0.0000 H   0  0
   19.4998    1.7500    0.0000 H   0  0
   20.3658    1.2501    0.0000 H   0  0
   13.4337    2.7505    0.0000 H   0  0
   14.2994    3.2507    0.0000 H   0  0
   15.5992    4.0020    0.0000 H   0  0
   16.4653    2.5023    0.0000 H   0  0
   16.4651    3.5021    0.0000 H   0  0
    9.9438   -2.7667    0.0000 H   0  0
    9.9428   -1.7668    0.0000 H   0  0
    8.6452   -3.5190    0.0000 H   0  0
    8.6453   -4.0200    0.0000 H   0  0
    8.6464   -5.0198    0.0000 H   0  0
    6.4798   -4.2731    0.0000 H   0  0
    5.6145   -4.7741    0.0000 H   0  0
    7.3479   -6.2731    0.0000 H   0  0
    7.3489   -7.2729    0.0000 H   0  0
    5.1845   -8.5262    0.0000 H   0  0
    4.3182   -8.0271    0.0000 H   0  0
    4.3171   -7.0272    0.0000 H   0  0
    5.6112   -1.7725    0.0000 H   0  0
    5.6127   -2.7723    0.0000 H   0  0
    5.6088   -0.2712    0.0000 H   0  0
    6.4741    0.2297    0.0000 H   0  0
    7.3407   -0.2690    0.0000 H   0  0
  1  2  2  0
  2  3  1  0
  2 12  1  0
  2 21  1  0
  3  4  1  0
  4  5  1  0
  5  6  1  0
  5 10  1  0
  6  7  1  0
  7  8  1  0
  8  9  1  0
 10 11  1  0
 12 13  1  0
 13 14  1  0
 14 15  1  0
 14 19  1  0
 15 16  1  0
 16 17  1  0
 17 18  1  0
 19 20  1  0
 21 22  1  0
 22 23  1  0
 23 24  1  0
 23 28  1  0
 24 25  1  0
 25 26  1  0
 26 27  1  0
 28 29  1  0
  4 30  1  0
  4 31  1  0
  5 32  1  0
  6 33  1  0
  6 34  1  0
  7 35  1  0
  7 36  1  0
  8 37  1  0
  8 38  1  0
  9 39  1  0
  9 40  1  0
  9 41  1  0
 10 42  1  0
 10 43  1  0
 11 44  1  0
 11 45  1  0
 11 46  1  0
 13 47  1  0
 13 48  1  0
 14 49  1  0
 15 50  1  0
 15 51  1  0
 16 52  1  0
 16 53  1  0
 17 54  1  0
 17 55  1  0
 18 56  1  0
 18 57  1  0
 18 58  1  0
 19 59  1  0
 19 60  1  0
 20 61  1  0
 20 62  1  0
 20 63  1  0
 22 64  1  0
 22 65  1  0
 23 66  1  0
 24 67  1  0
 24 68  1  0
 25 69  1  0
 25 70  1  0
 26 71  1  0
 26 72  1  0
 27 73  1  0
 27 74  1  0
 27 75  1  0
 28 76  1  0
 28 77  1  0
 29 78  1  0
 29 79  1  0
 29 80  1  0
V    1 0
V    2 1
V    3 2
V    4 3
V    5 4
V    6 5
V    7 6
V    8 7
V    9 8
V   10 9
V   11 10
V   12 11
V   13 12
V   14 13
V   15 14
V   16 15
V   17 16
V   18 17
V   19 18
V   20 19
V   21 20
V   22 21
V   23 22
V   24 23
V   25 24
V   26 25
V   27 26
V   28 27
V   29 28
M  END
> <DSSTox_RID>
60048

> <DSSTox_CID>
1414

> <DSSTox_CID_Parent>
1414

> <DSSTox_Generic_SID>
21414

> <DSSTox_FileID>
228_TXCST2_v1a

> <STRUCTURE_Formula>
C24H51O4P

> <STRUCTURE_MolecularWeight>
434.6331

> <STRUCTURE_ChemicalType>
defined organic

> <STRUCTURE_TestedForm_DefinedOrganic>
parent

> <STRUCTURE_Shown>
tested chemical

> <TestSubstance_ChemicalName>
Tris(2-ethylhexyl) phosphate

> <TestSubstance_CASRN>
78-42-2

> <TestSubstance_Description>
single chemical compound

> <STRUCTURE_ChemicalName_IUPAC>
tris(2-ethylhexyl) phosphate

> <STRUCTURE_SMILES>
O=P(OCC(CCCC)CC)(OCC(CCCC)CC)OCC(CCCC)CC

> <STRUCTURE_Parent_SMILES>
O=P(OCC(CCCC)CC)(OCC(CCCC)CC)OCC(CCCC)CC

> <STRUCTURE_InChIS>
InChI=1S/C24H51O4P/c1-7-13-16-22(10-4)19-26-29(25,27-20-23(11-5)17-14-8-2)28-21-24(12-6)18-15-9-3/h22-24H,7-21H2,1-6H3

> <STRUCTURE_InChIKey>
GTVWRXDRKAHEAD-UHFFFAOYSA-N

> <Substance_modify_yyyymmdd>
20080429

> <Coord_Metals>
0

> <Index>
228

> <Canonical_Smiles>
CCCCC(CC)COP(=O)(OCC(CC)CCCC)OCC(CC)CCCC

> <Molecular_Weight>
434.6331

> <Frequency>
1

$$$$

  SciTegic          2D

 27 28  0  0  0  0            999 V2000
    4.1211   -4.3589    0.0000 C   0  0
    2.6342   -4.0761    0.0000 N   0  0
    3.6516   -2.9334    0.0000 C   0  0
    2.1825   -2.6263    0.0000 C   0  0
    1.7138   -1.2033    0.0000 C   0  0
    2.5889    0.0182    0.0000 C   0  0
    1.7138    1.2033    0.0000 N   0  0
    0.2917    0.7475    0.0000 C   0  0
   -1.0028    1.5132    0.0000 C   0  0
   -2.3155    0.7475    0.0000 C   0  0
   -2.3155   -0.7475    0.0000 C   0  0
   -1.0028   -1.5132    0.0000 C   0  0
    0.2917   -0.7475    0.0000 C   0  0
    3.4548   -5.1045    0.0000 O   0  0
    5.5902   -4.6660    0.0000 O   0  0
    2.9480   -5.0256    0.0000 H   0  0
    1.6550   -3.8733    0.0000 H   0  0
    4.3180   -2.1878    0.0000 H   0  0
    1.2036   -2.4222    0.0000 H   0  0
    1.5162   -3.3719    0.0000 H   0  0
    3.5889    0.0254    0.0000 H   0  0
    2.0210    2.1549    0.0000 H   0  0
   -0.9997    2.5132    0.0000 H   0  0
   -3.1826    1.2456    0.0000 H   0  0
   -3.1826   -1.2456    0.0000 H   0  0
   -0.9997   -2.5132    0.0000 H   0  0
    5.9030   -5.6158    0.0000 H   0  0
  1  3  1  0
  1 14  2  0
  1 15  1  0
  3  2  1  0
  3  4  1  0
  4  5  1  0
  5  6  2  0
  5 13  1  0
  6  7  1  0
  7  8  1  0
  8  9  2  0
  8 13  1  0
  9 10  1  0
 10 11  2  0
 11 12  1  0
 12 13  2  0
  2 16  1  0
  2 17  1  0
  3 18  1  0
  4 19  1  0
  4 20  1  0
  6 21  1  0
  7 22  1  0
  9 23  1  0
 10 24  1  0
 11 25  1  0
 12 26  1  0
 15 27  1  0
V    1 0
V    2 1
V    3 2
V    4 3
V    5 4
V    6 5
V    7 6
V    8 7
V    9 8
V   10 9
V   11 10
V   12 11
V   13 12
V   14 13
V   15 14
M  END
> <DSSTox_RID>
60423

> <DSSTox_CID>
1419

> <DSSTox_CID_Parent>
1419

> <DSSTox_Generic_SID>
21419

> <DSSTox_FileID>
229_TXCST2_v1a

> <STRUCTURE_Formula>
C11H12N2O2

> <STRUCTURE_MolecularWeight>
204.2252

> <STRUCTURE_ChemicalType>
defined organic

> <STRUCTURE_TestedForm_DefinedOrganic>
parent

> <STRUCTURE_Shown>
tested chemical

> <TestSubstance_ChemicalName>
L-Tryptophan

> <TestSubstance_CASRN>
73-22-3

> <TestSubstance_Description>
single chemical compound

> <ChemicalNote>
stereochem

> <STRUCTURE_ChemicalName_IUPAC>
L-tryptophan

> <STRUCTURE_SMILES>
O=C(O)[C@@H](N)CC1=CNC2=C1C=CC=C2

> <STRUCTURE_Parent_SMILES>
O=C(O)[C@@H](N)CC1=CNC2=C1C=CC=C2

> <STRUCTURE_InChIS>
InChI=1S/C11H12N2O2/c12-9(11(14)15)5-7-6-13-10-4-2-1-3-8(7)10/h1-4,6,9,13H,5,12H2,(H,14,15)/t9-/m0/s1

> <STRUCTURE_InChIKey>
QIVBCDIJIAJPQS-VIFPVBQESA-N

> <Substance_modify_yyyymmdd>
20080429

> <Coord_Metals>
0

> <Index>
229

> <Canonical_Smiles>
NC(Cc1c[nH]c2ccccc12)C(=O)O

> <Molecular_Weight>
204.22517

> <Frequency>
1

$$$$

  SciTegic          2D

  8  7  0  0  0  0            999 V2000
    2.6000    0.0000    0.0000 C   0  0
    1.3000    0.7500    0.0000 N   0  0
    3.9000    0.7500    0.0000 N   0  0
    2.6000   -1.2000    0.0000 O   0  0
    0.4338    0.2503    0.0000 H   0  0
    1.3000    1.7500    0.0000 H   0  0
    4.7662    0.2503    0.0000 H   0  0
    3.9000    1.7500    0.0000 H   0  0
  1  2  1  0
  1  3  1  0
  1  4  2  0
  2  5  1  0
  2  6  1  0
  3  7  1  0
  3  8  1  0
V    1 0
V    2 1
V    3 2
V    4 3
M  END
> <DSSTox_RID>
66539

> <DSSTox_CID>
1426

> <DSSTox_CID_Parent>
1426

> <DSSTox_Generic_SID>
21426

> <DSSTox_FileID>
230_TXCST2_v1a

> <STRUCTURE_Formula>
CH4N2O

> <STRUCTURE_MolecularWeight>
60.0553

> <STRUCTURE_ChemicalType>
defined organic

> <STRUCTURE_TestedForm_DefinedOrganic>
parent

> <STRUCTURE_Shown>
tested chemical

> <TestSubstance_ChemicalName>
Urea

> <TestSubstance_CASRN>
57-13-6

> <TestSubstance_Description>
single chemical compound

> <STRUCTURE_ChemicalName_IUPAC>
urea

> <STRUCTURE_SMILES>
C(N)(N)=O

> <STRUCTURE_Parent_SMILES>
C(N)(N)=O

> <STRUCTURE_InChIS>
InChI=1S/CH4N2O/c2-1(3)4/h(H4,2,3,4)

> <STRUCTURE_InChIKey>
XSQUKJJJFZCRTK-UHFFFAOYSA-N

> <Substance_modify_yyyymmdd>
20080429

> <Coord_Metals>
0

> <Index>
230

> <Canonical_Smiles>
NC(=O)N

> <Molecular_Weight>
60.05526

> <Frequency>
1

$$$$

  SciTegic          2D

 13 12  0  0  0  0            999 V2000
    1.3000    0.7500    0.0000 N   0  0
    2.6000    0.0000    0.0000 C   0  0
    2.6000   -1.2000    0.0000 O   0  0
    3.9000    0.7500    0.0000 O   0  0
    5.2000    0.0000    0.0000 C   0  0
    6.5000    0.7500    0.0000 C   0  0
    0.4338    0.2503    0.0000 H   0  0
    1.3000    1.7500    0.0000 H   0  0
    5.2000   -1.0000    0.0000 H   0  0
    4.3340   -0.5001    0.0000 H   0  0
    7.3661    0.2503    0.0000 H   0  0
    6.5000    1.7500    0.0000 H   0  0
    7.3659    1.2501    0.0000 H   0  0
  1  2  1  0
  2  3  2  0
  2  4  1  0
  4  5  1  0
  5  6  1  0
  1  7  1  0
  1  8  1  0
  5  9  1  0
  5 10  1  0
  6 11  1  0
  6 12  1  0
  6 13  1  0
V    1 0
V    2 1
V    3 2
V    4 3
V    5 4
V    6 5
M  END
> <DSSTox_RID>
60150

> <DSSTox_CID>
1427

> <DSSTox_CID_Parent>
1427

> <DSSTox_Generic_SID>
21427

> <DSSTox_FileID>
231_TXCST2_v1a

> <STRUCTURE_Formula>
C3H7NO2

> <STRUCTURE_MolecularWeight>
89.0932

> <STRUCTURE_ChemicalType>
defined organic

> <STRUCTURE_TestedForm_DefinedOrganic>
parent

> <STRUCTURE_Shown>
tested chemical

> <TestSubstance_ChemicalName>
Urethane (ethyl carbamate)

> <TestSubstance_CASRN>
51-79-6

> <TestSubstance_Description>
single chemical compound

> <STRUCTURE_ChemicalName_IUPAC>
ethyl carbamate

> <STRUCTURE_SMILES>
NC(=O)OCC

> <STRUCTURE_Parent_SMILES>
NC(=O)OCC

> <STRUCTURE_InChIS>
InChI=1S/C3H7NO2/c1-2-6-3(4)5/h2H2,1H3,(H2,4,5)

> <STRUCTURE_InChIKey>
JOYRKODLDBILNP-UHFFFAOYSA-N

> <Substance_modify_yyyymmdd>
20080429

> <Coord_Metals>
0

> <Index>
231

> <Canonical_Smiles>
CCOC(=O)N

> <Molecular_Weight>
89.09318

> <Frequency>
1

$$$$

  SciTegic          2D

 17 17  0  0  0  0            999 V2000
    0.7500   -1.0323    0.0000 C   0  0
    1.2135    0.3943    0.0000 C   0  0
   -0.7500   -1.0323    0.0000 N   0  0
    0.0000    1.2760    0.0000 C   0  0
   -1.2135    0.3943    0.0000 C   0  0
   -2.3548    0.7651    0.0000 O   0  0
   -1.6332   -2.2426    0.0000 C   0  0
   -3.1255   -2.0835    0.0000 C   0  0
    1.7428   -0.9129    0.0000 H   0  0
    0.3298   -1.9397    0.0000 H   0  0
    1.9466   -0.2859    0.0000 H   0  0
    1.4069    1.3754    0.0000 H   0  0
    0.8734    1.7629    0.0000 H   0  0
   -0.8734    1.7631    0.0000 H   0  0
   -1.2280   -3.1568    0.0000 H   0  0
   -3.7150   -2.8913    0.0000 H   0  0
   -3.5307   -1.1693    0.0000 H   0  0
  1  2  1  0
  1  3  1  0
  2  4  1  0
  3  5  1  0
  3  7  1  0
  4  5  1  0
  5  6  2  0
  7  8  2  0
  1  9  1  0
  1 10  1  0
  2 11  1  0
  2 12  1  0
  4 13  1  0
  4 14  1  0
  7 15  1  0
  8 16  1  0
  8 17  1  0
V    1 0
V    2 1
V    3 2
V    4 3
V    5 4
V    6 5
V    7 6
V    8 7
M  END
> <DSSTox_RID>
65565

> <DSSTox_CID>
1440

> <DSSTox_CID_Parent>
1440

> <DSSTox_Generic_SID>
21440

> <DSSTox_FileID>
232_TXCST2_v1a

> <STRUCTURE_Formula>
C6H9NO

> <STRUCTURE_MolecularWeight>
111.1418

> <STRUCTURE_ChemicalType>
defined organic

> <STRUCTURE_TestedForm_DefinedOrganic>
parent

> <STRUCTURE_Shown>
tested chemical

> <TestSubstance_ChemicalName>
1-Vinyl-2-pyrrolidone

> <TestSubstance_CASRN>
88-12-0

> <TestSubstance_Description>
single chemical compound

> <STRUCTURE_ChemicalName_IUPAC>
1-vinylpyrrolidin-2-one

> <STRUCTURE_SMILES>
O=C1N(C=C)CCC1

> <STRUCTURE_Parent_SMILES>
O=C1N(C=C)CCC1

> <STRUCTURE_InChIS>
InChI=1S/C6H9NO/c1-2-7-5-3-4-6(7)8/h2H,1,3-5H2

> <STRUCTURE_InChIKey>
WHNWPMSKXPGLAX-UHFFFAOYSA-N

> <Substance_modify_yyyymmdd>
20080429

> <Coord_Metals>
0

> <Index>
232

> <Canonical_Smiles>
C=CN1CCCC1=O

> <Molecular_Weight>
111.14176

> <Frequency>
1

$$$$

  SciTegic          2D

 43 45  0  0  0  0            999 V2000
    2.7343   -2.9815    0.0000 N   0  0
    2.5987   -1.5004    0.0000 N   0  0
    4.9531   -1.9978    0.0000 C   0  0
    3.9511   -0.8815    0.0000 C   0  0
    4.2010   -3.2956    0.0000 C   0  0
    4.8054   -4.6666    0.0000 C   0  0
    5.9984   -4.7960    0.0000 O   0  0
    3.9196   -5.8781    0.0000 O   0  0
    4.2567    0.5852    0.0000 O   0  0
    1.2990   -0.7500    0.0000 C   0  0
    1.2990    0.7500    0.0000 C   0  0
    0.0000   -1.5000    0.0000 C   0  0
    0.0000    1.5000    0.0000 C   0  0
   -1.2990   -0.7500    0.0000 C   0  0
   -1.2990    0.7500    0.0000 C   0  0
   -2.5988    1.5004    0.0000 S   0  0
   -3.6378    0.9001    0.0000 O   0  0
   -3.6383    2.0999    0.0000 O   0  0
   -2.5998    3.0012    0.0000 O   0  0
    6.4437   -1.8466    0.0000 N   0  0
    7.3221   -3.0635    0.0000 N   0  0
    8.8153   -2.9121    0.0000 C   0  0
    9.6951   -4.1270    0.0000 C   0  0
    9.4277   -1.5427    0.0000 C   0  0
   11.1872   -3.9726    0.0000 C   0  0
   10.9198   -1.3883    0.0000 C   0  0
   11.7995   -2.6033    0.0000 C   0  0
   13.2923   -2.4488    0.0000 S   0  0
   13.7818   -1.3532    0.0000 O   0  0
   14.4859   -2.3248    0.0000 O   0  0
   14.1733   -3.6639    0.0000 O   0  0
    4.3229   -6.7931    0.0000 H   0  0
    5.2063    0.8987    0.0000 H   0  0
    2.1651    1.2500    0.0000 H   0  0
    0.0000   -2.5000    0.0000 H   0  0
    0.0000    2.5000    0.0000 H   0  0
   -2.1651   -1.2500    0.0000 H   0  0
   -3.4658    3.5012    0.0000 H   0  0
    9.2869   -5.0399    0.0000 H   0  0
    8.8413   -0.7327    0.0000 H   0  0
   11.7736   -4.7826    0.0000 H   0  0
   11.3280   -0.4755    0.0000 H   0  0
   15.1680   -3.5610    0.0000 H   0  0
  1  2  1  0
  1  5  2  0
  2  4  1  0
  2 10  1  0
  3  4  2  0
  3  5  1  0
 20  3  1  0
  4  9  1  0
  5  6  1  0
  6  7  2  0
  6  8  1  0
 10 11  2  0
 10 12  1  0
 11 13  1  0
 12 14  2  0
 13 15  2  0
 14 15  1  0
 15 16  1  0
 16 17  2  0
 16 18  2  0
 16 19  1  0
 20 21  2  0
 21 22  1  0
 22 23  2  0
 22 24  1  0
 23 25  1  0
 24 26  2  0
 25 27  2  0
 26 27  1  0
 27 28  1  0
 28 29  2  0
 28 30  2  0
 28 31  1  0
  8 32  1  0
  9 33  1  0
 11 34  1  0
 12 35  1  0
 13 36  1  0
 14 37  1  0
 19 38  1  0
 23 39  1  0
 24 40  1  0
 25 41  1  0
 26 42  1  0
 31 43  1  0
V    1 3
V    2 4
V    3 5
V    4 6
V    5 7
V    6 8
V    7 9
V    8 10
V    9 11
V   10 12
V   11 13
V   12 14
V   13 15
V   14 16
V   15 17
V   16 18
V   17 19
V   18 20
V   19 21
V   20 22
V   21 23
V   22 24
V   23 25
V   24 26
V   25 27
V   26 28
V   27 29
V   28 30
V   29 31
V   30 32
V   31 33
M  END
> <DSSTox_RID>
60844

> <DSSTox_CID>
1455

> <DSSTox_CID_Parent>
27212

> <DSSTox_Generic_SID>
21455

> <DSSTox_FileID>
233_TXCST2_v1a

> <STRUCTURE_Formula>
C16H9N4Na3O9S2

> <STRUCTURE_MolecularWeight>
534.3634

> <STRUCTURE_ChemicalType>
defined organic

> <STRUCTURE_TestedForm_DefinedOrganic>
salt 3Na

> <STRUCTURE_Shown>
tested chemical

> <TestSubstance_ChemicalName>
FD & C Yellow 5

> <TestSubstance_CASRN>
1934-21-0

> <TestSubstance_Description>
single chemical compound

> <ChemicalNote>
C.I. 19140; tautomers; parent [34175-08-1]

> <STRUCTURE_ChemicalName_IUPAC>
trisodium 5-oxo-1-(4-sulfonatophenyl)-4-[(E)-(4-sulfonatophenyl)diazenyl]-2,5-dihydro-1H-pyrazole-3-carboxylate

> <STRUCTURE_SMILES>
O=C([O-])C(NN1C2=CC=C(S(=O)([O-])=O)C=C2)=C(/N=N/C3=CC=C(S(=O)([O-])=O)C=C3)C1=O.[Na+].[Na+].[Na+]

> <STRUCTURE_Parent_SMILES>
O=C(O)C(NN1C2=CC=C(S(=O)(O)=O)C=C2)=C(/N=N/C3=CC=C(S(=O)(O)=O)C=C3)C1=O

> <STRUCTURE_InChIS>
InChI=1S/C16H12N4O9S2.3Na/c21-15-13(18-17-9-1-5-11(6-2-9)30(24,25)26)14(16(22)23)19-20(15)10-3-7-12(8-4-10)31(27,28)29;;;/h1-8,19H,(H,22,23)(H,24,25,26)(H,27,28,29);;;/q;3*+1/p-3/b18-17+;;;

> <STRUCTURE_InChIKey>
ZLWLTDZLUVBSRJ-GLCFPVLVSA-K

> <Substance_modify_yyyymmdd>
20080429

> <Coord_Metals>
0

> <Index>
233

> <Canonical_Smiles>
OC(=O)c1nn(c(O)c1N=Nc2ccc(cc2)S(=O)(=O)O)c3ccc(cc3)S(=O)(=O)O

> <Molecular_Weight>
468.41788

> <Frequency>
1

$$$$

  SciTegic          2D

 39 41  0  0  0  0            999 V2000
   -3.9106    1.4992    0.0000 S   0  0
   -2.6111    0.7486    0.0000 C   0  0
   -1.2964    1.4973    0.0000 C   0  0
    0.0000    0.7486    0.0000 C   0  0
    0.0000   -0.7486    0.0000 C   0  0
    1.2964   -1.4973    0.0000 C   0  0
    1.2995   -2.9981    0.0000 N   0  0
    2.6003   -3.7467    0.0000 N   0  0
    2.6034   -5.2475    0.0000 C   0  0
    3.9025   -5.9976    0.0000 C   0  0
    3.9025   -7.4976    0.0000 C   0  0
    2.6035   -8.2476    0.0000 C   0  0
    2.6035   -9.7484    0.0000 S   0  0
    3.9028  -10.4996    0.0000 O   0  0
    1.5641  -10.3481    0.0000 O   0  0
    2.6030  -10.9484    0.0000 O   0  0
    1.3044   -7.4976    0.0000 C   0  0
    1.3044   -5.9976    0.0000 C   0  0
    2.5929   -0.7486    0.0000 C   0  0
    3.8942   -1.4964    0.0000 O   0  0
    2.5929    0.7486    0.0000 C   0  0
    1.2964    1.4973    0.0000 C   0  0
   -1.2964   -1.4973    0.0000 C   0  0
   -2.6111   -0.7486    0.0000 C   0  0
   -3.9114    3.0001    0.0000 O   0  0
   -4.9497    0.8990    0.0000 O   0  0
   -4.9500    2.0989    0.0000 O   0  0
   -1.2934    2.4973    0.0000 H   0  0
    4.7685   -5.4976    0.0000 H   0  0
    4.7685   -7.9976    0.0000 H   0  0
    3.9028  -11.4996    0.0000 H   0  0
    0.4384   -7.9977    0.0000 H   0  0
    0.4383   -5.4977    0.0000 H   0  0
    4.7595   -0.9952    0.0000 H   0  0
    3.4589    1.2486    0.0000 H   0  0
    1.2964    2.4973    0.0000 H   0  0
   -1.2934   -2.4973    0.0000 H   0  0
   -3.4756   -1.2512    0.0000 H   0  0
   -4.7773    3.5002    0.0000 H   0  0
  1  2  1  0
  1 25  1  0
  1 26  2  0
  1 27  2  0
  2  3  2  0
  2 24  1  0
  3  4  1  0
  4  5  2  0
  4 22  1  0
  5  6  1  0
  5 23  1  0
  7  6  1  0
  6 19  2  0
  7  8  2  0
  8  9  1  0
  9 10  2  0
  9 18  1  0
 10 11  1  0
 11 12  2  0
 12 13  1  0
 12 17  1  0
 13 14  1  0
 13 15  2  0
 13 16  2  0
 17 18  2  0
 19 20  1  0
 19 21  1  0
 21 22  2  0
 23 24  2  0
  3 28  1  0
 10 29  1  0
 11 30  1  0
 14 31  1  0
 17 32  1  0
 18 33  1  0
 20 34  1  0
 21 35  1  0
 22 36  1  0
 23 37  1  0
 24 38  1  0
 25 39  1  0
V    1 0
V    2 1
V    3 2
V    4 3
V    5 4
V    6 5
V    7 6
V    8 7
V    9 8
V   10 9
V   11 10
V   12 11
V   13 12
V   14 13
V   15 14
V   16 15
V   17 16
V   18 17
V   19 18
V   20 19
V   21 20
V   22 21
V   23 22
V   24 23
V   25 24
V   26 25
V   27 26
M  END
> <DSSTox_RID>
66345

> <DSSTox_CID>
1456

> <DSSTox_CID_Parent>
24287

> <DSSTox_Generic_SID>
21456

> <DSSTox_FileID>
234_TXCST2_v1a

> <STRUCTURE_Formula>
C16H10N2Na2O7S2

> <STRUCTURE_MolecularWeight>
452.3693

> <STRUCTURE_ChemicalType>
defined organic

> <STRUCTURE_TestedForm_DefinedOrganic>
salt 2Na

> <STRUCTURE_Shown>
tested chemical

> <TestSubstance_ChemicalName>
FD&C Yellow 6

> <TestSubstance_CASRN>
2783-94-0

> <TestSubstance_Description>
single chemical compound

> <ChemicalNote>
C.I. 15985

> <STRUCTURE_ChemicalName_IUPAC>
disodium 6-hydroxy-5-[(Z)-(4-sulfonatophenyl)diazenyl]naphthalene-2-sulfonate

> <STRUCTURE_SMILES>
O=S(C1=CC=C2C(C=CC(O)=C2\N=N/C3=CC=C(S(=O)([O-])=O)C=C3)=C1)([O-])=O.[Na+].[Na+]

> <STRUCTURE_Parent_SMILES>
O=S(C1=CC=C2C(C=CC(O)=C2\N=N/C3=CC=C(S(=O)(O)=O)C=C3)=C1)(O)=O

> <STRUCTURE_InChIS>
InChI=1S/C16H12N2O7S2.2Na/c19-15-8-1-10-9-13(27(23,24)25)6-7-14(10)16(15)18-17-11-2-4-12(5-3-11)26(20,21)22;;/h1-9,19H,(H,20,21,22)(H,23,24,25);;/q;2*+1/p-2/b18-17+;;

> <STRUCTURE_InChIKey>
OIQPTROHQCGFEF-QIKYXUGXSA-L

> <Substance_modify_yyyymmdd>
20080429

> <Coord_Metals>
0

> <Index>
234

> <Canonical_Smiles>
Oc1ccc2cc(ccc2c1N=Nc3ccc(cc3)S(=O)(=O)O)S(=O)(=O)O

> <Molecular_Weight>
408.40568

> <Frequency>
1

$$$$

  SciTegic          2D

 13 12  0  0  0  0            999 V2000
    3.9000    1.9500    0.0000 S   0  0
    3.9000    0.7500    0.0000 C   0  0
    2.6000    0.0000    0.0000 N   0  0
    1.3000    0.7500    0.0000 C   0  0
    2.6031   -1.5008    0.0000 C   0  0
    5.2000    0.0000    0.0000 S   0  0
    0.4338    0.2503    0.0000 H   0  0
    1.3000    1.7500    0.0000 H   0  0
    0.4340    1.2501    0.0000 H   0  0
    3.4698   -1.9996    0.0000 H   0  0
    1.7379   -2.0023    0.0000 H   0  0
    2.6046   -2.5008    0.0000 H   0  0
    6.0661    0.4997    0.0000 H   0  0
  1  2  2  0
  2  3  1  0
  2  6  1  0
  3  4  1  0
  3  5  1  0
  4  7  1  0
  4  8  1  0
  4  9  1  0
  5 10  1  0
  5 11  1  0
  5 12  1  0
  6 13  1  0
V    1 0
V    2 1
V    3 2
V    4 3
V    5 4
V    6 5
M  END
> <DSSTox_RID>
60029
59555

> <DSSTox_CID>
1464
7050

> <DSSTox_Generic_SID>
21464
27050

> <DSSTox_FileID>
235_TXCST2_v1a
562_TXCST2_v1a

> <STRUCTURE_Formula>
C6H12N2S4Zn
C3H6NNaS2

> <STRUCTURE_MolecularWeight>
305.8419
143.2062

> <STRUCTURE_ChemicalType>
organometallic
defined organic

> <STRUCTURE_Shown>
tested chemical
tested chemical

> <TestSubstance_ChemicalName>
Ziram
Sodium dimethyldithiocarbamate

> <TestSubstance_CASRN>
137-30-4
128-04-1

> <TestSubstance_Description>
single chemical compound
single chemical compound

> <STRUCTURE_ChemicalName_IUPAC>
zinc bis(dimethyldithiocarbamate)
sodium dimethyldithiocarbamate

> <STRUCTURE_SMILES>
S=C([S-])N(C)C.[S-]C(N(C)C)=S.[Zn+2]
[S-]C(N(C)C)=S.[Na+]

> <STRUCTURE_InChIS>
InChI=1S/2C3H7NS2.Zn/c2*1-4(2)3(5)6;/h2*1-2H3,(H,5,6);/q;;+2/p-2
InChI=1S/C3H7NS2.Na/c1-4(2)3(5)6;/h1-2H3,(H,5,6);/q;+1/p-1

> <STRUCTURE_InChIKey>
DUBNHZYBDBBJHD-UHFFFAOYSA-L
VMSRVIHUFHQIAL-UHFFFAOYSA-M

> <Substance_modify_yyyymmdd>
20080429
20080429

> <Coord_Metals>
0
0

> <Index>
235
562

> <Canonical_Smiles>
CN(C)C(=S)S

> <Molecular_Weight>
121.22438
121.22438

> <DSSTox_CID_Parent>
23797

> <STRUCTURE_TestedForm_DefinedOrganic>
salt Na

> <ChemicalNote>
parent [79-45-8]

> <STRUCTURE_Parent_SMILES>
SC(N(C)C)=S

> <Frequency>
2

$$$$

  SciTegic          2D

 18 18  0  0  0  0            999 V2000
    2.5951   -3.0039    0.0000 O   0  0
    2.5973   -1.5031    0.0000 C   0  0
    1.2990   -0.7500    0.0000 C   0  0
    1.2990    0.7500    0.0000 C   0  0
    0.0000    1.5000    0.0000 C   0  0
   -0.0031    3.0008    0.0000 C   0  0
   -1.3039    3.7494    0.0000 O   0  0
    1.0351    3.6026    0.0000 O   0  0
   -1.2990    0.7500    0.0000 C   0  0
   -1.2990   -0.7500    0.0000 C   0  0
    0.0000   -1.5000    0.0000 C   0  0
    3.6375   -0.9049    0.0000 O   0  0
    3.4601   -3.5057    0.0000 H   0  0
    2.1651    1.2500    0.0000 H   0  0
   -1.3060    4.7494    0.0000 H   0  0
   -2.1651    1.2500    0.0000 H   0  0
   -2.1651   -1.2500    0.0000 H   0  0
    0.0000   -2.5000    0.0000 H   0  0
  1  2  1  0
  2  3  1  0
  2 12  2  0
  3  4  2  0
  3 11  1  0
  4  5  1  0
  5  6  1  0
  5  9  2  0
  6  7  1  0
  6  8  2  0
  9 10  1  0
 10 11  2  0
  1 13  1  0
  4 14  1  0
  7 15  1  0
  9 16  1  0
 10 17  1  0
 11 18  1  0
V    1 0
V    2 1
V    3 2
V    4 3
V    5 4
V    6 5
V    7 6
V    8 7
V    9 8
V   10 9
V   11 10
V   12 11
M  END
> <DSSTox_RID>
59788

> <DSSTox_CID>
1485

> <DSSTox_CID_Parent>
1485

> <DSSTox_Generic_SID>
21485

> <DSSTox_FileID>
236_TXCST2_v1a

> <STRUCTURE_Formula>
C8H6O4

> <STRUCTURE_MolecularWeight>
166.1308

> <STRUCTURE_ChemicalType>
defined organic

> <STRUCTURE_TestedForm_DefinedOrganic>
parent

> <STRUCTURE_Shown>
tested chemical

> <TestSubstance_ChemicalName>
1,3-Benzenedicarboxylic acid

> <TestSubstance_CASRN>
121-91-5

> <TestSubstance_Description>
single chemical compound

> <STRUCTURE_ChemicalName_IUPAC>
isophthalic acid

> <STRUCTURE_SMILES>
OC(C1=CC(C(O)=O)=CC=C1)=O

> <STRUCTURE_Parent_SMILES>
OC(C1=CC(C(O)=O)=CC=C1)=O

> <STRUCTURE_InChIS>
InChI=1S/C8H6O4/c9-7(10)5-2-1-3-6(4-5)8(11)12/h1-4H,(H,9,10)(H,11,12)

> <STRUCTURE_InChIKey>
QQVIHTHCMHWDBS-UHFFFAOYSA-N

> <Substance_modify_yyyymmdd>
20080429

> <Coord_Metals>
0

> <Index>
236

> <Canonical_Smiles>
OC(=O)c1cccc(c1)C(=O)O

> <Molecular_Weight>
166.13083

> <Frequency>
1

$$$$

  SciTegic          2D

 14 13  0  0  0  0            999 V2000
    1.3000    0.7500    0.0000 O   0  0
    2.6000    0.0000    0.0000 C   0  0
    3.9000    0.7500    0.0000 C   0  0
    5.2000    0.0000    0.0000 C   0  0
    6.5000    0.7500    0.0000 C   0  0
    2.6000   -1.2000    0.0000 O   0  0
    0.4338    0.2503    0.0000 H   0  0
    3.0340    1.2501    0.0000 H   0  0
    3.9000    1.7500    0.0000 H   0  0
    4.3340   -0.5001    0.0000 H   0  0
    5.2000   -1.0000    0.0000 H   0  0
    7.3661    0.2503    0.0000 H   0  0
    7.3659    1.2501    0.0000 H   0  0
    6.5000    1.7500    0.0000 H   0  0
  1  2  1  0
  2  3  1  0
  2  6  2  0
  3  4  1  0
  4  5  1  0
  1  7  1  0
  3  8  1  0
  3  9  1  0
  4 10  1  0
  4 11  1  0
  5 12  1  0
  5 13  1  0
  5 14  1  0
V    1 0
V    2 1
V    3 2
V    4 3
V    5 4
V    6 5
M  END
> <DSSTox_RID>
59885

> <DSSTox_CID>
1515

> <DSSTox_CID_Parent>
1515

> <DSSTox_Generic_SID>
21515

> <DSSTox_FileID>
237_TXCST2_v1a

> <STRUCTURE_Formula>
C4H8O2

> <STRUCTURE_MolecularWeight>
88.1051

> <STRUCTURE_ChemicalType>
defined organic

> <STRUCTURE_TestedForm_DefinedOrganic>
parent

> <STRUCTURE_Shown>
tested chemical

> <TestSubstance_ChemicalName>
Butanoic acid

> <TestSubstance_CASRN>
107-92-6

> <TestSubstance_Description>
single chemical compound

> <STRUCTURE_ChemicalName_IUPAC>
butyric acid

> <STRUCTURE_SMILES>
OC(CCC)=O

> <STRUCTURE_Parent_SMILES>
OC(CCC)=O

> <STRUCTURE_InChIS>
InChI=1S/C4H8O2/c1-2-3-4(5)6/h2-3H2,1H3,(H,5,6)

> <STRUCTURE_InChIKey>
FERIUCNNQQJTOY-UHFFFAOYSA-N

> <Substance_modify_yyyymmdd>
20080429

> <Coord_Metals>
0

> <Index>
237

> <Canonical_Smiles>
CCCC(=O)O

> <Molecular_Weight>
88.10512

> <Frequency>
1

$$$$

  SciTegic          2D

 29 28  0  0  0  0            999 V2000
    1.3000    0.7500    0.0000 C   0  0
    2.6000    0.0000    0.0000 C   0  0
    3.9000    0.7500    0.0000 C   0  0
    5.2000    0.0000    0.0000 C   0  0
    6.5000    0.7500    0.0000 O   0  0
    7.7999    0.0000    0.0000 C   0  0
    9.0999    0.7500    0.0000 C   0  0
   10.3999    0.0000    0.0000 O   0  0
   11.6999    0.7500    0.0000 C   0  0
   12.9999    0.0000    0.0000 C   0  0
   14.2999    0.7500    0.0000 O   0  0
    0.4338    0.2503    0.0000 H   0  0
    1.3000    1.7500    0.0000 H   0  0
    0.4340    1.2501    0.0000 H   0  0
    2.6000   -1.0000    0.0000 H   0  0
    1.7340   -0.5001    0.0000 H   0  0
    3.9000    1.7500    0.0000 H   0  0
    3.0340    1.2501    0.0000 H   0  0
    5.2000   -1.0000    0.0000 H   0  0
    6.0659   -0.5001    0.0000 H   0  0
    7.7999   -1.0000    0.0000 H   0  0
    6.9340   -0.5001    0.0000 H   0  0
    9.0999    1.7500    0.0000 H   0  0
    9.9659    1.2501    0.0000 H   0  0
   11.6999    1.7500    0.0000 H   0  0
   10.8340    1.2501    0.0000 H   0  0
   12.9999   -1.0000    0.0000 H   0  0
   13.8658   -0.5001    0.0000 H   0  0
   15.1661    0.2503    0.0000 H   0  0
  1  2  1  0
  2  3  1  0
  3  4  1  0
  4  5  1  0
  5  6  1  0
  6  7  1  0
  7  8  1  0
  8  9  1  0
  9 10  1  0
 10 11  1  0
  1 12  1  0
  1 13  1  0
  1 14  1  0
  2 15  1  0
  2 16  1  0
  3 17  1  0
  3 18  1  0
  4 19  1  0
  4 20  1  0
  6 21  1  0
  6 22  1  0
  7 23  1  0
  7 24  1  0
  9 25  1  0
  9 26  1  0
 10 27  1  0
 10 28  1  0
 11 29  1  0
V    1 0
V    2 1
V    3 2
V    4 3
V    5 4
V    6 5
V    7 6
V    8 7
V    9 8
V   10 9
V   11 10
M  END
> <DSSTox_RID>
60154

> <DSSTox_CID>
1519

> <DSSTox_CID_Parent>
1519

> <DSSTox_Generic_SID>
21519

> <DSSTox_FileID>
238_TXCST2_v1a

> <STRUCTURE_Formula>
C8H18O3

> <STRUCTURE_MolecularWeight>
162.2267

> <STRUCTURE_ChemicalType>
defined organic

> <STRUCTURE_TestedForm_DefinedOrganic>
parent

> <STRUCTURE_Shown>
tested chemical

> <TestSubstance_ChemicalName>
2-(2-Butoxyethoxy)ethanol

> <TestSubstance_CASRN>
112-34-5

> <TestSubstance_Description>
single chemical compound

> <Source_ChemicalNote>
tested chemical contained 0.03% water

> <STRUCTURE_ChemicalName_IUPAC>
2-(2-butoxyethoxy)ethanol

> <STRUCTURE_SMILES>
CCCCOCCOCCO

> <STRUCTURE_Parent_SMILES>
CCCCOCCOCCO

> <STRUCTURE_InChIS>
InChI=1S/C8H18O3/c1-2-3-5-10-7-8-11-6-4-9/h9H,2-8H2,1H3

> <STRUCTURE_InChIKey>
OAYXUHPQHDHDDZ-UHFFFAOYSA-N

> <Substance_modify_yyyymmdd>
20080429

> <Coord_Metals>
0

> <Index>
238

> <Canonical_Smiles>
CCCCOCCOCCO

> <Molecular_Weight>
162.22671

> <Frequency>
1

$$$$

  SciTegic          2D

 13 13  0  0  0  0            999 V2000
    2.5973   -1.5031    0.0000 O   0  0
    1.2990   -0.7500    0.0000 C   0  0
    1.2990    0.7500    0.0000 C   0  0
    0.0000    1.5000    0.0000 C   0  0
   -1.2990    0.7500    0.0000 C   0  0
   -1.2990   -0.7500    0.0000 C   0  0
    0.0000   -1.5000    0.0000 C   0  0
    0.0000   -2.7000    0.0000 Cl  0  0
    2.5958   -2.5031    0.0000 H   0  0
    2.1651    1.2500    0.0000 H   0  0
    0.0000    2.5000    0.0000 H   0  0
   -2.1651    1.2500    0.0000 H   0  0
   -2.1651   -1.2500    0.0000 H   0  0
  1  2  1  0
  2  3  2  0
  2  7  1  0
  3  4  1  0
  4  5  2  0
  5  6  1  0
  6  7  2  0
  7  8  1  0
  1  9  1  0
  3 10  1  0
  4 11  1  0
  5 12  1  0
  6 13  1  0
V    1 0
V    2 1
V    3 2
V    4 3
V    5 4
V    6 5
V    7 6
V    8 7
M  END
> <DSSTox_RID>
59857

> <DSSTox_CID>
1544

> <DSSTox_CID_Parent>
1544

> <DSSTox_Generic_SID>
21544

> <DSSTox_FileID>
239_TXCST2_v1a

> <STRUCTURE_Formula>
C6H5ClO

> <STRUCTURE_MolecularWeight>
128.5563

> <STRUCTURE_ChemicalType>
defined organic

> <STRUCTURE_TestedForm_DefinedOrganic>
parent

> <STRUCTURE_Shown>
tested chemical

> <TestSubstance_ChemicalName>
2-Chlorophenol

> <TestSubstance_CASRN>
95-57-8

> <TestSubstance_Description>
single chemical compound

> <STRUCTURE_ChemicalName_IUPAC>
2-chlorophenol

> <STRUCTURE_SMILES>
OC1=CC=CC=C1Cl

> <STRUCTURE_Parent_SMILES>
OC1=CC=CC=C1Cl

> <STRUCTURE_InChIS>
InChI=1S/C6H5ClO/c7-5-3-1-2-4-6(5)8/h1-4,8H

> <STRUCTURE_InChIKey>
ISPYQTSUDJAMAB-UHFFFAOYSA-N

> <Substance_modify_yyyymmdd>
20080429

> <Coord_Metals>
0

> <Index>
239

> <Canonical_Smiles>
Oc1ccccc1Cl

> <Molecular_Weight>
128.5563

> <Frequency>
1

$$$$

  SciTegic          2D

 32 31  0  0  0  0            999 V2000
    1.3000    0.7500    0.0000 C   0  0
    2.6000    0.0000    0.0000 C   0  0
    3.9000    0.7500    0.0000 C   0  0
    5.2000    0.0000    0.0000 C   0  0
    6.5000    0.7500    0.0000 C   0  0
    7.7999    0.0000    0.0000 C   0  0
    9.0999    0.7500    0.0000 C   0  0
   10.3999    0.0000    0.0000 C   0  0
   11.6999    0.7500    0.0000 C   0  0
   12.9999    0.0000    0.0000 C   0  0
   14.2999    0.7500    0.0000 O   0  0
   12.9999   -1.2000    0.0000 O   0  0
    0.4338    0.2503    0.0000 H   0  0
    0.4340    1.2501    0.0000 H   0  0
    1.3000    1.7500    0.0000 H   0  0
    1.7340   -0.5001    0.0000 H   0  0
    2.6000   -1.0000    0.0000 H   0  0
    3.0340    1.2501    0.0000 H   0  0
    3.9000    1.7500    0.0000 H   0  0
    4.3340   -0.5001    0.0000 H   0  0
    5.2000   -1.0000    0.0000 H   0  0
    5.6340    1.2501    0.0000 H   0  0
    6.5000    1.7500    0.0000 H   0  0
    6.9340   -0.5001    0.0000 H   0  0
    7.7999   -1.0000    0.0000 H   0  0
    8.2340    1.2501    0.0000 H   0  0
    9.0999    1.7500    0.0000 H   0  0
    9.5340   -0.5001    0.0000 H   0  0
   10.3999   -1.0000    0.0000 H   0  0
   12.5659    1.2501    0.0000 H   0  0
   11.6999    1.7500    0.0000 H   0  0
   15.1661    0.2503    0.0000 H   0  0
  1  2  1  0
  2  3  1  0
  3  4  1  0
  4  5  1  0
  5  6  1  0
  6  7  1  0
  7  8  1  0
  8  9  1  0
  9 10  1  0
 10 11  1  0
 10 12  2  0
  1 13  1  0
  1 14  1  0
  1 15  1  0
  2 16  1  0
  2 17  1  0
  3 18  1  0
  3 19  1  0
  4 20  1  0
  4 21  1  0
  5 22  1  0
  5 23  1  0
  6 24  1  0
  6 25  1  0
  7 26  1  0
  7 27  1  0
  8 28  1  0
  8 29  1  0
  9 30  1  0
  9 31  1  0
 11 32  1  0
V    1 0
V    2 1
V    3 2
V    4 3
V    5 4
V    6 5
V    7 6
V    8 7
V    9 8
V   10 9
V   11 10
V   12 11
M  END
> <DSSTox_RID>
59855

> <DSSTox_CID>
1554

> <DSSTox_CID_Parent>
1554

> <DSSTox_Generic_SID>
21554

> <DSSTox_FileID>
240_TXCST2_v1a

> <STRUCTURE_Formula>
C10H20O2

> <STRUCTURE_MolecularWeight>
172.2646

> <STRUCTURE_ChemicalType>
defined organic

> <STRUCTURE_TestedForm_DefinedOrganic>
parent

> <STRUCTURE_Shown>
tested chemical

> <TestSubstance_ChemicalName>
Decanoic acid

> <TestSubstance_CASRN>
334-48-5

> <TestSubstance_Description>
single chemical compound

> <STRUCTURE_ChemicalName_IUPAC>
decanoic acid

> <STRUCTURE_SMILES>
CCCCCCCCCC(O)=O

> <STRUCTURE_Parent_SMILES>
CCCCCCCCCC(O)=O

> <STRUCTURE_InChIS>
InChI=1S/C10H20O2/c1-2-3-4-5-6-7-8-9-10(11)12/h2-9H2,1H3,(H,11,12)

> <STRUCTURE_InChIKey>
GHVNFZFCNZKVNT-UHFFFAOYSA-N

> <Substance_modify_yyyymmdd>
20080429

> <Coord_Metals>
0

> <Index>
240

> <Canonical_Smiles>
CCCCCCCCCC(=O)O

> <Molecular_Weight>
172.26459

> <Frequency>
1

$$$$

  SciTegic          2D

 11 10  0  0  0  0            999 V2000
    1.3000    0.7500    0.0000 C   0  0
    2.6000    0.0000    0.0000 C   0  0
    2.6000   -1.2000    0.0000 Cl  0  0
    3.6391   -0.6002    0.0000 Cl  0  0
    3.9000    0.7500    0.0000 C   0  0
    5.2000    0.0000    0.0000 O   0  0
    3.9000    1.9500    0.0000 O   0  0
    0.4338    0.2503    0.0000 H   0  0
    0.4340    1.2501    0.0000 H   0  0
    1.3000    1.7500    0.0000 H   0  0
    6.0661    0.4997    0.0000 H   0  0
  1  2  1  0
  2  3  1  0
  2  4  1  0
  2  5  1  0
  5  6  1  0
  5  7  2  0
  1  8  1  0
  1  9  1  0
  1 10  1  0
  6 11  1  0
V    1 0
V    2 1
V    3 2
V    4 3
V    5 4
V    6 5
V    7 6
M  END
> <DSSTox_RID>
59995

> <DSSTox_CID>
1575

> <DSSTox_CID_Parent>
1575

> <DSSTox_Generic_SID>
21575

> <DSSTox_FileID>
241_TXCST2_v1a

> <STRUCTURE_Formula>
C3H4Cl2O2

> <STRUCTURE_MolecularWeight>
142.9687

> <STRUCTURE_ChemicalType>
defined organic

> <STRUCTURE_TestedForm_DefinedOrganic>
parent

> <STRUCTURE_Shown>
tested chemical

> <TestSubstance_ChemicalName>
Dalapon

> <TestSubstance_CASRN>
75-99-0

> <TestSubstance_Description>
single chemical compound

> <STRUCTURE_ChemicalName_IUPAC>
2,2-dichloropropanoic acid

> <STRUCTURE_SMILES>
CC(Cl)(Cl)C(O)=O

> <STRUCTURE_Parent_SMILES>
CC(Cl)(Cl)C(O)=O

> <STRUCTURE_InChIS>
InChI=1S/C3H4Cl2O2/c1-3(4,5)2(6)7/h1H3,(H,6,7)

> <STRUCTURE_InChIKey>
NDUPDOJHUQKPAG-UHFFFAOYSA-N

> <Substance_modify_yyyymmdd>
20080429

> <Coord_Metals>
0

> <Index>
241

> <Canonical_Smiles>
CC(Cl)(Cl)C(=O)O

> <Molecular_Weight>
142.96865

> <Frequency>
1

$$$$

  SciTegic          2D

 23 22  0  0  0  0            999 V2000
    2.6000   -1.2000    0.0000 O   0  0
    2.6000    0.0000    0.0000 C   0  0
    1.3000    0.7500    0.0000 O   0  0
    3.9000    0.7500    0.0000 C   0  0
    5.2000    0.0000    0.0000 C   0  0
    6.5000    0.7500    0.0000 C   0  0
    7.7999    0.0000    0.0000 C   0  0
    9.0999    0.7500    0.0000 C   0  0
   10.3999    0.0000    0.0000 C   0  0
    0.4338    0.2503    0.0000 H   0  0
    3.0340    1.2501    0.0000 H   0  0
    3.9000    1.7500    0.0000 H   0  0
    4.3340   -0.5001    0.0000 H   0  0
    5.2000   -1.0000    0.0000 H   0  0
    5.6340    1.2501    0.0000 H   0  0
    6.5000    1.7500    0.0000 H   0  0
    6.9340   -0.5001    0.0000 H   0  0
    7.7999   -1.0000    0.0000 H   0  0
    8.2340    1.2501    0.0000 H   0  0
    9.0999    1.7500    0.0000 H   0  0
   11.2661    0.4997    0.0000 H   0  0
   11.2659   -0.5001    0.0000 H   0  0
   10.3999   -1.0000    0.0000 H   0  0
  1  2  2  0
  2  3  1  0
  2  4  1  0
  4  5  1  0
  5  6  1  0
  6  7  1  0
  7  8  1  0
  8  9  1  0
  3 10  1  0
  4 11  1  0
  4 12  1  0
  5 13  1  0
  5 14  1  0
  6 15  1  0
  6 16  1  0
  7 17  1  0
  7 18  1  0
  8 19  1  0
  8 20  1  0
  9 21  1  0
  9 22  1  0
  9 23  1  0
V    1 0
V    2 1
V    3 2
V    4 3
V    5 4
V    6 5
V    7 6
V    8 7
V    9 8
M  END
> <DSSTox_RID>
59723

> <DSSTox_CID>
1600

> <DSSTox_CID_Parent>
1600

> <DSSTox_Generic_SID>
21600

> <DSSTox_FileID>
242_TXCST2_v1a

> <STRUCTURE_Formula>
C7H14O2

> <STRUCTURE_MolecularWeight>
130.1849

> <STRUCTURE_ChemicalType>
defined organic

> <STRUCTURE_TestedForm_DefinedOrganic>
parent

> <STRUCTURE_Shown>
tested chemical

> <TestSubstance_ChemicalName>
Heptanoic acid

> <TestSubstance_CASRN>
111-14-8

> <TestSubstance_Description>
single chemical compound

> <STRUCTURE_ChemicalName_IUPAC>
heptanoic acid

> <STRUCTURE_SMILES>
O=C(O)CCCCCC

> <STRUCTURE_Parent_SMILES>
O=C(O)CCCCCC

> <STRUCTURE_InChIS>
InChI=1S/C7H14O2/c1-2-3-4-5-6-7(8)9/h2-6H2,1H3,(H,8,9)

> <STRUCTURE_InChIKey>
MNWFXJYAOYHMED-UHFFFAOYSA-N

> <Substance_modify_yyyymmdd>
20080429

> <Coord_Metals>
0

> <Index>
242

> <Canonical_Smiles>
CCCCCCC(=O)O

> <Molecular_Weight>
130.18486

> <Frequency>
1

$$$$

  SciTegic          2D

 20 19  0  0  0  0            999 V2000
    1.3000    0.7500    0.0000 O   0  0
    2.6000    0.0000    0.0000 C   0  0
    3.9000    0.7500    0.0000 C   0  0
    5.2000    0.0000    0.0000 C   0  0
    6.5000    0.7500    0.0000 C   0  0
    7.7999    0.0000    0.0000 C   0  0
    9.0999    0.7500    0.0000 C   0  0
   10.3999    0.0000    0.0000 O   0  0
    9.0999    1.9500    0.0000 O   0  0
    2.6000   -1.2000    0.0000 O   0  0
    0.4338    0.2503    0.0000 H   0  0
    3.9000    1.7500    0.0000 H   0  0
    3.0340    1.2501    0.0000 H   0  0
    5.2000   -1.0000    0.0000 H   0  0
    4.3340   -0.5001    0.0000 H   0  0
    6.5000    1.7500    0.0000 H   0  0
    5.6340    1.2501    0.0000 H   0  0
    7.7999   -1.0000    0.0000 H   0  0
    8.6659   -0.5001    0.0000 H   0  0
   11.2661    0.4997    0.0000 H   0  0
  1  2  1  0
  2  3  1  0
  2 10  2  0
  3  4  1  0
  4  5  1  0
  5  6  1  0
  6  7  1  0
  7  8  1  0
  7  9  2  0
  1 11  1  0
  3 12  1  0
  3 13  1  0
  4 14  1  0
  4 15  1  0
  5 16  1  0
  5 17  1  0
  6 18  1  0
  6 19  1  0
  8 20  1  0
V    1 0
V    2 1
V    3 2
V    4 3
V    5 4
V    6 5
V    7 6
V    8 7
V    9 8
V   10 9
M  END
> <DSSTox_RID>
60005

> <DSSTox_CID>
1605

> <DSSTox_CID_Parent>
1605

> <DSSTox_Generic_SID>
21605

> <DSSTox_FileID>
243_TXCST2_v1a

> <STRUCTURE_Formula>
C6H10O4

> <STRUCTURE_MolecularWeight>
146.1412

> <STRUCTURE_ChemicalType>
defined organic

> <STRUCTURE_TestedForm_DefinedOrganic>
parent

> <STRUCTURE_Shown>
tested chemical

> <TestSubstance_ChemicalName>
Adipic acid

> <TestSubstance_CASRN>
124-04-9

> <TestSubstance_Description>
single chemical compound

> <STRUCTURE_ChemicalName_IUPAC>
adipic acid

> <STRUCTURE_SMILES>
OC(CCCCC(O)=O)=O

> <STRUCTURE_Parent_SMILES>
OC(CCCCC(O)=O)=O

> <STRUCTURE_InChIS>
InChI=1S/C6H10O4/c7-5(8)3-1-2-4-6(9)10/h1-4H2,(H,7,8)(H,9,10)

> <STRUCTURE_InChIKey>
WNLRTRBMVRJNCN-UHFFFAOYSA-N

> <Substance_modify_yyyymmdd>
20080429

> <Coord_Metals>
0

> <Index>
243

> <Canonical_Smiles>
OC(=O)CCCCC(=O)O

> <Molecular_Weight>
146.14119

> <Frequency>
1

$$$$

  SciTegic          2D

 20 19  0  0  0  0            999 V2000
    1.3000    0.7500    0.0000 C   0  0
    2.6000    0.0000    0.0000 C   0  0
    3.9000    0.7500    0.0000 C   0  0
    5.2000    0.0000    0.0000 C   0  0
    6.5000    0.7500    0.0000 C   0  0
    7.7999    0.0000    0.0000 C   0  0
    9.0999    0.7500    0.0000 O   0  0
    7.7999   -1.2000    0.0000 O   0  0
    0.4338    0.2503    0.0000 H   0  0
    0.4340    1.2501    0.0000 H   0  0
    1.3000    1.7500    0.0000 H   0  0
    1.7340   -0.5001    0.0000 H   0  0
    2.6000   -1.0000    0.0000 H   0  0
    3.0340    1.2501    0.0000 H   0  0
    3.9000    1.7500    0.0000 H   0  0
    4.3340   -0.5001    0.0000 H   0  0
    5.2000   -1.0000    0.0000 H   0  0
    7.3659    1.2501    0.0000 H   0  0
    6.5000    1.7500    0.0000 H   0  0
    9.9661    0.2503    0.0000 H   0  0
  1  2  1  0
  2  3  1  0
  3  4  1  0
  4  5  1  0
  5  6  1  0
  6  7  1  0
  6  8  2  0
  1  9  1  0
  1 10  1  0
  1 11  1  0
  2 12  1  0
  2 13  1  0
  3 14  1  0
  3 15  1  0
  4 16  1  0
  4 17  1  0
  5 18  1  0
  5 19  1  0
  7 20  1  0
V    1 0
V    2 1
V    3 2
V    4 3
V    5 4
V    6 5
V    7 6
V    8 7
M  END
> <DSSTox_RID>
59966

> <DSSTox_CID>
1607

> <DSSTox_CID_Parent>
1607

> <DSSTox_Generic_SID>
21607

> <DSSTox_FileID>
244_TXCST2_v1a

> <STRUCTURE_Formula>
C6H12O2

> <STRUCTURE_MolecularWeight>
116.1583

> <STRUCTURE_ChemicalType>
defined organic

> <STRUCTURE_TestedForm_DefinedOrganic>
parent

> <STRUCTURE_Shown>
tested chemical

> <TestSubstance_ChemicalName>
Hexanoic acid

> <TestSubstance_CASRN>
142-62-1

> <TestSubstance_Description>
single chemical compound

> <STRUCTURE_ChemicalName_IUPAC>
hexanoic acid

> <STRUCTURE_SMILES>
CCCCCC(O)=O

> <STRUCTURE_Parent_SMILES>
CCCCCC(O)=O

> <STRUCTURE_InChIS>
InChI=1S/C6H12O2/c1-2-3-4-5-6(7)8/h2-5H2,1H3,(H,7,8)

> <STRUCTURE_InChIKey>
FUZZWVXGSFPDMH-UHFFFAOYSA-N

> <Substance_modify_yyyymmdd>
20080429

> <Coord_Metals>
0

> <Index>
244

> <Canonical_Smiles>
CCCCCC(=O)O

> <Molecular_Weight>
116.15828

> <Frequency>
1

$$$$

  SciTegic          2D

 29 28  0  0  0  0            999 V2000
    1.3000    0.7500    0.0000 C   0  0
    2.6000    0.0000    0.0000 C   0  0
    3.9000    0.7500    0.0000 C   0  0
    5.2000    0.0000    0.0000 C   0  0
    6.5000    0.7500    0.0000 C   0  0
    7.7999    0.0000    0.0000 C   0  0
    9.0999    0.7500    0.0000 C   0  0
   10.3999    0.0000    0.0000 C   0  0
   11.6999    0.7500    0.0000 C   0  0
   12.9999    0.0000    0.0000 O   0  0
   11.6999    1.9500    0.0000 O   0  0
    0.4338    0.2503    0.0000 H   0  0
    0.4340    1.2501    0.0000 H   0  0
    1.3000    1.7500    0.0000 H   0  0
    1.7340   -0.5001    0.0000 H   0  0
    2.6000   -1.0000    0.0000 H   0  0
    3.0340    1.2501    0.0000 H   0  0
    3.9000    1.7500    0.0000 H   0  0
    4.3340   -0.5001    0.0000 H   0  0
    5.2000   -1.0000    0.0000 H   0  0
    5.6340    1.2501    0.0000 H   0  0
    6.5000    1.7500    0.0000 H   0  0
    6.9340   -0.5001    0.0000 H   0  0
    7.7999   -1.0000    0.0000 H   0  0
    8.2340    1.2501    0.0000 H   0  0
    9.0999    1.7500    0.0000 H   0  0
   11.2659   -0.5001    0.0000 H   0  0
   10.3999   -1.0000    0.0000 H   0  0
   13.8661    0.4997    0.0000 H   0  0
  1  2  1  0
  2  3  1  0
  3  4  1  0
  4  5  1  0
  5  6  1  0
  6  7  1  0
  7  8  1  0
  8  9  1  0
  9 10  1  0
  9 11  2  0
  1 12  1  0
  1 13  1  0
  1 14  1  0
  2 15  1  0
  2 16  1  0
  3 17  1  0
  3 18  1  0
  4 19  1  0
  4 20  1  0
  5 21  1  0
  5 22  1  0
  6 23  1  0
  6 24  1  0
  7 25  1  0
  7 26  1  0
  8 27  1  0
  8 28  1  0
 10 29  1  0
V    1 0
V    2 1
V    3 2
V    4 3
V    5 4
V    6 5
V    7 6
V    8 7
V    9 8
V   10 9
V   11 10
M  END
> <DSSTox_RID>
65646

> <DSSTox_CID>
1641

> <DSSTox_CID_Parent>
1641

> <DSSTox_Generic_SID>
21641

> <DSSTox_FileID>
245_TXCST2_v1a

> <STRUCTURE_Formula>
C9H18O2

> <STRUCTURE_MolecularWeight>
158.238

> <STRUCTURE_ChemicalType>
defined organic

> <STRUCTURE_TestedForm_DefinedOrganic>
parent

> <STRUCTURE_Shown>
tested chemical

> <TestSubstance_ChemicalName>
Nonanoic acid

> <TestSubstance_CASRN>
112-05-0

> <TestSubstance_Description>
single chemical compound

> <STRUCTURE_ChemicalName_IUPAC>
nonanoic acid

> <STRUCTURE_SMILES>
CCCCCCCCC(=O)O

> <STRUCTURE_Parent_SMILES>
CCCCCCCCC(=O)O

> <STRUCTURE_InChIS>
InChI=1S/C9H18O2/c1-2-3-4-5-6-7-8-9(10)11/h2-8H2,1H3,(H,10,11)

> <STRUCTURE_InChIKey>
FBUKVWPVBMHYJY-UHFFFAOYSA-N

> <Substance_modify_yyyymmdd>
20080429

> <Coord_Metals>
0

> <Index>
245

> <Canonical_Smiles>
CCCCCCCCC(=O)O

> <Molecular_Weight>
158.23801

> <Frequency>
1

$$$$

  SciTegic          2D

 56 55  0  0  0  0            999 V2000
    1.3000    0.7500    0.0000 C   0  0
    2.6000    0.0000    0.0000 C   0  0
    3.9000    0.7500    0.0000 C   0  0
    5.2000    0.0000    0.0000 C   0  0
    6.5000    0.7500    0.0000 C   0  0
    7.7999    0.0000    0.0000 C   0  0
    9.0999    0.7500    0.0000 C   0  0
   10.3999    0.0000    0.0000 C   0  0
   11.6999    0.7500    0.0000 C   0  0
   12.9999    0.0000    0.0000 C   0  0
   14.2999    0.7500    0.0000 C   0  0
   15.5999    0.0000    0.0000 C   0  0
   16.8999    0.7500    0.0000 C   0  0
   18.1999    0.0000    0.0000 C   0  0
   19.4998    0.7500    0.0000 C   0  0
   20.7998    0.0000    0.0000 C   0  0
   22.0998    0.7500    0.0000 C   0  0
   23.3998    0.0000    0.0000 C   0  0
   24.6998    0.7500    0.0000 O   0  0
   23.3998   -1.2000    0.0000 O   0  0
    0.4338    0.2503    0.0000 H   0  0
    0.4340    1.2501    0.0000 H   0  0
    1.3000    1.7500    0.0000 H   0  0
    1.7340   -0.5001    0.0000 H   0  0
    2.6000   -1.0000    0.0000 H   0  0
    3.0340    1.2501    0.0000 H   0  0
    3.9000    1.7500    0.0000 H   0  0
    4.3340   -0.5001    0.0000 H   0  0
    5.2000   -1.0000    0.0000 H   0  0
    5.6340    1.2501    0.0000 H   0  0
    6.5000    1.7500    0.0000 H   0  0
    6.9340   -0.5001    0.0000 H   0  0
    7.7999   -1.0000    0.0000 H   0  0
    8.2340    1.2501    0.0000 H   0  0
    9.0999    1.7500    0.0000 H   0  0
    9.5340   -0.5001    0.0000 H   0  0
   10.3999   -1.0000    0.0000 H   0  0
   10.8340    1.2501    0.0000 H   0  0
   11.6999    1.7500    0.0000 H   0  0
   12.1340   -0.5001    0.0000 H   0  0
   12.9999   -1.0000    0.0000 H   0  0
   13.4339    1.2501    0.0000 H   0  0
   14.2999    1.7500    0.0000 H   0  0
   14.7339   -0.5001    0.0000 H   0  0
   15.5999   -1.0000    0.0000 H   0  0
   16.0339    1.2501    0.0000 H   0  0
   16.8999    1.7500    0.0000 H   0  0
   17.3339   -0.5001    0.0000 H   0  0
   18.1999   -1.0000    0.0000 H   0  0
   18.6339    1.2501    0.0000 H   0  0
   19.4998    1.7500    0.0000 H   0  0
   19.9339   -0.5001    0.0000 H   0  0
   20.7998   -1.0000    0.0000 H   0  0
   22.9658    1.2501    0.0000 H   0  0
   22.0998    1.7500    0.0000 H   0  0
   25.5660    0.2503    0.0000 H   0  0
  1  2  1  0
  2  3  1  0
  3  4  1  0
  4  5  1  0
  5  6  1  0
  6  7  1  0
  7  8  1  0
  8  9  1  0
  9 10  1  0
 10 11  1  0
 11 12  1  0
 12 13  1  0
 13 14  1  0
 14 15  1  0
 15 16  1  0
 16 17  1  0
 17 18  1  0
 18 19  1  0
 18 20  2  0
  1 21  1  0
  1 22  1  0
  1 23  1  0
  2 24  1  0
  2 25  1  0
  3 26  1  0
  3 27  1  0
  4 28  1  0
  4 29  1  0
  5 30  1  0
  5 31  1  0
  6 32  1  0
  6 33  1  0
  7 34  1  0
  7 35  1  0
  8 36  1  0
  8 37  1  0
  9 38  1  0
  9 39  1  0
 10 40  1  0
 10 41  1  0
 11 42  1  0
 11 43  1  0
 12 44  1  0
 12 45  1  0
 13 46  1  0
 13 47  1  0
 14 48  1  0
 14 49  1  0
 15 50  1  0
 15 51  1  0
 16 52  1  0
 16 53  1  0
 17 54  1  0
 17 55  1  0
 19 56  1  0
V    1 0
V    2 1
V    3 2
V    4 3
V    5 4
V    6 5
V    7 6
V    8 7
V    9 8
V   10 9
V   11 10
V   12 11
V   13 12
V   14 13
V   15 14
V   16 15
V   17 16
V   18 17
V   19 18
V   20 19
M  END
> <DSSTox_RID>
60157

> <DSSTox_CID>
1642

> <DSSTox_CID_Parent>
1642

> <DSSTox_Generic_SID>
21642

> <DSSTox_FileID>
246_TXCST2_v1a

> <STRUCTURE_Formula>
C18H36O2

> <STRUCTURE_MolecularWeight>
284.4772

> <STRUCTURE_ChemicalType>
defined organic

> <STRUCTURE_TestedForm_DefinedOrganic>
parent

> <STRUCTURE_Shown>
tested chemical

> <TestSubstance_ChemicalName>
Octadecanoic acid (Stearic acid)

> <TestSubstance_CASRN>
57-11-4

> <TestSubstance_Description>
single chemical compound

> <STRUCTURE_ChemicalName_IUPAC>
stearic acid

> <STRUCTURE_SMILES>
CCCCCCCCCCCCCCCCCC(O)=O

> <STRUCTURE_Parent_SMILES>
CCCCCCCCCCCCCCCCCC(O)=O

> <STRUCTURE_InChIS>
InChI=1S/C18H36O2/c1-2-3-4-5-6-7-8-9-10-11-12-13-14-15-16-17-18(19)20/h2-17H2,1H3,(H,19,20)

> <STRUCTURE_InChIKey>
QIQXTHQIDYTFRH-UHFFFAOYSA-N

> <Substance_modify_yyyymmdd>
20080429

> <Coord_Metals>
0

> <Index>
246

> <Canonical_Smiles>
CCCCCCCCCCCCCCCCCC(=O)O

> <Molecular_Weight>
284.47724

> <Frequency>
1

$$$$

  SciTegic          2D

 25 24  0  0  0  0            999 V2000
   10.3999    0.0000    0.0000 C   0  0
    9.0999    0.7500    0.0000 C   0  0
    7.7999    0.0000    0.0000 C   0  0
    6.5000    0.7500    0.0000 C   0  0
    5.2000    0.0000    0.0000 C   0  0
    3.9000    0.7500    0.0000 C   0  0
    2.6000    0.0000    0.0000 C   0  0
    1.3000    0.7500    0.0000 C   0  0
    0.2606    0.1503    0.0000 O   0  0
   11.2661    0.4997    0.0000 H   0  0
   10.3999   -1.0000    0.0000 H   0  0
   11.2659   -0.5001    0.0000 H   0  0
    9.0999    1.7500    0.0000 H   0  0
    8.2340    1.2501    0.0000 H   0  0
    7.7999   -1.0000    0.0000 H   0  0
    6.9340   -0.5001    0.0000 H   0  0
    6.5000    1.7500    0.0000 H   0  0
    5.6340    1.2501    0.0000 H   0  0
    5.2000   -1.0000    0.0000 H   0  0
    4.3340   -0.5001    0.0000 H   0  0
    3.9000    1.7500    0.0000 H   0  0
    3.0340    1.2501    0.0000 H   0  0
    2.6000   -1.0000    0.0000 H   0  0
    1.7340   -0.5001    0.0000 H   0  0
    1.3000    1.7500    0.0000 H   0  0
  1  2  1  0
  2  3  1  0
  3  4  1  0
  4  5  1  0
  5  6  1  0
  6  7  1  0
  7  8  1  0
  8  9  2  0
  1 10  1  0
  1 11  1  0
  1 12  1  0
  2 13  1  0
  2 14  1  0
  3 15  1  0
  3 16  1  0
  4 17  1  0
  4 18  1  0
  5 19  1  0
  5 20  1  0
  6 21  1  0
  6 22  1  0
  7 23  1  0
  7 24  1  0
  8 25  1  0
V    1 0
V    2 1
V    3 2
V    4 3
V    5 4
V    6 5
V    7 6
V    8 7
V    9 8
M  END
> <DSSTox_RID>
59813

> <DSSTox_CID>
1643

> <DSSTox_CID_Parent>
1643

> <DSSTox_Generic_SID>
21643

> <DSSTox_FileID>
247_TXCST2_v1a

> <STRUCTURE_Formula>
C8H16O

> <STRUCTURE_MolecularWeight>
128.212

> <STRUCTURE_ChemicalType>
defined organic

> <STRUCTURE_TestedForm_DefinedOrganic>
parent

> <STRUCTURE_Shown>
tested chemical

> <TestSubstance_ChemicalName>
Octanal

> <TestSubstance_CASRN>
124-13-0

> <TestSubstance_Description>
single chemical compound

> <STRUCTURE_ChemicalName_IUPAC>
octanal

> <STRUCTURE_SMILES>
CCCCCCCC=O

> <STRUCTURE_Parent_SMILES>
CCCCCCCC=O

> <STRUCTURE_InChIS>
InChI=1S/C8H16O/c1-2-3-4-5-6-7-8-9/h8H,2-7H2,1H3

> <STRUCTURE_InChIKey>
NUJGJRNETVAIRJ-UHFFFAOYSA-N

> <Substance_modify_yyyymmdd>
20080429

> <Coord_Metals>
0

> <Index>
247

> <Canonical_Smiles>
CCCCCCCC=O

> <Molecular_Weight>
128.21204

> <Frequency>
1

$$$$

  SciTegic          2D

 26 25  0  0  0  0            999 V2000
    1.3000    0.7500    0.0000 C   0  0
    2.6000    0.0000    0.0000 C   0  0
    3.9000    0.7500    0.0000 C   0  0
    5.2000    0.0000    0.0000 C   0  0
    6.5000    0.7500    0.0000 C   0  0
    7.7999    0.0000    0.0000 C   0  0
    9.0999    0.7500    0.0000 C   0  0
   10.3999    0.0000    0.0000 C   0  0
   11.6999    0.7500    0.0000 O   0  0
   10.3999   -1.2000    0.0000 O   0  0
    0.4338    0.2503    0.0000 H   0  0
    0.4340    1.2501    0.0000 H   0  0
    1.3000    1.7500    0.0000 H   0  0
    1.7340   -0.5001    0.0000 H   0  0
    2.6000   -1.0000    0.0000 H   0  0
    3.0340    1.2501    0.0000 H   0  0
    3.9000    1.7500    0.0000 H   0  0
    4.3340   -0.5001    0.0000 H   0  0
    5.2000   -1.0000    0.0000 H   0  0
    5.6340    1.2501    0.0000 H   0  0
    6.5000    1.7500    0.0000 H   0  0
    6.9340   -0.5001    0.0000 H   0  0
    7.7999   -1.0000    0.0000 H   0  0
    9.9659    1.2501    0.0000 H   0  0
    9.0999    1.7500    0.0000 H   0  0
   12.5661    0.2503    0.0000 H   0  0
  1  2  1  0
  2  3  1  0
  3  4  1  0
  4  5  1  0
  5  6  1  0
  6  7  1  0
  7  8  1  0
  8  9  1  0
  8 10  2  0
  1 11  1  0
  1 12  1  0
  1 13  1  0
  2 14  1  0
  2 15  1  0
  3 16  1  0
  3 17  1  0
  4 18  1  0
  4 19  1  0
  5 20  1  0
  5 21  1  0
  6 22  1  0
  6 23  1  0
  7 24  1  0
  7 25  1  0
  9 26  1  0
V    1 0
V    2 1
V    3 2
V    4 3
V    5 4
V    6 5
V    7 6
V    8 7
V    9 8
V   10 9
M  END
> <DSSTox_RID>
60210

> <DSSTox_CID>
1645

> <DSSTox_CID_Parent>
1645

> <DSSTox_Generic_SID>
21645

> <DSSTox_FileID>
248_TXCST2_v1a

> <STRUCTURE_Formula>
C8H16O2

> <STRUCTURE_MolecularWeight>
144.2114

> <STRUCTURE_ChemicalType>
defined organic

> <STRUCTURE_TestedForm_DefinedOrganic>
parent

> <STRUCTURE_Shown>
tested chemical

> <TestSubstance_ChemicalName>
Octanoic acid

> <TestSubstance_CASRN>
124-07-2

> <TestSubstance_Description>
single chemical compound

> <STRUCTURE_ChemicalName_IUPAC>
octanoic acid

> <STRUCTURE_SMILES>
CCCCCCCC(O)=O

> <STRUCTURE_Parent_SMILES>
CCCCCCCC(O)=O

> <STRUCTURE_InChIS>
InChI=1S/C8H16O2/c1-2-3-4-5-6-7-8(9)10/h2-7H2,1H3,(H,9,10)

> <STRUCTURE_InChIKey>
WWZKQHOCKIZLMA-UHFFFAOYSA-N

> <Substance_modify_yyyymmdd>
20080429

> <Coord_Metals>
0

> <Index>
248

> <Canonical_Smiles>
CCCCCCCC(=O)O

> <Molecular_Weight>
144.21143

> <Frequency>
1

$$$$

  SciTegic          2D

 16 15  0  0  0  0            999 V2000
    6.5000    0.7500    0.0000 C   0  0
    5.2000    0.0000    0.0000 C   0  0
    3.9000    0.7500    0.0000 C   0  0
    2.6000    0.0000    0.0000 C   0  0
    1.3000    0.7500    0.0000 C   0  0
    0.2606    0.1503    0.0000 O   0  0
    7.3661    0.2503    0.0000 H   0  0
    6.5000    1.7500    0.0000 H   0  0
    7.3659    1.2501    0.0000 H   0  0
    5.2000   -1.0000    0.0000 H   0  0
    4.3340   -0.5001    0.0000 H   0  0
    3.9000    1.7500    0.0000 H   0  0
    3.0340    1.2501    0.0000 H   0  0
    2.6000   -1.0000    0.0000 H   0  0
    1.7340   -0.5001    0.0000 H   0  0
    1.3000    1.7500    0.0000 H   0  0
  1  2  1  0
  2  3  1  0
  3  4  1  0
  4  5  1  0
  5  6  2  0
  1  7  1  0
  1  8  1  0
  1  9  1  0
  2 10  1  0
  2 11  1  0
  3 12  1  0
  3 13  1  0
  4 14  1  0
  4 15  1  0
  5 16  1  0
V    1 0
V    2 1
V    3 2
V    4 3
V    5 4
V    6 5
M  END
> <DSSTox_RID>
60422

> <DSSTox_CID>
1653

> <DSSTox_CID_Parent>
1653

> <DSSTox_Generic_SID>
21653

> <DSSTox_FileID>
249_TXCST2_v1a

> <STRUCTURE_Formula>
C5H10O

> <STRUCTURE_MolecularWeight>
86.1323

> <STRUCTURE_ChemicalType>
defined organic

> <STRUCTURE_TestedForm_DefinedOrganic>
parent

> <STRUCTURE_Shown>
tested chemical

> <TestSubstance_ChemicalName>
Pentanal

> <TestSubstance_CASRN>
110-62-3

> <TestSubstance_Description>
single chemical compound

> <STRUCTURE_ChemicalName_IUPAC>
pentanal

> <STRUCTURE_SMILES>
CCCCC=O

> <STRUCTURE_Parent_SMILES>
CCCCC=O

> <STRUCTURE_InChIS>
InChI=1S/C5H10O/c1-2-3-4-5-6/h5H,2-4H2,1H3

> <STRUCTURE_InChIKey>
HGBOYTHUEUWSSQ-UHFFFAOYSA-N

> <Substance_modify_yyyymmdd>
20080429

> <Coord_Metals>
0

> <Index>
249

> <Canonical_Smiles>
CCCCC=O

> <Molecular_Weight>
86.1323

> <Frequency>
1

$$$$

  SciTegic          2D

 35 34  0  0  0  0            999 V2000
    1.3000    0.7500    0.0000 C   0  0
    2.6000    0.0000    0.0000 C   0  0
    3.9000    0.7500    0.0000 C   0  0
    5.2000    0.0000    0.0000 C   0  0
    6.5000    0.7500    0.0000 C   0  0
    7.7999    0.0000    0.0000 C   0  0
    9.0999    0.7500    0.0000 C   0  0
   10.3999    0.0000    0.0000 C   0  0
   11.6999    0.7500    0.0000 C   0  0
   12.9999    0.0000    0.0000 C   0  0
   14.2999    0.7500    0.0000 C   0  0
    0.4338    0.2503    0.0000 H   0  0
    1.3000    1.7500    0.0000 H   0  0
    0.4340    1.2501    0.0000 H   0  0
    2.6000   -1.0000    0.0000 H   0  0
    1.7340   -0.5001    0.0000 H   0  0
    3.9000    1.7500    0.0000 H   0  0
    3.0340    1.2501    0.0000 H   0  0
    5.2000   -1.0000    0.0000 H   0  0
    4.3340   -0.5001    0.0000 H   0  0
    6.5000    1.7500    0.0000 H   0  0
    5.6340    1.2501    0.0000 H   0  0
    7.7999   -1.0000    0.0000 H   0  0
    6.9340   -0.5001    0.0000 H   0  0
    9.0999    1.7500    0.0000 H   0  0
    8.2340    1.2501    0.0000 H   0  0
   10.3999   -1.0000    0.0000 H   0  0
    9.5340   -0.5001    0.0000 H   0  0
   11.6999    1.7500    0.0000 H   0  0
   10.8340    1.2501    0.0000 H   0  0
   12.9999   -1.0000    0.0000 H   0  0
   12.1340   -0.5001    0.0000 H   0  0
   15.1661    0.2503    0.0000 H   0  0
   14.2999    1.7500    0.0000 H   0  0
   15.1658    1.2501    0.0000 H   0  0
  1  2  1  0
  2  3  1  0
  3  4  1  0
  4  5  1  0
  5  6  1  0
  6  7  1  0
  7  8  1  0
  8  9  1  0
  9 10  1  0
 10 11  1  0
  1 12  1  0
  1 13  1  0
  1 14  1  0
  2 15  1  0
  2 16  1  0
  3 17  1  0
  3 18  1  0
  4 19  1  0
  4 20  1  0
  5 21  1  0
  5 22  1  0
  6 23  1  0
  6 24  1  0
  7 25  1  0
  7 26  1  0
  8 27  1  0
  8 28  1  0
  9 29  1  0
  9 30  1  0
 10 31  1  0
 10 32  1  0
 11 33  1  0
 11 34  1  0
 11 35  1  0
V    1 0
V    2 1
V    3 2
V    4 3
V    5 4
V    6 5
V    7 6
V    8 7
V    9 8
V   10 9
V   11 10
M  END
> <DSSTox_RID>
60194

> <DSSTox_CID>
1689

> <DSSTox_CID_Parent>
1689

> <DSSTox_Generic_SID>
21689

> <DSSTox_FileID>
250_TXCST2_v1a

> <STRUCTURE_Formula>
C11H24

> <STRUCTURE_MolecularWeight>
156.3083

> <STRUCTURE_ChemicalType>
defined organic

> <STRUCTURE_TestedForm_DefinedOrganic>
parent

> <STRUCTURE_Shown>
tested chemical

> <TestSubstance_ChemicalName>
Undecane

> <TestSubstance_CASRN>
1120-21-4

> <TestSubstance_Description>
single chemical compound

> <STRUCTURE_ChemicalName_IUPAC>
undecane

> <STRUCTURE_SMILES>
CCCCCCCCCCC

> <STRUCTURE_Parent_SMILES>
CCCCCCCCCCC

> <STRUCTURE_InChIS>
InChI=1S/C11H24/c1-3-5-7-9-11-10-8-6-4-2/h3-11H2,1-2H3

> <STRUCTURE_InChIKey>
RSJKGSCJYJTIGS-UHFFFAOYSA-N

> <Substance_modify_yyyymmdd>
20080429

> <Coord_Metals>
0

> <Index>
250

> <Canonical_Smiles>
CCCCCCCCCCC

> <Molecular_Weight>
156.30825

> <Frequency>
1

$$$$

  SciTegic          2D

 16 16  0  0  0  0            999 V2000
    2.5973   -1.5031    0.0000 O   0  0
    1.2990   -0.7500    0.0000 C   0  0
    1.2990    0.7500    0.0000 C   0  0
    0.0000    1.5000    0.0000 C   0  0
    0.0000    3.0008    0.0000 C   0  0
   -1.2990    0.7500    0.0000 C   0  0
   -2.3383    1.3500    0.0000 Cl  0  0
   -1.2990   -0.7500    0.0000 C   0  0
    0.0000   -1.5000    0.0000 C   0  0
    2.5958   -2.5031    0.0000 H   0  0
    2.1651    1.2500    0.0000 H   0  0
    0.8657    3.5014    0.0000 H   0  0
   -0.8662    3.5005    0.0000 H   0  0
   -0.0005    4.0008    0.0000 H   0  0
   -2.1651   -1.2500    0.0000 H   0  0
    0.0000   -2.5000    0.0000 H   0  0
  1  2  1  0
  2  3  2  0
  2  9  1  0
  3  4  1  0
  4  5  1  0
  4  6  2  0
  6  7  1  0
  6  8  1  0
  8  9  2  0
  1 10  1  0
  3 11  1  0
  5 12  1  0
  5 13  1  0
  5 14  1  0
  8 15  1  0
  9 16  1  0
V    1 0
V    2 1
V    3 2
V    4 3
V    5 4
V    6 5
V    7 6
V    8 7
V    9 8
M  END
> <DSSTox_RID>
59695

> <DSSTox_CID>
1717

> <DSSTox_CID_Parent>
1717

> <DSSTox_Generic_SID>
21717

> <DSSTox_FileID>
251_TXCST2_v1a

> <STRUCTURE_Formula>
C7H7ClO

> <STRUCTURE_MolecularWeight>
142.5829

> <STRUCTURE_ChemicalType>
defined organic

> <STRUCTURE_TestedForm_DefinedOrganic>
parent

> <STRUCTURE_Shown>
tested chemical

> <TestSubstance_ChemicalName>
4-Chloro-3-methylphenol

> <TestSubstance_CASRN>
59-50-7

> <TestSubstance_Description>
single chemical compound

> <STRUCTURE_ChemicalName_IUPAC>
4-chloro-3-methylphenol

> <STRUCTURE_SMILES>
OC1=CC(C)=C(Cl)C=C1

> <STRUCTURE_Parent_SMILES>
OC1=CC(C)=C(Cl)C=C1

> <STRUCTURE_InChIS>
InChI=1S/C7H7ClO/c1-5-4-6(9)2-3-7(5)8/h2-4,9H,1H3

> <STRUCTURE_InChIKey>
CFKMVGJGLGKFKI-UHFFFAOYSA-N

> <Substance_modify_yyyymmdd>
20080429

> <Coord_Metals>
0

> <Index>
251

> <Canonical_Smiles>
Cc1cc(O)ccc1Cl

> <Molecular_Weight>
142.58287

> <Frequency>
1

$$$$

  SciTegic          2D

 17 17  0  0  0  0            999 V2000
    2.2267   -0.8531    0.0000 C   0  0
    0.7500   -1.0323    0.0000 C   0  0
    0.1234   -2.3817    0.0000 C   0  0
    1.2135    0.3943    0.0000 N   0  0
    0.0000    1.2760    0.0000 C   0  0
    0.0000    2.4760    0.0000 O   0  0
   -1.2135    0.3943    0.0000 N   0  0
   -0.7500   -1.0323    0.0000 C   0  0
   -1.4553   -2.0031    0.0000 O   0  0
    2.6338    0.0602    0.0000 H   0  0
    3.2212   -0.7489    0.0000 H   0  0
    2.8144   -1.6622    0.0000 H   0  0
    0.7106   -3.1912    0.0000 H   0  0
   -0.2839   -3.2951    0.0000 H   0  0
   -0.8712   -2.4859    0.0000 H   0  0
    2.1646    0.7033    0.0000 H   0  0
   -2.1646    0.7033    0.0000 H   0  0
  1  2  1  0
  2  3  1  0
  2  4  1  0
  2  8  1  0
  4  5  1  0
  5  6  2  0
  5  7  1  0
  7  8  1  0
  8  9  2  0
  1 10  1  0
  1 11  1  0
  1 12  1  0
  3 13  1  0
  3 14  1  0
  3 15  1  0
  4 16  1  0
  7 17  1  0
V    1 0
V    2 1
V    3 2
V    4 3
V    5 4
V    6 5
V    7 6
V    8 7
V    9 8
M  END
> <DSSTox_RID>
60272

> <DSSTox_CID>
1754

> <DSSTox_CID_Parent>
1754

> <DSSTox_Generic_SID>
21754

> <DSSTox_FileID>
252_TXCST2_v1a

> <STRUCTURE_Formula>
C5H8N2O2

> <STRUCTURE_MolecularWeight>
128.1292

> <STRUCTURE_ChemicalType>
defined organic

> <STRUCTURE_TestedForm_DefinedOrganic>
parent

> <STRUCTURE_Shown>
tested chemical

> <TestSubstance_ChemicalName>
5,5-Dimethylhydantoin

> <TestSubstance_CASRN>
77-71-4

> <TestSubstance_Description>
single chemical compound

> <STRUCTURE_ChemicalName_IUPAC>
5,5-dimethylimidazolidine-2,4-dione

> <STRUCTURE_SMILES>
CC1(C)NC(=O)NC1=O

> <STRUCTURE_Parent_SMILES>
CC1(C)NC(=O)NC1=O

> <STRUCTURE_InChIS>
InChI=1S/C5H8N2O2/c1-5(2)3(8)6-4(9)7-5/h1-2H3,(H2,6,7,8,9)

> <STRUCTURE_InChIKey>
YIROYDNZEPTFOL-UHFFFAOYSA-N

> <Substance_modify_yyyymmdd>
20080429

> <Coord_Metals>
0

> <Index>
252

> <Canonical_Smiles>
CC1(C)NC(=O)NC1=O

> <Molecular_Weight>
128.12922

> <Frequency>
1

$$$$

  SciTegic          2D

 28 28  0  0  0  0            999 V2000
    3.9009    0.7500    0.0000 C   0  0
    3.8990   -0.7508    0.0000 C   0  0
    2.5988   -1.5004    0.0000 C   0  0
    2.5983   -3.0012    0.0000 C   0  0
    3.9225   -2.2677    0.0000 C   0  0
    1.2990   -0.7500    0.0000 C   0  0
    1.2990    0.7500    0.0000 C   0  0
    0.0000    1.5000    0.0000 C   0  0
   -1.2990    0.7500    0.0000 C   0  0
   -2.6003    1.4977    0.0000 O   0  0
   -1.2990   -0.7500    0.0000 C   0  0
    0.0000   -1.5000    0.0000 C   0  0
    4.7673    1.2495    0.0000 H   0  0
    3.0354    1.2508    0.0000 H   0  0
    3.9017    1.7500    0.0000 H   0  0
    4.7646   -1.2516    0.0000 H   0  0
    3.8982   -1.7508    0.0000 H   0  0
    3.4639   -3.5020    0.0000 H   0  0
    1.7320   -3.5006    0.0000 H   0  0
    2.5975   -4.0012    0.0000 H   0  0
    3.9213   -3.2677    0.0000 H   0  0
    4.7892   -1.7689    0.0000 H   0  0
    4.7878   -2.7688    0.0000 H   0  0
    2.1651    1.2500    0.0000 H   0  0
    0.0000    2.5000    0.0000 H   0  0
   -3.4657    0.9965    0.0000 H   0  0
   -2.1651   -1.2500    0.0000 H   0  0
    0.0000   -2.5000    0.0000 H   0  0
  1  2  1  0
  2  3  1  0
  3  4  1  0
  3  5  1  0
  3  6  1  0
  6  7  2  0
  6 12  1  0
  7  8  1  0
  8  9  2  0
  9 10  1  0
  9 11  1  0
 11 12  2  0
  1 13  1  0
  1 14  1  0
  1 15  1  0
  2 16  1  0
  2 17  1  0
  4 18  1  0
  4 19  1  0
  4 20  1  0
  5 21  1  0
  5 22  1  0
  5 23  1  0
  7 24  1  0
  8 25  1  0
 10 26  1  0
 11 27  1  0
 12 28  1  0
V    1 0
V    2 1
V    3 2
V    4 3
V    5 4
V    6 5
V    7 6
V    8 7
V    9 8
V   10 9
V   11 10
V   12 11
M  END
> <DSSTox_RID>
59712

> <DSSTox_CID>
1771

> <DSSTox_CID_Parent>
1771

> <DSSTox_Generic_SID>
21771

> <DSSTox_FileID>
253_TXCST2_v1a

> <STRUCTURE_Formula>
C11H16O

> <STRUCTURE_MolecularWeight>
164.2441

> <STRUCTURE_ChemicalType>
defined organic

> <STRUCTURE_TestedForm_DefinedOrganic>
parent

> <STRUCTURE_Shown>
tested chemical

> <TestSubstance_ChemicalName>
4-(2-methylbutan-2-yl)phenol

> <TestSubstance_CASRN>
80-46-6

> <TestSubstance_Description>
single chemical compound

> <STRUCTURE_ChemicalName_IUPAC>
4-(1,1-dimethylpropyl)phenol

> <STRUCTURE_SMILES>
C(C1C=CC(=CC=1)O)(CC)(C)C

> <STRUCTURE_Parent_SMILES>
C(C1C=CC(=CC=1)O)(CC)(C)C

> <STRUCTURE_InChIS>
InChI=1S/C11H16O/c1-4-11(2,3)9-5-7-10(12)8-6-9/h5-8,12H,4H2,1-3H3

> <STRUCTURE_InChIKey>
NRZWYNLTFLDQQX-UHFFFAOYSA-N

> <Substance_modify_yyyymmdd>
20080429

> <Coord_Metals>
0

> <Index>
253

> <Canonical_Smiles>
CCC(C)(C)c1ccc(O)cc1

> <Molecular_Weight>
164.24413

> <Frequency>
1

$$$$

  SciTegic          2D

 22 24  0  0  0  0            999 V2000
   -2.5371    0.2373    0.0000 C   0  0
   -2.5371   -1.2229    0.0000 C   0  0
   -1.2594   -1.9530    0.0000 C   0  0
    0.0000   -1.2229    0.0000 C   0  0
    1.2777   -1.9530    0.0000 C   0  0
    2.5553   -1.2229    0.0000 C   0  0
    2.5553    0.2373    0.0000 C   0  0
    1.2777    0.9674    0.0000 C   0  0
    0.0000    0.2373    0.0000 C   0  0
   -1.2594    0.9674    0.0000 C   0  0
   -0.9674    2.4458    0.0000 C   0  0
    0.8944    2.4276    0.0000 C   0  0
   -3.4020    0.7392    0.0000 H   0  0
   -3.4020   -1.7248    0.0000 H   0  0
   -1.2563   -2.9530    0.0000 H   0  0
    1.2777   -2.9530    0.0000 H   0  0
    3.4203   -1.7248    0.0000 H   0  0
    3.4203    0.7392    0.0000 H   0  0
   -0.6018    3.3766    0.0000 H   0  0
   -1.9531    2.2774    0.0000 H   0  0
    0.5064    3.3493    0.0000 H   0  0
    1.8829    2.2768    0.0000 H   0  0
  1  2  2  0
  1 10  1  0
  2  3  1  0
  3  4  2  0
  4  5  1  0
  4  9  1  0
  5  6  2  0
  6  7  1  0
  7  8  2  0
  8  9  1  0
  8 12  1  0
  9 10  2  0
 10 11  1  0
 11 12  1  0
  1 13  1  0
  2 14  1  0
  3 15  1  0
  5 16  1  0
  6 17  1  0
  7 18  1  0
 11 19  1  0
 11 20  1  0
 12 21  1  0
 12 22  1  0
V    1 0
V    2 1
V    3 2
V    4 3
V    5 4
V    6 5
V    7 6
V    8 7
V    9 8
V   10 9
V   11 10
V   12 11
M  END
> <DSSTox_RID>
59878

> <DSSTox_CID>
1774

> <DSSTox_CID_Parent>
1774

> <DSSTox_Generic_SID>
21774

> <DSSTox_FileID>
254_TXCST2_v1a

> <STRUCTURE_Formula>
C12H10

> <STRUCTURE_MolecularWeight>
154.2078

> <STRUCTURE_ChemicalType>
defined organic

> <STRUCTURE_TestedForm_DefinedOrganic>
parent

> <STRUCTURE_Shown>
tested chemical

> <TestSubstance_ChemicalName>
Acenaphthene

> <TestSubstance_CASRN>
83-32-9

> <TestSubstance_Description>
single chemical compound

> <STRUCTURE_ChemicalName_IUPAC>
1,2-dihydroacenaphthylene

> <STRUCTURE_SMILES>
C1=CC=C2C=CC=C3C2=C1CC3

> <STRUCTURE_Parent_SMILES>
C1=CC=C2C=CC=C3C2=C1CC3

> <STRUCTURE_InChIS>
InChI=1S/C12H10/c1-3-9-4-2-6-11-8-7-10(5-1)12(9)11/h1-6H,7-8H2

> <STRUCTURE_InChIKey>
CWRYPZZKDGJXCA-UHFFFAOYSA-N

> <Substance_modify_yyyymmdd>
20080429

> <Coord_Metals>
0

> <Index>
254

> <Canonical_Smiles>
C1Cc2cccc3cccc1c23

> <Molecular_Weight>
154.20779

> <Frequency>
1

$$$$

  SciTegic          2D

 30 30  0  0  0  0            999 V2000
    3.8912   -5.2578    0.0000 C   0  0
    3.8933   -3.7570    0.0000 C   0  0
    2.5951   -3.0039    0.0000 O   0  0
    2.5973   -1.5031    0.0000 C   0  0
    3.6375   -0.9049    0.0000 O   0  0
    1.2990   -0.7500    0.0000 C   0  0
    1.2990    0.7500    0.0000 C   0  0
    0.0000    1.5000    0.0000 C   0  0
   -1.2990    0.7500    0.0000 C   0  0
   -1.2990   -0.7500    0.0000 C   0  0
    0.0000   -1.5000    0.0000 C   0  0
   -0.0031   -3.0008    0.0000 C   0  0
    1.0351   -3.6026    0.0000 O   0  0
   -1.3039   -3.7494    0.0000 O   0  0
   -1.3070   -5.2502    0.0000 C   0  0
   -2.6078   -5.9988    0.0000 C   0  0
    4.7562   -5.7596    0.0000 H   0  0
    3.8893   -6.2578    0.0000 H   0  0
    3.0243   -5.7563    0.0000 H   0  0
    3.8952   -2.7570    0.0000 H   0  0
    4.7602   -3.2585    0.0000 H   0  0
    2.1651    1.2500    0.0000 H   0  0
    0.0000    2.5000    0.0000 H   0  0
   -2.1651    1.2500    0.0000 H   0  0
   -2.1651   -1.2500    0.0000 H   0  0
   -0.4400   -4.7519    0.0000 H   0  0
   -0.4418   -5.7517    0.0000 H   0  0
   -2.6099   -6.9988    0.0000 H   0  0
   -3.4748   -6.4971    0.0000 H   0  0
   -3.4730   -5.4973    0.0000 H   0  0
  1  2  1  0
  2  3  1  0
  3  4  1  0
  4  5  2  0
  4  6  1  0
  6  7  2  0
  6 11  1  0
  7  8  1  0
  8  9  2  0
  9 10  1  0
 10 11  2  0
 11 12  1  0
 12 13  2  0
 12 14  1  0
 14 15  1  0
 15 16  1  0
  1 17  1  0
  1 18  1  0
  1 19  1  0
  2 20  1  0
  2 21  1  0
  7 22  1  0
  8 23  1  0
  9 24  1  0
 10 25  1  0
 15 26  1  0
 15 27  1  0
 16 28  1  0
 16 29  1  0
 16 30  1  0
V    1 0
V    2 1
V    3 2
V    4 3
V    5 4
V    6 5
V    7 6
V    8 7
V    9 8
V   10 9
V   11 10
V   12 11
V   13 12
V   14 13
V   15 14
V   16 15
M  END
> <DSSTox_RID>
65349

> <DSSTox_CID>
1780

> <DSSTox_CID_Parent>
1780

> <DSSTox_Generic_SID>
21780

> <DSSTox_FileID>
255_TXCST2_v1a

> <STRUCTURE_Formula>
C12H14O4

> <STRUCTURE_MolecularWeight>
222.2372

> <STRUCTURE_ChemicalType>
defined organic

> <STRUCTURE_TestedForm_DefinedOrganic>
parent

> <STRUCTURE_Shown>
tested chemical

> <TestSubstance_ChemicalName>
Diethyl phthalate

> <TestSubstance_CASRN>
84-66-2

> <TestSubstance_Description>
single chemical compound

> <STRUCTURE_ChemicalName_IUPAC>
diethyl phthalate

> <STRUCTURE_SMILES>
CCOC(=O)C1=CC=CC=C1C(=O)OCC

> <STRUCTURE_Parent_SMILES>
CCOC(=O)C1=CC=CC=C1C(=O)OCC

> <STRUCTURE_InChIS>
InChI=1S/C12H14O4/c1-3-15-11(13)9-7-5-6-8-10(9)12(14)16-4-2/h5-8H,3-4H2,1-2H3

> <STRUCTURE_InChIKey>
FLKPEMZONWLCSK-UHFFFAOYSA-N

> <Substance_modify_yyyymmdd>
20080429

> <Coord_Metals>
0

> <Index>
255

> <Canonical_Smiles>
CCOC(=O)c1ccccc1C(=O)OCC

> <Molecular_Weight>
222.23715

> <Frequency>
1

$$$$

  SciTegic          2D

 42 42  0  0  0  0            999 V2000
    1.2990   -0.7500    0.0000 C   0  0
    1.2990    0.7500    0.0000 C   0  0
    0.0000    1.5000    0.0000 C   0  0
   -1.2990    0.7500    0.0000 C   0  0
   -2.6003    1.4977    0.0000 C   0  0
   -2.6024    2.6977    0.0000 O   0  0
   -3.8990    0.7455    0.0000 O   0  0
   -5.2003    1.4932    0.0000 C   0  0
   -6.4990    0.7409    0.0000 C   0  0
   -7.8003    1.4887    0.0000 C   0  0
   -9.0990    0.7364    0.0000 C   0  0
    0.0000   -1.5000    0.0000 C   0  0
   -1.2990   -0.7500    0.0000 C   0  0
   -2.5972   -1.5031    0.0000 C   0  0
   -3.6375   -0.9049    0.0000 O   0  0
   -2.5951   -3.0039    0.0000 O   0  0
   -3.8933   -3.7570    0.0000 C   0  0
   -3.8912   -5.2578    0.0000 C   0  0
   -5.1894   -6.0109    0.0000 C   0  0
   -5.1872   -7.5117    0.0000 C   0  0
    2.1651   -1.2500    0.0000 H   0  0
    2.1651    1.2500    0.0000 H   0  0
    0.0000    2.5000    0.0000 H   0  0
   -4.3353    1.9948    0.0000 H   0  0
   -5.2021    2.4932    0.0000 H   0  0
   -5.6322    0.2423    0.0000 H   0  0
   -6.4973   -0.2591    0.0000 H   0  0
   -6.9352    1.9903    0.0000 H   0  0
   -7.8020    2.4887    0.0000 H   0  0
   -9.9660    1.2346    0.0000 H   0  0
   -9.9641    0.2347    0.0000 H   0  0
   -9.0972   -0.2636    0.0000 H   0  0
    0.0000   -2.5000    0.0000 H   0  0
   -3.8952   -2.7570    0.0000 H   0  0
   -4.7602   -3.2585    0.0000 H   0  0
   -3.0259   -4.7565    0.0000 H   0  0
   -3.0243   -5.7563    0.0000 H   0  0
   -5.1913   -5.0109    0.0000 H   0  0
   -6.0563   -5.5124    0.0000 H   0  0
   -6.0522   -8.0135    0.0000 H   0  0
   -5.1853   -8.5117    0.0000 H   0  0
   -4.3203   -8.0102    0.0000 H   0  0
  1  2  2  0
  1 12  1  0
  2  3  1  0
  3  4  2  0
  4  5  1  0
  4 13  1  0
  5  6  2  0
  5  7  1  0
  7  8  1  0
  8  9  1  0
  9 10  1  0
 10 11  1  0
 12 13  2  0
 13 14  1  0
 14 15  2  0
 14 16  1  0
 16 17  1  0
 17 18  1  0
 18 19  1  0
 19 20  1  0
  1 21  1  0
  2 22  1  0
  3 23  1  0
  8 24  1  0
  8 25  1  0
  9 26  1  0
  9 27  1  0
 10 28  1  0
 10 29  1  0
 11 30  1  0
 11 31  1  0
 11 32  1  0
 12 33  1  0
 17 34  1  0
 17 35  1  0
 18 36  1  0
 18 37  1  0
 19 38  1  0
 19 39  1  0
 20 40  1  0
 20 41  1  0
 20 42  1  0
V    1 0
V    2 1
V    3 2
V    4 3
V    5 4
V    6 5
V    7 6
V    8 7
V    9 8
V   10 9
V   11 10
V   12 11
V   13 12
V   14 13
V   15 14
V   16 15
V   17 16
V   18 17
V   19 18
V   20 19
M  END
> <DSSTox_RID>
60284

> <DSSTox_CID>
1781

> <DSSTox_CID_Parent>
1781

> <DSSTox_Generic_SID>
21781

> <DSSTox_FileID>
256_TXCST2_v1a

> <STRUCTURE_Formula>
C16H22O4

> <STRUCTURE_MolecularWeight>
278.3435

> <STRUCTURE_ChemicalType>
defined organic

> <STRUCTURE_TestedForm_DefinedOrganic>
parent

> <STRUCTURE_Shown>
tested chemical

> <TestSubstance_ChemicalName>
Dibutyl phthalate

> <TestSubstance_CASRN>
84-74-2

> <TestSubstance_Description>
single chemical compound

> <STRUCTURE_ChemicalName_IUPAC>
dibutyl phthalate

> <STRUCTURE_SMILES>
C1=CC=C(C(=O)OCCCC)C(=C1)C(=O)OCCCC

> <STRUCTURE_Parent_SMILES>
C1=CC=C(C(=O)OCCCC)C(=C1)C(=O)OCCCC

> <STRUCTURE_InChIS>
InChI=1S/C16H22O4/c1-3-5-11-19-15(17)13-9-7-8-10-14(13)16(18)20-12-6-4-2/h7-10H,3-6,11-12H2,1-2H3

> <STRUCTURE_InChIKey>
DOIRQSBPFJWKBE-UHFFFAOYSA-N

> <Substance_modify_yyyymmdd>
20080429

> <Coord_Metals>
0

> <Index>
256

> <Canonical_Smiles>
CCCCOC(=O)c1ccccc1C(=O)OCCCC

> <Molecular_Weight>
278.34348

> <Frequency>
1

$$$$

  SciTegic          2D

 17 18  0  0  0  0            999 V2000
   -1.2964    1.4973    0.0000 N   0  0
   -2.6111    0.7486    0.0000 C   0  0
   -2.6111   -0.7486    0.0000 C   0  0
   -1.2964   -1.4973    0.0000 C   0  0
    0.0000   -0.7486    0.0000 C   0  0
    0.0000    0.7486    0.0000 C   0  0
    1.2964    1.4973    0.0000 C   0  0
    2.5929    0.7486    0.0000 C   0  0
    2.5929   -0.7486    0.0000 C   0  0
    1.2964   -1.4973    0.0000 C   0  0
   -3.4756    1.2512    0.0000 H   0  0
   -3.4756   -1.2512    0.0000 H   0  0
   -1.2934   -2.4973    0.0000 H   0  0
    1.2964    2.4973    0.0000 H   0  0
    3.4589    1.2486    0.0000 H   0  0
    3.4589   -1.2486    0.0000 H   0  0
    1.2964   -2.4973    0.0000 H   0  0
  1  2  2  0
  1  6  1  0
  2  3  1  0
  3  4  2  0
  4  5  1  0
  5  6  2  0
  5 10  1  0
  6  7  1  0
  7  8  2  0
  8  9  1  0
  9 10  2  0
  2 11  1  0
  3 12  1  0
  4 13  1  0
  7 14  1  0
  8 15  1  0
  9 16  1  0
 10 17  1  0
V    1 0
V    2 1
V    3 2
V    4 3
V    5 4
V    6 5
V    7 6
V    8 7
V    9 8
V   10 9
M  END
> <DSSTox_RID>
66749

> <DSSTox_CID>
1798

> <DSSTox_CID_Parent>
1798

> <DSSTox_Generic_SID>
21798

> <DSSTox_FileID>
257_TXCST2_v1a

> <STRUCTURE_Formula>
C9H7N

> <STRUCTURE_MolecularWeight>
129.1586

> <STRUCTURE_ChemicalType>
defined organic

> <STRUCTURE_TestedForm_DefinedOrganic>
parent

> <STRUCTURE_Shown>
tested chemical

> <TestSubstance_ChemicalName>
Quinoline

> <TestSubstance_CASRN>
91-22-5

> <TestSubstance_Description>
single chemical compound

> <STRUCTURE_ChemicalName_IUPAC>
quinoline

> <STRUCTURE_SMILES>
N1=CC=CC2=C1C=CC=C2

> <STRUCTURE_Parent_SMILES>
N1=CC=CC2=C1C=CC=C2

> <STRUCTURE_InChIS>
InChI=1S/C9H7N/c1-2-6-9-8(4-1)5-3-7-10-9/h1-7H

> <STRUCTURE_InChIKey>
SMWDFEZZVXVKRB-UHFFFAOYSA-N

> <Substance_modify_yyyymmdd>
20080429

> <Coord_Metals>
0

> <Index>
257

> <Canonical_Smiles>
c1ccc2ncccc2c1

> <Molecular_Weight>
129.15858

> <Frequency>
1

$$$$

  SciTegic          2D

 26 26  0  0  0  0            999 V2000
    3.8933   -3.7570    0.0000 C   0  0
    2.5951   -3.0039    0.0000 C   0  0
    2.5973   -1.5031    0.0000 N   0  0
    3.8968   -0.7523    0.0000 C   0  0
    3.8973    0.7486    0.0000 C   0  0
    1.2990   -0.7500    0.0000 C   0  0
    1.2990    0.7500    0.0000 C   0  0
    0.0000    1.5000    0.0000 C   0  0
   -1.2990    0.7500    0.0000 C   0  0
   -1.2990   -0.7500    0.0000 C   0  0
    0.0000   -1.5000    0.0000 C   0  0
    3.8919   -4.7570    0.0000 H   0  0
    4.7586   -4.2584    0.0000 H   0  0
    4.7602   -3.2585    0.0000 H   0  0
    1.7299   -2.5025    0.0000 H   0  0
    1.7282   -3.5024    0.0000 H   0  0
    3.8969   -1.7523    0.0000 H   0  0
    4.7628   -1.2523    0.0000 H   0  0
    4.7631    1.2488    0.0000 H   0  0
    3.8971    1.7486    0.0000 H   0  0
    3.0312    1.2486    0.0000 H   0  0
    2.1651    1.2500    0.0000 H   0  0
    0.0000    2.5000    0.0000 H   0  0
   -2.1651    1.2500    0.0000 H   0  0
   -2.1651   -1.2500    0.0000 H   0  0
    0.0000   -2.5000    0.0000 H   0  0
  1  2  1  0
  2  3  1  0
  3  4  1  0
  3  6  1  0
  4  5  1  0
  6  7  2  0
  6 11  1  0
  7  8  1  0
  8  9  2  0
  9 10  1  0
 10 11  2  0
  1 12  1  0
  1 13  1  0
  1 14  1  0
  2 15  1  0
  2 16  1  0
  4 17  1  0
  4 18  1  0
  5 19  1  0
  5 20  1  0
  5 21  1  0
  7 22  1  0
  8 23  1  0
  9 24  1  0
 10 25  1  0
 11 26  1  0
V    1 0
V    2 1
V    3 2
V    4 3
V    5 4
V    6 5
V    7 6
V    8 7
V    9 8
V   10 9
V   11 10
M  END
> <DSSTox_RID>
60156

> <DSSTox_CID>
1800

> <DSSTox_CID_Parent>
1800

> <DSSTox_Generic_SID>
21800

> <DSSTox_FileID>
258_TXCST2_v1a

> <STRUCTURE_Formula>
C10H15N

> <STRUCTURE_MolecularWeight>
149.2328

> <STRUCTURE_ChemicalType>
defined organic

> <STRUCTURE_TestedForm_DefinedOrganic>
parent

> <STRUCTURE_Shown>
tested chemical

> <TestSubstance_ChemicalName>
N,N-Diethyl aniline

> <TestSubstance_CASRN>
91-66-7

> <TestSubstance_Description>
single chemical compound

> <STRUCTURE_ChemicalName_IUPAC>
N,N-diethylaniline

> <STRUCTURE_SMILES>
CCN(CC)C1=CC=CC=C1

> <STRUCTURE_Parent_SMILES>
CCN(CC)C1=CC=CC=C1

> <STRUCTURE_InChIS>
InChI=1S/C10H15N/c1-3-11(4-2)10-8-6-5-7-9-10/h5-9H,3-4H2,1-2H3

> <STRUCTURE_InChIKey>
GGSUCNLOZRCGPQ-UHFFFAOYSA-N

> <Substance_modify_yyyymmdd>
20080429

> <Coord_Metals>
0

> <Index>
258

> <Canonical_Smiles>
CCN(CC)c1ccccc1

> <Molecular_Weight>
149.23279

> <Frequency>
1

$$$$

  SciTegic          2D

 16 16  0  0  0  0            999 V2000
    2.5973   -1.5031    0.0000 O   0  0
    1.2990   -0.7500    0.0000 C   0  0
    1.2990    0.7500    0.0000 C   0  0
    2.5988    1.5004    0.0000 C   0  0
    0.0000    1.5000    0.0000 C   0  0
   -1.2990    0.7500    0.0000 C   0  0
   -1.2990   -0.7500    0.0000 C   0  0
    0.0000   -1.5000    0.0000 C   0  0
    2.5958   -2.5031    0.0000 H   0  0
    3.4651    1.0010    0.0000 H   0  0
    2.5985    2.5004    0.0000 H   0  0
    3.4646    2.0008    0.0000 H   0  0
    0.0000    2.5000    0.0000 H   0  0
   -2.1651    1.2500    0.0000 H   0  0
   -2.1651   -1.2500    0.0000 H   0  0
    0.0000   -2.5000    0.0000 H   0  0
  1  2  1  0
  2  3  2  0
  2  8  1  0
  3  4  1  0
  3  5  1  0
  5  6  2  0
  6  7  1  0
  7  8  2  0
  1  9  1  0
  4 10  1  0
  4 11  1  0
  4 12  1  0
  5 13  1  0
  6 14  1  0
  7 15  1  0
  8 16  1  0
V    1 0
V    2 1
V    3 2
V    4 3
V    5 4
V    6 5
V    7 6
V    8 7
M  END
> <DSSTox_RID>
60084

> <DSSTox_CID>
1808

> <DSSTox_CID_Parent>
1808

> <DSSTox_Generic_SID>
21808

> <DSSTox_FileID>
259_TXCST2_v1a

> <STRUCTURE_Formula>
C7H8O

> <STRUCTURE_MolecularWeight>
108.1378

> <STRUCTURE_ChemicalType>
defined organic

> <STRUCTURE_TestedForm_DefinedOrganic>
parent

> <STRUCTURE_Shown>
tested chemical

> <TestSubstance_ChemicalName>
2-Methylphenol

> <TestSubstance_CASRN>
95-48-7

> <TestSubstance_Description>
single chemical compound

> <STRUCTURE_ChemicalName_IUPAC>
2-methylphenol

> <STRUCTURE_SMILES>
OC1=C(C)C=CC=C1

> <STRUCTURE_Parent_SMILES>
OC1=C(C)C=CC=C1

> <STRUCTURE_InChIS>
InChI=1S/C7H8O/c1-6-4-2-3-5-7(6)8/h2-5,8H,1H3

> <STRUCTURE_InChIKey>
QWVGKYWNOKOFNN-UHFFFAOYSA-N

> <Substance_modify_yyyymmdd>
20080429

> <Coord_Metals>
0

> <Index>
259

> <Canonical_Smiles>
Cc1ccccc1O

> <Molecular_Weight>
108.13782

> <Frequency>
1

$$$$

  SciTegic          2D

 15 14  0  0  0  0            999 V2000
    1.3000    0.7500    0.0000 C   0  0
    2.6000    0.0000    0.0000 C   0  0
    3.9000    0.7500    0.0000 C   0  0
    3.9031    2.2508    0.0000 C   0  0
    5.2000    0.0000    0.0000 N   0  0
    6.5000    0.7500    0.0000 O   0  0
    0.4338    0.2503    0.0000 H   0  0
    0.4340    1.2501    0.0000 H   0  0
    1.3000    1.7500    0.0000 H   0  0
    3.4659   -0.5001    0.0000 H   0  0
    2.6000   -1.0000    0.0000 H   0  0
    4.7698    2.7496    0.0000 H   0  0
    3.9046    3.2508    0.0000 H   0  0
    3.0379    2.7523    0.0000 H   0  0
    7.3661    0.2503    0.0000 H   0  0
  1  2  1  0
  2  3  1  0
  3  4  1  0
  3  5  2  0
  5  6  1  0
  1  7  1  0
  1  8  1  0
  1  9  1  0
  2 10  1  0
  2 11  1  0
  4 12  1  0
  4 13  1  0
  4 14  1  0
  6 15  1  0
V    1 0
V    2 1
V    3 2
V    4 3
V    5 4
V    6 5
M  END
> <DSSTox_RID>
59720

> <DSSTox_CID>
1821

> <DSSTox_CID_Parent>
1821

> <DSSTox_Generic_SID>
21821

> <DSSTox_FileID>
260_TXCST2_v1a

> <STRUCTURE_Formula>
C4H9NO

> <STRUCTURE_MolecularWeight>
87.1204

> <STRUCTURE_ChemicalType>
defined organic

> <STRUCTURE_TestedForm_DefinedOrganic>
parent

> <STRUCTURE_Shown>
tested chemical

> <TestSubstance_ChemicalName>
2-Butanone oxime

> <TestSubstance_CASRN>
96-29-7

> <TestSubstance_Description>
single chemical compound

> <STRUCTURE_ChemicalName_IUPAC>
(2E)-butan-2-one oxime

> <STRUCTURE_SMILES>
CCC(C)=NO

> <STRUCTURE_Parent_SMILES>
CCC(C)=NO

> <STRUCTURE_InChIS>
InChI=1S/C4H9NO/c1-3-4(2)5-6/h6H,3H2,1-2H3/b5-4+

> <STRUCTURE_InChIKey>
WHIVNJATOVLWBW-SNAWJCMRSA-N

> <Substance_modify_yyyymmdd>
20080429

> <Coord_Metals>
0

> <Index>
260

> <Canonical_Smiles>
CCC(=NO)C

> <Molecular_Weight>
87.12036

> <Frequency>
1

$$$$

  SciTegic          2D

 17 17  0  0  0  0            999 V2000
    1.2990   -0.7500    0.0000 C   0  0
    1.2990    0.7500    0.0000 C   0  0
    0.0000    1.5000    0.0000 C   0  0
   -1.2990    0.7500    0.0000 C   0  0
   -1.2990   -0.7500    0.0000 C   0  0
    0.0000   -1.5000    0.0000 C   0  0
   -0.0031   -3.0008    0.0000 C   0  0
    1.0351   -3.6026    0.0000 O   0  0
   -1.3039   -3.7494    0.0000 C   0  0
    2.1651   -1.2500    0.0000 H   0  0
    2.1651    1.2500    0.0000 H   0  0
    0.0000    2.5000    0.0000 H   0  0
   -2.1651    1.2500    0.0000 H   0  0
   -2.1651   -1.2500    0.0000 H   0  0
   -1.3060   -4.7494    0.0000 H   0  0
   -2.1709   -4.2478    0.0000 H   0  0
   -2.1691   -3.2479    0.0000 H   0  0
  1  2  2  0
  1  6  1  0
  2  3  1  0
  3  4  2  0
  4  5  1  0
  5  6  2  0
  6  7  1  0
  7  8  2  0
  7  9  1  0
  1 10  1  0
  2 11  1  0
  3 12  1  0
  4 13  1  0
  5 14  1  0
  9 15  1  0
  9 16  1  0
  9 17  1  0
V    1 0
V    2 1
V    3 2
V    4 3
V    5 4
V    6 5
V    7 6
V    8 7
V    9 8
M  END
> <DSSTox_RID>
60099

> <DSSTox_CID>
1828

> <DSSTox_CID_Parent>
1828

> <DSSTox_Generic_SID>
21828

> <DSSTox_FileID>
261_TXCST2_v1a

> <STRUCTURE_Formula>
C8H8O

> <STRUCTURE_MolecularWeight>
120.1485

> <STRUCTURE_ChemicalType>
defined organic

> <STRUCTURE_TestedForm_DefinedOrganic>
parent

> <STRUCTURE_Shown>
tested chemical

> <TestSubstance_ChemicalName>
Acetophenone

> <TestSubstance_CASRN>
98-86-2

> <TestSubstance_Description>
single chemical compound

> <STRUCTURE_ChemicalName_IUPAC>
1-phenylethanone

> <STRUCTURE_SMILES>
C1=CC=CC=C1C(=O)C

> <STRUCTURE_Parent_SMILES>
C1=CC=CC=C1C(=O)C

> <STRUCTURE_InChIS>
InChI=1S/C8H8O/c1-7(9)8-5-3-2-4-6-8/h2-6H,1H3

> <STRUCTURE_InChIKey>
KWOLFJPFCHCOCG-UHFFFAOYSA-N

> <Substance_modify_yyyymmdd>
20080429

> <Coord_Metals>
0

> <Index>
261

> <Canonical_Smiles>
CC(=O)c1ccccc1

> <Molecular_Weight>
120.14852

> <Frequency>
1

$$$$

  SciTegic          2D

 17 17  0  0  0  0            999 V2000
    2.5988   -1.5004    0.0000 C   0  0
    1.2990   -0.7500    0.0000 C   0  0
    1.2990    0.7500    0.0000 C   0  0
    0.0000    1.5000    0.0000 C   0  0
   -0.0031    3.0008    0.0000 N   0  0
   -1.0432    3.5993    0.0000 O   0  0
    1.0351    3.6026    0.0000 O   0  0
   -1.2990    0.7500    0.0000 C   0  0
   -1.2990   -0.7500    0.0000 C   0  0
    0.0000   -1.5000    0.0000 C   0  0
    3.4651   -1.0010    0.0000 H   0  0
    2.5985   -2.5004    0.0000 H   0  0
    3.4646   -2.0008    0.0000 H   0  0
    2.1651    1.2500    0.0000 H   0  0
   -2.1651    1.2500    0.0000 H   0  0
   -2.1651   -1.2500    0.0000 H   0  0
    0.0000   -2.5000    0.0000 H   0  0
  1  2  1  0
  2  3  2  0
  2 10  1  0
  3  4  1  0
  4  5  1  0
  4  8  2  0
  5  6  2  0
  5  7  2  0
  8  9  1  0
  9 10  2  0
  1 11  1  0
  1 12  1  0
  1 13  1  0
  3 14  1  0
  8 15  1  0
  9 16  1  0
 10 17  1  0
V    1 0
V    2 1
V    3 2
V    4 3
V    5 4
V    6 5
V    7 6
V    8 7
V    9 8
V   10 9
M  END
> <DSSTox_RID>
60113

> <DSSTox_CID>
1831

> <DSSTox_CID_Parent>
1831

> <DSSTox_Generic_SID>
21831

> <DSSTox_FileID>
262_TXCST2_v1a

> <STRUCTURE_Formula>
C7H7NO2

> <STRUCTURE_MolecularWeight>
137.136

> <STRUCTURE_ChemicalType>
defined organic

> <STRUCTURE_TestedForm_DefinedOrganic>
parent

> <STRUCTURE_Shown>
tested chemical

> <TestSubstance_ChemicalName>
3-Nitrotoluene

> <TestSubstance_CASRN>
99-08-1

> <TestSubstance_Description>
single chemical compound

> <STRUCTURE_ChemicalName_IUPAC>
1-methyl-3-nitrobenzene

> <STRUCTURE_SMILES>
CC1=CC([N+](=O)[O-])=CC=C1

> <STRUCTURE_Parent_SMILES>
CC1=CC([N+](=O)[O-])=CC=C1

> <STRUCTURE_InChIS>
InChI=1S/C7H7NO2/c1-6-3-2-4-7(5-6)8(9)10/h2-5H,1H3

> <STRUCTURE_InChIKey>
QZYHIOPPLUPUJF-UHFFFAOYSA-N

> <Substance_modify_yyyymmdd>
20080429

> <Coord_Metals>
0

> <Index>
262

> <Canonical_Smiles>
Cc1cccc(c1)N(=O)=O

> <Molecular_Weight>
137.13597

> <Frequency>
1

$$$$

  SciTegic          2D

 23 23  0  0  0  0            999 V2000
    2.5951   -3.0039    0.0000 C   0  0
    2.5973   -1.5031    0.0000 N   0  0
    3.8968   -0.7523    0.0000 C   0  0
    1.2990   -0.7500    0.0000 C   0  0
    1.2990    0.7500    0.0000 C   0  0
    0.0000    1.5000    0.0000 C   0  0
   -1.2990    0.7500    0.0000 C   0  0
   -2.5988    1.5004    0.0000 C   0  0
   -1.2990   -0.7500    0.0000 C   0  0
    0.0000   -1.5000    0.0000 C   0  0
    3.4601   -3.5057    0.0000 H   0  0
    2.5932   -4.0039    0.0000 H   0  0
    1.7282   -3.5024    0.0000 H   0  0
    3.8971    0.2477    0.0000 H   0  0
    4.7629   -0.2524    0.0000 H   0  0
    4.7628   -1.2523    0.0000 H   0  0
    2.1651    1.2500    0.0000 H   0  0
    0.0000    2.5000    0.0000 H   0  0
   -2.5994    2.5004    0.0000 H   0  0
   -3.4647    1.0001    0.0000 H   0  0
   -3.4651    2.0000    0.0000 H   0  0
   -2.1651   -1.2500    0.0000 H   0  0
    0.0000   -2.5000    0.0000 H   0  0
  1  2  1  0
  2  3  1  0
  2  4  1  0
  4  5  2  0
  4 10  1  0
  5  6  1  0
  6  7  2  0
  7  8  1  0
  7  9  1  0
  9 10  2  0
  1 11  1  0
  1 12  1  0
  1 13  1  0
  3 14  1  0
  3 15  1  0
  3 16  1  0
  5 17  1  0
  6 18  1  0
  8 19  1  0
  8 20  1  0
  8 21  1  0
  9 22  1  0
 10 23  1  0
V    1 0
V    2 1
V    3 2
V    4 3
V    5 4
V    6 5
V    7 6
V    8 7
V    9 8
V   10 9
M  END
> <DSSTox_RID>
60244

> <DSSTox_CID>
1832

> <DSSTox_CID_Parent>
1832

> <DSSTox_Generic_SID>
21832

> <DSSTox_FileID>
263_TXCST2_v1a

> <STRUCTURE_Formula>
C9H13N

> <STRUCTURE_MolecularWeight>
135.2062

> <STRUCTURE_ChemicalType>
defined organic

> <STRUCTURE_TestedForm_DefinedOrganic>
parent

> <STRUCTURE_Shown>
tested chemical

> <TestSubstance_ChemicalName>
N,N,4-Trimethylaniline

> <TestSubstance_CASRN>
99-97-8

> <TestSubstance_Description>
single chemical compound

> <STRUCTURE_ChemicalName_IUPAC>
N,N,4-trimethylaniline

> <STRUCTURE_SMILES>
CN(C)C1=CC=C(C)C=C1

> <STRUCTURE_Parent_SMILES>
CN(C)C1=CC=C(C)C=C1

> <STRUCTURE_InChIS>
InChI=1S/C9H13N/c1-8-4-6-9(7-5-8)10(2)3/h4-7H,1-3H3

> <STRUCTURE_InChIKey>
GYVGXEWAOAAJEU-UHFFFAOYSA-N

> <Substance_modify_yyyymmdd>
20080429

> <Coord_Metals>
0

> <Index>
263

> <Canonical_Smiles>
CN(C)c1ccc(C)cc1

> <Molecular_Weight>
135.20621

> <Frequency>
1

$$$$

  SciTegic          2D

 15 15  0  0  0  0            999 V2000
    2.5973   -1.5031    0.0000 O   0  0
    1.2990   -0.7500    0.0000 C   0  0
    1.2990    0.7500    0.0000 C   0  0
    0.0000    1.5000    0.0000 C   0  0
   -1.2990    0.7500    0.0000 C   0  0
   -2.6003    1.4977    0.0000 N   0  0
   -3.6387    0.8962    0.0000 O   0  0
   -2.6024    2.6977    0.0000 O   0  0
   -1.2990   -0.7500    0.0000 C   0  0
    0.0000   -1.5000    0.0000 C   0  0
    2.5958   -2.5031    0.0000 H   0  0
    2.1651    1.2500    0.0000 H   0  0
    0.0000    2.5000    0.0000 H   0  0
   -2.1651   -1.2500    0.0000 H   0  0
    0.0000   -2.5000    0.0000 H   0  0
  1  2  1  0
  2  3  2  0
  2 10  1  0
  3  4  1  0
  4  5  2  0
  5  6  1  0
  5  9  1  0
  6  7  2  0
  6  8  2  0
  9 10  2  0
  1 11  1  0
  3 12  1  0
  4 13  1  0
  9 14  1  0
 10 15  1  0
V    1 0
V    2 1
V    3 2
V    4 3
V    5 4
V    6 5
V    7 6
V    8 7
V    9 8
V   10 9
M  END
> <DSSTox_RID>
59881
60849

> <DSSTox_CID>
1834
7320

> <DSSTox_CID_Parent>
1834

> <DSSTox_Generic_SID>
21834
27320

> <DSSTox_FileID>
264_TXCST2_v1a
574_TXCST2_v1a

> <STRUCTURE_Formula>
C6H5NO3
C6H4NNaO3

> <STRUCTURE_MolecularWeight>
139.1088
161.0906

> <STRUCTURE_ChemicalType>
defined organic
defined organic

> <STRUCTURE_TestedForm_DefinedOrganic>
parent
salt Na

> <STRUCTURE_Shown>
tested chemical
tested chemical

> <TestSubstance_ChemicalName>
4-Nitrophenol
Sodium 4-nitrophenolate

> <TestSubstance_CASRN>
100-02-7
824-78-2

> <TestSubstance_Description>
single chemical compound
single chemical compound

> <STRUCTURE_ChemicalName_IUPAC>
4-nitrophenol
sodium 4-nitrophenolate

> <STRUCTURE_SMILES>
OC1=CC=C([N+](=O)[O-])C=C1
[O-]C1=CC=C([N+]([O-])=O)C=C1.[Na+]

> <STRUCTURE_Parent_SMILES>
OC1=CC=C([N+](=O)[O-])C=C1
OC1=CC=C([N+]([O-])=O)C=C1

> <STRUCTURE_InChIS>
InChI=1S/C6H5NO3/c8-6-3-1-5(2-4-6)7(9)10/h1-4,8H
InChI=1S/C6H5NO3.Na/c8-6-3-1-5(2-4-6)7(9)10;/h1-4,8H;/q;+1/p-1

> <STRUCTURE_InChIKey>
BTJIUGUIPKRLHP-UHFFFAOYSA-N
CURNJKLCYZZBNJ-UHFFFAOYSA-M

> <Substance_modify_yyyymmdd>
20080429
20080429

> <Coord_Metals>
0
0

> <Index>
264
574

> <Canonical_Smiles>
Oc1ccc(cc1)N(=O)=O

> <Molecular_Weight>
139.10879
139.10879

> <Frequency>
2

$$$$

  SciTegic          2D

 23 22  0  0  0  0            999 V2000
    1.3000    0.7500    0.0000 C   0  0
    2.6000    0.0000    0.0000 C   0  0
    3.9000    0.7500    0.0000 N   0  0
    5.2000    0.0000    0.0000 C   0  0
    6.5000    0.7500    0.0000 C   0  0
    7.7999    0.0000    0.0000 O   0  0
    3.9031    2.2508    0.0000 C   0  0
    5.2039    2.9994    0.0000 C   0  0
    0.4338    0.2503    0.0000 H   0  0
    0.4340    1.2501    0.0000 H   0  0
    1.3000    1.7500    0.0000 H   0  0
    3.4659   -0.5001    0.0000 H   0  0
    2.6000   -1.0000    0.0000 H   0  0
    4.3340   -0.5001    0.0000 H   0  0
    5.2000   -1.0000    0.0000 H   0  0
    7.3659    1.2501    0.0000 H   0  0
    6.5000    1.7500    0.0000 H   0  0
    8.6661    0.4997    0.0000 H   0  0
    3.0361    1.7525    0.0000 H   0  0
    3.0379    2.7523    0.0000 H   0  0
    5.2059    3.9994    0.0000 H   0  0
    6.0708    3.4977    0.0000 H   0  0
    6.0690    2.4979    0.0000 H   0  0
  1  2  1  0
  2  3  1  0
  3  4  1  0
  3  7  1  0
  4  5  1  0
  5  6  1  0
  7  8  1  0
  1  9  1  0
  1 10  1  0
  1 11  1  0
  2 12  1  0
  2 13  1  0
  4 14  1  0
  4 15  1  0
  5 16  1  0
  5 17  1  0
  6 18  1  0
  7 19  1  0
  7 20  1  0
  8 21  1  0
  8 22  1  0
  8 23  1  0
V    1 0
V    2 1
V    3 2
V    4 3
V    5 4
V    6 5
V    7 6
V    8 7
M  END
> <DSSTox_RID>
66637

> <DSSTox_CID>
1837

> <DSSTox_CID_Parent>
1837

> <DSSTox_Generic_SID>
21837

> <DSSTox_FileID>
265_TXCST2_v1a

> <STRUCTURE_Formula>
C6H15NO

> <STRUCTURE_MolecularWeight>
117.1894

> <STRUCTURE_ChemicalType>
defined organic

> <STRUCTURE_TestedForm_DefinedOrganic>
parent

> <STRUCTURE_Shown>
tested chemical

> <TestSubstance_ChemicalName>
N,N-Diethylethanolamine

> <TestSubstance_CASRN>
100-37-8

> <TestSubstance_Description>
single chemical compound

> <STRUCTURE_ChemicalName_IUPAC>
2-(diethylamino)ethanol

> <STRUCTURE_SMILES>
CCN(CCO)CC

> <STRUCTURE_Parent_SMILES>
CCN(CCO)CC

> <STRUCTURE_InChIS>
InChI=1S/C6H15NO/c1-3-7(4-2)5-6-8/h8H,3-6H2,1-2H3

> <STRUCTURE_InChIKey>
BFSVOASYOCHEOV-UHFFFAOYSA-N

> <Substance_modify_yyyymmdd>
20080429

> <Coord_Metals>
0

> <Index>
265

> <Canonical_Smiles>
CCN(CC)CCO

> <Molecular_Weight>
117.1894

> <Frequency>
1

$$$$

  SciTegic          2D

 23 23  0  0  0  0            999 V2000
    3.8933   -3.7570    0.0000 C   0  0
    2.5951   -3.0039    0.0000 C   0  0
    2.5973   -1.5031    0.0000 N   0  0
    1.2990   -0.7500    0.0000 C   0  0
    1.2990    0.7500    0.0000 C   0  0
    0.0000    1.5000    0.0000 C   0  0
    0.0000    3.0008    0.0000 C   0  0
   -1.2990    0.7500    0.0000 C   0  0
   -1.2990   -0.7500    0.0000 C   0  0
    0.0000   -1.5000    0.0000 C   0  0
    3.8919   -4.7570    0.0000 H   0  0
    4.7602   -3.2585    0.0000 H   0  0
    4.7586   -4.2584    0.0000 H   0  0
    1.7282   -3.5024    0.0000 H   0  0
    1.7299   -2.5025    0.0000 H   0  0
    3.4642   -1.0046    0.0000 H   0  0
    2.1651    1.2500    0.0000 H   0  0
    0.8657    3.5014    0.0000 H   0  0
   -0.8662    3.5005    0.0000 H   0  0
   -0.0005    4.0008    0.0000 H   0  0
   -2.1651    1.2500    0.0000 H   0  0
   -2.1651   -1.2500    0.0000 H   0  0
    0.0000   -2.5000    0.0000 H   0  0
  1  2  1  0
  2  3  1  0
  3  4  1  0
  4  5  2  0
  4 10  1  0
  5  6  1  0
  6  7  1  0
  6  8  2  0
  8  9  1  0
  9 10  2  0
  1 11  1  0
  1 12  1  0
  1 13  1  0
  2 14  1  0
  2 15  1  0
  3 16  1  0
  5 17  1  0
  7 18  1  0
  7 19  1  0
  7 20  1  0
  8 21  1  0
  9 22  1  0
 10 23  1  0
V    1 0
V    2 1
V    3 2
V    4 3
V    5 4
V    6 5
V    7 6
V    8 7
V    9 8
V   10 9
M  END
> <DSSTox_RID>
59541

> <DSSTox_CID>
1848

> <DSSTox_CID_Parent>
1848

> <DSSTox_Generic_SID>
21848

> <DSSTox_FileID>
266_TXCST2_v1a

> <STRUCTURE_Formula>
C9H13N

> <STRUCTURE_MolecularWeight>
135.2062

> <STRUCTURE_ChemicalType>
defined organic

> <STRUCTURE_TestedForm_DefinedOrganic>
parent

> <STRUCTURE_Shown>
tested chemical

> <TestSubstance_ChemicalName>
N-Ethyl-3-methylaniline

> <TestSubstance_CASRN>
102-27-2

> <TestSubstance_Description>
single chemical compound

> <STRUCTURE_ChemicalName_IUPAC>
N-ethyl-3-methylaniline

> <STRUCTURE_SMILES>
CCNC1=CC(C)=CC=C1

> <STRUCTURE_Parent_SMILES>
CCNC1=CC(C)=CC=C1

> <STRUCTURE_InChIS>
InChI=1S/C9H13N/c1-3-10-9-6-4-5-8(2)7-9/h4-7,10H,3H2,1-2H3

> <STRUCTURE_InChIKey>
GUYMMHOQXYZMJQ-UHFFFAOYSA-N

> <Substance_modify_yyyymmdd>
20080429

> <Coord_Metals>
0

> <Index>
266

> <Canonical_Smiles>
CCNc1cccc(C)c1

> <Molecular_Weight>
135.20621

> <Frequency>
1

$$$$

  SciTegic          2D

 19 19  0  0  0  0            999 V2000
    2.5973   -1.5031    0.0000 O   0  0
    1.2990   -0.7500    0.0000 C   0  0
    1.2990    0.7500    0.0000 C   0  0
    2.5988    1.5004    0.0000 C   0  0
    0.0000    1.5000    0.0000 C   0  0
   -1.2990    0.7500    0.0000 C   0  0
   -2.5988    1.5004    0.0000 C   0  0
   -1.2990   -0.7500    0.0000 C   0  0
    0.0000   -1.5000    0.0000 C   0  0
    2.5958   -2.5031    0.0000 H   0  0
    3.4651    1.0010    0.0000 H   0  0
    2.5985    2.5004    0.0000 H   0  0
    3.4646    2.0008    0.0000 H   0  0
    0.0000    2.5000    0.0000 H   0  0
   -2.5994    2.5004    0.0000 H   0  0
   -3.4647    1.0001    0.0000 H   0  0
   -3.4651    2.0000    0.0000 H   0  0
   -2.1651   -1.2500    0.0000 H   0  0
    0.0000   -2.5000    0.0000 H   0  0
  1  2  1  0
  2  3  2  0
  2  9  1  0
  3  4  1  0
  3  5  1  0
  5  6  2  0
  6  7  1  0
  6  8  1  0
  8  9  2  0
  1 10  1  0
  4 11  1  0
  4 12  1  0
  4 13  1  0
  5 14  1  0
  7 15  1  0
  7 16  1  0
  7 17  1  0
  8 18  1  0
  9 19  1  0
V    1 0
V    2 1
V    3 2
V    4 3
V    5 4
V    6 5
V    7 6
V    8 7
V    9 8
M  END
> <DSSTox_RID>
61032

> <DSSTox_CID>
1864

> <DSSTox_CID_Parent>
1864

> <DSSTox_Generic_SID>
21864

> <DSSTox_FileID>
267_TXCST2_v1a

> <STRUCTURE_Formula>
C8H10O

> <STRUCTURE_MolecularWeight>
122.1644

> <STRUCTURE_ChemicalType>
defined organic

> <STRUCTURE_TestedForm_DefinedOrganic>
parent

> <STRUCTURE_Shown>
tested chemical

> <TestSubstance_ChemicalName>
2,4-Dimethylphenol

> <TestSubstance_CASRN>
105-67-9

> <TestSubstance_Description>
single chemical compound

> <STRUCTURE_ChemicalName_IUPAC>
2,4-dimethylphenol

> <STRUCTURE_SMILES>
OC1=C(C)C=C(C)C=C1

> <STRUCTURE_Parent_SMILES>
OC1=C(C)C=C(C)C=C1

> <STRUCTURE_InChIS>
InChI=1S/C8H10O/c1-6-3-4-8(9)7(2)5-6/h3-5,9H,1-2H3

> <STRUCTURE_InChIKey>
KUFFULVDNCHOFZ-UHFFFAOYSA-N

> <Substance_modify_yyyymmdd>
20080429

> <Coord_Metals>
0

> <Index>
267

> <Canonical_Smiles>
Cc1ccc(O)c(C)c1

> <Molecular_Weight>
122.1644

> <Frequency>
1

$$$$

  SciTegic          2D

 44 43  0  0  0  0            999 V2000
    1.3000    0.7500    0.0000 C   0  0
    2.6000    0.0000    0.0000 C   0  0
    3.9000    0.7500    0.0000 C   0  0
    5.2000    0.0000    0.0000 C   0  0
    6.5000    0.7500    0.0000 O   0  0
    7.7999    0.0000    0.0000 C   0  0
    7.7999   -1.2000    0.0000 O   0  0
    9.0999    0.7500    0.0000 C   0  0
   10.3999    0.0000    0.0000 C   0  0
   11.6999    0.7500    0.0000 C   0  0
   12.9999    0.0000    0.0000 C   0  0
   14.2999    0.7500    0.0000 C   0  0
   14.2999    1.9500    0.0000 O   0  0
   15.5999    0.0000    0.0000 O   0  0
   16.8999    0.7500    0.0000 C   0  0
   18.1999    0.0000    0.0000 C   0  0
   19.4998    0.7500    0.0000 C   0  0
   20.7998    0.0000    0.0000 C   0  0
    0.4338    0.2503    0.0000 H   0  0
    1.3000    1.7500    0.0000 H   0  0
    0.4340    1.2501    0.0000 H   0  0
    2.6000   -1.0000    0.0000 H   0  0
    1.7340   -0.5001    0.0000 H   0  0
    3.9000    1.7500    0.0000 H   0  0
    3.0340    1.2501    0.0000 H   0  0
    5.2000   -1.0000    0.0000 H   0  0
    6.0659   -0.5001    0.0000 H   0  0
    9.0999    1.7500    0.0000 H   0  0
    8.2340    1.2501    0.0000 H   0  0
   10.3999   -1.0000    0.0000 H   0  0
    9.5340   -0.5001    0.0000 H   0  0
   11.6999    1.7500    0.0000 H   0  0
   10.8340    1.2501    0.0000 H   0  0
   12.9999   -1.0000    0.0000 H   0  0
   13.8658   -0.5001    0.0000 H   0  0
   16.8999    1.7500    0.0000 H   0  0
   16.0339    1.2501    0.0000 H   0  0
   18.1999   -1.0000    0.0000 H   0  0
   17.3339   -0.5001    0.0000 H   0  0
   19.4998    1.7500    0.0000 H   0  0
   18.6339    1.2501    0.0000 H   0  0
   21.6660    0.4997    0.0000 H   0  0
   20.7998   -1.0000    0.0000 H   0  0
   21.6658   -0.5001    0.0000 H   0  0
  1  2  1  0
  2  3  1  0
  3  4  1  0
  4  5  1  0
  5  6  1  0
  6  7  2  0
  6  8  1  0
  8  9  1  0
  9 10  1  0
 10 11  1  0
 11 12  1  0
 12 13  2  0
 12 14  1  0
 14 15  1  0
 15 16  1  0
 16 17  1  0
 17 18  1  0
  1 19  1  0
  1 20  1  0
  1 21  1  0
  2 22  1  0
  2 23  1  0
  3 24  1  0
  3 25  1  0
  4 26  1  0
  4 27  1  0
  8 28  1  0
  8 29  1  0
  9 30  1  0
  9 31  1  0
 10 32  1  0
 10 33  1  0
 11 34  1  0
 11 35  1  0
 15 36  1  0
 15 37  1  0
 16 38  1  0
 16 39  1  0
 17 40  1  0
 17 41  1  0
 18 42  1  0
 18 43  1  0
 18 44  1  0
V    1 0
V    2 1
V    3 2
V    4 3
V    5 4
V    6 5
V    7 6
V    8 7
V    9 8
V   10 9
V   11 10
V   12 11
V   13 12
V   14 13
V   15 14
V   16 15
V   17 16
V   18 17
M  END
> <DSSTox_RID>
60200

> <DSSTox_CID>
1866

> <DSSTox_CID_Parent>
1866

> <DSSTox_Generic_SID>
21866

> <DSSTox_FileID>
268_TXCST2_v1a

> <STRUCTURE_Formula>
C14H26O4

> <STRUCTURE_MolecularWeight>
258.3538

> <STRUCTURE_ChemicalType>
defined organic

> <STRUCTURE_TestedForm_DefinedOrganic>
parent

> <STRUCTURE_Shown>
tested chemical

> <TestSubstance_ChemicalName>
Dibutyl hexanedioate

> <TestSubstance_CASRN>
105-99-7

> <TestSubstance_Description>
single chemical compound

> <STRUCTURE_ChemicalName_IUPAC>
dibutyl hexanedioate

> <STRUCTURE_SMILES>
CCCCOC(=O)CCCCC(=O)OCCCC

> <STRUCTURE_Parent_SMILES>
CCCCOC(=O)CCCCC(=O)OCCCC

> <STRUCTURE_InChIS>
InChI=1S/C14H26O4/c1-3-5-11-17-13(15)9-7-8-10-14(16)18-12-6-4-2/h3-12H2,1-2H3

> <STRUCTURE_InChIKey>
XTJFFFGAUHQWII-UHFFFAOYSA-N

> <Substance_modify_yyyymmdd>
20080429

> <Coord_Metals>
0

> <Index>
268

> <Canonical_Smiles>
CCCCOC(=O)CCCCC(=O)OCCCC

> <Molecular_Weight>
258.35383

> <Frequency>
1

$$$$

  SciTegic          2D

 16 16  0  0  0  0            999 V2000
    2.5973   -1.5031    0.0000 O   0  0
    1.2990   -0.7500    0.0000 C   0  0
    1.2990    0.7500    0.0000 C   0  0
    0.0000    1.5000    0.0000 C   0  0
   -1.2990    0.7500    0.0000 C   0  0
   -2.5988    1.5004    0.0000 C   0  0
   -1.2990   -0.7500    0.0000 C   0  0
    0.0000   -1.5000    0.0000 C   0  0
    2.5958   -2.5031    0.0000 H   0  0
    2.1651    1.2500    0.0000 H   0  0
    0.0000    2.5000    0.0000 H   0  0
   -2.5994    2.5004    0.0000 H   0  0
   -3.4647    1.0001    0.0000 H   0  0
   -3.4651    2.0000    0.0000 H   0  0
   -2.1651   -1.2500    0.0000 H   0  0
    0.0000   -2.5000    0.0000 H   0  0
  1  2  1  0
  2  3  2  0
  2  8  1  0
  3  4  1  0
  4  5  2  0
  5  6  1  0
  5  7  1  0
  7  8  2  0
  1  9  1  0
  3 10  1  0
  4 11  1  0
  6 12  1  0
  6 13  1  0
  6 14  1  0
  7 15  1  0
  8 16  1  0
V    1 0
V    2 1
V    3 2
V    4 3
V    5 4
V    6 5
V    7 6
V    8 7
M  END
> <DSSTox_RID>
60278

> <DSSTox_CID>
1869

> <DSSTox_CID_Parent>
1869

> <DSSTox_Generic_SID>
21869

> <DSSTox_FileID>
269_TXCST2_v1a

> <STRUCTURE_Formula>
C7H8O

> <STRUCTURE_MolecularWeight>
108.1378

> <STRUCTURE_ChemicalType>
defined organic

> <STRUCTURE_TestedForm_DefinedOrganic>
parent

> <STRUCTURE_Shown>
tested chemical

> <TestSubstance_ChemicalName>
4-Methylphenol

> <TestSubstance_CASRN>
106-44-5

> <TestSubstance_Description>
single chemical compound

> <STRUCTURE_ChemicalName_IUPAC>
4-methylphenol

> <STRUCTURE_SMILES>
OC1=CC=C(C)C=C1

> <STRUCTURE_Parent_SMILES>
OC1=CC=C(C)C=C1

> <STRUCTURE_InChIS>
InChI=1S/C7H8O/c1-6-2-4-7(8)5-3-6/h2-5,8H,1H3

> <STRUCTURE_InChIKey>
IWDCLRJOBJJRNH-UHFFFAOYSA-N

> <Substance_modify_yyyymmdd>
20080429

> <Coord_Metals>
0

> <Index>
269

> <Canonical_Smiles>
Cc1ccc(O)cc1

> <Molecular_Weight>
108.13782

> <Frequency>
1

$$$$

  SciTegic          2D

 17 17  0  0  0  0            999 V2000
    2.5973   -1.5031    0.0000 N   0  0
    1.2990   -0.7500    0.0000 C   0  0
    1.2990    0.7500    0.0000 C   0  0
    0.0000    1.5000    0.0000 C   0  0
   -1.2990    0.7500    0.0000 C   0  0
   -2.5988    1.5004    0.0000 C   0  0
   -1.2990   -0.7500    0.0000 C   0  0
    0.0000   -1.5000    0.0000 C   0  0
    2.5958   -2.5031    0.0000 H   0  0
    3.4642   -1.0046    0.0000 H   0  0
    2.1651    1.2500    0.0000 H   0  0
    0.0000    2.5000    0.0000 H   0  0
   -2.5994    2.5004    0.0000 H   0  0
   -3.4647    1.0001    0.0000 H   0  0
   -3.4651    2.0000    0.0000 H   0  0
   -2.1651   -1.2500    0.0000 H   0  0
    0.0000   -2.5000    0.0000 H   0  0
  1  2  1  0
  2  3  2  0
  2  8  1  0
  3  4  1  0
  4  5  2  0
  5  6  1  0
  5  7  1  0
  7  8  2  0
  1  9  1  0
  1 10  1  0
  3 11  1  0
  4 12  1  0
  6 13  1  0
  6 14  1  0
  6 15  1  0
  7 16  1  0
  8 17  1  0
V    1 0
V    2 1
V    3 2
V    4 3
V    5 4
V    6 5
V    7 6
V    8 7
M  END
> <DSSTox_RID>
59577

> <DSSTox_CID>
1872

> <DSSTox_CID_Parent>
1872

> <DSSTox_Generic_SID>
21872

> <DSSTox_FileID>
270_TXCST2_v1a

> <STRUCTURE_Formula>
C7H9N

> <STRUCTURE_MolecularWeight>
107.1531

> <STRUCTURE_ChemicalType>
defined organic

> <STRUCTURE_TestedForm_DefinedOrganic>
parent

> <STRUCTURE_Shown>
tested chemical

> <TestSubstance_ChemicalName>
4-Methylbenzeneamine

> <TestSubstance_CASRN>
106-49-0

> <TestSubstance_Description>
single chemical compound

> <STRUCTURE_ChemicalName_IUPAC>
4-methylaniline

> <STRUCTURE_SMILES>
NC1=CC=C(C)C=C1

> <STRUCTURE_Parent_SMILES>
NC1=CC=C(C)C=C1

> <STRUCTURE_InChIS>
InChI=1S/C7H9N/c1-6-2-4-7(8)5-3-6/h2-5H,8H2,1H3

> <STRUCTURE_InChIKey>
RZXMPPFPUUCRFN-UHFFFAOYSA-N

> <Substance_modify_yyyymmdd>
20080429

> <Coord_Metals>
0

> <Index>
270

> <Canonical_Smiles>
Cc1ccc(N)cc1

> <Molecular_Weight>
107.15306

> <Frequency>
1

$$$$

  SciTegic          2D

  9  8  0  0  0  0            999 V2000
    0.2606    0.1503    0.0000 Cl  0  0
    1.3000    0.7500    0.0000 C   0  0
    2.6000    0.0000    0.0000 C   0  0
    3.9000    0.7500    0.0000 O   0  0
    1.3000    1.7500    0.0000 H   0  0
    0.4340    1.2501    0.0000 H   0  0
    2.6000   -1.0000    0.0000 H   0  0
    3.4659   -0.5001    0.0000 H   0  0
    4.7662    0.2503    0.0000 H   0  0
  1  2  1  0
  2  3  1  0
  3  4  1  0
  2  5  1  0
  2  6  1  0
  3  7  1  0
  3  8  1  0
  4  9  1  0
V    1 0
V    2 1
V    3 2
V    4 3
M  END
> <DSSTox_RID>
59959

> <DSSTox_CID>
1877

> <DSSTox_CID_Parent>
1877

> <DSSTox_Generic_SID>
21877

> <DSSTox_FileID>
271_TXCST2_v1a

> <STRUCTURE_Formula>
C2H5ClO

> <STRUCTURE_MolecularWeight>
80.5135

> <STRUCTURE_ChemicalType>
defined organic

> <STRUCTURE_TestedForm_DefinedOrganic>
parent

> <STRUCTURE_Shown>
tested chemical

> <TestSubstance_ChemicalName>
2-Chloroethanol

> <TestSubstance_CASRN>
107-07-3

> <TestSubstance_Description>
single chemical compound

> <STRUCTURE_ChemicalName_IUPAC>
2-chloroethanol

> <STRUCTURE_SMILES>
ClCCO

> <STRUCTURE_Parent_SMILES>
ClCCO

> <STRUCTURE_InChIS>
InChI=1S/C2H5ClO/c3-1-2-4/h4H,1-2H2

> <STRUCTURE_InChIKey>
SZIFAVKTNFCBPC-UHFFFAOYSA-N

> <Substance_modify_yyyymmdd>
20080429

> <Coord_Metals>
0

> <Index>
271

> <Canonical_Smiles>
OCCCl

> <Molecular_Weight>
80.5135

> <Frequency>
1

$$$$

  SciTegic          2D

 21 20  0  0  0  0            999 V2000
    1.3000    0.7500    0.0000 C   0  0
    2.6000    0.0000    0.0000 C   0  0
    2.6000   -1.2000    0.0000 O   0  0
    3.9000    0.7500    0.0000 O   0  0
    5.2000    0.0000    0.0000 C   0  0
    6.5000    0.7500    0.0000 C   0  0
    7.7999    0.0000    0.0000 O   0  0
    9.0999    0.7500    0.0000 C   0  0
   10.3999    0.0000    0.0000 C   0  0
    0.4338    0.2503    0.0000 H   0  0
    0.4340    1.2501    0.0000 H   0  0
    1.3000    1.7500    0.0000 H   0  0
    4.3340   -0.5001    0.0000 H   0  0
    5.2000   -1.0000    0.0000 H   0  0
    7.3659    1.2501    0.0000 H   0  0
    6.5000    1.7500    0.0000 H   0  0
    8.2340    1.2501    0.0000 H   0  0
    9.0999    1.7500    0.0000 H   0  0
   11.2661    0.4997    0.0000 H   0  0
   11.2659   -0.5001    0.0000 H   0  0
   10.3999   -1.0000    0.0000 H   0  0
  1  2  1  0
  2  3  2  0
  2  4  1  0
  4  5  1  0
  5  6  1  0
  6  7  1  0
  7  8  1  0
  8  9  1  0
  1 10  1  0
  1 11  1  0
  1 12  1  0
  5 13  1  0
  5 14  1  0
  6 15  1  0
  6 16  1  0
  8 17  1  0
  8 18  1  0
  9 19  1  0
  9 20  1  0
  9 21  1  0
V    1 0
V    2 1
V    3 2
V    4 3
V    5 4
V    6 5
V    7 6
V    8 7
V    9 8
M  END
> <DSSTox_RID>
59877

> <DSSTox_CID>
1928

> <DSSTox_CID_Parent>
1928

> <DSSTox_Generic_SID>
21928

> <DSSTox_FileID>
272_TXCST2_v1a

> <STRUCTURE_Formula>
C6H12O3

> <STRUCTURE_MolecularWeight>
132.1577

> <STRUCTURE_ChemicalType>
defined organic

> <STRUCTURE_TestedForm_DefinedOrganic>
parent

> <STRUCTURE_Shown>
tested chemical

> <TestSubstance_ChemicalName>
2-Ethoxyethyl acetate

> <TestSubstance_CASRN>
111-15-9

> <TestSubstance_Description>
single chemical compound

> <STRUCTURE_ChemicalName_IUPAC>
2-ethoxyethyl acetate

> <STRUCTURE_SMILES>
CC(=O)OCCOCC

> <STRUCTURE_Parent_SMILES>
CC(=O)OCCOCC

> <STRUCTURE_InChIS>
InChI=1S/C6H12O3/c1-3-8-4-5-9-6(2)7/h3-5H2,1-2H3

> <STRUCTURE_InChIKey>
SVONRAPFKPVNKG-UHFFFAOYSA-N

> <Substance_modify_yyyymmdd>
20080429

> <Coord_Metals>
0

> <Index>
272

> <Canonical_Smiles>
CCOCCOC(=O)C

> <Molecular_Weight>
132.15768

> <Frequency>
1

$$$$

  SciTegic          2D

 18 17  0  0  0  0            999 V2000
    1.3000    0.7500    0.0000 O   0  0
    2.6000    0.0000    0.0000 C   0  0
    3.9000    0.7500    0.0000 C   0  0
    5.2000    0.0000    0.0000 N   0  0
    6.5000    0.7500    0.0000 C   0  0
    7.7999    0.0000    0.0000 C   0  0
    9.0999    0.7500    0.0000 O   0  0
    0.4338    0.2503    0.0000 H   0  0
    2.6000   -1.0000    0.0000 H   0  0
    1.7340   -0.5001    0.0000 H   0  0
    3.9000    1.7500    0.0000 H   0  0
    4.7659    1.2501    0.0000 H   0  0
    5.2000   -1.0000    0.0000 H   0  0
    5.6340    1.2501    0.0000 H   0  0
    6.5000    1.7500    0.0000 H   0  0
    8.6659   -0.5001    0.0000 H   0  0
    7.7999   -1.0000    0.0000 H   0  0
    9.9661    0.2503    0.0000 H   0  0
  1  2  1  0
  2  3  1  0
  3  4  1  0
  4  5  1  0
  5  6  1  0
  6  7  1  0
  1  8  1  0
  2  9  1  0
  2 10  1  0
  3 11  1  0
  3 12  1  0
  4 13  1  0
  5 14  1  0
  5 15  1  0
  6 16  1  0
  6 17  1  0
  7 18  1  0
V    1 0
V    2 1
V    3 2
V    4 3
V    5 4
V    6 5
V    7 6
M  END
> <DSSTox_RID>
59724

> <DSSTox_CID>
1932

> <DSSTox_CID_Parent>
1932

> <DSSTox_Generic_SID>
21932

> <DSSTox_FileID>
273_TXCST2_v1a

> <STRUCTURE_Formula>
C4H11NO2

> <STRUCTURE_MolecularWeight>
105.1356

> <STRUCTURE_ChemicalType>
defined organic

> <STRUCTURE_TestedForm_DefinedOrganic>
parent

> <STRUCTURE_Shown>
tested chemical

> <TestSubstance_ChemicalName>
Diethanolamine

> <TestSubstance_CASRN>
111-42-2

> <TestSubstance_Description>
single chemical compound

> <STRUCTURE_ChemicalName_IUPAC>
2,2'-iminodiethanol

> <STRUCTURE_SMILES>
OCCNCCO

> <STRUCTURE_Parent_SMILES>
OCCNCCO

> <STRUCTURE_InChIS>
InChI=1S/C4H11NO2/c6-3-1-5-2-4-7/h5-7H,1-4H2

> <STRUCTURE_InChIKey>
ZBCBWPMODOFKDW-UHFFFAOYSA-N

> <Substance_modify_yyyymmdd>
20080429

> <Coord_Metals>
0

> <Index>
273

> <Canonical_Smiles>
OCCNCCO

> <Molecular_Weight>
105.13564

> <Frequency>
1

$$$$

  SciTegic          2D

 16 15  0  0  0  0            999 V2000
    0.2606    0.1503    0.0000 N   0  0
    1.3000    0.7500    0.0000 C   0  0
    2.6000    1.5000    0.0000 C   0  0
    3.9000    0.7500    0.0000 C   0  0
    5.2000    1.5000    0.0000 C   0  0
    6.5000    0.7500    0.0000 C   0  0
    7.7999    1.5000    0.0000 C   0  0
    8.8394    2.0997    0.0000 N   0  0
    2.6000    2.5000    0.0000 H   0  0
    1.7340    2.0001    0.0000 H   0  0
    3.9000   -0.2500    0.0000 H   0  0
    3.0340    0.2499    0.0000 H   0  0
    5.2000    2.5000    0.0000 H   0  0
    4.3340    2.0001    0.0000 H   0  0
    6.5000   -0.2500    0.0000 H   0  0
    7.3659    0.2499    0.0000 H   0  0
  1  2  3  0
  2  3  1  0
  3  4  1  0
  4  5  1  0
  5  6  1  0
  6  7  1  0
  7  8  3  0
  3  9  1  0
  3 10  1  0
  4 11  1  0
  4 12  1  0
  5 13  1  0
  5 14  1  0
  6 15  1  0
  6 16  1  0
V    1 0
V    2 1
V    3 2
V    4 3
V    5 4
V    6 5
V    7 6
V    8 7
M  END
> <DSSTox_RID>
59502

> <DSSTox_CID>
1936

> <DSSTox_CID_Parent>
1936

> <DSSTox_Generic_SID>
21936

> <DSSTox_FileID>
274_TXCST2_v1a

> <STRUCTURE_Formula>
C6H8N2

> <STRUCTURE_MolecularWeight>
108.1411

> <STRUCTURE_ChemicalType>
defined organic

> <STRUCTURE_TestedForm_DefinedOrganic>
parent

> <STRUCTURE_Shown>
tested chemical

> <TestSubstance_ChemicalName>
Hexanedinitrile

> <TestSubstance_CASRN>
111-69-3

> <TestSubstance_Description>
single chemical compound

> <STRUCTURE_ChemicalName_IUPAC>
adiponitrile

> <STRUCTURE_SMILES>
N#CCCCCC#N

> <STRUCTURE_Parent_SMILES>
N#CCCCCC#N

> <STRUCTURE_InChIS>
InChI=1S/C6H8N2/c7-5-3-1-2-4-6-8/h1-4H2

> <STRUCTURE_InChIKey>
BTGRAWJCKBQKAO-UHFFFAOYSA-N

> <Substance_modify_yyyymmdd>
20080429

> <Coord_Metals>
0

> <Index>
274

> <Canonical_Smiles>
N#CCCCCC#N

> <Molecular_Weight>
108.14112

> <Frequency>
1

$$$$

  SciTegic          2D

 27 26  0  0  0  0            999 V2000
    1.3000    0.7500    0.0000 C   0  0
    2.6000    0.0000    0.0000 C   0  0
    3.9000    0.7500    0.0000 C   0  0
    5.2000    0.0000    0.0000 C   0  0
    6.5000    0.7500    0.0000 C   0  0
    7.7999    0.0000    0.0000 C   0  0
    9.0999    0.7500    0.0000 C   0  0
   10.3999    0.0000    0.0000 C   0  0
   11.6999    0.7500    0.0000 O   0  0
    0.4338    0.2503    0.0000 H   0  0
    1.3000    1.7500    0.0000 H   0  0
    0.4340    1.2501    0.0000 H   0  0
    2.6000   -1.0000    0.0000 H   0  0
    1.7340   -0.5001    0.0000 H   0  0
    3.9000    1.7500    0.0000 H   0  0
    3.0340    1.2501    0.0000 H   0  0
    5.2000   -1.0000    0.0000 H   0  0
    4.3340   -0.5001    0.0000 H   0  0
    6.5000    1.7500    0.0000 H   0  0
    5.6340    1.2501    0.0000 H   0  0
    7.7999   -1.0000    0.0000 H   0  0
    6.9340   -0.5001    0.0000 H   0  0
    9.0999    1.7500    0.0000 H   0  0
    8.2340    1.2501    0.0000 H   0  0
   10.3999   -1.0000    0.0000 H   0  0
   11.2659   -0.5001    0.0000 H   0  0
   12.5661    0.2503    0.0000 H   0  0
  1  2  1  0
  2  3  1  0
  3  4  1  0
  4  5  1  0
  5  6  1  0
  6  7  1  0
  7  8  1  0
  8  9  1  0
  1 10  1  0
  1 11  1  0
  1 12  1  0
  2 13  1  0
  2 14  1  0
  3 15  1  0
  3 16  1  0
  4 17  1  0
  4 18  1  0
  5 19  1  0
  5 20  1  0
  6 21  1  0
  6 22  1  0
  7 23  1  0
  7 24  1  0
  8 25  1  0
  8 26  1  0
  9 27  1  0
V    1 0
V    2 1
V    3 2
V    4 3
V    5 4
V    6 5
V    7 6
V    8 7
V    9 8
M  END
> <DSSTox_RID>
59886

> <DSSTox_CID>
1940

> <DSSTox_CID_Parent>
1940

> <DSSTox_Generic_SID>
21940

> <DSSTox_FileID>
275_TXCST2_v1a

> <STRUCTURE_Formula>
C8H18O

> <STRUCTURE_MolecularWeight>
130.2279

> <STRUCTURE_ChemicalType>
defined organic

> <STRUCTURE_TestedForm_DefinedOrganic>
parent

> <STRUCTURE_Shown>
tested chemical

> <TestSubstance_ChemicalName>
1-Octanol

> <TestSubstance_CASRN>
111-87-5

> <TestSubstance_Description>
single chemical compound

> <Source_ChemicalNote>
tested chemical contained 0.09% water (0.01 moles H2O)

> <STRUCTURE_ChemicalName_IUPAC>
octan-1-ol

> <STRUCTURE_SMILES>
CCCCCCCCO

> <STRUCTURE_Parent_SMILES>
CCCCCCCCO

> <STRUCTURE_InChIS>
InChI=1S/C8H18O/c1-2-3-4-5-6-7-8-9/h9H,2-8H2,1H3

> <STRUCTURE_InChIKey>
KBPLFHHGFOOTCA-UHFFFAOYSA-N

> <Substance_modify_yyyymmdd>
20080429

> <Coord_Metals>
0

> <Index>
275

> <Canonical_Smiles>
CCCCCCCCO

> <Molecular_Weight>
130.22792

> <Frequency>
1

$$$$

  SciTegic          2D

 23 22  0  0  0  0            999 V2000
    1.3000    0.7500    0.0000 C   0  0
    2.6000    0.0000    0.0000 C   0  0
    3.9000    0.7500    0.0000 O   0  0
    5.2000    0.0000    0.0000 C   0  0
    6.5000    0.7500    0.0000 C   0  0
    7.7999    0.0000    0.0000 O   0  0
    9.0999    0.7500    0.0000 C   0  0
   10.3999    0.0000    0.0000 C   0  0
   11.6999    0.7500    0.0000 O   0  0
    0.4338    0.2503    0.0000 H   0  0
    1.3000    1.7500    0.0000 H   0  0
    0.4340    1.2501    0.0000 H   0  0
    2.6000   -1.0000    0.0000 H   0  0
    3.4659   -0.5001    0.0000 H   0  0
    5.2000   -1.0000    0.0000 H   0  0
    4.3340   -0.5001    0.0000 H   0  0
    6.5000    1.7500    0.0000 H   0  0
    7.3659    1.2501    0.0000 H   0  0
    9.0999    1.7500    0.0000 H   0  0
    8.2340    1.2501    0.0000 H   0  0
   10.3999   -1.0000    0.0000 H   0  0
   11.2659   -0.5001    0.0000 H   0  0
   12.5661    0.2503    0.0000 H   0  0
  1  2  1  0
  2  3  1  0
  3  4  1  0
  4  5  1  0
  5  6  1  0
  6  7  1  0
  7  8  1  0
  8  9  1  0
  1 10  1  0
  1 11  1  0
  1 12  1  0
  2 13  1  0
  2 14  1  0
  4 15  1  0
  4 16  1  0
  5 17  1  0
  5 18  1  0
  7 19  1  0
  7 20  1  0
  8 21  1  0
  8 22  1  0
  9 23  1  0
V    1 0
V    2 1
V    3 2
V    4 3
V    5 4
V    6 5
V    7 6
V    8 7
V    9 8
M  END
> <DSSTox_RID>
59488

> <DSSTox_CID>
1941

> <DSSTox_CID_Parent>
1941

> <DSSTox_Generic_SID>
21941

> <DSSTox_FileID>
276_TXCST2_v1a

> <STRUCTURE_Formula>
C6H14O3

> <STRUCTURE_MolecularWeight>
134.1736

> <STRUCTURE_ChemicalType>
defined organic

> <STRUCTURE_TestedForm_DefinedOrganic>
parent

> <STRUCTURE_Shown>
tested chemical

> <TestSubstance_ChemicalName>
Diethylene glycol monoethyl ether

> <TestSubstance_CASRN>
111-90-0

> <TestSubstance_Description>
single chemical compound

> <Source_ChemicalNote>
tested chemical contained 0.011% water

> <STRUCTURE_ChemicalName_IUPAC>
2-(2-ethoxyethoxy)ethanol

> <STRUCTURE_SMILES>
CCOCCOCCO

> <STRUCTURE_Parent_SMILES>
CCOCCOCCO

> <STRUCTURE_InChIS>
InChI=1S/C6H14O3/c1-2-8-5-6-9-4-3-7/h7H,2-6H2,1H3

> <STRUCTURE_InChIKey>
XXJWXESWEXIICW-UHFFFAOYSA-N

> <Substance_modify_yyyymmdd>
20080429

> <Coord_Metals>
0

> <Index>
276

> <Canonical_Smiles>
CCOCCOCCO

> <Molecular_Weight>
134.17355

> <Frequency>
1

$$$$

  SciTegic          2D

 33 32  0  0  0  0            999 V2000
    1.3000    0.7500    0.0000 C   0  0
    2.6000    0.0000    0.0000 C   0  0
    3.9000    0.7500    0.0000 C   0  0
    5.2000    0.0000    0.0000 C   0  0
    6.5000    0.7500    0.0000 C   0  0
    7.7999    0.0000    0.0000 C   0  0
    9.0999    0.7500    0.0000 C   0  0
   10.3999    0.0000    0.0000 C   0  0
   11.6999    0.7500    0.0000 C   0  0
   12.9999    0.0000    0.0000 C   0  0
   14.2999    0.7500    0.0000 O   0  0
    0.4338    0.2503    0.0000 H   0  0
    1.3000    1.7500    0.0000 H   0  0
    0.4340    1.2501    0.0000 H   0  0
    2.6000   -1.0000    0.0000 H   0  0
    1.7340   -0.5001    0.0000 H   0  0
    3.9000    1.7500    0.0000 H   0  0
    3.0340    1.2501    0.0000 H   0  0
    5.2000   -1.0000    0.0000 H   0  0
    4.3340   -0.5001    0.0000 H   0  0
    6.5000    1.7500    0.0000 H   0  0
    5.6340    1.2501    0.0000 H   0  0
    7.7999   -1.0000    0.0000 H   0  0
    6.9340   -0.5001    0.0000 H   0  0
    9.0999    1.7500    0.0000 H   0  0
    8.2340    1.2501    0.0000 H   0  0
   10.3999   -1.0000    0.0000 H   0  0
    9.5340   -0.5001    0.0000 H   0  0
   11.6999    1.7500    0.0000 H   0  0
   10.8340    1.2501    0.0000 H   0  0
   12.9999   -1.0000    0.0000 H   0  0
   13.8658   -0.5001    0.0000 H   0  0
   15.1661    0.2503    0.0000 H   0  0
  1  2  1  0
  2  3  1  0
  3  4  1  0
  4  5  1  0
  5  6  1  0
  6  7  1  0
  7  8  1  0
  8  9  1  0
  9 10  1  0
 10 11  1  0
  1 12  1  0
  1 13  1  0
  1 14  1  0
  2 15  1  0
  2 16  1  0
  3 17  1  0
  3 18  1  0
  4 19  1  0
  4 20  1  0
  5 21  1  0
  5 22  1  0
  6 23  1  0
  6 24  1  0
  7 25  1  0
  7 26  1  0
  8 27  1  0
  8 28  1  0
  9 29  1  0
  9 30  1  0
 10 31  1  0
 10 32  1  0
 11 33  1  0
V    1 0
V    2 1
V    3 2
V    4 3
V    5 4
V    6 5
V    7 6
V    8 7
V    9 8
V   10 9
V   11 10
M  END
> <DSSTox_RID>
59510

> <DSSTox_CID>
1946

> <DSSTox_CID_Parent>
1946

> <DSSTox_Generic_SID>
21946

> <DSSTox_FileID>
277_TXCST2_v1a

> <STRUCTURE_Formula>
C10H22O

> <STRUCTURE_MolecularWeight>
158.2811

> <STRUCTURE_ChemicalType>
defined organic

> <STRUCTURE_TestedForm_DefinedOrganic>
parent

> <STRUCTURE_Shown>
tested chemical

> <TestSubstance_ChemicalName>
1-Decanol

> <TestSubstance_CASRN>
112-30-1

> <TestSubstance_Description>
single chemical compound

> <STRUCTURE_ChemicalName_IUPAC>
decan-1-ol

> <STRUCTURE_SMILES>
CCCCCCCCCCO

> <STRUCTURE_Parent_SMILES>
CCCCCCCCCCO

> <STRUCTURE_InChIS>
InChI=1S/C10H22O/c1-2-3-4-5-6-7-8-9-10-11/h11H,2-10H2,1H3

> <STRUCTURE_InChIKey>
MWKFXSUHUHTGQN-UHFFFAOYSA-N

> <Substance_modify_yyyymmdd>
20080429

> <Coord_Metals>
0

> <Index>
277

> <Canonical_Smiles>
CCCCCCCCCCO

> <Molecular_Weight>
158.28107

> <Frequency>
1

$$$$

  SciTegic          2D

 42 41  0  0  0  0            999 V2000
    1.3000    0.7500    0.0000 C   0  0
    2.6000    0.0000    0.0000 C   0  0
    3.9000    0.7500    0.0000 C   0  0
    5.2000    0.0000    0.0000 C   0  0
    6.5000    0.7500    0.0000 C   0  0
    7.7999    0.0000    0.0000 C   0  0
    9.0999    0.7500    0.0000 C   0  0
   10.3999    0.0000    0.0000 C   0  0
   11.6999    0.7500    0.0000 C   0  0
   12.9999    0.0000    0.0000 C   0  0
   14.2999    0.7500    0.0000 C   0  0
   15.5999    0.0000    0.0000 C   0  0
   16.8999    0.7500    0.0000 C   0  0
   18.1999    0.0000    0.0000 O   0  0
    0.4338    0.2503    0.0000 H   0  0
    1.3000    1.7500    0.0000 H   0  0
    0.4340    1.2501    0.0000 H   0  0
    2.6000   -1.0000    0.0000 H   0  0
    1.7340   -0.5001    0.0000 H   0  0
    3.9000    1.7500    0.0000 H   0  0
    3.0340    1.2501    0.0000 H   0  0
    5.2000   -1.0000    0.0000 H   0  0
    4.3340   -0.5001    0.0000 H   0  0
    6.5000    1.7500    0.0000 H   0  0
    5.6340    1.2501    0.0000 H   0  0
    7.7999   -1.0000    0.0000 H   0  0
    6.9340   -0.5001    0.0000 H   0  0
    9.0999    1.7500    0.0000 H   0  0
    8.2340    1.2501    0.0000 H   0  0
   10.3999   -1.0000    0.0000 H   0  0
    9.5340   -0.5001    0.0000 H   0  0
   11.6999    1.7500    0.0000 H   0  0
   10.8340    1.2501    0.0000 H   0  0
   12.9999   -1.0000    0.0000 H   0  0
   12.1340   -0.5001    0.0000 H   0  0
   14.2999    1.7500    0.0000 H   0  0
   13.4339    1.2501    0.0000 H   0  0
   15.5999   -1.0000    0.0000 H   0  0
   14.7339   -0.5001    0.0000 H   0  0
   16.8999    1.7500    0.0000 H   0  0
   17.7658    1.2501    0.0000 H   0  0
   19.0660    0.4997    0.0000 H   0  0
  1  2  1  0
  2  3  1  0
  3  4  1  0
  4  5  1  0
  5  6  1  0
  6  7  1  0
  7  8  1  0
  8  9  1  0
  9 10  1  0
 10 11  1  0
 11 12  1  0
 12 13  1  0
 13 14  1  0
  1 15  1  0
  1 16  1  0
  1 17  1  0
  2 18  1  0
  2 19  1  0
  3 20  1  0
  3 21  1  0
  4 22  1  0
  4 23  1  0
  5 24  1  0
  5 25  1  0
  6 26  1  0
  6 27  1  0
  7 28  1  0
  7 29  1  0
  8 30  1  0
  8 31  1  0
  9 32  1  0
  9 33  1  0
 10 34  1  0
 10 35  1  0
 11 36  1  0
 11 37  1  0
 12 38  1  0
 12 39  1  0
 13 40  1  0
 13 41  1  0
 14 42  1  0
V    1 0
V    2 1
V    3 2
V    4 3
V    5 4
V    6 5
V    7 6
V    8 7
V    9 8
V   10 9
V   11 10
V   12 11
V   13 12
V   14 13
M  END
> <DSSTox_RID>
65334

> <DSSTox_CID>
1947

> <DSSTox_CID_Parent>
1947

> <DSSTox_Generic_SID>
21947

> <DSSTox_FileID>
278_TXCST2_v1a

> <STRUCTURE_Formula>
C13H28O

> <STRUCTURE_MolecularWeight>
200.3608

> <STRUCTURE_ChemicalType>
defined organic

> <STRUCTURE_TestedForm_DefinedOrganic>
parent

> <STRUCTURE_Shown>
tested chemical

> <TestSubstance_ChemicalName>
1-Tridecanol

> <TestSubstance_CASRN>
112-70-9

> <TestSubstance_Description>
single chemical compound

> <STRUCTURE_ChemicalName_IUPAC>
tridecan-1-ol

> <STRUCTURE_SMILES>
CCCCCCCCCCCCCO

> <STRUCTURE_Parent_SMILES>
CCCCCCCCCCCCCO

> <STRUCTURE_InChIS>
InChI=1S/C13H28O/c1-2-3-4-5-6-7-8-9-10-11-12-13-14/h14H,2-13H2,1H3

> <STRUCTURE_InChIKey>
XFRVVPUIAFSTFO-UHFFFAOYSA-N

> <Substance_modify_yyyymmdd>
20080429

> <Coord_Metals>
0

> <Index>
278

> <Canonical_Smiles>
CCCCCCCCCCCCCO

> <Molecular_Weight>
200.36081

> <Frequency>
1

$$$$

  SciTegic          2D

 30 30  0  0  0  0            999 V2000
    5.1972   -1.5092    0.0000 C   0  0
    3.8990   -0.7562    0.0000 C   0  0
    3.9026    0.7446    0.0000 C   0  0
    2.5973   -1.5031    0.0000 O   0  0
    1.2990   -0.7500    0.0000 C   0  0
    1.2990    0.7500    0.0000 C   0  0
    0.0000    1.5000    0.0000 C   0  0
   -1.2990    0.7500    0.0000 C   0  0
   -1.2990   -0.7500    0.0000 C   0  0
    0.0000   -1.5000    0.0000 C   0  0
   -0.0031   -3.0008    0.0000 O   0  0
   -1.3039   -3.7494    0.0000 C   0  0
   -2.3421   -3.1476    0.0000 O   0  0
   -1.3070   -5.2502    0.0000 N   0  0
   -2.6078   -5.9988    0.0000 C   0  0
    6.0646   -1.0116    0.0000 H   0  0
    6.0620   -2.0114    0.0000 H   0  0
    5.1949   -2.5092    0.0000 H   0  0
    3.8967   -1.7562    0.0000 H   0  0
    3.0381    1.2472    0.0000 H   0  0
    4.7699    1.2422    0.0000 H   0  0
    3.9054    1.7446    0.0000 H   0  0
    2.1651    1.2500    0.0000 H   0  0
    0.0000    2.5000    0.0000 H   0  0
   -2.1651    1.2500    0.0000 H   0  0
   -2.1651   -1.2500    0.0000 H   0  0
   -0.4418   -5.7517    0.0000 H   0  0
   -2.6099   -6.9988    0.0000 H   0  0
   -3.4730   -5.4973    0.0000 H   0  0
   -3.4748   -6.4971    0.0000 H   0  0
  1  2  1  0
  2  3  1  0
  2  4  1  0
  4  5  1  0
  5  6  2  0
  5 10  1  0
  6  7  1  0
  7  8  2  0
  8  9  1  0
  9 10  2  0
 10 11  1  0
 11 12  1  0
 12 13  2  0
 12 14  1  0
 14 15  1  0
  1 16  1  0
  1 17  1  0
  1 18  1  0
  2 19  1  0
  3 20  1  0
  3 21  1  0
  3 22  1  0
  6 23  1  0
  7 24  1  0
  8 25  1  0
  9 26  1  0
 14 27  1  0
 15 28  1  0
 15 29  1  0
 15 30  1  0
V    1 0
V    2 1
V    3 2
V    4 3
V    5 4
V    6 5
V    7 6
V    8 7
V    9 8
V   10 9
V   11 10
V   12 11
V   13 12
V   14 13
V   15 14
M  END
> <DSSTox_RID>
66583

> <DSSTox_CID>
1948

> <DSSTox_CID_Parent>
1948

> <DSSTox_Generic_SID>
21948

> <DSSTox_FileID>
279_TXCST2_v1a

> <STRUCTURE_Formula>
C11H15NO3

> <STRUCTURE_MolecularWeight>
209.2417

> <STRUCTURE_ChemicalType>
defined organic

> <STRUCTURE_TestedForm_DefinedOrganic>
parent

> <STRUCTURE_Shown>
tested chemical

> <TestSubstance_ChemicalName>
Propoxur

> <TestSubstance_CASRN>
114-26-1

> <TestSubstance_Description>
single chemical compound

> <Source_ChemicalNote>
tested chemical contained 0.06% water (0.01 moles H2O)

> <STRUCTURE_ChemicalName_IUPAC>
2-[(1-methylethyl)oxy]phenyl methylcarbamate

> <STRUCTURE_SMILES>
CC(C)OC1=CC=CC=C1OC(=O)NC

> <STRUCTURE_Parent_SMILES>
CC(C)OC1=CC=CC=C1OC(=O)NC

> <STRUCTURE_InChIS>
InChI=1S/C11H15NO3/c1-8(2)14-9-6-4-5-7-10(9)15-11(13)12-3/h4-8H,1-3H3,(H,12,13)

> <STRUCTURE_InChIKey>
ISRUGXGCCGIOQO-UHFFFAOYSA-N

> <Substance_modify_yyyymmdd>
20080429

> <Coord_Metals>
0

> <Index>
279

> <Canonical_Smiles>
CNC(=O)Oc1ccccc1OC(C)C

> <Molecular_Weight>
209.24169

> <Frequency>
1

$$$$

  SciTegic          2D

 38 40  0  0  0  0            999 V2000
   -1.3134   -5.2469    0.0000 C   0  0
   -2.6164   -5.9899    0.0000 C   0  0
   -3.9114   -5.2329    0.0000 C   0  0
   -3.9034   -3.7330    0.0000 C   0  0
   -2.6003   -2.9900    0.0000 C   0  0
   -1.3053   -3.7469    0.0000 C   0  0
   -0.0031   -3.0008    0.0000 O   0  0
    1.2947   -3.7547    0.0000 P   0  0
    2.3353   -3.1572    0.0000 O   0  0
    1.2916   -5.2556    0.0000 O   0  0
    2.5893   -6.0095    0.0000 C   0  0
    2.5884   -7.5095    0.0000 C   0  0
    3.8870   -8.2603    0.0000 C   0  0
    5.1865   -7.5112    0.0000 C   0  0
    5.1875   -6.0112    0.0000 C   0  0
    3.8889   -5.2603    0.0000 C   0  0
    1.3004   -2.2248    0.0000 O   0  0
    2.6026   -1.4785    0.0000 C   0  0
    2.6105    0.0215    0.0000 C   0  0
    3.9134    0.7647    0.0000 C   0  0
    5.2085    0.0080    0.0000 C   0  0
    5.2007   -1.4920    0.0000 C   0  0
    3.8978   -2.2352    0.0000 C   0  0
   -0.4501   -5.7516    0.0000 H   0  0
   -2.6218   -6.9899    0.0000 H   0  0
   -4.7801   -5.7283    0.0000 H   0  0
   -4.7667   -3.2283    0.0000 H   0  0
   -2.5949   -1.9900    0.0000 H   0  0
    1.7221   -8.0090    0.0000 H   0  0
    3.8863   -9.2603    0.0000 H   0  0
    6.0522   -8.0117    0.0000 H   0  0
    6.0538   -5.5117    0.0000 H   0  0
    3.8896   -4.2603    0.0000 H   0  0
    1.7471    0.5260    0.0000 H   0  0
    3.9186    1.7647    0.0000 H   0  0
    6.0771    0.5035    0.0000 H   0  0
    6.0641   -1.9965    0.0000 H   0  0
    3.8926   -3.2352    0.0000 H   0  0
  1  2  2  0
  1  6  1  0
  2  3  1  0
  3  4  2  0
  4  5  1  0
  5  6  2  0
  6  7  1  0
  7  8  1  0
  8  9  2  0
  8 10  1  0
  8 17  1  0
 10 11  1  0
 11 12  2  0
 11 16  1  0
 12 13  1  0
 13 14  2  0
 14 15  1  0
 15 16  2  0
 17 18  1  0
 18 19  2  0
 18 23  1  0
 19 20  1  0
 20 21  2  0
 21 22  1  0
 22 23  2  0
  1 24  1  0
  2 25  1  0
  3 26  1  0
  4 27  1  0
  5 28  1  0
 12 29  1  0
 13 30  1  0
 14 31  1  0
 15 32  1  0
 16 33  1  0
 19 34  1  0
 20 35  1  0
 21 36  1  0
 22 37  1  0
 23 38  1  0
V    1 0
V    2 1
V    3 2
V    4 3
V    5 4
V    6 5
V    7 6
V    8 7
V    9 8
V   10 9
V   11 10
V   12 11
V   13 12
V   14 13
V   15 14
V   16 15
V   17 16
V   18 17
V   19 18
V   20 19
V   21 20
V   22 21
V   23 22
M  END
> <DSSTox_RID>
65559

> <DSSTox_CID>
1952

> <DSSTox_CID_Parent>
1952

> <DSSTox_Generic_SID>
21952

> <DSSTox_FileID>
280_TXCST2_v1a

> <STRUCTURE_Formula>
C18H15O4P

> <STRUCTURE_MolecularWeight>
326.2831

> <STRUCTURE_ChemicalType>
defined organic

> <STRUCTURE_TestedForm_DefinedOrganic>
parent

> <STRUCTURE_Shown>
tested chemical

> <TestSubstance_ChemicalName>
Triphenyl phosphate

> <TestSubstance_CASRN>
115-86-6

> <TestSubstance_Description>
single chemical compound

> <STRUCTURE_ChemicalName_IUPAC>
triphenyl phosphate

> <STRUCTURE_SMILES>
C1=CC=CC=C1OP(=O)(OC2=CC=CC=C2)OC3=CC=CC=C3

> <STRUCTURE_Parent_SMILES>
C1=CC=CC=C1OP(=O)(OC2=CC=CC=C2)OC3=CC=CC=C3

> <STRUCTURE_InChIS>
InChI=1S/C18H15O4P/c19-23(20-16-10-4-1-5-11-16,21-17-12-6-2-7-13-17)22-18-14-8-3-9-15-18/h1-15H

> <STRUCTURE_InChIKey>
XZZNDPSIHUTMOC-UHFFFAOYSA-N

> <Substance_modify_yyyymmdd>
20080429

> <Coord_Metals>
0

> <Index>
280

> <Canonical_Smiles>
O=P(Oc1ccccc1)(Oc2ccccc2)Oc3ccccc3

> <Molecular_Weight>
326.28306

> <Frequency>
1

$$$$

  SciTegic          2D

 66 66  0  0  0  0            999 V2000
    1.2990   -0.7500    0.0000 C   0  0
    1.2990    0.7500    0.0000 C   0  0
    2.5973   -1.5031    0.0000 C   0  0
    2.5972    1.5031    0.0000 C   0  0
    3.6375   -0.9049    0.0000 O   0  0
    3.6375    0.9049    0.0000 O   0  0
    2.5951   -3.0039    0.0000 O   0  0
    2.5951    3.0039    0.0000 O   0  0
    0.0000   -1.5000    0.0000 C   0  0
    0.0000    1.5000    0.0000 C   0  0
   -1.2990   -0.7500    0.0000 C   0  0
   -1.2990    0.7500    0.0000 C   0  0
    3.8933    3.7570    0.0000 C   0  0
    3.8912    5.2578    0.0000 C   0  0
    5.1894    6.0109    0.0000 C   0  0
    5.1872    7.5118    0.0000 C   0  0
    6.4854    8.2649    0.0000 C   0  0
    6.4833    9.7657    0.0000 C   0  0
    7.7815   10.5188    0.0000 C   0  0
    7.7793   12.0196    0.0000 C   0  0
    3.8933   -3.7570    0.0000 C   0  0
    3.8912   -5.2578    0.0000 C   0  0
    5.1894   -6.0109    0.0000 C   0  0
    5.1873   -7.5117    0.0000 C   0  0
    6.4855   -8.2648    0.0000 C   0  0
    6.4833   -9.7656    0.0000 C   0  0
    7.7815  -10.5187    0.0000 C   0  0
    7.7794  -12.0195    0.0000 C   0  0
    0.0000   -2.5000    0.0000 H   0  0
    0.0000    2.5000    0.0000 H   0  0
   -2.1651   -1.2500    0.0000 H   0  0
   -2.1651    1.2500    0.0000 H   0  0
    3.8952    2.7570    0.0000 H   0  0
    4.7602    3.2585    0.0000 H   0  0
    3.0259    4.7565    0.0000 H   0  0
    3.0243    5.7563    0.0000 H   0  0
    5.1913    5.0109    0.0000 H   0  0
    6.0563    5.5125    0.0000 H   0  0
    4.3220    7.0104    0.0000 H   0  0
    4.3203    8.0102    0.0000 H   0  0
    6.4873    7.2649    0.0000 H   0  0
    7.3523    7.7664    0.0000 H   0  0
    5.6180    9.2643    0.0000 H   0  0
    5.6164   10.2642    0.0000 H   0  0
    7.7834    9.5188    0.0000 H   0  0
    8.6484   10.0203    0.0000 H   0  0
    8.6443   12.5214    0.0000 H   0  0
    7.7774   13.0196    0.0000 H   0  0
    6.9124   12.5181    0.0000 H   0  0
    3.8952   -2.7570    0.0000 H   0  0
    4.7602   -3.2585    0.0000 H   0  0
    3.0260   -4.7564    0.0000 H   0  0
    3.0243   -5.7563    0.0000 H   0  0
    5.1913   -5.0109    0.0000 H   0  0
    6.0563   -5.5124    0.0000 H   0  0
    4.3220   -7.0104    0.0000 H   0  0
    4.3204   -8.0102    0.0000 H   0  0
    6.4874   -7.2648    0.0000 H   0  0
    7.3524   -7.7663    0.0000 H   0  0
    5.6181   -9.2643    0.0000 H   0  0
    5.6164  -10.2641    0.0000 H   0  0
    7.7834   -9.5187    0.0000 H   0  0
    8.6484  -10.0202    0.0000 H   0  0
    8.6444  -12.5213    0.0000 H   0  0
    7.7775  -13.0195    0.0000 H   0  0
    6.9125  -12.5180    0.0000 H   0  0
  1  2  2  0
  1  3  1  0
  1  9  1  0
  2  4  1  0
  2 10  1  0
  3  5  2  0
  3  7  1  0
  4  6  2  0
  4  8  1  0
  7 21  1  0
  8 13  1  0
  9 11  2  0
 10 12  2  0
 11 12  1  0
 13 14  1  0
 14 15  1  0
 15 16  1  0
 16 17  1  0
 17 18  1  0
 18 19  1  0
 19 20  1  0
 21 22  1  0
 22 23  1  0
 23 24  1  0
 24 25  1  0
 25 26  1  0
 26 27  1  0
 27 28  1  0
  9 29  1  0
 10 30  1  0
 11 31  1  0
 12 32  1  0
 13 33  1  0
 13 34  1  0
 14 35  1  0
 14 36  1  0
 15 37  1  0
 15 38  1  0
 16 39  1  0
 16 40  1  0
 17 41  1  0
 17 42  1  0
 18 43  1  0
 18 44  1  0
 19 45  1  0
 19 46  1  0
 20 47  1  0
 20 48  1  0
 20 49  1  0
 21 50  1  0
 21 51  1  0
 22 52  1  0
 22 53  1  0
 23 54  1  0
 23 55  1  0
 24 56  1  0
 24 57  1  0
 25 58  1  0
 25 59  1  0
 26 60  1  0
 26 61  1  0
 27 62  1  0
 27 63  1  0
 28 64  1  0
 28 65  1  0
 28 66  1  0
V    1 0
V    2 1
V    3 2
V    4 3
V    5 4
V    6 5
V    7 6
V    8 7
V    9 8
V   10 9
V   11 10
V   12 11
V   13 12
V   14 13
V   15 14
V   16 15
V   17 16
V   18 17
V   19 18
V   20 19
V   21 20
V   22 21
V   23 22
V   24 23
V   25 24
V   26 25
V   27 26
V   28 27
M  END
> <DSSTox_RID>
59758

> <DSSTox_CID>
1956

> <DSSTox_CID_Parent>
1956

> <DSSTox_Generic_SID>
21956

> <DSSTox_FileID>
281_TXCST2_v1a

> <STRUCTURE_Formula>
C24H38O4

> <STRUCTURE_MolecularWeight>
390.5561

> <STRUCTURE_ChemicalType>
defined organic

> <STRUCTURE_TestedForm_DefinedOrganic>
parent

> <STRUCTURE_Shown>
tested chemical

> <TestSubstance_ChemicalName>
Dioctyl phthalate (bis(n-octyl) phthalate)

> <TestSubstance_CASRN>
117-84-0

> <TestSubstance_Description>
single chemical compound

> <STRUCTURE_ChemicalName_IUPAC>
dioctyl phthalate

> <STRUCTURE_SMILES>
CCCCCCCCOC(=O)C1=CC=CC=C1C(=O)OCCCCCCCC

> <STRUCTURE_Parent_SMILES>
CCCCCCCCOC(=O)C1=CC=CC=C1C(=O)OCCCCCCCC

> <STRUCTURE_InChIS>
InChI=1S/C24H38O4/c1-3-5-7-9-11-15-19-27-23(25)21-17-13-14-18-22(21)24(26)28-20-16-12-10-8-6-4-2/h13-14,17-18H,3-12,15-16,19-20H2,1-2H3

> <STRUCTURE_InChIKey>
MQIUGAXCHLFZKX-UHFFFAOYSA-N

> <Substance_modify_yyyymmdd>
20080429

> <Coord_Metals>
0

> <Index>
281

> <Canonical_Smiles>
CCCCCCCCOC(=O)c1ccccc1C(=O)OCCCCCCCC

> <Molecular_Weight>
390.55612

> <Frequency>
1

$$$$

  SciTegic          2D

 24 25  0  0  0  0            999 V2000
    1.2990   -0.7500    0.0000 C   0  0
    1.2990    0.7500    0.0000 C   0  0
    0.0000    1.5000    0.0000 C   0  0
   -1.2990    0.7500    0.0000 C   0  0
   -1.2990   -0.7500    0.0000 C   0  0
    0.0000   -1.5000    0.0000 C   0  0
   -0.0031   -3.0008    0.0000 C   0  0
    1.0351   -3.6026    0.0000 O   0  0
   -1.3039   -3.7494    0.0000 C   0  0
   -1.3092   -5.2494    0.0000 C   0  0
   -2.6108   -5.9949    0.0000 C   0  0
   -3.9072   -5.2404    0.0000 C   0  0
   -3.9020   -3.7404    0.0000 C   0  0
   -2.6004   -2.9949    0.0000 C   0  0
    2.1651   -1.2500    0.0000 H   0  0
    2.1651    1.2500    0.0000 H   0  0
    0.0000    2.5000    0.0000 H   0  0
   -2.1651    1.2500    0.0000 H   0  0
   -2.1651   -1.2500    0.0000 H   0  0
   -0.4449   -5.7524    0.0000 H   0  0
   -2.6143   -6.9949    0.0000 H   0  0
   -4.7750   -5.7374    0.0000 H   0  0
   -4.7663   -3.2375    0.0000 H   0  0
   -2.5970   -1.9949    0.0000 H   0  0
  1  2  2  0
  1  6  1  0
  2  3  1  0
  3  4  2  0
  4  5  1  0
  5  6  2  0
  6  7  1  0
  7  8  2  0
  7  9  1  0
  9 10  2  0
  9 14  1  0
 10 11  1  0
 11 12  2  0
 12 13  1  0
 13 14  2  0
  1 15  1  0
  2 16  1  0
  3 17  1  0
  4 18  1  0
  5 19  1  0
 10 20  1  0
 11 21  1  0
 12 22  1  0
 13 23  1  0
 14 24  1  0
V    1 0
V    2 1
V    3 2
V    4 3
V    5 4
V    6 5
V    7 6
V    8 7
V    9 8
V   10 9
V   11 10
V   12 11
V   13 12
V   14 13
M  END
> <DSSTox_RID>
66647

> <DSSTox_CID>
1961

> <DSSTox_CID_Parent>
1961

> <DSSTox_Generic_SID>
21961

> <DSSTox_FileID>
282_TXCST2_v1a

> <STRUCTURE_Formula>
C13H10O

> <STRUCTURE_MolecularWeight>
182.2179

> <STRUCTURE_ChemicalType>
defined organic

> <STRUCTURE_TestedForm_DefinedOrganic>
parent

> <STRUCTURE_Shown>
tested chemical

> <TestSubstance_ChemicalName>
Benzophenone

> <TestSubstance_CASRN>
119-61-9

> <TestSubstance_Description>
single chemical compound

> <STRUCTURE_ChemicalName_IUPAC>
diphenylmethanone

> <STRUCTURE_SMILES>
C1=CC=CC=C1C(=O)C2=CC=CC=C2

> <STRUCTURE_Parent_SMILES>
C1=CC=CC=C1C(=O)C2=CC=CC=C2

> <STRUCTURE_InChIS>
InChI=1S/C13H10O/c14-13(11-7-3-1-4-8-11)12-9-5-2-6-10-12/h1-10H

> <STRUCTURE_InChIKey>
RWCCWEUUXYIKHB-UHFFFAOYSA-N

> <Substance_modify_yyyymmdd>
20080429

> <Coord_Metals>
0

> <Index>
282

> <Canonical_Smiles>
O=C(c1ccccc1)c2ccccc2

> <Molecular_Weight>
182.21789

> <Frequency>
1

$$$$

  SciTegic          2D

 12 12  0  0  0  0            999 V2000
    2.3383   -1.3500    0.0000 Cl  0  0
    1.2990   -0.7500    0.0000 C   0  0
    1.2990    0.7500    0.0000 C   0  0
    2.3383    1.3500    0.0000 Cl  0  0
    0.0000    1.5000    0.0000 C   0  0
   -1.2990    0.7500    0.0000 C   0  0
   -2.3383    1.3500    0.0000 Cl  0  0
   -1.2990   -0.7500    0.0000 C   0  0
    0.0000   -1.5000    0.0000 C   0  0
    0.0000    2.5000    0.0000 H   0  0
   -2.1651   -1.2500    0.0000 H   0  0
    0.0000   -2.5000    0.0000 H   0  0
  1  2  1  0
  2  3  2  0
  2  9  1  0
  3  4  1  0
  3  5  1  0
  5  6  2  0
  6  7  1  0
  6  8  1  0
  8  9  2  0
  5 10  1  0
  8 11  1  0
  9 12  1  0
V    1 0
V    2 1
V    3 2
V    4 3
V    5 4
V    6 5
V    7 6
V    8 7
V    9 8
M  END
> <DSSTox_RID>
60426

> <DSSTox_CID>
1965

> <DSSTox_CID_Parent>
1965

> <DSSTox_Generic_SID>
21965

> <DSSTox_FileID>
283_TXCST2_v1a

> <STRUCTURE_Formula>
C6H3Cl3

> <STRUCTURE_MolecularWeight>
181.447

> <STRUCTURE_ChemicalType>
defined organic

> <STRUCTURE_TestedForm_DefinedOrganic>
parent

> <STRUCTURE_Shown>
tested chemical

> <TestSubstance_ChemicalName>
1,2,4-Trichlorobenzene

> <TestSubstance_CASRN>
120-82-1

> <TestSubstance_Description>
single chemical compound

> <STRUCTURE_ChemicalName_IUPAC>
1,2,4-trichlorobenzene

> <STRUCTURE_SMILES>
ClC1=C(Cl)C=C(Cl)C=C1

> <STRUCTURE_Parent_SMILES>
ClC1=C(Cl)C=C(Cl)C=C1

> <STRUCTURE_InChIS>
InChI=1S/C6H3Cl3/c7-4-1-2-5(8)6(9)3-4/h1-3H

> <STRUCTURE_InChIKey>
PBKONEOXTCPAFI-UHFFFAOYSA-N

> <Substance_modify_yyyymmdd>
20080429

> <Coord_Metals>
0

> <Index>
283

> <Canonical_Smiles>
Clc1ccc(Cl)c(Cl)c1

> <Molecular_Weight>
181.44701

> <Frequency>
1

$$$$

  SciTegic          2D

 19 19  0  0  0  0            999 V2000
    1.2990   -0.7500    0.0000 C   0  0
    2.5973   -1.5031    0.0000 C   0  0
    2.5956   -2.7031    0.0000 O   0  0
    1.2990    0.7500    0.0000 C   0  0
    0.0000    1.5000    0.0000 C   0  0
   -0.0031    3.0008    0.0000 O   0  0
   -1.3039    3.7494    0.0000 C   0  0
   -1.2990    0.7500    0.0000 C   0  0
   -2.6003    1.4977    0.0000 O   0  0
   -1.2990   -0.7500    0.0000 C   0  0
    0.0000   -1.5000    0.0000 C   0  0
    3.4642   -1.0046    0.0000 H   0  0
    2.1651    1.2500    0.0000 H   0  0
   -1.3060    4.7494    0.0000 H   0  0
   -2.1691    3.2479    0.0000 H   0  0
   -2.1709    4.2477    0.0000 H   0  0
   -3.4657    0.9965    0.0000 H   0  0
   -2.1651   -1.2500    0.0000 H   0  0
    0.0000   -2.5000    0.0000 H   0  0
  1  2  1  0
  1  4  2  0
  1 11  1  0
  2  3  2  0
  4  5  1  0
  5  6  1  0
  5  8  2  0
  6  7  1  0
  8  9  1  0
  8 10  1  0
 10 11  2  0
  2 12  1  0
  4 13  1  0
  7 14  1  0
  7 15  1  0
  7 16  1  0
  9 17  1  0
 10 18  1  0
 11 19  1  0
V    1 0
V    2 1
V    3 2
V    4 3
V    5 4
V    6 5
V    7 6
V    8 7
V    9 8
V   10 9
V   11 10
M  END
> <DSSTox_RID>
62425

> <DSSTox_CID>
1969

> <DSSTox_CID_Parent>
1969

> <DSSTox_Generic_SID>
21969

> <DSSTox_FileID>
284_TXCST2_v1a

> <STRUCTURE_Formula>
C8H8O3

> <STRUCTURE_MolecularWeight>
152.1473

> <STRUCTURE_ChemicalType>
defined organic

> <STRUCTURE_TestedForm_DefinedOrganic>
parent

> <STRUCTURE_Shown>
tested chemical

> <TestSubstance_ChemicalName>
4-Hydroxy-3-methoxy-benzaldehyde

> <TestSubstance_CASRN>
121-33-5

> <TestSubstance_Description>
single chemical compound

> <STRUCTURE_ChemicalName_IUPAC>
4-hydroxy-3-methoxybenzaldehyde

> <STRUCTURE_SMILES>
C1(C=O)=CC(OC)=C(O)C=C1

> <STRUCTURE_Parent_SMILES>
C1(C=O)=CC(OC)=C(O)C=C1

> <STRUCTURE_InChIS>
InChI=1S/C8H8O3/c1-11-8-4-6(5-9)2-3-7(8)10/h2-5,10H,1H3

> <STRUCTURE_InChIKey>
MWOOGOJBHIARFG-UHFFFAOYSA-N

> <Substance_modify_yyyymmdd>
20080429

> <Coord_Metals>
0

> <Index>
284

> <Canonical_Smiles>
COc1cc(C=O)ccc1O

> <Molecular_Weight>
152.14731

> <Frequency>
1

$$$$

  SciTegic          2D

 24 25  0  0  0  0            999 V2000
    1.2990   -0.7500    0.0000 C   0  0
    1.2990    0.7500    0.0000 C   0  0
    0.0000    1.5000    0.0000 C   0  0
   -1.2990    0.7500    0.0000 C   0  0
   -1.2990   -0.7500    0.0000 C   0  0
    0.0000   -1.5000    0.0000 C   0  0
   -0.0031   -3.0008    0.0000 N   0  0
   -1.3039   -3.7494    0.0000 C   0  0
   -1.3092   -5.2494    0.0000 C   0  0
   -2.6108   -5.9949    0.0000 C   0  0
   -3.9072   -5.2404    0.0000 C   0  0
   -3.9020   -3.7404    0.0000 C   0  0
   -2.6004   -2.9949    0.0000 C   0  0
    2.1651   -1.2500    0.0000 H   0  0
    2.1651    1.2500    0.0000 H   0  0
    0.0000    2.5000    0.0000 H   0  0
   -2.1651    1.2500    0.0000 H   0  0
   -2.1651   -1.2500    0.0000 H   0  0
    0.8621   -3.5023    0.0000 H   0  0
   -0.4449   -5.7524    0.0000 H   0  0
   -2.6143   -6.9949    0.0000 H   0  0
   -4.7750   -5.7374    0.0000 H   0  0
   -4.7663   -3.2375    0.0000 H   0  0
   -2.5970   -1.9949    0.0000 H   0  0
  1  2  2  0
  1  6  1  0
  2  3  1  0
  3  4  2  0
  4  5  1  0
  5  6  2  0
  6  7  1  0
  7  8  1  0
  8  9  2  0
  8 13  1  0
  9 10  1  0
 10 11  2  0
 11 12  1  0
 12 13  2  0
  1 14  1  0
  2 15  1  0
  3 16  1  0
  4 17  1  0
  5 18  1  0
  7 19  1  0
  9 20  1  0
 10 21  1  0
 11 22  1  0
 12 23  1  0
 13 24  1  0
V    1 0
V    2 1
V    3 2
V    4 3
V    5 4
V    6 5
V    7 6
V    8 7
V    9 8
V   10 9
V   11 10
V   12 11
V   13 12
M  END
> <DSSTox_RID>
65425

> <DSSTox_CID>
1975

> <DSSTox_CID_Parent>
1975

> <DSSTox_Generic_SID>
21975

> <DSSTox_FileID>
285_TXCST2_v1a

> <STRUCTURE_Formula>
C12H11N

> <STRUCTURE_MolecularWeight>
169.2224

> <STRUCTURE_ChemicalType>
defined organic

> <STRUCTURE_TestedForm_DefinedOrganic>
parent

> <STRUCTURE_Shown>
tested chemical

> <TestSubstance_ChemicalName>
Diphenylamine

> <TestSubstance_CASRN>
122-39-4

> <TestSubstance_Description>
single chemical compound

> <STRUCTURE_ChemicalName_IUPAC>
N-phenylaniline

> <STRUCTURE_SMILES>
C1=CC=CC=C1NC2=CC=CC=C2

> <STRUCTURE_Parent_SMILES>
C1=CC=CC=C1NC2=CC=CC=C2

> <STRUCTURE_InChIS>
InChI=1S/C12H11N/c1-3-7-11(8-4-1)13-12-9-5-2-6-10-12/h1-10,13H

> <STRUCTURE_InChIKey>
DMBHHRLKUKUOEG-UHFFFAOYSA-N

> <Substance_modify_yyyymmdd>
20080429

> <Coord_Metals>
0

> <Index>
285

> <Canonical_Smiles>
N(c1ccccc1)c2ccccc2

> <Molecular_Weight>
169.22243

> <Frequency>
1

$$$$

  SciTegic          2D

 20 20  0  0  0  0            999 V2000
    1.2990   -0.7500    0.0000 C   0  0
    1.2990    0.7500    0.0000 C   0  0
    0.0000    1.5000    0.0000 C   0  0
   -1.2990    0.7500    0.0000 C   0  0
   -1.2990   -0.7500    0.0000 C   0  0
    0.0000   -1.5000    0.0000 C   0  0
   -0.0031   -3.0008    0.0000 O   0  0
   -1.3039   -3.7494    0.0000 C   0  0
   -1.3070   -5.2502    0.0000 C   0  0
   -2.6078   -5.9988    0.0000 O   0  0
    2.1651   -1.2500    0.0000 H   0  0
    2.1651    1.2500    0.0000 H   0  0
    0.0000    2.5000    0.0000 H   0  0
   -2.1651    1.2500    0.0000 H   0  0
   -2.1651   -1.2500    0.0000 H   0  0
   -2.1691   -3.2479    0.0000 H   0  0
   -1.3023   -2.7494    0.0000 H   0  0
   -0.4418   -5.7517    0.0000 H   0  0
   -1.3086   -6.2502    0.0000 H   0  0
   -2.6099   -6.9988    0.0000 H   0  0
  1  2  2  0
  1  6  1  0
  2  3  1  0
  3  4  2  0
  4  5  1  0
  5  6  2  0
  6  7  1  0
  7  8  1  0
  8  9  1  0
  9 10  1  0
  1 11  1  0
  2 12  1  0
  3 13  1  0
  4 14  1  0
  5 15  1  0
  8 16  1  0
  8 17  1  0
  9 18  1  0
  9 19  1  0
 10 20  1  0
V    1 0
V    2 1
V    3 2
V    4 3
V    5 4
V    6 5
V    7 6
V    8 7
V    9 8
V   10 9
M  END
> <DSSTox_RID>
60392

> <DSSTox_CID>
1976

> <DSSTox_CID_Parent>
1976

> <DSSTox_Generic_SID>
21976

> <DSSTox_FileID>
286_TXCST2_v1a

> <STRUCTURE_Formula>
C8H10O2

> <STRUCTURE_MolecularWeight>
138.1638

> <STRUCTURE_ChemicalType>
defined organic

> <STRUCTURE_TestedForm_DefinedOrganic>
parent

> <STRUCTURE_Shown>
tested chemical

> <TestSubstance_ChemicalName>
2-Phenoxyethanol

> <TestSubstance_CASRN>
122-99-6

> <TestSubstance_Description>
single chemical compound

> <Source_ChemicalNote>
tested chemical contained 0.2% water (0.02 moles H2O)

> <STRUCTURE_ChemicalName_IUPAC>
2-phenoxyethanol

> <STRUCTURE_SMILES>
C1=CC=CC=C1OCCO

> <STRUCTURE_Parent_SMILES>
C1=CC=CC=C1OCCO

> <STRUCTURE_InChIS>
InChI=1S/C8H10O2/c9-6-7-10-8-4-2-1-3-5-8/h1-5,9H,6-7H2

> <STRUCTURE_InChIKey>
QCDWFXQBSFUVSP-UHFFFAOYSA-N

> <Substance_modify_yyyymmdd>
20080429

> <Coord_Metals>
0

> <Index>
286

> <Canonical_Smiles>
OCCOc1ccccc1

> <Molecular_Weight>
138.16379

> <Frequency>
1

$$$$

  SciTegic          2D

 44 43  0  0  0  0            999 V2000
    3.8971    5.2516    0.0000 C   0  0
    5.1971    4.5016    0.0000 C   0  0
    5.1985    3.0008    0.0000 C   0  0
    6.4985    2.2508    0.0000 C   0  0
    6.5000    0.7500    0.0000 O   0  0
    7.7999    0.0000    0.0000 P   0  0
    7.7999   -1.2000    0.0000 O   0  0
    9.0999    0.7500    0.0000 O   0  0
   10.3999    0.0000    0.0000 C   0  0
   11.6999    0.7500    0.0000 C   0  0
   12.9999    0.0000    0.0000 C   0  0
   14.2999    0.7500    0.0000 C   0  0
    6.4760   -0.7669    0.0000 O   0  0
    6.4773   -2.2677    0.0000 C   0  0
    5.1786   -3.0200    0.0000 C   0  0
    5.1798   -4.5208    0.0000 C   0  0
    3.8812   -5.2731    0.0000 C   0  0
    3.8962    6.2516    0.0000 H   0  0
    3.0314    4.7511    0.0000 H   0  0
    3.0307    5.7510    0.0000 H   0  0
    6.0628    5.0022    0.0000 H   0  0
    5.1966    5.5016    0.0000 H   0  0
    4.3328    2.5003    0.0000 H   0  0
    4.3321    3.5001    0.0000 H   0  0
    7.3642    2.7514    0.0000 H   0  0
    7.3649    1.7515    0.0000 H   0  0
   10.3999   -1.0000    0.0000 H   0  0
    9.5340   -0.5001    0.0000 H   0  0
   11.6999    1.7500    0.0000 H   0  0
   10.8340    1.2501    0.0000 H   0  0
   12.9999   -1.0000    0.0000 H   0  0
   12.1340   -0.5001    0.0000 H   0  0
   15.1661    0.2503    0.0000 H   0  0
   14.2999    1.7500    0.0000 H   0  0
   15.1658    1.2501    0.0000 H   0  0
    7.3428   -1.7668    0.0000 H   0  0
    7.3438   -2.7667    0.0000 H   0  0
    5.1773   -2.0200    0.0000 H   0  0
    4.3120   -2.5210    0.0000 H   0  0
    6.0454   -4.0200    0.0000 H   0  0
    6.0464   -5.0198    0.0000 H   0  0
    3.8820   -6.2731    0.0000 H   0  0
    3.0156   -5.7739    0.0000 H   0  0
    3.0146   -4.7741    0.0000 H   0  0
  1  2  1  0
  2  3  1  0
  3  4  1  0
  4  5  1  0
  5  6  1  0
  6  7  2  0
  6  8  1  0
  6 13  1  0
  8  9  1  0
  9 10  1  0
 10 11  1  0
 11 12  1  0
 13 14  1  0
 14 15  1  0
 15 16  1  0
 16 17  1  0
  1 18  1  0
  1 19  1  0
  1 20  1  0
  2 21  1  0
  2 22  1  0
  3 23  1  0
  3 24  1  0
  4 25  1  0
  4 26  1  0
  9 27  1  0
  9 28  1  0
 10 29  1  0
 10 30  1  0
 11 31  1  0
 11 32  1  0
 12 33  1  0
 12 34  1  0
 12 35  1  0
 14 36  1  0
 14 37  1  0
 15 38  1  0
 15 39  1  0
 16 40  1  0
 16 41  1  0
 17 42  1  0
 17 43  1  0
 17 44  1  0
V    1 0
V    2 1
V    3 2
V    4 3
V    5 4
V    6 5
V    7 6
V    8 7
V    9 8
V   10 9
V   11 10
V   12 11
V   13 12
V   14 13
V   15 14
V   16 15
V   17 16
M  END
> <DSSTox_RID>
66497

> <DSSTox_CID>
1986

> <DSSTox_CID_Parent>
1986

> <DSSTox_Generic_SID>
21986

> <DSSTox_FileID>
287_TXCST2_v1a

> <STRUCTURE_Formula>
C12H27O4P

> <STRUCTURE_MolecularWeight>
266.3141

> <STRUCTURE_ChemicalType>
defined organic

> <STRUCTURE_TestedForm_DefinedOrganic>
parent

> <STRUCTURE_Shown>
tested chemical

> <TestSubstance_ChemicalName>
Tributyl phosphate

> <TestSubstance_CASRN>
126-73-8

> <TestSubstance_Description>
single chemical compound

> <STRUCTURE_ChemicalName_IUPAC>
tributyl phosphate

> <STRUCTURE_SMILES>
CCCCOP(=O)(OCCCC)OCCCC

> <STRUCTURE_Parent_SMILES>
CCCCOP(=O)(OCCCC)OCCCC

> <STRUCTURE_InChIS>
InChI=1S/C12H27O4P/c1-4-7-10-14-17(13,15-11-8-5-2)16-12-9-6-3/h4-12H2,1-3H3

> <STRUCTURE_InChIKey>
STCOOQWBFONSKY-UHFFFAOYSA-N

> <Substance_modify_yyyymmdd>
20080429

> <Coord_Metals>
0

> <Index>
287

> <Canonical_Smiles>
CCCCOP(=O)(OCCCC)OCCCC

> <Molecular_Weight>
266.31414

> <Frequency>
1

$$$$

  SciTegic          2D

 17 18  0  0  0  0            999 V2000
    0.8955    2.0810    0.0000 O   0  0
    1.7138    1.2033    0.0000 S   0  0
    0.2917    0.7475    0.0000 C   0  0
   -1.0028    1.5132    0.0000 C   0  0
   -2.3155    0.7475    0.0000 C   0  0
   -2.3155   -0.7475    0.0000 C   0  0
   -1.0028   -1.5132    0.0000 C   0  0
    0.2917   -0.7475    0.0000 C   0  0
    1.7138   -1.2033    0.0000 C   0  0
    2.5889    0.0182    0.0000 N   0  0
    2.0907   -2.3426    0.0000 O   0  0
    2.8908    1.4370    0.0000 O   0  0
   -0.9997    2.5132    0.0000 H   0  0
   -3.1826    1.2456    0.0000 H   0  0
   -3.1826   -1.2456    0.0000 H   0  0
   -0.9997   -2.5132    0.0000 H   0  0
    3.5889    0.0254    0.0000 H   0  0
  1  2  2  0
  2  3  1  0
  2 10  1  0
  2 12  2  0
  3  4  2  0
  3  8  1  0
  4  5  1  0
  5  6  2  0
  6  7  1  0
  7  8  2  0
  8  9  1  0
  9 10  1  0
  9 11  2  0
  4 13  1  0
  5 14  1  0
  6 15  1  0
  7 16  1  0
 10 17  1  0
V    1 0
V    2 1
V    3 2
V    4 3
V    5 4
V    6 5
V    7 6
V    8 7
V    9 8
V   10 9
V   11 10
V   12 11
M  END
> <DSSTox_RID>
59862

> <DSSTox_CID>
1992

> <DSSTox_Generic_SID>
21992

> <DSSTox_FileID>
288_TXCST2_v1a

> <STRUCTURE_Formula>
C7H6NNaO4S

> <STRUCTURE_MolecularWeight>
223.1816

> <STRUCTURE_ChemicalType>
defined organic

> <STRUCTURE_TestedForm_DefinedOrganic>
salt Na complex H2O

> <STRUCTURE_Shown>
tested chemical

> <TestSubstance_ChemicalName>
Saccharin sodium salt hydrate

> <TestSubstance_CASRN>
82385-42-0

> <TestSubstance_Description>
single chemical compound

> <ChemicalNote>
parent [81-07-2]

> <STRUCTURE_ChemicalName_IUPAC>
sodium 3-oxo-3H-1,2-benzisothiazol-2-ide 1,1-dioxide hydrate

> <STRUCTURE_SMILES>
O=S(C1=CC=CC=C1C([N-]2)=O)2=O.[Na+].[O]

> <STRUCTURE_Parent_SMILES>
O=S(C1=CC=CC=C1C(N2)=O)2=O

> <STRUCTURE_InChIS>
InChI=1S/C7H5NO3S.Na.H2O/c9-7-5-3-1-2-4-6(5)12(10,11)8-7;;/h1-4H,(H,8,9);;1H2/q;+1;/p-1

> <STRUCTURE_InChIKey>
ILJOYZVVZZFIKA-UHFFFAOYSA-M

> <Substance_modify_yyyymmdd>
20080429

> <Coord_Metals>
0

> <Index>
288

> <Canonical_Smiles>
O=C1NS(=O)(=O)c2ccccc12

> <Molecular_Weight>
183.18449

> <Frequency>
1

$$$$

  SciTegic          2D

 21 23  0  0  0  0            999 V2000
   -2.4915   -1.3190    0.0000 C   0  0
   -3.7006   -0.6045    0.0000 C   0  0
   -3.7006    0.8244    0.0000 C   0  0
   -2.4915    1.5389    0.0000 C   0  0
   -1.2274    0.8244    0.0000 C   0  0
    1.2274    0.8244    0.0000 C   0  0
    2.4732    1.5389    0.0000 C   0  0
    3.7372    0.8244    0.0000 C   0  0
    3.7372   -0.6045    0.0000 C   0  0
    2.4732   -1.3190    0.0000 C   0  0
    1.2274   -0.6045    0.0000 C   0  0
    0.0000   -1.3190    0.0000 O   0  0
   -1.2274   -0.6045    0.0000 C   0  0
   -2.5011   -2.3190    0.0000 H   0  0
   -4.5691   -1.1002    0.0000 H   0  0
   -4.5691    1.3200    0.0000 H   0  0
   -2.5011    2.5388    0.0000 H   0  0
    2.4700    2.5388    0.0000 H   0  0
    4.6009    1.3283    0.0000 H   0  0
    4.6009   -1.1085    0.0000 H   0  0
    2.4700   -2.3190    0.0000 H   0  0
  1  2  2  0
  1 13  1  0
  2  3  1  0
  3  4  2  0
  4  5  1  0
  5  6  1  0
  5 13  2  0
  6  7  2  0
  6 11  1  0
  7  8  1  0
  8  9  2  0
  9 10  1  0
 10 11  2  0
 11 12  1  0
 12 13  1  0
  1 14  1  0
  2 15  1  0
  3 16  1  0
  4 17  1  0
  7 18  1  0
  8 19  1  0
  9 20  1  0
 10 21  1  0
V    1 0
V    2 1
V    3 2
V    4 3
V    5 4
V    6 5
V    7 6
V    8 7
V    9 8
V   10 9
V   11 10
V   12 11
V   13 12
M  END
> <DSSTox_RID>
62410

> <DSSTox_CID>
1993

> <DSSTox_CID_Parent>
1993

> <DSSTox_Generic_SID>
21993

> <DSSTox_FileID>
289_TXCST2_v1a

> <STRUCTURE_Formula>
C12H8O

> <STRUCTURE_MolecularWeight>
168.1913

> <STRUCTURE_ChemicalType>
defined organic

> <STRUCTURE_TestedForm_DefinedOrganic>
parent

> <STRUCTURE_Shown>
tested chemical

> <TestSubstance_ChemicalName>
Dibenzofuran

> <TestSubstance_CASRN>
132-64-9

> <TestSubstance_Description>
single chemical compound

> <STRUCTURE_ChemicalName_IUPAC>
dibenzo[b,d]furan

> <STRUCTURE_SMILES>
C1=CC=CC2C3=CC=CC=C3OC1=2

> <STRUCTURE_Parent_SMILES>
C1=CC=CC2C3=CC=CC=C3OC1=2

> <STRUCTURE_InChIS>
InChI=1S/C12H8O/c1-3-7-11-9(5-1)10-6-2-4-8-12(10)13-11/h1-8H

> <STRUCTURE_InChIKey>
TXCDCPKCNAJMEE-UHFFFAOYSA-N

> <Substance_modify_yyyymmdd>
20080429

> <Coord_Metals>
0

> <Index>
289

> <Canonical_Smiles>
o1c2ccccc2c3ccccc13

> <Molecular_Weight>
168.19131

> <Frequency>
1

$$$$

  SciTegic          2D

 31 31  0  0  0  0            999 V2000
    6.4990   -0.7623    0.0000 C   0  0
    5.1972   -1.5092    0.0000 C   0  0
    3.8990   -0.7562    0.0000 N   0  0
    3.8995    0.7447    0.0000 C   0  0
    5.1990    1.4955    0.0000 C   0  0
    2.5973   -1.5031    0.0000 C   0  0
    2.5944   -2.7031    0.0000 O   0  0
    1.2990   -0.7500    0.0000 C   0  0
    1.2990    0.7500    0.0000 C   0  0
    0.0000    1.5000    0.0000 C   0  0
   -1.2990    0.7500    0.0000 C   0  0
   -1.2990   -0.7500    0.0000 C   0  0
   -2.5988   -1.5004    0.0000 C   0  0
    0.0000   -1.5000    0.0000 C   0  0
    7.3640   -1.2641    0.0000 H   0  0
    6.5014    0.2377    0.0000 H   0  0
    7.3661   -0.2642    0.0000 H   0  0
    5.1949   -2.5092    0.0000 H   0  0
    4.3301   -2.0073    0.0000 H   0  0
    3.0335    1.2447    0.0000 H   0  0
    3.0334    0.2448    0.0000 H   0  0
    5.1993    2.4955    0.0000 H   0  0
    6.0650    0.9955    0.0000 H   0  0
    6.0651    1.9954    0.0000 H   0  0
    2.1651    1.2500    0.0000 H   0  0
    0.0000    2.5000    0.0000 H   0  0
   -2.1651    1.2500    0.0000 H   0  0
   -3.4651   -1.0010    0.0000 H   0  0
   -2.5985   -2.5004    0.0000 H   0  0
   -3.4646   -2.0008    0.0000 H   0  0
    0.0000   -2.5000    0.0000 H   0  0
  1  2  1  0
  2  3  1  0
  3  4  1  0
  3  6  1  0
  4  5  1  0
  6  7  2  0
  6  8  1  0
  8  9  2  0
  8 14  1  0
  9 10  1  0
 10 11  2  0
 11 12  1  0
 12 13  1  0
 12 14  2  0
  1 15  1  0
  1 16  1  0
  1 17  1  0
  2 18  1  0
  2 19  1  0
  4 20  1  0
  4 21  1  0
  5 22  1  0
  5 23  1  0
  5 24  1  0
  9 25  1  0
 10 26  1  0
 11 27  1  0
 13 28  1  0
 13 29  1  0
 13 30  1  0
 14 31  1  0
V    1 0
V    2 1
V    3 2
V    4 3
V    5 4
V    6 5
V    7 6
V    8 7
V    9 8
V   10 9
V   11 10
V   12 11
V   13 12
V   14 13
M  END
> <DSSTox_RID>
59939

> <DSSTox_CID>
1995

> <DSSTox_CID_Parent>
1995

> <DSSTox_Generic_SID>
21995

> <DSSTox_FileID>
290_TXCST2_v1a

> <STRUCTURE_Formula>
C12H17NO

> <STRUCTURE_MolecularWeight>
191.2695

> <STRUCTURE_ChemicalType>
defined organic

> <STRUCTURE_TestedForm_DefinedOrganic>
parent

> <STRUCTURE_Shown>
tested chemical

> <TestSubstance_ChemicalName>
N,N-Diethyl-3-methyl-benzamide

> <TestSubstance_CASRN>
134-62-3

> <TestSubstance_Description>
single chemical compound

> <STRUCTURE_ChemicalName_IUPAC>
N,N-diethyl-3-methylbenzamide

> <STRUCTURE_SMILES>
CCN(CC)C(=O)C1=CC=CC(C)=C1

> <STRUCTURE_Parent_SMILES>
CCN(CC)C(=O)C1=CC=CC(C)=C1

> <STRUCTURE_InChIS>
InChI=1S/C12H17NO/c1-4-13(5-2)12(14)11-8-6-7-10(3)9-11/h6-9H,4-5H2,1-3H3

> <STRUCTURE_InChIKey>
MMOXZBCLCQITDF-UHFFFAOYSA-N

> <Substance_modify_yyyymmdd>
20080429

> <Coord_Metals>
0

> <Index>
290

> <Canonical_Smiles>
CCN(CC)C(=O)c1cccc(C)c1

> <Molecular_Weight>
191.26947

> <Frequency>
1

$$$$

  SciTegic          2D

 11 10  0  0  0  0            999 V2000
    1.3000    0.7500    0.0000 O   0  0
    2.6000    0.0000    0.0000 C   0  0
    3.9000    0.7500    0.0000 C   0  0
    5.2000    0.0000    0.0000 N   0  0
    0.4338    0.2503    0.0000 H   0  0
    2.6000   -1.0000    0.0000 H   0  0
    1.7340   -0.5001    0.0000 H   0  0
    3.9000    1.7500    0.0000 H   0  0
    4.7659    1.2501    0.0000 H   0  0
    6.0661    0.4997    0.0000 H   0  0
    5.2000   -1.0000    0.0000 H   0  0
  1  2  1  0
  2  3  1  0
  3  4  1  0
  1  5  1  0
  2  6  1  0
  2  7  1  0
  3  8  1  0
  3  9  1  0
  4 10  1  0
  4 11  1  0
V    1 0
V    2 1
V    3 2
V    4 3
M  END
> <DSSTox_RID>
62287

> <DSSTox_CID>
2000

> <DSSTox_CID_Parent>
2000

> <DSSTox_Generic_SID>
22000

> <DSSTox_FileID>
291_TXCST2_v1a

> <STRUCTURE_Formula>
C2H7NO

> <STRUCTURE_MolecularWeight>
61.0831

> <STRUCTURE_ChemicalType>
defined organic

> <STRUCTURE_TestedForm_DefinedOrganic>
parent

> <STRUCTURE_Shown>
tested chemical

> <TestSubstance_ChemicalName>
Ethanolamine

> <TestSubstance_CASRN>
141-43-5

> <TestSubstance_Description>
single chemical compound

> <STRUCTURE_ChemicalName_IUPAC>
2-aminoethanol

> <STRUCTURE_SMILES>
OCCN

> <STRUCTURE_Parent_SMILES>
OCCN

> <STRUCTURE_InChIS>
InChI=1S/C2H7NO/c3-1-2-4/h4H,1-3H2

> <STRUCTURE_InChIKey>
HZAXFHJVJLSVMW-UHFFFAOYSA-N

> <Substance_modify_yyyymmdd>
20080429

> <Coord_Metals>
0

> <Index>
291

> <Canonical_Smiles>
NCCO

> <Molecular_Weight>
61.08307

> <Frequency>
1

$$$$

  SciTegic          2D

 33 32  0  0  0  0            999 V2000
    1.3000    0.7500    0.0000 C   0  0
    2.6000    0.0000    0.0000 C   0  0
    3.9000    0.7500    0.0000 O   0  0
    5.2000    0.0000    0.0000 P   0  0
    5.2000   -1.5007    0.0000 O   0  0
    3.9007   -2.2520    0.0000 C   0  0
    3.9007   -3.7528    0.0000 C   0  0
    5.2000    1.2000    0.0000 S   0  0
    6.5000    0.7500    0.0000 S   0  0
    7.7999    0.0000    0.0000 C   0  0
    9.0999    0.7500    0.0000 C   0  0
   10.3999    0.0000    0.0000 S   0  0
   11.6999    0.7500    0.0000 C   0  0
   12.9999    0.0000    0.0000 C   0  0
    0.4338    0.2503    0.0000 H   0  0
    1.3000    1.7500    0.0000 H   0  0
    0.4340    1.2501    0.0000 H   0  0
    2.6000   -1.0000    0.0000 H   0  0
    3.4659   -0.5001    0.0000 H   0  0
    3.0345   -1.7523    0.0000 H   0  0
    3.9002   -1.2520    0.0000 H   0  0
    3.0350   -4.2534    0.0000 H   0  0
    4.7669   -4.2525    0.0000 H   0  0
    3.9012   -4.7528    0.0000 H   0  0
    7.7999   -1.0000    0.0000 H   0  0
    6.9340   -0.5001    0.0000 H   0  0
    9.0999    1.7500    0.0000 H   0  0
    9.9659    1.2501    0.0000 H   0  0
   11.6999    1.7500    0.0000 H   0  0
   10.8340    1.2501    0.0000 H   0  0
   13.8661    0.4997    0.0000 H   0  0
   12.9999   -1.0000    0.0000 H   0  0
   13.8658   -0.5001    0.0000 H   0  0
  1  2  1  0
  2  3  1  0
  3  4  1  0
  4  5  1  0
  4  8  2  0
  4  9  1  0
  5  6  1  0
  6  7  1  0
  9 10  1  0
 10 11  1  0
 11 12  1  0
 12 13  1  0
 13 14  1  0
  1 15  1  0
  1 16  1  0
  1 17  1  0
  2 18  1  0
  2 19  1  0
  6 20  1  0
  6 21  1  0
  7 22  1  0
  7 23  1  0
  7 24  1  0
 10 25  1  0
 10 26  1  0
 11 27  1  0
 11 28  1  0
 13 29  1  0
 13 30  1  0
 14 31  1  0
 14 32  1  0
 14 33  1  0
V    1 0
V    2 1
V    3 2
V    4 3
V    5 4
V    6 5
V    7 6
V    8 7
V    9 8
V   10 9
V   11 10
V   12 11
V   13 12
V   14 13
M  END
> <DSSTox_RID>
62397

> <DSSTox_CID>
2018

> <DSSTox_CID_Parent>
2018

> <DSSTox_Generic_SID>
22018

> <DSSTox_FileID>
292_TXCST2_v1a

> <STRUCTURE_Formula>
C8H19O2PS3

> <STRUCTURE_MolecularWeight>
274.404

> <STRUCTURE_ChemicalType>
defined organic

> <STRUCTURE_TestedForm_DefinedOrganic>
parent

> <STRUCTURE_Shown>
tested chemical

> <TestSubstance_ChemicalName>
Disulfoton

> <TestSubstance_CASRN>
298-04-4

> <TestSubstance_Description>
single chemical compound

> <STRUCTURE_ChemicalName_IUPAC>
O,O-diethyl S-[2-(ethylthio)ethyl] dithiophosphate

> <STRUCTURE_SMILES>
CCOP(OCC)(=S)SCCSCC

> <STRUCTURE_Parent_SMILES>
CCOP(OCC)(=S)SCCSCC

> <STRUCTURE_InChIS>
InChI=1S/C8H19O2PS3/c1-4-9-11(12,10-5-2)14-8-7-13-6-3/h4-8H2,1-3H3

> <STRUCTURE_InChIKey>
DOFZAZXDOSGAJZ-UHFFFAOYSA-N

> <Substance_modify_yyyymmdd>
20080429

> <Coord_Metals>
0

> <Index>
292

> <Canonical_Smiles>
CCOP(=S)(OCC)SCCSCC

> <Molecular_Weight>
274.40402

> <Frequency>
1

$$$$

  SciTegic          2D

 27 27  0  0  0  0            999 V2000
    2.3383   -1.3500    0.0000 Br  0  0
    1.2990   -0.7500    0.0000 C   0  0
    1.2990    0.7500    0.0000 C   0  0
    2.5988    1.5004    0.0000 C   0  0
    0.0000    1.5000    0.0000 N   0  0
   -1.2990    0.7500    0.0000 C   0  0
   -2.3383    1.3500    0.0000 O   0  0
   -1.2990   -0.7500    0.0000 N   0  0
   -2.5988   -1.5004    0.0000 C   0  0
   -2.5983   -3.0012    0.0000 C   0  0
   -3.8990   -0.7508    0.0000 C   0  0
   -5.1988   -1.5013    0.0000 C   0  0
    0.0000   -1.5000    0.0000 C   0  0
    0.0000   -2.7000    0.0000 O   0  0
    3.4651    1.0010    0.0000 H   0  0
    2.5985    2.5004    0.0000 H   0  0
    3.4646    2.0008    0.0000 H   0  0
    0.0000    2.5000    0.0000 H   0  0
   -2.5991   -0.5004    0.0000 H   0  0
   -3.4639   -3.5020    0.0000 H   0  0
   -1.7320   -3.5006    0.0000 H   0  0
   -2.5975   -4.0012    0.0000 H   0  0
   -3.8993    0.2492    0.0000 H   0  0
   -3.0332   -0.2504    0.0000 H   0  0
   -6.0651   -1.0018    0.0000 H   0  0
   -5.1984   -2.5013    0.0000 H   0  0
   -6.0646   -2.0017    0.0000 H   0  0
  1  2  1  0
  2  3  2  0
  2 13  1  0
  3  4  1  0
  3  5  1  0
  5  6  1  0
  6  7  2  0
  6  8  1  0
  8  9  1  0
  8 13  1  0
  9 10  1  0
  9 11  1  0
 11 12  1  0
 13 14  2  0
  4 15  1  0
  4 16  1  0
  4 17  1  0
  5 18  1  0
  9 19  1  0
 10 20  1  0
 10 21  1  0
 10 22  1  0
 11 23  1  0
 11 24  1  0
 12 25  1  0
 12 26  1  0
 12 27  1  0
V    1 0
V    2 1
V    3 2
V    4 3
V    5 4
V    6 5
V    7 6
V    8 7
V    9 8
V   10 9
V   11 10
V   12 11
V   13 12
V   14 13
M  END
> <DSSTox_RID>
59534

> <DSSTox_CID>
2020

> <DSSTox_CID_Parent>
2020

> <DSSTox_Generic_SID>
22020

> <DSSTox_FileID>
293_TXCST2_v1a

> <STRUCTURE_Formula>
C9H13BrN2O2

> <STRUCTURE_MolecularWeight>
261.1157

> <STRUCTURE_ChemicalType>
defined organic

> <STRUCTURE_TestedForm_DefinedOrganic>
parent

> <STRUCTURE_Shown>
tested chemical

> <TestSubstance_ChemicalName>
Bromacil

> <TestSubstance_CASRN>
314-40-9

> <TestSubstance_Description>
single chemical compound

> <Source_ChemicalNote>
tested chemical contained 0.05% water (0.01 moles H2O)

> <STRUCTURE_ChemicalName_IUPAC>
5-bromo-6-methyl-3-(1-methylpropyl)pyrimidine-2,4(1H,3H)-dione

> <STRUCTURE_SMILES>
BrC1=C(C)NC(=O)N(C(C)CC)C1=O

> <STRUCTURE_Parent_SMILES>
BrC1=C(C)NC(=O)N(C(C)CC)C1=O

> <STRUCTURE_InChIS>
InChI=1S/C9H13BrN2O2/c1-4-5(2)12-8(13)7(10)6(3)11-9(12)14/h5H,4H2,1-3H3,(H,11,14)

> <STRUCTURE_InChIKey>
CTSLUCNDVMMDHG-UHFFFAOYSA-N

> <Substance_modify_yyyymmdd>
20080429

> <Coord_Metals>
0

> <Index>
293

> <Canonical_Smiles>
CCC(C)N1C(=O)NC(=C(Br)C1=O)C

> <Molecular_Weight>
261.11572

> <Frequency>
1

$$$$

  SciTegic          2D

 22 22  0  0  0  0            999 V2000
    2.5973   -1.5031    0.0000 O   0  0
    1.2990   -0.7500    0.0000 C   0  0
    1.2990    0.7500    0.0000 C   0  0
    2.5988    1.5004    0.0000 C   0  0
    0.0000    1.5000    0.0000 C   0  0
   -1.2990    0.7500    0.0000 C   0  0
   -2.5988    1.5004    0.0000 C   0  0
   -1.2990   -0.7500    0.0000 C   0  0
    0.0000   -1.5000    0.0000 C   0  0
    0.0000   -3.0008    0.0000 C   0  0
    2.5958   -2.5031    0.0000 H   0  0
    3.4651    1.0010    0.0000 H   0  0
    2.5985    2.5004    0.0000 H   0  0
    3.4646    2.0008    0.0000 H   0  0
    0.0000    2.5000    0.0000 H   0  0
   -2.5994    2.5004    0.0000 H   0  0
   -3.4647    1.0001    0.0000 H   0  0
   -3.4651    2.0000    0.0000 H   0  0
   -2.1651   -1.2500    0.0000 H   0  0
    0.8657   -3.5014    0.0000 H   0  0
   -0.8662   -3.5006    0.0000 H   0  0
   -0.0005   -4.0008    0.0000 H   0  0
  1  2  1  0
  2  3  2  0
  2  9  1  0
  3  4  1  0
  3  5  1  0
  5  6  2  0
  6  7  1  0
  6  8  1  0
  8  9  2  0
  9 10  1  0
  1 11  1  0
  4 12  1  0
  4 13  1  0
  4 14  1  0
  5 15  1  0
  7 16  1  0
  7 17  1  0
  7 18  1  0
  8 19  1  0
 10 20  1  0
 10 21  1  0
 10 22  1  0
V    1 0
V    2 1
V    3 2
V    4 3
V    5 4
V    6 5
V    7 6
V    8 7
V    9 8
V   10 9
M  END
> <DSSTox_RID>
59665

> <DSSTox_CID>
2049

> <DSSTox_CID_Parent>
2049

> <DSSTox_Generic_SID>
22049

> <DSSTox_FileID>
294_TXCST2_v1a

> <STRUCTURE_Formula>
C9H12O

> <STRUCTURE_MolecularWeight>
136.191

> <STRUCTURE_ChemicalType>
defined organic

> <STRUCTURE_TestedForm_DefinedOrganic>
parent

> <STRUCTURE_Shown>
tested chemical

> <TestSubstance_ChemicalName>
2,4,6-Trimethylphenol

> <TestSubstance_CASRN>
527-60-6

> <TestSubstance_Description>
single chemical compound

> <STRUCTURE_ChemicalName_IUPAC>
2,4,6-trimethylphenol

> <STRUCTURE_SMILES>
OC1=C(C)C=C(C)C=C1C

> <STRUCTURE_Parent_SMILES>
OC1=C(C)C=C(C)C=C1C

> <STRUCTURE_InChIS>
InChI=1S/C9H12O/c1-6-4-7(2)9(10)8(3)5-6/h4-5,10H,1-3H3

> <STRUCTURE_InChIKey>
BPRYUXCVCCNUFE-UHFFFAOYSA-N

> <Substance_modify_yyyymmdd>
20080429

> <Coord_Metals>
0

> <Index>
294

> <Canonical_Smiles>
Cc1cc(C)c(O)c(C)c1

> <Molecular_Weight>
136.19097

> <Frequency>
1

$$$$

  SciTegic          2D

 20 20  0  0  0  0            999 V2000
    2.5973   -1.5031    0.0000 O   0  0
    1.2990   -0.7500    0.0000 C   0  0
    1.2990    0.7500    0.0000 C   0  0
    2.5988    1.5004    0.0000 C   0  0
    0.0000    1.5000    0.0000 C   0  0
   -1.2990    0.7500    0.0000 C   0  0
   -2.6003    1.4977    0.0000 N   0  0
   -3.6387    0.8962    0.0000 O   0  0
   -2.6024    2.6977    0.0000 O   0  0
   -1.2990   -0.7500    0.0000 C   0  0
    0.0000   -1.5000    0.0000 C   0  0
   -0.0031   -3.0008    0.0000 N   0  0
   -1.0432   -3.5994    0.0000 O   0  0
    1.0351   -3.6026    0.0000 O   0  0
    2.5958   -2.5031    0.0000 H   0  0
    3.4651    1.0010    0.0000 H   0  0
    2.5985    2.5004    0.0000 H   0  0
    3.4646    2.0008    0.0000 H   0  0
    0.0000    2.5000    0.0000 H   0  0
   -2.1651   -1.2500    0.0000 H   0  0
  1  2  1  0
  2  3  2  0
  2 11  1  0
  3  4  1  0
  3  5  1  0
  5  6  2  0
  6  7  1  0
  6 10  1  0
  7  8  2  0
  7  9  2  0
 10 11  2  0
 11 12  1  0
 12 13  2  0
 12 14  2  0
  1 15  1  0
  4 16  1  0
  4 17  1  0
  4 18  1  0
  5 19  1  0
 10 20  1  0
V    1 0
V    2 1
V    3 2
V    4 3
V    5 4
V    6 5
V    7 6
V    8 7
V    9 8
V   10 9
V   11 10
V   12 11
V   13 12
V   14 13
M  END
> <DSSTox_RID>
60061

> <DSSTox_CID>
2053

> <DSSTox_CID_Parent>
2053

> <DSSTox_Generic_SID>
22053

> <DSSTox_FileID>
295_TXCST2_v1a

> <STRUCTURE_Formula>
C7H6N2O5

> <STRUCTURE_MolecularWeight>
198.1329

> <STRUCTURE_ChemicalType>
defined organic

> <STRUCTURE_TestedForm_DefinedOrganic>
parent

> <STRUCTURE_Shown>
tested chemical

> <TestSubstance_ChemicalName>
2-Methyl-4,6-dinitrophenol

> <TestSubstance_CASRN>
534-52-1

> <TestSubstance_Description>
single chemical compound

> <STRUCTURE_ChemicalName_IUPAC>
2-methyl-4,6-dinitrophenol

> <STRUCTURE_SMILES>
OC1=C(C)C=C([N+]([O-])=O)C=C1[N+]([O-])=O

> <STRUCTURE_Parent_SMILES>
OC1=C(C)C=C([N+]([O-])=O)C=C1[N+]([O-])=O

> <STRUCTURE_InChIS>
InChI=1S/C7H6N2O5/c1-4-2-5(8(11)12)3-6(7(4)10)9(13)14/h2-3,10H,1H3

> <STRUCTURE_InChIKey>
ZXVONLUNISGICL-UHFFFAOYSA-N

> <Substance_modify_yyyymmdd>
20080429

> <Coord_Metals>
0

> <Index>
295

> <Canonical_Smiles>
Cc1cc(cc(c1O)N(=O)=O)N(=O)=O

> <Molecular_Weight>
198.13293

> <Frequency>
1

$$$$

  SciTegic          2D

 12 12  0  0  0  0            999 V2000
    2.3383   -1.3500    0.0000 Cl  0  0
    1.2990   -0.7500    0.0000 C   0  0
    1.2990    0.7500    0.0000 C   0  0
    0.0000    1.5000    0.0000 C   0  0
    0.0000    2.7000    0.0000 Cl  0  0
   -1.2990    0.7500    0.0000 C   0  0
   -1.2990   -0.7500    0.0000 C   0  0
    0.0000   -1.5000    0.0000 C   0  0
    2.1651    1.2500    0.0000 H   0  0
   -2.1651    1.2500    0.0000 H   0  0
   -2.1651   -1.2500    0.0000 H   0  0
    0.0000   -2.5000    0.0000 H   0  0
  1  2  1  0
  2  3  2  0
  2  8  1  0
  3  4  1  0
  4  5  1  0
  4  6  2  0
  6  7  1  0
  7  8  2  0
  3  9  1  0
  6 10  1  0
  7 11  1  0
  8 12  1  0
V    1 0
V    2 1
V    3 2
V    4 3
V    5 4
V    6 5
V    7 6
V    8 7
M  END
> <DSSTox_RID>
65426

> <DSSTox_CID>
2056

> <DSSTox_CID_Parent>
2056

> <DSSTox_Generic_SID>
22056

> <DSSTox_FileID>
296_TXCST2_v1a

> <STRUCTURE_Formula>
C6H4Cl2

> <STRUCTURE_MolecularWeight>
147.002

> <STRUCTURE_ChemicalType>
defined organic

> <STRUCTURE_TestedForm_DefinedOrganic>
parent

> <STRUCTURE_Shown>
tested chemical

> <TestSubstance_ChemicalName>
1,3-Dichlorobenzene

> <TestSubstance_CASRN>
541-73-1

> <TestSubstance_Description>
single chemical compound

> <STRUCTURE_ChemicalName_IUPAC>
1,3-dichlorobenzene

> <STRUCTURE_SMILES>
ClC1=CC(Cl)=CC=C1

> <STRUCTURE_Parent_SMILES>
ClC1=CC(Cl)=CC=C1

> <STRUCTURE_InChIS>
InChI=1S/C6H4Cl2/c7-5-2-1-3-6(8)4-5/h1-4H

> <STRUCTURE_InChIKey>
ZPQOPVIELGIULI-UHFFFAOYSA-N

> <Substance_modify_yyyymmdd>
20080429

> <Coord_Metals>
0

> <Index>
296

> <Canonical_Smiles>
Clc1cccc(Cl)c1

> <Molecular_Weight>
147.00195

> <Frequency>
1

$$$$

  SciTegic          2D

 22 22  0  0  0  0            999 V2000
    1.2990   -0.7500    0.0000 C   0  0
    1.2990    0.7500    0.0000 C   0  0
    2.3383    1.3500    0.0000 Cl  0  0
    0.0000    1.5000    0.0000 C   0  0
    0.0000    2.7000    0.0000 Cl  0  0
   -1.2990    0.7500    0.0000 C   0  0
   -1.2990   -0.7500    0.0000 C   0  0
    0.0000   -1.5000    0.0000 C   0  0
   -0.0031   -3.0008    0.0000 N   0  0
   -1.3039   -3.7494    0.0000 C   0  0
   -2.3421   -3.1476    0.0000 O   0  0
   -1.3070   -5.2502    0.0000 C   0  0
   -2.6078   -5.9988    0.0000 C   0  0
    2.1651   -1.2500    0.0000 H   0  0
   -2.1651    1.2500    0.0000 H   0  0
   -2.1651   -1.2500    0.0000 H   0  0
    0.8621   -3.5023    0.0000 H   0  0
   -0.4418   -5.7517    0.0000 H   0  0
   -0.4400   -4.7519    0.0000 H   0  0
   -2.6099   -6.9988    0.0000 H   0  0
   -3.4730   -5.4973    0.0000 H   0  0
   -3.4748   -6.4971    0.0000 H   0  0
  1  2  2  0
  1  8  1  0
  2  3  1  0
  2  4  1  0
  4  5  1  0
  4  6  2  0
  6  7  1  0
  7  8  2  0
  8  9  1  0
  9 10  1  0
 10 11  2  0
 10 12  1  0
 12 13  1  0
  1 14  1  0
  6 15  1  0
  7 16  1  0
  9 17  1  0
 12 18  1  0
 12 19  1  0
 13 20  1  0
 13 21  1  0
 13 22  1  0
V    1 0
V    2 1
V    3 2
V    4 3
V    5 4
V    6 5
V    7 6
V    8 7
V    9 8
V   10 9
V   11 10
V   12 11
V   13 12
M  END
> <DSSTox_RID>
65330

> <DSSTox_CID>
2111

> <DSSTox_CID_Parent>
2111

> <DSSTox_Generic_SID>
22111

> <DSSTox_FileID>
297_TXCST2_v1a

> <STRUCTURE_Formula>
C9H9Cl2NO

> <STRUCTURE_MolecularWeight>
218.0799

> <STRUCTURE_ChemicalType>
defined organic

> <STRUCTURE_TestedForm_DefinedOrganic>
parent

> <STRUCTURE_Shown>
tested chemical

> <TestSubstance_ChemicalName>
Propanil

> <TestSubstance_CASRN>
709-98-8

> <TestSubstance_Description>
single chemical compound

> <Source_ChemicalNote>
tested chemical contained 0.017% water

> <STRUCTURE_ChemicalName_IUPAC>
N-(3,4-dichlorophenyl)propanamide

> <STRUCTURE_SMILES>
C1=C(Cl)C(Cl)=CC=C1NC(=O)CC

> <STRUCTURE_Parent_SMILES>
C1=C(Cl)C(Cl)=CC=C1NC(=O)CC

> <STRUCTURE_InChIS>
InChI=1S/C9H9Cl2NO/c1-2-9(13)12-6-3-4-7(10)8(11)5-6/h3-5H,2H2,1H3,(H,12,13)

> <STRUCTURE_InChIKey>
LFULEKSKNZEWOE-UHFFFAOYSA-N

> <Substance_modify_yyyymmdd>
20080429

> <Coord_Metals>
0

> <Index>
297

> <Canonical_Smiles>
CCC(=O)Nc1ccc(Cl)c(Cl)c1

> <Molecular_Weight>
218.07985

> <Frequency>
1

$$$$

  SciTegic          2D

 14 14  0  0  0  0            999 V2000
    1.2990   -0.7500    0.0000 C   0  0
    1.2990    0.7500    0.0000 C   0  0
    2.3383    1.3500    0.0000 Br  0  0
    0.0000    1.5000    0.0000 C   0  0
   -0.0031    3.0008    0.0000 O   0  0
   -1.2990    0.7500    0.0000 C   0  0
   -2.3383    1.3500    0.0000 Br  0  0
   -1.2990   -0.7500    0.0000 C   0  0
    0.0000   -1.5000    0.0000 C   0  0
    0.0000   -3.0008    0.0000 C   0  0
    0.0000   -4.2008    0.0000 N   0  0
    2.1651   -1.2500    0.0000 H   0  0
   -0.8698    3.4996    0.0000 H   0  0
   -2.1651   -1.2500    0.0000 H   0  0
  1  2  2  0
  1  9  1  0
  2  3  1  0
  2  4  1  0
  4  5  1  0
  4  6  2  0
  6  7  1  0
  6  8  1  0
  8  9  2  0
  9 10  1  0
 10 11  3  0
  1 12  1  0
  5 13  1  0
  8 14  1  0
V    1 0
V    2 1
V    3 2
V    4 3
V    5 4
V    6 5
V    7 6
V    8 7
V    9 8
V   10 9
V   11 10
M  END
> <DSSTox_RID>
61153

> <DSSTox_CID>
2162

> <DSSTox_CID_Parent>
2162

> <DSSTox_Generic_SID>
22162

> <DSSTox_FileID>
298_TXCST2_v1a

> <STRUCTURE_Formula>
C7H3Br2NO

> <STRUCTURE_MolecularWeight>
276.9128

> <STRUCTURE_ChemicalType>
defined organic

> <STRUCTURE_TestedForm_DefinedOrganic>
parent

> <STRUCTURE_Shown>
tested chemical

> <TestSubstance_ChemicalName>
Bromoxynil

> <TestSubstance_CASRN>
1689-84-5

> <TestSubstance_Description>
single chemical compound

> <STRUCTURE_ChemicalName_IUPAC>
3,5-dibromo-4-hydroxybenzonitrile

> <STRUCTURE_SMILES>
C1=C(Br)C(O)=C(Br)C=C1C#N

> <STRUCTURE_Parent_SMILES>
C1=C(Br)C(O)=C(Br)C=C1C#N

> <STRUCTURE_InChIS>
InChI=1S/C7H3Br2NO/c8-5-1-4(3-10)2-6(9)7(5)11/h1-2,11H

> <STRUCTURE_InChIKey>
UPMXNNIRAGDFEH-UHFFFAOYSA-N

> <Substance_modify_yyyymmdd>
20080429

> <Coord_Metals>
0

> <Index>
298

> <Canonical_Smiles>
Oc1c(Br)cc(cc1Br)C#N

> <Molecular_Weight>
276.91282

> <Frequency>
1

$$$$

  SciTegic          2D

 35 36  0  0  0  0            999 V2000
    5.1995    2.9965    0.0000 C   0  0
    5.1990    1.4957    0.0000 C   0  0
    3.8995    0.7448    0.0000 O   0  0
    3.8990   -0.7560    0.0000 P   0  0
    2.8607   -0.1545    0.0000 S   0  0
    2.5973   -1.5030    0.0000 O   0  0
    1.2990   -0.7500    0.0000 C   0  0
    1.2990    0.7500    0.0000 C   0  0
    0.0000    1.5000    0.0000 C   0  0
   -1.2990    0.7500    0.0000 C   0  0
   -1.2990   -0.7500    0.0000 C   0  0
    0.0000   -1.5000    0.0000 C   0  0
   -2.6003    1.4977    0.0000 N   0  0
   -3.6387    0.8962    0.0000 O   0  0
   -2.6024    2.6977    0.0000 O   0  0
    5.1973   -1.5091    0.0000 C   0  0
    6.4979   -0.7618    0.0000 C   0  0
    7.7953   -1.5145    0.0000 C   0  0
    7.7922   -3.0145    0.0000 C   0  0
    6.4916   -3.7618    0.0000 C   0  0
    5.1941   -3.0091    0.0000 C   0  0
    6.0653    3.4968    0.0000 H   0  0
    4.3334    3.4965    0.0000 H   0  0
    5.1993    3.9965    0.0000 H   0  0
    6.0650    0.9957    0.0000 H   0  0
    5.1992    0.4957    0.0000 H   0  0
    2.1651    1.2500    0.0000 H   0  0
    0.0000    2.5000    0.0000 H   0  0
   -2.1651   -1.2500    0.0000 H   0  0
    0.0000   -2.5000    0.0000 H   0  0
    6.4999    0.2382    0.0000 H   0  0
    8.6624   -1.0163    0.0000 H   0  0
    8.6572   -3.5163    0.0000 H   0  0
    6.4895   -4.7618    0.0000 H   0  0
    4.3271   -3.5073    0.0000 H   0  0
  1  2  1  0
  2  3  1  0
  3  4  1  0
  4  5  2  0
  4  6  1  0
  4 16  1  0
  6  7  1  0
  7  8  2  0
  7 12  1  0
  8  9  1  0
  9 10  2  0
 10 11  1  0
 10 13  1  0
 11 12  2  0
 13 14  2  0
 13 15  2  0
 16 17  2  0
 16 21  1  0
 17 18  1  0
 18 19  2  0
 19 20  1  0
 20 21  2  0
  1 22  1  0
  1 23  1  0
  1 24  1  0
  2 25  1  0
  2 26  1  0
  8 27  1  0
  9 28  1  0
 11 29  1  0
 12 30  1  0
 17 31  1  0
 18 32  1  0
 19 33  1  0
 20 34  1  0
 21 35  1  0
V    1 0
V    2 1
V    3 2
V    4 3
V    5 4
V    6 5
V    7 6
V    8 7
V    9 8
V   10 9
V   11 10
V   12 11
V   13 12
V   14 13
V   15 14
V   16 15
V   17 16
V   18 17
V   19 18
V   20 19
V   21 20
M  END
> <DSSTox_RID>
60281

> <DSSTox_CID>
2174

> <DSSTox_CID_Parent>
2174

> <DSSTox_Generic_SID>
22174

> <DSSTox_FileID>
299_TXCST2_v1a

> <STRUCTURE_Formula>
C14H14NO4PS

> <STRUCTURE_MolecularWeight>
323.304

> <STRUCTURE_ChemicalType>
defined organic

> <STRUCTURE_TestedForm_DefinedOrganic>
parent

> <STRUCTURE_Shown>
tested chemical

> <TestSubstance_ChemicalName>
O-Ethyl O-(p-nitrophenyl phenyl)phosphonothioate (EPN)

> <TestSubstance_CASRN>
2104-64-5

> <TestSubstance_Description>
single chemical compound

> <STRUCTURE_ChemicalName_IUPAC>
O-ethyl O-(4-nitrophenyl) phenylphosphonothioate

> <STRUCTURE_SMILES>
CCOP(=S)(OC1=CC=C(C=C1)[N+](=O)[O-])C2=CC=CC=C2

> <STRUCTURE_Parent_SMILES>
CCOP(=S)(OC1=CC=C(C=C1)[N+](=O)[O-])C2=CC=CC=C2

> <STRUCTURE_InChIS>
InChI=1S/C14H14NO4PS/c1-2-18-20(21,14-6-4-3-5-7-14)19-13-10-8-12(9-11-13)15(16)17/h3-11H,2H2,1H3

> <STRUCTURE_InChIKey>
AIGRXSNSLVJMEA-UHFFFAOYSA-N

> <Substance_modify_yyyymmdd>
20080429

> <Coord_Metals>
0

> <Index>
299

> <Canonical_Smiles>
CCOP(=S)(Oc1ccc(cc1)N(=O)=O)c2ccccc2

> <Molecular_Weight>
323.30402

> <Frequency>
1

$$$$

  SciTegic          2D

 11 11  0  0  0  0            999 V2000
    1.2990   -0.7500    0.0000 N   0  0
    1.2990    0.7500    0.0000 C   0  0
    2.3383    1.3500    0.0000 Cl  0  0
    0.0000    1.5000    0.0000 C   0  0
    0.0000    2.7000    0.0000 Cl  0  0
   -1.2990    0.7500    0.0000 C   0  0
   -2.3383    1.3500    0.0000 Cl  0  0
   -1.2990   -0.7500    0.0000 C   0  0
   -2.3383   -1.3500    0.0000 Cl  0  0
    0.0000   -1.5000    0.0000 C   0  0
    0.0000   -2.7000    0.0000 Cl  0  0
  1  2  2  0
  1 10  1  0
  2  3  1  0
  2  4  1  0
  4  5  1  0
  4  6  2  0
  6  7  1  0
  6  8  1  0
  8  9  1  0
  8 10  2  0
 10 11  1  0
V    1 0
V    2 1
V    3 2
V    4 3
V    5 4
V    6 5
V    7 6
V    8 7
V    9 8
V   10 9
V   11 10
M  END
> <DSSTox_RID>
59522

> <DSSTox_CID>
2179

> <DSSTox_CID_Parent>
2179

> <DSSTox_Generic_SID>
22179

> <DSSTox_FileID>
300_TXCST2_v1a

> <STRUCTURE_Formula>
C5Cl5N

> <STRUCTURE_MolecularWeight>
251.3252

> <STRUCTURE_ChemicalType>
defined organic

> <STRUCTURE_TestedForm_DefinedOrganic>
parent

> <STRUCTURE_Shown>
tested chemical

> <TestSubstance_ChemicalName>
Pentachloropyridine

> <TestSubstance_CASRN>
2176-62-7

> <TestSubstance_Description>
single chemical compound

> <STRUCTURE_ChemicalName_IUPAC>
pentachloropyridine

> <STRUCTURE_SMILES>
N1=C(Cl)C(Cl)=C(Cl)C(Cl)=C1Cl

> <STRUCTURE_Parent_SMILES>
N1=C(Cl)C(Cl)=C(Cl)C(Cl)=C1Cl

> <STRUCTURE_InChIS>
InChI=1S/C5Cl5N/c6-1-2(7)4(9)11-5(10)3(1)8

> <STRUCTURE_InChIKey>
DNDPLEAVNVOOQZ-UHFFFAOYSA-N

> <Substance_modify_yyyymmdd>
20080429

> <Coord_Metals>
0

> <Index>
300

> <Canonical_Smiles>
Clc1nc(Cl)c(Cl)c(Cl)c1Cl

> <Molecular_Weight>
251.3252

> <Frequency>
1

$$$$

  SciTegic          2D

 22 22  0  0  0  0            999 V2000
    2.5973   -1.5031    0.0000 O   0  0
    1.2990   -0.7500    0.0000 C   0  0
    1.2990    0.7500    0.0000 C   0  0
    2.5988    1.5004    0.0000 C   0  0
    0.0000    1.5000    0.0000 C   0  0
    0.0000    3.0008    0.0000 C   0  0
   -1.2990    0.7500    0.0000 C   0  0
   -1.2990   -0.7500    0.0000 C   0  0
    0.0000   -1.5000    0.0000 C   0  0
    0.0000   -3.0008    0.0000 C   0  0
    2.5958   -2.5031    0.0000 H   0  0
    3.4651    1.0010    0.0000 H   0  0
    2.5985    2.5004    0.0000 H   0  0
    3.4646    2.0008    0.0000 H   0  0
    0.8657    3.5014    0.0000 H   0  0
   -0.8662    3.5005    0.0000 H   0  0
   -0.0005    4.0008    0.0000 H   0  0
   -2.1651    1.2500    0.0000 H   0  0
   -2.1651   -1.2500    0.0000 H   0  0
    0.8657   -3.5014    0.0000 H   0  0
   -0.8662   -3.5006    0.0000 H   0  0
   -0.0005   -4.0008    0.0000 H   0  0
  1  2  1  0
  2  3  2  0
  2  9  1  0
  3  4  1  0
  3  5  1  0
  5  6  1  0
  5  7  2  0
  7  8  1  0
  8  9  2  0
  9 10  1  0
  1 11  1  0
  4 12  1  0
  4 13  1  0
  4 14  1  0
  6 15  1  0
  6 16  1  0
  6 17  1  0
  7 18  1  0
  8 19  1  0
 10 20  1  0
 10 21  1  0
 10 22  1  0
V    1 0
V    2 1
V    3 2
V    4 3
V    5 4
V    6 5
V    7 6
V    8 7
V    9 8
V   10 9
M  END
> <DSSTox_RID>
65298

> <DSSTox_CID>
2187

> <DSSTox_CID_Parent>
2187

> <DSSTox_Generic_SID>
22187

> <DSSTox_FileID>
301_TXCST2_v1a

> <STRUCTURE_Formula>
C9H12O

> <STRUCTURE_MolecularWeight>
136.191

> <STRUCTURE_ChemicalType>
defined organic

> <STRUCTURE_TestedForm_DefinedOrganic>
parent

> <STRUCTURE_Shown>
tested chemical

> <TestSubstance_ChemicalName>
2,3,6-Trimethylphenol

> <TestSubstance_CASRN>
2416-94-6

> <TestSubstance_Description>
single chemical compound

> <STRUCTURE_ChemicalName_IUPAC>
2,3,6-trimethylphenol

> <STRUCTURE_SMILES>
OC1=C(C)C(C)=CC=C1C

> <STRUCTURE_Parent_SMILES>
OC1=C(C)C(C)=CC=C1C

> <STRUCTURE_InChIS>
InChI=1S/C9H12O/c1-6-4-5-7(2)9(10)8(6)3/h4-5,10H,1-3H3

> <STRUCTURE_InChIKey>
QQOMQLYQAXGHSU-UHFFFAOYSA-N

> <Substance_modify_yyyymmdd>
20080429

> <Coord_Metals>
0

> <Index>
301

> <Canonical_Smiles>
Cc1ccc(C)c(O)c1C

> <Molecular_Weight>
136.19097

> <Frequency>
1

$$$$

  SciTegic          2D

 51 53  0  0  0  0            999 V2000
    9.4051   -1.2472    0.0000 C   0  0
    9.0614    0.2137    0.0000 C   0  0
    7.6251    0.6491    0.0000 C   0  0
   10.1542    1.2425    0.0000 C   0  0
    9.7902    2.7096    0.0000 C   0  0
   11.0039    3.5911    0.0000 C   0  0
   11.6021    4.9792    0.0000 C   0  0
   11.9361    2.4007    0.0000 C   0  0
    9.7119    4.0936    0.0000 C   0  0
    8.2193    3.9367    0.0000 C   0  0
    7.7316    2.8403    0.0000 O   0  0
    7.3364    5.1504    0.0000 O   0  0
    5.8438    4.9935    0.0000 C   0  0
    4.9624    6.2050    0.0000 C   0  0
    5.4250    7.6319    0.0000 C   0  0
    4.2109    8.5128    0.0000 O   0  0
    3.0188    7.6236    0.0000 C   0  0
    1.5911    8.0865    0.0000 C   0  0
    0.4758    7.0822    0.0000 C   0  0
    0.7877    5.6150    0.0000 C   0  0
   -0.3270    4.6113    0.0000 C   0  0
   -1.7536    5.0748    0.0000 C   0  0
   -2.0655    6.5420    0.0000 C   0  0
   -0.9508    7.5457    0.0000 C   0  0
    3.4624    6.2041    0.0000 C   0  0
    8.6770   -1.9327    0.0000 H   0  0
    9.6345   -2.2205    0.0000 H   0  0
   10.3627   -1.5353    0.0000 H   0  0
    7.3973    1.6228    0.0000 H   0  0
    6.6680    0.9387    0.0000 H   0  0
    6.8956   -0.0349    0.0000 H   0  0
   11.1118    0.9544    0.0000 H   0  0
    8.7945    2.6170    0.0000 H   0  0
   10.9954    5.7742    0.0000 H   0  0
   11.9871    5.9022    0.0000 H   0  0
   12.5938    5.1075    0.0000 H   0  0
   12.9279    2.5283    0.0000 H   0  0
   12.5426    1.6056    0.0000 H   0  0
   11.5509    1.4778    0.0000 H   0  0
   10.1190    5.0070    0.0000 H   0  0
    5.4373    4.0798    0.0000 H   0  0
    6.4317    4.1846    0.0000 H   0  0
    6.3758    7.9415    0.0000 H   0  0
    1.3829    9.0645    0.0000 H   0  0
    2.3340    8.7560    0.0000 H   0  0
    1.7387    5.3060    0.0000 H   0  0
   -0.1191    3.6331    0.0000 H   0  0
   -2.4968    4.4057    0.0000 H   0  0
   -3.0165    6.8510    0.0000 H   0  0
   -1.1587    8.5239    0.0000 H   0  0
    2.8703    5.3982    0.0000 H   0  0
  1  2  1  0
  2  3  1  0
  2  4  2  0
  4  5  1  0
  5  6  1  0
  5  9  1  0
  6  7  1  0
  6  8  1  0
  6  9  1  0
  9 10  1  0
 10 11  2  0
 10 12  1  0
 12 13  1  0
 13 14  1  0
 14 15  2  0
 14 25  1  0
 15 16  1  0
 16 17  1  0
 17 18  1  0
 17 25  2  0
 18 19  1  0
 19 20  2  0
 19 24  1  0
 20 21  1  0
 21 22  2  0
 22 23  1  0
 23 24  2  0
  1 26  1  0
  1 27  1  0
  1 28  1  0
  3 29  1  0
  3 30  1  0
  3 31  1  0
  4 32  1  0
  5 33  1  0
  7 34  1  0
  7 35  1  0
  7 36  1  0
  8 37  1  0
  8 38  1  0
  8 39  1  0
  9 40  1  0
 13 41  1  0
 13 42  1  0
 15 43  1  0
 18 44  1  0
 18 45  1  0
 20 46  1  0
 21 47  1  0
 22 48  1  0
 23 49  1  0
 24 50  1  0
 25 51  1  0
V    1 0
V    2 1
V    3 2
V    4 3
V    5 4
V    6 5
V    7 6
V    8 7
V    9 8
V   10 9
V   11 10
V   12 11
V   13 12
V   14 13
V   15 14
V   16 15
V   17 16
V   18 17
V   19 18
V   20 19
V   21 20
V   22 21
V   23 22
V   24 23
V   25 24
M  END
> <DSSTox_RID>
65427

> <DSSTox_CID>
2253

> <DSSTox_CID_Parent>
2253

> <DSSTox_Generic_SID>
22253

> <DSSTox_FileID>
302_TXCST2_v1a

> <STRUCTURE_Formula>
C22H26O3

> <STRUCTURE_MolecularWeight>
338.44

> <STRUCTURE_ChemicalType>
defined organic

> <STRUCTURE_TestedForm_DefinedOrganic>
parent

> <STRUCTURE_Shown>
tested chemical

> <TestSubstance_ChemicalName>
Resmethrin

> <TestSubstance_CASRN>
10453-86-8

> <TestSubstance_Description>
single chemical compound

> <ChemicalNote>
mixture of (1R,S), (3R,S) isomers; structure shown without stereochem

> <Source_ChemicalNote>
tested chemical contained 0.08% water (0.02 moles H2O); tested chemical was a mixture of Z,E isomers

> <STRUCTURE_ChemicalName_IUPAC>
(5-benzyl-3-furyl)methyl 2,2-dimethyl-3-(2-methylprop-1-en-1-yl)cyclopropanecarboxylate

> <STRUCTURE_SMILES>
CC(C)=CC1C(C)(C)C1C(=O)OCC2=COC(CC3=CC=CC=C3)=C2

> <STRUCTURE_Parent_SMILES>
CC(C)=CC1C(C)(C)C1C(=O)OCC2=COC(CC3=CC=CC=C3)=C2

> <STRUCTURE_InChIS>
InChI=1S/C22H26O3/c1-15(2)10-19-20(22(19,3)4)21(23)25-14-17-12-18(24-13-17)11-16-8-6-5-7-9-16/h5-10,12-13,19-20H,11,14H2,1-4H3

> <STRUCTURE_InChIKey>
VEMKTZHHVJILDY-UHFFFAOYSA-N

> <Substance_modify_yyyymmdd>
20080429

> <Coord_Metals>
0

> <Index>
302

> <Canonical_Smiles>
CC(=CC1C(C(=O)OCc2coc(Cc3ccccc3)c2)C1(C)C)C

> <Molecular_Weight>
338.44004

> <Frequency>
1

$$$$

  SciTegic          2D

 38 38  0  0  0  0            999 V2000
    1.2990   -0.7500    0.0000 C   0  0
    2.5988   -1.5004    0.0000 C   0  0
    3.8990   -0.7508    0.0000 C   0  0
    1.2990    0.7500    0.0000 C   0  0
    0.0000    1.5000    0.0000 C   0  0
   -1.2990    0.7500    0.0000 C   0  0
   -1.2990   -0.7500    0.0000 C   0  0
   -2.5988   -1.5004    0.0000 C   0  0
   -3.8990   -0.7508    0.0000 C   0  0
    0.0000   -1.5000    0.0000 C   0  0
   -0.0031   -3.0008    0.0000 N   0  0
   -1.3039   -3.7494    0.0000 C   0  0
   -1.3070   -5.2502    0.0000 O   0  0
   -2.6078   -5.9988    0.0000 C   0  0
    1.2969   -3.7508    0.0000 C   0  0
    2.3358   -3.1502    0.0000 O   0  0
    1.2983   -5.2517    0.0000 C   0  0
    2.3378   -5.8513    0.0000 Cl  0  0
    2.5985   -2.5004    0.0000 H   0  0
    1.7327   -2.0003    0.0000 H   0  0
    4.7650   -1.2508    0.0000 H   0  0
    3.8993    0.2492    0.0000 H   0  0
    4.7651   -0.2510    0.0000 H   0  0
    2.1651    1.2500    0.0000 H   0  0
    0.0000    2.5000    0.0000 H   0  0
   -2.1651    1.2500    0.0000 H   0  0
   -2.5985   -2.5004    0.0000 H   0  0
   -1.7327   -2.0003    0.0000 H   0  0
   -4.7650   -1.2508    0.0000 H   0  0
   -3.8993    0.2492    0.0000 H   0  0
   -4.7651   -0.2510    0.0000 H   0  0
   -2.1691   -3.2479    0.0000 H   0  0
   -2.1709   -4.2478    0.0000 H   0  0
   -2.6099   -6.9988    0.0000 H   0  0
   -3.4730   -5.4973    0.0000 H   0  0
   -3.4748   -6.4971    0.0000 H   0  0
    0.4326   -5.7522    0.0000 H   0  0
    1.2988   -6.2517    0.0000 H   0  0
  1  2  1  0
  1  4  2  0
  1 10  1  0
  2  3  1  0
  4  5  1  0
  5  6  2  0
  6  7  1  0
  7  8  1  0
  7 10  2  0
  8  9  1  0
 10 11  1  0
 11 12  1  0
 11 15  1  0
 12 13  1  0
 13 14  1  0
 15 16  2  0
 15 17  1  0
 17 18  1  0
  2 19  1  0
  2 20  1  0
  3 21  1  0
  3 22  1  0
  3 23  1  0
  4 24  1  0
  5 25  1  0
  6 26  1  0
  8 27  1  0
  8 28  1  0
  9 29  1  0
  9 30  1  0
  9 31  1  0
 12 32  1  0
 12 33  1  0
 14 34  1  0
 14 35  1  0
 14 36  1  0
 17 37  1  0
 17 38  1  0
V    1 0
V    2 1
V    3 2
V    4 3
V    5 4
V    6 5
V    7 6
V    8 7
V    9 8
V   10 9
V   11 10
V   12 11
V   13 12
V   14 13
V   15 14
V   16 15
V   17 16
V   18 17
M  END
> <DSSTox_RID>
65339

> <DSSTox_CID>
2265

> <DSSTox_CID_Parent>
2265

> <DSSTox_Generic_SID>
22265

> <DSSTox_FileID>
303_TXCST2_v1a

> <STRUCTURE_Formula>
C14H20ClNO2

> <STRUCTURE_MolecularWeight>
269.7671

> <STRUCTURE_ChemicalType>
defined organic

> <STRUCTURE_TestedForm_DefinedOrganic>
parent

> <STRUCTURE_Shown>
tested chemical

> <TestSubstance_ChemicalName>
Alachlor

> <TestSubstance_CASRN>
15972-60-8

> <TestSubstance_Description>
single chemical compound

> <STRUCTURE_ChemicalName_IUPAC>
2-chloro-N-(2,6-diethylphenyl)-N-[(methyloxy)methyl]acetamide

> <STRUCTURE_SMILES>
C1(CC)=CC=CC(CC)=C1N(COC)C(=O)CCl

> <STRUCTURE_Parent_SMILES>
C1(CC)=CC=CC(CC)=C1N(COC)C(=O)CCl

> <STRUCTURE_InChIS>
InChI=1S/C14H20ClNO2/c1-4-11-7-6-8-12(5-2)14(11)16(10-18-3)13(17)9-15/h6-8H,4-5,9-10H2,1-3H3

> <STRUCTURE_InChIKey>
XCSGPAVHZFQHGE-UHFFFAOYSA-N

> <Substance_modify_yyyymmdd>
20080429

> <Coord_Metals>
0

> <Index>
303

> <Canonical_Smiles>
CCc1cccc(CC)c1N(COC)C(=O)CCl

> <Molecular_Weight>
269.7671

> <Frequency>
1

$$$$

  SciTegic          2D

 20 19  0  0  0  0            999 V2000
    1.3000    0.7500    0.0000 C   0  0
    2.6000    0.0000    0.0000 S   0  0
    3.9000    0.7500    0.0000 C   0  0
    3.9031    2.2508    0.0000 C   0  0
    5.2000    0.0000    0.0000 N   0  0
    6.5000    0.7500    0.0000 O   0  0
    7.7999    0.0000    0.0000 C   0  0
    7.7999   -1.2000    0.0000 O   0  0
    9.0999    0.7500    0.0000 N   0  0
   10.3999    0.0000    0.0000 C   0  0
    0.4338    0.2503    0.0000 H   0  0
    1.3000    1.7500    0.0000 H   0  0
    0.4340    1.2501    0.0000 H   0  0
    4.7698    2.7496    0.0000 H   0  0
    3.0379    2.7523    0.0000 H   0  0
    3.9046    3.2508    0.0000 H   0  0
    9.0999    1.7500    0.0000 H   0  0
   11.2661    0.4997    0.0000 H   0  0
   11.2659   -0.5001    0.0000 H   0  0
   10.3999   -1.0000    0.0000 H   0  0
  1  2  1  0
  2  3  1  0
  3  4  1  0
  3  5  2  0
  5  6  1  0
  6  7  1  0
  7  8  2  0
  7  9  1  0
  9 10  1  0
  1 11  1  0
  1 12  1  0
  1 13  1  0
  4 14  1  0
  4 15  1  0
  4 16  1  0
  9 17  1  0
 10 18  1  0
 10 19  1  0
 10 20  1  0
V    1 0
V    2 1
V    3 2
V    4 3
V    5 4
V    6 5
V    7 6
V    8 7
V    9 8
V   10 9
M  END
> <DSSTox_RID>
65428

> <DSSTox_CID>
2267

> <DSSTox_CID_Parent>
2267

> <DSSTox_Generic_SID>
22267

> <DSSTox_FileID>
304_TXCST2_v1a

> <STRUCTURE_Formula>
C5H10N2O2S

> <STRUCTURE_MolecularWeight>
162.2101

> <STRUCTURE_ChemicalType>
defined organic

> <STRUCTURE_TestedForm_DefinedOrganic>
parent

> <STRUCTURE_Shown>
tested chemical

> <TestSubstance_ChemicalName>
Methomyl

> <TestSubstance_CASRN>
16752-77-5

> <TestSubstance_Description>
single chemical compound

> <ChemicalNote>
stereochem

> <Source_ChemicalNote>
tested chemical contained 0.11% water (0.01 moles H2O)

> <STRUCTURE_ChemicalName_IUPAC>
methyl (1E)-N-{[(methylamino)carbonyl]oxy}ethanimidothioate

> <STRUCTURE_SMILES>
CSC(C)=NOC(=O)NC

> <STRUCTURE_Parent_SMILES>
CSC(C)=NOC(=O)NC

> <STRUCTURE_InChIS>
InChI=1S/C5H10N2O2S/c1-4(10-3)7-9-5(8)6-2/h1-3H3,(H,6,8)/b7-4+

> <STRUCTURE_InChIKey>
UHXUZOCRWCRNSJ-QPJJXVBHSA-N

> <Substance_modify_yyyymmdd>
20080429

> <Coord_Metals>
0

> <Index>
304

> <Canonical_Smiles>
CNC(=O)ON=C(C)SC

> <Molecular_Weight>
162.21009

> <Frequency>
1

$$$$

  SciTegic          2D

 46 48  0  0  0  0            999 V2000
   -0.4253  -10.4931    0.0000 C   0  0
   -0.9401  -11.9020    0.0000 C   0  0
   -2.4176  -12.1606    0.0000 C   0  0
   -3.3804  -11.0103    0.0000 C   0  0
   -4.6826  -11.7564    0.0000 O   0  0
   -5.9803  -11.0025    0.0000 C   0  0
   -7.2830  -11.7463    0.0000 C   0  0
   -8.5785  -10.9901    0.0000 C   0  0
   -8.5714   -9.4902    0.0000 C   0  0
   -7.2688   -8.7463    0.0000 C   0  0
   -5.9733   -9.5024    0.0000 C   0  0
   -2.8655   -9.6014    0.0000 C   0  0
   -1.3880   -9.3428    0.0000 C   0  0
   -0.8729   -7.9331    0.0000 C   0  0
    0.6053   -7.6735    0.0000 O   0  0
    1.1204   -6.2638    0.0000 C   0  0
    0.3499   -5.3438    0.0000 O   0  0
    2.5986   -6.0041    0.0000 C   0  0
    3.2338   -4.7720    0.0000 C   0  0
    1.9160   -4.0315    0.0000 C   0  0
    4.5154   -3.9697    0.0000 C   0  0
    3.9832   -6.0714    0.0000 C   0  0
    5.4803   -5.8632    0.0000 C   0  0
    6.3889   -7.0578    0.0000 C   0  0
    7.5794   -6.9070    0.0000 Cl  0  0
    5.9246   -8.1643    0.0000 Cl  0  0
    0.5598  -10.3207    0.0000 H   0  0
   -0.2983  -12.6688    0.0000 H   0  0
   -2.7608  -13.0998    0.0000 H   0  0
   -7.2877  -12.7463    0.0000 H   0  0
   -9.4468  -11.4860    0.0000 H   0  0
   -9.4350   -8.9861    0.0000 H   0  0
   -7.2641   -7.7463    0.0000 H   0  0
   -5.1049   -9.0065    0.0000 H   0  0
   -3.5074   -8.8346    0.0000 H   0  0
   -0.5301   -6.9937    0.0000 H   0  0
   -1.5150   -7.1665    0.0000 H   0  0
    2.5983   -7.0041    0.0000 H   0  0
    1.0618   -4.5515    0.0000 H   0  0
    1.0385   -3.5519    0.0000 H   0  0
    1.8925   -3.0318    0.0000 H   0  0
    4.4925   -2.9700    0.0000 H   0  0
    5.3696   -3.4499    0.0000 H   0  0
    5.3928   -4.4495    0.0000 H   0  0
    3.9708   -7.0713    0.0000 H   0  0
    5.8673   -4.9411    0.0000 H   0  0
  1  2  2  0
  1 13  1  0
  2  3  1  0
  3  4  2  0
  4  5  1  0
  4 12  1  0
  5  6  1  0
  6  7  2  0
  6 11  1  0
  7  8  1  0
  8  9  2  0
  9 10  1  0
 10 11  2  0
 12 13  2  0
 13 14  1  0
 14 15  1  0
 15 16  1  0
 16 17  2  0
 16 18  1  0
 18 19  1  0
 18 22  1  0
 19 20  1  0
 19 21  1  0
 19 22  1  0
 22 23  1  0
 23 24  2  0
 24 25  1  0
 24 26  1  0
  1 27  1  0
  2 28  1  0
  3 29  1  0
  7 30  1  0
  8 31  1  0
  9 32  1  0
 10 33  1  0
 11 34  1  0
 12 35  1  0
 14 36  1  0
 14 37  1  0
 18 38  1  0
 20 39  1  0
 20 40  1  0
 20 41  1  0
 21 42  1  0
 21 43  1  0
 21 44  1  0
 22 45  1  0
 23 46  1  0
V    1 0
V    2 1
V    3 2
V    4 3
V    5 4
V    6 5
V    7 6
V    8 7
V    9 8
V   10 9
V   11 10
V   12 11
V   13 12
V   14 13
V   15 14
V   16 15
V   17 16
V   18 17
V   19 18
V   20 19
V   21 20
V   22 21
V   23 22
V   24 23
V   25 24
V   26 25
M  END
> <DSSTox_RID>
66864

> <DSSTox_CID>
2292

> <DSSTox_CID_Parent>
2292

> <DSSTox_Generic_SID>
22292

> <DSSTox_FileID>
305_TXCST2_v1a

> <STRUCTURE_Formula>
C21H20Cl2O3

> <STRUCTURE_MolecularWeight>
391.2877

> <STRUCTURE_ChemicalType>
defined organic

> <STRUCTURE_TestedForm_DefinedOrganic>
parent

> <STRUCTURE_Shown>
tested chemical

> <TestSubstance_ChemicalName>
Permethrin

> <TestSubstance_CASRN>
52645-53-1

> <TestSubstance_Description>
single chemical compound

> <ChemicalNote>
mixture of (1R,S), (3R,S) isomers; structure shown without stereochem

> <STRUCTURE_ChemicalName_IUPAC>
[3-(phenyloxy)phenyl]methyl 3-(2,2-dichloroethenyl)-2,2-dimethylcyclopropanecarboxylate

> <STRUCTURE_SMILES>
C1=CC=C(OC2=CC=CC=C2)C=C1COC(=O)C3C(C)(C)C3C=C(Cl)Cl

> <STRUCTURE_Parent_SMILES>
C1=CC=C(OC2=CC=CC=C2)C=C1COC(=O)C3C(C)(C)C3C=C(Cl)Cl

> <STRUCTURE_InChIS>
InChI=1S/C21H20Cl2O3/c1-21(2)17(12-18(22)23)19(21)20(24)25-13-14-7-6-10-16(11-14)26-15-8-4-3-5-9-15/h3-12,17,19H,13H2,1-2H3

> <STRUCTURE_InChIKey>
RLLPVAHGXHCWKJ-UHFFFAOYSA-N

> <Substance_modify_yyyymmdd>
20080429

> <Coord_Metals>
0

> <Index>
305

> <Canonical_Smiles>
CC1(C)C(C=C(Cl)Cl)C1C(=O)OCc2cccc(Oc3ccccc3)c2

> <Molecular_Weight>
391.2877

> <Frequency>
1

$$$$

  SciTegic          2D

 30 32  0  0  0  0            999 V2000
    1.2964   -1.4973    0.0000 C   0  0
    0.0000   -0.7486    0.0000 C   0  0
    0.0000    0.7486    0.0000 C   0  0
   -1.2964    1.4973    0.0000 C   0  0
   -2.6111    0.7486    0.0000 C   0  0
   -2.6111   -0.7486    0.0000 C   0  0
   -1.2964   -1.4973    0.0000 C   0  0
   -1.2907   -2.9981    0.0000 O   0  0
   -3.9122    1.4966    0.0000 O   0  0
    1.2964    1.4973    0.0000 O   0  0
    2.5929    0.7486    0.0000 C   0  0
    2.5929   -0.7486    0.0000 C   0  0
    3.8926   -1.4990    0.0000 C   0  0
    5.1929   -0.7510    0.0000 C   0  0
    6.4908   -1.5029    0.0000 C   0  0
    6.4885   -3.0029    0.0000 C   0  0
    5.1883   -3.7510    0.0000 C   0  0
    3.8904   -2.9990    0.0000 C   0  0
    7.7856   -3.7580    0.0000 O   0  0
    1.2964   -2.6973    0.0000 O   0  0
   -1.2934    2.4973    0.0000 H   0  0
   -3.4756   -1.2512    0.0000 H   0  0
   -2.1544   -3.5020    0.0000 H   0  0
   -4.7775    0.9954    0.0000 H   0  0
    3.4589    1.2486    0.0000 H   0  0
    5.1944    0.2490    0.0000 H   0  0
    7.3575   -1.0043    0.0000 H   0  0
    5.1868   -4.7510    0.0000 H   0  0
    3.0236   -3.4977    0.0000 H   0  0
    7.7826   -4.7580    0.0000 H   0  0
  1  2  1  0
  1 12  1  0
  1 20  2  0
  2  3  2  0
  2  7  1  0
  3  4  1  0
  3 10  1  0
  4  5  2  0
  5  6  1  0
  5  9  1  0
  6  7  2  0
  7  8  1  0
 10 11  1  0
 11 12  2  0
 12 13  1  0
 13 14  2  0
 13 18  1  0
 14 15  1  0
 15 16  2  0
 16 17  1  0
 16 19  1  0
 17 18  2  0
  4 21  1  0
  6 22  1  0
  8 23  1  0
  9 24  1  0
 11 25  1  0
 14 26  1  0
 15 27  1  0
 17 28  1  0
 18 29  1  0
 19 30  1  0
V    1 0
V    2 1
V    3 2
V    4 3
V    5 4
V    6 5
V    7 6
V    8 7
V    9 8
V   10 9
V   11 10
V   12 11
V   13 12
V   14 13
V   15 14
V   16 15
V   17 16
V   18 17
V   19 18
V   20 19
M  END
> <DSSTox_RID>
60247

> <DSSTox_CID>
2308

> <DSSTox_CID_Parent>
2308

> <DSSTox_Generic_SID>
22308

> <DSSTox_FileID>
306_TXCST2_v1a

> <STRUCTURE_Formula>
C15H10O5

> <STRUCTURE_MolecularWeight>
270.2369

> <STRUCTURE_ChemicalType>
defined organic

> <STRUCTURE_TestedForm_DefinedOrganic>
parent

> <STRUCTURE_Shown>
tested chemical

> <TestSubstance_ChemicalName>
Genistein

> <TestSubstance_CASRN>
446-72-0

> <TestSubstance_Description>
single chemical compound

> <STRUCTURE_ChemicalName_IUPAC>
5,7-dihydroxy-3-(4-hydroxyphenyl)-4H-chromen-4-one

> <STRUCTURE_SMILES>
O=C(C(C(C=C3)=CC=C3O)=CO2)C1=C2C=C(O)C=C1O

> <STRUCTURE_Parent_SMILES>
O=C(C(C(C=C3)=CC=C3O)=CO2)C1=C2C=C(O)C=C1O

> <STRUCTURE_InChIS>
InChI=1S/C15H10O5/c16-9-3-1-8(2-4-9)11-7-20-13-6-10(17)5-12(18)14(13)15(11)19/h1-7,16-18H

> <STRUCTURE_InChIKey>
TZBJGXHYKVUXJN-UHFFFAOYSA-N

> <Substance_modify_yyyymmdd>
20080429

> <Coord_Metals>
0

> <Index>
306

> <Canonical_Smiles>
Oc1ccc(cc1)C2=COc3cc(O)cc(O)c3C2=O

> <Molecular_Weight>
270.2369

> <Frequency>
1

$$$$

  SciTegic          2D

 37 37  0  0  0  0            999 V2000
    1.2990   -0.7500    0.0000 C   0  0
    1.2990    0.7500    0.0000 C   0  0
    0.0000    1.5000    0.0000 C   0  0
   -1.2990    0.7500    0.0000 C   0  0
   -1.2990   -0.7500    0.0000 C   0  0
    0.0000   -1.5000    0.0000 C   0  0
   -2.5988    1.5004    0.0000 C   0  0
   -2.5998    3.0012    0.0000 C   0  0
   -3.8995    3.7516    0.0000 C   0  0
   -3.9005    5.2525    0.0000 C   0  0
   -5.2002    6.0029    0.0000 C   0  0
   -5.2012    7.5037    0.0000 C   0  0
   -6.5009    8.2541    0.0000 C   0  0
   -6.5019    9.7549    0.0000 C   0  0
    2.5973   -1.5031    0.0000 O   0  0
    2.1651    1.2500    0.0000 H   0  0
    0.0000    2.5000    0.0000 H   0  0
   -2.1651   -1.2500    0.0000 H   0  0
    0.0000   -2.5000    0.0000 H   0  0
   -3.4647    1.0001    0.0000 H   0  0
   -2.5986    0.5004    0.0000 H   0  0
   -1.7339    3.5015    0.0000 H   0  0
   -1.7335    2.5016    0.0000 H   0  0
   -4.7654    3.2514    0.0000 H   0  0
   -3.8993    2.7516    0.0000 H   0  0
   -3.0346    5.7527    0.0000 H   0  0
   -3.0342    4.7529    0.0000 H   0  0
   -6.0661    5.5026    0.0000 H   0  0
   -5.2001    5.0029    0.0000 H   0  0
   -4.3353    8.0040    0.0000 H   0  0
   -4.3349    7.0041    0.0000 H   0  0
   -7.3668    7.7538    0.0000 H   0  0
   -6.5008    7.2541    0.0000 H   0  0
   -7.3679   10.2549    0.0000 H   0  0
   -5.6360   10.2552    0.0000 H   0  0
   -6.5021   10.7549    0.0000 H   0  0
    2.5958   -2.5031    0.0000 H   0  0
  1  2  2  0
  1  6  1  0
  1 15  1  0
  2  3  1  0
  3  4  2  0
  4  5  1  0
  4  7  1  0
  5  6  2  0
  7  8  1  0
  8  9  1  0
  9 10  1  0
 10 11  1  0
 11 12  1  0
 12 13  1  0
 13 14  1  0
  2 16  1  0
  3 17  1  0
  5 18  1  0
  6 19  1  0
  7 20  1  0
  7 21  1  0
  8 22  1  0
  8 23  1  0
  9 24  1  0
  9 25  1  0
 10 26  1  0
 10 27  1  0
 11 28  1  0
 11 29  1  0
 12 30  1  0
 12 31  1  0
 13 32  1  0
 13 33  1  0
 14 34  1  0
 14 35  1  0
 14 36  1  0
 15 37  1  0
V    1 0
V    2 1
V    3 2
V    4 3
V    5 4
V    6 5
V    7 6
V    8 7
V    9 8
V   10 9
V   11 10
V   12 11
V   13 12
V   14 13
V   15 14
M  END
> <DSSTox_RID>
62417

> <DSSTox_CID>
2312

> <DSSTox_CID_Parent>
2312

> <DSSTox_Generic_SID>
22312

> <DSSTox_FileID>
307_TXCST2_v1a

> <STRUCTURE_Formula>
C14H22O

> <STRUCTURE_MolecularWeight>
206.3239

> <STRUCTURE_ChemicalType>
defined organic

> <STRUCTURE_TestedForm_DefinedOrganic>
parent

> <STRUCTURE_Shown>
tested chemical

> <TestSubstance_ChemicalName>
4-Octylphenol

> <TestSubstance_CASRN>
1806-26-4

> <TestSubstance_Description>
single chemical compound

> <STRUCTURE_ChemicalName_IUPAC>
4-octylphenol

> <STRUCTURE_SMILES>
OC1=CC=C(CCCCCCCC)C=C1

> <STRUCTURE_Parent_SMILES>
OC1=CC=C(CCCCCCCC)C=C1

> <STRUCTURE_InChIS>
InChI=1S/C14H22O/c1-2-3-4-5-6-7-8-13-9-11-14(15)12-10-13/h9-12,15H,2-8H2,1H3

> <STRUCTURE_InChIKey>
NTDQQZYCCIDJRK-UHFFFAOYSA-N

> <Substance_modify_yyyymmdd>
20080429

> <Coord_Metals>
0

> <Index>
307

> <Canonical_Smiles>
CCCCCCCCc1ccc(O)cc1

> <Molecular_Weight>
206.32387

> <Frequency>
1

$$$$

  SciTegic          2D

 30 31  0  0  0  0            999 V2000
    2.5983   -3.0012    0.0000 C   0  0
    2.5988   -1.5004    0.0000 C   0  0
    1.2990   -0.7500    0.0000 C   0  0
    1.2990    0.7500    0.0000 C   0  0
    0.0000    1.5000    0.0000 C   0  0
   -1.2990    0.7500    0.0000 C   0  0
   -1.2990   -0.7500    0.0000 C   0  0
    0.0000   -1.5000    0.0000 C   0  0
   -2.6003    1.4977    0.0000 O   0  0
    3.8990   -0.7508    0.0000 C   0  0
    5.1976   -1.5016    0.0000 C   0  0
    6.4971   -0.7525    0.0000 C   0  0
    6.4980    0.7475    0.0000 C   0  0
    5.1995    1.4984    0.0000 C   0  0
    3.9000    0.7492    0.0000 C   0  0
    7.7967    1.4998    0.0000 O   0  0
    3.6370   -3.6021    0.0000 Cl  0  0
    2.5974   -4.2012    0.0000 Cl  0  0
    1.5587   -3.6005    0.0000 Cl  0  0
    2.5991   -0.5004    0.0000 H   0  0
    2.1651    1.2500    0.0000 H   0  0
    0.0000    2.5000    0.0000 H   0  0
   -2.1651   -1.2500    0.0000 H   0  0
    0.0000   -2.5000    0.0000 H   0  0
   -3.4657    0.9965    0.0000 H   0  0
    5.1970   -2.5016    0.0000 H   0  0
    7.3628   -1.2530    0.0000 H   0  0
    5.2001    2.4984    0.0000 H   0  0
    3.0343    1.2497    0.0000 H   0  0
    7.7959    2.4998    0.0000 H   0  0
  1  2  1  0
  1 17  1  0
  1 18  1  0
  1 19  1  0
  2  3  1  0
  2 10  1  0
  3  4  1  0
  3  8  2  0
  4  5  2  0
  5  6  1  0
  6  7  2  0
  6  9  1  0
  7  8  1  0
 10 11  1  0
 10 15  2  0
 11 12  2  0
 12 13  1  0
 13 14  2  0
 13 16  1  0
 14 15  1  0
  2 20  1  0
  4 21  1  0
  5 22  1  0
  7 23  1  0
  8 24  1  0
  9 25  1  0
 11 26  1  0
 12 27  1  0
 14 28  1  0
 15 29  1  0
 16 30  1  0
V    1 0
V    2 1
V    3 2
V    4 3
V    5 4
V    6 5
V    7 6
V    8 7
V    9 8
V   10 9
V   11 10
V   12 11
V   13 12
V   14 13
V   15 14
V   16 15
V   17 16
V   18 17
V   19 18
M  END
> <DSSTox_RID>
60172

> <DSSTox_CID>
2325

> <DSSTox_CID_Parent>
2325

> <DSSTox_Generic_SID>
22325

> <DSSTox_FileID>
308_TXCST2_v1a

> <STRUCTURE_Formula>
C14H11Cl3O2

> <STRUCTURE_MolecularWeight>
317.5949

> <STRUCTURE_ChemicalType>
defined organic

> <STRUCTURE_TestedForm_DefinedOrganic>
parent

> <STRUCTURE_Shown>
tested chemical

> <TestSubstance_ChemicalName>
2,2-Bis(4-hydroxyphenyl)-1,1,1-trichloroethane

> <TestSubstance_CASRN>
2971-36-0

> <TestSubstance_Description>
single chemical compound

> <STRUCTURE_ChemicalName_IUPAC>
4,4'-(2,2,2-trichloroethane-1,1-diyl)diphenol

> <STRUCTURE_SMILES>
C(C(C1C=CC(=CC=1)O)C2C=CC(=CC=2)O)(Cl)(Cl)Cl

> <STRUCTURE_Parent_SMILES>
C(C(C1C=CC(=CC=1)O)C2C=CC(=CC=2)O)(Cl)(Cl)Cl

> <STRUCTURE_InChIS>
InChI=1S/C14H11Cl3O2/c15-14(16,17)13(9-1-5-11(18)6-2-9)10-3-7-12(19)8-4-10/h1-8,13,18-19H

> <STRUCTURE_InChIKey>
IUGDILGOLSSKNE-UHFFFAOYSA-N

> <Substance_modify_yyyymmdd>
20080429

> <Coord_Metals>
0

> <Index>
308

> <Canonical_Smiles>
Oc1ccc(cc1)C(c2ccc(O)cc2)C(Cl)(Cl)Cl

> <Molecular_Weight>
317.59494

> <Frequency>
1

$$$$

  SciTegic          2D

 25 25  0  0  0  0            999 V2000
    1.2990   -0.7500    0.0000 C   0  0
    1.2990    0.7500    0.0000 C   0  0
    2.5988   -1.5004    0.0000 C   0  0
    2.5972    1.5031    0.0000 O   0  0
    0.0000   -1.5000    0.0000 C   0  0
    0.0000    1.5000    0.0000 C   0  0
    3.8990   -0.7508    0.0000 C   0  0
    2.5983   -3.0012    0.0000 C   0  0
    5.1988   -1.5012    0.0000 C   0  0
   -1.2990   -0.7500    0.0000 C   0  0
   -1.2990    0.7500    0.0000 C   0  0
    2.5991   -0.5004    0.0000 H   0  0
    2.5958    2.5031    0.0000 H   0  0
    0.0000   -2.5000    0.0000 H   0  0
    0.0000    2.5000    0.0000 H   0  0
    3.8993    0.2492    0.0000 H   0  0
    3.0332   -0.2504    0.0000 H   0  0
    3.4639   -3.5020    0.0000 H   0  0
    1.7320   -3.5006    0.0000 H   0  0
    2.5975   -4.0012    0.0000 H   0  0
    6.0651   -1.0018    0.0000 H   0  0
    5.1985   -2.5012    0.0000 H   0  0
    6.0646   -2.0016    0.0000 H   0  0
   -2.1651   -1.2500    0.0000 H   0  0
   -2.1651    1.2500    0.0000 H   0  0
  1  2  2  0
  1  3  1  0
  1  5  1  0
  2  4  1  0
  2  6  1  0
  3  7  1  0
  3  8  1  0
  5 10  2  0
  6 11  2  0
  7  9  1  0
 10 11  1  0
  3 12  1  0
  4 13  1  0
  5 14  1  0
  6 15  1  0
  7 16  1  0
  7 17  1  0
  8 18  1  0
  8 19  1  0
  8 20  1  0
  9 21  1  0
  9 22  1  0
  9 23  1  0
 10 24  1  0
 11 25  1  0
V    1 0
V    2 1
V    3 2
V    4 3
V    5 4
V    6 5
V    7 6
V    8 7
V    9 8
V   10 9
V   11 10
M  END
> <DSSTox_RID>
59692

> <DSSTox_CID>
2331

> <DSSTox_CID_Parent>
2331

> <DSSTox_Generic_SID>
22331

> <DSSTox_FileID>
309_TXCST2_v1a

> <STRUCTURE_Formula>
C10H14O

> <STRUCTURE_MolecularWeight>
150.2176

> <STRUCTURE_ChemicalType>
defined organic

> <STRUCTURE_TestedForm_DefinedOrganic>
parent

> <STRUCTURE_Shown>
tested chemical

> <TestSubstance_ChemicalName>
2-(Butan-2-yl)phenol

> <TestSubstance_CASRN>
89-72-5

> <TestSubstance_Description>
single chemical compound

> <STRUCTURE_ChemicalName_IUPAC>
2-sec-butylphenol

> <STRUCTURE_SMILES>
C1(=C(O)C=CC=C1)C(CC)C

> <STRUCTURE_Parent_SMILES>
C1(=C(O)C=CC=C1)C(CC)C

> <STRUCTURE_InChIS>
InChI=1S/C10H14O/c1-3-8(2)9-6-4-5-7-10(9)11/h4-8,11H,3H2,1-2H3

> <STRUCTURE_InChIKey>
NGFPWHGISWUQOI-UHFFFAOYSA-N

> <Substance_modify_yyyymmdd>
20080429

> <Coord_Metals>
0

> <Index>
309

> <Canonical_Smiles>
CCC(C)c1ccccc1O

> <Molecular_Weight>
150.21755

> <Frequency>
1

$$$$

  SciTegic          2D

 25 25  0  0  0  0            999 V2000
    1.2990   -0.7500    0.0000 C   0  0
    1.2990    0.7500    0.0000 C   0  0
    0.0000   -1.5000    0.0000 C   0  0
   -1.2990    0.7500    0.0000 C   0  0
    2.5988   -1.5004    0.0000 C   0  0
    0.0000    1.5000    0.0000 C   0  0
   -1.2990   -0.7500    0.0000 C   0  0
   -2.5973    1.5031    0.0000 O   0  0
    3.8990   -0.7508    0.0000 C   0  0
    2.5983   -3.0012    0.0000 C   0  0
    5.1988   -1.5012    0.0000 C   0  0
    2.1651    1.2500    0.0000 H   0  0
    0.0000   -2.5000    0.0000 H   0  0
    2.5991   -0.5004    0.0000 H   0  0
    0.0000    2.5000    0.0000 H   0  0
   -2.1651   -1.2500    0.0000 H   0  0
   -2.5958    2.5031    0.0000 H   0  0
    3.8993    0.2492    0.0000 H   0  0
    3.0332   -0.2504    0.0000 H   0  0
    3.4639   -3.5020    0.0000 H   0  0
    1.7320   -3.5006    0.0000 H   0  0
    2.5975   -4.0012    0.0000 H   0  0
    6.0651   -1.0018    0.0000 H   0  0
    5.1985   -2.5012    0.0000 H   0  0
    6.0646   -2.0016    0.0000 H   0  0
  1  2  2  0
  1  3  1  0
  1  5  1  0
  2  6  1  0
  3  7  2  0
  4  7  1  0
  4  8  1  0
  4  6  2  0
  5  9  1  0
  5 10  1  0
  9 11  1  0
  2 12  1  0
  3 13  1  0
  5 14  1  0
  6 15  1  0
  7 16  1  0
  8 17  1  0
  9 18  1  0
  9 19  1  0
 10 20  1  0
 10 21  1  0
 10 22  1  0
 11 23  1  0
 11 24  1  0
 11 25  1  0
V    1 0
V    2 1
V    3 2
V    4 3
V    5 4
V    6 5
V    7 6
V    8 7
V    9 8
V   10 9
V   11 10
M  END
> <DSSTox_RID>
62332

> <DSSTox_CID>
2332

> <DSSTox_CID_Parent>
2332

> <DSSTox_Generic_SID>
22332

> <DSSTox_FileID>
310_TXCST2_v1a

> <STRUCTURE_Formula>
C10H14O

> <STRUCTURE_MolecularWeight>
150.2176

> <STRUCTURE_ChemicalType>
defined organic

> <STRUCTURE_TestedForm_DefinedOrganic>
parent

> <STRUCTURE_Shown>
tested chemical

> <TestSubstance_ChemicalName>
4-(Butan-2-yl)phenol

> <TestSubstance_CASRN>
99-71-8

> <TestSubstance_Description>
single chemical compound

> <STRUCTURE_ChemicalName_IUPAC>
4-sec-butylphenol

> <STRUCTURE_SMILES>
C1(=CC=C(C=C1)O)C(CC)C

> <STRUCTURE_Parent_SMILES>
C1(=CC=C(C=C1)O)C(CC)C

> <STRUCTURE_InChIS>
InChI=1S/C10H14O/c1-3-8(2)9-4-6-10(11)7-5-9/h4-8,11H,3H2,1-2H3

> <STRUCTURE_InChIKey>
ZUTYZAFDFLLILI-UHFFFAOYSA-N

> <Substance_modify_yyyymmdd>
20080429

> <Coord_Metals>
0

> <Index>
310

> <Canonical_Smiles>
CCC(C)c1ccc(O)cc1

> <Molecular_Weight>
150.21755

> <Frequency>
1

$$$$

  SciTegic          2D

 35 35  0  0  0  0            999 V2000
    1.2990   -0.7500    0.0000 C   0  0
    1.2990    0.7500    0.0000 N   0  0
    0.0000    1.5000    0.0000 C   0  0
   -0.0031    3.0008    0.0000 N   0  0
   -1.3039    3.7494    0.0000 C   0  0
   -1.3070    5.2502    0.0000 C   0  0
   -2.6023    2.9967    0.0000 C   0  0
   -1.2990    0.7500    0.0000 N   0  0
   -1.2990   -0.7500    0.0000 C   0  0
    0.0000   -1.5000    0.0000 N   0  0
   -2.5972   -1.5031    0.0000 O   0  0
   -2.5951   -3.0039    0.0000 C   0  0
    2.5973   -1.5031    0.0000 N   0  0
    2.5951   -3.0039    0.0000 C   0  0
    3.8933   -3.7570    0.0000 C   0  0
    1.2941   -3.7520    0.0000 C   0  0
    0.8620    3.5023    0.0000 H   0  0
   -0.4388    4.2509    0.0000 H   0  0
   -2.1738    5.7490    0.0000 H   0  0
   -1.3086    6.2502    0.0000 H   0  0
   -0.4419    5.7517    0.0000 H   0  0
   -2.6012    1.9967    0.0000 H   0  0
   -3.4677    2.4956    0.0000 H   0  0
   -3.4690    3.4955    0.0000 H   0  0
   -3.4601   -3.5057    0.0000 H   0  0
   -1.7282   -3.5024    0.0000 H   0  0
   -2.5932   -4.0039    0.0000 H   0  0
    3.4642   -1.0046    0.0000 H   0  0
    3.4620   -2.5054    0.0000 H   0  0
    3.8919   -4.7570    0.0000 H   0  0
    4.7586   -4.2584    0.0000 H   0  0
    4.7602   -3.2585    0.0000 H   0  0
    0.4287   -3.2511    0.0000 H   0  0
    0.4275   -4.2509    0.0000 H   0  0
    1.2927   -4.7520    0.0000 H   0  0
  1  2  2  0
  1 10  1  0
  1 13  1  0
  2  3  1  0
  3  4  1  0
  3  8  2  0
  4  5  1  0
  5  6  1  0
  5  7  1  0
  8  9  1  0
  9 10  2  0
  9 11  1  0
 11 12  1  0
 13 14  1  0
 14 15  1  0
 14 16  1  0
  4 17  1  0
  5 18  1  0
  6 19  1  0
  6 20  1  0
  6 21  1  0
  7 22  1  0
  7 23  1  0
  7 24  1  0
 12 25  1  0
 12 26  1  0
 12 27  1  0
 13 28  1  0
 14 29  1  0
 15 30  1  0
 15 31  1  0
 15 32  1  0
 16 33  1  0
 16 34  1  0
 16 35  1  0
V    1 0
V    2 1
V    3 2
V    4 3
V    5 4
V    6 5
V    7 6
V    8 7
V    9 8
V   10 9
V   11 10
V   12 11
V   13 12
V   14 13
V   15 14
V   16 15
M  END
> <DSSTox_RID>
67019

> <DSSTox_CID>
2341

> <DSSTox_CID_Parent>
2341

> <DSSTox_Generic_SID>
22341

> <DSSTox_FileID>
311_TXCST2_v1a

> <STRUCTURE_Formula>
C10H19N5O

> <STRUCTURE_MolecularWeight>
225.2908

> <STRUCTURE_ChemicalType>
defined organic

> <STRUCTURE_TestedForm_DefinedOrganic>
parent

> <STRUCTURE_Shown>
tested chemical

> <TestSubstance_ChemicalName>
Prometon

> <TestSubstance_CASRN>
1610-18-0

> <TestSubstance_Description>
single chemical compound

> <STRUCTURE_ChemicalName_IUPAC>
N,N'-diisopropyl-6-methoxy-1,3,5-triazine-2,4-diamine

> <STRUCTURE_SMILES>
C1(N=C(NC(C)C)N=C(N=1)OC)NC(C)C

> <STRUCTURE_Parent_SMILES>
C1(N=C(NC(C)C)N=C(N=1)OC)NC(C)C

> <STRUCTURE_InChIS>
InChI=1S/C10H19N5O/c1-6(2)11-8-13-9(12-7(3)4)15-10(14-8)16-5/h6-7H,1-5H3,(H2,11,12,13,14,15)

> <STRUCTURE_InChIKey>
ISEUFVQQFVOBCY-UHFFFAOYSA-N

> <Substance_modify_yyyymmdd>
20080429

> <Coord_Metals>
0

> <Index>
311

> <Canonical_Smiles>
COc1nc(NC(C)C)nc(NC(C)C)n1

> <Molecular_Weight>
225.29075

> <Frequency>
1

$$$$

  SciTegic          2D

 28 29  0  0  0  0            999 V2000
    1.2990   -0.7500    0.0000 C   0  0
    1.2990    0.7500    0.0000 C   0  0
    0.0000    1.5000    0.0000 C   0  0
   -1.2990    0.7500    0.0000 C   0  0
   -1.2990   -0.7500    0.0000 C   0  0
    0.0000   -1.5000    0.0000 C   0  0
    0.0000   -3.0008    0.0000 C   0  0
   -1.2999   -3.7508    0.0000 C   0  0
   -1.3011   -4.9508    0.0000 Cl  0  0
   -2.3396   -4.3500    0.0000 Cl  0  0
   -2.3388   -3.1501    0.0000 Cl  0  0
    1.2993   -3.7521    0.0000 C   0  0
    1.2983   -5.2521    0.0000 C   0  0
    2.5969   -6.0029    0.0000 C   0  0
    3.8964   -5.2537    0.0000 C   0  0
    3.8974   -3.7537    0.0000 C   0  0
    2.5988   -3.0029    0.0000 C   0  0
    4.9353   -5.8544    0.0000 Cl  0  0
   -2.3383   -1.3500    0.0000 Cl  0  0
    2.1651   -1.2500    0.0000 H   0  0
    2.1651    1.2500    0.0000 H   0  0
    0.0000    2.5000    0.0000 H   0  0
   -2.1651    1.2500    0.0000 H   0  0
    0.8662   -2.5011    0.0000 H   0  0
    0.4320   -5.7515    0.0000 H   0  0
    2.5963   -7.0029    0.0000 H   0  0
    4.7637   -3.2542    0.0000 H   0  0
    2.5994   -2.0029    0.0000 H   0  0
  1  2  1  0
  1  6  2  0
  2  3  2  0
  3  4  1  0
  4  5  2  0
  5  6  1  0
  5 19  1  0
  6  7  1  0
  7  8  1  0
  7 12  1  0
  8  9  1  0
  8 10  1  0
  8 11  1  0
 12 13  2  0
 12 17  1  0
 13 14  1  0
 14 15  2  0
 15 16  1  0
 15 18  1  0
 16 17  2  0
  1 20  1  0
  2 21  1  0
  3 22  1  0
  4 23  1  0
  7 24  1  0
 13 25  1  0
 14 26  1  0
 16 27  1  0
 17 28  1  0
V    1 0
V    2 1
V    3 2
V    4 3
V    5 4
V    6 5
V    7 6
V    8 7
V    9 8
V   10 9
V   11 10
V   12 11
V   13 12
V   14 13
V   15 14
V   16 15
V   17 16
V   18 17
V   19 18
M  END
> <DSSTox_RID>
60179

> <DSSTox_CID>
2345

> <DSSTox_CID_Parent>
2345

> <DSSTox_Generic_SID>
22345

> <DSSTox_FileID>
312_TXCST2_v1a

> <STRUCTURE_Formula>
C14H9Cl5

> <STRUCTURE_MolecularWeight>
354.4863

> <STRUCTURE_ChemicalType>
defined organic

> <STRUCTURE_TestedForm_DefinedOrganic>
parent

> <STRUCTURE_Shown>
tested chemical

> <TestSubstance_ChemicalName>
o,p'-DDT

> <TestSubstance_CASRN>
789-02-6

> <TestSubstance_Description>
single chemical compound

> <STRUCTURE_ChemicalName_IUPAC>
1-chloro-2-[2,2,2-trichloro-1-(4-chlorophenyl)ethyl]benzene

> <STRUCTURE_SMILES>
C1C=CC=C(C=1C(C(Cl)(Cl)Cl)C2=CC=C(C=C2)Cl)Cl

> <STRUCTURE_Parent_SMILES>
C1C=CC=C(C=1C(C(Cl)(Cl)Cl)C2=CC=C(C=C2)Cl)Cl

> <STRUCTURE_InChIS>
InChI=1S/C14H9Cl5/c15-10-7-5-9(6-8-10)13(14(17,18)19)11-3-1-2-4-12(11)16/h1-8,13H

> <STRUCTURE_InChIKey>
CVUGPAFCQJIYDT-UHFFFAOYSA-N

> <Substance_modify_yyyymmdd>
20080429

> <Coord_Metals>
0

> <Index>
312

> <Canonical_Smiles>
Clc1ccc(cc1)C(c2ccccc2Cl)C(Cl)(Cl)Cl

> <Molecular_Weight>
354.48626

> <Frequency>
1

$$$$

  SciTegic          2D

 37 37  0  0  0  0            999 V2000
    2.2638   -1.8997    0.0000 C   0  0
    1.2990   -0.7500    0.0000 C   0  0
    1.2990    0.7500    0.0000 C   0  0
    0.0000    1.5000    0.0000 C   0  0
   -1.2990    0.7500    0.0000 C   0  0
   -1.2990   -0.7500    0.0000 C   0  0
    0.0000   -1.5000    0.0000 C   0  0
   -2.6003    1.4977    0.0000 O   0  0
    3.7419   -1.6400    0.0000 C   0  0
    4.7067   -2.7897    0.0000 C   0  0
    6.1848   -2.5300    0.0000 C   0  0
    4.1929   -4.1998    0.0000 C   0  0
    5.2331   -1.3532    0.0000 C   0  0
    1.7500   -3.3098    0.0000 C   0  0
    2.7848   -0.4612    0.0000 C   0  0
    2.1651    1.2500    0.0000 H   0  0
    0.0000    2.5000    0.0000 H   0  0
   -2.1651   -1.2500    0.0000 H   0  0
    0.0000   -2.5000    0.0000 H   0  0
   -3.4657    0.9965    0.0000 H   0  0
    4.0843   -0.7004    0.0000 H   0  0
    3.0995   -0.8737    0.0000 H   0  0
    6.8276   -3.2961    0.0000 H   0  0
    6.5272   -1.5904    0.0000 H   0  0
    7.1697   -2.3565    0.0000 H   0  0
    4.8350   -4.9664    0.0000 H   0  0
    3.2080   -4.3728    0.0000 H   0  0
    3.8502   -5.1392    0.0000 H   0  0
    6.2181   -1.1811    0.0000 H   0  0
    4.5917   -0.5859    0.0000 H   0  0
    5.5767   -0.4141    0.0000 H   0  0
    2.3921   -4.0764    0.0000 H   0  0
    0.7651   -3.4828    0.0000 H   0  0
    1.4073   -4.2492    0.0000 H   0  0
    2.1413    0.3042    0.0000 H   0  0
    3.1258    0.4789    0.0000 H   0  0
    3.7694   -0.2863    0.0000 H   0  0
  1  2  1  0
  1  9  1  0
  1 14  1  0
  1 15  1  0
  2  3  2  0
  2  7  1  0
  3  4  1  0
  4  5  2  0
  5  6  1  0
  5  8  1  0
  6  7  2  0
  9 10  1  0
 10 11  1  0
 10 12  1  0
 10 13  1  0
  3 16  1  0
  4 17  1  0
  6 18  1  0
  7 19  1  0
  8 20  1  0
  9 21  1  0
  9 22  1  0
 11 23  1  0
 11 24  1  0
 11 25  1  0
 12 26  1  0
 12 27  1  0
 12 28  1  0
 13 29  1  0
 13 30  1  0
 13 31  1  0
 14 32  1  0
 14 33  1  0
 14 34  1  0
 15 35  1  0
 15 36  1  0
 15 37  1  0
V    1 0
V    2 1
V    3 2
V    4 3
V    5 4
V    6 5
V    7 6
V    8 7
V    9 8
V   10 9
V   11 10
V   12 11
V   13 12
V   14 13
V   15 14
M  END
> <DSSTox_RID>
62357

> <DSSTox_CID>
2360

> <DSSTox_CID_Parent>
2360

> <DSSTox_Generic_SID>
22360

> <DSSTox_FileID>
313_TXCST2_v1a

> <STRUCTURE_Formula>
C14H22O

> <STRUCTURE_MolecularWeight>
206.3239

> <STRUCTURE_ChemicalType>
defined organic

> <STRUCTURE_TestedForm_DefinedOrganic>
parent

> <STRUCTURE_Shown>
tested chemical

> <TestSubstance_ChemicalName>
4-(1,1,3,3-Tetramethylbutyl)phenol

> <TestSubstance_CASRN>
140-66-9

> <TestSubstance_Description>
single chemical compound

> <STRUCTURE_ChemicalName_IUPAC>
4-(1,1,3,3-tetramethylbutyl)phenol

> <STRUCTURE_SMILES>
C(C1=CC=C(C=C1)O)(CC(C)(C)C)(C)C

> <STRUCTURE_Parent_SMILES>
C(C1=CC=C(C=C1)O)(CC(C)(C)C)(C)C

> <STRUCTURE_InChIS>
InChI=1S/C14H22O/c1-13(2,3)10-14(4,5)11-6-8-12(15)9-7-11/h6-9,15H,10H2,1-5H3

> <STRUCTURE_InChIKey>
ISAVYTVYFVQUDY-UHFFFAOYSA-N

> <Substance_modify_yyyymmdd>
20080429

> <Coord_Metals>
0

> <Index>
313

> <Canonical_Smiles>
CC(C)(C)CC(C)(C)c1ccc(O)cc1

> <Molecular_Weight>
206.32387

> <Frequency>
1

$$$$

  SciTegic          2D

 27 28  0  0  0  0            999 V2000
    2.5987   -1.5004    0.0000 N   0  0
    3.9511   -0.8815    0.0000 C   0  0
    4.9531   -1.9978    0.0000 O   0  0
    4.2010   -3.2956    0.0000 C   0  0
    2.7343   -2.9815    0.0000 C   0  0
    1.8365   -3.7777    0.0000 O   0  0
    3.3056   -4.4835    0.0000 C   0  0
    3.8691   -5.8745    0.0000 C   0  0
    5.6828   -3.4300    0.0000 C   0  0
    4.1955    0.2934    0.0000 O   0  0
    1.2990   -0.7500    0.0000 C   0  0
    1.2990    0.7500    0.0000 C   0  0
    0.0000    1.5000    0.0000 C   0  0
    0.0000    2.7000    0.0000 Cl  0  0
   -1.2990    0.7500    0.0000 C   0  0
   -1.2990   -0.7500    0.0000 C   0  0
    0.0000   -1.5000    0.0000 C   0  0
   -2.3383   -1.3500    0.0000 Cl  0  0
    2.3152   -4.3455    0.0000 H   0  0
    3.2547   -6.6635    0.0000 H   0  0
    4.8596   -6.0125    0.0000 H   0  0
    6.0887   -4.3439    0.0000 H   0  0
    6.6772   -3.5356    0.0000 H   0  0
    6.2715   -2.6217    0.0000 H   0  0
    2.1651    1.2500    0.0000 H   0  0
   -2.1651    1.2500    0.0000 H   0  0
    0.0000   -2.5000    0.0000 H   0  0
  1  2  1  0
  1  5  1  0
  1 11  1  0
  2  3  1  0
  2 10  2  0
  3  4  1  0
  4  5  1  0
  4  7  1  0
  4  9  1  0
  5  6  2  0
  7  8  2  0
 11 12  2  0
 11 17  1  0
 12 13  1  0
 13 14  1  0
 13 15  2  0
 15 16  1  0
 16 17  2  0
 16 18  1  0
  7 19  1  0
  8 20  1  0
  8 21  1  0
  9 22  1  0
  9 23  1  0
  9 24  1  0
 12 25  1  0
 15 26  1  0
 17 27  1  0
V    1 0
V    2 1
V    3 2
V    4 3
V    5 4
V    6 5
V    7 6
V    8 7
V    9 8
V   10 9
V   11 10
V   12 11
V   13 12
V   14 13
V   15 14
V   16 15
V   17 16
V   18 17
M  END
> <DSSTox_RID>
65844

> <DSSTox_CID>
2361

> <DSSTox_CID_Parent>
2361

> <DSSTox_Generic_SID>
22361

> <DSSTox_FileID>
314_TXCST2_v1a

> <STRUCTURE_Formula>
C12H9Cl2NO3

> <STRUCTURE_MolecularWeight>
286.1108

> <STRUCTURE_ChemicalType>
defined organic

> <STRUCTURE_TestedForm_DefinedOrganic>
parent

> <STRUCTURE_Shown>
tested chemical

> <TestSubstance_ChemicalName>
Vinclozolin

> <TestSubstance_CASRN>
50471-44-8

> <TestSubstance_Description>
single chemical compound

> <ChemicalNote>
mixture of (R,S) isomers; structure shown without stereochem

> <STRUCTURE_ChemicalName_IUPAC>
3-(3,5-dichlorophenyl)-5-methyl-5-vinyl-1,3-oxazolidine-2,4-dione

> <STRUCTURE_SMILES>
N1(C(OC(C1=O)(C=C)C)=O)C2=CC(Cl)=CC(=C2)Cl

> <STRUCTURE_Parent_SMILES>
N1(C(OC(C1=O)(C=C)C)=O)C2=CC(Cl)=CC(=C2)Cl

> <STRUCTURE_InChIS>
InChI=1S/C12H9Cl2NO3/c1-3-12(2)10(16)15(11(17)18-12)9-5-7(13)4-8(14)6-9/h3-6H,1H2,2H3

> <STRUCTURE_InChIKey>
FSCWZHGZWWDELK-UHFFFAOYSA-N

> <Substance_modify_yyyymmdd>
20080429

> <Coord_Metals>
0

> <Index>
314

> <Canonical_Smiles>
CC1(OC(=O)N(C1=O)c2cc(Cl)cc(Cl)c2)C=C

> <Molecular_Weight>
286.11076

> <Frequency>
1

$$$$

  SciTegic          2D

 53 56  0  0  0  0            999 V2000
    2.0440    1.7885    0.0000 C   0  0
    2.0440    0.3467    0.0000 C   0  0
    0.8030   -0.3650    0.0000 C   0  0
    0.8212   -1.8067    0.0000 C   0  0
   -0.4197   -2.5550    0.0000 C   0  0
   -1.6790   -1.8250    0.0000 C   0  0
   -1.6790   -0.3832    0.0000 C   0  0
   -0.4380    0.3285    0.0000 C   0  0
   -0.4562    1.7885    0.0000 C   0  0
    0.8030    2.5185    0.0000 C   0  0
   -2.9565    0.3102    0.0000 C   0  0
   -4.1792   -0.4015    0.0000 C   0  0
   -4.1792   -1.8432    0.0000 C   0  0
   -5.2209   -2.4390    0.0000 O   0  0
   -2.9382   -2.5732    0.0000 C   0  0
    4.5625    0.3285    0.0000 C   0  0
    4.5625    1.8067    0.0000 C   0  0
    3.3032    2.5367    0.0000 C   0  0
    4.2761    3.6533    0.0000 C   0  0
    2.0418    3.2897    0.0000 C   0  0
   -2.9731   -1.1442    0.0000 C   0  0
    3.8595    4.7786    0.0000 O   0  0
    5.7556    3.4012    0.0000 C   0  0
    2.2979   -0.6205    0.0000 H   0  0
    1.6715   -0.8608    0.0000 H   0  0
   -0.0639   -1.3415    0.0000 H   0  0
    0.8133   -2.8067    0.0000 H   0  0
    0.4615   -3.0276    0.0000 H   0  0
   -1.2927   -3.0428    0.0000 H   0  0
   -1.3064    0.8243    0.0000 H   0  0
    0.4245    1.3149    0.0000 H   0  0
   -0.4404    2.7884    0.0000 H   0  0
    1.6819    2.9955    0.0000 H   0  0
   -0.0728    3.0011    0.0000 H   0  0
   -2.0857    0.8018    0.0000 H   0  0
   -3.8415    0.7758    0.0000 H   0  0
   -4.1573    0.5983    0.0000 H   0  0
   -5.0323   -0.9233    0.0000 H   0  0
   -2.9360   -3.5732    0.0000 H   0  0
    4.2971   -0.6356    0.0000 H   0  0
    5.5286    0.5867    0.0000 H   0  0
    4.5397    2.8065    0.0000 H   0  0
    5.4160    1.2857    0.0000 H   0  0
    3.3325    1.5372    0.0000 H   0  0
    2.9068    3.7916    0.0000 H   0  0
    1.1749    3.7880    0.0000 H   0  0
    2.0398    4.2897    0.0000 H   0  0
   -2.9659   -2.1442    0.0000 H   0  0
   -3.8429   -0.6508    0.0000 H   0  0
   -3.8354   -1.6507    0.0000 H   0  0
    6.3944    4.1706    0.0000 H   0  0
    6.1028    2.4634    0.0000 H   0  0
    6.7413    3.2329    0.0000 H   0  0
  1  2  1  0
  1 10  1  0
  1 18  1  0
  1 20  1  0
  2  3  1  0
  2 16  1  0
  3  4  1  0
  3  8  1  0
  4  5  1  0
  5  6  1  0
  6  7  1  0
  6 15  2  0
  7  8  1  0
  7 11  1  0
  7 21  1  0
  8  9  1  0
  9 10  1  0
 11 12  1  0
 12 13  1  0
 13 14  2  0
 13 15  1  0
 16 17  1  0
 17 18  1  0
 18 19  1  0
 19 22  2  0
 19 23  1  0
  2 24  1  0
  3 25  1  0
  4 26  1  0
  4 27  1  0
  5 28  1  0
  5 29  1  0
  8 30  1  0
  9 31  1  0
  9 32  1  0
 10 33  1  0
 10 34  1  0
 11 35  1  0
 11 36  1  0
 12 37  1  0
 12 38  1  0
 15 39  1  0
 16 40  1  0
 16 41  1  0
 17 42  1  0
 17 43  1  0
 18 44  1  0
 20 45  1  0
 20 46  1  0
 20 47  1  0
 21 48  1  0
 21 49  1  0
 21 50  1  0
 23 51  1  0
 23 52  1  0
 23 53  1  0
V    1 0
V    2 1
V    3 2
V    4 3
V    5 4
V    6 5
V    7 6
V    8 7
V    9 8
V   10 9
V   11 10
V   12 11
V   13 12
V   14 13
V   15 14
V   16 15
V   17 16
V   18 17
V   19 18
V   20 19
V   21 23
V   22 24
V   23 25
M  END
> <DSSTox_RID>
65985

> <DSSTox_CID>
2370

> <DSSTox_CID_Parent>
2370

> <DSSTox_Generic_SID>
22370

> <DSSTox_FileID>
315_TXCST2_v1a

> <STRUCTURE_Formula>
C21H30O2

> <STRUCTURE_MolecularWeight>
314.4617

> <STRUCTURE_ChemicalType>
defined organic

> <STRUCTURE_TestedForm_DefinedOrganic>
parent

> <STRUCTURE_Shown>
tested chemical

> <TestSubstance_ChemicalName>
Progesterone

> <TestSubstance_CASRN>
57-83-0

> <TestSubstance_Description>
single chemical compound

> <ChemicalNote>
stereochem

> <STRUCTURE_ChemicalName_IUPAC>
pregn-4-ene-3,20-dione

> <STRUCTURE_SMILES>
[C@]12([C@]([C@@]3(CCC4[C@@]([C@@](CC1)3[H])(CCC(=O)C=4)C)[H])(CC[C@H]2C(=O)C)[H])C

> <STRUCTURE_Parent_SMILES>
[C@]12([C@]([C@@]3(CCC4[C@@]([C@@](CC1)3[H])(CCC(=O)C=4)C)[H])(CC[C@H]2C(=O)C)[H])C

> <STRUCTURE_InChIS>
InChI=1S/C21H30O2/c1-13(22)17-6-7-18-16-5-4-14-12-15(23)8-10-20(14,2)19(16)9-11-21(17,18)3/h12,16-19H,4-11H2,1-3H3/t16-,17+,18-,19-,20-,21+/m0/s1

> <STRUCTURE_InChIKey>
RJKFOVLPORLFTN-LEKSSAKUSA-N

> <Substance_modify_yyyymmdd>
20080429

> <Coord_Metals>
0

> <Index>
315

> <Canonical_Smiles>
CC(=O)C1CCC2C3CCC4=CC(=O)CCC4(C)C3CCC12C

> <Molecular_Weight>
314.4617

> <Frequency>
1

$$$$

  SciTegic          2D

 24 24  0  0  0  0            999 V2000
    1.2990   -0.7500    0.0000 C   0  0
    1.2990    0.7500    0.0000 C   0  0
    0.0000   -1.5000    0.0000 C   0  0
   -2.6003   -1.4978    0.0000 C   0  0
    0.0000    1.5000    0.0000 C   0  0
   -3.8990   -0.7455    0.0000 C   0  0
   -1.2990   -0.7500    0.0000 C   0  0
   -1.2990    0.7500    0.0000 C   0  0
    2.5973   -1.5031    0.0000 O   0  0
    2.5972    1.5031    0.0000 O   0  0
   -5.2003   -1.4932    0.0000 C   0  0
    2.5951   -3.0039    0.0000 C   0  0
    0.0000   -2.5000    0.0000 H   0  0
   -2.6021   -2.4978    0.0000 H   0  0
    0.0000    2.5000    0.0000 H   0  0
   -3.8973    0.2545    0.0000 H   0  0
   -2.1651    1.2500    0.0000 H   0  0
    2.5958    2.5031    0.0000 H   0  0
   -6.0656   -0.9920    0.0000 H   0  0
   -5.2020   -2.4932    0.0000 H   0  0
   -6.0671   -1.9919    0.0000 H   0  0
    3.4601   -3.5057    0.0000 H   0  0
    1.7282   -3.5024    0.0000 H   0  0
    2.5932   -4.0039    0.0000 H   0  0
  1  2  1  0
  1  3  2  0
  1  9  1  0
  2  5  2  0
  2 10  1  0
  3  7  1  0
  4  7  1  0
  4  6  2  0
  5  8  1  0
  6 11  1  0
  7  8  2  0
  9 12  1  0
  3 13  1  0
  4 14  1  0
  5 15  1  0
  6 16  1  0
  8 17  1  0
 10 18  1  0
 11 19  1  0
 11 20  1  0
 11 21  1  0
 12 22  1  0
 12 23  1  0
 12 24  1  0
V    1 0
V    2 1
V    3 2
V    4 3
V    5 4
V    6 5
V    7 6
V    8 7
V    9 8
V   10 9
V   11 10
V   12 11
M  END
> <DSSTox_RID>
59663

> <DSSTox_CID>
2413

> <DSSTox_CID_Parent>
2413

> <DSSTox_Generic_SID>
22413

> <DSSTox_FileID>
316_TXCST2_v1a

> <STRUCTURE_Formula>
C10H12O2

> <STRUCTURE_MolecularWeight>
164.2011

> <STRUCTURE_ChemicalType>
defined organic

> <STRUCTURE_TestedForm_DefinedOrganic>
parent

> <STRUCTURE_Shown>
representative isomer in mixture

> <TestSubstance_ChemicalName>
Isoeugenol

> <TestSubstance_CASRN>
97-54-1

> <TestSubstance_Description>
mixture or formulation

> <ChemicalNote>
mixture of Z,E isomers structure shown E; stereochem

> <Source_ChemicalNote>
tested chemical was a mixture of isomers

> <STRUCTURE_ChemicalName_IUPAC>
2-methoxy-4-[(1E)-prop-1-en-1-yl]phenol

> <STRUCTURE_SMILES>
OC1=CC=C(/C=C/C)C=C1OC

> <STRUCTURE_Parent_SMILES>
OC1=CC=C(/C=C/C)C=C1OC

> <STRUCTURE_InChIS>
InChI=1S/C10H12O2/c1-3-4-8-5-6-9(11)10(7-8)12-2/h3-7,11H,1-2H3/b4-3+

> <STRUCTURE_InChIKey>
BJIOGJUNALELMI-ONEGZZNKSA-N

> <Substance_modify_yyyymmdd>
20080429

> <Coord_Metals>
0

> <Index>
316

> <Canonical_Smiles>
COc1cc(C=CC)ccc1O

> <Molecular_Weight>
164.20107

> <Frequency>
1

$$$$

  SciTegic          2D

 29 30  0  0  0  0            999 V2000
    1.2990   -0.7500    0.0000 C   0  0
    2.5973   -1.5031    0.0000 N   0  0
    1.2990    0.7500    0.0000 C   0  0
    0.0000    1.5000    0.0000 C   0  0
   -1.2990    0.7500    0.0000 C   0  0
   -1.2990   -0.7500    0.0000 C   0  0
    0.0000   -1.5000    0.0000 C   0  0
   -2.5988    1.5004    0.0000 C   0  0
   -2.5998    3.0012    0.0000 C   0  0
   -3.8993    3.7504    0.0000 C   0  0
   -3.9002    5.2504    0.0000 C   0  0
   -2.6017    6.0012    0.0000 C   0  0
   -1.3022    5.2521    0.0000 C   0  0
   -1.3012    3.7521    0.0000 C   0  0
   -2.5995    7.5021    0.0000 N   0  0
    2.5958   -2.5031    0.0000 H   0  0
    3.4642   -1.0046    0.0000 H   0  0
    2.1651    1.2500    0.0000 H   0  0
    0.0000    2.5000    0.0000 H   0  0
   -2.1651   -1.2500    0.0000 H   0  0
    0.0000   -2.5000    0.0000 H   0  0
   -3.4647    1.0001    0.0000 H   0  0
   -2.5986    0.5004    0.0000 H   0  0
   -4.7650    3.2499    0.0000 H   0  0
   -4.7666    5.7498    0.0000 H   0  0
   -0.4364    5.7526    0.0000 H   0  0
   -0.4349    3.2526    0.0000 H   0  0
   -1.7331    8.0014    0.0000 H   0  0
   -3.4650    8.0030    0.0000 H   0  0
  1  2  1  0
  1  3  1  0
  1  7  2  0
  3  4  2  0
  4  5  1  0
  5  6  2  0
  5  8  1  0
  6  7  1  0
  8  9  1  0
  9 10  2  0
  9 14  1  0
 10 11  1  0
 11 12  2  0
 12 13  1  0
 12 15  1  0
 13 14  2  0
  2 16  1  0
  2 17  1  0
  3 18  1  0
  4 19  1  0
  6 20  1  0
  7 21  1  0
  8 22  1  0
  8 23  1  0
 10 24  1  0
 11 25  1  0
 13 26  1  0
 14 27  1  0
 15 28  1  0
 15 29  1  0
V    1 0
V    2 1
V    3 2
V    4 3
V    5 4
V    6 5
V    7 6
V    8 7
V    9 8
V   10 9
V   11 10
V   12 11
V   13 12
V   14 13
V   15 14
M  END
> <DSSTox_RID>
60971

> <DSSTox_CID>
2422

> <DSSTox_CID_Parent>
2422

> <DSSTox_Generic_SID>
22422

> <DSSTox_FileID>
317_TXCST2_v1a

> <STRUCTURE_Formula>
C13H14N2

> <STRUCTURE_MolecularWeight>
198.2637

> <STRUCTURE_ChemicalType>
defined organic

> <STRUCTURE_TestedForm_DefinedOrganic>
parent

> <STRUCTURE_Shown>
tested chemical

> <TestSubstance_ChemicalName>
4,4'-Methylenedianiline

> <TestSubstance_CASRN>
101-77-9

> <TestSubstance_Description>
single chemical compound

> <STRUCTURE_ChemicalName_IUPAC>
4,4'-methylenedianiline

> <STRUCTURE_SMILES>
C1(N)C=CC(=CC=1)CC2=CC=C(C=C2)N

> <STRUCTURE_Parent_SMILES>
C1(N)C=CC(=CC=1)CC2=CC=C(C=C2)N

> <STRUCTURE_InChIS>
InChI=1S/C13H14N2/c14-12-5-1-10(2-6-12)9-11-3-7-13(15)8-4-11/h1-8H,9,14-15H2

> <STRUCTURE_InChIKey>
YBRVSVVVWCFQMG-UHFFFAOYSA-N

> <Substance_modify_yyyymmdd>
20080429

> <Coord_Metals>
0

> <Index>
317

> <Canonical_Smiles>
Nc1ccc(Cc2ccc(N)cc2)cc1

> <Molecular_Weight>
198.26365

> <Frequency>
1

$$$$

  SciTegic          2D

 36 37  0  0  0  0            999 V2000
    2.2848   -3.2788    0.0000 C   0  0
    0.9850   -2.5284    0.0000 C   0  0
    0.0208   -1.3793    0.0000 C   0  0
   -1.4564   -1.6398    0.0000 C   0  0
   -1.9694   -3.0494    0.0000 C   0  0
   -1.0052   -4.1984    0.0000 C   0  0
    0.4720   -3.9380    0.0000 C   0  0
   -3.4469   -3.3130    0.0000 O   0  0
    3.5850   -2.5291    0.0000 C   0  0
    4.0973   -3.9389    0.0000 C   0  0
    5.5743   -4.2001    0.0000 C   0  0
    6.5391   -3.0516    0.0000 C   0  0
    6.0268   -1.6418    0.0000 C   0  0
    4.5498   -1.3805    0.0000 C   0  0
    8.0176   -3.3099    0.0000 O   0  0
    2.2874   -4.7797    0.0000 C   0  0
    3.5880   -5.5286    0.0000 C   0  0
    2.2836   -1.7489    0.0000 C   0  0
    0.3628   -0.4396    0.0000 H   0  0
   -2.0992   -0.8738    0.0000 H   0  0
   -1.3473   -5.1381    0.0000 H   0  0
    1.1148   -4.7040    0.0000 H   0  0
   -3.7876   -4.2532    0.0000 H   0  0
    3.4541   -4.7046    0.0000 H   0  0
    5.9159   -5.1400    0.0000 H   0  0
    6.6700   -0.8761    0.0000 H   0  0
    4.2082   -0.4406    0.0000 H   0  0
    8.6597   -2.5433    0.0000 H   0  0
    1.4221   -5.2809    0.0000 H   0  0
    1.4206   -4.2811    0.0000 H   0  0
    3.5898   -6.5286    0.0000 H   0  0
    4.4533   -5.0273    0.0000 H   0  0
    4.4549   -6.0272    0.0000 H   0  0
    3.1489   -1.2477    0.0000 H   0  0
    2.2823   -0.7489    0.0000 H   0  0
    1.4170   -1.2498    0.0000 H   0  0
  1  2  1  0
  1  9  1  0
  1 16  1  0
  1 18  1  0
  2  3  1  0
  2  7  2  0
  3  4  2  0
  4  5  1  0
  5  6  2  0
  5  8  1  0
  6  7  1  0
  9 10  2  0
  9 14  1  0
 10 11  1  0
 11 12  2  0
 12 13  1  0
 12 15  1  0
 13 14  2  0
 16 17  1  0
  3 19  1  0
  4 20  1  0
  6 21  1  0
  7 22  1  0
  8 23  1  0
 10 24  1  0
 11 25  1  0
 13 26  1  0
 14 27  1  0
 15 28  1  0
 16 29  1  0
 16 30  1  0
 17 31  1  0
 17 32  1  0
 17 33  1  0
 18 34  1  0
 18 35  1  0
 18 36  1  0
V    1 0
V    2 1
V    3 2
V    4 3
V    5 4
V    6 5
V    7 6
V    8 7
V    9 8
V   10 9
V   11 10
V   12 11
V   13 12
V   14 13
V   15 14
V   16 15
V   17 16
V   18 17
M  END
> <DSSTox_RID>
62377

> <DSSTox_CID>
2442

> <DSSTox_CID_Parent>
2442

> <DSSTox_Generic_SID>
22442

> <DSSTox_FileID>
318_TXCST2_v1a

> <STRUCTURE_Formula>
C16H18O2

> <STRUCTURE_MolecularWeight>
242.3129

> <STRUCTURE_ChemicalType>
defined organic

> <STRUCTURE_TestedForm_DefinedOrganic>
parent

> <STRUCTURE_Shown>
tested chemical

> <TestSubstance_ChemicalName>
Bisphenol B

> <TestSubstance_CASRN>
77-40-7

> <TestSubstance_Description>
single chemical compound

> <STRUCTURE_ChemicalName_IUPAC>
4,4'-butane-2,2-diyldiphenol

> <STRUCTURE_SMILES>
C(C1C=CC(=CC=1)O)(C2=CC=C(C=C2)O)(CC)C

> <STRUCTURE_Parent_SMILES>
C(C1C=CC(=CC=1)O)(C2=CC=C(C=C2)O)(CC)C

> <STRUCTURE_InChIS>
InChI=1S/C16H18O2/c1-3-16(2,12-4-8-14(17)9-5-12)13-6-10-15(18)11-7-13/h4-11,17-18H,3H2,1-2H3

> <STRUCTURE_InChIKey>
HTVITOHKHWFJKO-UHFFFAOYSA-N

> <Substance_modify_yyyymmdd>
20080429

> <Coord_Metals>
0

> <Index>
318

> <Canonical_Smiles>
CCC(C)(c1ccc(O)cc1)c2ccc(O)cc2

> <Molecular_Weight>
242.31291

> <Frequency>
1

$$$$

  SciTegic          2D

 41 41  0  0  0  0            999 V2000
    2.2614   -1.9017    0.0000 N   0  0
    1.2990   -0.7500    0.0000 C   0  0
    1.2990    0.7500    0.0000 C   0  0
    0.0000    1.5000    0.0000 C   0  0
   -1.2990    0.7500    0.0000 C   0  0
   -1.2990   -0.7500    0.0000 C   0  0
    0.0000   -1.5000    0.0000 C   0  0
   -0.5133   -2.9103    0.0000 C   0  0
   -1.9912   -3.1719    0.0000 C   0  0
    2.5988    1.5004    0.0000 C   0  0
    2.2547   -3.4025    0.0000 C   0  0
    1.2127   -3.9976    0.0000 O   0  0
    2.7609   -4.8154    0.0000 C   0  0
    1.9855   -5.7312    0.0000 Cl  0  0
    3.7387   -2.1663    0.0000 C   0  0
    4.2491   -3.5776    0.0000 C   0  0
    5.7264   -3.8422    0.0000 O   0  0
    6.2369   -5.2536    0.0000 C   0  0
    4.7061   -1.0189    0.0000 C   0  0
    0.0000    2.5000    0.0000 H   0  0
   -2.1651    1.2500    0.0000 H   0  0
   -2.1651   -1.2500    0.0000 H   0  0
    0.1297   -3.6762    0.0000 H   0  0
    0.4715   -2.7365    0.0000 H   0  0
   -2.3332   -4.1116    0.0000 H   0  0
   -2.6342   -2.4060    0.0000 H   0  0
   -2.9759   -3.3457    0.0000 H   0  0
    3.4651    1.0010    0.0000 H   0  0
    2.5985    2.5004    0.0000 H   0  0
    3.4646    2.0008    0.0000 H   0  0
    3.0986   -5.7566    0.0000 H   0  0
    3.7449   -4.9937    0.0000 H   0  0
    3.0941   -2.9308    0.0000 H   0  0
    3.6045   -4.3422    0.0000 H   0  0
    4.5888   -4.5182    0.0000 H   0  0
    7.2212   -5.4299    0.0000 H   0  0
    5.5923   -6.0181    0.0000 H   0  0
    6.5765   -6.1941    0.0000 H   0  0
    4.3669   -0.0782    0.0000 H   0  0
    5.6904   -1.1952    0.0000 H   0  0
    5.3511   -0.2547    0.0000 H   0  0
  1  2  1  0
  1 11  1  0
  1 15  1  0
  2  3  1  0
  2  7  2  0
  3  4  2  0
  3 10  1  0
  4  5  1  0
  5  6  2  0
  6  7  1  0
  7  8  1  0
  8  9  1  0
 11 12  2  0
 11 13  1  0
 13 14  1  0
 15 16  1  0
 15 19  1  0
 16 17  1  0
 17 18  1  0
  4 20  1  0
  5 21  1  0
  6 22  1  0
  8 23  1  0
  8 24  1  0
  9 25  1  0
  9 26  1  0
  9 27  1  0
 10 28  1  0
 10 29  1  0
 10 30  1  0
 13 31  1  0
 13 32  1  0
 15 33  1  0
 16 34  1  0
 16 35  1  0
 18 36  1  0
 18 37  1  0
 18 38  1  0
 19 39  1  0
 19 40  1  0
 19 41  1  0
V    1 0
V    2 1
V    3 2
V    4 3
V    5 4
V    6 5
V    7 6
V    8 7
V    9 8
V   10 9
V   11 10
V   12 11
V   13 12
V   14 13
V   15 14
V   16 15
V   17 16
V   18 17
V   19 18
M  END
> <DSSTox_RID>
65332

> <DSSTox_CID>
2448

> <DSSTox_CID_Parent>
2448

> <DSSTox_Generic_SID>
22448

> <DSSTox_FileID>
319_TXCST2_v1a

> <STRUCTURE_Formula>
C15H22ClNO2

> <STRUCTURE_MolecularWeight>
283.7937

> <STRUCTURE_ChemicalType>
defined organic

> <STRUCTURE_TestedForm_DefinedOrganic>
parent

> <STRUCTURE_Shown>
tested chemical

> <TestSubstance_ChemicalName>
Metolachlor

> <TestSubstance_CASRN>
51218-45-2

> <TestSubstance_Description>
single chemical compound

> <STRUCTURE_ChemicalName_IUPAC>
2-chloro-N-(2-ethyl-6-methylphenyl)-N-(2-methoxy-1-methylethyl)acetamide

> <STRUCTURE_SMILES>
N(C1C(=CC=CC=1CC)C)(C(=O)CCl)C(COC)C

> <STRUCTURE_Parent_SMILES>
N(C1C(=CC=CC=1CC)C)(C(=O)CCl)C(COC)C

> <STRUCTURE_InChIS>
InChI=1S/C15H22ClNO2/c1-5-13-8-6-7-11(2)15(13)17(14(18)9-16)12(3)10-19-4/h6-8,12H,5,9-10H2,1-4H3

> <STRUCTURE_InChIKey>
WVQBLGZPHOPPFO-UHFFFAOYSA-N

> <Substance_modify_yyyymmdd>
20080429

> <Coord_Metals>
0

> <Index>
319

> <Canonical_Smiles>
CCc1cccc(C)c1N(C(C)COC)C(=O)CCl

> <Molecular_Weight>
283.79368

> <Frequency>
1

$$$$

  SciTegic          2D

 24 24  0  0  0  0            999 V2000
    1.2990   -0.7500    0.0000 C   0  0
    1.2990    0.7500    0.0000 C   0  0
    2.5972    1.5031    0.0000 C   0  0
    3.6375    0.9049    0.0000 O   0  0
    2.5951    3.0039    0.0000 O   0  0
    3.8933    3.7570    0.0000 C   0  0
    0.0000    1.5000    0.0000 C   0  0
   -1.2990    0.7500    0.0000 C   0  0
   -1.2990   -0.7500    0.0000 C   0  0
    0.0000   -1.5000    0.0000 C   0  0
    2.5973   -1.5031    0.0000 C   0  0
    3.6375   -0.9049    0.0000 O   0  0
    2.5951   -3.0039    0.0000 O   0  0
    3.8933   -3.7570    0.0000 C   0  0
    3.8919    4.7570    0.0000 H   0  0
    4.7585    4.2584    0.0000 H   0  0
    4.7602    3.2585    0.0000 H   0  0
    0.0000    2.5000    0.0000 H   0  0
   -2.1651    1.2500    0.0000 H   0  0
   -2.1651   -1.2500    0.0000 H   0  0
    0.0000   -2.5000    0.0000 H   0  0
    3.8919   -4.7570    0.0000 H   0  0
    4.7586   -4.2584    0.0000 H   0  0
    4.7602   -3.2585    0.0000 H   0  0
  1  2  2  0
  1 10  1  0
  1 11  1  0
  2  3  1  0
  2  7  1  0
  3  4  2  0
  3  5  1  0
  5  6  1  0
  7  8  2  0
  8  9  1  0
  9 10  2  0
 11 12  2  0
 11 13  1  0
 13 14  1  0
  6 15  1  0
  6 16  1  0
  6 17  1  0
  7 18  1  0
  8 19  1  0
  9 20  1  0
 10 21  1  0
 14 22  1  0
 14 23  1  0
 14 24  1  0
V    1 0
V    2 1
V    3 2
V    4 3
V    5 4
V    6 5
V    7 6
V    8 7
V    9 8
V   10 9
V   11 10
V   12 11
V   13 12
V   14 13
M  END
> <DSSTox_RID>
60567

> <DSSTox_CID>
2455

> <DSSTox_CID_Parent>
2455

> <DSSTox_Generic_SID>
22455

> <DSSTox_FileID>
320_TXCST2_v1a

> <STRUCTURE_Formula>
C10H10O4

> <STRUCTURE_MolecularWeight>
194.184

> <STRUCTURE_ChemicalType>
defined organic

> <STRUCTURE_TestedForm_DefinedOrganic>
parent

> <STRUCTURE_Shown>
tested chemical

> <TestSubstance_ChemicalName>
Dimethyl phthalate

> <TestSubstance_CASRN>
131-11-3

> <TestSubstance_Description>
single chemical compound

> <STRUCTURE_ChemicalName_IUPAC>
dimethyl phthalate

> <STRUCTURE_SMILES>
C1(=C(C(=O)OC)C=CC=C1)C(=O)OC

> <STRUCTURE_Parent_SMILES>
C1(=C(C(=O)OC)C=CC=C1)C(=O)OC

> <STRUCTURE_InChIS>
InChI=1S/C10H10O4/c1-13-9(11)7-5-3-4-6-8(7)10(12)14-2/h3-6H,1-2H3

> <STRUCTURE_InChIKey>
NIQCNGHVCWTJSM-UHFFFAOYSA-N

> <Substance_modify_yyyymmdd>
20080429

> <Coord_Metals>
0

> <Index>
320

> <Canonical_Smiles>
COC(=O)c1ccccc1C(=O)OC

> <Molecular_Weight>
194.18399

> <Frequency>
1

$$$$

  SciTegic          2D

 24 24  0  0  0  0            999 V2000
    1.2990   -0.7500    0.0000 C   0  0
    2.5988   -1.5004    0.0000 C   0  0
    3.8990   -0.7508    0.0000 C   0  0
    5.1988   -1.5012    0.0000 C   0  0
    6.4990   -0.7516    0.0000 C   0  0
    1.2990    0.7500    0.0000 C   0  0
    0.0000    1.5000    0.0000 C   0  0
   -1.2990    0.7500    0.0000 C   0  0
   -1.2990   -0.7500    0.0000 C   0  0
    0.0000   -1.5000    0.0000 C   0  0
    2.5985   -2.5004    0.0000 H   0  0
    1.7327   -2.0003    0.0000 H   0  0
    3.8993    0.2492    0.0000 H   0  0
    3.0332   -0.2504    0.0000 H   0  0
    5.1985   -2.5012    0.0000 H   0  0
    4.3327   -2.0011    0.0000 H   0  0
    7.3650   -1.2516    0.0000 H   0  0
    6.4993    0.2484    0.0000 H   0  0
    7.3651   -0.2518    0.0000 H   0  0
    2.1651    1.2500    0.0000 H   0  0
    0.0000    2.5000    0.0000 H   0  0
   -2.1651    1.2500    0.0000 H   0  0
   -2.1651   -1.2500    0.0000 H   0  0
    0.0000   -2.5000    0.0000 H   0  0
  1  2  1  0
  1  6  1  0
  1 10  2  0
  2  3  1  0
  3  4  1  0
  4  5  1  0
  6  7  2  0
  7  8  1  0
  8  9  2  0
  9 10  1  0
  2 11  1  0
  2 12  1  0
  3 13  1  0
  3 14  1  0
  4 15  1  0
  4 16  1  0
  5 17  1  0
  5 18  1  0
  5 19  1  0
  6 20  1  0
  7 21  1  0
  8 22  1  0
  9 23  1  0
 10 24  1  0
V    1 0
V    2 1
V    3 2
V    4 3
V    5 4
V    6 5
V    7 6
V    8 7
V    9 8
V   10 9
M  END
> <DSSTox_RID>
60046

> <DSSTox_CID>
2472

> <DSSTox_CID_Parent>
2472

> <DSSTox_Generic_SID>
22472

> <DSSTox_FileID>
321_TXCST2_v1a

> <STRUCTURE_Formula>
C10H14

> <STRUCTURE_MolecularWeight>
134.2182

> <STRUCTURE_ChemicalType>
defined organic

> <STRUCTURE_TestedForm_DefinedOrganic>
parent

> <STRUCTURE_Shown>
tested chemical

> <TestSubstance_ChemicalName>
Butylbenzene

> <TestSubstance_CASRN>
104-51-8

> <TestSubstance_Description>
single chemical compound

> <STRUCTURE_ChemicalName_IUPAC>
butylbenzene

> <STRUCTURE_SMILES>
C1(CCCC)C=CC=CC=1

> <STRUCTURE_Parent_SMILES>
C1(CCCC)C=CC=CC=1

> <STRUCTURE_InChIS>
InChI=1S/C10H14/c1-2-3-7-10-8-5-4-6-9-10/h4-6,8-9H,2-3,7H2,1H3

> <STRUCTURE_InChIKey>
OCKPCBLVNKHBMX-UHFFFAOYSA-N

> <Substance_modify_yyyymmdd>
20080429

> <Coord_Metals>
0

> <Index>
321

> <Canonical_Smiles>
CCCCc1ccccc1

> <Molecular_Weight>
134.21815

> <Frequency>
1

$$$$

  SciTegic          2D

 51 53  0  0  0  0            999 V2000
   -2.6111    0.7486    0.0000 N   0  0
    0.0000    0.7486    0.0000 C   0  0
   -1.2964   -1.4973    0.0000 N   0  0
   -1.2964    1.4973    0.0000 C   0  0
    0.0000   -0.7486    0.0000 C   0  0
   -2.6111   -0.7486    0.0000 C   0  0
    1.2964    1.4973    0.0000 N   0  0
    9.0943    5.9955    0.0000 C   0  0
    1.2964   -1.4973    0.0000 N   0  0
    9.0952    7.4963    0.0000 N   0  0
    9.0688    9.0097    0.0000 C   0  0
   10.3949    8.2468    0.0000 C   0  0
    7.7946    5.2450    0.0000 C   0  0
    2.5929    0.7486    0.0000 C   0  0
   -1.2907    2.9981    0.0000 O   0  0
   11.6965   11.9989    0.0000 C   0  0
   10.1334    5.3952    0.0000 O   0  0
    9.0675   10.0097    0.0000 O   0  0
   -3.9091   -1.5019    0.0000 N   0  0
    3.8936    2.9999    0.0000 N   0  0
   10.6574   12.5992    0.0000 O   0  0
    2.5929   -0.7486    0.0000 C   0  0
   10.3959    9.7476    0.0000 C   0  0
    7.7915    3.7450    0.0000 C   0  0
    6.4970    5.9977    0.0000 C   0  0
    3.8926    1.4991    0.0000 C   0  0
    5.1933    3.7503    0.0000 C   0  0
   11.6956   10.4980    0.0000 C   0  0
    7.7697    8.2580    0.0000 O   0  0
   12.9962   12.7493    0.0000 O   0  0
    5.1965    5.2503    0.0000 C   0  0
    6.4909    2.9977    0.0000 C   0  0
    8.2293    7.9966    0.0000 H   0  0
   11.2608    7.7465    0.0000 H   0  0
   -2.1544    3.5020    0.0000 H   0  0
   -3.9075   -2.5019    0.0000 H   0  0
   -4.7760   -1.0035    0.0000 H   0  0
    3.0277    3.5002    0.0000 H   0  0
    3.4589   -1.2486    0.0000 H   0  0
    9.5296    9.2480    0.0000 H   0  0
    9.5300   10.2478    0.0000 H   0  0
    8.6565    3.2433    0.0000 H   0  0
    6.4991    6.9977    0.0000 H   0  0
    4.7589    1.9987    0.0000 H   0  0
    4.7585    0.9988    0.0000 H   0  0
   12.5618   10.9976    0.0000 H   0  0
   12.5615    9.9978    0.0000 H   0  0
    6.9029    8.7566    0.0000 H   0  0
   12.9968   13.7493    0.0000 H   0  0
    4.3315    5.7521    0.0000 H   0  0
    6.4889    1.9977    0.0000 H   0  0
  1  4  2  0
  1  6  1  0
  2  4  1  0
  2  7  2  0
  2  5  1  0
  3  6  2  0
  3  5  1  0
  4 15  1  0
  5  9  2  0
  6 19  1  0
  7 14  1  0
  8 13  1  0
  8 10  1  0
  8 17  2  0
  9 22  1  0
 12 10  1  0
 11 12  1  0
 11 18  2  0
 11 29  1  0
 12 23  1  0
 13 24  2  0
 13 25  1  0
 14 26  1  0
 14 22  2  0
 16 28  1  0
 16 21  2  0
 16 30  1  0
 20 26  1  0
 20 27  1  0
 23 28  1  0
 24 32  1  0
 25 31  2  0
 27 31  1  0
 27 32  2  0
 10 33  1  0
 12 34  1  0
 15 35  1  0
 19 36  1  0
 19 37  1  0
 20 38  1  0
 22 39  1  0
 23 40  1  0
 23 41  1  0
 24 42  1  0
 25 43  1  0
 26 44  1  0
 26 45  1  0
 28 46  1  0
 28 47  1  0
 29 48  1  0
 30 49  1  0
 31 50  1  0
 32 51  1  0
V    1 0
V    2 1
V    3 2
V    4 3
V    5 4
V    6 5
V    7 6
V    8 7
V    9 8
V   10 9
V   11 10
V   12 11
V   13 12
V   14 13
V   15 14
V   16 15
V   17 16
V   18 17
V   19 18
V   20 19
V   21 20
V   22 21
V   23 22
V   24 23
V   25 24
V   26 25
V   27 26
V   28 27
V   29 28
V   30 29
V   31 30
V   32 31
M  END
> <DSSTox_RID>
67064

> <DSSTox_CID>
2519

> <DSSTox_CID_Parent>
2519

> <DSSTox_Generic_SID>
22519

> <DSSTox_FileID>
322_TXCST2_v1a

> <STRUCTURE_Formula>
C19H19N7O6

> <STRUCTURE_MolecularWeight>
441.3975

> <STRUCTURE_ChemicalType>
defined organic

> <STRUCTURE_TestedForm_DefinedOrganic>
parent

> <STRUCTURE_Shown>
tested chemical

> <TestSubstance_ChemicalName>
Folic acid

> <TestSubstance_CASRN>
59-30-3

> <TestSubstance_Description>
single chemical compound

> <ChemicalNote>
stereochem; tautomers

> <STRUCTURE_ChemicalName_IUPAC>
N-(4-{[(2-amino-4-oxo-1,4-dihydropteridin-6-yl)methyl]amino}benzoyl)-L-glutamic acid

> <STRUCTURE_SMILES>
O=C1N=C(N)NC(N=C2)=C1N=C2CNC3=CC=C(C=C3)C(N[C@@H](CCC(O)=O)C(O)=O)=O

> <STRUCTURE_Parent_SMILES>
O=C1N=C(N)NC(N=C2)=C1N=C2CNC3=CC=C(C=C3)C(N[C@@H](CCC(O)=O)C(O)=O)=O

> <STRUCTURE_InChIS>
InChI=1S/C19H19N7O6/c20-19-25-15-14(17(30)26-19)23-11(8-22-15)7-21-10-3-1-9(2-4-10)16(29)24-12(18(31)32)5-6-13(27)28/h1-4,8,12,21H,5-7H2,(H,24,29)(H,27,28)(H,31,32)(H3,20,22,25,26,30)/t12-/m0/s1

> <STRUCTURE_InChIKey>
OVBPIULPVIDEAO-LBPRGKRZSA-N

> <Substance_modify_yyyymmdd>
20080429

> <Coord_Metals>
0

> <Index>
322

> <Canonical_Smiles>
Nc1nc(O)c2nc(CNc3ccc(cc3)C(=O)NC(CCC(=O)O)C(=O)O)cnc2n1

> <Molecular_Weight>
441.39746

> <Frequency>
1

$$$$

  SciTegic          2D

 42 42  0  0  0  0            999 V2000
    1.2990   -0.7500    0.0000 C   0  0
    1.2990    0.7500    0.0000 C   0  0
    2.5972    1.5031    0.0000 C   0  0
    2.5951    3.0039    0.0000 O   0  0
    3.8933    3.7570    0.0000 C   0  0
    3.8912    5.2578    0.0000 C   0  0
    5.1894    6.0109    0.0000 C   0  0
    5.2189    4.4977    0.0000 C   0  0
    3.6375    0.9049    0.0000 O   0  0
    0.0000    1.5000    0.0000 C   0  0
   -1.2990    0.7500    0.0000 C   0  0
   -1.2990   -0.7500    0.0000 C   0  0
    0.0000   -1.5000    0.0000 C   0  0
    2.5973   -1.5031    0.0000 C   0  0
    2.5951   -3.0039    0.0000 O   0  0
    3.8933   -3.7570    0.0000 C   0  0
    3.8912   -5.2578    0.0000 C   0  0
    5.1894   -6.0109    0.0000 C   0  0
    5.2189   -4.4976    0.0000 C   0  0
    3.6375   -0.9049    0.0000 O   0  0
    4.7602    3.2585    0.0000 H   0  0
    3.8952    2.7570    0.0000 H   0  0
    3.0243    5.7563    0.0000 H   0  0
    5.1879    7.0109    0.0000 H   0  0
    6.0546    6.5123    0.0000 H   0  0
    6.0563    5.5125    0.0000 H   0  0
    6.0834    5.0003    0.0000 H   0  0
    6.0865    4.0004    0.0000 H   0  0
    5.2222    3.4977    0.0000 H   0  0
    0.0000    2.5000    0.0000 H   0  0
   -2.1651    1.2500    0.0000 H   0  0
   -2.1651   -1.2500    0.0000 H   0  0
    0.0000   -2.5000    0.0000 H   0  0
    4.7602   -3.2585    0.0000 H   0  0
    3.8952   -2.7570    0.0000 H   0  0
    3.0243   -5.7563    0.0000 H   0  0
    5.1880   -7.0109    0.0000 H   0  0
    6.0546   -6.5123    0.0000 H   0  0
    6.0563   -5.5124    0.0000 H   0  0
    6.0834   -5.0002    0.0000 H   0  0
    6.0865   -4.0004    0.0000 H   0  0
    5.2222   -3.4976    0.0000 H   0  0
  1  2  2  0
  1 13  1  0
  1 14  1  0
  2  3  1  0
  2 10  1  0
  3  4  1  0
  3  9  2  0
  4  5  1  0
  5  6  1  0
  6  7  1  0
  6  8  1  0
 10 11  2  0
 11 12  1  0
 12 13  2  0
 14 15  1  0
 14 20  2  0
 15 16  1  0
 16 17  1  0
 17 18  1  0
 17 19  1  0
  5 21  1  0
  5 22  1  0
  6 23  1  0
  7 24  1  0
  7 25  1  0
  7 26  1  0
  8 27  1  0
  8 28  1  0
  8 29  1  0
 10 30  1  0
 11 31  1  0
 12 32  1  0
 13 33  1  0
 16 34  1  0
 16 35  1  0
 17 36  1  0
 18 37  1  0
 18 38  1  0
 18 39  1  0
 19 40  1  0
 19 41  1  0
 19 42  1  0
V    1 0
V    2 1
V    3 2
V    4 3
V    5 4
V    6 5
V    7 6
V    8 7
V    9 8
V   10 9
V   11 10
V   12 11
V   13 12
V   14 13
V   15 14
V   16 15
V   17 16
V   18 17
V   19 18
V   20 19
M  END
> <DSSTox_RID>
66802

> <DSSTox_CID>
2522

> <DSSTox_CID_Parent>
2522

> <DSSTox_Generic_SID>
22522

> <DSSTox_FileID>
323_TXCST2_v1a

> <STRUCTURE_Formula>
C16H22O4

> <STRUCTURE_MolecularWeight>
278.3435

> <STRUCTURE_ChemicalType>
defined organic

> <STRUCTURE_TestedForm_DefinedOrganic>
parent

> <STRUCTURE_Shown>
tested chemical

> <TestSubstance_ChemicalName>
Diisobutyl phthalate

> <TestSubstance_CASRN>
84-69-5

> <TestSubstance_Description>
single chemical compound

> <STRUCTURE_ChemicalName_IUPAC>
diisobutyl phthalate

> <STRUCTURE_SMILES>
C1(=C(C(OCC(C)C)=O)C=CC=C1)C(OCC(C)C)=O

> <STRUCTURE_Parent_SMILES>
C1(=C(C(OCC(C)C)=O)C=CC=C1)C(OCC(C)C)=O

> <STRUCTURE_InChIS>
InChI=1S/C16H22O4/c1-11(2)9-19-15(17)13-7-5-6-8-14(13)16(18)20-10-12(3)4/h5-8,11-12H,9-10H2,1-4H3

> <STRUCTURE_InChIKey>
MGWAVDBGNNKXQV-UHFFFAOYSA-N

> <Substance_modify_yyyymmdd>
20080429

> <Coord_Metals>
0

> <Index>
323

> <Canonical_Smiles>
CC(C)COC(=O)c1ccccc1C(=O)OCC(C)C

> <Molecular_Weight>
278.34348

> <Frequency>
1

$$$$

  SciTegic          2D

 29 31  0  0  0  0            999 V2000
    2.5889    0.0182    0.0000 N   0  0
    1.7138    1.2033    0.0000 C   0  0
    0.2917    0.7475    0.0000 C   0  0
   -1.0028    1.5132    0.0000 C   0  0
   -2.3155    0.7475    0.0000 C   0  0
   -2.3155   -0.7475    0.0000 C   0  0
   -1.0028   -1.5132    0.0000 C   0  0
    0.2917   -0.7475    0.0000 C   0  0
    1.7138   -1.2033    0.0000 C   0  0
    2.0907   -2.3426    0.0000 O   0  0
    2.0825    2.3453    0.0000 O   0  0
    4.0872    0.0351    0.0000 C   0  0
    3.3035    1.2901    0.0000 C   0  0
    4.0401    2.5968    0.0000 N   0  0
    5.5400    2.6123    0.0000 C   0  0
    6.3033    1.3210    0.0000 C   0  0
    5.5668    0.0143    0.0000 C   0  0
    6.1293    3.6576    0.0000 O   0  0
    2.3037    1.2677    0.0000 O   0  0
   -0.9997    2.5132    0.0000 H   0  0
   -3.1826    1.2456    0.0000 H   0  0
   -3.1826   -1.2456    0.0000 H   0  0
   -0.9997   -2.5132    0.0000 H   0  0
    4.5953   -0.8262    0.0000 H   0  0
    3.5312    3.4577    0.0000 H   0  0
    6.7918    0.4484    0.0000 H   0  0
    6.7738    2.2034    0.0000 H   0  0
    5.0458   -0.8392    0.0000 H   0  0
    6.5665    0.0349    0.0000 H   0  0
  1  2  1  0
  1  9  1  0
  1 12  1  0
  2  3  1  0
  2 11  2  0
  3  4  2  0
  3  8  1  0
  4  5  1  0
  5  6  2  0
  6  7  1  0
  7  8  2  0
  8  9  1  0
  9 10  2  0
 12 13  1  0
 12 17  1  0
 13 14  1  0
 13 19  2  0
 14 15  1  0
 15 16  1  0
 15 18  2  0
 16 17  1  0
  4 20  1  0
  5 21  1  0
  6 22  1  0
  7 23  1  0
 12 24  1  0
 14 25  1  0
 16 26  1  0
 16 27  1  0
 17 28  1  0
 17 29  1  0
V    1 0
V    2 1
V    3 2
V    4 3
V    5 4
V    6 5
V    7 6
V    8 7
V    9 8
V   10 9
V   11 10
V   12 11
V   13 12
V   14 13
V   15 14
V   16 15
V   17 16
V   18 17
V   19 18
M  END
> <DSSTox_RID>
60269

> <DSSTox_CID>
2524

> <DSSTox_CID_Parent>
2524

> <DSSTox_Generic_SID>
22524

> <DSSTox_FileID>
324_TXCST2_v1a

> <STRUCTURE_Formula>
C13H10N2O4

> <STRUCTURE_MolecularWeight>
258.2295

> <STRUCTURE_ChemicalType>
defined organic

> <STRUCTURE_TestedForm_DefinedOrganic>
parent

> <STRUCTURE_Shown>
tested chemical

> <TestSubstance_ChemicalName>
Thalidomide

> <TestSubstance_CASRN>
50-35-1

> <TestSubstance_Description>
single chemical compound

> <STRUCTURE_ChemicalName_IUPAC>
2-(2,6-dioxopiperidin-3-yl)-1H-isoindole-1,3(2H)-dione

> <STRUCTURE_SMILES>
N1(C(C2=CC=CC=C(C1=O)2)=O)C3C(NC(CC3)=O)=O

> <STRUCTURE_Parent_SMILES>
N1(C(C2=CC=CC=C(C1=O)2)=O)C3C(NC(CC3)=O)=O

> <STRUCTURE_InChIS>
InChI=1S/C13H10N2O4/c16-10-6-5-9(11(17)14-10)15-12(18)7-3-1-2-4-8(7)13(15)19/h1-4,9H,5-6H2,(H,14,16,17)

> <STRUCTURE_InChIKey>
UEJJHQNACJXSKW-UHFFFAOYSA-N

> <Substance_modify_yyyymmdd>
20080429

> <Coord_Metals>
0

> <Index>
324

> <Canonical_Smiles>
O=C1CCC(N2C(=O)c3ccccc3C2=O)C(=O)N1

> <Molecular_Weight>
258.22949

> <Frequency>
1

$$$$

  SciTegic          2D

 25 25  0  0  0  0            999 V2000
    2.5973   -1.5031    0.0000 C   0  0
    1.2990   -0.7500    0.0000 C   0  0
    1.2990    0.7500    0.0000 C   0  0
    0.0000    1.5000    0.0000 C   0  0
   -1.2990    0.7500    0.0000 C   0  0
   -1.2990   -0.7500    0.0000 C   0  0
    0.0000   -1.5000    0.0000 C   0  0
   -2.6003    1.4977    0.0000 O   0  0
    3.6375   -0.9049    0.0000 O   0  0
    2.5951   -3.0039    0.0000 O   0  0
    3.8933   -3.7570    0.0000 C   0  0
    3.8912   -5.2578    0.0000 C   0  0
    5.1894   -6.0109    0.0000 C   0  0
    2.1651    1.2500    0.0000 H   0  0
    0.0000    2.5000    0.0000 H   0  0
   -2.1651   -1.2500    0.0000 H   0  0
    0.0000   -2.5000    0.0000 H   0  0
   -3.4657    0.9965    0.0000 H   0  0
    3.8952   -2.7570    0.0000 H   0  0
    4.7602   -3.2585    0.0000 H   0  0
    3.0260   -4.7564    0.0000 H   0  0
    3.0243   -5.7563    0.0000 H   0  0
    5.1880   -7.0109    0.0000 H   0  0
    6.0546   -6.5123    0.0000 H   0  0
    6.0563   -5.5124    0.0000 H   0  0
  1  2  1  0
  1  9  2  0
  1 10  1  0
  2  3  2  0
  2  7  1  0
  3  4  1  0
  4  5  2  0
  5  6  1  0
  5  8  1  0
  6  7  2  0
 10 11  1  0
 11 12  1  0
 12 13  1  0
  3 14  1  0
  4 15  1  0
  6 16  1  0
  7 17  1  0
  8 18  1  0
 11 19  1  0
 11 20  1  0
 12 21  1  0
 12 22  1  0
 13 23  1  0
 13 24  1  0
 13 25  1  0
V    1 0
V    2 1
V    3 2
V    4 3
V    5 4
V    6 5
V    7 6
V    8 7
V    9 8
V   10 9
V   11 10
V   12 11
V   13 12
M  END
> <DSSTox_RID>
59961

> <DSSTox_CID>
2527

> <DSSTox_CID_Parent>
2527

> <DSSTox_Generic_SID>
22527

> <DSSTox_FileID>
325_TXCST2_v1a

> <STRUCTURE_Formula>
C10H12O3

> <STRUCTURE_MolecularWeight>
180.2005

> <STRUCTURE_ChemicalType>
defined organic

> <STRUCTURE_TestedForm_DefinedOrganic>
parent

> <STRUCTURE_Shown>
tested chemical

> <TestSubstance_ChemicalName>
Propyl paraben

> <TestSubstance_CASRN>
94-13-3

> <TestSubstance_Description>
single chemical compound

> <STRUCTURE_ChemicalName_IUPAC>
propyl 4-hydroxybenzoate

> <STRUCTURE_SMILES>
C(C1=CC=C(C=C1)O)(=O)OCCC

> <STRUCTURE_Parent_SMILES>
C(C1=CC=C(C=C1)O)(=O)OCCC

> <STRUCTURE_InChIS>
InChI=1S/C10H12O3/c1-2-7-13-10(12)8-3-5-9(11)6-4-8/h3-6,11H,2,7H2,1H3

> <STRUCTURE_InChIKey>
QELSKZZBTMNZEB-UHFFFAOYSA-N

> <Substance_modify_yyyymmdd>
20080429

> <Coord_Metals>
0

> <Index>
325

> <Canonical_Smiles>
CCCOC(=O)c1ccc(O)cc1

> <Molecular_Weight>
180.20047

> <Frequency>
1

$$$$

  SciTegic          2D

 22 22  0  0  0  0            999 V2000
    2.5973   -1.5031    0.0000 C   0  0
    1.2990   -0.7500    0.0000 C   0  0
    1.2990    0.7500    0.0000 C   0  0
    0.0000    1.5000    0.0000 C   0  0
   -1.2990    0.7500    0.0000 C   0  0
   -1.2990   -0.7500    0.0000 C   0  0
    0.0000   -1.5000    0.0000 C   0  0
   -2.6003    1.4977    0.0000 O   0  0
    3.6375   -0.9049    0.0000 O   0  0
    2.5951   -3.0039    0.0000 O   0  0
    3.8933   -3.7570    0.0000 C   0  0
    3.8912   -5.2578    0.0000 C   0  0
    2.1651    1.2500    0.0000 H   0  0
    0.0000    2.5000    0.0000 H   0  0
   -2.1651   -1.2500    0.0000 H   0  0
    0.0000   -2.5000    0.0000 H   0  0
   -3.4657    0.9965    0.0000 H   0  0
    3.8952   -2.7570    0.0000 H   0  0
    4.7602   -3.2585    0.0000 H   0  0
    4.7562   -5.7596    0.0000 H   0  0
    3.8893   -6.2578    0.0000 H   0  0
    3.0243   -5.7563    0.0000 H   0  0
  1  2  1  0
  1  9  2  0
  1 10  1  0
  2  3  2  0
  2  7  1  0
  3  4  1  0
  4  5  2  0
  5  6  1  0
  5  8  1  0
  6  7  2  0
 10 11  1  0
 11 12  1  0
  3 13  1  0
  4 14  1  0
  6 15  1  0
  7 16  1  0
  8 17  1  0
 11 18  1  0
 11 19  1  0
 12 20  1  0
 12 21  1  0
 12 22  1  0
V    1 0
V    2 1
V    3 2
V    4 3
V    5 4
V    6 5
V    7 6
V    8 7
V    9 8
V   10 9
V   11 10
V   12 11
M  END
> <DSSTox_RID>
60094

> <DSSTox_CID>
2528

> <DSSTox_CID_Parent>
2528

> <DSSTox_Generic_SID>
22528

> <DSSTox_FileID>
326_TXCST2_v1a

> <STRUCTURE_Formula>
C9H10O3

> <STRUCTURE_MolecularWeight>
166.1739

> <STRUCTURE_ChemicalType>
defined organic

> <STRUCTURE_TestedForm_DefinedOrganic>
parent

> <STRUCTURE_Shown>
tested chemical

> <TestSubstance_ChemicalName>
Ethylparaben

> <TestSubstance_CASRN>
120-47-8

> <TestSubstance_Description>
single chemical compound

> <STRUCTURE_ChemicalName_IUPAC>
ethyl 4-hydroxybenzoate

> <STRUCTURE_SMILES>
C(C1=CC=C(C=C1)O)(=O)OCC

> <STRUCTURE_Parent_SMILES>
C(C1=CC=C(C=C1)O)(=O)OCC

> <STRUCTURE_InChIS>
InChI=1S/C9H10O3/c1-2-12-9(11)7-3-5-8(10)6-4-7/h3-6,10H,2H2,1H3

> <STRUCTURE_InChIKey>
NUVBSKCKDOMJSU-UHFFFAOYSA-N

> <Substance_modify_yyyymmdd>
20080429

> <Coord_Metals>
0

> <Index>
326

> <Canonical_Smiles>
CCOC(=O)c1ccc(O)cc1

> <Molecular_Weight>
166.17389

> <Frequency>
1

$$$$

  SciTegic          2D

 19 19  0  0  0  0            999 V2000
    2.5973   -1.5031    0.0000 C   0  0
    1.2990   -0.7500    0.0000 C   0  0
    1.2990    0.7500    0.0000 C   0  0
    0.0000    1.5000    0.0000 C   0  0
   -1.2990    0.7500    0.0000 C   0  0
   -1.2990   -0.7500    0.0000 C   0  0
    0.0000   -1.5000    0.0000 C   0  0
   -2.6003    1.4977    0.0000 O   0  0
    3.6375   -0.9049    0.0000 O   0  0
    2.5951   -3.0039    0.0000 O   0  0
    3.8933   -3.7570    0.0000 C   0  0
    2.1651    1.2500    0.0000 H   0  0
    0.0000    2.5000    0.0000 H   0  0
   -2.1651   -1.2500    0.0000 H   0  0
    0.0000   -2.5000    0.0000 H   0  0
   -3.4657    0.9965    0.0000 H   0  0
    3.8919   -4.7570    0.0000 H   0  0
    4.7586   -4.2584    0.0000 H   0  0
    4.7602   -3.2585    0.0000 H   0  0
  1  2  1  0
  1  9  2  0
  1 10  1  0
  2  3  2  0
  2  7  1  0
  3  4  1  0
  4  5  2  0
  5  6  1  0
  5  8  1  0
  6  7  2  0
 10 11  1  0
  3 12  1  0
  4 13  1  0
  6 14  1  0
  7 15  1  0
  8 16  1  0
 11 17  1  0
 11 18  1  0
 11 19  1  0
V    1 0
V    2 1
V    3 2
V    4 3
V    5 4
V    6 5
V    7 6
V    8 7
V    9 8
V   10 9
V   11 10
M  END
> <DSSTox_RID>
60201

> <DSSTox_CID>
2529

> <DSSTox_CID_Parent>
2529

> <DSSTox_Generic_SID>
22529

> <DSSTox_FileID>
327_TXCST2_v1a

> <STRUCTURE_Formula>
C8H8O3

> <STRUCTURE_MolecularWeight>
152.1473

> <STRUCTURE_ChemicalType>
defined organic

> <STRUCTURE_TestedForm_DefinedOrganic>
parent

> <STRUCTURE_Shown>
tested chemical

> <TestSubstance_ChemicalName>
Methyl paraben

> <TestSubstance_CASRN>
99-76-3

> <TestSubstance_Description>
single chemical compound

> <STRUCTURE_ChemicalName_IUPAC>
methyl 4-hydroxybenzoate

> <STRUCTURE_SMILES>
C(C1=CC=C(C=C1)O)(=O)OC

> <STRUCTURE_Parent_SMILES>
C(C1=CC=C(C=C1)O)(=O)OC

> <STRUCTURE_InChIS>
InChI=1S/C8H8O3/c1-11-8(10)6-2-4-7(9)5-3-6/h2-5,9H,1H3

> <STRUCTURE_InChIKey>
LXCFILQKKLGQFO-UHFFFAOYSA-N

> <Substance_modify_yyyymmdd>
20080429

> <Coord_Metals>
0

> <Index>
327

> <Canonical_Smiles>
COC(=O)c1ccc(O)cc1

> <Molecular_Weight>
152.14731

> <Frequency>
1

$$$$

  SciTegic          2D

 32 33  0  0  0  0            999 V2000
    2.4417   -2.3896    0.0000 C   0  0
    1.1420   -1.6392    0.0000 C   0  0
    0.6289   -0.2297    0.0000 C   0  0
   -0.8483    0.0308    0.0000 C   0  0
   -1.8125   -1.1183    0.0000 C   0  0
   -1.2994   -2.5278    0.0000 C   0  0
    0.1778   -2.7883    0.0000 C   0  0
   -3.2910   -0.8607    0.0000 O   0  0
    3.7419   -1.6400    0.0000 C   0  0
    4.7054   -2.7897    0.0000 C   0  0
    6.1828   -2.5302    0.0000 C   0  0
    6.6967   -1.1209    0.0000 C   0  0
    5.7332    0.0287    0.0000 C   0  0
    4.2559   -0.2308    0.0000 C   0  0
    2.4412   -3.8904    0.0000 C   0  0
    2.4451   -0.8596    0.0000 C   0  0
    1.2717    0.5364    0.0000 H   0  0
   -1.1903    0.9705    0.0000 H   0  0
   -1.9422   -3.2938    0.0000 H   0  0
    0.5198   -3.7280    0.0000 H   0  0
   -3.9327   -1.6277    0.0000 H   0  0
    4.3628   -3.7292    0.0000 H   0  0
    6.8251   -3.2966    0.0000 H   0  0
    7.6816   -0.9479    0.0000 H   0  0
    6.0759    0.9682    0.0000 H   0  0
    3.6136    0.5357    0.0000 H   0  0
    3.3068   -4.3912    0.0000 H   0  0
    1.5749   -4.3898    0.0000 H   0  0
    2.4405   -4.8904    0.0000 H   0  0
    3.3119   -0.3610    0.0000 H   0  0
    1.5800   -0.3580    0.0000 H   0  0
    2.4468    0.1403    0.0000 H   0  0
  1  2  1  0
  1  9  1  0
  1 15  1  0
  1 16  1  0
  2  3  2  0
  2  7  1  0
  3  4  1  0
  4  5  2  0
  5  6  1  0
  5  8  1  0
  6  7  2  0
  9 10  1  0
  9 14  2  0
 10 11  2  0
 11 12  1  0
 12 13  2  0
 13 14  1  0
  3 17  1  0
  4 18  1  0
  6 19  1  0
  7 20  1  0
  8 21  1  0
 10 22  1  0
 11 23  1  0
 12 24  1  0
 13 25  1  0
 14 26  1  0
 15 27  1  0
 15 28  1  0
 15 29  1  0
 16 30  1  0
 16 31  1  0
 16 32  1  0
V    1 0
V    2 1
V    3 2
V    4 3
V    5 4
V    6 5
V    7 6
V    8 7
V    9 8
V   10 9
V   11 10
V   12 11
V   13 12
V   14 13
V   15 14
V   16 15
M  END
> <DSSTox_RID>
67010

> <DSSTox_CID>
2536

> <DSSTox_CID_Parent>
2536

> <DSSTox_Generic_SID>
22536

> <DSSTox_FileID>
328_TXCST2_v1a

> <STRUCTURE_Formula>
C15H16O

> <STRUCTURE_MolecularWeight>
212.2869

> <STRUCTURE_ChemicalType>
defined organic

> <STRUCTURE_TestedForm_DefinedOrganic>
parent

> <STRUCTURE_Shown>
tested chemical

> <TestSubstance_ChemicalName>
4-Cumylphenol

> <TestSubstance_CASRN>
599-64-4

> <TestSubstance_Description>
single chemical compound

> <STRUCTURE_ChemicalName_IUPAC>
4-(1-methyl-1-phenylethyl)phenol

> <STRUCTURE_SMILES>
C(C1=CC=C(C=C1)O)(C2C=CC=CC=2)(C)C

> <STRUCTURE_Parent_SMILES>
C(C1=CC=C(C=C1)O)(C2C=CC=CC=2)(C)C

> <STRUCTURE_InChIS>
InChI=1S/C15H16O/c1-15(2,12-6-4-3-5-7-12)13-8-10-14(16)11-9-13/h3-11,16H,1-2H3

> <STRUCTURE_InChIKey>
QBDSZLJBMIMQRS-UHFFFAOYSA-N

> <Substance_modify_yyyymmdd>
20080429

> <Coord_Metals>
0

> <Index>
328

> <Canonical_Smiles>
CC(C)(c1ccccc1)c2ccc(O)cc2

> <Molecular_Weight>
212.28693

> <Frequency>
1

$$$$

  SciTegic          2D

 52 54  0  0  0  0            999 V2000
   -7.8048    3.7533    0.0000 C   0  0
   -9.1055    3.0061    0.0000 C   0  0
  -10.4052    3.7566    0.0000 C   0  0
  -10.4047    4.9566    0.0000 O   0  0
  -11.7055    3.0072    0.0000 N   0  0
  -13.0051    3.7577    0.0000 C   0  0
  -14.3055    3.0083    0.0000 C   0  0
  -15.6051    3.7588    0.0000 C   0  0
  -16.9054    3.0094    0.0000 C   0  0
  -18.2051    3.7599    0.0000 O   0  0
  -16.9059    1.8094    0.0000 O   0  0
  -13.0045    5.2585    0.0000 C   0  0
  -14.3035    6.0103    0.0000 O   0  0
  -11.9648    5.8577    0.0000 O   0  0
   -9.1087    1.5061    0.0000 C   0  0
   -7.8113    0.7533    0.0000 C   0  0
   -6.5106    1.5004    0.0000 C   0  0
   -5.2109    0.7498    0.0000 N   0  0
   -3.9106    1.4992    0.0000 C   0  0
   -2.6111    0.7486    0.0000 C   0  0
   -1.2964    1.4973    0.0000 N   0  0
    0.0000    0.7486    0.0000 C   0  0
    0.0000   -0.7486    0.0000 C   0  0
   -1.2964   -1.4973    0.0000 N   0  0
   -2.6111   -0.7486    0.0000 C   0  0
    1.2964   -1.4973    0.0000 N   0  0
    2.5929   -0.7486    0.0000 C   0  0
    3.8942   -1.4964    0.0000 N   0  0
    2.5929    0.7486    0.0000 N   0  0
    1.2964    1.4973    0.0000 C   0  0
    1.2995    2.9981    0.0000 N   0  0
   -6.5074    3.0005    0.0000 C   0  0
   -7.8027    4.7533    0.0000 H   0  0
  -11.7059    2.0072    0.0000 H   0  0
  -12.1390    4.2575    0.0000 H   0  0
  -14.3059    2.0083    0.0000 H   0  0
  -13.4397    2.5078    0.0000 H   0  0
  -15.6047    4.7588    0.0000 H   0  0
  -16.4709    4.2593    0.0000 H   0  0
  -19.0715    3.2606    0.0000 H   0  0
  -14.3031    7.0103    0.0000 H   0  0
   -9.9758    1.0080    0.0000 H   0  0
   -7.8135   -0.2467    0.0000 H   0  0
   -5.2114   -0.2502    0.0000 H   0  0
   -4.7763    1.9998    0.0000 H   0  0
   -3.9102    2.4992    0.0000 H   0  0
   -3.4756   -1.2512    0.0000 H   0  0
    4.7595   -0.9952    0.0000 H   0  0
    3.8959   -2.4964    0.0000 H   0  0
    2.1663    3.4969    0.0000 H   0  0
    0.4344    3.4996    0.0000 H   0  0
   -5.6403    3.4986    0.0000 H   0  0
  1  2  2  0
  1 32  1  0
  2  3  1  0
  2 15  1  0
  3  4  2  0
  3  5  1  0
  5  6  1  0
  6  7  1  0
  6 12  1  0
  7  8  1  0
  8  9  1  0
  9 10  1  0
  9 11  2  0
 12 13  1  0
 12 14  2  0
 15 16  2  0
 16 17  1  0
 17 18  1  0
 17 32  2  0
 18 19  1  0
 19 20  1  0
 20 21  2  0
 20 25  1  0
 21 22  1  0
 22 23  1  0
 22 30  2  0
 23 24  1  0
 23 26  2  0
 24 25  2  0
 26 27  1  0
 27 28  1  0
 27 29  2  0
 29 30  1  0
 30 31  1  0
  1 33  1  0
  5 34  1  0
  6 35  1  0
  7 36  1  0
  7 37  1  0
  8 38  1  0
  8 39  1  0
 10 40  1  0
 13 41  1  0
 15 42  1  0
 16 43  1  0
 18 44  1  0
 19 45  1  0
 19 46  1  0
 25 47  1  0
 28 48  1  0
 28 49  1  0
 31 50  1  0
 31 51  1  0
 32 52  1  0
V    1 0
V    2 1
V    3 2
V    4 3
V    5 4
V    6 5
V    7 6
V    8 7
V    9 8
V   10 9
V   11 10
V   12 11
V   13 12
V   14 13
V   15 14
V   16 15
V   17 16
V   18 17
V   19 18
V   20 19
V   21 20
V   22 21
V   23 22
V   24 23
V   25 24
V   26 25
V   27 26
V   28 27
V   29 28
V   30 29
V   31 30
V   32 31
M  END
> <DSSTox_RID>
65904

> <DSSTox_CID>
2588

> <DSSTox_CID_Parent>
2588

> <DSSTox_Generic_SID>
22588

> <DSSTox_FileID>
329_TXCST2_v1a

> <STRUCTURE_Formula>
C19H20N8O5

> <STRUCTURE_MolecularWeight>
440.4127

> <STRUCTURE_ChemicalType>
defined organic

> <STRUCTURE_TestedForm_DefinedOrganic>
parent

> <STRUCTURE_Shown>
tested chemical

> <TestSubstance_ChemicalName>
Aminofolic acid, 4-

> <TestSubstance_CASRN>
54-62-6

> <TestSubstance_Description>
single chemical compound

> <Source_ChemicalNote>
tested chemical contained 5.6% water (1.45 moles H2O)

> <STRUCTURE_ChemicalName_IUPAC>
N-[(4-{[(2,4-diaminopteridin-6-yl)methyl]amino}phenyl)carbonyl]glutamic acid

> <STRUCTURE_SMILES>
C3=C(C(=O)NC(CCC(O)=O)C(O)=O)C=CC(NCC1=NC2C(N=C1)=NC(N)=NC=2N)=C3

> <STRUCTURE_Parent_SMILES>
C3=C(C(=O)NC(CCC(O)=O)C(O)=O)C=CC(NCC1=NC2C(N=C1)=NC(N)=NC=2N)=C3

> <STRUCTURE_InChIS>
InChI=1S/C19H20N8O5/c20-15-14-16(27-19(21)26-15)23-8-11(24-14)7-22-10-3-1-9(2-4-10)17(30)25-12(18(31)32)5-6-13(28)29/h1-4,8,12,22H,5-7H2,(H,25,30)(H,28,29)(H,31,32)(H4,20,21,23,26,27)

> <STRUCTURE_InChIKey>
TVZGACDUOSZQKY-UHFFFAOYSA-N

> <Substance_modify_yyyymmdd>
20080429

> <Coord_Metals>
0

> <Index>
329

> <Canonical_Smiles>
Nc1nc(N)c2nc(CNc3ccc(cc3)C(=O)NC(CCC(=O)O)C(=O)O)cnc2n1

> <Molecular_Weight>
440.4127

> <Frequency>
1

$$$$

  SciTegic          2D

 30 32  0  0  0  0            999 V2000
    4.7913   -1.3067    0.0000 C   0  0
    5.1180    0.0933    0.0000 C   0  0
    4.0135    1.1200    0.0000 C   0  0
    2.5823    0.7000    0.0000 C   0  0
    2.2245   -0.7311    0.0000 C   0  0
    3.3446   -1.7734    0.0000 C   0  0
    0.8711   -1.3689    0.0000 N   0  0
    1.3702   -2.7865    0.0000 C   0  0
    0.3941   -3.9266    0.0000 N   0  0
    2.5498   -3.0071    0.0000 O   0  0
   -0.4667   -0.7156    0.0000 C   0  0
   -0.7934    0.7623    0.0000 C   0  0
    0.1244    1.9290    0.0000 C   0  0
    1.6490    1.9290    0.0000 C   0  0
   -2.2245    1.1978    0.0000 C   0  0
   -3.3290    0.1556    0.0000 C   0  0
   -3.0179   -1.2445    0.0000 C   0  0
   -1.5712   -1.7423    0.0000 C   0  0
    5.5271   -1.9840    0.0000 H   0  0
    6.0744    0.3853    0.0000 H   0  0
    4.2432    2.0933    0.0000 H   0  0
    3.1276   -2.7496    0.0000 H   0  0
    0.7261   -4.8698    0.0000 H   0  0
   -0.5889   -3.7428    0.0000 H   0  0
   -0.3124    2.8285    0.0000 H   0  0
    2.0935    2.8247    0.0000 H   0  0
   -2.4530    2.1714    0.0000 H   0  0
   -4.2850    0.4490    0.0000 H   0  0
   -3.7637   -1.9106    0.0000 H   0  0
   -1.3639   -2.7206    0.0000 H   0  0
  1  2  2  0
  1  6  1  0
  2  3  1  0
  3  4  2  0
  4  5  1  0
  4 14  1  0
  5  6  2  0
  5  7  1  0
  7  8  1  0
  7 11  1  0
  8  9  1  0
  8 10  2  0
 11 12  2  0
 11 18  1  0
 12 13  1  0
 12 15  1  0
 13 14  2  0
 15 16  2  0
 16 17  1  0
 17 18  2  0
  1 19  1  0
  2 20  1  0
  3 21  1  0
  6 22  1  0
  9 23  1  0
  9 24  1  0
 13 25  1  0
 14 26  1  0
 15 27  1  0
 16 28  1  0
 17 29  1  0
 18 30  1  0
V    1 0
V    2 1
V    3 2
V    4 3
V    5 4
V    6 5
V    7 6
V    8 7
V    9 8
V   10 9
V   11 10
V   12 11
V   13 12
V   14 13
V   15 14
V   16 15
V   17 16
V   18 17
M  END
> <DSSTox_RID>
66351

> <DSSTox_CID>
2731

> <DSSTox_CID_Parent>
2731

> <DSSTox_Generic_SID>
22731

> <DSSTox_FileID>
330_TXCST2_v1a

> <STRUCTURE_Formula>
C15H12N2O

> <STRUCTURE_MolecularWeight>
236.2686

> <STRUCTURE_ChemicalType>
defined organic

> <STRUCTURE_TestedForm_DefinedOrganic>
parent

> <STRUCTURE_Shown>
tested chemical

> <TestSubstance_ChemicalName>
Carbamazepine

> <TestSubstance_CASRN>
298-46-4

> <TestSubstance_Description>
single chemical compound

> <STRUCTURE_ChemicalName_IUPAC>
5H-dibenzo[b,f]azepine-5-carboxamide

> <STRUCTURE_SMILES>
C1=CC=C2C(=C1)N(C(N)=O)C3=C(C=C2)C=CC=C3

> <STRUCTURE_Parent_SMILES>
C1=CC=C2C(=C1)N(C(N)=O)C3=C(C=C2)C=CC=C3

> <STRUCTURE_InChIS>
InChI=1S/C15H12N2O/c16-15(18)17-13-7-3-1-5-11(13)9-10-12-6-2-4-8-14(12)17/h1-10H,(H2,16,18)

> <STRUCTURE_InChIKey>
FFGPTBGBLSHEPO-UHFFFAOYSA-N

> <Substance_modify_yyyymmdd>
20080429

> <Coord_Metals>
0

> <Index>
330

> <Canonical_Smiles>
NC(=O)N1c2ccccc2C=Cc3ccccc13

> <Molecular_Weight>
236.26857

> <Frequency>
1

$$$$

  SciTegic          2D

 40 42  0  0  0  0            999 V2000
    1.2990   -0.7500    0.0000 C   0  0
    2.5988   -1.5004    0.0000 S   0  0
    3.8990   -0.7508    0.0000 N   0  0
    2.5984   -2.7004    0.0000 O   0  0
    3.6377   -2.1009    0.0000 O   0  0
    1.2990    0.7500    0.0000 C   0  0
    0.0000    1.5000    0.0000 C   0  0
   -1.2990    0.7500    0.0000 C   0  0
   -2.2637    1.8996    0.0000 N   0  0
   -3.7458    1.7759    0.0000 N   0  0
   -4.3099    3.1658    0.0000 C   0  0
   -5.7643    3.5260    0.0000 C   0  0
   -6.5970    2.6619    0.0000 F   0  0
   -6.0965    4.6790    0.0000 F   0  0
   -6.9289    3.8150    0.0000 F   0  0
   -3.1624    4.1318    0.0000 C   0  0
   -1.8891    3.3389    0.0000 C   0  0
   -0.4952    3.8951    0.0000 C   0  0
    0.7480    3.0651    0.0000 C   0  0
    2.0926    3.7298    0.0000 C   0  0
    2.1893    5.2267    0.0000 C   0  0
    3.5347    5.8918    0.0000 C   0  0
    0.9413    6.0588    0.0000 C   0  0
   -0.4034    5.3941    0.0000 C   0  0
   -1.2990   -0.7500    0.0000 C   0  0
    0.0000   -1.5000    0.0000 C   0  0
    4.7650   -1.2508    0.0000 H   0  0
    3.8993    0.2492    0.0000 H   0  0
    2.1651    1.2500    0.0000 H   0  0
    0.0000    2.5000    0.0000 H   0  0
   -3.2338    5.1293    0.0000 H   0  0
    0.6832    2.0672    0.0000 H   0  0
    2.9246    3.1750    0.0000 H   0  0
    4.3671    5.3375    0.0000 H   0  0
    3.5988    6.8897    0.0000 H   0  0
    4.4309    6.3354    0.0000 H   0  0
    1.0057    7.0568    0.0000 H   0  0
   -1.2363    5.9475    0.0000 H   0  0
   -2.1651   -1.2500    0.0000 H   0  0
    0.0000   -2.5000    0.0000 H   0  0
  1  2  1  0
  1  6  2  0
  1 26  1  0
  2  3  1  0
  2  4  2  0
  2  5  2  0
  6  7  1  0
  7  8  2  0
  8  9  1  0
  8 25  1  0
  9 10  1  0
  9 17  1  0
 10 11  2  0
 11 12  1  0
 11 16  1  0
 12 13  1  0
 12 14  1  0
 12 15  1  0
 16 17  2  0
 17 18  1  0
 18 19  2  0
 18 24  1  0
 19 20  1  0
 20 21  2  0
 21 22  1  0
 21 23  1  0
 23 24  2  0
 25 26  2  0
  3 27  1  0
  3 28  1  0
  6 29  1  0
  7 30  1  0
 16 31  1  0
 19 32  1  0
 20 33  1  0
 22 34  1  0
 22 35  1  0
 22 36  1  0
 23 37  1  0
 24 38  1  0
 25 39  1  0
 26 40  1  0
V    1 0
V    2 1
V    3 2
V    4 3
V    5 4
V    6 5
V    7 6
V    8 7
V    9 8
V   10 9
V   11 10
V   12 11
V   13 12
V   14 13
V   15 14
V   16 15
V   17 16
V   18 17
V   19 18
V   20 19
V   21 20
V   22 21
V   23 22
V   24 23
V   25 24
V   26 25
M  END
> <DSSTox_RID>
65684

> <DSSTox_CID>
2777

> <DSSTox_CID_Parent>
2777

> <DSSTox_Generic_SID>
22777

> <DSSTox_FileID>
331_TXCST2_v1a

> <STRUCTURE_Formula>
C17H14F3N3O2S

> <STRUCTURE_MolecularWeight>
381.3722

> <STRUCTURE_ChemicalType>
defined organic

> <STRUCTURE_TestedForm_DefinedOrganic>
parent

> <STRUCTURE_Shown>
tested chemical

> <TestSubstance_ChemicalName>
Celecoxib

> <TestSubstance_CASRN>
169590-42-5

> <TestSubstance_Description>
single chemical compound

> <STRUCTURE_ChemicalName_IUPAC>
4-[5-(4-methylphenyl)-3-(trifluoromethyl)-1H-pyrazol-1-yl]benzenesulfonamide

> <STRUCTURE_SMILES>
C3(S(N)(=O)=O)=CC=C(N2N=C(C(F)(F)F)C=C2C1=CC=C(C)C=C1)C=C3

> <STRUCTURE_Parent_SMILES>
C3(S(N)(=O)=O)=CC=C(N2N=C(C(F)(F)F)C=C2C1=CC=C(C)C=C1)C=C3

> <STRUCTURE_InChIS>
InChI=1S/C17H14F3N3O2S/c1-11-2-4-12(5-3-11)15-10-16(17(18,19)20)22-23(15)13-6-8-14(9-7-13)26(21,24)25/h2-10H,1H3,(H2,21,24,25)

> <STRUCTURE_InChIKey>
RZEKVGVHFLEQIL-UHFFFAOYSA-N

> <Substance_modify_yyyymmdd>
20080429

> <Coord_Metals>
0

> <Index>
331

> <Canonical_Smiles>
Cc1ccc(cc1)c2cc(nn2c3ccc(cc3)S(=O)(=O)N)C(F)(F)F

> <Molecular_Weight>
381.37216

> <Frequency>
1

$$$$

  SciTegic          2D

 55 58  0  0  0  0            999 V2000
   -3.9007    5.1687    0.0000 O   0  0
   -5.1999    4.4588    0.0000 C   0  0
   -6.4981    3.7074    0.0000 C   0  0
   -7.7607    2.9344    0.0000 O   0  0
   -6.4964    2.2074    0.0000 C   0  0
   -7.7715    2.9612    0.0000 O   0  0
   -5.1966    1.5004    0.0000 C   0  0
   -3.8984    2.2103    0.0000 O   0  0
   -3.9000    3.7103    0.0000 C   0  0
   -2.6357    2.9401    0.0000 C   0  0
   -1.3010    3.6265    0.0000 O   0  0
   -5.1964   -0.0005    0.0000 C   0  0
   -3.8974   -0.7504    0.0000 C   0  0
   -2.5992    0.0027    0.0000 O   0  0
   -3.8975   -2.2503    0.0000 C   0  0
   -2.5985   -3.0001    0.0000 C   0  0
   -1.5574   -2.4034    0.0000 O   0  0
   -2.6078   -4.4842    0.0000 C   0  0
   -1.2996   -5.2499    0.0000 C   0  0
    0.0046   -4.5072    0.0000 C   0  0
   -1.2997   -6.7499    0.0000 C   0  0
   -0.3373   -7.9016    0.0000 C   0  0
   -0.8527   -9.3112    0.0000 O   0  0
    0.8448   -7.6953    0.0000 O   0  0
   -2.5989   -7.5000    0.0000 C   0  0
   -2.6019   -9.0008    0.0000 O   0  0
   -3.8979   -6.7501    0.0000 C   0  0
   -3.9069   -5.2343    0.0000 C   0  0
   -5.1968   -4.5003    0.0000 C   0  0
   -6.2342   -5.1035    0.0000 O   0  0
   -5.1967   -3.0004    0.0000 C   0  0
   -6.4957   -2.2505    0.0000 C   0  0
   -7.7971   -2.9983    0.0000 O   0  0
   -6.4956   -0.7506    0.0000 C   0  0
   -7.7969   -0.0028    0.0000 O   0  0
   -3.0339    4.6700    0.0000 H   0  0
   -6.0784    4.9365    0.0000 H   0  0
   -5.6440    3.1873    0.0000 H   0  0
   -7.7600    1.9344    0.0000 H   0  0
   -6.4597    1.2081    0.0000 H   0  0
   -7.7852    3.9612    0.0000 H   0  0
   -4.3295    1.0022    0.0000 H   0  0
   -4.7530    3.1882    0.0000 H   0  0
   -1.7949    2.3988    0.0000 H   0  0
   -2.6839    1.9413    0.0000 H   0  0
   -0.4600    3.0856    0.0000 H   0  0
   -2.6006    1.0027    0.0000 H   0  0
    0.0112   -3.5072    0.0000 H   0  0
    0.8675   -5.0126    0.0000 H   0  0
    0.8738   -4.0128    0.0000 H   0  0
   -0.2115  -10.0785    0.0000 H   0  0
   -3.4687   -9.4996    0.0000 H   0  0
   -4.7624   -7.2527    0.0000 H   0  0
   -8.6624   -2.4970    0.0000 H   0  0
   -8.6622   -0.5041    0.0000 H   0  0
  2  1  1  0
  2  3  1  0
  2  9  1  0
  3  4  1  0
  3  5  1  0
  5  6  1  0
  5  7  1  0
  7  8  1  0
  7 12  1  0
  8  9  1  0
  9 10  1  0
 10 11  1  0
 12 13  2  0
 12 34  1  0
 13 14  1  0
 13 15  1  0
 15 16  1  0
 15 31  2  0
 16 17  2  0
 16 18  1  0
 18 19  2  0
 18 28  1  0
 19 20  1  0
 19 21  1  0
 21 22  1  0
 21 25  2  0
 22 23  1  0
 22 24  2  0
 25 26  1  0
 25 27  1  0
 27 28  2  0
 28 29  1  0
 29 30  2  0
 29 31  1  0
 31 32  1  0
 32 33  1  0
 32 34  2  0
 34 35  1  0
  1 36  1  0
  2 37  1  0
  3 38  1  0
  4 39  1  0
  5 40  1  0
  6 41  1  0
  7 42  1  0
  9 43  1  0
 10 44  1  0
 10 45  1  0
 11 46  1  0
 14 47  1  0
 20 48  1  0
 20 49  1  0
 20 50  1  0
 23 51  1  0
 26 52  1  0
 27 53  1  0
 33 54  1  0
 35 55  1  0
V    1 0
V    2 1
V    3 2
V    4 3
V    5 4
V    6 5
V    7 6
V    8 7
V    9 8
V   10 9
V   11 10
V   12 11
V   13 12
V   14 13
V   15 14
V   16 15
V   17 16
V   18 17
V   19 18
V   20 19
V   21 20
V   22 21
V   23 22
V   24 23
V   25 24
V   26 25
V   27 26
V   28 27
V   29 28
V   30 29
V   31 30
V   32 31
V   33 32
V   34 33
V   35 34
M  END
> <DSSTox_RID>
66440

> <DSSTox_CID>
2817

> <DSSTox_CID_Parent>
2817

> <DSSTox_Generic_SID>
22817

> <DSSTox_FileID>
332_TXCST2_v1a

> <STRUCTURE_Formula>
C22H20O13

> <STRUCTURE_MolecularWeight>
492.3864

> <STRUCTURE_ChemicalType>
defined organic

> <STRUCTURE_TestedForm_DefinedOrganic>
parent

> <STRUCTURE_Shown>
tested chemical

> <TestSubstance_ChemicalName>
Carminic acid

> <TestSubstance_CASRN>
1260-17-9

> <TestSubstance_Description>
single chemical compound

> <ChemicalNote>
stereochem; C.I. 75470

> <STRUCTURE_ChemicalName_IUPAC>
(1S)-1,5-anhydro-1-(7-carboxy-1,3,4,6-tetrahydroxy-8-methyl-9,10-dioxo-9,10-dihydroanthracen-2-yl)-D-glucitol

> <STRUCTURE_SMILES>
O[C@H]1[C@@H]([C@H]([C@H](C4=C(C(C(C2=C(C(C(O)=O)=C(C=C23)O)C)=O)=C(C(O)=C4O)C3=O)O)O[C@@H]1CO)O)O

> <STRUCTURE_Parent_SMILES>
O[C@H]1[C@@H]([C@H]([C@H](C4=C(C(C(C2=C(C(C(O)=O)=C(C=C23)O)C)=O)=C(C(O)=C4O)C3=O)O)O[C@@H]1CO)O)O

> <STRUCTURE_InChIS>
InChI=1S/C22H20O13/c1-4-8-5(2-6(24)9(4)22(33)34)13(25)10-11(15(8)27)16(28)12(18(30)17(10)29)21-20(32)19(31)14(26)7(3-23)35-21/h2,7,14,19-21,23-24,26,28-32H,3H2,1H3,(H,33,34)/t7-,14-,19+,20-,21+/m1/s1

> <STRUCTURE_InChIKey>
DGQLVPJVXFOQEV-JNVSTXMASA-N

> <Substance_modify_yyyymmdd>
20080429

> <Coord_Metals>
0

> <Index>
332

> <Canonical_Smiles>
Cc1c(C(=O)O)c(O)cc2C(=O)c3c(O)c(O)c(C4OC(CO)C(O)C(O)C4O)c(O)c3C(=O)c12

> <Molecular_Weight>
492.3864

> <Frequency>
1

$$$$

  SciTegic          2D

 31 33  0  0  0  0            999 V2000
    1.7138    1.2033    0.0000 N   0  0
    0.2917    0.7475    0.0000 C   0  0
    2.1784    2.6281    0.0000 C   0  0
    2.5889    0.0182    0.0000 C   0  0
    0.2917   -0.7475    0.0000 C   0  0
   -1.0028    1.5132    0.0000 N   0  0
    0.7286    2.4271    0.0000 O   0  0
    2.5356    4.0474    0.0000 C   0  0
    1.7138   -1.2033    0.0000 N   0  0
   -1.0028   -1.5132    0.0000 C   0  0
   -2.3155    0.7475    0.0000 C   0  0
    0.1213    3.7987    0.0000 C   0  0
    1.2381    4.8001    0.0000 C   0  0
   -2.3155   -0.7475    0.0000 N   0  0
   -0.9971   -3.0138    0.0000 N   0  0
   -3.3560    1.3452    0.0000 Cl  0  0
   -0.8585    2.6795    0.0000 C   0  0
    2.4571    5.6525    0.0000 O   0  0
   -2.3353    2.9468    0.0000 O   0  0
    3.1571    2.8330    0.0000 H   0  0
    3.5889    0.0254    0.0000 H   0  0
    3.3247    3.4331    0.0000 H   0  0
    2.6462    5.0413    0.0000 H   0  0
   -0.1706    4.7551    0.0000 H   0  0
    0.3190    5.1942    0.0000 H   0  0
   -1.8609   -3.5176    0.0000 H   0  0
   -0.1290   -3.5102    0.0000 H   0  0
   -1.5049    1.9164    0.0000 H   0  0
   -0.5210    1.7381    0.0000 H   0  0
    3.3700    5.2443    0.0000 H   0  0
   -2.9820    2.1841    0.0000 H   0  0
  1  2  1  0
  3  1  1  0
  1  4  1  0
  2  5  1  0
  2  6  2  0
  3  7  1  0
  3  8  1  0
  4  9  2  0
  5 10  2  0
  5  9  1  0
  6 11  1  0
  7 12  1  0
  8 13  1  0
 10 14  1  0
 10 15  1  0
 11 16  1  0
 11 14  2  0
 12 17  1  0
 12 13  1  0
 13 18  1  0
 17 19  1  0
  3 20  1  0
  4 21  1  0
  8 22  1  0
  8 23  1  0
 12 24  1  0
 13 25  1  0
 15 26  1  0
 15 27  1  0
 17 28  1  0
 17 29  1  0
 18 30  1  0
 19 31  1  0
V    1 0
V    2 1
V    3 2
V    4 3
V    5 4
V    6 5
V    7 6
V    8 7
V    9 8
V   10 9
V   11 10
V   12 11
V   13 12
V   14 13
V   15 14
V   16 15
V   17 16
V   18 17
V   19 18
M  END
> <DSSTox_RID>
66775

> <DSSTox_CID>
2828

> <DSSTox_CID_Parent>
2828

> <DSSTox_Generic_SID>
22828

> <DSSTox_FileID>
333_TXCST2_v1a

> <STRUCTURE_Formula>
C10H12ClN5O3

> <STRUCTURE_MolecularWeight>
285.687

> <STRUCTURE_ChemicalType>
defined organic

> <STRUCTURE_TestedForm_DefinedOrganic>
parent

> <STRUCTURE_Shown>
tested chemical

> <TestSubstance_ChemicalName>
2-Chloro-2'-deoxyadenosine

> <TestSubstance_CASRN>
4291-63-8

> <TestSubstance_Description>
single chemical compound

> <ChemicalNote>
stereochem

> <Source_ChemicalNote>
tested chemical contained 0.54% water (0.09 moles H2O)

> <STRUCTURE_ChemicalName_IUPAC>
2-chloro-2'-deoxyadenosine

> <STRUCTURE_SMILES>
Nc3nc(Cl)nc2c3ncn2[C@H]1C[C@H](O)[C@@H](CO)O1

> <STRUCTURE_Parent_SMILES>
Nc3nc(Cl)nc2c3ncn2[C@H]1C[C@H](O)[C@@H](CO)O1

> <STRUCTURE_InChIS>
InChI=1S/C10H12ClN5O3/c11-10-14-8(12)7-9(15-10)16(3-13-7)6-1-4(18)5(2-17)19-6/h3-6,17-18H,1-2H2,(H2,12,14,15)/t4-,5+,6+/m0/s1

> <STRUCTURE_InChIKey>
PTOAARAWEBMLNO-KVQBGUIXSA-N

> <Substance_modify_yyyymmdd>
20080429

> <Coord_Metals>
0

> <Index>
333

> <Canonical_Smiles>
Nc1nc(Cl)nc2c1ncn2C3CC(O)C(CO)O3

> <Molecular_Weight>
285.68698

> <Frequency>
1

$$$$

  SciTegic          2D

 29 31  0  0  0  0            999 V2000
    0.2917   -0.7475    0.0000 C   0  0
    0.2917    0.7475    0.0000 C   0  0
    1.7138    1.2033    0.0000 N   0  0
    1.7138   -1.2033    0.0000 N   0  0
    2.5889    0.0182    0.0000 C   0  0
   -1.0028   -1.5132    0.0000 N   0  0
   -2.3155    0.7475    0.0000 N   0  0
   -2.3155   -0.7475    0.0000 C   0  0
   -1.0028    1.5132    0.0000 C   0  0
   -0.9971    3.0138    0.0000 O   0  0
    0.7323   -2.4297    0.0000 O   0  0
    0.1292   -3.8031    0.0000 C   0  0
    2.1826   -2.6263    0.0000 C   0  0
    1.2490   -4.8011    0.0000 C   0  0
    2.5442   -4.0446    0.0000 C   0  0
   -0.8540   -2.6869    0.0000 C   0  0
   -2.3300   -2.9587    0.0000 O   0  0
    3.5889    0.0254    0.0000 H   0  0
   -3.1826   -1.2456    0.0000 H   0  0
   -1.8609    3.5176    0.0000 H   0  0
   -0.1599   -4.7604    0.0000 H   0  0
    3.1620   -2.8283    0.0000 H   0  0
    0.3314   -5.1988    0.0000 H   0  0
    2.0695   -5.3727    0.0000 H   0  0
    3.3314   -3.4278    0.0000 H   0  0
    2.6578   -5.0381    0.0000 H   0  0
   -1.5027   -1.9258    0.0000 H   0  0
   -0.5194   -1.7445    0.0000 H   0  0
   -2.9791   -2.1979    0.0000 H   0  0
  1  2  1  0
  1  4  1  0
  1  6  2  0
  2  3  1  0
  2  9  2  0
  3  5  2  0
  4  5  1  0
 13  4  1  0
  6  8  1  0
  7  8  2  0
  7  9  1  0
  9 10  1  0
 11 12  1  0
 11 13  1  0
 12 14  1  0
 12 16  1  0
 13 15  1  0
 14 15  1  0
 16 17  1  0
  5 18  1  0
  8 19  1  0
 10 20  1  0
 12 21  1  0
 13 22  1  0
 14 23  1  0
 14 24  1  0
 15 25  1  0
 15 26  1  0
 16 27  1  0
 16 28  1  0
 17 29  1  0
V    1 0
V    2 1
V    3 2
V    4 3
V    5 4
V    6 5
V    7 6
V    8 7
V    9 8
V   10 9
V   11 10
V   12 11
V   13 12
V   14 13
V   15 14
V   16 15
V   17 16
M  END
> <DSSTox_RID>
66543

> <DSSTox_CID>
2927

> <DSSTox_CID_Parent>
2927

> <DSSTox_Generic_SID>
22927

> <DSSTox_FileID>
334_TXCST2_v1a

> <STRUCTURE_Formula>
C10H12N4O3

> <STRUCTURE_MolecularWeight>
236.2273

> <STRUCTURE_ChemicalType>
defined organic

> <STRUCTURE_TestedForm_DefinedOrganic>
parent

> <STRUCTURE_Shown>
tested chemical

> <TestSubstance_ChemicalName>
Didanosine, Dideoxyinosine, Didanosine (2'-3'-dideoxyinosine)

> <TestSubstance_CASRN>
69655-05-6

> <TestSubstance_Description>
single chemical compound

> <ChemicalNote>
stereochem; tautomers

> <STRUCTURE_ChemicalName_IUPAC>
9-[(2R,5S)-5-(hydroxymethyl)tetrahydrofuran-2-yl]-1,9-dihydro-6H-purin-6-one

> <STRUCTURE_SMILES>
O=C2C1=C(N=CN2)N([C@@H]3O[C@H](CO)CC3)C=N1

> <STRUCTURE_Parent_SMILES>
O=C2C1=C(N=CN2)N([C@@H]3O[C@H](CO)CC3)C=N1

> <STRUCTURE_InChIS>
InChI=1S/C10H12N4O3/c15-3-6-1-2-7(17-6)14-5-13-8-9(14)11-4-12-10(8)16/h4-7,15H,1-3H2,(H,11,12,16)/t6-,7+/m0/s1

> <STRUCTURE_InChIKey>
BXZVVICBKDXVGW-NKWVEPMBSA-N

> <Substance_modify_yyyymmdd>
20080429

> <Coord_Metals>
0

> <Index>
334

> <Canonical_Smiles>
OCC1CCC(O1)n2cnc3c(O)ncnc23

> <Molecular_Weight>
236.22727

> <Frequency>
1

$$$$

  SciTegic          2D

 66 65  0  0  0  0            999 V2000
   11.6999    2.2507    0.0000 S   0  0
   11.6999    0.7500    0.0000 C   0  0
   12.9999    0.0000    0.0000 C   0  0
   10.3999    0.0000    0.0000 C   0  0
   14.2999    0.7500    0.0000 C   0  0
   11.6993    3.4507    0.0000 O   0  0
   10.6605    2.8504    0.0000 O   0  0
   12.9992    3.0020    0.0000 O   0  0
    9.0999    0.7500    0.0000 O   0  0
   10.3999   -1.2000    0.0000 O   0  0
   14.2999    1.9500    0.0000 O   0  0
   15.5999    0.0000    0.0000 O   0  0
    7.7999    0.0000    0.0000 C   0  0
   16.8999    0.7500    0.0000 C   0  0
    6.8349    1.1494    0.0000 C   0  0
   18.1999    0.0000    0.0000 C   0  0
   18.1999   -1.5007    0.0000 C   0  0
    6.3089   -0.2873    0.0000 C   0  0
    5.3568    0.8892    0.0000 C   0  0
   19.4998    0.7500    0.0000 C   0  0
    2.9136    1.7785    0.0000 C   0  0
   22.0998    0.7500    0.0000 C   0  0
   20.7998    0.0000    0.0000 C   0  0
    4.3917    2.0386    0.0000 C   0  0
   16.9006   -2.2520    0.0000 C   0  0
    4.8306   -0.5461    0.0000 C   0  0
    1.9485    2.9279    0.0000 C   0  0
   23.3998    0.0000    0.0000 C   0  0
   11.6999   -0.2500    0.0000 H   0  0
   12.9999   -1.0000    0.0000 H   0  0
   13.8658   -0.5001    0.0000 H   0  0
   12.9992    4.0020    0.0000 H   0  0
    7.7999   -1.0000    0.0000 H   0  0
    8.6659   -0.5001    0.0000 H   0  0
   16.8999    1.7500    0.0000 H   0  0
   16.0339    1.2501    0.0000 H   0  0
    7.1769    2.0891    0.0000 H   0  0
   18.1999    1.0000    0.0000 H   0  0
   19.0660   -2.0005    0.0000 H   0  0
   18.2003   -2.5007    0.0000 H   0  0
    7.2940   -0.1154    0.0000 H   0  0
    6.9505   -1.0544    0.0000 H   0  0
    5.0147   -0.0504    0.0000 H   0  0
    4.3720    0.7154    0.0000 H   0  0
   19.4998    1.7500    0.0000 H   0  0
   18.6339    1.2501    0.0000 H   0  0
    2.5716    0.8388    0.0000 H   0  0
    1.9288    1.6047    0.0000 H   0  0
   22.0998    1.7500    0.0000 H   0  0
   21.2339    1.2501    0.0000 H   0  0
   20.7998   -1.0000    0.0000 H   0  0
   19.9339   -0.5001    0.0000 H   0  0
    4.7337    2.9783    0.0000 H   0  0
    3.7490    2.8048    0.0000 H   0  0
   16.9006   -3.2520    0.0000 H   0  0
   16.0344   -1.7523    0.0000 H   0  0
   16.0346   -2.7521    0.0000 H   0  0
    4.4867   -1.4851    0.0000 H   0  0
    4.1890    0.2210    0.0000 H   0  0
    3.8454   -0.7180    0.0000 H   0  0
    0.9636    2.7545    0.0000 H   0  0
    2.2905    3.8676    0.0000 H   0  0
    1.3058    3.6940    0.0000 H   0  0
   24.2660    0.4997    0.0000 H   0  0
   23.3998   -1.0000    0.0000 H   0  0
   24.2658   -0.5001    0.0000 H   0  0
  1  2  1  0
  1  6  2  0
  1  7  2  0
  1  8  1  0
  2  3  1  0
  2  4  1  0
  3  5  1  0
  4  9  1  0
  4 10  2  0
  5 11  2  0
  5 12  1  0
  9 13  1  0
 12 14  1  0
 13 15  1  0
 14 16  1  0
 15 18  1  0
 15 19  1  0
 16 17  1  0
 16 20  1  0
 17 25  1  0
 18 26  1  0
 19 24  1  0
 20 23  1  0
 21 24  1  0
 21 27  1  0
 22 23  1  0
 22 28  1  0
  2 29  1  0
  3 30  1  0
  3 31  1  0
  8 32  1  0
 13 33  1  0
 13 34  1  0
 14 35  1  0
 14 36  1  0
 15 37  1  0
 16 38  1  0
 17 39  1  0
 17 40  1  0
 18 41  1  0
 18 42  1  0
 19 43  1  0
 19 44  1  0
 20 45  1  0
 20 46  1  0
 21 47  1  0
 21 48  1  0
 22 49  1  0
 22 50  1  0
 23 51  1  0
 23 52  1  0
 24 53  1  0
 24 54  1  0
 25 55  1  0
 25 56  1  0
 25 57  1  0
 26 58  1  0
 26 59  1  0
 26 60  1  0
 27 61  1  0
 27 62  1  0
 27 63  1  0
 28 64  1  0
 28 65  1  0
 28 66  1  0
V    1 0
V    2 1
V    3 2
V    4 3
V    5 4
V    6 5
V    7 6
V    8 7
V    9 8
V   10 9
V   11 10
V   12 11
V   13 12
V   14 13
V   15 14
V   16 15
V   17 16
V   18 17
V   19 18
V   20 19
V   21 20
V   22 21
V   23 22
V   24 23
V   25 24
V   26 25
V   27 26
V   28 27
M  END
> <DSSTox_RID>
60588

> <DSSTox_CID>
2959

> <DSSTox_Generic_SID>
22959

> <DSSTox_FileID>
335_TXCST2_v1a

> <STRUCTURE_Formula>
C20H37NaO7S

> <STRUCTURE_MolecularWeight>
444.5583

> <STRUCTURE_ChemicalType>
defined organic

> <STRUCTURE_TestedForm_DefinedOrganic>
salt Na

> <STRUCTURE_Shown>
tested chemical

> <TestSubstance_ChemicalName>
Docusate sodium

> <TestSubstance_CASRN>
577-11-7

> <TestSubstance_Description>
single chemical compound

> <ChemicalNote>
parent [10041-19-7]

> <STRUCTURE_ChemicalName_IUPAC>
sodium 1,4-bis[(2-ethylhexyl)oxy]-1,4-dioxobutane-2-sulfonate

> <STRUCTURE_SMILES>
O=S(C(C(OCC(CCCC)CC)=O)CC(OCC(CCCC)CC)=O)([O-])=O.[Na+]

> <STRUCTURE_Parent_SMILES>
O=S(C(C(OCC(CCCC)CC)=O)CC(OCC(CCCC)CC)=O)(O)=O

> <STRUCTURE_InChIS>
InChI=1S/C20H38O7S.Na/c1-5-9-11-16(7-3)14-26-19(21)13-18(28(23,24)25)20(22)27-15-17(8-4)12-10-6-2;/h16-18H,5-15H2,1-4H3,(H,23,24,25);/q;+1/p-1

> <STRUCTURE_InChIKey>
APSBXTVYXVQYAB-UHFFFAOYSA-M

> <Substance_modify_yyyymmdd>
20080429

> <Coord_Metals>
0

> <Index>
335

> <Canonical_Smiles>
CCCCC(CC)COC(=O)CC(C(=O)OCC(CC)CCCC)S(=O)(=O)O

> <Molecular_Weight>
422.57652

> <Frequency>
1

$$$$

  SciTegic          2D

118120  0  0  0  0            999 V2000
   -6.2038    3.3576    0.0000 C   0  0
   -8.7566    1.9303    0.0000 C   0  0
   -8.5004   -2.2648    0.0000 C   0  0
   -7.6431    2.9353    0.0000 C   0  0
   -3.4961    2.2516    0.0000 C   0  0
   -4.7237    3.1136    0.0000 C   0  0
   -5.7928   -3.3708    0.0000 C   0  0
   -9.3239    0.5417    0.0000 O   0  0
   -7.2728   -3.1268    0.0000 C   0  0
   -4.3535   -2.9485    0.0000 C   0  0
   -2.1336    1.7303    0.0000 O   0  0
   -2.7641    0.9423    0.0000 C   0  0
   -9.2324   -0.9555    0.0000 C   0  0
   -7.5416    3.9394    0.0000 O   0  0
   -3.2399   -1.9435    0.0000 C   0  0
   -2.6727   -0.5549    0.0000 C   0  0
   -9.5750    2.5050    0.0000 O   0  0
   -3.8655   -3.8213    0.0000 O   0  0
   -8.1211   -3.6735    0.0000 O   0  0
   -2.4946    2.3761    0.0000 O   0  0
   -8.7266   -3.2483    0.0000 O   0  0
   -9.8633   -1.7434    0.0000 C   0  0
   -9.1009    2.8790    0.0000 C   0  0
   -3.2699    3.2351    0.0000 C   0  0
   -4.4549   -3.9526    0.0000 C   0  0
   -1.7624   -0.1188    0.0000 C   0  0
  -10.5363   -0.3012    0.0000 C   0  0
   -3.4450   -3.3879    0.0000 C   0  0
  -11.8318   -1.0588    0.0000 C   0  0
   -7.7894    7.9816    0.0000 C   0  0
   -6.2894    7.9690    0.0000 C   0  0
   -8.5503    6.6889    0.0000 C   0  0
   -5.5504    6.6637    0.0000 C   0  0
   -7.7900    5.4195    0.0000 C   0  0
   -6.3112    5.3710    0.0000 O   0  0
   -7.4843    9.4302    0.0000 O   0  0
   -4.8098    7.9201    0.0000 O   0  0
   -9.2700    7.9577    0.0000 C   0  0
   -8.5761   10.4600    0.0000 C   0  0
   -4.8529    5.3578    0.0000 C   0  0
    0.8440    4.4713    0.0000 C   0  0
    1.9235    3.4298    0.0000 C   0  0
   -0.5977    4.0573    0.0000 C   0  0
    1.5612    1.9742    0.0000 C   0  0
   -0.9199    2.6132    0.0000 C   0  0
    0.1195    1.5601    0.0000 O   0  0
    1.1684    0.5468    0.0000 C   0  0
   -0.2236    5.4905    0.0000 O   0  0
   -0.2463    5.4727    0.0000 N   0  0
   -1.6890    5.0590    0.0000 C   0  0
    0.1133    6.9298    0.0000 C   0  0
   -5.3421    3.8650    0.0000 H   0  0
   -7.2014    2.0381    0.0000 H   0  0
   -4.2024    1.5436    0.0000 H   0  0
   -5.0529    2.1693    0.0000 H   0  0
   -6.6545   -3.8782    0.0000 H   0  0
   -6.9437   -2.1825    0.0000 H   0  0
   -8.2889   -0.6241    0.0000 H   0  0
   -2.3564   -1.4752    0.0000 H   0  0
   -3.6664   -0.4431    0.0000 H   0  0
   -2.3687   -1.5076    0.0000 H   0  0
   -7.1698   -3.9819    0.0000 H   0  0
   -3.2179    3.0667    0.0000 H   0  0
   -9.3396   -2.4582    0.0000 H   0  0
  -10.6062   -2.4128    0.0000 H   0  0
  -10.8145   -1.4349    0.0000 H   0  0
  -10.0719   -0.7654    0.0000 H   0  0
   -9.6132    2.0202    0.0000 H   0  0
  -10.1008    2.8931    0.0000 H   0  0
   -9.5887    3.7519    0.0000 H   0  0
   -2.6569    2.4451    0.0000 H   0  0
   -2.2792    3.3708    0.0000 H   0  0
   -2.8919    4.1609    0.0000 H   0  0
   -3.6208   -3.4011    0.0000 H   0  0
   -3.5602   -4.3991    0.0000 H   0  0
   -4.3942   -4.9507    0.0000 H   0  0
   -0.8027    0.1620    0.0000 H   0  0
   -1.0393   -0.8095    0.0000 H   0  0
   -1.9989   -1.0904    0.0000 H   0  0
  -11.4052    0.1939    0.0000 H   0  0
  -10.5422    0.6988    0.0000 H   0  0
   -4.3516   -3.8098    0.0000 H   0  0
   -2.5382   -2.9662    0.0000 H   0  0
   -2.6265   -3.9624    0.0000 H   0  0
  -12.7009   -0.5642    0.0000 H   0  0
  -12.6948   -1.5640    0.0000 H   0  0
  -11.8259   -2.0588    0.0000 H   0  0
   -6.8033    8.8268    0.0000 H   0  0
   -9.0272    5.8100    0.0000 H   0  0
   -7.5504    6.6702    0.0000 H   0  0
   -6.5502    6.6476    0.0000 H   0  0
   -8.7900    5.4280    0.0000 H   0  0
   -4.3167    7.0501    0.0000 H   0  0
   -9.7633    8.8275    0.0000 H   0  0
  -10.2699    7.9655    0.0000 H   0  0
   -9.7769    7.0957    0.0000 H   0  0
   -8.3462   11.4333    0.0000 H   0  0
   -9.3039   11.1459    0.0000 H   0  0
   -9.5339   10.1728    0.0000 H   0  0
   -5.3598    4.4958    0.0000 H   0  0
   -4.3599    4.4878    0.0000 H   0  0
   -3.8529    5.3496    0.0000 H   0  0
    1.8116    4.7237    0.0000 H   0  0
    0.9691    3.1311    0.0000 H   0  0
    2.6266    2.7187    0.0000 H   0  0
    0.1462    3.3890    0.0000 H   0  0
    2.5153    2.2737    0.0000 H   0  0
   -1.1616    1.6428    0.0000 H   0  0
    0.2074    0.2704    0.0000 H   0  0
    0.9271   -0.4236    0.0000 H   0  0
    1.8881   -0.1475    0.0000 H   0  0
    0.7340    5.7787    0.0000 H   0  0
   -2.4088    5.7532    0.0000 H   0  0
   -1.9306    4.0887    0.0000 H   0  0
   -2.6502    4.7829    0.0000 H   0  0
   -0.6073    7.6232    0.0000 H   0  0
    1.0740    7.2074    0.0000 H   0  0
    0.3534    7.9006    0.0000 H   0  0
  1  6  1  0
  1  4  1  0
  1 14  1  0
  2  4  1  0
  2  8  1  0
  2 17  2  0
  3  9  1  0
  3 19  1  0
  3 22  1  0
  3 13  1  0
  4 23  1  0
  5 11  1  0
  5  6  1  0
  5 12  1  0
  6 24  1  0
  7 10  1  0
  7  9  1  0
  7 25  1  0
  8 13  1  0
  9 21  1  0
 10 15  1  0
 10 18  2  0
 45 11  1  0
 12 16  1  0
 12 20  1  0
 12 26  1  0
 13 27  1  0
 34 14  1  0
 15 16  1  0
 15 28  1  0
 27 29  1  0
 30 31  1  0
 30 32  1  0
 30 36  1  0
 30 38  1  0
 31 33  1  0
 31 37  1  0
 32 34  1  0
 33 35  1  0
 33 40  1  0
 34 35  1  0
 36 39  1  0
 41 42  1  0
 41 43  1  0
 41 49  1  0
 42 44  1  0
 43 45  1  0
 43 48  1  0
 44 46  1  0
 44 47  1  0
 45 46  1  0
 49 50  1  0
 49 51  1  0
  1 52  1  0
  4 53  1  0
  5 54  1  0
  6 55  1  0
  7 56  1  0
  9 57  1  0
 13 58  1  0
 15 59  1  0
 16 60  1  0
 16 61  1  0
 19 62  1  0
 20 63  1  0
 21 64  1  0
 22 65  1  0
 22 66  1  0
 22 67  1  0
 23 68  1  0
 23 69  1  0
 23 70  1  0
 24 71  1  0
 24 72  1  0
 24 73  1  0
 25 74  1  0
 25 75  1  0
 25 76  1  0
 26 77  1  0
 26 78  1  0
 26 79  1  0
 27 80  1  0
 27 81  1  0
 28 82  1  0
 28 83  1  0
 28 84  1  0
 29 85  1  0
 29 86  1  0
 29 87  1  0
 31 88  1  0
 32 89  1  0
 32 90  1  0
 33 91  1  0
 34 92  1  0
 37 93  1  0
 38 94  1  0
 38 95  1  0
 38 96  1  0
 39 97  1  0
 39 98  1  0
 39 99  1  0
 40100  1  0
 40101  1  0
 40102  1  0
 41103  1  0
 42104  1  0
 42105  1  0
 43106  1  0
 44107  1  0
 45108  1  0
 47109  1  0
 47110  1  0
 47111  1  0
 48112  1  0
 50113  1  0
 50114  1  0
 50115  1  0
 51116  1  0
 51117  1  0
 51118  1  0
V    1 0
V    2 1
V    3 2
V    4 3
V    5 4
V    6 5
V    7 6
V    8 7
V    9 8
V   10 9
V   11 10
V   12 11
V   13 12
V   14 13
V   15 14
V   16 15
V   17 16
V   18 17
V   19 18
V   20 19
V   21 20
V   22 21
V   23 22
V   24 23
V   25 24
V   26 25
V   27 26
V   28 27
V   29 28
V   30 29
V   31 30
V   32 31
V   33 32
V   34 33
V   35 34
V   36 35
V   37 36
V   38 37
V   39 38
V   40 39
V   41 40
V   42 41
V   43 42
V   44 43
V   45 44
V   46 45
V   47 46
V   48 47
V   49 48
V   50 49
V   51 50
M  END
> <DSSTox_RID>
65696

> <DSSTox_CID>
2991

> <DSSTox_CID_Parent>
2991

> <DSSTox_Generic_SID>
22991

> <DSSTox_FileID>
336_TXCST2_v1a

> <STRUCTURE_Formula>
C37H67NO13

> <STRUCTURE_MolecularWeight>
733.9268

> <STRUCTURE_ChemicalType>
defined organic

> <STRUCTURE_TestedForm_DefinedOrganic>
parent

> <STRUCTURE_Shown>
tested chemical

> <TestSubstance_ChemicalName>
Erythromycin

> <TestSubstance_CASRN>
114-07-8

> <TestSubstance_Description>
single chemical compound

> <ChemicalNote>
stereochem

> <Source_ChemicalNote>
tested chemical contained 1.8% water (0.75 moles H2O); tested chemical was a mixture of erthromycin A, B, and C

> <STRUCTURE_ChemicalName_IUPAC>
(3R*,4S*,5S*,6R*,7R*,9R*,11R*,12R*,13S*,14R*)-4-((2,6-Dideoxy-3-C-methyl-3-O-methyl-alpha-L-ribo-hexopyranosyl)oxy)-14-ethyl-7,12,13-trihydroxy-3,5,7,9,11,13-hexamethyl-6-((3,4,6-trideoxy-3-(dimethyla
mino)-beta-D-xylo-hexopyranosyl)oxy)oxacyclotetradecane-2,10-dione

> <STRUCTURE_SMILES>
CN(C)[C@H]3C[C@@H](C)O[C@@H](O[C@@H]2[C@@H](C)[C@H](O[C@H]1C[C@@](C)(OC)[C@@H](O)[C@H](C)O1)[C@@H](C)C(=O)O[C@H](CC)[C@@](C)(O)[C@H](O)[C@@H](C)C(=O)[C@H](C)C[C@@]2(C)O)[C@@H]3O

> <STRUCTURE_Parent_SMILES>
CN(C)[C@H]3C[C@@H](C)O[C@@H](O[C@@H]2[C@@H](C)[C@H](O[C@H]1C[C@@](C)(OC)[C@@H](O)[C@H](C)O1)[C@@H](C)C(=O)O[C@H](CC)[C@@](C)(O)[C@H](O)[C@@H](C)C(=O)[C@H](C)C[C@@]2(C)O)[C@@H]3O

> <STRUCTURE_InChIS>
InChI=1S/C37H67NO13/c1-14-25-37(10,45)30(41)20(4)27(39)18(2)16-35(8,44)32(51-34-28(40)24(38(11)12)15-19(3)47-34)21(5)29(22(6)33(43)49-25)50-26-17-36(9,46-13)31(42)23(7)48-26/h18-26,28-32,34,40-42,44-4
5H,14-17H2,1-13H3/t18-,19-,20+,21+,22-,23+,24+,25-,26+,28-,29+,30-,31+,32-,34+,35-,36-,37-/m1/s1

> <STRUCTURE_InChIKey>
ULGZDMOVFRHVEP-RWJQBGPGSA-N

> <Substance_modify_yyyymmdd>
20080429

> <Coord_Metals>
0

> <Index>
336

> <Canonical_Smiles>
CCC1OC(=O)C(C)C(OC2CC(C)(OC)C(O)C(C)O2)C(C)C(OC3OC(C)CC(C3O)N(C)C)C(C)(O)CC(C)C(=O)C(C)C(O)C1(C)O

> <Molecular_Weight>
733.92677

> <Frequency>
1

$$$$

  SciTegic          2D

 26 25  0  0  0  0            999 V2000
    7.7999    0.0000    0.0000 C   0  0
    6.5000    0.7500    0.0000 C   0  0
    5.2000    0.0000    0.0000 C   0  0
    3.9000    0.7500    0.0000 C   0  0
    2.6000    0.0000    0.0000 C   0  0
    9.0999    0.7500    0.0000 C   0  0
    6.5000    2.2507    0.0000 O   0  0
    5.2000   -1.5007    0.0000 O   0  0
    3.9000    2.2507    0.0000 O   0  0
    1.3000    0.7500    0.0000 O   0  0
   10.3999    0.0000    0.0000 O   0  0
    7.7999   -1.5007    0.0000 O   0  0
    6.9340   -0.5001    0.0000 H   0  0
    5.6340    1.2501    0.0000 H   0  0
    4.3340   -0.5001    0.0000 H   0  0
    3.0340    1.2501    0.0000 H   0  0
    2.6000   -1.0000    0.0000 H   0  0
    1.7340   -0.5001    0.0000 H   0  0
    9.0999    1.7500    0.0000 H   0  0
    9.9659    1.2501    0.0000 H   0  0
    7.3657    2.7513    0.0000 H   0  0
    4.3343   -2.0013    0.0000 H   0  0
    4.7657    2.7513    0.0000 H   0  0
    0.4338    0.2503    0.0000 H   0  0
   11.2661    0.4997    0.0000 H   0  0
    6.9342   -2.0013    0.0000 H   0  0
  1  2  1  0
  1  6  1  0
  1 12  1  0
  2  3  1  0
  2  7  1  0
  3  4  1  0
  3  8  1  0
  4  5  1  0
  4  9  1  0
  5 10  1  0
  6 11  1  0
  1 13  1  0
  2 14  1  0
  3 15  1  0
  4 16  1  0
  5 17  1  0
  5 18  1  0
  6 19  1  0
  6 20  1  0
  7 21  1  0
  8 22  1  0
  9 23  1  0
 10 24  1  0
 11 25  1  0
 12 26  1  0
V    1 0
V    2 1
V    3 2
V    4 3
V    5 4
V    6 5
V    7 6
V    8 7
V    9 8
V   10 9
V   11 10
V   12 11
M  END
> <DSSTox_RID>
62403

> <DSSTox_CID>
3235

> <DSSTox_CID_Parent>
3235

> <DSSTox_Generic_SID>
23235

> <DSSTox_FileID>
337_TXCST2_v1a

> <STRUCTURE_Formula>
C6H14O6

> <STRUCTURE_MolecularWeight>
182.1718

> <STRUCTURE_ChemicalType>
defined organic

> <STRUCTURE_TestedForm_DefinedOrganic>
parent

> <STRUCTURE_Shown>
tested chemical

> <TestSubstance_ChemicalName>
D-Mannitol

> <TestSubstance_CASRN>
69-65-8

> <TestSubstance_Description>
single chemical compound

> <ChemicalNote>
stereochem

> <STRUCTURE_ChemicalName_IUPAC>
D-mannitol

> <STRUCTURE_SMILES>
O[C@@H]([C@H](O)[C@H](O)CO)[C@H](O)CO

> <STRUCTURE_Parent_SMILES>
O[C@@H]([C@H](O)[C@H](O)CO)[C@H](O)CO

> <STRUCTURE_InChIS>
InChI=1S/C6H14O6/c7-1-3(9)5(11)6(12)4(10)2-8/h3-12H,1-2H2/t3-,4-,5-,6-/m1/s1

> <STRUCTURE_InChIKey>
FBPFZTCFMRRESA-KVTDHHQDSA-N

> <Substance_modify_yyyymmdd>
20080429

> <Coord_Metals>
0

> <Index>
337

> <Canonical_Smiles>
OCC(O)C(O)C(O)C(O)CO

> <Molecular_Weight>
182.17175

> <Frequency>
1

$$$$

  SciTegic          2D

 23 23  0  0  0  0            999 V2000
    1.2990   -0.7500    0.0000 C   0  0
    2.5988   -1.5004    0.0000 C   0  0
    1.2990    0.7500    0.0000 C   0  0
    2.5972    1.5031    0.0000 O   0  0
    0.0000    1.5000    0.0000 C   0  0
    0.0000    3.0008    0.0000 C   0  0
    1.2993    3.7521    0.0000 O   0  0
   -1.2990    0.7500    0.0000 C   0  0
   -2.5988    1.5004    0.0000 C   0  0
   -2.5998    3.0012    0.0000 O   0  0
   -1.2990   -0.7500    0.0000 C   0  0
    0.0000   -1.5000    0.0000 N   0  0
    3.4651   -1.0010    0.0000 H   0  0
    2.5985   -2.5004    0.0000 H   0  0
    3.4646   -2.0008    0.0000 H   0  0
    2.5958    2.5031    0.0000 H   0  0
   -0.8662    3.5005    0.0000 H   0  0
   -0.0005    4.0008    0.0000 H   0  0
    1.2993    4.7521    0.0000 H   0  0
   -3.4647    1.0001    0.0000 H   0  0
   -3.4651    2.0000    0.0000 H   0  0
   -3.4658    3.5012    0.0000 H   0  0
   -2.1651   -1.2500    0.0000 H   0  0
  1  2  1  0
  1  3  2  0
  1 12  1  0
  3  4  1  0
  3  5  1  0
  5  6  1  0
  5  8  2  0
  6  7  1  0
  8  9  1  0
  8 11  1  0
  9 10  1  0
 11 12  2  0
  2 13  1  0
  2 14  1  0
  2 15  1  0
  4 16  1  0
  6 17  1  0
  6 18  1  0
  7 19  1  0
  9 20  1  0
  9 21  1  0
 10 22  1  0
 11 23  1  0
V    1 0
V    2 1
V    3 2
V    4 3
V    5 4
V    6 5
V    7 6
V    8 7
V    9 8
V   10 9
V   11 10
V   12 11
M  END
> <DSSTox_RID>
66870

> <DSSTox_CID>
3541

> <DSSTox_CID_Parent>
3541

> <DSSTox_Generic_SID>
23541

> <DSSTox_FileID>
339_TXCST2_v1a

> <STRUCTURE_Formula>
C8H11NO3

> <STRUCTURE_MolecularWeight>
169.1778

> <STRUCTURE_ChemicalType>
defined organic

> <STRUCTURE_TestedForm_DefinedOrganic>
parent

> <STRUCTURE_Shown>
tested chemical

> <TestSubstance_ChemicalName>
Pyridoxine

> <TestSubstance_CASRN>
65-23-6

> <TestSubstance_Description>
single chemical compound

> <STRUCTURE_ChemicalName_IUPAC>
4,5-bis(hydroxymethyl)-2-methylpyridin-3-ol

> <STRUCTURE_SMILES>
C1(C)=C(O)C(CO)=C(CO)C=N1

> <STRUCTURE_Parent_SMILES>
C1(C)=C(O)C(CO)=C(CO)C=N1

> <STRUCTURE_InChIS>
InChI=1S/C8H11NO3/c1-5-8(12)7(4-11)6(3-10)2-9-5/h2,10-12H,3-4H2,1H3

> <STRUCTURE_InChIKey>
LXNHXLLTXMVWPM-UHFFFAOYSA-N

> <Substance_modify_yyyymmdd>
20080429

> <Coord_Metals>
0

> <Index>
339

> <Canonical_Smiles>
Cc1ncc(CO)c(CO)c1O

> <Molecular_Weight>
169.17783

> <Frequency>
1

$$$$

  SciTegic          2D

 51 51  0  0  0  0            999 V2000
    1.2990   -0.7500    0.0000 C   0  0
    1.2990    0.7500    0.0000 C   0  0
    0.0000    1.5000    0.0000 C   0  0
   -1.2990    0.7500    0.0000 C   0  0
   -2.5988    1.5004    0.0000 C   0  0
   -1.2990   -0.7500    0.0000 C   0  0
   -2.7776   -1.0076    0.0000 C   0  0
   -3.2947   -2.4165    0.0000 C   0  0
   -4.7733   -2.6741    0.0000 C   0  0
   -5.7376   -1.5241    0.0000 C   0  0
   -5.2904   -4.0830    0.0000 C   0  0
   -6.7689   -4.3406    0.0000 C   0  0
   -7.2860   -5.7495    0.0000 C   0  0
   -8.7646   -6.0071    0.0000 C   0  0
   -9.7289   -4.8571    0.0000 C   0  0
   -9.2817   -7.4161    0.0000 C   0  0
  -10.7602   -7.6736    0.0000 C   0  0
  -11.2773   -9.0826    0.0000 O   0  0
    0.0000   -1.5000    0.0000 C   0  0
    1.2999   -2.2084    0.0000 C   0  0
   -1.3002   -2.2088    0.0000 C   0  0
    2.1530   -0.2297    0.0000 H   0  0
    0.4450   -0.2298    0.0000 H   0  0
    2.1530    0.2297    0.0000 H   0  0
    1.2755    1.7497    0.0000 H   0  0
   -0.0236    0.5003    0.0000 H   0  0
   -0.8775    1.9795    0.0000 H   0  0
   -2.5994    2.5004    0.0000 H   0  0
   -3.4647    1.0001    0.0000 H   0  0
   -3.4651    2.0000    0.0000 H   0  0
   -3.4186   -0.2400    0.0000 H   0  0
   -2.6537   -3.1841    0.0000 H   0  0
   -6.7226   -1.6968    0.0000 H   0  0
   -5.3950   -0.5846    0.0000 H   0  0
   -6.3798   -0.7575    0.0000 H   0  0
   -4.6494   -4.8506    0.0000 H   0  0
   -7.4099   -3.5730    0.0000 H   0  0
   -6.6450   -6.5171    0.0000 H   0  0
  -10.7139   -5.0298    0.0000 H   0  0
   -9.3863   -3.9176    0.0000 H   0  0
  -10.3711   -4.0906    0.0000 H   0  0
   -8.6407   -8.1836    0.0000 H   0  0
  -11.7455   -7.8448    0.0000 H   0  0
  -11.4012   -6.9061    0.0000 H   0  0
  -12.2625   -9.2542    0.0000 H   0  0
    2.1662   -1.7088    0.0000 H   0  0
    2.1658   -2.7086    0.0000 H   0  0
    1.2998   -3.2084    0.0000 H   0  0
   -1.3009   -3.2088    0.0000 H   0  0
   -2.1665   -2.7082    0.0000 H   0  0
   -2.1660   -1.7084    0.0000 H   0  0
  1  2  1  0
  1 19  1  0
  2  3  1  0
  3  4  1  0
  4  5  1  0
  4  6  2  0
  7  6  1  0
  6 19  1  0
  7  8  2  0
  8  9  1  0
  9 10  1  0
  9 11  2  0
 11 12  1  0
 12 13  2  0
 13 14  1  0
 14 15  1  0
 14 16  2  0
 16 17  1  0
 17 18  1  0
 19 20  1  0
 19 21  1  0
  1 22  1  0
  1 23  1  0
  2 24  1  0
  2 25  1  0
  3 26  1  0
  3 27  1  0
  5 28  1  0
  5 29  1  0
  5 30  1  0
  7 31  1  0
  8 32  1  0
 10 33  1  0
 10 34  1  0
 10 35  1  0
 11 36  1  0
 12 37  1  0
 13 38  1  0
 15 39  1  0
 15 40  1  0
 15 41  1  0
 16 42  1  0
 17 43  1  0
 17 44  1  0
 18 45  1  0
 20 46  1  0
 20 47  1  0
 20 48  1  0
 21 49  1  0
 21 50  1  0
 21 51  1  0
V    1 0
V    2 1
V    3 2
V    4 3
V    5 4
V    6 5
V    7 6
V    8 7
V    9 8
V   10 9
V   11 10
V   12 11
V   13 12
V   14 13
V   15 14
V   16 15
V   17 16
V   18 17
V   19 18
V   20 19
V   21 20
M  END
> <DSSTox_RID>
61739

> <DSSTox_CID>
3556

> <DSSTox_CID_Parent>
3556

> <DSSTox_Generic_SID>
23556

> <DSSTox_FileID>
340_TXCST2_v1a

> <STRUCTURE_Formula>
C20H30O

> <STRUCTURE_MolecularWeight>
286.4516

> <STRUCTURE_ChemicalType>
defined organic

> <STRUCTURE_TestedForm_DefinedOrganic>
parent

> <STRUCTURE_Shown>
tested chemical

> <TestSubstance_ChemicalName>
Retinol

> <TestSubstance_CASRN>
68-26-8

> <TestSubstance_Description>
single chemical compound

> <ChemicalNote>
stereochem

> <STRUCTURE_ChemicalName_IUPAC>
retinol

> <STRUCTURE_SMILES>
C1CCC(C)=C(C=CC(C)=CC=CC(C)=CCO)C1(C)C

> <STRUCTURE_Parent_SMILES>
C1CCC(C)=C(C=CC(C)=CC=CC(C)=CCO)C1(C)C

> <STRUCTURE_InChIS>
InChI=1S/C20H30O/c1-16(8-6-9-17(2)13-15-21)11-12-19-18(3)10-7-14-20(19,4)5/h6,8-9,11-13,21H,7,10,14-15H2,1-5H3/b9-6+,12-11+,16-8+,17-13+

> <STRUCTURE_InChIKey>
FPIPGXGPPPQFEQ-OVSJKPMPSA-N

> <Substance_modify_yyyymmdd>
20080429

> <Coord_Metals>
0

> <Index>
340

> <Canonical_Smiles>
CC(=CCO)C=CC=C(C)C=CC1=C(C)CCCC1(C)C

> <Molecular_Weight>
286.4516

> <Frequency>
1

$$$$

  SciTegic          2D

 68 70  0  0  0  0            999 V2000
    2.5123   -4.1117    0.0000 C   0  0
    1.2908   -3.2459    0.0000 C   0  0
    1.4298   -1.7553    0.0000 C   0  0
   -0.3357    0.1539    0.0000 C   0  0
   -4.2505   -0.4786    0.0000 C   0  0
    2.3733   -5.6023    0.0000 C   0  0
    1.0903   -0.3143    0.0000 O   0  0
    3.8728   -3.4870    0.0000 C   0  0
   -0.0697   -3.8706    0.0000 C   0  0
   -3.3396   -1.6704    0.0000 O   0  0
    1.0023   -6.2419    0.0000 C   0  0
   -5.7381   -0.6715    0.0000 C   0  0
   -0.6441    1.6227    0.0000 C   0  0
   -1.5420   -4.0232    0.0000 C   0  0
    2.7903   -1.1306    0.0000 C   0  0
   -0.2192   -5.3760    0.0000 C   0  0
   -3.9415   -3.0221    0.0000 C   0  0
   -1.0807   -0.5132    0.0000 O   0  0
   -6.3147   -2.0563    0.0000 C   0  0
   -3.7892    0.6292    0.0000 O   0  0
    4.0118   -1.9964    0.0000 C   0  0
   -5.4038   -3.2480    0.0000 C   0  0
   -2.4530   -2.8305    0.0000 C   0  0
   -7.1845   -0.8583    0.0000 O   0  0
   -2.0700    2.0909    0.0000 C   0  0
   -1.7820    0.6000    0.0000 C   0  0
    0.4740    2.6238    0.0000 C   0  0
   -0.3252   -6.8529    0.0000 C   0  0
    5.1981   -2.8820    0.0000 C   0  0
   -2.3785    3.5597    0.0000 C   0  0
    0.4750   -2.6675    0.0000 H   0  0
    0.5315   -2.1948    0.0000 H   0  0
    3.1909   -6.1782    0.0000 H   0  0
    4.6886   -4.0654    0.0000 H   0  0
    0.0508   -2.8778    0.0000 H   0  0
    0.9123   -7.2379    0.0000 H   0  0
   -6.7264   -0.8236    0.0000 H   0  0
   -5.3321    0.2423    0.0000 H   0  0
   -2.5338   -4.1514    0.0000 H   0  0
   -1.9271   -4.9461    0.0000 H   0  0
    3.7086   -0.7348    0.0000 H   0  0
    1.9611   -0.5715    0.0000 H   0  0
   -1.0190   -4.7757    0.0000 H   0  0
   -4.3251   -3.9456    0.0000 H   0  0
   -6.6764   -2.9886    0.0000 H   0  0
    3.1136   -2.4360    0.0000 H   0  0
   -4.7694   -4.0210    0.0000 H   0  0
   -6.3968   -3.3665    0.0000 H   0  0
   -2.0679   -1.9076    0.0000 H   0  0
   -1.4612   -2.7024    0.0000 H   0  0
   -6.8004    0.0650    0.0000 H   0  0
   -2.8150    1.4238    0.0000 H   0  0
   -1.8650    1.1121    0.0000 H   0  0
   -1.5756   -0.3785    0.0000 H   0  0
   -2.5261   -0.0681    0.0000 H   0  0
   -2.7327    0.9102    0.0000 H   0  0
    0.2694    3.6027    0.0000 H   0  0
    1.4241    2.3118    0.0000 H   0  0
    1.2193    3.2905    0.0000 H   0  0
    0.4886   -7.4340    0.0000 H   0  0
   -0.4214   -7.8483    0.0000 H   0  0
   -1.2353   -7.2674    0.0000 H   0  0
    5.1057   -3.8777    0.0000 H   0  0
    6.0141   -3.4601    0.0000 H   0  0
    6.1068   -2.4645    0.0000 H   0  0
   -3.3285    3.8716    0.0000 H   0  0
   -1.6335    4.2268    0.0000 H   0  0
   -2.5835    4.5384    0.0000 H   0  0
  1  2  1  0
  1  6  1  0
  1  8  2  0
  2  3  1  0
  2  9  1  0
  3  7  1  0
  3 15  1  0
  4  7  1  0
  4 13  1  0
  4 18  2  0
  5 10  1  0
  5 20  2  0
  5 12  1  0
  6 11  2  0
  8 21  1  0
  9 14  1  0
  9 16  1  0
 10 17  1  0
 11 16  1  0
 12 19  1  0
 13 25  1  0
 13 26  1  0
 13 27  1  0
 14 23  1  0
 15 21  1  0
 16 28  1  0
 17 23  1  0
 17 22  1  0
 19 22  1  0
 19 24  1  0
 21 29  1  0
 25 30  1  0
  2 31  1  0
  3 32  1  0
  6 33  1  0
  8 34  1  0
  9 35  1  0
 11 36  1  0
 12 37  1  0
 12 38  1  0
 14 39  1  0
 14 40  1  0
 15 41  1  0
 15 42  1  0
 16 43  1  0
 17 44  1  0
 19 45  1  0
 21 46  1  0
 22 47  1  0
 22 48  1  0
 23 49  1  0
 23 50  1  0
 24 51  1  0
 25 52  1  0
 25 53  1  0
 26 54  1  0
 26 55  1  0
 26 56  1  0
 27 57  1  0
 27 58  1  0
 27 59  1  0
 28 60  1  0
 28 61  1  0
 28 62  1  0
 29 63  1  0
 29 64  1  0
 29 65  1  0
 30 66  1  0
 30 67  1  0
 30 68  1  0
V    1 0
V    2 1
V    3 2
V    4 3
V    5 4
V    6 5
V    7 6
V    8 7
V    9 8
V   10 9
V   11 10
V   12 11
V   13 12
V   14 13
V   15 14
V   16 15
V   17 16
V   18 17
V   19 18
V   20 19
V   21 20
V   22 21
V   23 22
V   24 23
V   25 24
V   26 25
V   27 26
V   28 27
V   29 28
V   30 29
M  END
> <DSSTox_RID>
60353

> <DSSTox_CID>
3581

> <DSSTox_CID_Parent>
3581

> <DSSTox_Generic_SID>
23581

> <DSSTox_FileID>
341_TXCST2_v1a

> <STRUCTURE_Formula>
C25H38O5

> <STRUCTURE_MolecularWeight>
418.5662

> <STRUCTURE_ChemicalType>
defined organic

> <STRUCTURE_TestedForm_DefinedOrganic>
parent

> <STRUCTURE_Shown>
tested chemical

> <TestSubstance_ChemicalName>
Simvastatin

> <TestSubstance_CASRN>
79902-63-9

> <TestSubstance_Description>
single chemical compound

> <ChemicalNote>
stereochem

> <STRUCTURE_ChemicalName_IUPAC>
(1S,3R,7S,8S,8aR)-8-{2-[(2R,4R)-4-hydroxy-6-oxotetrahydro-2H-pyran-2-yl]ethyl}-3,7-dimethyl-1,2,3,7,8,8a-hexahydronaphthalen-1-yl 2,2-dimethylbutanoate

> <STRUCTURE_SMILES>
O=C(C(C)(C)CC)O[C@@H]1[C@@]2([H])C(C=C[C@H](C)[C@@H]2CC[C@H]3OC(C[C@H](O)C3)=O)=C[C@H](C)C1

> <STRUCTURE_Parent_SMILES>
O=C(C(C)(C)CC)O[C@@H]1[C@@]2([H])C(C=C[C@H](C)[C@@H]2CC[C@H]3OC(C[C@H](O)C3)=O)=C[C@H](C)C1

> <STRUCTURE_InChIS>
InChI=1S/C25H38O5/c1-6-25(4,5)24(28)30-21-12-15(2)11-17-8-7-16(3)20(23(17)21)10-9-19-13-18(26)14-22(27)29-19/h7-8,11,15-16,18-21,23,26H,6,9-10,12-14H2,1-5H3/t15-,16-,18+,19+,20-,21-,23-/m0/s1

> <STRUCTURE_InChIKey>
RYMZZMVNJRMUDD-HGQWONQESA-N

> <Substance_modify_yyyymmdd>
20080429

> <Coord_Metals>
0

> <Index>
341

> <Canonical_Smiles>
CCC(C)(C)C(=O)OC1CC(C)C=C2C=CC(C)C(CCC3CC(O)CC(=O)O3)C12

> <Molecular_Weight>
418.56622

> <Frequency>
1

$$$$

  SciTegic          2D

 16 15  0  0  0  0            999 V2000
    5.2000    0.0000    0.0000 C   0  0
    3.9000    0.7500    0.0000 C   0  0
    2.6000    0.0000    0.0000 C   0  0
    6.5000    0.7500    0.0000 C   0  0
    2.6000   -1.2000    0.0000 O   0  0
    6.5000    1.9500    0.0000 O   0  0
    5.2000   -1.5007    0.0000 O   0  0
    3.9000    2.2507    0.0000 O   0  0
    1.3000    0.7500    0.0000 O   0  0
    7.7999    0.0000    0.0000 O   0  0
    6.0659   -0.5001    0.0000 H   0  0
    3.0340    1.2501    0.0000 H   0  0
    4.3343   -2.0013    0.0000 H   0  0
    4.7657    2.7513    0.0000 H   0  0
    0.4338    0.2503    0.0000 H   0  0
    8.6661    0.4997    0.0000 H   0  0
  1  2  1  0
  1  4  1  0
  1  7  1  0
  2  3  1  0
  2  8  1  0
  3  5  2  0
  3  9  1  0
  4  6  2  0
  4 10  1  0
  1 11  1  0
  2 12  1  0
  7 13  1  0
  8 14  1  0
  9 15  1  0
 10 16  1  0
V    1 0
V    2 1
V    3 2
V    4 3
V    5 4
V    6 5
V    7 6
V    8 7
V    9 8
V   10 9
M  END
> <DSSTox_RID>
61558

> <DSSTox_CID>
3632

> <DSSTox_CID_Parent>
3632

> <DSSTox_Generic_SID>
23632

> <DSSTox_FileID>
342_TXCST2_v1a

> <STRUCTURE_Formula>
C4H6O6

> <STRUCTURE_MolecularWeight>
150.0868

> <STRUCTURE_ChemicalType>
defined organic

> <STRUCTURE_TestedForm_DefinedOrganic>
parent

> <STRUCTURE_Shown>
tested chemical

> <TestSubstance_ChemicalName>
Tartaric acid

> <TestSubstance_CASRN>
87-69-4

> <TestSubstance_Description>
single chemical compound

> <ChemicalNote>
stereochem

> <STRUCTURE_ChemicalName_IUPAC>
(2R,3R)-2,3-dihydroxybutanedioic acid

> <STRUCTURE_SMILES>
O=C(O)[C@H](O)[C@@H](O)C(O)=O

> <STRUCTURE_Parent_SMILES>
O=C(O)[C@H](O)[C@@H](O)C(O)=O

> <STRUCTURE_InChIS>
InChI=1S/C4H6O6/c5-1(3(7)8)2(6)4(9)10/h1-2,5-6H,(H,7,8)(H,9,10)/t1-,2-/m1/s1

> <STRUCTURE_InChIKey>
FEWJPZIEWOKRBE-JCYAYHJZSA-N

> <Substance_modify_yyyymmdd>
20090326

> <Coord_Metals>
0

> <Index>
342

> <Canonical_Smiles>
OC(C(O)C(=O)O)C(=O)O

> <Molecular_Weight>
150.08683

> <Frequency>
1

$$$$

  SciTegic          2D

 56 59  0  0  0  0            999 V2000
    1.9711    0.2243    0.0000 C   0  0
   -0.6089    0.2243    0.0000 C   0  0
    4.5671    0.2243    0.0000 C   0  0
    0.6891    0.9935    0.0000 C   0  0
    3.2691    0.9935    0.0000 C   0  0
    1.9711   -1.2660    0.0000 C   0  0
    4.5671   -1.2660    0.0000 C   0  0
   -1.9070    0.9935    0.0000 C   0  0
   -0.6089   -1.2660    0.0000 C   0  0
   -3.2050    0.2243    0.0000 C   0  0
   -1.9070   -2.0191    0.0000 C   0  0
   -3.2050   -1.2660    0.0000 C   0  0
    3.2691   -2.0191    0.0000 C   0  0
    0.6891   -2.0191    0.0000 C   0  0
    5.8752    0.9603    0.0000 C   0  0
    3.2722    2.4940    0.0000 O   0  0
   -1.9070    2.1935    0.0000 O   0  0
    4.2482   -3.1297    0.0000 N   0  0
   -4.5030    0.9935    0.0000 C   0  0
    1.9739    1.7256    0.0000 O   0  0
    6.9076    0.3486    0.0000 O   0  0
    0.6937    2.4940    0.0000 O   0  0
    5.4337   -1.7650    0.0000 O   0  0
   -0.6070   -2.7279    0.0000 O   0  0
    5.8928    2.4611    0.0000 N   0  0
   -4.5030   -2.0191    0.0000 C   0  0
   -3.2071   -2.7282    0.0000 C   0  0
   -4.5061    2.4940    0.0000 O   0  0
   -5.8010   -1.2660    0.0000 C   0  0
   -5.8010    0.2243    0.0000 C   0  0
    5.7263   -2.8697    0.0000 C   0  0
    3.7376   -4.5410    0.0000 C   0  0
    1.9738   -2.2660    0.0000 H   0  0
    0.2571   -0.7660    0.0000 H   0  0
    3.2934   -1.0194    0.0000 H   0  0
   -0.1870   -2.5013    0.0000 H   0  0
    1.5677   -2.4966    0.0000 H   0  0
    4.1389    2.9928    0.0000 H   0  0
    1.1091    2.2277    0.0000 H   0  0
   -0.1705    2.9972    0.0000 H   0  0
    0.2592   -2.2282    0.0000 H   0  0
    6.7642    2.9515    0.0000 H   0  0
    5.0325    2.9709    0.0000 H   0  0
   -4.5030   -3.0191    0.0000 H   0  0
   -3.2079   -3.7282    0.0000 H   0  0
   -2.3414   -3.2287    0.0000 H   0  0
   -4.0729   -2.2278    0.0000 H   0  0
   -5.3728    2.9928    0.0000 H   0  0
   -6.6676   -1.7650    0.0000 H   0  0
   -6.6698    0.7194    0.0000 H   0  0
    6.3693   -3.6356    0.0000 H   0  0
    6.0685   -1.9301    0.0000 H   0  0
    6.7111   -2.6960    0.0000 H   0  0
    4.3814   -5.3062    0.0000 H   0  0
    2.7531   -4.7163    0.0000 H   0  0
    3.3970   -5.4812    0.0000 H   0  0
  1  4  1  0
  1  5  1  0
  1  6  1  0
  1 20  1  0
  2  4  2  0
  2  8  1  0
  2  9  1  0
  3  5  2  0
  3 15  1  0
  3  7  1  0
  4 22  1  0
  5 16  1  0
  6 13  1  0
  6 14  1  0
  7 13  1  0
  7 23  2  0
  8 10  1  0
  8 17  2  0
  9 14  1  0
  9 11  1  0
 10 19  2  0
 10 12  1  0
 11 12  1  0
 11 24  1  0
 11 27  1  0
 12 26  2  0
 13 18  1  0
 15 21  2  0
 15 25  1  0
 18 31  1  0
 18 32  1  0
 19 28  1  0
 19 30  1  0
 26 29  1  0
 29 30  2  0
  6 33  1  0
  9 34  1  0
 13 35  1  0
 14 36  1  0
 14 37  1  0
 16 38  1  0
 20 39  1  0
 22 40  1  0
 24 41  1  0
 25 42  1  0
 25 43  1  0
 26 44  1  0
 27 45  1  0
 27 46  1  0
 27 47  1  0
 28 48  1  0
 29 49  1  0
 30 50  1  0
 31 51  1  0
 31 52  1  0
 31 53  1  0
 32 54  1  0
 32 55  1  0
 32 56  1  0
V    1 0
V    2 1
V    3 2
V    4 3
V    5 4
V    6 5
V    7 6
V    8 7
V    9 8
V   10 9
V   11 10
V   12 11
V   13 12
V   14 13
V   15 14
V   16 15
V   17 16
V   18 17
V   19 18
V   20 19
V   21 20
V   22 21
V   23 22
V   24 23
V   25 24
V   26 25
V   27 26
V   28 27
V   29 28
V   30 29
V   31 30
V   32 31
M  END
> <DSSTox_RID>
65865

> <DSSTox_CID>
3645

> <DSSTox_CID_Parent>
3645

> <DSSTox_Generic_SID>
23645

> <DSSTox_FileID>
343_TXCST2_v1a

> <STRUCTURE_Formula>
C22H24N2O8

> <STRUCTURE_MolecularWeight>
444.4346

> <STRUCTURE_ChemicalType>
defined organic

> <STRUCTURE_TestedForm_DefinedOrganic>
parent

> <STRUCTURE_Shown>
tested chemical

> <TestSubstance_ChemicalName>
Tetracycline

> <TestSubstance_CASRN>
60-54-8

> <TestSubstance_Description>
single chemical compound

> <ChemicalNote>
stereochem; tautomers

> <STRUCTURE_ChemicalName_IUPAC>
(4S,4aS,5aS,6S,12aS)-4-(dimethylamino)-3,6,10,12,12a-pentahydroxy-6-methyl-1,11-dioxo-1,4,4a,5,5a,6,11,12a-octahydrotetracene-2-carboxamide

> <STRUCTURE_SMILES>
[C@]43(\C(=C2\C(c1c(O)cccc1[C@]([C@H]2C[C@H]3[C@@H](/C(=C(\C4=O)C(=O)N)O)N(C)C)(O)C)=O)O)O

> <STRUCTURE_Parent_SMILES>
[C@]43(\C(=C2\C(c1c(O)cccc1[C@]([C@H]2C[C@H]3[C@@H](/C(=C(\C4=O)C(=O)N)O)N(C)C)(O)C)=O)O)O

> <STRUCTURE_InChIS>
InChI=1S/C22H24N2O8/c1-21(31)8-5-4-6-11(25)12(8)16(26)13-9(21)7-10-15(24(2)3)17(27)14(20(23)30)19(29)22(10,32)18(13)28/h4-6,9-10,15,25,27-28,31-32H,7H2,1-3H3,(H2,23,30)/t9-,10-,15-,21+,22-/m0/s1

> <STRUCTURE_InChIKey>
OFVLGDICTFRJMM-WESIUVDSSA-N

> <Substance_modify_yyyymmdd>
20080429

> <Coord_Metals>
0

> <Index>
343

> <Canonical_Smiles>
CN(C)C1C2CC3C(=C(O)C2(O)C(=C(C(=O)N)C1=O)O)C(=O)c4c(O)cccc4C3(C)O

> <Molecular_Weight>
444.43456

> <Frequency>
1

$$$$

  SciTegic          2D

 16 17  0  0  0  0            999 V2000
    0.2917   -0.7475    0.0000 C   0  0
   -1.0028   -1.5132    0.0000 N   0  0
    0.2917    0.7475    0.0000 C   0  0
   -2.3155    0.7475    0.0000 N   0  0
   -1.0028    1.5132    0.0000 C   0  0
   -2.3155   -0.7475    0.0000 C   0  0
    1.7138   -1.2033    0.0000 N   0  0
    1.7138    1.2033    0.0000 N   0  0
    2.5889    0.0182    0.0000 C   0  0
   -0.9971    3.0138    0.0000 S   0  0
   -3.6217   -1.4865    0.0000 N   0  0
    2.0210    2.1549    0.0000 H   0  0
    3.5889    0.0254    0.0000 H   0  0
   -1.8609    3.5176    0.0000 H   0  0
   -4.4836   -0.9794    0.0000 H   0  0
   -3.6302   -2.4865    0.0000 H   0  0
  1  2  2  0
  1  3  1  0
  1  7  1  0
  2  6  1  0
  3  5  2  0
  3  8  1  0
  4  5  1  0
  4  6  2  0
  5 10  1  0
  6 11  1  0
  7  9  2  0
  8  9  1  0
  8 12  1  0
  9 13  1  0
 10 14  1  0
 11 15  1  0
 11 16  1  0
V    1 0
V    2 1
V    3 2
V    4 3
V    5 4
V    6 5
V    7 6
V    8 7
V    9 8
V   10 9
V   11 10
M  END
> <DSSTox_RID>
66255

> <DSSTox_CID>
3652

> <DSSTox_CID_Parent>
3652

> <DSSTox_Generic_SID>
23652

> <DSSTox_FileID>
344_TXCST2_v1a

> <STRUCTURE_Formula>
C5H5N5S

> <STRUCTURE_MolecularWeight>
167.1917

> <STRUCTURE_ChemicalType>
defined organic

> <STRUCTURE_TestedForm_DefinedOrganic>
parent

> <STRUCTURE_Shown>
tested chemical

> <TestSubstance_ChemicalName>
6-Thioguanine

> <TestSubstance_CASRN>
154-42-7

> <TestSubstance_Description>
single chemical compound

> <ChemicalNote>
tautomers

> <STRUCTURE_ChemicalName_IUPAC>
2-amino-1,7-dihydro-6H-purine-6-thione

> <STRUCTURE_SMILES>
S=C1C2=C(N=CN2)N=C(N)N1

> <STRUCTURE_Parent_SMILES>
S=C1C2=C(N=CN2)N=C(N)N1

> <STRUCTURE_InChIS>
InChI=1S/C5H5N5S/c6-5-9-3-2(4(11)10-5)7-1-8-3/h1H,(H4,6,7,8,9,10,11)

> <STRUCTURE_InChIKey>
WYWHKKSPHMUBEB-UHFFFAOYSA-N

> <Substance_modify_yyyymmdd>
20080429

> <Coord_Metals>
0

> <Index>
344

> <Canonical_Smiles>
Nc1nc(S)c2[nH]cnc2n1

> <Molecular_Weight>
167.19169

> <Frequency>
1

$$$$

  SciTegic          2D

 58 61  0  0  0  0            999 V2000
   -2.6111    0.7486    0.0000 C   0  0
   -3.9106    1.4992    0.0000 C   0  0
   -2.6111   -0.7486    0.0000 C   0  0
   -3.9091   -1.5019    0.0000 O   0  0
   -1.2964   -1.4973    0.0000 C   0  0
   -1.2876   -2.9981    0.0000 C   0  0
    0.0000   -0.7486    0.0000 C   0  0
    0.0000    0.7486    0.0000 C   0  0
   -1.2964    1.4973    0.0000 C   0  0
   -1.2876    2.9981    0.0000 C   0  0
    1.2964    1.4973    0.0000 O   0  0
    2.5929    0.7486    0.0000 C   0  0
    3.8567   -0.0230    0.0000 C   0  0
    2.5565    2.2286    0.0000 C   0  0
    1.2571    2.9796    0.0000 O   0  0
    1.2568    4.4805    0.0000 C   0  0
   -0.0408    5.2330    0.0000 C   0  0
   -0.0380    6.7330    0.0000 C   0  0
    1.2624    7.4806    0.0000 C   0  0
    1.2652    8.9814    0.0000 C   0  0
   -0.0326    9.7350    0.0000 C   0  0
   -0.1377    8.2753    0.0000 S   0  0
   -1.6057    7.9669    0.0000 C   0  0
   -2.0963    6.8718    0.0000 O   0  0
   -2.3526    9.2677    0.0000 N   0  0
   -1.3463   10.3800    0.0000 C   0  0
   -1.5724   11.5586    0.0000 O   0  0
    2.5601    6.7281    0.0000 C   0  0
    2.5573    5.2281    0.0000 C   0  0
    2.5929   -0.7486    0.0000 C   0  0
    1.2964   -1.4973    0.0000 C   0  0
   -4.7770    0.9999    0.0000 H   0  0
   -3.9102    2.4992    0.0000 H   0  0
   -4.7763    1.9998    0.0000 H   0  0
   -3.9075   -2.5019    0.0000 H   0  0
   -2.1503   -3.5038    0.0000 H   0  0
   -0.4185   -3.4927    0.0000 H   0  0
   -1.2812   -3.9981    0.0000 H   0  0
   -2.1503    3.5038    0.0000 H   0  0
   -0.4185    3.4927    0.0000 H   0  0
   -1.2812    3.9981    0.0000 H   0  0
    4.7231    0.4763    0.0000 H   0  0
    4.7224   -0.5236    0.0000 H   0  0
    3.8562   -1.0230    0.0000 H   0  0
    2.5568    3.2286    0.0000 H   0  0
    3.4226    2.7285    0.0000 H   0  0
   -0.9078    4.7346    0.0000 H   0  0
   -0.9031    7.2346    0.0000 H   0  0
    2.1324    9.4795    0.0000 H   0  0
    2.1302    8.4796    0.0000 H   0  0
   -0.0305   10.7350    0.0000 H   0  0
   -3.3469    9.3745    0.0000 H   0  0
    3.4270    7.2265    0.0000 H   0  0
    3.4224    4.7265    0.0000 H   0  0
    2.5693   -1.7484    0.0000 H   0  0
    3.4469   -0.2284    0.0000 H   0  0
    2.1740   -1.9767    0.0000 H   0  0
    0.4189   -1.9768    0.0000 H   0  0
  1  2  1  0
  1  3  2  0
  1  9  1  0
  3  4  1  0
  3  5  1  0
  5  6  1  0
  5  7  2  0
  7  8  1  0
  7 31  1  0
  8  9  2  0
  8 11  1  0
  9 10  1  0
 11 12  1  0
 12 13  1  0
 12 14  1  0
 12 30  1  0
 14 15  1  0
 15 16  1  0
 16 17  2  0
 16 29  1  0
 17 18  1  0
 18 19  2  0
 19 20  1  0
 19 28  1  0
 20 21  1  0
 21 22  1  0
 21 26  1  0
 22 23  1  0
 23 24  2  0
 23 25  1  0
 25 26  1  0
 26 27  2  0
 28 29  2  0
 30 31  1  0
  2 32  1  0
  2 33  1  0
  2 34  1  0
  4 35  1  0
  6 36  1  0
  6 37  1  0
  6 38  1  0
 10 39  1  0
 10 40  1  0
 10 41  1  0
 13 42  1  0
 13 43  1  0
 13 44  1  0
 14 45  1  0
 14 46  1  0
 17 47  1  0
 18 48  1  0
 20 49  1  0
 20 50  1  0
 21 51  1  0
 25 52  1  0
 28 53  1  0
 29 54  1  0
 30 55  1  0
 30 56  1  0
 31 57  1  0
 31 58  1  0
V    1 0
V    2 1
V    3 2
V    4 3
V    5 4
V    6 5
V    7 6
V    8 7
V    9 8
V   10 9
V   11 10
V   12 11
V   13 12
V   14 13
V   15 14
V   16 15
V   17 16
V   18 17
V   19 18
V   20 19
V   21 20
V   22 21
V   23 22
V   24 23
V   25 24
V   26 25
V   27 26
V   28 27
V   29 28
V   30 29
V   31 30
M  END
> <DSSTox_RID>
66829

> <DSSTox_CID>
3719

> <DSSTox_CID_Parent>
3719

> <DSSTox_Generic_SID>
23719

> <DSSTox_FileID>
345_TXCST2_v1a

> <STRUCTURE_Formula>
C24H27NO5S

> <STRUCTURE_MolecularWeight>
441.5399

> <STRUCTURE_ChemicalType>
defined organic

> <STRUCTURE_TestedForm_DefinedOrganic>
parent

> <STRUCTURE_Shown>
tested chemical

> <TestSubstance_ChemicalName>
Troglitazone

> <TestSubstance_CASRN>
97322-87-7

> <TestSubstance_Description>
single chemical compound

> <STRUCTURE_ChemicalName_IUPAC>
5-[(4-{[(6-hydroxy-2,5,7,8-tetramethyl-3,4-dihydro-2H-chromen-2-yl)methyl]oxy}phenyl)methyl]-1,3-thiazolidine-2,4-dione

> <STRUCTURE_SMILES>
C1(C)=C(O)C(C)=C4C(=C1C)OC(C)(COC3=CC=C(CC2SC(=O)NC2=O)C=C3)CC4

> <STRUCTURE_Parent_SMILES>
C1(C)=C(O)C(C)=C4C(=C1C)OC(C)(COC3=CC=C(CC2SC(=O)NC2=O)C=C3)CC4

> <STRUCTURE_InChIS>
InChI=1S/C24H27NO5S/c1-13-14(2)21-18(15(3)20(13)26)9-10-24(4,30-21)12-29-17-7-5-16(6-8-17)11-19-22(27)25-23(28)31-19/h5-8,19,26H,9-12H2,1-4H3,(H,25,27,28)

> <STRUCTURE_InChIKey>
GXPHKUHSUJUWKP-UHFFFAOYSA-N

> <Substance_modify_yyyymmdd>
20080429

> <Coord_Metals>
0

> <Index>
345

> <Canonical_Smiles>
Cc1c(C)c2OC(C)(COc3ccc(CC4SC(=O)NC4=O)cc3)CCc2c(C)c1O

> <Molecular_Weight>
441.53988

> <Frequency>
1

$$$$

  SciTegic          2D

 26 25  0  0  0  0            999 V2000
    5.2000   -1.5007    0.0000 C   0  0
    6.2394   -2.1004    0.0000 O   0  0
    3.9007   -2.2520    0.0000 O   0  0
    5.2000    0.0000    0.0000 C   0  0
    3.9000    0.7500    0.0000 C   0  0
    2.6000    0.0000    0.0000 C   0  0
    1.3000    0.7500    0.0000 C   0  0
    6.5000    0.7500    0.0000 C   0  0
    7.7999    0.0000    0.0000 C   0  0
    9.0999    0.7500    0.0000 C   0  0
    3.9007   -3.2520    0.0000 H   0  0
    4.3340   -0.5001    0.0000 H   0  0
    3.0340    1.2501    0.0000 H   0  0
    3.9000    1.7500    0.0000 H   0  0
    1.7340   -0.5001    0.0000 H   0  0
    2.6000   -1.0000    0.0000 H   0  0
    0.4338    0.2503    0.0000 H   0  0
    0.4340    1.2501    0.0000 H   0  0
    1.3000    1.7500    0.0000 H   0  0
    5.6340    1.2501    0.0000 H   0  0
    6.5000    1.7500    0.0000 H   0  0
    6.9340   -0.5001    0.0000 H   0  0
    7.7999   -1.0000    0.0000 H   0  0
    9.9661    0.2503    0.0000 H   0  0
    9.9659    1.2501    0.0000 H   0  0
    9.0999    1.7500    0.0000 H   0  0
  1  2  2  0
  1  3  1  0
  1  4  1  0
  4  5  1  0
  4  8  1  0
  5  6  1  0
  6  7  1  0
  8  9  1  0
  9 10  1  0
  3 11  1  0
  4 12  1  0
  5 13  1  0
  5 14  1  0
  6 15  1  0
  6 16  1  0
  7 17  1  0
  7 18  1  0
  7 19  1  0
  8 20  1  0
  8 21  1  0
  9 22  1  0
  9 23  1  0
 10 24  1  0
 10 25  1  0
 10 26  1  0
V    1 0
V    2 1
V    3 2
V    4 3
V    5 4
V    6 5
V    7 6
V    8 7
V    9 8
V   10 9
M  END
> <DSSTox_RID>
66872

> <DSSTox_CID>
3733

> <DSSTox_CID_Parent>
3733

> <DSSTox_Generic_SID>
23733

> <DSSTox_FileID>
346_TXCST2_v1a

> <STRUCTURE_Formula>
C8H16O2

> <STRUCTURE_MolecularWeight>
144.2114

> <STRUCTURE_ChemicalType>
defined organic

> <STRUCTURE_TestedForm_DefinedOrganic>
parent

> <STRUCTURE_Shown>
tested chemical

> <TestSubstance_ChemicalName>
Valproic Acid

> <TestSubstance_CASRN>
99-66-1

> <TestSubstance_Description>
single chemical compound

> <STRUCTURE_ChemicalName_IUPAC>
2-propylpentanoic acid

> <STRUCTURE_SMILES>
C(=O)(O)C(CCC)CCC

> <STRUCTURE_Parent_SMILES>
C(=O)(O)C(CCC)CCC

> <STRUCTURE_InChIS>
InChI=1S/C8H16O2/c1-3-5-7(6-4-2)8(9)10/h7H,3-6H2,1-2H3,(H,9,10)

> <STRUCTURE_InChIKey>
NIJJYAXOARWZEE-UHFFFAOYSA-N

> <Substance_modify_yyyymmdd>
20080429

> <Coord_Metals>
0

> <Index>
346

> <Canonical_Smiles>
CCCC(CCC)C(=O)O

> <Molecular_Weight>
144.21143

> <Frequency>
1

$$$$

  SciTegic          2D

 39 41  0  0  0  0            999 V2000
   -2.6111    0.7486    0.0000 C   0  0
   -2.6111   -0.7486    0.0000 C   0  0
   -1.2964   -1.4973    0.0000 C   0  0
    0.0000   -0.7486    0.0000 C   0  0
    0.0000    0.7486    0.0000 C   0  0
   -1.2964    1.4973    0.0000 C   0  0
    1.2964    1.4973    0.0000 O   0  0
    2.5929    0.7486    0.0000 C   0  0
    3.8911    1.5017    0.0000 O   0  0
    2.5929   -0.7486    0.0000 C   0  0
    3.8927   -1.4991    0.0000 C   0  0
    3.8953   -2.9999    0.0000 C   0  0
    5.1959   -3.7488    0.0000 C   0  0
    5.1986   -5.2496    0.0000 C   0  0
    6.2343   -3.1473    0.0000 O   0  0
    5.1929   -0.7493    0.0000 C   0  0
    6.4915   -1.5000    0.0000 C   0  0
    7.7909   -0.7507    0.0000 C   0  0
    7.7917    0.7493    0.0000 C   0  0
    6.4931    1.5000    0.0000 C   0  0
    5.1936    0.7507    0.0000 C   0  0
    1.2964   -1.4973    0.0000 C   0  0
    1.2964   -2.6973    0.0000 O   0  0
   -3.4756    1.2512    0.0000 H   0  0
   -3.4756   -1.2512    0.0000 H   0  0
   -1.2934   -2.4973    0.0000 H   0  0
   -1.2934    2.4973    0.0000 H   0  0
    3.8897    2.5017    0.0000 H   0  0
    3.8929   -0.4991    0.0000 H   0  0
    3.8966   -3.9999    0.0000 H   0  0
    3.0300   -3.5012    0.0000 H   0  0
    6.0652   -5.7487    0.0000 H   0  0
    5.1999   -6.2496    0.0000 H   0  0
    4.3333   -5.7509    0.0000 H   0  0
    6.4910   -2.5000    0.0000 H   0  0
    8.6567   -1.2511    0.0000 H   0  0
    8.6580    1.2489    0.0000 H   0  0
    6.4936    2.5000    0.0000 H   0  0
    4.3279    1.2511    0.0000 H   0  0
  1  2  2  0
  1  6  1  0
  2  3  1  0
  3  4  2  0
  4  5  1  0
  4 22  1  0
  5  6  2  0
  5  7  1  0
  7  8  1  0
  8  9  1  0
  8 10  2  0
 10 11  1  0
 10 22  1  0
 11 12  1  0
 11 16  1  0
 12 13  1  0
 13 14  1  0
 13 15  2  0
 16 17  2  0
 16 21  1  0
 17 18  1  0
 18 19  2  0
 19 20  1  0
 20 21  2  0
 22 23  2  0
  1 24  1  0
  2 25  1  0
  3 26  1  0
  6 27  1  0
  9 28  1  0
 11 29  1  0
 12 30  1  0
 12 31  1  0
 14 32  1  0
 14 33  1  0
 14 34  1  0
 17 35  1  0
 18 36  1  0
 19 37  1  0
 20 38  1  0
 21 39  1  0
V    1 0
V    2 1
V    3 2
V    4 3
V    5 4
V    6 5
V    7 6
V    8 7
V    9 8
V   10 9
V   11 10
V   12 11
V   13 12
V   14 13
V   15 14
V   16 15
V   17 16
V   18 17
V   19 18
V   20 19
V   21 20
V   22 21
V   23 22
M  END
> <DSSTox_RID>
60246

> <DSSTox_CID>
3742

> <DSSTox_CID_Parent>
3742

> <DSSTox_Generic_SID>
23742

> <DSSTox_FileID>
347_TXCST2_v1a

> <STRUCTURE_Formula>
C19H16O4

> <STRUCTURE_MolecularWeight>
308.3279

> <STRUCTURE_ChemicalType>
defined organic

> <STRUCTURE_TestedForm_DefinedOrganic>
parent

> <STRUCTURE_Shown>
tested chemical

> <TestSubstance_ChemicalName>
Warfarin

> <TestSubstance_CASRN>
81-81-2

> <TestSubstance_Description>
single chemical compound

> <ChemicalNote>
tautomers

> <STRUCTURE_ChemicalName_IUPAC>
4-hydroxy-3-(3-oxo-1-phenylbutyl)-2H-chromen-2-one

> <STRUCTURE_SMILES>
C1=CC=C3C(=C1)OC(=O)C(C(CC(C)=O)C2=CC=CC=C2)=C3O

> <STRUCTURE_Parent_SMILES>
C1=CC=C3C(=C1)OC(=O)C(C(CC(C)=O)C2=CC=CC=C2)=C3O

> <STRUCTURE_InChIS>
InChI=1S/C19H16O4/c1-12(20)11-15(13-7-3-2-4-8-13)17-18(21)14-9-5-6-10-16(14)23-19(17)22/h2-10,15,21H,11H2,1H3

> <STRUCTURE_InChIKey>
PJVWKTKQMONHTI-UHFFFAOYSA-N

> <Substance_modify_yyyymmdd>
20080429

> <Coord_Metals>
0

> <Index>
347

> <Canonical_Smiles>
CC(=O)CC(C1=C(O)Oc2ccccc2C1=O)c3ccccc3

> <Molecular_Weight>
308.32794

> <Frequency>
1

$$$$

  SciTegic          2D

 17 17  0  0  0  0            999 V2000
    1.2990   -0.7500    0.0000 C   0  0
    1.2990    0.7500    0.0000 C   0  0
    0.0000   -1.5000    0.0000 C   0  0
    0.0000    1.5000    0.0000 C   0  0
   -1.2990    0.7500    0.0000 C   0  0
    0.0000    3.0008    0.0000 C   0  0
   -1.2990   -0.7500    0.0000 C   0  0
   -0.0031   -3.0008    0.0000 N   0  0
   -1.0432   -3.5994    0.0000 O   0  0
    1.0351   -3.6026    0.0000 O   0  0
    2.1651   -1.2500    0.0000 H   0  0
    2.1651    1.2500    0.0000 H   0  0
   -2.1651    1.2500    0.0000 H   0  0
    0.8657    3.5014    0.0000 H   0  0
   -0.8662    3.5005    0.0000 H   0  0
   -0.0005    4.0008    0.0000 H   0  0
   -2.1651   -1.2500    0.0000 H   0  0
  1  2  2  0
  1  3  1  0
  2  4  1  0
  3  7  2  0
  3  8  1  0
  4  5  2  0
  4  6  1  0
  5  7  1  0
  8  9  2  0
  8 10  2  0
  1 11  1  0
  2 12  1  0
  5 13  1  0
  6 14  1  0
  6 15  1  0
  6 16  1  0
  7 17  1  0
V    1 0
V    2 1
V    3 2
V    4 3
V    5 4
V    6 5
V    7 6
V    8 7
V    9 8
V   10 9
M  END
> <DSSTox_RID>
65813

> <DSSTox_CID>
3792

> <DSSTox_CID_Parent>
3792

> <DSSTox_Generic_SID>
23792

> <DSSTox_FileID>
348_TXCST2_v1a

> <STRUCTURE_Formula>
C7H7NO2

> <STRUCTURE_MolecularWeight>
137.136

> <STRUCTURE_ChemicalType>
defined organic

> <STRUCTURE_TestedForm_DefinedOrganic>
parent

> <STRUCTURE_Shown>
tested chemical

> <TestSubstance_ChemicalName>
4-Nitrotoluene

> <TestSubstance_CASRN>
99-99-0

> <TestSubstance_Description>
single chemical compound

> <STRUCTURE_ChemicalName_IUPAC>
1-methyl-4-nitrobenzene

> <STRUCTURE_SMILES>
O=N(=O)c1ccc(C)cc1

> <STRUCTURE_Parent_SMILES>
O=N(=O)c1ccc(C)cc1

> <STRUCTURE_InChIS>
InChI=1S/C7H7NO2/c1-6-2-4-7(5-3-6)8(9)10/h2-5H,1H3

> <STRUCTURE_InChIKey>
ZPTVNYMJQHSSEA-UHFFFAOYSA-N

> <Substance_modify_yyyymmdd>
20080429

> <Coord_Metals>
0

> <Index>
348

> <Canonical_Smiles>
Cc1ccc(cc1)N(=O)=O

> <Molecular_Weight>
137.13597

> <Frequency>
1

$$$$

  SciTegic          2D

 49 50  0  0  0  0            999 V2000
    2.5951   -3.0039    0.0000 N   0  0
    2.5973   -1.5031    0.0000 C   0  0
    3.8999   -0.7576    0.0000 N   0  0
    1.2990   -0.7500    0.0000 C   0  0
    1.2990    0.7500    0.0000 C   0  0
    0.0000    1.5000    0.0000 C   0  0
   -1.2990    0.7500    0.0000 C   0  0
   -2.6003    1.4977    0.0000 O   0  0
   -3.8990    0.7455    0.0000 C   0  0
   -5.2003    1.4932    0.0000 C   0  0
   -6.4990    0.7409    0.0000 C   0  0
   -7.8003    1.4887    0.0000 C   0  0
   -9.0990    0.7364    0.0000 C   0  0
  -10.4003    1.4841    0.0000 O   0  0
  -11.6990    0.7318    0.0000 C   0  0
  -13.0007    1.4773    0.0000 C   0  0
  -14.2971    0.7228    0.0000 C   0  0
  -14.2919   -0.7772    0.0000 C   0  0
  -12.9903   -1.5227    0.0000 C   0  0
  -11.6938   -0.7682    0.0000 C   0  0
  -15.5875   -1.5348    0.0000 C   0  0
  -15.5802   -3.0356    0.0000 N   0  0
  -16.8927   -0.7938    0.0000 N   0  0
   -1.2990   -0.7500    0.0000 C   0  0
    0.0000   -1.5000    0.0000 C   0  0
    3.4601   -3.5057    0.0000 H   0  0
    4.7643   -1.2603    0.0000 H   0  0
    3.9033    0.2424    0.0000 H   0  0
    2.1651    1.2500    0.0000 H   0  0
    0.0000    2.5000    0.0000 H   0  0
   -3.8973   -0.2545    0.0000 H   0  0
   -3.0322    0.2468    0.0000 H   0  0
   -5.2021    2.4932    0.0000 H   0  0
   -4.3353    1.9948    0.0000 H   0  0
   -6.4973   -0.2591    0.0000 H   0  0
   -5.6322    0.2423    0.0000 H   0  0
   -7.8020    2.4887    0.0000 H   0  0
   -6.9352    1.9903    0.0000 H   0  0
   -9.0972   -0.2636    0.0000 H   0  0
   -9.9641    0.2347    0.0000 H   0  0
  -13.0042    2.4773    0.0000 H   0  0
  -15.1648    1.2198    0.0000 H   0  0
  -12.9868   -2.5227    0.0000 H   0  0
  -10.8261   -1.2652    0.0000 H   0  0
  -16.4434   -3.5404    0.0000 H   0  0
  -17.7554   -1.2996    0.0000 H   0  0
  -16.8996    0.2061    0.0000 H   0  0
   -2.1651   -1.2500    0.0000 H   0  0
    0.0000   -2.5000    0.0000 H   0  0
  1  2  2  0
  2  3  1  0
  2  4  1  0
  4  5  2  0
  4 25  1  0
  5  6  1  0
  6  7  2  0
  7  8  1  0
  7 24  1  0
  8  9  1  0
  9 10  1  0
 10 11  1  0
 11 12  1  0
 12 13  1  0
 13 14  1  0
 14 15  1  0
 15 16  2  0
 15 20  1  0
 16 17  1  0
 17 18  2  0
 18 19  1  0
 18 21  1  0
 19 20  2  0
 21 22  2  0
 21 23  1  0
 24 25  2  0
  1 26  1  0
  3 27  1  0
  3 28  1  0
  5 29  1  0
  6 30  1  0
  9 31  1  0
  9 32  1  0
 10 33  1  0
 10 34  1  0
 11 35  1  0
 11 36  1  0
 12 37  1  0
 12 38  1  0
 13 39  1  0
 13 40  1  0
 16 41  1  0
 17 42  1  0
 19 43  1  0
 20 44  1  0
 22 45  1  0
 23 46  1  0
 23 47  1  0
 24 48  1  0
 25 49  1  0
V    1 0
V    2 1
V    3 2
V    4 3
V    5 4
V    6 5
V    7 6
V    8 7
V    9 8
V   10 9
V   11 10
V   12 11
V   13 12
V   14 13
V   15 14
V   16 15
V   17 16
V   18 17
V   19 18
V   20 19
V   21 20
V   22 21
V   23 22
V   24 23
V   25 24
M  END
> <DSSTox_RID>
66805

> <DSSTox_CID>
3796

> <DSSTox_CID_Parent>
3431

> <DSSTox_Generic_SID>
23796

> <DSSTox_FileID>
349_TXCST2_v1a

> <STRUCTURE_Formula>
C23H36N4O10S2

> <STRUCTURE_MolecularWeight>
592.6827

> <STRUCTURE_ChemicalType>
defined organic

> <STRUCTURE_TestedForm_DefinedOrganic>
complex 2 (2-hydroxyethanesulfonic acid) [2(C2H6O4S)]

> <STRUCTURE_Shown>
tested chemical

> <TestSubstance_ChemicalName>
Pentamidine isethionate

> <TestSubstance_CASRN>
140-64-7

> <TestSubstance_Description>
single chemical compound

> <ChemicalNote>
parent [100-33-4]

> <STRUCTURE_ChemicalName_IUPAC>
4,4'-[pentane-1,5-diylbis(oxy)]dibenzenecarboximidamide bis(2-hydroxyethanesulfonic acid)

> <STRUCTURE_SMILES>
NC(=N)C1(=CC=C(OCCCCCOC2=CC=C(C=C2)C(N)=N)C=C1).OCCS(O)(=O)=O.OCCS(O)(=O)=O

> <STRUCTURE_Parent_SMILES>
NC(=N)C1=CC=C(OCCCCCOC2=CC=C(C=C2)C(N)=N)C=C1

> <STRUCTURE_InChIS>
InChI=1S/C19H24N4O2.2C2H6O4S/c20-18(21)14-4-8-16(9-5-14)24-12-2-1-3-13-25-17-10-6-15(7-11-17)19(22)23;2*3-1-2-7(4,5)6/h4-11H,1-3,12-13H2,(H3,20,21)(H3,22,23);2*3H,1-2H2,(H,4,5,6)

> <STRUCTURE_InChIKey>
YBVNFKZSMZGRAD-UHFFFAOYSA-N

> <Substance_modify_yyyymmdd>
20080429

> <Coord_Metals>
0

> <Index>
349

> <Canonical_Smiles>
NC(=N)c1ccc(OCCCCCOc2ccc(cc2)C(=N)N)cc1

> <Molecular_Weight>
340.41946

> <Frequency>
1

$$$$

  SciTegic          2D

 28 29  0  0  0  0            999 V2000
    1.1207   -1.2398    0.0000 N   0  0
    0.1563   -2.3886    0.0000 C   0  0
   -1.3209   -2.1278    0.0000 N   0  0
    0.6080    0.1699    0.0000 C   0  0
   -0.8692    0.4307    0.0000 C   0  0
   -1.8336   -0.7182    0.0000 C   0  0
    2.5987   -1.5006    0.0000 C   0  0
    2.7022   -0.0406    0.0000 O   0  0
    3.9134   -2.1439    0.0000 C   0  0
    0.5664   -3.5164    0.0000 O   0  0
    4.9183   -1.0302    0.0000 C   0  0
   -3.0153   -0.5095    0.0000 O   0  0
    4.1697    0.2696    0.0000 C   0  0
   -1.3821    1.8411    0.0000 C   0  0
    3.8448    2.8494    0.0000 O   0  0
    3.2776    1.4599    0.0000 C   0  0
   -1.9639   -2.8937    0.0000 H   0  0
    1.2510    0.9358    0.0000 H   0  0
    2.5966   -2.5006    0.0000 H   0  0
    4.1030   -3.1257    0.0000 H   0  0
    5.9127   -1.1359    0.0000 H   0  0
    5.1659    0.3573    0.0000 H   0  0
   -0.7397    2.6074    0.0000 H   0  0
   -2.3670    2.0147    0.0000 H   0  0
   -1.7244    2.7807    0.0000 H   0  0
    3.2324    3.6400    0.0000 H   0  0
    2.6649    2.2502    0.0000 H   0  0
    2.2868    1.3246    0.0000 H   0  0
  1  2  1  0
  1  4  1  0
  7  1  1  0
  2  3  1  0
  2 10  2  0
  3  6  1  0
  4  5  2  0
  5  6  1  0
  5 14  1  0
  6 12  2  0
  7  8  1  0
  7  9  1  0
  8 13  1  0
  9 11  2  0
 11 13  1  0
 13 16  1  0
 15 16  1  0
  3 17  1  0
  4 18  1  0
  7 19  1  0
  9 20  1  0
 11 21  1  0
 13 22  1  0
 14 23  1  0
 14 24  1  0
 14 25  1  0
 15 26  1  0
 16 27  1  0
 16 28  1  0
V    1 0
V    2 1
V    3 2
V    4 3
V    5 4
V    6 5
V    7 6
V    8 7
V    9 8
V   10 9
V   11 10
V   12 11
V   13 12
V   14 13
V   15 14
V   16 15
M  END
> <DSSTox_RID>
66874

> <DSSTox_CID>
3819

> <DSSTox_CID_Parent>
3819

> <DSSTox_Generic_SID>
23819

> <DSSTox_FileID>
350_TXCST2_v1a

> <STRUCTURE_Formula>
C10H12N2O4

> <STRUCTURE_MolecularWeight>
224.2133

> <STRUCTURE_ChemicalType>
defined organic

> <STRUCTURE_TestedForm_DefinedOrganic>
parent

> <STRUCTURE_Shown>
tested chemical

> <TestSubstance_ChemicalName>
2',3'-Didehydro-3'-deoxythymidine

> <TestSubstance_CASRN>
3056-17-5

> <TestSubstance_Description>
single chemical compound

> <ChemicalNote>
stereochem

> <STRUCTURE_ChemicalName_IUPAC>
1-[(2R,5S)-5-(hydroxymethyl)-2,5-dihydrofuran-2-yl]-5-methylpyrimidine-2,4(1H,3H)-dione

> <STRUCTURE_SMILES>
C\C1=C\N(C(=O)NC1=O)[C@H]2\C=C/[C@@H](CO)O2

> <STRUCTURE_Parent_SMILES>
C\C1=C\N(C(=O)NC1=O)[C@H]2\C=C/[C@@H](CO)O2

> <STRUCTURE_InChIS>
InChI=1S/C10H12N2O4/c1-6-4-12(10(15)11-9(6)14)8-3-2-7(5-13)16-8/h2-4,7-8,13H,5H2,1H3,(H,11,14,15)/t7-,8+/m0/s1

> <STRUCTURE_InChIKey>
XNKLLVCARDGLGL-JGVFFNPUSA-N

> <Substance_modify_yyyymmdd>
20080429

> <Coord_Metals>
0

> <Index>
350

> <Canonical_Smiles>
CC1=CN(C2OC(CO)C=C2)C(=O)NC1=O

> <Molecular_Weight>
224.21327

> <Frequency>
1

$$$$

  SciTegic          2D

  2  1  0  0  0  0            999 V2000
    0.2606    0.1503    0.0000 In  0  0
    1.3000    0.7500    0.0000 As  0  0
  1  2  3  0
V    1 0
V    2 1
M  END
> <DSSTox_RID>
65773

> <DSSTox_CID>
3825

> <DSSTox_Generic_SID>
23825

> <DSSTox_FileID>
351_TXCST2_v1a

> <STRUCTURE_Formula>
AsIn

> <STRUCTURE_MolecularWeight>
189.7396

> <STRUCTURE_ChemicalType>
inorganic

> <STRUCTURE_Shown>
tested chemical

> <TestSubstance_ChemicalName>
Indium arsenide

> <TestSubstance_CASRN>
1303-11-3

> <TestSubstance_Description>
single chemical compound

> <STRUCTURE_ChemicalName_IUPAC>
indium arsenide

> <STRUCTURE_SMILES>
[As]#[In]

> <STRUCTURE_InChIS>
InChI=1S/As.In

> <STRUCTURE_InChIKey>
RPQDHPTXJYYUPQ-UHFFFAOYSA-N

> <Substance_modify_yyyymmdd>
20080429

> <Coord_Metals>
0

> <Index>
351

> <Canonical_Smiles>
[As]#[In]

> <Molecular_Weight>
189.7396

> <Frequency>
1

$$$$

  SciTegic          2D

 34 34  0  0  0  0            999 V2000
    1.2990   -0.7500    0.0000 C   0  0
    1.2990    0.7500    0.0000 C   0  0
    0.0000   -1.5000    0.0000 C   0  0
    0.0000    1.5000    0.0000 C   0  0
   -1.2990   -0.7500    0.0000 C   0  0
   -1.2990    0.7500    0.0000 C   0  0
    0.9792   -2.6103    0.0000 N   0  0
    2.7502    0.4571    0.0000 C   0  0
    3.2641   -0.9530    0.0000 N   0  0
    0.5366   -4.0444    0.0000 C   0  0
    4.7421   -1.2139    0.0000 C   0  0
    1.2627    2.2304    0.0000 C   0  0
   -1.2626    2.2300    0.0000 C   0  0
   -2.5629   -0.0216    0.0000 C   0  0
    0.1827   -5.1910    0.0000 O   0  0
    5.9238   -1.4225    0.0000 O   0  0
    2.1530   -0.2297    0.0000 H   0  0
    1.2756   -1.7497    0.0000 H   0  0
   -0.8780   -1.9786    0.0000 H   0  0
   -0.0236    0.5003    0.0000 H   0  0
   -0.8775    1.9795    0.0000 H   0  0
   -0.4215   -0.2706    0.0000 H   0  0
   -1.2755   -1.7497    0.0000 H   0  0
    3.7351    0.2837    0.0000 H   0  0
    3.3929    1.2232    0.0000 H   0  0
    2.1284    2.7310    0.0000 H   0  0
    1.2622    3.2304    0.0000 H   0  0
    0.3965    2.7300    0.0000 H   0  0
   -0.3968    2.7304    0.0000 H   0  0
   -1.2629    3.2300    0.0000 H   0  0
   -2.1287    2.7299    0.0000 H   0  0
   -3.4293    0.4777    0.0000 H   0  0
   -3.4286   -0.5221    0.0000 H   0  0
   -2.5625   -1.0216    0.0000 H   0  0
  1  2  1  0
  1  3  1  0
  2  4  1  0
  2  8  1  0
  2 12  1  0
  3  5  1  0
  3  7  1  0
  4  6  1  0
  5  6  1  0
  6 13  1  0
  6 14  1  0
  7 10  2  0
  8  9  1  0
  9 11  2  0
 10 15  2  0
 11 16  2  0
  1 17  1  0
  1 18  1  0
  3 19  1  0
  4 20  1  0
  4 21  1  0
  5 22  1  0
  5 23  1  0
  8 24  1  0
  8 25  1  0
 12 26  1  0
 12 27  1  0
 12 28  1  0
 13 29  1  0
 13 30  1  0
 13 31  1  0
 14 32  1  0
 14 33  1  0
 14 34  1  0
V    1 0
V    2 1
V    3 2
V    4 3
V    5 4
V    6 5
V    7 6
V    8 7
V    9 8
V   10 9
V   11 10
V   12 11
V   13 12
V   14 13
V   15 14
V   16 15
M  END
> <DSSTox_RID>
66875

> <DSSTox_CID>
3826

> <DSSTox_CID_Parent>
3826

> <DSSTox_Generic_SID>
23826

> <DSSTox_FileID>
352_TXCST2_v1a

> <STRUCTURE_Formula>
C12H18N2O2

> <STRUCTURE_MolecularWeight>
222.2835

> <STRUCTURE_ChemicalType>
defined organic

> <STRUCTURE_TestedForm_DefinedOrganic>
parent

> <STRUCTURE_Shown>
tested chemical

> <TestSubstance_ChemicalName>
Isophorone diisocyanate

> <TestSubstance_CASRN>
4098-71-9

> <TestSubstance_Description>
single chemical compound

> <Source_ChemicalNote>
tested chemical was a mixture of isomers

> <STRUCTURE_ChemicalName_IUPAC>
5-isocyanato-1-(isocyanatomethyl)-1,3,3-trimethylcyclohexane

> <STRUCTURE_SMILES>
O=C=N\C1CC(C)(C\N=C=O)CC(C)(C)C1

> <STRUCTURE_Parent_SMILES>
O=C=N\C1CC(C)(C\N=C=O)CC(C)(C)C1

> <STRUCTURE_InChIS>
InChI=1S/C12H18N2O2/c1-11(2)4-10(14-9-16)5-12(3,6-11)7-13-8-15/h10H,4-7H2,1-3H3

> <STRUCTURE_InChIKey>
NIMLQBUJDJZYEJ-UHFFFAOYSA-N

> <Substance_modify_yyyymmdd>
20080429

> <Coord_Metals>
0

> <Index>
352

> <Canonical_Smiles>
CC1(C)CC(CC(C)(CN=C=O)C1)N=C=O

> <Molecular_Weight>
222.28351

> <Frequency>
1

$$$$

  SciTegic          2D

 20 22  0  0  0  0            999 V2000
   -0.9674    2.4458    0.0000 C   0  0
    0.8944    2.4276    0.0000 C   0  0
    0.0000    0.2373    0.0000 C   0  0
    1.2777    0.9674    0.0000 C   0  0
   -1.2594    0.9674    0.0000 C   0  0
    0.0000   -1.2229    0.0000 C   0  0
   -2.5371   -1.2229    0.0000 C   0  0
    2.5553   -1.2229    0.0000 C   0  0
   -2.5371    0.2373    0.0000 C   0  0
    2.5553    0.2373    0.0000 C   0  0
    1.2777   -1.9530    0.0000 C   0  0
   -1.2594   -1.9530    0.0000 C   0  0
   -1.5985    3.2215    0.0000 H   0  0
    1.5090    3.2164    0.0000 H   0  0
   -3.4020   -1.7248    0.0000 H   0  0
    3.4203   -1.7248    0.0000 H   0  0
   -3.4020    0.7392    0.0000 H   0  0
    3.4203    0.7392    0.0000 H   0  0
    1.2777   -2.9530    0.0000 H   0  0
   -1.2563   -2.9530    0.0000 H   0  0
  1  2  2  0
  1  5  1  0
  2  4  1  0
  3  5  2  0
  3  6  1  0
  3  4  1  0
  4 10  2  0
  5  9  1  0
  6 11  1  0
  6 12  2  0
  7  9  2  0
  7 12  1  0
  8 10  1  0
  8 11  2  0
  1 13  1  0
  2 14  1  0
  7 15  1  0
  8 16  1  0
  9 17  1  0
 10 18  1  0
 11 19  1  0
 12 20  1  0
V    1 0
V    2 1
V    3 2
V    4 3
V    5 4
V    6 5
V    7 6
V    8 7
V    9 8
V   10 9
V   11 10
V   12 11
M  END
> <DSSTox_RID>
62343

> <DSSTox_CID>
3845

> <DSSTox_CID_Parent>
3845

> <DSSTox_Generic_SID>
23845

> <DSSTox_FileID>
353_TXCST2_v1a

> <STRUCTURE_Formula>
C12H8

> <STRUCTURE_MolecularWeight>
152.1919

> <STRUCTURE_ChemicalType>
defined organic

> <STRUCTURE_TestedForm_DefinedOrganic>
parent

> <STRUCTURE_Shown>
tested chemical

> <TestSubstance_ChemicalName>
Acenaphthylene

> <TestSubstance_CASRN>
208-96-8

> <TestSubstance_Description>
single chemical compound

> <STRUCTURE_ChemicalName_IUPAC>
acenaphthylene

> <STRUCTURE_SMILES>
c1cc2cccc3/C=C\c(c1)c23

> <STRUCTURE_Parent_SMILES>
c1cc2cccc3/C=C\c(c1)c23

> <STRUCTURE_InChIS>
InChI=1S/C12H8/c1-3-9-4-2-6-11-8-7-10(5-1)12(9)11/h1-8H

> <STRUCTURE_InChIKey>
HXGDTGSAIMULJN-UHFFFAOYSA-N

> <Substance_modify_yyyymmdd>
20080429

> <Coord_Metals>
0

> <Index>
353

> <Canonical_Smiles>
C1=Cc2cccc3cccc1c23

> <Molecular_Weight>
152.19191

> <Frequency>
1

$$$$

  SciTegic          2D

 20 19  0  0  0  0            999 V2000
    5.2000    0.0000    0.0000 P   0  0
    3.9000    0.7500    0.0000 N   0  0
    2.6000    0.0000    0.0000 C   0  0
    5.2000   -1.2000    0.0000 O   0  0
    6.5000    0.7500    0.0000 S   0  0
    2.6000   -1.2000    0.0000 O   0  0
    3.8760   -0.7669    0.0000 O   0  0
    1.3000    0.7500    0.0000 C   0  0
    7.7999    0.0000    0.0000 C   0  0
    3.8773   -2.2677    0.0000 C   0  0
    3.9000    1.7500    0.0000 H   0  0
    0.4338    0.2503    0.0000 H   0  0
    1.3000    1.7500    0.0000 H   0  0
    0.4340    1.2501    0.0000 H   0  0
    8.6661    0.4997    0.0000 H   0  0
    7.7999   -1.0000    0.0000 H   0  0
    8.6659   -0.5001    0.0000 H   0  0
    3.0120   -2.7689    0.0000 H   0  0
    4.7439   -2.7667    0.0000 H   0  0
    3.8786   -3.2677    0.0000 H   0  0
  1  2  1  0
  1  4  2  0
  1  5  1  0
  1  7  1  0
  2  3  1  0
  3  6  2  0
  3  8  1  0
  5  9  1  0
  7 10  1  0
  2 11  1  0
  8 12  1  0
  8 13  1  0
  8 14  1  0
  9 15  1  0
  9 16  1  0
  9 17  1  0
 10 18  1  0
 10 19  1  0
 10 20  1  0
V    1 0
V    2 1
V    3 2
V    4 3
V    5 4
V    6 5
V    7 6
V    8 7
V    9 8
V   10 9
M  END
> <DSSTox_RID>
62329

> <DSSTox_CID>
3846

> <DSSTox_CID_Parent>
3846

> <DSSTox_Generic_SID>
23846

> <DSSTox_FileID>
354_TXCST2_v1a

> <STRUCTURE_Formula>
C4H10NO3PS

> <STRUCTURE_MolecularWeight>
183.1659

> <STRUCTURE_ChemicalType>
defined organic

> <STRUCTURE_TestedForm_DefinedOrganic>
parent

> <STRUCTURE_Shown>
tested chemical

> <TestSubstance_ChemicalName>
Acephate

> <TestSubstance_CASRN>
30560-19-1

> <TestSubstance_Description>
single chemical compound

> <STRUCTURE_ChemicalName_IUPAC>
O,S-dimethyl acetylamidothiophosphate

> <STRUCTURE_SMILES>
O=C(C)NP(=O)(OC)SC

> <STRUCTURE_Parent_SMILES>
O=C(C)NP(=O)(OC)SC

> <STRUCTURE_InChIS>
InChI=1S/C4H10NO3PS/c1-4(6)5-9(7,8-2)10-3/h1-3H3,(H,5,6,7)

> <STRUCTURE_InChIKey>
YASYVMFAVPKPKE-UHFFFAOYSA-N

> <Substance_modify_yyyymmdd>
20080429

> <Coord_Metals>
0

> <Index>
354

> <Canonical_Smiles>
COP(=O)(NC(=O)C)SC

> <Molecular_Weight>
183.16586

> <Frequency>
1

$$$$

  SciTegic          2D

 38 38  0  0  0  0            999 V2000
    3.8968   -0.7523    0.0000 C   0  0
    3.8960    0.4477    0.0000 O   0  0
    5.1972   -1.5014    0.0000 C   0  0
    2.5973   -1.5031    0.0000 N   0  0
    6.2363   -0.9011    0.0000 Cl  0  0
    2.5951   -3.0039    0.0000 C   0  0
    3.8933   -3.7570    0.0000 O   0  0
    3.8912   -5.2578    0.0000 C   0  0
    5.1894   -6.0109    0.0000 C   0  0
    1.2990   -0.7500    0.0000 C   0  0
    1.2990    0.7500    0.0000 C   0  0
    0.0000   -1.5000    0.0000 C   0  0
    0.0000    1.5000    0.0000 C   0  0
   -1.2990   -0.7500    0.0000 C   0  0
   -1.2990    0.7500    0.0000 C   0  0
    2.5988    1.5004    0.0000 C   0  0
    2.5997    3.0013    0.0000 C   0  0
    0.0000   -3.0008    0.0000 C   0  0
    5.1979   -2.5014    0.0000 H   0  0
    6.0635   -2.0010    0.0000 H   0  0
    1.7282   -3.5024    0.0000 H   0  0
    2.5932   -4.0039    0.0000 H   0  0
    3.0243   -5.7563    0.0000 H   0  0
    3.0260   -4.7564    0.0000 H   0  0
    5.1880   -7.0109    0.0000 H   0  0
    6.0563   -5.5124    0.0000 H   0  0
    6.0546   -6.5123    0.0000 H   0  0
    0.0000    2.5000    0.0000 H   0  0
   -2.1651   -1.2500    0.0000 H   0  0
   -2.1651    1.2500    0.0000 H   0  0
    3.4647    1.0002    0.0000 H   0  0
    2.5986    0.5004    0.0000 H   0  0
    3.4657    3.5013    0.0000 H   0  0
    1.7339    3.5015    0.0000 H   0  0
    2.5999    4.0013    0.0000 H   0  0
    0.8657   -3.5014    0.0000 H   0  0
   -0.8662   -3.5006    0.0000 H   0  0
   -0.0005   -4.0008    0.0000 H   0  0
  1  2  2  0
  1  4  1  0
  1  3  1  0
  3  5  1  0
  4  6  1  0
  4 10  1  0
  6  7  1  0
  7  8  1  0
  8  9  1  0
 10 11  2  0
 10 12  1  0
 11 13  1  0
 11 16  1  0
 12 14  2  0
 12 18  1  0
 13 15  2  0
 14 15  1  0
 16 17  1  0
  3 19  1  0
  3 20  1  0
  6 21  1  0
  6 22  1  0
  8 23  1  0
  8 24  1  0
  9 25  1  0
  9 26  1  0
  9 27  1  0
 13 28  1  0
 14 29  1  0
 15 30  1  0
 16 31  1  0
 16 32  1  0
 17 33  1  0
 17 34  1  0
 17 35  1  0
 18 36  1  0
 18 37  1  0
 18 38  1  0
V    1 0
V    2 1
V    3 2
V    4 3
V    5 4
V    6 5
V    7 6
V    8 7
V    9 8
V   10 9
V   11 10
V   12 11
V   13 12
V   14 13
V   15 14
V   16 15
V   17 16
V   18 17
M  END
> <DSSTox_RID>
65429

> <DSSTox_CID>
3848

> <DSSTox_CID_Parent>
3848

> <DSSTox_Generic_SID>
23848

> <DSSTox_FileID>
355_TXCST2_v1a

> <STRUCTURE_Formula>
C14H20ClNO2

> <STRUCTURE_MolecularWeight>
269.7671

> <STRUCTURE_ChemicalType>
defined organic

> <STRUCTURE_TestedForm_DefinedOrganic>
parent

> <STRUCTURE_Shown>
tested chemical

> <TestSubstance_ChemicalName>
Acetochlor

> <TestSubstance_CASRN>
34256-82-1

> <TestSubstance_Description>
single chemical compound

> <STRUCTURE_ChemicalName_IUPAC>
2-chloro-N-(ethoxymethyl)-N-(2-ethyl-6-methylphenyl)acetamide

> <STRUCTURE_SMILES>
ClCC(=O)N(COCC)c1c(C)cccc1CC

> <STRUCTURE_Parent_SMILES>
ClCC(=O)N(COCC)c1c(C)cccc1CC

> <STRUCTURE_InChIS>
InChI=1S/C14H20ClNO2/c1-4-12-8-6-7-11(3)14(12)16(10-18-5-2)13(17)9-15/h6-8H,4-5,9-10H2,1-3H3

> <STRUCTURE_InChIKey>
VTNQPKFIQCLBDU-UHFFFAOYSA-N

> <Substance_modify_yyyymmdd>
20080429

> <Coord_Metals>
0

> <Index>
355

> <Canonical_Smiles>
CCOCN(C(=O)CCl)c1c(C)cccc1CC

> <Molecular_Weight>
269.7671

> <Frequency>
1

$$$$

  SciTegic          2D

 32 32  0  0  0  0            999 V2000
   -5.2003    1.4932    0.0000 C   0  0
   -3.8964   -0.7553    0.0000 C   0  0
    3.8933    3.7570    0.0000 C   0  0
   -1.3039   -3.7494    0.0000 C   0  0
   -3.8990    0.7455    0.0000 C   0  0
    2.5951    3.0039    0.0000 C   0  0
   -0.0031   -3.0008    0.0000 S   0  0
    2.5972    1.5031    0.0000 N   0  0
   -2.6003    1.4977    0.0000 N   0  0
    1.2990   -0.7500    0.0000 N   0  0
    1.2990    0.7500    0.0000 C   0  0
    0.0000   -1.5000    0.0000 C   0  0
    0.0000    1.5000    0.0000 N   0  0
   -1.2990   -0.7500    0.0000 N   0  0
   -1.2990    0.7500    0.0000 C   0  0
   -6.0656    0.9920    0.0000 H   0  0
   -6.0671    1.9918    0.0000 H   0  0
   -5.2021    2.4932    0.0000 H   0  0
   -3.0298   -1.2543    0.0000 H   0  0
   -3.8951   -1.7553    0.0000 H   0  0
   -4.7617   -1.2565    0.0000 H   0  0
    3.8919    4.7570    0.0000 H   0  0
    4.7602    3.2585    0.0000 H   0  0
    4.7585    4.2584    0.0000 H   0  0
   -1.3060   -4.7494    0.0000 H   0  0
   -2.1691   -3.2479    0.0000 H   0  0
   -2.1709   -4.2478    0.0000 H   0  0
   -3.9008    1.7455    0.0000 H   0  0
    1.7282    3.5024    0.0000 H   0  0
    1.7299    2.5026    0.0000 H   0  0
    3.4641    1.0046    0.0000 H   0  0
   -2.6021    2.4977    0.0000 H   0  0
  1  5  1  0
  2  5  1  0
  3  6  1  0
  4  7  1  0
  5  9  1  0
  6  8  1  0
  7 12  1  0
  8 11  1  0
  9 15  1  0
 10 11  2  0
 10 12  1  0
 11 13  1  0
 12 14  2  0
 13 15  2  0
 14 15  1  0
  1 16  1  0
  1 17  1  0
  1 18  1  0
  2 19  1  0
  2 20  1  0
  2 21  1  0
  3 22  1  0
  3 23  1  0
  3 24  1  0
  4 25  1  0
  4 26  1  0
  4 27  1  0
  5 28  1  0
  6 29  1  0
  6 30  1  0
  8 31  1  0
  9 32  1  0
V    1 0
V    2 1
V    3 2
V    4 3
V    5 4
V    6 5
V    7 6
V    8 7
V    9 8
V   10 9
V   11 10
V   12 11
V   13 12
V   14 13
V   15 14
M  END
> <DSSTox_RID>
62388

> <DSSTox_CID>
3869

> <DSSTox_CID_Parent>
3869

> <DSSTox_Generic_SID>
23869

> <DSSTox_FileID>
356_TXCST2_v1a

> <STRUCTURE_Formula>
C9H17N5S

> <STRUCTURE_MolecularWeight>
227.3298

> <STRUCTURE_ChemicalType>
defined organic

> <STRUCTURE_TestedForm_DefinedOrganic>
parent

> <STRUCTURE_Shown>
tested chemical

> <TestSubstance_ChemicalName>
Ametryn

> <TestSubstance_CASRN>
834-12-8

> <TestSubstance_Description>
single chemical compound

> <STRUCTURE_ChemicalName_IUPAC>
N-ethyl-N'-isopropyl-6-(methylthio)-1,3,5-triazine-2,4-diamine

> <STRUCTURE_SMILES>
CSc1nc(NCC)nc(NC(C)C)n1

> <STRUCTURE_Parent_SMILES>
CSc1nc(NCC)nc(NC(C)C)n1

> <STRUCTURE_InChIS>
InChI=1S/C9H17N5S/c1-5-10-7-12-8(11-6(2)3)14-9(13-7)15-4/h6H,5H2,1-4H3,(H2,10,11,12,13,14)

> <STRUCTURE_InChIKey>
RQVYBGPQFYCBGX-UHFFFAOYSA-N

> <Substance_modify_yyyymmdd>
20080429

> <Coord_Metals>
0

> <Index>
356

> <Canonical_Smiles>
CCNc1nc(NC(C)C)nc(SC)n1

> <Molecular_Weight>
227.32977

> <Frequency>
1

$$$$

  SciTegic          2D

 45 46  0  0  0  0            999 V2000
    5.1894   -6.0109    0.0000 N   0  0
    2.5973   -1.5031    0.0000 N   0  0
    2.5951   -3.0039    0.0000 C   0  0
    3.8912   -5.2578    0.0000 C   0  0
    3.8933   -3.7570    0.0000 N   0  0
    1.2990   -0.7500    0.0000 C   0  0
    5.1873   -7.5117    0.0000 C   0  0
    6.4837   -8.2663    0.0000 C   0  0
    1.2990    0.7500    0.0000 C   0  0
    0.0000    1.5000    0.0000 C   0  0
    6.4785   -9.7663    0.0000 C   0  0
    0.0000   -1.5000    0.0000 C   0  0
    3.8856   -8.2573    0.0000 C   0  0
   -1.2990    0.7500    0.0000 C   0  0
    5.1769  -10.5118    0.0000 C   0  0
   -1.2990   -0.7500    0.0000 C   0  0
    3.8804   -9.7573    0.0000 C   0  0
    5.1959   -3.0115    0.0000 C   0  0
    7.7861   -7.5204    0.0000 C   0  0
    2.5988    1.5004    0.0000 C   0  0
    5.1717  -12.0126    0.0000 C   0  0
   -2.5988    1.5004    0.0000 C   0  0
    1.7282   -3.5024    0.0000 H   0  0
    3.0243   -5.7563    0.0000 H   0  0
    0.0000    2.5000    0.0000 H   0  0
    7.3428  -10.2693    0.0000 H   0  0
    0.0000   -2.5000    0.0000 H   0  0
    3.0213   -7.7543    0.0000 H   0  0
   -2.1651   -1.2500    0.0000 H   0  0
    3.0127  -10.2543    0.0000 H   0  0
    6.0604   -3.5143    0.0000 H   0  0
    6.0636   -2.5144    0.0000 H   0  0
    5.1994   -2.0115    0.0000 H   0  0
    7.7902   -6.5204    0.0000 H   0  0
    8.6502   -8.0237    0.0000 H   0  0
    8.6541   -7.0239    0.0000 H   0  0
    3.4651    1.0010    0.0000 H   0  0
    2.5985    2.5004    0.0000 H   0  0
    3.4646    2.0008    0.0000 H   0  0
    6.0357  -12.5162    0.0000 H   0  0
    4.3038  -12.5093    0.0000 H   0  0
    5.1678  -13.0126    0.0000 H   0  0
   -2.5994    2.5004    0.0000 H   0  0
   -3.4647    1.0001    0.0000 H   0  0
   -3.4651    2.0000    0.0000 H   0  0
  1  4  2  0
  1  7  1  0
  2  3  2  0
  2  6  1  0
  3  5  1  0
  4  5  1  0
  5 18  1  0
  6  9  2  0
  6 12  1  0
  7  8  2  0
  7 13  1  0
  8 11  1  0
  8 19  1  0
  9 10  1  0
  9 20  1  0
 10 14  2  0
 11 15  2  0
 12 16  2  0
 13 17  2  0
 14 16  1  0
 14 22  1  0
 15 17  1  0
 15 21  1  0
  3 23  1  0
  4 24  1  0
 10 25  1  0
 11 26  1  0
 12 27  1  0
 13 28  1  0
 16 29  1  0
 17 30  1  0
 18 31  1  0
 18 32  1  0
 18 33  1  0
 19 34  1  0
 19 35  1  0
 19 36  1  0
 20 37  1  0
 20 38  1  0
 20 39  1  0
 21 40  1  0
 21 41  1  0
 21 42  1  0
 22 43  1  0
 22 44  1  0
 22 45  1  0
V    1 0
V    2 1
V    3 2
V    4 3
V    5 4
V    6 5
V    7 6
V    8 7
V    9 8
V   10 9
V   11 10
V   12 11
V   13 12
V   14 13
V   15 14
V   16 15
V   17 16
V   18 17
V   19 18
V   20 19
V   21 20
V   22 21
M  END
> <DSSTox_RID>
60152

> <DSSTox_CID>
3871

> <DSSTox_CID_Parent>
3871

> <DSSTox_Generic_SID>
23871

> <DSSTox_FileID>
357_TXCST2_v1a

> <STRUCTURE_Formula>
C19H23N3

> <STRUCTURE_MolecularWeight>
293.406

> <STRUCTURE_ChemicalType>
defined organic

> <STRUCTURE_TestedForm_DefinedOrganic>
parent

> <STRUCTURE_Shown>
tested chemical

> <TestSubstance_ChemicalName>
Amitraz

> <TestSubstance_CASRN>
33089-61-1

> <TestSubstance_Description>
single chemical compound

> <Source_ChemicalNote>
tested chemical contained 0.03% water

> <STRUCTURE_ChemicalName_IUPAC>
N'-(2,4-dimethylphenyl)-N-{(E)-[(2,4-dimethylphenyl)imino]methyl}-N-methylimidoformamide

> <STRUCTURE_SMILES>
Cc2cc(C)ccc2/N=C/N(C)/C=N/c1ccc(C)cc1C

> <STRUCTURE_Parent_SMILES>
Cc2cc(C)ccc2/N=C/N(C)/C=N/c1ccc(C)cc1C

> <STRUCTURE_InChIS>
InChI=1S/C19H23N3/c1-14-6-8-18(16(3)10-14)20-12-22(5)13-21-19-9-7-15(2)11-17(19)4/h6-13H,1-5H3/b20-12+,21-13+

> <STRUCTURE_InChIKey>
QXAITBQSYVNQDR-ZIOPAAQOSA-N

> <Substance_modify_yyyymmdd>
20080429

> <Coord_Metals>
0

> <Index>
357

> <Canonical_Smiles>
CN(C=Nc1ccc(C)cc1C)C=Nc2ccc(C)cc2C

> <Molecular_Weight>
293.40602

> <Frequency>
1

$$$$

  SciTegic          2D

 18 18  0  0  0  0            999 V2000
    1.2990   -0.7500    0.0000 C   0  0
    1.2990    0.7500    0.0000 C   0  0
    2.5973   -1.5031    0.0000 N   0  0
    2.5972    1.5031    0.0000 O   0  0
    0.0000   -1.5000    0.0000 C   0  0
    0.0000    1.5000    0.0000 C   0  0
    2.5951    3.0039    0.0000 C   0  0
   -1.2990   -0.7500    0.0000 C   0  0
   -1.2990    0.7500    0.0000 C   0  0
    2.5958   -2.5031    0.0000 H   0  0
    3.4642   -1.0046    0.0000 H   0  0
    0.0000   -2.5000    0.0000 H   0  0
    0.0000    2.5000    0.0000 H   0  0
    3.4601    3.5057    0.0000 H   0  0
    1.7282    3.5024    0.0000 H   0  0
    2.5932    4.0039    0.0000 H   0  0
   -2.1651   -1.2500    0.0000 H   0  0
   -2.1651    1.2500    0.0000 H   0  0
  1  2  1  0
  1  3  1  0
  1  5  2  0
  2  4  1  0
  2  6  2  0
  4  7  1  0
  5  8  1  0
  6  9  1  0
  8  9  2  0
  3 10  1  0
  3 11  1  0
  5 12  1  0
  6 13  1  0
  7 14  1  0
  7 15  1  0
  7 16  1  0
  8 17  1  0
  9 18  1  0
V    1 0
V    2 1
V    3 2
V    4 3
V    5 4
V    6 5
V    7 6
V    8 7
V    9 8
M  END
> <DSSTox_RID>
59735

> <DSSTox_CID>
3877

> <DSSTox_CID_Parent>
3877

> <DSSTox_Generic_SID>
23877

> <DSSTox_FileID>
358_TXCST2_v1a

> <STRUCTURE_Formula>
C7H9NO

> <STRUCTURE_MolecularWeight>
123.1525

> <STRUCTURE_ChemicalType>
defined organic

> <STRUCTURE_TestedForm_DefinedOrganic>
parent

> <STRUCTURE_Shown>
tested chemical

> <TestSubstance_ChemicalName>
2-Anisidine

> <TestSubstance_CASRN>
90-04-0

> <TestSubstance_Description>
single chemical compound

> <STRUCTURE_ChemicalName_IUPAC>
2-methoxyaniline

> <STRUCTURE_SMILES>
NC1=C(OC)C=CC=C1

> <STRUCTURE_Parent_SMILES>
NC1=C(OC)C=CC=C1

> <STRUCTURE_InChIS>
InChI=1S/C7H9NO/c1-9-7-5-3-2-4-6(7)8/h2-5H,8H2,1H3

> <STRUCTURE_InChIKey>
VMPITZXILSNTON-UHFFFAOYSA-N

> <Substance_modify_yyyymmdd>
20080429

> <Coord_Metals>
0

> <Index>
358

> <Canonical_Smiles>
COc1ccccc1N

> <Molecular_Weight>
123.15246

> <Frequency>
1

$$$$

  SciTegic          2D

 24 26  0  0  0  0            999 V2000
    0.0000    1.5002    0.0000 C   0  0
    0.0000   -1.5002    0.0000 C   0  0
   -1.2989    0.7501    0.0000 C   0  0
    1.2806    0.7501    0.0000 C   0  0
    1.2806   -0.7501    0.0000 C   0  0
   -1.2989   -0.7501    0.0000 C   0  0
   -2.5978   -1.5002    0.0000 C   0  0
   -2.5978    1.5002    0.0000 C   0  0
    2.5978    1.5002    0.0000 C   0  0
    2.5978   -1.5002    0.0000 C   0  0
   -3.8968    0.7501    0.0000 C   0  0
    3.8968    0.7501    0.0000 C   0  0
    3.8968   -0.7501    0.0000 C   0  0
   -3.8968   -0.7501    0.0000 C   0  0
    0.0031    2.5002    0.0000 H   0  0
    0.0031   -2.5002    0.0000 H   0  0
   -2.5978   -2.5002    0.0000 H   0  0
   -2.5978    2.5002    0.0000 H   0  0
    2.6009    2.5002    0.0000 H   0  0
    2.6009   -2.5002    0.0000 H   0  0
   -4.7628    1.2500    0.0000 H   0  0
    4.7628    1.2500    0.0000 H   0  0
    4.7628   -1.2500    0.0000 H   0  0
   -4.7628   -1.2500    0.0000 H   0  0
  1  3  1  0
  1  4  2  0
  2  5  2  0
  2  6  1  0
  3  6  2  0
  3  8  1  0
  4  5  1  0
  4  9  1  0
  5 10  1  0
  6  7  1  0
  7 14  2  0
  8 11  2  0
  9 12  2  0
 10 13  2  0
 11 14  1  0
 12 13  1  0
  1 15  1  0
  2 16  1  0
  7 17  1  0
  8 18  1  0
  9 19  1  0
 10 20  1  0
 11 21  1  0
 12 22  1  0
 13 23  1  0
 14 24  1  0
V    1 0
V    2 1
V    3 2
V    4 3
V    5 4
V    6 5
V    7 6
V    8 7
V    9 8
V   10 9
V   11 10
V   12 11
V   13 12
V   14 13
M  END
> <DSSTox_RID>
65290

> <DSSTox_CID>
3878

> <DSSTox_CID_Parent>
3878

> <DSSTox_Generic_SID>
23878

> <DSSTox_FileID>
359_TXCST2_v1a

> <STRUCTURE_Formula>
C14H10

> <STRUCTURE_MolecularWeight>
178.2292

> <STRUCTURE_ChemicalType>
defined organic

> <STRUCTURE_TestedForm_DefinedOrganic>
parent

> <STRUCTURE_Shown>
tested chemical

> <TestSubstance_ChemicalName>
Anthracene

> <TestSubstance_CASRN>
120-12-7

> <TestSubstance_Description>
single chemical compound

> <STRUCTURE_ChemicalName_IUPAC>
anthracene

> <STRUCTURE_SMILES>
c1ccc2cc3ccccc3cc2c1

> <STRUCTURE_Parent_SMILES>
c1ccc2cc3ccccc3cc2c1

> <STRUCTURE_InChIS>
InChI=1S/C14H10/c1-2-6-12-10-14-8-4-3-7-13(14)9-11(12)5-1/h1-10H

> <STRUCTURE_InChIKey>
MWPLVEDNUUSJAV-UHFFFAOYSA-N

> <Substance_modify_yyyymmdd>
20080429

> <Coord_Metals>
0

> <Index>
359

> <Canonical_Smiles>
c1ccc2cc3ccccc3cc2c1

> <Molecular_Weight>
178.22919

> <Frequency>
1

$$$$

  SciTegic          2D

 28 30  0  0  0  0            999 V2000
    1.2990   -0.7500    0.0000 C   0  0
   -1.2990    0.7500    0.0000 C   0  0
    1.2990    0.7500    0.0000 N   0  0
    0.0000    1.5000    0.0000 N   0  0
    0.0000   -1.5000    0.0000 N   0  0
   -1.2990   -0.7500    0.0000 N   0  0
    2.5987   -1.5004    0.0000 C   0  0
   -2.5987    1.5004    0.0000 C   0  0
   -2.6012    3.0004    0.0000 C   0  0
    3.8991   -0.7525    0.0000 C   0  0
    3.9010    0.4475    0.0000 Cl  0  0
   -1.5630    3.6021    0.0000 Cl  0  0
    2.5965   -3.0004    0.0000 C   0  0
   -3.8967    0.7484    0.0000 C   0  0
    5.1969   -1.5045    0.0000 C   0  0
   -3.9015    3.7484    0.0000 C   0  0
   -5.1969    1.4963    0.0000 C   0  0
    3.8943   -3.7525    0.0000 C   0  0
   -5.1993    2.9963    0.0000 C   0  0
    5.1945   -3.0045    0.0000 C   0  0
    1.7297   -3.4991    0.0000 H   0  0
   -3.8951   -0.2516    0.0000 H   0  0
    6.0637   -1.0059    0.0000 H   0  0
   -3.9030    4.7484    0.0000 H   0  0
   -6.0621    0.9949    0.0000 H   0  0
    3.8927   -4.7525    0.0000 H   0  0
   -6.0661    3.4949    0.0000 H   0  0
    6.0598   -3.5059    0.0000 H   0  0
  1  3  1  0
  1  5  2  0
  1  7  1  0
  2  6  2  0
  2  8  1  0
  2  4  1  0
  3  4  2  0
  5  6  1  0
  7 10  1  0
  7 13  2  0
  8  9  2  0
  8 14  1  0
  9 12  1  0
  9 16  1  0
 10 11  1  0
 10 15  2  0
 13 18  1  0
 14 17  2  0
 15 20  1  0
 16 19  2  0
 17 19  1  0
 18 20  2  0
 13 21  1  0
 14 22  1  0
 15 23  1  0
 16 24  1  0
 17 25  1  0
 18 26  1  0
 19 27  1  0
 20 28  1  0
V    1 0
V    2 1
V    3 2
V    4 3
V    5 4
V    6 5
V    7 6
V    8 7
V    9 8
V   10 9
V   11 10
V   12 11
V   13 12
V   14 13
V   15 14
V   16 15
V   17 16
V   18 17
V   19 18
V   20 19
M  END
> <DSSTox_RID>
62280

> <DSSTox_CID>
3881

> <DSSTox_CID_Parent>
3881

> <DSSTox_Generic_SID>
23881

> <DSSTox_FileID>
360_TXCST2_v1a

> <STRUCTURE_Formula>
C14H8Cl2N4

> <STRUCTURE_MolecularWeight>
303.1461

> <STRUCTURE_ChemicalType>
defined organic

> <STRUCTURE_TestedForm_DefinedOrganic>
parent

> <STRUCTURE_Shown>
tested chemical

> <TestSubstance_ChemicalName>
Clofentezine

> <TestSubstance_CASRN>
74115-24-5

> <TestSubstance_Description>
single chemical compound

> <Source_ChemicalNote>
tested chemical contained 0.2% water (0.03 moles H2O)

> <STRUCTURE_ChemicalName_IUPAC>
3,6-bis(2-chlorophenyl)-1,2,4,5-tetrazine

> <STRUCTURE_SMILES>
Clc3ccccc3c1nnc(nn1)c2ccccc2Cl

> <STRUCTURE_Parent_SMILES>
Clc3ccccc3c1nnc(nn1)c2ccccc2Cl

> <STRUCTURE_InChIS>
InChI=1S/C14H8Cl2N4/c15-11-7-3-1-5-9(11)13-17-19-14(20-18-13)10-6-2-4-8-12(10)16/h1-8H

> <STRUCTURE_InChIKey>
UXADOQPNKNTIHB-UHFFFAOYSA-N

> <Substance_modify_yyyymmdd>
20080429

> <Coord_Metals>
0

> <Index>
360

> <Canonical_Smiles>
Clc1ccccc1c2nnc(nn2)c3ccccc3Cl

> <Molecular_Weight>
303.14612

> <Frequency>
1

$$$$

  SciTegic          2D

 43 45  0  0  0  0            999 V2000
   -1.2964    1.4973    0.0000 N   0  0
   -1.2964   -1.4973    0.0000 N   0  0
   -2.6111    0.7486    0.0000 C   0  0
    0.0000   -0.7486    0.0000 C   0  0
   -5.1892    9.7577    0.0000 C   0  0
    0.0000    0.7486    0.0000 C   0  0
    1.2964   -1.4973    0.0000 C   0  0
   -5.1916    8.2569    0.0000 C   0  0
   -3.8935    7.5036    0.0000 O   0  0
   -3.9091    1.5019    0.0000 O   0  0
   -4.3223   10.2561    0.0000 O   0  0
   -2.6111   -0.7486    0.0000 C   0  0
    1.2964    1.4973    0.0000 C   0  0
    2.5929   -0.7486    0.0000 C   0  0
   -3.8958    6.0028    0.0000 C   0  0
   -3.9067    3.0027    0.0000 C   0  0
   -6.4873   10.5110    0.0000 O   0  0
    2.5929    0.7486    0.0000 C   0  0
    3.6321   -1.3486    0.0000 Cl  0  0
   -5.1976    5.2575    0.0000 C   0  0
   -2.5995    5.2481    0.0000 C   0  0
   -5.2030    3.7575    0.0000 C   0  0
   -2.6050    3.7481    0.0000 C   0  0
   -3.8637    9.0169    0.0000 C   0  0
   -6.4850   12.0118    0.0000 C   0  0
   -7.7831   12.7651    0.0000 C   0  0
    1.2964   -2.4973    0.0000 H   0  0
   -6.0585    7.7585    0.0000 H   0  0
   -3.4756   -1.2512    0.0000 H   0  0
    1.2964    2.4973    0.0000 H   0  0
    3.4589    1.2486    0.0000 H   0  0
   -6.0618    5.7607    0.0000 H   0  0
   -1.7317    5.7450    0.0000 H   0  0
   -6.0709    3.2607    0.0000 H   0  0
   -1.7408    3.2450    0.0000 H   0  0
   -2.9993    8.5142    0.0000 H   0  0
   -2.9961    9.5141    0.0000 H   0  0
   -3.8603   10.0169    0.0000 H   0  0
   -5.6180   12.5102    0.0000 H   0  0
   -5.6198   11.5103    0.0000 H   0  0
   -7.7815   13.7651    0.0000 H   0  0
   -8.6500   12.2667    0.0000 H   0  0
   -8.6482   13.2666    0.0000 H   0  0
  1  3  1  0
  1  6  2  0
  2  4  2  0
  2 12  1  0
  3 10  1  0
  3 12  2  0
  4  6  1  0
  4  7  1  0
  5  8  1  0
  5 11  2  0
  5 17  1  0
  6 13  1  0
  7 14  2  0
  8  9  1  0
  8 24  1  0
  9 15  1  0
 10 16  1  0
 13 18  2  0
 14 18  1  0
 14 19  1  0
 15 21  1  0
 15 20  2  0
 16 22  2  0
 16 23  1  0
 17 25  1  0
 20 22  1  0
 21 23  2  0
 25 26  1  0
  7 27  1  0
  8 28  1  0
 12 29  1  0
 13 30  1  0
 18 31  1  0
 20 32  1  0
 21 33  1  0
 22 34  1  0
 23 35  1  0
 24 36  1  0
 24 37  1  0
 24 38  1  0
 25 39  1  0
 25 40  1  0
 26 41  1  0
 26 42  1  0
 26 43  1  0
V    1 0
V    2 1
V    3 2
V    4 3
V    5 4
V    6 5
V    7 6
V    8 7
V    9 8
V   10 9
V   11 10
V   12 11
V   13 12
V   14 13
V   15 14
V   16 15
V   17 16
V   18 17
V   19 18
V   20 19
V   21 20
V   22 21
V   23 22
V   24 23
V   25 24
V   26 25
M  END
> <DSSTox_RID>
65430

> <DSSTox_CID>
3889

> <DSSTox_CID_Parent>
3889

> <DSSTox_Generic_SID>
23889

> <DSSTox_FileID>
361_TXCST2_v1a

> <STRUCTURE_Formula>
C19H17ClN2O4

> <STRUCTURE_MolecularWeight>
372.8023

> <STRUCTURE_ChemicalType>
defined organic

> <STRUCTURE_TestedForm_DefinedOrganic>
parent

> <STRUCTURE_Shown>
tested chemical

> <TestSubstance_ChemicalName>
Quizalofop-ethyl

> <TestSubstance_CASRN>
76578-14-8

> <TestSubstance_Description>
single chemical compound

> <STRUCTURE_ChemicalName_IUPAC>
ethyl 2-{4-[(6-chloroquinoxalin-2-yl)oxy]phenoxy}propanoate

> <STRUCTURE_SMILES>
CCOC(=O)C(C)Oc1ccc(cc1)Oc2cnc3cc(Cl)ccc3n2

> <STRUCTURE_Parent_SMILES>
CCOC(=O)C(C)Oc1ccc(cc1)Oc2cnc3cc(Cl)ccc3n2

> <STRUCTURE_InChIS>
InChI=1S/C19H17ClN2O4/c1-3-24-19(23)12(2)25-14-5-7-15(8-6-14)26-18-11-21-17-10-13(20)4-9-16(17)22-18/h4-12H,3H2,1-2H3

> <STRUCTURE_InChIKey>
OSUHJPCHFDQAIT-UHFFFAOYSA-N

> <Substance_modify_yyyymmdd>
20080429

> <Coord_Metals>
0

> <Index>
361

> <Canonical_Smiles>
CCOC(=O)C(C)Oc1ccc(Oc2cnc3cc(Cl)ccc3n2)cc1

> <Molecular_Weight>
372.80228

> <Frequency>
1

$$$$

  SciTegic          2D

 25 25  0  0  0  0            999 V2000
    5.1988   -1.5012    0.0000 C   0  0
    5.1984   -2.7012    0.0000 O   0  0
    6.4990   -0.7516    0.0000 O   0  0
    3.8990   -0.7508    0.0000 N   0  0
    2.5988   -1.5004    0.0000 S   0  0
    3.6377   -2.1009    0.0000 O   0  0
    2.5984   -2.7004    0.0000 O   0  0
    1.2990   -0.7500    0.0000 C   0  0
    1.2990    0.7500    0.0000 C   0  0
    0.0000   -1.5000    0.0000 C   0  0
    0.0000    1.5000    0.0000 C   0  0
   -1.2990   -0.7500    0.0000 C   0  0
   -1.2990    0.7500    0.0000 C   0  0
   -2.6003    1.4977    0.0000 N   0  0
    7.7988   -1.5020    0.0000 C   0  0
    3.8993    0.2492    0.0000 H   0  0
    2.1651    1.2500    0.0000 H   0  0
    0.0000   -2.5000    0.0000 H   0  0
    0.0000    2.5000    0.0000 H   0  0
   -2.1651   -1.2500    0.0000 H   0  0
   -3.4657    0.9965    0.0000 H   0  0
   -2.6021    2.4977    0.0000 H   0  0
    8.6651   -1.0026    0.0000 H   0  0
    7.7984   -2.5020    0.0000 H   0  0
    8.6645   -2.0025    0.0000 H   0  0
  1  2  2  0
  1  3  1  0
  1  4  1  0
  3 15  1  0
  4  5  1  0
  5  6  2  0
  5  7  2  0
  5  8  1  0
  8  9  2  0
  8 10  1  0
  9 11  1  0
 10 12  2  0
 11 13  2  0
 12 13  1  0
 13 14  1  0
  4 16  1  0
  9 17  1  0
 10 18  1  0
 11 19  1  0
 12 20  1  0
 14 21  1  0
 14 22  1  0
 15 23  1  0
 15 24  1  0
 15 25  1  0
V    1 0
V    2 1
V    3 2
V    4 3
V    5 4
V    6 5
V    7 6
V    8 7
V    9 8
V   10 9
V   11 10
V   12 11
V   13 12
V   14 13
V   15 14
M  END
> <DSSTox_RID>
62342

> <DSSTox_CID>
3890

> <DSSTox_CID_Parent>
3890

> <DSSTox_Generic_SID>
23890

> <DSSTox_FileID>
362_TXCST2_v1a

> <STRUCTURE_Formula>
C8H10N2O4S

> <STRUCTURE_MolecularWeight>
230.241

> <STRUCTURE_ChemicalType>
defined organic

> <STRUCTURE_TestedForm_DefinedOrganic>
parent

> <STRUCTURE_Shown>
tested chemical

> <TestSubstance_ChemicalName>
Asulam

> <TestSubstance_CASRN>
3337-71-1

> <TestSubstance_Description>
single chemical compound

> <STRUCTURE_ChemicalName_IUPAC>
methyl [(4-aminophenyl)sulfonyl]carbamate

> <STRUCTURE_SMILES>
O=C(NS(=O)(C1=CC=C(N)C=C1)=O)OC

> <STRUCTURE_Parent_SMILES>
O=C(NS(=O)(C1=CC=C(N)C=C1)=O)OC

> <STRUCTURE_InChIS>
InChI=1S/C8H10N2O4S/c1-14-8(11)10-15(12,13)7-4-2-6(9)3-5-7/h2-5H,9H2,1H3,(H,10,11)

> <STRUCTURE_InChIKey>
VGPYEHKOIGNJKV-UHFFFAOYSA-N

> <Substance_modify_yyyymmdd>
20080429

> <Coord_Metals>
0

> <Index>
362

> <Canonical_Smiles>
COC(=O)NS(=O)(=O)c1ccc(N)cc1

> <Molecular_Weight>
230.24099

> <Frequency>
1

$$$$

  SciTegic          2D

134140  0  0  0  0            999 V2000
    4.8486   12.4416    0.0000 C   0  0
    6.1477   13.3755    0.0000 C   0  0
    3.4810   12.9734    0.0000 C   0  0
    4.9169   10.9759    0.0000 C   0  0
    3.6299   11.5656    0.0000 O   0  0
    7.5836   11.3781    0.0000 O   0  0
    6.1686   14.9054    0.0000 C   0  0
    2.0926   11.9752    0.0000 C   0  0
    3.4068   14.4472    0.0000 C   0  0
    6.2845   10.4442    0.0000 C   0  0
    3.5285    9.9778    0.0000 C   0  0
    4.7060   15.3811    0.0000 C   0  0
    6.0005   16.3838    0.0000 O   0  0
    0.7192   12.5151    0.0000 O   0  0
    2.2414   10.7845    0.0000 O   0  0
    3.5968    8.5121    0.0000 C   0  0
    4.4929   16.8675    0.0000 C   0  0
   -0.6449   11.5345    0.0000 C   0  0
    2.2327    7.5315    0.0000 C   0  0
   -1.9312   12.1246    0.0000 C   0  0
   -0.4895   10.1191    0.0000 C   0  0
    2.3823    6.1242    0.0000 C   0  0
   -3.3197   11.1265    0.0000 C   0  0
   -1.8780    9.1209    0.0000 C   0  0
    0.9938    5.1260    0.0000 C   0  0
    3.5604    7.0211    0.0000 C   0  0
   -3.2513    9.6608    0.0000 O   0  0
   -4.6107   10.1984    0.0000 O   0  0
   -3.3881   12.5922    0.0000 C   0  0
   -1.8096    7.6553    0.0000 C   0  0
   -0.2071    4.2635    0.0000 O   0  0
   -0.3737    5.6578    0.0000 C   0  0
   -5.9783   10.7302    0.0000 C   0  0
   -4.7498   13.1158    0.0000 C   0  0
   -0.4421    7.1235    0.0000 C   0  0
   -1.5912    4.8437    0.0000 C   0  0
   -1.5915    4.7823    0.0000 C   0  0
   -6.0408   12.1877    0.0000 C   0  0
   -5.8053    9.2563    0.0000 C   0  0
   -2.9415    5.4486    0.0000 C   0  0
   -1.3683    3.3810    0.0000 O   0  0
   -6.1061   13.6648    0.0000 C   0  0
   -7.0258    8.3829    0.0000 C   0  0
   -4.4389    8.6356    0.0000 C   0  0
   -4.1352    4.5404    0.0000 C   0  0
   -2.5621    2.4727    0.0000 C   0  0
   -8.3929    9.0023    0.0000 C   0  0
   -3.9455    3.0524    0.0000 C   0  0
   -5.5377    4.0663    0.0000 O   0  0
   -1.1830    1.9344    0.0000 C   0  0
   -4.2362    1.6008    0.0000 O   0  0
   -6.6893    5.0288    0.0000 C   0  0
   -5.6455    1.0847    0.0000 C   0  0
   -7.0468    0.6098    0.0000 C   0  0
   -4.4873    0.1641    0.0000 O   0  0
   -7.3042   -0.8679    0.0000 C   0  0
   -4.7446   -1.3137    0.0000 C   0  0
   -6.1531   -1.8297    0.0000 C   0  0
   -8.0099   -2.1694    0.0000 O   0  0
   -3.3675   -0.7704    0.0000 C   0  0
   -4.9940   -2.7506    0.0000 O   0  0
   -9.5087   -2.2471    0.0000 C   0  0
    7.1016   13.6756    0.0000 H   0  0
    2.5800   13.4071    0.0000 H   0  0
    3.7288   10.5705    0.0000 H   0  0
    7.0729   14.4784    0.0000 H   0  0
    2.5058   14.8809    0.0000 H   0  0
    5.4729    9.8599    0.0000 H   0  0
    7.2162   10.0810    0.0000 H   0  0
    2.6282   10.4132    0.0000 H   0  0
    5.0900   16.7973    0.0000 H   0  0
    4.4971    8.0767    0.0000 H   0  0
    5.2790   17.4856    0.0000 H   0  0
    3.5647   17.2396    0.0000 H   0  0
    4.3509   17.8574    0.0000 H   0  0
   -0.7413   12.5298    0.0000 H   0  0
    1.3200    7.9400    0.0000 H   0  0
   -2.8509   12.5174    0.0000 H   0  0
   -1.8579   11.1273    0.0000 H   0  0
   -0.4083    9.1224    0.0000 H   0  0
    0.3059   10.7252    0.0000 H   0  0
    2.4608    5.1273    0.0000 H   0  0
   -2.6910    8.5387    0.0000 H   0  0
    1.9260    4.7639    0.0000 H   0  0
    3.4582    8.0159    0.0000 H   0  0
    3.6627    6.0264    0.0000 H   0  0
    4.4731    6.6125    0.0000 H   0  0
   -2.5772   13.1774    0.0000 H   0  0
   -0.9866    8.2233    0.0000 H   0  0
   -1.6912    6.6623    0.0000 H   0  0
   -6.8810   11.1603    0.0000 H   0  0
   -4.8775   14.1076    0.0000 H   0  0
    0.3699    7.7072    0.0000 H   0  0
   -1.7178    5.8356    0.0000 H   0  0
   -1.4926    3.7873    0.0000 H   0  0
   -2.5029    5.1940    0.0000 H   0  0
   -2.4038    4.1990    0.0000 H   0  0
   -5.1299   11.7751    0.0000 H   0  0
   -5.7081    8.2610    0.0000 H   0  0
   -2.1251    6.0261    0.0000 H   0  0
   -3.8677    5.8256    0.0000 H   0  0
   -5.2782   14.2255    0.0000 H   0  0
   -6.1776   14.6622    0.0000 H   0  0
   -7.0056   14.1017    0.0000 H   0  0
   -7.1233    9.3781    0.0000 H   0  0
   -6.9281    7.3877    0.0000 H   0  0
   -4.3413    7.6403    0.0000 H   0  0
   -3.5283    8.2224    0.0000 H   0  0
   -3.6257    9.2175    0.0000 H   0  0
   -3.2227    4.1314    0.0000 H   0  0
   -3.3725    1.8869    0.0000 H   0  0
   -9.2061    8.4204    0.0000 H   0  0
   -9.3035    9.4155    0.0000 H   0  0
   -8.4905    9.9975    0.0000 H   0  0
   -4.8581    3.4614    0.0000 H   0  0
   -0.3869    2.5395    0.0000 H   0  0
   -0.2608    1.5477    0.0000 H   0  0
   -1.0566    0.9424    0.0000 H   0  0
   -7.6285    4.6855    0.0000 H   0  0
   -7.4563    5.6704    0.0000 H   0  0
   -6.5172    6.0139    0.0000 H   0  0
   -6.4130    1.7258    0.0000 H   0  0
   -6.3022   -0.0576    0.0000 H   0  0
   -7.9822    0.2562    0.0000 H   0  0
   -8.0557   -0.2082    0.0000 H   0  0
   -5.4961   -0.6539    0.0000 H   0  0
   -7.1002   -2.1506    0.0000 H   0  0
   -3.1955    0.2147    0.0000 H   0  0
   -2.4284   -0.4266    0.0000 H   0  0
   -2.6002   -1.4116    0.0000 H   0  0
   -4.0549   -2.4070    0.0000 H   0  0
   -9.9637   -3.1375    0.0000 H   0  0
  -10.5074   -2.2984    0.0000 H   0  0
  -10.0526   -1.4079    0.0000 H   0  0
  1  2  1  0
  1  3  1  0
  1  4  1  0
  1  5  1  0
  2  6  1  0
  2  7  1  0
  3  8  1  0
  3  9  1  0
  4 10  1  0
  4 11  2  0
  6 10  1  0
  7 12  1  0
  7 13  1  0
  8 14  1  0
  8 15  2  0
  9 12  2  0
 11 16  1  0
 12 17  1  0
 18 14  1  0
 16 19  2  0
 18 20  1  0
 18 21  1  0
 19 22  1  0
 20 23  1  0
 21 24  1  0
 22 25  1  0
 22 26  1  0
 23 27  1  0
 23 28  1  0
 23 29  1  0
 24 30  1  0
 24 27  1  0
 25 31  1  0
 25 32  1  0
 28 33  1  0
 29 34  2  0
 35 30  1  0
 36 31  1  0
 32 37  1  0
 32 35  2  0
 33 38  1  0
 33 39  1  0
 34 38  1  0
 36 40  1  0
 36 41  1  0
 38 42  1  0
 39 43  1  0
 39 44  1  0
 40 45  1  0
 41 46  1  0
 43 47  1  0
 45 48  1  0
 45 49  1  0
 46 50  1  0
 46 48  1  0
 48 51  1  0
 49 52  1  0
 53 51  1  0
 53 54  1  0
 53 55  1  0
 54 56  1  0
 55 57  1  0
 56 58  1  0
 56 59  1  0
 57 60  1  0
 57 58  1  0
 58 61  1  0
 59 62  1  0
  2 63  1  0
  3 64  1  0
  5 65  1  0
  7 66  1  0
  9 67  1  0
 10 68  1  0
 10 69  1  0
 11 70  1  0
 13 71  1  0
 16 72  1  0
 17 73  1  0
 17 74  1  0
 17 75  1  0
 18 76  1  0
 19 77  1  0
 20 78  1  0
 20 79  1  0
 21 80  1  0
 21 81  1  0
 22 82  1  0
 24 83  1  0
 25 84  1  0
 26 85  1  0
 26 86  1  0
 26 87  1  0
 29 88  1  0
 30 89  1  0
 30 90  1  0
 33 91  1  0
 34 92  1  0
 35 93  1  0
 36 94  1  0
 37 95  1  0
 37 96  1  0
 37 97  1  0
 38 98  1  0
 39 99  1  0
 40100  1  0
 40101  1  0
 42102  1  0
 42103  1  0
 42104  1  0
 43105  1  0
 43106  1  0
 44107  1  0
 44108  1  0
 44109  1  0
 45110  1  0
 46111  1  0
 47112  1  0
 47113  1  0
 47114  1  0
 48115  1  0
 50116  1  0
 50117  1  0
 50118  1  0
 52119  1  0
 52120  1  0
 52121  1  0
 53122  1  0
 54123  1  0
 54124  1  0
 56125  1  0
 57126  1  0
 58127  1  0
 60128  1  0
 60129  1  0
 60130  1  0
 61131  1  0
 62132  1  0
 62133  1  0
 62134  1  0
V    1 0
V    2 1
V    3 2
V    4 3
V    5 4
V    6 5
V    7 6
V    8 7
V    9 8
V   10 9
V   11 10
V   12 11
V   13 12
V   14 13
V   15 14
V   16 15
V   17 16
V   18 17
V   19 18
V   20 19
V   21 20
V   22 21
V   23 22
V   24 23
V   25 24
V   26 25
V   27 26
V   28 27
V   29 28
V   30 29
V   31 30
V   32 31
V   33 32
V   34 33
V   35 34
V   36 35
V   37 36
V   38 37
V   39 38
V   40 39
V   41 40
V   42 41
V   43 42
V   44 43
V   45 44
V   46 45
V   47 46
V   48 47
V   49 48
V   50 49
V   51 50
V   52 51
V   53 52
V   54 53
V   55 54
V   56 55
V   57 56
V   58 57
V   59 58
V   60 59
V   61 60
V   62 61
M  END
> <DSSTox_RID>
65431

> <DSSTox_CID>
3892

> <DSSTox_CID_Parent>
3892

> <DSSTox_Generic_SID>
23892

> <DSSTox_FileID>
363_TXCST2_v1a

> <STRUCTURE_Formula>
C48H72O14

> <STRUCTURE_MolecularWeight>
873.0769

> <STRUCTURE_ChemicalType>
defined organic

> <STRUCTURE_TestedForm_DefinedOrganic>
parent

> <STRUCTURE_Shown>
representative component in mixture

> <TestSubstance_ChemicalName>
Abamectin

> <TestSubstance_CASRN>
71751-41-2

> <TestSubstance_Description>
mixture or formulation

> <ChemicalNote>
mixture of B1a [65195-55-3] ethyl form and B1b [65195-56-4] methyl form (4:1); structure shown B1a; stereochem

> <Source_ChemicalNote>
tested chemical contained 2.79% water (1.39 moles H2O)

> <STRUCTURE_ChemicalName_IUPAC>
(2aE,4E,8E)-(5'S,6S,6'R,7S,11R,13S,15S,17aR,20R,20aR,20bS)-6'-((S)-sec-Butyl)-5',6,6',7,10,11,14,15,17a,20,20a,20b-dodecahydro-20,20b-dihydroxy-5',6,8,19-tetramethyl-17-oxospiro(11,15-methano-2H,13H,1
7H-furo(4,3,2-pq)(2,6)benzodioxacyclooctadecin-13,2'-(2H)pyran)-7-yl 2,6-dideoxy-4-O-(2,6-dideoxy-3-O-methyl-alpha-L-arabino-hexopyranosyl)-3-O-methyl-alpha-L-arabino-hexopyranoside

> <STRUCTURE_SMILES>
CO[C@H]1C[C@@H](O[C@@H](C)[C@@H]1O)O[C@@H]2[C@@H](OC)C[C@@H](O[C@H]2C)O[C@@H]3C(\C)=C\C[C@@H]7C[C@H](OC(=O)[C@@H]4/C=C(/C)[C@@H](O)[C@H]5OC/C(=C\C=C\[C@@H]3C)[C@@]45O)C[C@]6(/C=C\[C@H](C)[C@H](O6)[C@@
H](C)CC)O7

> <STRUCTURE_Parent_SMILES>
CO[C@H]1C[C@@H](O[C@@H](C)[C@@H]1O)O[C@@H]2[C@@H](OC)C[C@@H](O[C@H]2C)O[C@@H]3C(\C)=C\C[C@@H]7C[C@H](OC(=O)[C@@H]4/C=C(/C)[C@@H](O)[C@H]5OC/C(=C\C=C\[C@@H]3C)[C@@]45O)C[C@]6(/C=C\[C@H](C)[C@H](O6)[C@@
H](C)CC)O7

> <STRUCTURE_InChIS>
InChI=1S/C48H72O14/c1-11-25(2)43-28(5)17-18-47(62-43)23-34-20-33(61-47)16-15-27(4)42(26(3)13-12-14-32-24-55-45-40(49)29(6)19-35(46(51)58-34)48(32,45)52)59-39-22-37(54-10)44(31(8)57-39)60-38-21-36(53-9
)41(50)30(7)56-38/h12-15,17-19,25-26,28,30-31,33-45,49-50,52H,11,16,20-24H2,1-10H3/b13-12+,27-15+,32-14+/t25-,26-,28-,30-,31-,33+,34-,35-,36-,37-,38-,39-,40+,41-,42-,43+,44-,45+,47+,48+/m0/s1

> <STRUCTURE_InChIKey>
RRZXIRBKKLTSOM-XPNPUAGNSA-N

> <Substance_modify_yyyymmdd>
20080429

> <Coord_Metals>
0

> <Index>
363

> <Canonical_Smiles>
CCC(C)C1OC2(CC3CC(CC=C(C)C(OC4CC(OC)C(OC5CC(OC)C(O)C(C)O5)C(C)O4)C(C)C=CC=C6COC7C(O)C(=CC(C(=O)O3)C67O)C)O2)C=CC1C

> <Molecular_Weight>
873.07687

> <Frequency>
1

$$$$

  SciTegic          2D

 36 37  0  0  0  0            999 V2000
   -0.0119   -7.5003    0.0000 C   0  0
    1.2866   -8.2529    0.0000 N   0  0
   -1.3143   -8.2461    0.0000 C   0  0
    3.6407   -8.7506    0.0000 N   0  0
    1.4218   -9.7340    0.0000 N   0  0
    2.6390   -7.6342    0.0000 C   0  0
    2.8885  -10.0484    0.0000 C   0  0
   -0.0101   -5.9994    0.0000 O   0  0
   -1.3205   -9.7469    0.0000 C   0  0
   -2.1784   -7.7428    0.0000 O   0  0
   -1.3085   -5.2467    0.0000 C   0  0
   -3.9070   -3.7473    0.0000 C   0  0
   -4.9463   -3.1475    0.0000 Cl  0  0
   -1.3089   -3.7466    0.0000 C   0  0
   -2.6074   -5.9970    0.0000 C   0  0
   -2.6081   -2.9970    0.0000 C   0  0
   -3.9066   -5.2473    0.0000 C   0  0
   -2.6228  -10.4928    0.0000 C   0  0
   -0.0237  -10.5023    0.0000 C   0  0
   -2.6411   -8.9744    0.0000 C   0  0
   -0.8767   -6.9982    0.0000 H   0  0
    2.8427   -6.6552    0.0000 H   0  0
    3.2937  -10.9626    0.0000 H   0  0
   -0.4430   -3.2464    0.0000 H   0  0
   -2.6071   -6.9970    0.0000 H   0  0
   -2.6083   -1.9970    0.0000 H   0  0
   -4.7725   -5.7475    0.0000 H   0  0
   -2.6270  -11.4928    0.0000 H   0  0
   -3.4909  -10.9894    0.0000 H   0  0
   -3.4870   -9.9895    0.0000 H   0  0
    0.8446  -10.0061    0.0000 H   0  0
    0.8402  -11.0060    0.0000 H   0  0
   -0.0278  -11.5023    0.0000 H   0  0
   -2.6360   -7.9745    0.0000 H   0  0
   -3.5098   -9.4698    0.0000 H   0  0
   -3.5045   -8.4699    0.0000 H   0  0
  1  2  1  0
  1  3  1  0
  1  8  1  0
  2  5  1  0
  2  6  1  0
  3  9  1  0
  3 10  2  0
  4  6  2  0
  4  7  1  0
  5  7  2  0
  8 11  1  0
  9 18  1  0
  9 19  1  0
  9 20  1  0
 11 14  1  0
 11 15  2  0
 12 17  2  0
 12 13  1  0
 12 16  1  0
 14 16  2  0
 15 17  1  0
  1 21  1  0
  6 22  1  0
  7 23  1  0
 14 24  1  0
 15 25  1  0
 16 26  1  0
 17 27  1  0
 18 28  1  0
 18 29  1  0
 18 30  1  0
 19 31  1  0
 19 32  1  0
 19 33  1  0
 20 34  1  0
 20 35  1  0
 20 36  1  0
V    1 0
V    2 1
V    3 2
V    4 3
V    5 4
V    6 5
V    7 6
V    8 7
V    9 8
V   10 9
V   11 10
V   12 11
V   13 12
V   14 13
V   15 14
V   16 15
V   17 16
V   18 17
V   19 18
V   20 19
M  END
> <DSSTox_RID>
65432

> <DSSTox_CID>
3897

> <DSSTox_CID_Parent>
3897

> <DSSTox_Generic_SID>
23897

> <DSSTox_FileID>
364_TXCST2_v1a

> <STRUCTURE_Formula>
C14H16ClN3O2

> <STRUCTURE_MolecularWeight>
293.7487

> <STRUCTURE_ChemicalType>
defined organic

> <STRUCTURE_TestedForm_DefinedOrganic>
parent

> <STRUCTURE_Shown>
tested chemical

> <TestSubstance_ChemicalName>
Triadimefon

> <TestSubstance_CASRN>
43121-43-3

> <TestSubstance_Description>
single chemical compound

> <ChemicalNote>
mixture of (R,S) isomers; structure shown without stereochem

> <Source_ChemicalNote>
tested chemical contained 0.0876% water (0.01 moles H2O)

> <STRUCTURE_ChemicalName_IUPAC>
1-(4-chlorophenoxy)-3,3-dimethyl-1-(1H-1,2,4-triazol-1-yl)butan-2-one

> <STRUCTURE_SMILES>
CC(C)(C)C(=O)C(Oc1ccc(Cl)cc1)n2cncn2

> <STRUCTURE_Parent_SMILES>
CC(C)(C)C(=O)C(Oc1ccc(Cl)cc1)n2cncn2

> <STRUCTURE_InChIS>
InChI=1S/C14H16ClN3O2/c1-14(2,3)12(19)13(18-9-16-8-17-18)20-11-6-4-10(15)5-7-11/h4-9,13H,1-3H3

> <STRUCTURE_InChIKey>
WURBVZBTWMNKQT-UHFFFAOYSA-N

> <Substance_modify_yyyymmdd>
20080429

> <Coord_Metals>
0

> <Index>
364

> <Canonical_Smiles>
CC(C)(C)C(=O)C(Oc1ccc(Cl)cc1)n2cncn2

> <Molecular_Weight>
293.74874

> <Frequency>
1

$$$$

  SciTegic          2D

 39 39  0  0  0  0            999 V2000
    1.2990   -0.7500    0.0000 C   0  0
    0.0000    1.5000    0.0000 C   0  0
    1.2990    0.7500    0.0000 C   0  0
   -0.0031    3.0008    0.0000 N   0  0
    2.5973   -1.5031    0.0000 N   0  0
   -2.5988   -1.5004    0.0000 C   0  0
   -1.2990   -0.7500    0.0000 C   0  0
    0.0000   -1.5000    0.0000 C   0  0
   -1.2990    0.7500    0.0000 C   0  0
    2.5972    1.5031    0.0000 N   0  0
    1.0345    3.6036    0.0000 O   0  0
    2.5956   -2.7031    0.0000 O   0  0
    3.4642   -1.0046    0.0000 O   0  0
   -1.0438    3.5984    0.0000 O   0  0
   -2.5995   -2.7004    0.0000 F   0  0
   -3.6378   -0.9001    0.0000 F   0  0
   -3.6383   -2.0999    0.0000 F   0  0
    3.8968    0.7523    0.0000 C   0  0
    2.5951    3.0039    0.0000 C   0  0
    3.8933    3.7570    0.0000 C   0  0
    3.8912    5.2578    0.0000 C   0  0
    5.1972    1.5015    0.0000 C   0  0
    5.1894    6.0109    0.0000 C   0  0
    0.0000   -2.5000    0.0000 H   0  0
   -2.1651    1.2500    0.0000 H   0  0
    3.0305    0.2527    0.0000 H   0  0
    3.8961   -0.2477    0.0000 H   0  0
    1.7299    2.5026    0.0000 H   0  0
    1.7282    3.5024    0.0000 H   0  0
    3.8952    2.7570    0.0000 H   0  0
    4.7602    3.2585    0.0000 H   0  0
    3.0259    4.7565    0.0000 H   0  0
    3.0243    5.7563    0.0000 H   0  0
    6.0631    1.0012    0.0000 H   0  0
    6.0635    2.0011    0.0000 H   0  0
    5.1979    2.5015    0.0000 H   0  0
    5.1879    7.0109    0.0000 H   0  0
    6.0546    6.5123    0.0000 H   0  0
    6.0563    5.5125    0.0000 H   0  0
  1  3  2  0
  1  5  1  0
  1  8  1  0
  2  3  1  0
  2  4  1  0
  2  9  2  0
  3 10  1  0
  4 11  2  0
  4 14  2  0
  5 12  2  0
  5 13  2  0
  6  7  1  0
  6 15  1  0
  6 16  1  0
  6 17  1  0
  7  8  2  0
  7  9  1  0
 10 18  1  0
 10 19  1  0
 18 22  1  0
 19 20  1  0
 20 21  1  0
 21 23  1  0
  8 24  1  0
  9 25  1  0
 18 26  1  0
 18 27  1  0
 19 28  1  0
 19 29  1  0
 20 30  1  0
 20 31  1  0
 21 32  1  0
 21 33  1  0
 22 34  1  0
 22 35  1  0
 22 36  1  0
 23 37  1  0
 23 38  1  0
 23 39  1  0
V    1 0
V    2 1
V    3 2
V    4 3
V    5 4
V    6 5
V    7 6
V    8 7
V    9 8
V   10 9
V   11 10
V   12 11
V   13 12
V   14 13
V   15 14
V   16 15
V   17 16
V   18 17
V   19 18
V   20 19
V   21 20
V   22 21
V   23 22
M  END
> <DSSTox_RID>
65350

> <DSSTox_CID>
3899

> <DSSTox_CID_Parent>
3899

> <DSSTox_Generic_SID>
23899

> <DSSTox_FileID>
365_TXCST2_v1a

> <STRUCTURE_Formula>
C13H16F3N3O4

> <STRUCTURE_MolecularWeight>
335.279

> <STRUCTURE_ChemicalType>
defined organic

> <STRUCTURE_TestedForm_DefinedOrganic>
parent

> <STRUCTURE_Shown>
tested chemical

> <TestSubstance_ChemicalName>
Benfluralin

> <TestSubstance_CASRN>
1861-40-1

> <TestSubstance_Description>
single chemical compound

> <STRUCTURE_ChemicalName_IUPAC>
N-butyl-N-ethyl-2,6-dinitro-4-(trifluoromethyl)aniline

> <STRUCTURE_SMILES>
[O-][N+](=O)c1cc(cc([N+]([O-])=O)c1N(CCCC)CC)C(F)(F)F

> <STRUCTURE_Parent_SMILES>
[O-][N+](=O)c1cc(cc([N+]([O-])=O)c1N(CCCC)CC)C(F)(F)F

> <STRUCTURE_InChIS>
InChI=1S/C13H16F3N3O4/c1-3-5-6-17(4-2)12-10(18(20)21)7-9(13(14,15)16)8-11(12)19(22)23/h7-8H,3-6H2,1-2H3

> <STRUCTURE_InChIKey>
SMDHCQAYESWHAE-UHFFFAOYSA-N

> <Substance_modify_yyyymmdd>
20080429

> <Coord_Metals>
0

> <Index>
365

> <Canonical_Smiles>
CCCCN(CC)c1c(cc(cc1N(=O)=O)C(F)(F)F)N(=O)=O

> <Molecular_Weight>
335.27904

> <Frequency>
1

$$$$

  SciTegic          2D

 39 40  0  0  0  0            999 V2000
    2.5889    0.0182    0.0000 C   0  0
    1.7138    1.2033    0.0000 N   0  0
    1.7138   -1.2033    0.0000 N   0  0
    4.0872    0.0320    0.0000 N   0  0
    2.1812    2.6271    0.0000 C   0  0
    0.2917    0.7475    0.0000 C   0  0
    0.2917   -0.7475    0.0000 C   0  0
    4.8506   -1.2602    0.0000 C   0  0
    1.3808    3.5211    0.0000 O   0  0
    4.2606   -2.3052    0.0000 O   0  0
    3.6500    2.9355    0.0000 N   0  0
    6.3513   -1.2462    0.0000 O   0  0
   -1.0028    1.5132    0.0000 C   0  0
   -1.0028   -1.5132    0.0000 C   0  0
    4.1182    4.3614    0.0000 C   0  0
    7.1146   -2.5384    0.0000 C   0  0
    5.5870    4.6698    0.0000 C   0  0
    6.0553    6.0958    0.0000 C   0  0
   -2.3155    0.7475    0.0000 C   0  0
   -2.3155   -0.7475    0.0000 C   0  0
    7.5241    6.4042    0.0000 C   0  0
    4.5789    0.9028    0.0000 H   0  0
    4.3171    2.1905    0.0000 H   0  0
   -0.9997    2.5132    0.0000 H   0  0
   -0.9997   -2.5132    0.0000 H   0  0
    3.4512    5.1065    0.0000 H   0  0
    3.1395    4.1564    0.0000 H   0  0
    8.1146   -2.5291    0.0000 H   0  0
    6.6230   -3.4092    0.0000 H   0  0
    7.6228   -3.3997    0.0000 H   0  0
    6.2541    3.9248    0.0000 H   0  0
    5.2755    3.7196    0.0000 H   0  0
    5.3882    6.8408    0.0000 H   0  0
    5.0765    5.8907    0.0000 H   0  0
   -3.1826    1.2456    0.0000 H   0  0
   -3.1826   -1.2456    0.0000 H   0  0
    7.8360    7.3543    0.0000 H   0  0
    8.1911    5.6592    0.0000 H   0  0
    8.5028    6.6092    0.0000 H   0  0
  1  2  1  0
  1  3  2  0
  1  4  1  0
  2  5  1  0
  2  6  1  0
  3  7  1  0
  4  8  1  0
  5  9  2  0
  5 11  1  0
  6 13  2  0
  6  7  1  0
  7 14  2  0
  8 10  2  0
  8 12  1  0
 11 15  1  0
 12 16  1  0
 13 19  1  0
 14 20  1  0
 15 17  1  0
 17 18  1  0
 18 21  1  0
 19 20  2  0
  4 22  1  0
 11 23  1  0
 13 24  1  0
 14 25  1  0
 15 26  1  0
 15 27  1  0
 16 28  1  0
 16 29  1  0
 16 30  1  0
 17 31  1  0
 17 32  1  0
 18 33  1  0
 18 34  1  0
 19 35  1  0
 20 36  1  0
 21 37  1  0
 21 38  1  0
 21 39  1  0
V    1 0
V    2 1
V    3 2
V    4 3
V    5 4
V    6 5
V    7 6
V    8 7
V    9 8
V   10 9
V   11 10
V   12 11
V   13 12
V   14 13
V   15 14
V   16 15
V   17 16
V   18 17
V   19 18
V   20 19
V   21 20
M  END
> <DSSTox_RID>
65433

> <DSSTox_CID>
3900

> <DSSTox_CID_Parent>
3900

> <DSSTox_Generic_SID>
23900

> <DSSTox_FileID>
366_TXCST2_v1a

> <STRUCTURE_Formula>
C14H18N4O3

> <STRUCTURE_MolecularWeight>
290.3177

> <STRUCTURE_ChemicalType>
defined organic

> <STRUCTURE_TestedForm_DefinedOrganic>
parent

> <STRUCTURE_Shown>
tested chemical

> <TestSubstance_ChemicalName>
Benomyl

> <TestSubstance_CASRN>
17804-35-2

> <TestSubstance_Description>
single chemical compound

> <STRUCTURE_ChemicalName_IUPAC>
methyl {1-[(butylamino)carbonyl]-1H-benzimidazol-2-yl}carbamate

> <STRUCTURE_SMILES>
CCCCNC(=O)n1c2ccccc2nc1NC(=O)OC

> <STRUCTURE_Parent_SMILES>
CCCCNC(=O)n1c2ccccc2nc1NC(=O)OC

> <STRUCTURE_InChIS>
InChI=1S/C14H18N4O3/c1-3-4-9-15-13(19)18-11-8-6-5-7-10(11)16-12(18)17-14(20)21-2/h5-8H,3-4,9H2,1-2H3,(H,15,19)(H,16,17,20)

> <STRUCTURE_InChIKey>
RIOXQFHNBCKOKP-UHFFFAOYSA-N

> <Substance_modify_yyyymmdd>
20080429

> <Coord_Metals>
0

> <Index>
366

> <Canonical_Smiles>
CCCCNC(=O)n1c(NC(=O)OC)nc2ccccc12

> <Molecular_Weight>
290.31772

> <Frequency>
1

$$$$

  SciTegic          2D

 28 29  0  0  0  0            999 V2000
   -2.6111    0.7486    0.0000 S   0  0
   -2.6111   -0.7486    0.0000 N   0  0
   -1.2964   -1.4973    0.0000 C   0  0
   -1.2964    1.4973    0.0000 N   0  0
    0.0000   -0.7486    0.0000 C   0  0
    0.0000    0.7486    0.0000 C   0  0
   -2.5795    1.9482    0.0000 O   0  0
   -3.6380    0.1277    0.0000 O   0  0
   -1.2928   -2.6973    0.0000 O   0  0
   -3.9106   -1.4992    0.0000 C   0  0
    1.2964   -1.4973    0.0000 C   0  0
    1.2964    1.4973    0.0000 C   0  0
   -5.2109   -0.7498    0.0000 C   0  0
   -3.9099   -3.0000    0.0000 C   0  0
    2.5929   -0.7486    0.0000 C   0  0
    2.5929    0.7486    0.0000 C   0  0
   -1.2934    2.4973    0.0000 H   0  0
   -3.9111   -0.4992    0.0000 H   0  0
    1.2964   -2.4973    0.0000 H   0  0
    1.2964    2.4973    0.0000 H   0  0
   -6.0769   -1.2499    0.0000 H   0  0
   -5.2114    0.2502    0.0000 H   0  0
   -6.0771   -0.2501    0.0000 H   0  0
   -4.7754   -3.5009    0.0000 H   0  0
   -3.0435   -3.4993    0.0000 H   0  0
   -3.9090   -4.0000    0.0000 H   0  0
    3.4589   -1.2486    0.0000 H   0  0
    3.4589    1.2486    0.0000 H   0  0
  1  2  1  0
  1  4  1  0
  1  7  2  0
  1  8  2  0
  2  3  1  0
  2 10  1  0
  3  9  2  0
  3  5  1  0
  4  6  1  0
  5  6  2  0
  5 11  1  0
  6 12  1  0
 10 13  1  0
 10 14  1  0
 11 15  2  0
 12 16  2  0
 15 16  1  0
  4 17  1  0
 10 18  1  0
 11 19  1  0
 12 20  1  0
 13 21  1  0
 13 22  1  0
 13 23  1  0
 14 24  1  0
 14 25  1  0
 14 26  1  0
 15 27  1  0
 16 28  1  0
V    1 0
V    2 1
V    3 2
V    4 3
V    5 4
V    6 5
V    7 6
V    8 7
V    9 8
V   10 9
V   11 10
V   12 11
V   13 12
V   14 13
V   15 14
V   16 15
M  END
> <DSSTox_RID>
66561

> <DSSTox_CID>
3901

> <DSSTox_CID_Parent>
3901

> <DSSTox_Generic_SID>
23901

> <DSSTox_FileID>
367_TXCST2_v1a

> <STRUCTURE_Formula>
C10H12N2O3S

> <STRUCTURE_MolecularWeight>
240.2789

> <STRUCTURE_ChemicalType>
defined organic

> <STRUCTURE_TestedForm_DefinedOrganic>
parent

> <STRUCTURE_Shown>
tested chemical

> <TestSubstance_ChemicalName>
Bentazone

> <TestSubstance_CASRN>
25057-89-0

> <TestSubstance_Description>
single chemical compound

> <Source_ChemicalNote>
tested chemical contained 0.02% water

> <STRUCTURE_ChemicalName_IUPAC>
3-isopropyl-1H-2,1,3-benzothiadiazin-4(3H)-one 2,2-dioxide

> <STRUCTURE_SMILES>
CC(C)N1C(=O)c2ccccc2NS1(=O)=O

> <STRUCTURE_Parent_SMILES>
CC(C)N1C(=O)c2ccccc2NS1(=O)=O

> <STRUCTURE_InChIS>
InChI=1S/C10H12N2O3S/c1-7(2)12-10(13)8-5-3-4-6-9(8)11-16(12,14)15/h3-7,11H,1-2H3

> <STRUCTURE_InChIKey>
ZOMSMJKLGFBRBS-UHFFFAOYSA-N

> <Substance_modify_yyyymmdd>
20080429

> <Coord_Metals>
0

> <Index>
367

> <Canonical_Smiles>
CC(C)N1C(=O)c2ccccc2NS1(=O)=O

> <Molecular_Weight>
240.27887

> <Frequency>
1

$$$$

  SciTegic          2D

 30 33  0  0  0  0            999 V2000
    0.1872    0.3744    0.0000 C   0  0
   -1.0997    1.1699    0.0000 C   0  0
    0.1872   -1.0295    0.0000 C   0  0
    1.4975    1.1231    0.0000 C   0  0
   -1.0997   -1.8485    0.0000 C   0  0
   -2.4334    0.4212    0.0000 C   0  0
   -2.4334   -1.0997    0.0000 C   0  0
    1.4975   -1.8485    0.0000 C   0  0
    2.8078    0.3744    0.0000 C   0  0
    2.8078   -1.0295    0.0000 C   0  0
    1.4975    2.6206    0.0000 C   0  0
   -3.7203    1.1699    0.0000 C   0  0
   -3.7203   -1.8485    0.0000 C   0  0
    4.0947    1.1231    0.0000 C   0  0
    2.8078    3.3928    0.0000 C   0  0
   -5.0306    0.3744    0.0000 C   0  0
   -5.0306   -1.0295    0.0000 C   0  0
    4.0947    2.6206    0.0000 C   0  0
   -1.0787    2.1697    0.0000 H   0  0
   -1.0721   -2.8481    0.0000 H   0  0
    1.4975   -2.8485    0.0000 H   0  0
    3.6824   -1.5143    0.0000 H   0  0
    0.6293    3.1168    0.0000 H   0  0
   -3.7297    2.1699    0.0000 H   0  0
   -3.7362   -2.8483    0.0000 H   0  0
    4.9616    0.6246    0.0000 H   0  0
    2.8118    4.3928    0.0000 H   0  0
   -5.9021    0.8648    0.0000 H   0  0
   -5.9053   -1.5143    0.0000 H   0  0
    4.9649    3.1133    0.0000 H   0  0
  1  2  2  0
  1  3  1  0
  1  4  1  0
  2  6  1  0
  3  5  2  0
  3  8  1  0
  4  9  2  0
  4 11  1  0
  5  7  1  0
  6 12  1  0
  6  7  2  0
  7 13  1  0
  8 10  2  0
  9 10  1  0
  9 14  1  0
 11 15  2  0
 12 16  2  0
 13 17  2  0
 14 18  2  0
 15 18  1  0
 16 17  1  0
  2 19  1  0
  5 20  1  0
  8 21  1  0
 10 22  1  0
 11 23  1  0
 12 24  1  0
 13 25  1  0
 14 26  1  0
 15 27  1  0
 16 28  1  0
 17 29  1  0
 18 30  1  0
V    1 0
V    2 1
V    3 2
V    4 3
V    5 4
V    6 5
V    7 6
V    8 7
V    9 8
V   10 9
V   11 10
V   12 11
V   13 12
V   14 13
V   15 14
V   16 15
V   17 16
V   18 17
M  END
> <DSSTox_RID>
65730

> <DSSTox_CID>
3902

> <DSSTox_CID_Parent>
3902

> <DSSTox_Generic_SID>
23902

> <DSSTox_FileID>
368_TXCST2_v1a

> <STRUCTURE_Formula>
C18H12

> <STRUCTURE_MolecularWeight>
228.2879

> <STRUCTURE_ChemicalType>
defined organic

> <STRUCTURE_TestedForm_DefinedOrganic>
parent

> <STRUCTURE_Shown>
tested chemical

> <TestSubstance_ChemicalName>
Benz[a]anthracene

> <TestSubstance_CASRN>
56-55-3

> <TestSubstance_Description>
single chemical compound

> <STRUCTURE_ChemicalName_IUPAC>
benz[a]anthracene

> <STRUCTURE_SMILES>
C34=CC2=CC=C1C=CC=CC1=C2C=C3C=CC=C4

> <STRUCTURE_Parent_SMILES>
C34=CC2=CC=C1C=CC=CC1=C2C=C3C=CC=C4

> <STRUCTURE_InChIS>
InChI=1S/C18H12/c1-2-7-15-12-18-16(11-14(15)6-1)10-9-13-5-3-4-8-17(13)18/h1-12H

> <STRUCTURE_InChIKey>
DXBHBZVCASKNBY-UHFFFAOYSA-N

> <Substance_modify_yyyymmdd>
20080429

> <Coord_Metals>
0

> <Index>
368

> <Canonical_Smiles>
c1ccc2cc3c(ccc4ccccc34)cc2c1

> <Molecular_Weight>
228.28787

> <Frequency>
1

$$$$

  SciTegic          2D

 32 36  0  0  0  0            999 V2000
   -0.1300    0.5600    0.0000 C   0  0
   -0.3600   -0.8700    0.0000 C   0  0
   -1.2400    1.4800    0.0000 C   0  0
    1.2500    1.0500    0.0000 C   0  0
   -2.0200   -1.0200    0.0000 C   0  0
   -2.6100    0.5500    0.0000 C   0  0
    0.7400   -1.8100    0.0000 C   0  0
    2.3700    0.1300    0.0000 C   0  0
    2.1200   -1.3000    0.0000 C   0  0
   -0.9900    2.9400    0.0000 C   0  0
    1.4900    2.5000    0.0000 C   0  0
   -3.1100   -2.3100    0.0000 C   0  0
   -4.2800    0.8100    0.0000 C   0  0
    3.7600    0.6200    0.0000 C   0  0
    0.3600    3.4500    0.0000 C   0  0
    3.2500   -2.2500    0.0000 C   0  0
   -5.3500   -0.4500    0.0000 C   0  0
   -4.7600   -2.0200    0.0000 C   0  0
    4.8800   -0.2800    0.0000 C   0  0
    4.6300   -1.7400    0.0000 C   0  0
    0.5644   -2.7945    0.0000 H   0  0
   -1.7615    3.5762    0.0000 H   0  0
    2.4280    2.8465    0.0000 H   0  0
   -2.7693   -3.2502    0.0000 H   0  0
   -4.6287    1.7472    0.0000 H   0  0
    3.9282    1.6058    0.0000 H   0  0
    0.5281    4.4358    0.0000 H   0  0
    3.0783   -3.2352    0.0000 H   0  0
   -6.3352   -0.2786    0.0000 H   0  0
   -5.3986   -2.7896    0.0000 H   0  0
    5.8151    0.0743    0.0000 H   0  0
    5.3992   -2.3790    0.0000 H   0  0
  1  2  1  0
  1  3  1  0
  1  4  2  0
  2  5  1  0
  2  7  2  0
  3  6  1  0
  3 10  2  0
  4  8  1  0
  4 11  1  0
  5 12  1  0
  5  6  2  0
  6 13  1  0
  7  9  1  0
  8  9  2  0
  8 14  1  0
  9 16  1  0
 10 15  1  0
 11 15  2  0
 12 18  2  0
 13 17  2  0
 14 19  2  0
 16 20  2  0
 17 18  1  0
 19 20  1  0
  7 21  1  0
 10 22  1  0
 11 23  1  0
 12 24  1  0
 13 25  1  0
 14 26  1  0
 15 27  1  0
 16 28  1  0
 17 29  1  0
 18 30  1  0
 19 31  1  0
 20 32  1  0
V    1 0
V    2 1
V    3 2
V    4 3
V    5 4
V    6 5
V    7 6
V    8 7
V    9 8
V   10 9
V   11 10
V   12 11
V   13 12
V   14 13
V   15 14
V   16 15
V   17 16
V   18 17
V   19 18
V   20 19
M  END
> <DSSTox_RID>
65347

> <DSSTox_CID>
3907

> <DSSTox_CID_Parent>
3907

> <DSSTox_Generic_SID>
23907

> <DSSTox_FileID>
369_TXCST2_v1a

> <STRUCTURE_Formula>
C20H12

> <STRUCTURE_MolecularWeight>
252.3093

> <STRUCTURE_ChemicalType>
defined organic

> <STRUCTURE_TestedForm_DefinedOrganic>
parent

> <STRUCTURE_Shown>
tested chemical

> <TestSubstance_ChemicalName>
Benzo(b)fluoranthene

> <TestSubstance_CASRN>
205-99-2

> <TestSubstance_Description>
single chemical compound

> <STRUCTURE_ChemicalName_IUPAC>
benzo[e]acephenanthrylene

> <STRUCTURE_SMILES>
C1(C(C=CC=C5)=C5C2=CC=C3)=C2C3=C(C=CC=C4)C4=C1

> <STRUCTURE_Parent_SMILES>
C1(C(C=CC=C5)=C5C2=CC=C3)=C2C3=C(C=CC=C4)C4=C1

> <STRUCTURE_InChIS>
InChI=1S/C20H12/c1-2-7-14-13(6-1)12-19-16-9-4-3-8-15(16)18-11-5-10-17(14)20(18)19/h1-12H

> <STRUCTURE_InChIKey>
FTOVXSOBNPWTSH-UHFFFAOYSA-N

> <Substance_modify_yyyymmdd>
20080429

> <Coord_Metals>
0

> <Index>
369

> <Canonical_Smiles>
c1ccc2c(c1)c3cccc4c5ccccc5cc2c34

> <Molecular_Weight>
252.30927

> <Frequency>
1

$$$$

  SciTegic          2D

 31 30  0  0  0  0            999 V2000
    5.2000    0.0000    0.0000 C   0  0
    9.0999    0.7500    0.0000 P   0  0
    3.9000    0.7500    0.0000 C   0  0
    6.5000    0.7500    0.0000 C   0  0
    7.7999    0.0000    0.0000 O   0  0
    2.6000    0.0000    0.0000 N   0  0
   10.1388    0.1493    0.0000 O   0  0
    3.9000    1.9500    0.0000 O   0  0
    9.1014    2.2508    0.0000 O   0  0
    9.1011   -0.7800    0.0000 O   0  0
    6.5030    2.2508    0.0000 C   0  0
    1.3000    0.7500    0.0000 C   0  0
    2.6031   -1.5008    0.0000 C   0  0
   10.4013    3.0008    0.0000 C   0  0
   10.4010   -1.5301    0.0000 C   0  0
    5.2000   -1.0000    0.0000 H   0  0
    7.3698    2.7496    0.0000 H   0  0
    6.5046    3.2508    0.0000 H   0  0
    5.6379    2.7523    0.0000 H   0  0
    0.4338    0.2503    0.0000 H   0  0
    1.3000    1.7500    0.0000 H   0  0
    0.4340    1.2501    0.0000 H   0  0
    3.4698   -1.9996    0.0000 H   0  0
    1.7379   -2.0023    0.0000 H   0  0
    2.6046   -2.5008    0.0000 H   0  0
   10.4023    4.0008    0.0000 H   0  0
   11.2671    2.5003    0.0000 H   0  0
   11.2678    3.5001    0.0000 H   0  0
   10.4018   -2.5301    0.0000 H   0  0
   11.2674   -2.0296    0.0000 H   0  0
   11.2668   -1.0297    0.0000 H   0  0
  1  3  1  0
  1  4  2  0
  2  5  1  0
  2  7  2  0
  2  9  1  0
  2 10  1  0
  3  6  1  0
  3  8  2  0
  4  5  1  0
  4 11  1  0
  6 12  1  0
  6 13  1  0
  9 14  1  0
 10 15  1  0
  1 16  1  0
 11 17  1  0
 11 18  1  0
 11 19  1  0
 12 20  1  0
 12 21  1  0
 12 22  1  0
 13 23  1  0
 13 24  1  0
 13 25  1  0
 14 26  1  0
 14 27  1  0
 14 28  1  0
 15 29  1  0
 15 30  1  0
 15 31  1  0
V    1 0
V    2 1
V    3 2
V    4 3
V    5 4
V    6 5
V    7 6
V    8 7
V    9 8
V   10 9
V   11 10
V   12 11
V   13 12
V   14 13
V   15 14
M  END
> <DSSTox_RID>
66614

> <DSSTox_CID>
3914

> <DSSTox_CID_Parent>
3914

> <DSSTox_Generic_SID>
23914

> <DSSTox_FileID>
370_TXCST2_v1a

> <STRUCTURE_Formula>
C8H16NO5P

> <STRUCTURE_MolecularWeight>
237.1901

> <STRUCTURE_ChemicalType>
defined organic

> <STRUCTURE_TestedForm_DefinedOrganic>
parent

> <STRUCTURE_Shown>
tested chemical

> <TestSubstance_ChemicalName>
Dicrotophos

> <TestSubstance_CASRN>
141-66-2

> <TestSubstance_Description>
single chemical compound

> <ChemicalNote>
stereochem

> <STRUCTURE_ChemicalName_IUPAC>
(1E)-3-(dimethylamino)-1-methyl-3-oxoprop-1-en-1-yl dimethyl phosphate

> <STRUCTURE_SMILES>
O=P(OC(/C)=C/C(=O)N(C)C)(OC)OC

> <STRUCTURE_Parent_SMILES>
O=P(OC(/C)=C/C(=O)N(C)C)(OC)OC

> <STRUCTURE_InChIS>
InChI=1S/C8H16NO5P/c1-7(6-8(10)9(2)3)14-15(11,12-4)13-5/h6H,1-5H3/b7-6+

> <STRUCTURE_InChIKey>
VEENJGZXVHKXNB-VOTSOKGWSA-N

> <Substance_modify_yyyymmdd>
20080429

> <Coord_Metals>
0

> <Index>
370

> <Canonical_Smiles>
COP(=O)(OC)OC(=CC(=O)N(C)C)C

> <Molecular_Weight>
237.1901

> <Frequency>
1

$$$$

  SciTegic          2D

 23 24  0  0  0  0            999 V2000
   -7.5291    1.3671    0.0000 Br  0  0
    1.2990   -0.7500    0.0000 C   0  0
    1.2990    0.7500    0.0000 C   0  0
    0.0000   -1.5000    0.0000 C   0  0
    0.0000    1.5000    0.0000 C   0  0
   -1.2990   -0.7500    0.0000 C   0  0
   -1.2990    0.7500    0.0000 C   0  0
   -3.8990   -0.7455    0.0000 C   0  0
   -5.2007   -1.4909    0.0000 C   0  0
   -3.8939    0.7546    0.0000 C   0  0
   -6.4972   -0.7365    0.0000 C   0  0
   -5.1903    1.5090    0.0000 C   0  0
   -6.4920    0.7635    0.0000 C   0  0
   -2.6003   -1.4978    0.0000 O   0  0
    2.1651   -1.2500    0.0000 H   0  0
    2.1651    1.2500    0.0000 H   0  0
    0.0000   -2.5000    0.0000 H   0  0
    0.0000    2.5000    0.0000 H   0  0
   -2.1651    1.2500    0.0000 H   0  0
   -5.2042   -2.4909    0.0000 H   0  0
   -3.0262    1.2516    0.0000 H   0  0
   -7.3649   -1.2335    0.0000 H   0  0
   -5.1869    2.5090    0.0000 H   0  0
  1 13  1  0
  2  3  1  0
  2  4  2  0
  3  5  2  0
  4  6  1  0
  5  7  1  0
  6  7  2  0
  6 14  1  0
  8  9  1  0
  8 10  2  0
  8 14  1  0
  9 11  2  0
 10 12  1  0
 11 13  1  0
 12 13  2  0
  2 15  1  0
  3 16  1  0
  4 17  1  0
  5 18  1  0
  7 19  1  0
  9 20  1  0
 10 21  1  0
 11 22  1  0
 12 23  1  0
V    1 0
V    2 1
V    3 2
V    4 3
V    5 4
V    6 5
V    7 6
V    8 7
V    9 8
V   10 9
V   11 10
V   12 11
V   13 12
V   14 13
M  END
> <DSSTox_RID>
65293

> <DSSTox_CID>
3927

> <DSSTox_CID_Parent>
3927

> <DSSTox_Generic_SID>
23927

> <DSSTox_FileID>
371_TXCST2_v1a

> <STRUCTURE_Formula>
C12H9BrO

> <STRUCTURE_MolecularWeight>
249.1033

> <STRUCTURE_ChemicalType>
defined organic

> <STRUCTURE_TestedForm_DefinedOrganic>
parent

> <STRUCTURE_Shown>
tested chemical

> <TestSubstance_ChemicalName>
p-Bromodiphenyl ether

> <TestSubstance_CASRN>
101-55-3

> <TestSubstance_Description>
single chemical compound

> <STRUCTURE_ChemicalName_IUPAC>
1-bromo-4-phenoxybenzene

> <STRUCTURE_SMILES>
Brc2ccc(Oc1ccccc1)cc2

> <STRUCTURE_Parent_SMILES>
Brc2ccc(Oc1ccccc1)cc2

> <STRUCTURE_InChIS>
InChI=1S/C12H9BrO/c13-10-6-8-12(9-7-10)14-11-4-2-1-3-5-11/h1-9H

> <STRUCTURE_InChIKey>
JDUYPUMQALQRCN-UHFFFAOYSA-N

> <Substance_modify_yyyymmdd>
20080429

> <Coord_Metals>
0

> <Index>
371

> <Canonical_Smiles>
Brc1ccc(Oc2ccccc2)cc1

> <Molecular_Weight>
249.10325

> <Frequency>
1

$$$$

  SciTegic          2D

 37 36  0  0  0  0            999 V2000
    6.5000    0.7500    0.0000 C   0  0
    5.2000    0.0000    0.0000 N   0  0
    7.5388    0.1493    0.0000 O   0  0
    3.9000    0.7500    0.0000 C   0  0
    5.2030   -1.5008    0.0000 C   0  0
    6.5014    2.2508    0.0000 S   0  0
    6.5039   -2.2494    0.0000 C   0  0
    2.6000    0.0000    0.0000 C   0  0
    7.8014    3.0008    0.0000 C   0  0
    6.5070   -3.7502    0.0000 C   0  0
    1.3000    0.7500    0.0000 C   0  0
    7.8022   -1.4968    0.0000 C   0  0
    2.6000   -1.5007    0.0000 C   0  0
    7.8028    4.5016    0.0000 C   0  0
    4.7659    1.2501    0.0000 H   0  0
    3.9000    1.7500    0.0000 H   0  0
    4.3361   -1.0025    0.0000 H   0  0
    4.3379   -2.0023    0.0000 H   0  0
    5.6387   -2.7509    0.0000 H   0  0
    2.6000    1.0000    0.0000 H   0  0
    7.8009    2.0008    0.0000 H   0  0
    8.6671    2.5003    0.0000 H   0  0
    7.3737   -4.2490    0.0000 H   0  0
    6.5085   -4.7502    0.0000 H   0  0
    5.6418   -4.2517    0.0000 H   0  0
    0.4338    0.2503    0.0000 H   0  0
    1.3000    1.7500    0.0000 H   0  0
    0.4340    1.2501    0.0000 H   0  0
    7.8011   -0.4968    0.0000 H   0  0
    8.6676   -0.9957    0.0000 H   0  0
    8.6690   -1.9955    0.0000 H   0  0
    1.7343   -2.0013    0.0000 H   0  0
    3.4662   -2.0005    0.0000 H   0  0
    2.6005   -2.5007    0.0000 H   0  0
    8.6690    5.0014    0.0000 H   0  0
    6.9371    5.0022    0.0000 H   0  0
    7.8033    5.5016    0.0000 H   0  0
  1  2  1  0
  1  3  2  0
  1  6  1  0
  2  4  1  0
  2  5  1  0
  4  8  1  0
  5  7  1  0
  6  9  1  0
  7 10  1  0
  7 12  1  0
  8 11  1  0
  8 13  1  0
  9 14  1  0
  4 15  1  0
  4 16  1  0
  5 17  1  0
  5 18  1  0
  7 19  1  0
  8 20  1  0
  9 21  1  0
  9 22  1  0
 10 23  1  0
 10 24  1  0
 10 25  1  0
 11 26  1  0
 11 27  1  0
 11 28  1  0
 12 29  1  0
 12 30  1  0
 12 31  1  0
 13 32  1  0
 13 33  1  0
 13 34  1  0
 14 35  1  0
 14 36  1  0
 14 37  1  0
V    1 0
V    2 1
V    3 2
V    4 3
V    5 4
V    6 5
V    7 6
V    8 7
V    9 8
V   10 9
V   11 10
V   12 11
V   13 12
V   14 13
M  END
> <DSSTox_RID>
61247

> <DSSTox_CID>
3936

> <DSSTox_CID_Parent>
3936

> <DSSTox_Generic_SID>
23936

> <DSSTox_FileID>
372_TXCST2_v1a

> <STRUCTURE_Formula>
C11H23NOS

> <STRUCTURE_MolecularWeight>
217.3714

> <STRUCTURE_ChemicalType>
defined organic

> <STRUCTURE_TestedForm_DefinedOrganic>
parent

> <STRUCTURE_Shown>
tested chemical

> <TestSubstance_ChemicalName>
Butylate

> <TestSubstance_CASRN>
2008-41-5

> <TestSubstance_Description>
single chemical compound

> <STRUCTURE_ChemicalName_IUPAC>
S-ethyl diisobutylthiocarbamate

> <STRUCTURE_SMILES>
CC(C)CN(CC(C)C)C(=O)SCC

> <STRUCTURE_Parent_SMILES>
CC(C)CN(CC(C)C)C(=O)SCC

> <STRUCTURE_InChIS>
InChI=1S/C11H23NOS/c1-6-14-11(13)12(7-9(2)3)8-10(4)5/h9-10H,6-8H2,1-5H3

> <STRUCTURE_InChIKey>
BMTAFVWTTFSTOG-UHFFFAOYSA-N

> <Substance_modify_yyyymmdd>
20080429

> <Coord_Metals>
0

> <Index>
372

> <Canonical_Smiles>
CCSC(=O)N(CC(C)C)CC(C)C

> <Molecular_Weight>
217.37141

> <Frequency>
1

$$$$

  SciTegic          2D

 58 59  0  0  0  0            999 V2000
   -2.2935    3.7700    0.0000 C   0  0
   -3.3352    3.1743    0.0000 O   0  0
   -0.9971    3.0138    0.0000 O   0  0
   -2.2878    5.2708    0.0000 N   0  0
   -3.5842    6.0270    0.0000 S   0  0
   -3.5785    7.5278    0.0000 N   0  0
   -2.2763    8.2740    0.0000 C   0  0
   -2.2706    9.7749    0.0000 C   0  0
   -0.9685   10.5211    0.0000 C   0  0
   -0.9628   12.0219    0.0000 C   0  0
   -4.8771    8.2801    0.0000 C   0  0
   -6.1785    7.5323    0.0000 C   0  0
   -7.4771    8.2846    0.0000 C   0  0
   -8.7784    7.5369    0.0000 C   0  0
   -0.9865    6.0185    0.0000 C   0  0
    1.7138    1.2033    0.0000 O   0  0
    0.2917    0.7475    0.0000 C   0  0
    2.5889    0.0182    0.0000 C   0  0
    0.2917   -0.7475    0.0000 C   0  0
    1.7138   -1.2033    0.0000 C   0  0
   -1.0028    1.5132    0.0000 C   0  0
   -2.3155    0.7475    0.0000 C   0  0
   -2.3155   -0.7475    0.0000 C   0  0
   -1.0028   -1.5132    0.0000 C   0  0
    3.3214   -1.2765    0.0000 C   0  0
    3.3030    1.3236    0.0000 C   0  0
   -2.2797    7.2740    0.0000 H   0  0
   -1.4121    7.7710    0.0000 H   0  0
   -3.1385    9.2780    0.0000 H   0  0
   -3.1349   10.2779    0.0000 H   0  0
   -0.9718    9.5211    0.0000 H   0  0
   -0.1042   10.0181    0.0000 H   0  0
   -0.0951   12.5192    0.0000 H   0  0
   -0.9594   13.0219    0.0000 H   0  0
   -1.8270   12.5250    0.0000 H   0  0
   -4.0103    8.7787    0.0000 H   0  0
   -4.8754    9.2801    0.0000 H   0  0
   -5.3134    7.0307    0.0000 H   0  0
   -6.1802    6.5323    0.0000 H   0  0
   -6.6103    8.7832    0.0000 H   0  0
   -7.4754    9.2846    0.0000 H   0  0
   -9.6437    8.0382    0.0000 H   0  0
   -9.6453    7.0383    0.0000 H   0  0
   -8.7802    6.5369    0.0000 H   0  0
   -0.9838    7.0185    0.0000 H   0  0
   -0.1192    6.5163    0.0000 H   0  0
   -0.1217    5.5164    0.0000 H   0  0
    2.6959   -1.3914    0.0000 H   0  0
    1.0377   -1.9401    0.0000 H   0  0
   -3.1826    1.2456    0.0000 H   0  0
   -3.1826   -1.2456    0.0000 H   0  0
   -0.9997   -2.5132    0.0000 H   0  0
    2.8280   -2.1463    0.0000 H   0  0
    3.8278   -2.1387    0.0000 H   0  0
    4.3214   -1.2692    0.0000 H   0  0
    4.3030    1.3315    0.0000 H   0  0
    3.7963    2.1934    0.0000 H   0  0
    2.7964    2.1858    0.0000 H   0  0
  1  2  2  0
  1  3  1  0
  1  4  1  0
  3 21  1  0
  4  5  1  0
  4 15  1  0
  5  6  1  0
  6  7  1  0
  6 11  1  0
  7  8  1  0
  8  9  1  0
  9 10  1  0
 11 12  1  0
 12 13  1  0
 13 14  1  0
 16 17  1  0
 16 18  1  0
 17 19  1  0
 17 21  2  0
 18 20  1  0
 18 25  1  0
 18 26  1  0
 19 20  1  0
 19 24  2  0
 21 22  1  0
 22 23  2  0
 23 24  1  0
  7 27  1  0
  7 28  1  0
  8 29  1  0
  8 30  1  0
  9 31  1  0
  9 32  1  0
 10 33  1  0
 10 34  1  0
 10 35  1  0
 11 36  1  0
 11 37  1  0
 12 38  1  0
 12 39  1  0
 13 40  1  0
 13 41  1  0
 14 42  1  0
 14 43  1  0
 14 44  1  0
 15 45  1  0
 15 46  1  0
 15 47  1  0
 20 48  1  0
 20 49  1  0
 22 50  1  0
 23 51  1  0
 24 52  1  0
 25 53  1  0
 25 54  1  0
 25 55  1  0
 26 56  1  0
 26 57  1  0
 26 58  1  0
V    1 0
V    2 1
V    3 2
V    4 3
V    5 4
V    6 5
V    7 6
V    8 7
V    9 8
V   10 9
V   11 10
V   12 11
V   13 12
V   14 13
V   15 14
V   16 15
V   17 16
V   18 17
V   19 18
V   20 19
V   21 20
V   22 21
V   23 22
V   24 23
V   25 24
V   26 25
M  END
> <DSSTox_RID>
65434

> <DSSTox_CID>
3950

> <DSSTox_CID_Parent>
3950

> <DSSTox_Generic_SID>
23950

> <DSSTox_FileID>
373_TXCST2_v1a

> <STRUCTURE_Formula>
C20H32N2O3S

> <STRUCTURE_MolecularWeight>
380.5447

> <STRUCTURE_ChemicalType>
defined organic

> <STRUCTURE_TestedForm_DefinedOrganic>
parent

> <STRUCTURE_Shown>
tested chemical

> <TestSubstance_ChemicalName>
Carbosulfan

> <TestSubstance_CASRN>
55285-14-8

> <TestSubstance_Description>
single chemical compound

> <STRUCTURE_ChemicalName_IUPAC>
2,3-Dihydro-2,2-dimethyl-7-benzofuranyl ((dibutylamino)thio)methylcarbamate

> <STRUCTURE_SMILES>
CCCCN(CCCC)SN(C)C(=O)Oc1cccc2CC(C)(C)Oc12

> <STRUCTURE_Parent_SMILES>
CCCCN(CCCC)SN(C)C(=O)Oc1cccc2CC(C)(C)Oc12

> <STRUCTURE_InChIS>
InChI=1S/C20H32N2O3S/c1-6-8-13-22(14-9-7-2)26-21(5)19(23)24-17-12-10-11-16-15-20(3,4)25-18(16)17/h10-12H,6-9,13-15H2,1-5H3

> <STRUCTURE_InChIKey>
JLQUFIHWVLZVTJ-UHFFFAOYSA-N

> <Substance_modify_yyyymmdd>
20080429

> <Coord_Metals>
0

> <Index>
373

> <Canonical_Smiles>
CCCCN(CCCC)SN(C)C(=O)Oc1cccc2CC(C)(C)Oc12

> <Molecular_Weight>
380.54468

> <Frequency>
1

$$$$

  SciTegic          2D

 29 30  0  0  0  0            999 V2000
    1.2990   -0.7500    0.0000 C   0  0
    2.5973   -1.5031    0.0000 C   0  0
    1.2990    0.7500    0.0000 C   0  0
    2.5951   -3.0039    0.0000 N   0  0
    0.0000   -1.5000    0.0000 S   0  0
    3.6375   -0.9049    0.0000 O   0  0
    0.0000    1.5000    0.0000 O   0  0
    3.8933   -3.7570    0.0000 C   0  0
    2.5988    1.5004    0.0000 C   0  0
   -1.2990   -0.7500    0.0000 C   0  0
   -1.2990    0.7500    0.0000 C   0  0
    3.8934   -5.2570    0.0000 C   0  0
    5.1925   -3.0070    0.0000 C   0  0
    6.4915   -3.7571    0.0000 C   0  0
    5.1924   -6.0070    0.0000 C   0  0
    6.4915   -5.2571    0.0000 C   0  0
    1.7282   -3.5024    0.0000 H   0  0
    3.4651    1.0010    0.0000 H   0  0
    2.5985    2.5004    0.0000 H   0  0
    3.4646    2.0008    0.0000 H   0  0
   -2.1530   -0.2297    0.0000 H   0  0
   -1.2755   -1.7497    0.0000 H   0  0
   -0.4215    0.2706    0.0000 H   0  0
   -1.2756    1.7497    0.0000 H   0  0
    3.0274   -5.7570    0.0000 H   0  0
    5.1925   -2.0070    0.0000 H   0  0
    7.3575   -3.2571    0.0000 H   0  0
    5.1924   -7.0070    0.0000 H   0  0
    7.3575   -5.7571    0.0000 H   0  0
  1  2  1  0
  1  3  2  0
  1  5  1  0
  2  4  1  0
  2  6  2  0
  3  7  1  0
  3  9  1  0
  4  8  1  0
  5 10  1  0
  7 11  1  0
  8 12  2  0
  8 13  1  0
 10 11  1  0
 12 15  1  0
 13 14  2  0
 14 16  1  0
 15 16  2  0
  4 17  1  0
  9 18  1  0
  9 19  1  0
  9 20  1  0
 10 21  1  0
 10 22  1  0
 11 23  1  0
 11 24  1  0
 12 25  1  0
 13 26  1  0
 14 27  1  0
 15 28  1  0
 16 29  1  0
V    1 0
V    2 1
V    3 2
V    4 3
V    5 4
V    6 5
V    7 6
V    8 7
V    9 8
V   10 9
V   11 10
V   12 11
V   13 12
V   14 13
V   15 14
V   16 15
M  END
> <DSSTox_RID>
60155

> <DSSTox_CID>
3951

> <DSSTox_CID_Parent>
3951

> <DSSTox_Generic_SID>
23951

> <DSSTox_FileID>
374_TXCST2_v1a

> <STRUCTURE_Formula>
C12H13NO2S

> <STRUCTURE_MolecularWeight>
235.3021

> <STRUCTURE_ChemicalType>
defined organic

> <STRUCTURE_TestedForm_DefinedOrganic>
parent

> <STRUCTURE_Shown>
tested chemical

> <TestSubstance_ChemicalName>
Carboxin

> <TestSubstance_CASRN>
5234-68-4

> <TestSubstance_Description>
single chemical compound

> <STRUCTURE_ChemicalName_IUPAC>
2-methyl-N-phenyl-5,6-dihydro-1,4-oxathiine-3-carboxamide

> <STRUCTURE_SMILES>
O=C(Nc1ccccc1)C=2SCCOC=2C

> <STRUCTURE_Parent_SMILES>
O=C(Nc1ccccc1)C=2SCCOC=2C

> <STRUCTURE_InChIS>
InChI=1S/C12H13NO2S/c1-9-11(16-8-7-15-9)12(14)13-10-5-3-2-4-6-10/h2-6H,7-8H2,1H3,(H,13,14)

> <STRUCTURE_InChIKey>
GYSSRZJIHXQEHQ-UHFFFAOYSA-N

> <Substance_modify_yyyymmdd>
20080429

> <Coord_Metals>
0

> <Index>
374

> <Canonical_Smiles>
CC1=C(SCCO1)C(=O)Nc2ccccc2

> <Molecular_Weight>
235.30211

> <Frequency>
1

$$$$

  SciTegic          2D

 15 15  0  0  0  0            999 V2000
    1.2990   -0.7500    0.0000 C   0  0
    1.2990    0.7500    0.0000 C   0  0
    0.0000   -1.5000    0.0000 C   0  0
    0.0000    1.5000    0.0000 C   0  0
   -1.2990   -0.7500    0.0000 C   0  0
   -1.2990    0.7500    0.0000 C   0  0
    2.5988   -1.5004    0.0000 C   0  0
    0.0000   -2.7000    0.0000 Cl  0  0
    2.1651    1.2500    0.0000 H   0  0
    0.0000    2.5000    0.0000 H   0  0
   -2.1651   -1.2500    0.0000 H   0  0
   -2.1651    1.2500    0.0000 H   0  0
    3.4651   -1.0010    0.0000 H   0  0
    2.5985   -2.5004    0.0000 H   0  0
    3.4646   -2.0008    0.0000 H   0  0
  1  2  1  0
  1  3  2  0
  1  7  1  0
  2  4  2  0
  3  5  1  0
  3  8  1  0
  4  6  1  0
  5  6  2  0
  2  9  1  0
  4 10  1  0
  5 11  1  0
  6 12  1  0
  7 13  1  0
  7 14  1  0
  7 15  1  0
V    1 0
V    2 1
V    3 2
V    4 3
V    5 4
V    6 5
V    7 6
V    8 7
M  END
> <DSSTox_RID>
62399

> <DSSTox_CID>
3977

> <DSSTox_CID_Parent>
3977

> <DSSTox_Generic_SID>
23977

> <DSSTox_FileID>
375_TXCST2_v1a

> <STRUCTURE_Formula>
C7H7Cl

> <STRUCTURE_MolecularWeight>
126.5835

> <STRUCTURE_ChemicalType>
defined organic

> <STRUCTURE_TestedForm_DefinedOrganic>
parent

> <STRUCTURE_Shown>
tested chemical

> <TestSubstance_ChemicalName>
2-Chlorotoluene

> <TestSubstance_CASRN>
95-49-8

> <TestSubstance_Description>
single chemical compound

> <STRUCTURE_ChemicalName_IUPAC>
1-chloro-2-methylbenzene

> <STRUCTURE_SMILES>
Cc1ccccc1Cl

> <STRUCTURE_Parent_SMILES>
Cc1ccccc1Cl

> <STRUCTURE_InChIS>
InChI=1S/C7H7Cl/c1-6-4-2-3-5-7(6)8/h2-5H,1H3

> <STRUCTURE_InChIKey>
IBSQPLPBRSHTTG-UHFFFAOYSA-N

> <Substance_modify_yyyymmdd>
20080429

> <Coord_Metals>
0

> <Index>
375

> <Canonical_Smiles>
Cc1ccccc1Cl

> <Molecular_Weight>
126.58348

> <Frequency>
1

$$$$

  SciTegic          2D

 29 29  0  0  0  0            999 V2000
    1.2990   -0.7500    0.0000 C   0  0
    1.2990    0.7500    0.0000 N   0  0
    0.0000   -1.5000    0.0000 N   0  0
   -1.2990    0.7500    0.0000 N   0  0
    0.0000    1.5000    0.0000 C   0  0
   -1.2990   -0.7500    0.0000 C   0  0
    4.9313   -4.3591    0.0000 N   0  0
    2.5973   -1.5031    0.0000 N   0  0
    3.8933   -3.7570    0.0000 C   0  0
    2.5951   -3.0039    0.0000 C   0  0
   -0.0031    3.0008    0.0000 N   0  0
   -2.3383   -1.3500    0.0000 Cl  0  0
    1.2941   -3.7520    0.0000 C   0  0
    3.9229   -2.2437    0.0000 C   0  0
   -1.3039    3.7494    0.0000 C   0  0
   -1.3070    5.2502    0.0000 C   0  0
    3.4642   -1.0046    0.0000 H   0  0
    0.8620    3.5023    0.0000 H   0  0
    0.4287   -3.2511    0.0000 H   0  0
    0.4275   -4.2509    0.0000 H   0  0
    1.2927   -4.7520    0.0000 H   0  0
    4.7874   -2.7463    0.0000 H   0  0
    3.9262   -1.2437    0.0000 H   0  0
    4.7905   -1.7464    0.0000 H   0  0
   -1.3023    2.7494    0.0000 H   0  0
   -2.1691    3.2479    0.0000 H   0  0
   -2.1738    5.7490    0.0000 H   0  0
   -1.3086    6.2502    0.0000 H   0  0
   -0.4419    5.7517    0.0000 H   0  0
  1  2  2  0
  1  3  1  0
  1  8  1  0
  2  5  1  0
  3  6  2  0
  4  6  1  0
  4  5  2  0
  5 11  1  0
  6 12  1  0
  7  9  3  0
  8 10  1  0
  9 10  1  0
 10 13  1  0
 10 14  1  0
 11 15  1  0
 15 16  1  0
  8 17  1  0
 11 18  1  0
 13 19  1  0
 13 20  1  0
 13 21  1  0
 14 22  1  0
 14 23  1  0
 14 24  1  0
 15 25  1  0
 15 26  1  0
 16 27  1  0
 16 28  1  0
 16 29  1  0
V    1 0
V    2 1
V    3 2
V    4 3
V    5 4
V    6 5
V    7 6
V    8 7
V    9 8
V   10 9
V   11 10
V   12 11
V   13 12
V   14 13
V   15 14
V   16 15
M  END
> <DSSTox_RID>
59854

> <DSSTox_CID>
3990

> <DSSTox_CID_Parent>
3990

> <DSSTox_Generic_SID>
23990

> <DSSTox_FileID>
376_TXCST2_v1a

> <STRUCTURE_Formula>
C9H13ClN6

> <STRUCTURE_MolecularWeight>
240.6927

> <STRUCTURE_ChemicalType>
defined organic

> <STRUCTURE_TestedForm_DefinedOrganic>
parent

> <STRUCTURE_Shown>
tested chemical

> <TestSubstance_ChemicalName>
Cyanazine

> <TestSubstance_CASRN>
21725-46-2

> <TestSubstance_Description>
single chemical compound

> <Source_ChemicalNote>
tested chemical contained 0.05% water (0.01 moles H2O)

> <STRUCTURE_ChemicalName_IUPAC>
2-{[4-chloro-6-(ethylamino)-1,3,5-triazin-2-yl]amino}-2-methylpropanenitrile

> <STRUCTURE_SMILES>
Clc1nc(NCC)nc(NC(C)(C)C#N)n1

> <STRUCTURE_Parent_SMILES>
Clc1nc(NCC)nc(NC(C)(C)C#N)n1

> <STRUCTURE_InChIS>
InChI=1S/C9H13ClN6/c1-4-12-7-13-6(10)14-8(15-7)16-9(2,3)5-11/h4H2,1-3H3,(H2,12,13,14,15,16)

> <STRUCTURE_InChIKey>
MZZBPDKVEFVLFF-UHFFFAOYSA-N

> <Substance_modify_yyyymmdd>
20080429

> <Coord_Metals>
0

> <Index>
376

> <Canonical_Smiles>
CCNc1nc(Cl)nc(NC(C)(C)C#N)n1

> <Molecular_Weight>
240.69271

> <Frequency>
1

$$$$

  SciTegic          2D

 20 20  0  0  0  0            999 V2000
   -1.2999    2.2084    0.0000 N   0  0
    1.2990   -0.7500    0.0000 C   0  0
    1.2990    0.7500    0.0000 C   0  0
    0.0000   -1.5000    0.0000 C   0  0
    0.0000    1.5000    0.0000 C   0  0
   -1.2990   -0.7500    0.0000 C   0  0
   -1.2990    0.7500    0.0000 C   0  0
   -2.1662    1.7088    0.0000 H   0  0
   -1.2998    3.2084    0.0000 H   0  0
    2.1530   -0.2297    0.0000 H   0  0
    1.2756   -1.7497    0.0000 H   0  0
    2.1530    0.2297    0.0000 H   0  0
    1.2755    1.7497    0.0000 H   0  0
   -0.8776   -1.9794    0.0000 H   0  0
   -0.0235   -0.5003    0.0000 H   0  0
   -0.0245    0.5003    0.0000 H   0  0
   -2.1530   -0.2297    0.0000 H   0  0
   -1.2755   -1.7497    0.0000 H   0  0
   -1.2755    1.7497    0.0000 H   0  0
   -2.1531    0.2298    0.0000 H   0  0
  1  5  1  0
  2  3  1  0
  2  4  1  0
  3  5  1  0
  4  6  1  0
  5  7  1  0
  6  7  1  0
  1  8  1  0
  1  9  1  0
  2 10  1  0
  2 11  1  0
  3 12  1  0
  3 13  1  0
  4 14  1  0
  4 15  1  0
  5 16  1  0
  6 17  1  0
  6 18  1  0
  7 19  1  0
  7 20  1  0
V    1 0
V    2 1
V    3 2
V    4 3
V    5 4
V    6 5
V    7 6
M  END
> <DSSTox_RID>
65281

> <DSSTox_CID>
3996

> <DSSTox_CID_Parent>
3996

> <DSSTox_Generic_SID>
23996

> <DSSTox_FileID>
377_TXCST2_v1a

> <STRUCTURE_Formula>
C6H13N

> <STRUCTURE_MolecularWeight>
99.1741

> <STRUCTURE_ChemicalType>
defined organic

> <STRUCTURE_TestedForm_DefinedOrganic>
parent

> <STRUCTURE_Shown>
tested chemical

> <TestSubstance_ChemicalName>
Cyclohexylamine

> <TestSubstance_CASRN>
108-91-8

> <TestSubstance_Description>
single chemical compound

> <STRUCTURE_ChemicalName_IUPAC>
cyclohexanamine

> <STRUCTURE_SMILES>
NC1CCCCC1

> <STRUCTURE_Parent_SMILES>
NC1CCCCC1

> <STRUCTURE_InChIS>
InChI=1S/C6H13N/c7-6-4-2-1-3-5-6/h6H,1-5,7H2

> <STRUCTURE_InChIKey>
PAFZNILMFXTMIY-UHFFFAOYSA-N

> <Substance_modify_yyyymmdd>
20080429

> <Coord_Metals>
0

> <Index>
377

> <Canonical_Smiles>
NC1CCCCC1

> <Molecular_Weight>
99.17412

> <Frequency>
1

$$$$

  SciTegic          2D

 47 49  0  0  0  0            999 V2000
    5.7495    0.4146    0.0000 C   0  0
    7.2496    0.4138    0.0000 C   0  0
    6.4990   -0.7516    0.0000 C   0  0
    5.9848   -2.1616    0.0000 C   0  0
    8.2626    1.5357    0.0000 C   0  0
    6.9481   -3.3125    0.0000 O   0  0
    9.7265    1.2046    0.0000 C   0  0
    3.7737   -5.1890    0.0000 N   0  0
    4.9557   -4.9817    0.0000 C   0  0
    6.4338   -4.7225    0.0000 C   0  0
    7.3971   -5.8735    0.0000 C   0  0
    4.8028   -2.3689    0.0000 O   0  0
    8.8746   -5.6149    0.0000 C   0  0
    9.8374   -6.7651    0.0000 C   0  0
   11.3163   -6.5094    0.0000 O   0  0
    4.4494   -0.3565    0.0000 C   0  0
    5.6956    1.9255    0.0000 C   0  0
   10.5415    2.0853    0.0000 Cl  0  0
   10.0821    0.0585    0.0000 Cl  0  0
   12.2779   -7.6617    0.0000 C   0  0
    6.8823   -7.2823    0.0000 C   0  0
    7.8450   -8.4326    0.0000 C   0  0
    9.3226   -8.1740    0.0000 C   0  0
   13.7563   -7.4083    0.0000 C   0  0
   11.7582   -9.0689    0.0000 C   0  0
   12.7170  -10.2225    0.0000 C   0  0
   14.7151   -8.5620    0.0000 C   0  0
   14.1954   -9.9690    0.0000 C   0  0
    8.1093   -0.0968    0.0000 H   0  0
    7.3649   -1.2519    0.0000 H   0  0
    7.9663    2.4908    0.0000 H   0  0
    5.7917   -3.9560    0.0000 H   0  0
    9.2179   -4.6756    0.0000 H   0  0
    4.4726   -1.3562    0.0000 H   0  0
    3.5953   -0.8766    0.0000 H   0  0
    3.5719    0.1230    0.0000 H   0  0
    4.8183    2.4056    0.0000 H   0  0
    5.6725    2.9253    0.0000 H   0  0
    6.5498    2.4455    0.0000 H   0  0
    5.8973   -7.4547    0.0000 H   0  0
    7.5018   -9.3719    0.0000 H   0  0
    9.9644   -8.9409    0.0000 H   0  0
   14.1028   -6.4703    0.0000 H   0  0
   10.7726   -9.2379    0.0000 H   0  0
   12.3705  -11.1606    0.0000 H   0  0
   15.7007   -8.3930    0.0000 H   0  0
   14.8346  -10.7381    0.0000 H   0  0
  1  2  1  0
  1  3  1  0
  1 16  1  0
  1 17  1  0
  2  5  1  0
  2  3  1  0
  3  4  1  0
  4  6  1  0
  4 12  2  0
  5  7  2  0
  6 10  1  0
  7 18  1  0
  7 19  1  0
  8  9  3  0
  9 10  1  0
 10 11  1  0
 11 13  1  0
 11 21  2  0
 13 14  2  0
 14 15  1  0
 14 23  1  0
 15 20  1  0
 20 24  2  0
 20 25  1  0
 21 22  1  0
 22 23  2  0
 24 27  1  0
 25 26  2  0
 26 28  1  0
 27 28  2  0
  2 29  1  0
  3 30  1  0
  5 31  1  0
 10 32  1  0
 13 33  1  0
 16 34  1  0
 16 35  1  0
 16 36  1  0
 17 37  1  0
 17 38  1  0
 17 39  1  0
 21 40  1  0
 22 41  1  0
 23 42  1  0
 24 43  1  0
 25 44  1  0
 26 45  1  0
 27 46  1  0
 28 47  1  0
V    1 0
V    2 1
V    3 2
V    4 3
V    5 4
V    6 5
V    7 6
V    8 7
V    9 8
V   10 9
V   11 10
V   12 11
V   13 12
V   14 13
V   15 14
V   16 15
V   17 16
V   18 17
V   19 18
V   20 19
V   21 20
V   22 21
V   23 22
V   24 23
V   25 24
V   26 25
V   27 26
V   28 27
M  END
> <DSSTox_RID>
62407

> <DSSTox_CID>
3998

> <DSSTox_CID_Parent>
3998

> <DSSTox_Generic_SID>
23998

> <DSSTox_FileID>
378_TXCST2_v1a

> <STRUCTURE_Formula>
C22H19Cl2NO3

> <STRUCTURE_MolecularWeight>
416.2972

> <STRUCTURE_ChemicalType>
defined organic

> <STRUCTURE_TestedForm_DefinedOrganic>
parent

> <STRUCTURE_Shown>
tested chemical

> <TestSubstance_ChemicalName>
Cypermethrin

> <TestSubstance_CASRN>
52315-07-8

> <TestSubstance_Description>
single chemical compound

> <ChemicalNote>
commercial product is a mixture of 8 isomers (Merck); structure shown without stereochem

> <Source_ChemicalNote>
tested chemical contained 0.04% water (0.01 moles H2O)

> <STRUCTURE_ChemicalName_IUPAC>
cyano(3-phenoxyphenyl)methyl 3-(2,2-dichlorovinyl)-2,2-dimethylcyclopropanecarboxylate

> <STRUCTURE_SMILES>
N#CC(C2=CC=CC(OC3=CC=CC=C3)=C2)OC(C1C(C)(C)C1/C=C(Cl)/Cl)=O

> <STRUCTURE_Parent_SMILES>
N#CC(C2=CC=CC(OC3=CC=CC=C3)=C2)OC(C1C(C)(C)C1/C=C(Cl)/Cl)=O

> <STRUCTURE_InChIS>
InChI=1S/C22H19Cl2NO3/c1-22(2)17(12-19(23)24)20(22)21(26)28-18(13-25)14-7-6-10-16(11-14)27-15-8-4-3-5-9-15/h3-12,17-18,20H,1-2H3

> <STRUCTURE_InChIKey>
KAATUXNTWXVJKI-UHFFFAOYSA-N

> <Substance_modify_yyyymmdd>
20080429

> <Coord_Metals>
0

> <Index>
378

> <Canonical_Smiles>
CC1(C)C(C=C(Cl)Cl)C1C(=O)OC(C#N)c2cccc(Oc3ccccc3)c2

> <Molecular_Weight>
416.29716

> <Frequency>
1

$$$$

  SciTegic          2D

 22 23  0  0  0  0            999 V2000
    1.2990   -0.7500    0.0000 C   0  0
    1.2990    0.7500    0.0000 N   0  0
    0.0000   -1.5000    0.0000 N   0  0
   -1.2990    0.7500    0.0000 N   0  0
   -1.2990   -0.7500    0.0000 C   0  0
    0.0000    1.5000    0.0000 C   0  0
    2.5973   -1.5031    0.0000 N   0  0
    2.5951   -3.0039    0.0000 C   0  0
    1.2106   -2.9351    0.0000 C   0  0
    1.9585   -4.2353    0.0000 C   0  0
   -2.6003   -1.4978    0.0000 N   0  0
   -0.0031    3.0008    0.0000 N   0  0
    3.4642   -1.0046    0.0000 H   0  0
    3.4603   -3.5054    0.0000 H   0  0
    1.2233   -1.9352    0.0000 H   0  0
    0.3258   -3.4012    0.0000 H   0  0
    2.8293   -4.7270    0.0000 H   0  0
    1.1108   -4.7658    0.0000 H   0  0
   -3.4657   -0.9965    0.0000 H   0  0
   -2.6021   -2.4978    0.0000 H   0  0
   -0.8698    3.4996    0.0000 H   0  0
    0.8620    3.5023    0.0000 H   0  0
  1  2  2  0
  1  3  1  0
  1  7  1  0
  2  6  1  0
  3  5  2  0
  4  5  1  0
  4  6  2  0
  5 11  1  0
  6 12  1  0
  7  8  1  0
  8  9  1  0
  8 10  1  0
  9 10  1  0
  7 13  1  0
  8 14  1  0
  9 15  1  0
  9 16  1  0
 10 17  1  0
 10 18  1  0
 11 19  1  0
 11 20  1  0
 12 21  1  0
 12 22  1  0
V    1 0
V    2 1
V    3 2
V    4 3
V    5 4
V    6 5
V    7 6
V    8 7
V    9 8
V   10 9
V   11 10
V   12 11
M  END
> <DSSTox_RID>
60887

> <DSSTox_CID>
3999

> <DSSTox_CID_Parent>
3999

> <DSSTox_Generic_SID>
23999

> <DSSTox_FileID>
379_TXCST2_v1a

> <STRUCTURE_Formula>
C6H10N6

> <STRUCTURE_MolecularWeight>
166.1838

> <STRUCTURE_ChemicalType>
defined organic

> <STRUCTURE_TestedForm_DefinedOrganic>
parent

> <STRUCTURE_Shown>
tested chemical

> <TestSubstance_ChemicalName>
Cyromazine

> <TestSubstance_CASRN>
66215-27-8

> <TestSubstance_Description>
single chemical compound

> <Source_ChemicalNote>
tested chemical was a mixture of isomers

> <STRUCTURE_ChemicalName_IUPAC>
N2-cyclopropyl-1,3,5-triazine-2,4,6-triamine

> <STRUCTURE_SMILES>
Nc2nc(N)nc(NC1CC1)n2

> <STRUCTURE_Parent_SMILES>
Nc2nc(N)nc(NC1CC1)n2

> <STRUCTURE_InChIS>
InChI=1S/C6H10N6/c7-4-10-5(8)12-6(11-4)9-3-1-2-3/h3H,1-2H2,(H5,7,8,9,10,11,12)

> <STRUCTURE_InChIKey>
LVQDKIWDGQRHTE-UHFFFAOYSA-N

> <Substance_modify_yyyymmdd>
20080429

> <Coord_Metals>
0

> <Index>
379

> <Canonical_Smiles>
Nc1nc(N)nc(NC2CC2)n1

> <Molecular_Weight>
166.18379

> <Frequency>
1

$$$$

  SciTegic          2D

 24 24  0  0  0  0            999 V2000
    1.2990   -0.7500    0.0000 C   0  0
   -1.2990    0.7500    0.0000 C   0  0
   -1.2990   -0.7500    0.0000 C   0  0
    1.2990    0.7500    0.0000 C   0  0
    0.0000    1.5000    0.0000 C   0  0
    0.0000   -1.5000    0.0000 C   0  0
    2.5973   -1.5031    0.0000 C   0  0
   -2.5973    1.5031    0.0000 C   0  0
    3.6375   -0.9049    0.0000 O   0  0
   -3.6375    0.9049    0.0000 O   0  0
    2.3383    1.3500    0.0000 Cl  0  0
    0.0000    2.7000    0.0000 Cl  0  0
   -2.3383   -1.3500    0.0000 Cl  0  0
    0.0000   -2.7000    0.0000 Cl  0  0
    2.5951   -3.0039    0.0000 O   0  0
   -2.5951    3.0039    0.0000 O   0  0
   -3.8933    3.7570    0.0000 C   0  0
    3.8933   -3.7570    0.0000 C   0  0
   -3.8919    4.7570    0.0000 H   0  0
   -4.7586    4.2583    0.0000 H   0  0
   -4.7602    3.2585    0.0000 H   0  0
    3.8919   -4.7570    0.0000 H   0  0
    4.7586   -4.2584    0.0000 H   0  0
    4.7602   -3.2585    0.0000 H   0  0
  1  4  2  0
  1  6  1  0
  1  7  1  0
  2  3  1  0
  2  8  1  0
  2  5  2  0
  3  6  2  0
  3 13  1  0
  4  5  1  0
  4 11  1  0
  5 12  1  0
  6 14  1  0
  7  9  2  0
  7 15  1  0
  8 10  2  0
  8 16  1  0
 15 18  1  0
 16 17  1  0
 17 19  1  0
 17 20  1  0
 17 21  1  0
 18 22  1  0
 18 23  1  0
 18 24  1  0
V    1 0
V    2 1
V    3 2
V    4 3
V    5 4
V    6 5
V    7 6
V    8 7
V    9 8
V   10 9
V   11 10
V   12 11
V   13 12
V   14 13
V   15 14
V   16 15
V   17 16
V   18 17
M  END
> <DSSTox_RID>
62334

> <DSSTox_CID>
4000

> <DSSTox_CID_Parent>
4000

> <DSSTox_Generic_SID>
24000

> <DSSTox_FileID>
380_TXCST2_v1a

> <STRUCTURE_Formula>
C10H6Cl4O4

> <STRUCTURE_MolecularWeight>
331.9642

> <STRUCTURE_ChemicalType>
defined organic

> <STRUCTURE_TestedForm_DefinedOrganic>
parent

> <STRUCTURE_Shown>
tested chemical

> <TestSubstance_ChemicalName>
Chlorthal-dimethyl

> <TestSubstance_CASRN>
1861-32-1

> <TestSubstance_Description>
single chemical compound

> <Source_ChemicalNote>
tested chemical contained 0.015% water

> <STRUCTURE_ChemicalName_IUPAC>
dimethyl 2,3,5,6-tetrachloroterephthalate

> <STRUCTURE_SMILES>
Clc1c(C(=O)OC)c(Cl)c(Cl)c(C(=O)OC)c1Cl

> <STRUCTURE_Parent_SMILES>
Clc1c(C(=O)OC)c(Cl)c(Cl)c(C(=O)OC)c1Cl

> <STRUCTURE_InChIS>
InChI=1S/C10H6Cl4O4/c1-17-9(15)3-5(11)7(13)4(10(16)18-2)8(14)6(3)12/h1-2H3

> <STRUCTURE_InChIKey>
NPOJQCVWMSKXDN-UHFFFAOYSA-N

> <Substance_modify_yyyymmdd>
20080429

> <Coord_Metals>
0

> <Index>
380

> <Canonical_Smiles>
COC(=O)c1c(Cl)c(Cl)c(C(=O)OC)c(Cl)c1Cl

> <Molecular_Weight>
331.96424

> <Frequency>
1

$$$$

  SciTegic          2D

 49 51  0  0  0  0            999 V2000
    7.9995    0.5988    0.0000 C   0  0
    9.4088    0.0851    0.0000 C   0  0
    8.3049   -0.7534    0.0000 C   0  0
    7.3395   -1.9024    0.0000 C   0  0
    7.8510   -3.3134    0.0000 O   0  0
    4.2263   -3.9910    0.0000 N   0  0
    5.4079   -4.2005    0.0000 C   0  0
    6.8856   -4.4625    0.0000 C   0  0
    7.3971   -5.8735    0.0000 C   0  0
    6.1579   -1.6929    0.0000 O   0  0
    8.8746   -5.6149    0.0000 C   0  0
    9.8374   -6.7651    0.0000 C   0  0
   11.3163   -6.5094    0.0000 O   0  0
    6.5141    0.3190    0.0000 C   0  0
   10.3658   -1.0850    0.0000 C   0  0
    9.9777    1.4860    0.0000 C   0  0
    8.4656    2.0372    0.0000 C   0  0
   12.2779   -7.6617    0.0000 C   0  0
    6.8823   -7.2823    0.0000 C   0  0
    7.8450   -8.4326    0.0000 C   0  0
    9.3226   -8.1740    0.0000 C   0  0
   13.7563   -7.4083    0.0000 C   0  0
   11.7582   -9.0689    0.0000 C   0  0
   12.7170  -10.2225    0.0000 C   0  0
   14.7151   -8.5620    0.0000 C   0  0
   14.1954   -9.9690    0.0000 C   0  0
    8.9475   -1.5196    0.0000 H   0  0
    6.5443   -3.5225    0.0000 H   0  0
    9.2179   -4.6756    0.0000 H   0  0
    6.1940   -0.6284    0.0000 H   0  0
    5.5336    0.1224    0.0000 H   0  0
    5.8535    1.0697    0.0000 H   0  0
   10.0011   -2.0161    0.0000 H   0  0
   10.9897   -1.8664    0.0000 H   0  0
   11.3545   -0.9355    0.0000 H   0  0
   10.9663    1.6361    0.0000 H   0  0
   10.3421    2.4172    0.0000 H   0  0
    9.3536    2.2674    0.0000 H   0  0
    7.8054    2.7883    0.0000 H   0  0
    8.7859    2.9845    0.0000 H   0  0
    9.4461    2.2336    0.0000 H   0  0
    5.8973   -7.4547    0.0000 H   0  0
    7.5018   -9.3719    0.0000 H   0  0
    9.9644   -8.9409    0.0000 H   0  0
   14.1028   -6.4703    0.0000 H   0  0
   10.7726   -9.2379    0.0000 H   0  0
   12.3705  -11.1606    0.0000 H   0  0
   15.7007   -8.3930    0.0000 H   0  0
   14.8346  -10.7381    0.0000 H   0  0
  1  2  1  0
  1  3  1  0
  1 14  1  0
  1 17  1  0
  2 15  1  0
  2 16  1  0
  2  3  1  0
  3  4  1  0
  4  5  1  0
  4 10  2  0
  5  8  1  0
  6  7  3  0
  7  8  1  0
  8  9  1  0
  9 11  1  0
  9 19  2  0
 11 12  2  0
 12 13  1  0
 12 21  1  0
 13 18  1  0
 18 22  1  0
 18 23  2  0
 19 20  1  0
 20 21  2  0
 22 25  2  0
 23 24  1  0
 24 26  2  0
 25 26  1  0
  3 27  1  0
  8 28  1  0
 11 29  1  0
 14 30  1  0
 14 31  1  0
 14 32  1  0
 15 33  1  0
 15 34  1  0
 15 35  1  0
 16 36  1  0
 16 37  1  0
 16 38  1  0
 17 39  1  0
 17 40  1  0
 17 41  1  0
 19 42  1  0
 20 43  1  0
 21 44  1  0
 22 45  1  0
 23 46  1  0
 24 47  1  0
 25 48  1  0
 26 49  1  0
V    1 0
V    2 1
V    3 2
V    4 3
V    5 4
V    6 5
V    7 6
V    8 7
V    9 8
V   10 9
V   11 10
V   12 11
V   13 12
V   14 13
V   15 14
V   16 15
V   17 16
V   18 17
V   19 18
V   20 19
V   21 20
V   22 21
V   23 22
V   24 23
V   25 24
V   26 25
M  END
> <DSSTox_RID>
62402

> <DSSTox_CID>
4002

> <DSSTox_CID_Parent>
4002

> <DSSTox_Generic_SID>
24002

> <DSSTox_FileID>
381_TXCST2_v1a

> <STRUCTURE_Formula>
C22H23NO3

> <STRUCTURE_MolecularWeight>
349.4229

> <STRUCTURE_ChemicalType>
defined organic

> <STRUCTURE_TestedForm_DefinedOrganic>
parent

> <STRUCTURE_Shown>
tested chemical

> <TestSubstance_ChemicalName>
Fenpropathrin

> <TestSubstance_CASRN>
39515-41-8

> <TestSubstance_Description>
single chemical compound

> <ChemicalNote>
mixture of (R,S) isomers; structure shown without stereochem

> <Source_ChemicalNote>
tested chemical contained 0.03% water (0.01 moles H2O)

> <STRUCTURE_ChemicalName_IUPAC>
cyano(3-phenoxyphenyl)methyl 2,2,3,3-tetramethylcyclopropanecarboxylate

> <STRUCTURE_SMILES>
O=C(OC(C#N)c2cccc(Oc1ccccc1)c2)C3C(C)(C)C3(C)C

> <STRUCTURE_Parent_SMILES>
O=C(OC(C#N)c2cccc(Oc1ccccc1)c2)C3C(C)(C)C3(C)C

> <STRUCTURE_InChIS>
InChI=1S/C22H23NO3/c1-21(2)19(22(21,3)4)20(24)26-18(14-23)15-9-8-12-17(13-15)25-16-10-6-5-7-11-16/h5-13,18-19H,1-4H3

> <STRUCTURE_InChIKey>
XQUXKZZNEFRCAW-UHFFFAOYSA-N

> <Substance_modify_yyyymmdd>
20080429

> <Coord_Metals>
0

> <Index>
381

> <Canonical_Smiles>
CC1(C)C(C(=O)OC(C#N)c2cccc(Oc3ccccc3)c2)C1(C)C

> <Molecular_Weight>
349.42292

> <Frequency>
1

$$$$

  SciTegic          2D

 19 19  0  0  0  0            999 V2000
    1.2990   -0.7500    0.0000 C   0  0
    1.2990    0.7500    0.0000 C   0  0
    2.5973   -1.5031    0.0000 C   0  0
    0.0000   -1.5000    0.0000 C   0  0
    0.0000    1.5000    0.0000 C   0  0
    3.6375   -0.9049    0.0000 O   0  0
   -1.2990   -0.7500    0.0000 C   0  0
   -1.2990    0.7500    0.0000 C   0  0
    2.5951   -3.0039    0.0000 O   0  0
    2.5972    1.5031    0.0000 O   0  0
    0.0000   -2.7000    0.0000 Cl  0  0
    0.0000    2.7000    0.0000 Cl  0  0
    2.5951    3.0039    0.0000 C   0  0
   -2.1651   -1.2500    0.0000 H   0  0
   -2.1651    1.2500    0.0000 H   0  0
    3.4601   -3.5057    0.0000 H   0  0
    3.4601    3.5057    0.0000 H   0  0
    1.7282    3.5024    0.0000 H   0  0
    2.5932    4.0039    0.0000 H   0  0
  1  2  1  0
  1  3  1  0
  1  4  2  0
  2  5  2  0
  2 10  1  0
  3  6  2  0
  3  9  1  0
  4  7  1  0
  4 11  1  0
  5 12  1  0
  5  8  1  0
  7  8  2  0
 10 13  1  0
  7 14  1  0
  8 15  1  0
  9 16  1  0
 13 17  1  0
 13 18  1  0
 13 19  1  0
V    1 0
V    2 1
V    3 2
V    4 3
V    5 4
V    6 5
V    7 6
V    8 7
V    9 8
V   10 9
V   11 10
V   12 11
V   13 12
M  END
> <DSSTox_RID>
62409

> <DSSTox_CID>
4018

> <DSSTox_CID_Parent>
4018

> <DSSTox_Generic_SID>
24018

> <DSSTox_FileID>
382_TXCST2_v1a

> <STRUCTURE_Formula>
C8H6Cl2O3

> <STRUCTURE_MolecularWeight>
221.0374

> <STRUCTURE_ChemicalType>
defined organic

> <STRUCTURE_TestedForm_DefinedOrganic>
parent

> <STRUCTURE_Shown>
tested chemical

> <TestSubstance_ChemicalName>
Dicamba

> <TestSubstance_CASRN>
1918-00-9

> <TestSubstance_Description>
single chemical compound

> <STRUCTURE_ChemicalName_IUPAC>
3,6-dichloro-2-methoxybenzoic acid

> <STRUCTURE_SMILES>
COc1c(c(Cl)ccc1Cl)C(O)=O

> <STRUCTURE_Parent_SMILES>
COc1c(c(Cl)ccc1Cl)C(O)=O

> <STRUCTURE_InChIS>
InChI=1S/C8H6Cl2O3/c1-13-7-5(10)3-2-4(9)6(7)8(11)12/h2-3H,1H3,(H,11,12)

> <STRUCTURE_InChIKey>
IWEDIXLBFLAXBO-UHFFFAOYSA-N

> <Substance_modify_yyyymmdd>
20080429

> <Coord_Metals>
0

> <Index>
382

> <Canonical_Smiles>
COc1c(Cl)ccc(Cl)c1C(=O)O

> <Molecular_Weight>
221.03743

> <Frequency>
1

$$$$

  SciTegic          2D

 25 25  0  0  0  0            999 V2000
    1.2990   -0.7500    0.0000 C   0  0
    1.2990    0.7500    0.0000 C   0  0
   -2.6109   -7.4996    0.0000 C   0  0
    0.0000   -1.5000    0.0000 C   0  0
   -3.9117   -8.2482    0.0000 O   0  0
   -1.2990   -0.7500    0.0000 C   0  0
    0.0000    1.5000    0.0000 C   0  0
    2.3383   -1.3500    0.0000 Cl  0  0
   -1.5727   -8.1014    0.0000 O   0  0
   -1.2990    0.7500    0.0000 C   0  0
    0.0000    2.7000    0.0000 Cl  0  0
   -0.0031   -3.0008    0.0000 O   0  0
   -2.6078   -5.9988    0.0000 C   0  0
   -1.3039   -3.7494    0.0000 C   0  0
   -1.3070   -5.2502    0.0000 C   0  0
    2.1651    1.2500    0.0000 H   0  0
   -3.9138   -9.2482    0.0000 H   0  0
   -2.1651   -1.2500    0.0000 H   0  0
   -2.1651    1.2500    0.0000 H   0  0
   -3.4748   -6.4971    0.0000 H   0  0
   -3.4730   -5.4973    0.0000 H   0  0
   -1.3023   -2.7494    0.0000 H   0  0
   -2.1691   -3.2479    0.0000 H   0  0
   -0.4400   -4.7519    0.0000 H   0  0
   -0.4418   -5.7517    0.0000 H   0  0
  1  2  2  0
  1  4  1  0
  1  8  1  0
  2  7  1  0
  3 13  1  0
  3  5  1  0
  3  9  2  0
  4  6  2  0
  4 12  1  0
  6 10  1  0
  7 11  1  0
  7 10  2  0
 12 14  1  0
 13 15  1  0
 14 15  1  0
  2 16  1  0
  5 17  1  0
  6 18  1  0
 10 19  1  0
 13 20  1  0
 13 21  1  0
 14 22  1  0
 14 23  1  0
 15 24  1  0
 15 25  1  0
V    1 0
V    2 1
V    3 2
V    4 3
V    5 4
V    6 5
V    7 6
V    8 7
V    9 8
V   10 9
V   11 10
V   12 11
V   13 12
V   14 13
V   15 14
M  END
> <DSSTox_RID>
59879

> <DSSTox_CID>
4035

> <DSSTox_CID_Parent>
4035

> <DSSTox_Generic_SID>
24035

> <DSSTox_FileID>
383_TXCST2_v1a

> <STRUCTURE_Formula>
C10H10Cl2O3

> <STRUCTURE_MolecularWeight>
249.0906

> <STRUCTURE_ChemicalType>
defined organic

> <STRUCTURE_TestedForm_DefinedOrganic>
parent

> <STRUCTURE_Shown>
tested chemical

> <TestSubstance_ChemicalName>
4-(2,4-Dichlorophenoxy)butyric acid

> <TestSubstance_CASRN>
94-82-6

> <TestSubstance_Description>
single chemical compound

> <STRUCTURE_ChemicalName_IUPAC>
4-(2,4-dichlorophenoxy)butanoic acid

> <STRUCTURE_SMILES>
OC(CCCOC1=CC=C(Cl)C=C1Cl)=O

> <STRUCTURE_Parent_SMILES>
OC(CCCOC1=CC=C(Cl)C=C1Cl)=O

> <STRUCTURE_InChIS>
InChI=1S/C10H10Cl2O3/c11-7-3-4-9(8(12)6-7)15-5-1-2-10(13)14/h3-4,6H,1-2,5H2,(H,13,14)

> <STRUCTURE_InChIKey>
YIVXMZJTEQBPQO-UHFFFAOYSA-N

> <Substance_modify_yyyymmdd>
20080429

> <Coord_Metals>
0

> <Index>
383

> <Canonical_Smiles>
OC(=O)CCCOc1ccc(Cl)cc1Cl

> <Molecular_Weight>
249.09059

> <Frequency>
1

$$$$

  SciTegic          2D

 19 18  0  0  0  0            999 V2000
    1.3000    0.7500    0.0000 C   0  0
    2.6000    0.0000    0.0000 C   0  0
    7.7999    0.0000    0.0000 C   0  0
    3.9000    0.7500    0.0000 O   0  0
    6.5000    0.7500    0.0000 O   0  0
    5.2000   -1.2000    0.0000 O   0  0
    4.1608   -0.6002    0.0000 O   0  0
    5.2000    0.0000    0.0000 S   0  0
    9.0999    0.7500    0.0000 C   0  0
    0.4338    0.2503    0.0000 H   0  0
    1.3000    1.7500    0.0000 H   0  0
    0.4340    1.2501    0.0000 H   0  0
    2.6000   -1.0000    0.0000 H   0  0
    3.4659   -0.5001    0.0000 H   0  0
    7.7999   -1.0000    0.0000 H   0  0
    6.9340   -0.5001    0.0000 H   0  0
    9.9661    0.2503    0.0000 H   0  0
    9.0999    1.7500    0.0000 H   0  0
    9.9659    1.2501    0.0000 H   0  0
  1  2  1  0
  2  4  1  0
  3  5  1  0
  3  9  1  0
  4  8  1  0
  5  8  1  0
  6  8  2  0
  7  8  2  0
  1 10  1  0
  1 11  1  0
  1 12  1  0
  2 13  1  0
  2 14  1  0
  3 15  1  0
  3 16  1  0
  9 17  1  0
  9 18  1  0
  9 19  1  0
V    1 0
V    2 1
V    3 2
V    4 3
V    5 4
V    6 5
V    7 6
V    8 7
V    9 8
M  END
> <DSSTox_RID>
65278

> <DSSTox_CID>
4045

> <DSSTox_CID_Parent>
4045

> <DSSTox_Generic_SID>
24045

> <DSSTox_FileID>
384_TXCST2_v1a

> <STRUCTURE_Formula>
C4H10O4S

> <STRUCTURE_MolecularWeight>
154.1848

> <STRUCTURE_ChemicalType>
defined organic

> <STRUCTURE_TestedForm_DefinedOrganic>
parent

> <STRUCTURE_Shown>
tested chemical

> <TestSubstance_ChemicalName>
Diethyl sulfate

> <TestSubstance_CASRN>
64-67-5

> <TestSubstance_Description>
single chemical compound

> <STRUCTURE_ChemicalName_IUPAC>
diethyl sulfate

> <STRUCTURE_SMILES>
O=S(=O)(OCC)OCC

> <STRUCTURE_Parent_SMILES>
O=S(=O)(OCC)OCC

> <STRUCTURE_InChIS>
InChI=1S/C4H10O4S/c1-3-7-9(5,6)8-4-2/h3-4H2,1-2H3

> <STRUCTURE_InChIKey>
DENRZWYUOJLTMF-UHFFFAOYSA-N

> <Substance_modify_yyyymmdd>
20080429

> <Coord_Metals>
0

> <Index>
384

> <Canonical_Smiles>
CCOS(=O)(=O)OCC

> <Molecular_Weight>
154.18479

> <Frequency>
1

$$$$

  SciTegic          2D

 36 38  0  0  0  0            999 V2000
    3.9511   -0.8815    0.0000 N   0  3
    4.9531   -1.9978    0.0000 N   0  0
    2.7343   -2.9815    0.0000 C   0  0
    4.2010   -3.2956    0.0000 C   0  0
    2.5987   -1.5004    0.0000 C   0  0
    6.4433   -1.8436    0.0000 C   0  0
    4.2537    0.5858    0.0000 C   0  0
    1.2990   -0.7500    0.0000 C   0  0
    1.2990    0.7500    0.0000 C   0  0
    0.0000   -1.5000    0.0000 C   0  0
    0.0000    1.5000    0.0000 C   0  0
   -1.2990   -0.7500    0.0000 C   0  0
   -1.2990    0.7500    0.0000 C   0  0
    4.8092   -4.6676    0.0000 C   0  0
    6.2798   -4.9368    0.0000 C   0  0
    3.8322   -5.8080    0.0000 C   0  0
    6.7829   -6.3499    0.0000 C   0  0
    4.3352   -7.2212    0.0000 C   0  0
    5.8106   -7.4921    0.0000 C   0  0
    1.9861   -3.6450    0.0000 H   0  0
    6.8521   -0.9309    0.0000 H   0  0
    7.0296   -2.6537    0.0000 H   0  0
    7.4381   -1.7411    0.0000 H   0  0
    5.2026    0.9013    0.0000 H   0  0
    3.5063    1.2501    0.0000 H   0  0
    4.4551    1.5653    0.0000 H   0  0
    2.1651    1.2500    0.0000 H   0  0
    0.0000   -2.5000    0.0000 H   0  0
    0.0000    2.5000    0.0000 H   0  0
   -2.1651   -1.2500    0.0000 H   0  0
   -2.1651    1.2500    0.0000 H   0  0
    6.9278   -4.1751    0.0000 H   0  0
    2.8489   -5.6259    0.0000 H   0  0
    7.7664   -6.5305    0.0000 H   0  0
    3.6870   -7.9827    0.0000 H   0  0
    6.1459   -8.4342    0.0000 H   0  0
  1  2  1  0
  1  5  2  0
  1  7  1  0
  2  4  1  0
  2  6  1  0
  3  4  2  0
  3  5  1  0
  4 14  1  0
  5  8  1  0
  8  9  2  0
  8 10  1  0
  9 11  1  0
 10 12  2  0
 11 13  2  0
 12 13  1  0
 14 15  2  0
 14 16  1  0
 15 17  1  0
 16 18  2  0
 17 19  2  0
 18 19  1  0
  3 20  1  0
  6 21  1  0
  6 22  1  0
  6 23  1  0
  7 24  1  0
  7 25  1  0
  7 26  1  0
  9 27  1  0
 10 28  1  0
 11 29  1  0
 12 30  1  0
 13 31  1  0
 15 32  1  0
 16 33  1  0
 17 34  1  0
 18 35  1  0
 19 36  1  0
M  CHG  1   1   1
V    1 0
V    2 1
V    3 2
V    4 3
V    5 4
V    6 5
V    7 6
V    8 7
V    9 8
V   10 9
V   11 10
V   12 11
V   13 12
V   14 13
V   15 14
V   16 15
V   17 16
V   18 17
V   19 18
M  END
> <DSSTox_RID>
61341

> <DSSTox_CID>
4048

> <DSSTox_CID_Parent>
23965

> <DSSTox_Generic_SID>
24048

> <DSSTox_FileID>
385_TXCST2_v1a

> <STRUCTURE_Formula>
C18H20N2O4S

> <STRUCTURE_MolecularWeight>
360.4274

> <STRUCTURE_ChemicalType>
defined organic

> <STRUCTURE_TestedForm_DefinedOrganic>
complex methyl sulfate (CH3O4S)

> <STRUCTURE_Shown>
tested chemical

> <TestSubstance_ChemicalName>
Difenzoquat metilsulfate

> <TestSubstance_CASRN>
43222-48-6

> <TestSubstance_Description>
single chemical compound

> <ChemicalNote>
ammonium; parent [49866-87-7]

> <Source_ChemicalNote>
tested chemical contained 0.02% water

> <STRUCTURE_ChemicalName_IUPAC>
1,2-dimethyl-3,5-diphenyl-1H-pyrazol-2-ium methyl sulfate

> <STRUCTURE_SMILES>
C[N+]1=C(C2=CC=CC=C2)C=C(C3=CC=CC=C3)N1C.O=S([O-])(OC)=O

> <STRUCTURE_Parent_SMILES>
CN1[N+](C)=C(C3=CC=CC=C3)C=C1C2=CC=CC=C2

> <STRUCTURE_InChIS>
InChI=1S/C17H17N2.CH4O4S/c1-18-16(14-9-5-3-6-10-14)13-17(19(18)2)15-11-7-4-8-12-15;1-5-6(2,3)4/h3-13H,1-2H3;1H3,(H,2,3,4)/q+1;/p-1

> <STRUCTURE_InChIKey>
XQEMNBNCQVQXMO-UHFFFAOYSA-M

> <Substance_modify_yyyymmdd>
20080429

> <Coord_Metals>
0

> <Index>
385

> <Canonical_Smiles>
C[n+]1c(cc(c2ccccc2)n1C)c3ccccc3

> <Molecular_Weight>
249.33027

> <Frequency>
1

$$$$

  SciTegic          2D

 28 27  0  0  0  0            999 V2000
    1.3000    0.7500    0.0000 C   0  0
    2.6000   -1.5007    0.0000 C   0  0
    2.6000    0.0000    0.0000 C   0  0
    9.0999    0.7500    0.0000 C   0  0
    7.7971    1.5300    0.0000 C   0  0
    7.7999    0.0000    0.0000 C   0  0
    6.5000    0.7500    0.0000 O   0  0
    3.9000    0.7500    0.0000 O   0  0
    5.2000   -1.2000    0.0000 O   0  0
    5.2000    0.0000    0.0000 P   0  0
    5.1971    1.5300    0.0000 C   0  0
    0.4338    0.2503    0.0000 H   0  0
    1.3000    1.7500    0.0000 H   0  0
    0.4340    1.2501    0.0000 H   0  0
    1.7343   -2.0013    0.0000 H   0  0
    3.4662   -2.0005    0.0000 H   0  0
    2.6005   -2.5007    0.0000 H   0  0
    2.6000    1.0000    0.0000 H   0  0
    9.9661    0.2503    0.0000 H   0  0
    9.9659    1.2501    0.0000 H   0  0
    9.0999    1.7500    0.0000 H   0  0
    6.9304    2.0289    0.0000 H   0  0
    7.7957    2.5300    0.0000 H   0  0
    8.6623    2.0313    0.0000 H   0  0
    7.7999   -1.0000    0.0000 H   0  0
    4.3304    2.0289    0.0000 H   0  0
    5.1957    2.5300    0.0000 H   0  0
    6.0623    2.0313    0.0000 H   0  0
  1  3  1  0
  2  3  1  0
  3  8  1  0
  4  6  1  0
  5  6  1  0
  6  7  1  0
  7 10  1  0
  8 10  1  0
  9 10  2  0
 10 11  1  0
  1 12  1  0
  1 13  1  0
  1 14  1  0
  2 15  1  0
  2 16  1  0
  2 17  1  0
  3 18  1  0
  4 19  1  0
  4 20  1  0
  4 21  1  0
  5 22  1  0
  5 23  1  0
  5 24  1  0
  6 25  1  0
 11 26  1  0
 11 27  1  0
 11 28  1  0
V    1 0
V    2 1
V    3 2
V    4 3
V    5 4
V    6 5
V    7 6
V    8 7
V    9 8
V   10 9
V   11 10
M  END
> <DSSTox_RID>
61248

> <DSSTox_CID>
4051

> <DSSTox_CID_Parent>
4051

> <DSSTox_Generic_SID>
24051

> <DSSTox_FileID>
386_TXCST2_v1a

> <STRUCTURE_Formula>
C7H17O3P

> <STRUCTURE_MolecularWeight>
180.1818

> <STRUCTURE_ChemicalType>
defined organic

> <STRUCTURE_TestedForm_DefinedOrganic>
parent

> <STRUCTURE_Shown>
tested chemical

> <TestSubstance_ChemicalName>
Diisopropyl methylphosphonate

> <TestSubstance_CASRN>
1445-75-6

> <TestSubstance_Description>
single chemical compound

> <STRUCTURE_ChemicalName_IUPAC>
diisopropyl methylphosphonate

> <STRUCTURE_SMILES>
CP(=O)(OC(C)C)OC(C)C

> <STRUCTURE_Parent_SMILES>
CP(=O)(OC(C)C)OC(C)C

> <STRUCTURE_InChIS>
InChI=1S/C7H17O3P/c1-6(2)9-11(5,8)10-7(3)4/h6-7H,1-5H3

> <STRUCTURE_InChIKey>
WOAFDHWYKSOANX-UHFFFAOYSA-N

> <Substance_modify_yyyymmdd>
20080429

> <Coord_Metals>
0

> <Index>
386

> <Canonical_Smiles>
CC(C)OP(=O)(C)OC(C)C

> <Molecular_Weight>
180.18184

> <Frequency>
1

$$$$

  SciTegic          2D

 22 22  0  0  0  0            999 V2000
    1.2990   -0.7500    0.0000 S   0  0
   -1.2990    0.7500    0.0000 S   0  0
    0.0000    1.5000    0.0000 C   0  0
    1.2990    0.7500    0.0000 C   0  0
   -1.2990   -0.7500    0.0000 C   0  0
    0.0000   -1.5000    0.0000 C   0  0
    1.2707   -1.9497    0.0000 O   0  0
    2.3239   -0.1258    0.0000 O   0  0
   -2.3238    0.1256    0.0000 O   0  0
   -1.2709    1.9497    0.0000 O   0  0
    2.5988    1.5004    0.0000 C   0  0
    0.0000    3.0008    0.0000 C   0  0
   -0.4215   -0.2706    0.0000 H   0  0
   -1.2755   -1.7497    0.0000 H   0  0
   -0.8776   -1.9794    0.0000 H   0  0
    0.8775   -1.9795    0.0000 H   0  0
    3.4651    1.0010    0.0000 H   0  0
    2.5985    2.5004    0.0000 H   0  0
    3.4646    2.0008    0.0000 H   0  0
   -0.8657    3.5014    0.0000 H   0  0
    0.8662    3.5006    0.0000 H   0  0
    0.0005    4.0008    0.0000 H   0  0
  1  4  1  0
  1  6  1  0
  1  7  2  0
  1  8  2  0
  2  5  1  0
  2  9  2  0
  2 10  2  0
  2  3  1  0
  3  4  2  0
  3 12  1  0
  4 11  1  0
  5  6  1  0
  5 13  1  0
  5 14  1  0
  6 15  1  0
  6 16  1  0
 11 17  1  0
 11 18  1  0
 11 19  1  0
 12 20  1  0
 12 21  1  0
 12 22  1  0
V    1 0
V    2 1
V    3 2
V    4 3
V    5 4
V    6 5
V    7 6
V    8 7
V    9 8
V   10 9
V   11 10
V   12 11
M  END
> <DSSTox_RID>
59900

> <DSSTox_CID>
4052

> <DSSTox_CID_Parent>
4052

> <DSSTox_Generic_SID>
24052

> <DSSTox_FileID>
387_TXCST2_v1a

> <STRUCTURE_Formula>
C6H10O4S2

> <STRUCTURE_MolecularWeight>
210.2712

> <STRUCTURE_ChemicalType>
defined organic

> <STRUCTURE_TestedForm_DefinedOrganic>
parent

> <STRUCTURE_Shown>
tested chemical

> <TestSubstance_ChemicalName>
Dimethipin

> <TestSubstance_CASRN>
55290-64-7

> <TestSubstance_Description>
single chemical compound

> <STRUCTURE_ChemicalName_IUPAC>
5,6-dimethyl-2,3-dihydro-1,4-dithiine 1,1,4,4-tetraoxide

> <STRUCTURE_SMILES>
O=S1(=O)CCS(=O)(=O)C(/C)=C1/C

> <STRUCTURE_Parent_SMILES>
O=S1(=O)CCS(=O)(=O)C(/C)=C1/C

> <STRUCTURE_InChIS>
InChI=1S/C6H10O4S2/c1-5-6(2)12(9,10)4-3-11(5,7)8/h3-4H2,1-2H3

> <STRUCTURE_InChIKey>
PHVNLLCAQHGNKU-UHFFFAOYSA-N

> <Substance_modify_yyyymmdd>
20080429

> <Coord_Metals>
0

> <Index>
387

> <Canonical_Smiles>
CC1=C(C)S(=O)(=O)CCS1(=O)=O

> <Molecular_Weight>
210.27119

> <Frequency>
1

$$$$

  SciTegic          2D

 13 12  0  0  0  0            999 V2000
    3.9000    0.7500    0.0000 S   0  0
    3.9000    1.9500    0.0000 O   0  0
    2.8608    1.3502    0.0000 O   0  0
    5.2000    0.0000    0.0000 O   0  0
    2.6000    0.0000    0.0000 O   0  0
    1.3000    0.7500    0.0000 C   0  0
    6.5000    0.7500    0.0000 C   0  0
    0.4338    0.2503    0.0000 H   0  0
    1.3000    1.7500    0.0000 H   0  0
    0.4340    1.2501    0.0000 H   0  0
    7.3661    0.2503    0.0000 H   0  0
    6.5000    1.7500    0.0000 H   0  0
    7.3659    1.2501    0.0000 H   0  0
  1  2  2  0
  1  3  2  0
  1  4  1  0
  1  5  1  0
  4  7  1  0
  5  6  1  0
  6  8  1  0
  6  9  1  0
  6 10  1  0
  7 11  1  0
  7 12  1  0
  7 13  1  0
V    1 0
V    2 1
V    3 2
V    4 3
V    5 4
V    6 5
V    7 6
M  END
> <DSSTox_RID>
66081

> <DSSTox_CID>
4055

> <DSSTox_CID_Parent>
4055

> <DSSTox_Generic_SID>
24055

> <DSSTox_FileID>
388_TXCST2_v1a

> <STRUCTURE_Formula>
C2H6O4S

> <STRUCTURE_MolecularWeight>
126.1316

> <STRUCTURE_ChemicalType>
defined organic

> <STRUCTURE_TestedForm_DefinedOrganic>
parent

> <STRUCTURE_Shown>
tested chemical

> <TestSubstance_ChemicalName>
Dimethyl sulfate

> <TestSubstance_CASRN>
77-78-1

> <TestSubstance_Description>
single chemical compound

> <STRUCTURE_ChemicalName_IUPAC>
dimethyl sulfate

> <STRUCTURE_SMILES>
O=S(=O)(OC)OC

> <STRUCTURE_Parent_SMILES>
O=S(=O)(OC)OC

> <STRUCTURE_InChIS>
InChI=1S/C2H6O4S/c1-5-7(3,4)6-2/h1-2H3

> <STRUCTURE_InChIKey>
VAYGXNSJCAHWJZ-UHFFFAOYSA-N

> <Substance_modify_yyyymmdd>
20080429

> <Coord_Metals>
0

> <Index>
388

> <Canonical_Smiles>
COS(=O)(=O)OC

> <Molecular_Weight>
126.13164

> <Frequency>
1

$$$$

  SciTegic          2D

 32 33  0  0  0  0            999 V2000
    1.2990   -0.7500    0.0000 C   0  0
    2.5987   -1.5004    0.0000 C   0  0
    1.2990    0.7500    0.0000 C   0  0
    3.8991   -0.7525    0.0000 C   0  0
    0.0000    1.5000    0.0000 C   0  0
    5.1969   -1.5045    0.0000 C   0  0
   -1.2990    0.7500    0.0000 C   0  0
    5.1945   -3.0045    0.0000 C   0  0
    0.0000   -1.5000    0.0000 C   0  0
    2.5965   -3.0004    0.0000 C   0  0
   -1.2990   -0.7500    0.0000 C   0  0
    3.8943   -3.7525    0.0000 C   0  0
   -2.6003    1.4977    0.0000 N   0  0
    6.4915   -3.7597    0.0000 N   0  0
    0.0000    3.0008    0.0000 C   0  0
    6.4978   -0.7562    0.0000 C   0  0
    2.1651    1.2500    0.0000 H   0  0
    3.9007    0.2475    0.0000 H   0  0
    0.0000   -2.5000    0.0000 H   0  0
    1.7297   -3.4991    0.0000 H   0  0
   -2.1651   -1.2500    0.0000 H   0  0
    3.8927   -4.7525    0.0000 H   0  0
   -3.4657    0.9965    0.0000 H   0  0
   -2.6021    2.4977    0.0000 H   0  0
    6.4885   -4.7597    0.0000 H   0  0
    7.3592   -3.2626    0.0000 H   0  0
    0.8657    3.5014    0.0000 H   0  0
   -0.8662    3.5005    0.0000 H   0  0
   -0.0005    4.0008    0.0000 H   0  0
    6.5001    0.2438    0.0000 H   0  0
    7.3629   -1.2578    0.0000 H   0  0
    7.3649   -0.2580    0.0000 H   0  0
  1  2  1  0
  1  3  1  0
  1  9  2  0
  2  4  1  0
  2 10  2  0
  3  5  2  0
  4  6  2  0
  5 15  1  0
  5  7  1  0
  6 16  1  0
  6  8  1  0
  7 11  2  0
  7 13  1  0
  8 12  2  0
  8 14  1  0
  9 11  1  0
 10 12  1  0
  3 17  1  0
  4 18  1  0
  9 19  1  0
 10 20  1  0
 11 21  1  0
 12 22  1  0
 13 23  1  0
 13 24  1  0
 14 25  1  0
 14 26  1  0
 15 27  1  0
 15 28  1  0
 15 29  1  0
 16 30  1  0
 16 31  1  0
 16 32  1  0
V    1 0
V    2 1
V    3 2
V    4 3
V    5 4
V    6 5
V    7 6
V    8 7
V    9 8
V   10 9
V   11 10
V   12 11
V   13 12
V   14 13
V   15 14
V   16 15
M  END
> <DSSTox_RID>
59635

> <DSSTox_CID>
4059

> <DSSTox_CID_Parent>
4059

> <DSSTox_Generic_SID>
24059

> <DSSTox_FileID>
389_TXCST2_v1a

> <STRUCTURE_Formula>
C14H16N2

> <STRUCTURE_MolecularWeight>
212.2902

> <STRUCTURE_ChemicalType>
defined organic

> <STRUCTURE_TestedForm_DefinedOrganic>
parent

> <STRUCTURE_Shown>
tested chemical

> <TestSubstance_ChemicalName>
3,3'-Dimethylbenzidine

> <TestSubstance_CASRN>
119-93-7

> <TestSubstance_Description>
single chemical compound

> <Source_ChemicalNote>
tested chemical contained 0.25% water (0.03 moles H2O)

> <STRUCTURE_ChemicalName_IUPAC>
3,3'-dimethylbiphenyl-4,4'-diamine

> <STRUCTURE_SMILES>
NC1=C(C=C(C2=CC(C)=C(N)C=C2)C=C1)C

> <STRUCTURE_Parent_SMILES>
NC1=C(C=C(C2=CC(C)=C(N)C=C2)C=C1)C

> <STRUCTURE_InChIS>
InChI=1S/C14H16N2/c1-9-7-11(3-5-13(9)15)12-4-6-14(16)10(2)8-12/h3-8H,15-16H2,1-2H3

> <STRUCTURE_InChIKey>
NUIURNJTPRWVAP-UHFFFAOYSA-N

> <Substance_modify_yyyymmdd>
20080429

> <Coord_Metals>
0

> <Index>
389

> <Canonical_Smiles>
Cc1cc(ccc1N)c2ccc(N)c(C)c2

> <Molecular_Weight>
212.29023

> <Frequency>
1

$$$$

  SciTegic          2D

 19 19  0  0  0  0            999 V2000
    1.2990   -0.7500    0.0000 C   0  0
    1.2990    0.7500    0.0000 C   0  0
    0.0000   -1.5000    0.0000 C   0  0
    0.0000    1.5000    0.0000 C   0  0
   -1.2990   -0.7500    0.0000 C   0  0
   -1.2990    0.7500    0.0000 C   0  0
    2.5988    1.5004    0.0000 C   0  0
   -0.0031   -3.0008    0.0000 O   0  0
    0.0000    3.0008    0.0000 C   0  0
    2.1651   -1.2500    0.0000 H   0  0
   -2.1651   -1.2500    0.0000 H   0  0
   -2.1651    1.2500    0.0000 H   0  0
    3.4651    1.0010    0.0000 H   0  0
    2.5985    2.5004    0.0000 H   0  0
    3.4646    2.0008    0.0000 H   0  0
   -0.8698   -3.4996    0.0000 H   0  0
    0.8657    3.5014    0.0000 H   0  0
   -0.8662    3.5005    0.0000 H   0  0
   -0.0005    4.0008    0.0000 H   0  0
  1  2  1  0
  1  3  2  0
  2  4  2  0
  2  7  1  0
  3  5  1  0
  3  8  1  0
  4  6  1  0
  4  9  1  0
  5  6  2  0
  1 10  1  0
  5 11  1  0
  6 12  1  0
  7 13  1  0
  7 14  1  0
  7 15  1  0
  8 16  1  0
  9 17  1  0
  9 18  1  0
  9 19  1  0
V    1 0
V    2 1
V    3 2
V    4 3
V    5 4
V    6 5
V    7 6
V    8 7
V    9 8
M  END
> <DSSTox_RID>
59553

> <DSSTox_CID>
4062

> <DSSTox_CID_Parent>
4062

> <DSSTox_Generic_SID>
24062

> <DSSTox_FileID>
390_TXCST2_v1a

> <STRUCTURE_Formula>
C8H10O

> <STRUCTURE_MolecularWeight>
122.1644

> <STRUCTURE_ChemicalType>
defined organic

> <STRUCTURE_TestedForm_DefinedOrganic>
parent

> <STRUCTURE_Shown>
tested chemical

> <TestSubstance_ChemicalName>
3,4-Dimethylphenol

> <TestSubstance_CASRN>
95-65-8

> <TestSubstance_Description>
single chemical compound

> <STRUCTURE_ChemicalName_IUPAC>
3,4-dimethylphenol

> <STRUCTURE_SMILES>
OC1=CC(C)=C(C)C=C1

> <STRUCTURE_Parent_SMILES>
OC1=CC(C)=C(C)C=C1

> <STRUCTURE_InChIS>
InChI=1S/C8H10O/c1-6-3-4-8(9)5-7(6)2/h3-5,9H,1-2H3

> <STRUCTURE_InChIKey>
YCOXTKKNXUZSKD-UHFFFAOYSA-N

> <Substance_modify_yyyymmdd>
20080429

> <Coord_Metals>
0

> <Index>
390

> <Canonical_Smiles>
Cc1ccc(O)cc1C

> <Molecular_Weight>
122.1644

> <Frequency>
1

$$$$

  SciTegic          2D

 19 19  0  0  0  0            999 V2000
    1.2990   -0.7500    0.0000 C   0  0
    1.2990    0.7500    0.0000 C   0  0
    0.0000   -1.5000    0.0000 C   0  0
    0.0000    1.5000    0.0000 C   0  0
   -1.2990   -0.7500    0.0000 C   0  0
   -1.2990    0.7500    0.0000 C   0  0
    2.5988   -1.5004    0.0000 C   0  0
   -0.0031   -3.0008    0.0000 O   0  0
   -2.5988   -1.5004    0.0000 C   0  0
    2.1651    1.2500    0.0000 H   0  0
    0.0000    2.5000    0.0000 H   0  0
   -2.1651    1.2500    0.0000 H   0  0
    3.4651   -1.0010    0.0000 H   0  0
    2.5985   -2.5004    0.0000 H   0  0
    3.4646   -2.0008    0.0000 H   0  0
   -0.8698   -3.4996    0.0000 H   0  0
   -2.5994   -2.5004    0.0000 H   0  0
   -3.4647   -1.0002    0.0000 H   0  0
   -3.4650   -2.0000    0.0000 H   0  0
  1  2  1  0
  1  3  2  0
  1  7  1  0
  2  4  2  0
  3  5  1  0
  3  8  1  0
  4  6  1  0
  5  6  2  0
  5  9  1  0
  2 10  1  0
  4 11  1  0
  6 12  1  0
  7 13  1  0
  7 14  1  0
  7 15  1  0
  8 16  1  0
  9 17  1  0
  9 18  1  0
  9 19  1  0
V    1 0
V    2 1
V    3 2
V    4 3
V    5 4
V    6 5
V    7 6
V    8 7
V    9 8
M  END
> <DSSTox_RID>
66577

> <DSSTox_CID>
4063

> <DSSTox_CID_Parent>
4063

> <DSSTox_Generic_SID>
24063

> <DSSTox_FileID>
391_TXCST2_v1a

> <STRUCTURE_Formula>
C8H10O

> <STRUCTURE_MolecularWeight>
122.1644

> <STRUCTURE_ChemicalType>
defined organic

> <STRUCTURE_TestedForm_DefinedOrganic>
parent

> <STRUCTURE_Shown>
tested chemical

> <TestSubstance_ChemicalName>
2,6-Dimethylphenol

> <TestSubstance_CASRN>
576-26-1

> <TestSubstance_Description>
single chemical compound

> <STRUCTURE_ChemicalName_IUPAC>
2,6-dimethylphenol

> <STRUCTURE_SMILES>
OC1=C(C=CC=C1C)C

> <STRUCTURE_Parent_SMILES>
OC1=C(C=CC=C1C)C

> <STRUCTURE_InChIS>
InChI=1S/C8H10O/c1-6-4-3-5-7(2)8(6)9/h3-5,9H,1-2H3

> <STRUCTURE_InChIKey>
NXXYKOUNUYWIHA-UHFFFAOYSA-N

> <Substance_modify_yyyymmdd>
20080429

> <Coord_Metals>
0

> <Index>
391

> <Canonical_Smiles>
Cc1cccc(C)c1O

> <Molecular_Weight>
122.1644

> <Frequency>
1

$$$$

  SciTegic          2D

 16 16  0  0  0  0            999 V2000
    1.2990   -0.7500    0.0000 C   0  0
    1.2990    0.7500    0.0000 C   0  0
    0.0000    1.5000    0.0000 C   0  0
   -1.2990    0.7500    0.0000 C   0  0
   -1.2990   -0.7500    0.0000 C   0  0
    0.0000   -1.5000    0.0000 C   0  0
    2.5973   -1.5031    0.0000 N   0  0
    2.5956   -2.7031    0.0000 O   0  0
    3.6375   -0.9049    0.0000 O   0  0
   -2.5972   -1.5031    0.0000 N   0  0
   -2.5955   -2.7031    0.0000 O   0  0
   -3.6375   -0.9049    0.0000 O   0  0
    2.1651    1.2500    0.0000 H   0  0
    0.0000    2.5000    0.0000 H   0  0
   -2.1651    1.2500    0.0000 H   0  0
    0.0000   -2.5000    0.0000 H   0  0
  1  2  2  0
  1  6  1  0
  1  7  1  0
  2  3  1  0
  3  4  2  0
  4  5  1  0
  5  6  2  0
  5 10  1  0
  7  8  2  0
  7  9  2  0
 10 11  2  0
 10 12  2  0
  2 13  1  0
  3 14  1  0
  4 15  1  0
  6 16  1  0
V    1 0
V    2 1
V    3 2
V    4 3
V    5 4
V    6 5
V    7 6
V    8 7
V    9 8
V   10 9
V   11 10
V   12 11
M  END
> <DSSTox_RID>
60164

> <DSSTox_CID>
4065

> <DSSTox_CID_Parent>
4065

> <DSSTox_Generic_SID>
24065

> <DSSTox_FileID>
392_TXCST2_v1a

> <STRUCTURE_Formula>
C6H4N2O4

> <STRUCTURE_MolecularWeight>
168.107

> <STRUCTURE_ChemicalType>
defined organic

> <STRUCTURE_TestedForm_DefinedOrganic>
parent

> <STRUCTURE_Shown>
tested chemical

> <TestSubstance_ChemicalName>
1,3-Dinitrobenzene

> <TestSubstance_CASRN>
99-65-0

> <TestSubstance_Description>
single chemical compound

> <STRUCTURE_ChemicalName_IUPAC>
1,3-dinitrobenzene

> <STRUCTURE_SMILES>
[O-][N+](C1=CC=CC([N+]([O-])=O)=C1)=O

> <STRUCTURE_Parent_SMILES>
[O-][N+](C1=CC=CC([N+]([O-])=O)=C1)=O

> <STRUCTURE_InChIS>
InChI=1S/C6H4N2O4/c9-7(10)5-2-1-3-6(4-5)8(11)12/h1-4H

> <STRUCTURE_InChIKey>
WDCYWAQPCXBPJA-UHFFFAOYSA-N

> <Substance_modify_yyyymmdd>
20080429

> <Coord_Metals>
0

> <Index>
392

> <Canonical_Smiles>
O=N(=O)c1cccc(c1)N(=O)=O

> <Molecular_Weight>
168.10695

> <Frequency>
1

$$$$

  SciTegic          2D

 16 16  0  0  0  0            999 V2000
   -1.0432    3.5993    0.0000 O   0  0
   -0.0031    3.0008    0.0000 N   0  0
    1.0351    3.6026    0.0000 O   0  0
    1.2990   -0.7500    0.0000 C   0  0
    1.2990    0.7500    0.0000 C   0  0
    0.0000   -1.5000    0.0000 C   0  0
   -1.2990   -0.7500    0.0000 C   0  0
   -1.2990    0.7500    0.0000 C   0  0
    0.0000    1.5000    0.0000 C   0  0
    2.5972    1.5031    0.0000 N   0  0
    2.5955    2.7031    0.0000 O   0  0
    3.6375    0.9049    0.0000 O   0  0
    2.1651   -1.2500    0.0000 H   0  0
    0.0000   -2.5000    0.0000 H   0  0
   -2.1651   -1.2500    0.0000 H   0  0
   -2.1651    1.2500    0.0000 H   0  0
  1  2  2  0
  2  3  2  0
  2  9  1  0
  4  5  1  0
  4  6  2  0
  5  9  2  0
  5 10  1  0
  6  7  1  0
  7  8  2  0
  8  9  1  0
 10 11  2  0
 10 12  2  0
  4 13  1  0
  6 14  1  0
  7 15  1  0
  8 16  1  0
V    1 0
V    2 1
V    3 2
V    4 3
V    5 4
V    6 5
V    7 6
V    8 7
V    9 8
V   10 9
V   11 10
V   12 11
M  END
> <DSSTox_RID>
59931

> <DSSTox_CID>
4066

> <DSSTox_CID_Parent>
4066

> <DSSTox_Generic_SID>
24066

> <DSSTox_FileID>
393_TXCST2_v1a

> <STRUCTURE_Formula>
C6H4N2O4

> <STRUCTURE_MolecularWeight>
168.107

> <STRUCTURE_ChemicalType>
defined organic

> <STRUCTURE_TestedForm_DefinedOrganic>
parent

> <STRUCTURE_Shown>
tested chemical

> <TestSubstance_ChemicalName>
1,2-Dinitrobenzene

> <TestSubstance_CASRN>
528-29-0

> <TestSubstance_Description>
single chemical compound

> <STRUCTURE_ChemicalName_IUPAC>
1,2-dinitrobenzene

> <STRUCTURE_SMILES>
O=[N+]([O-])c1ccccc1[N+]([O-])=O

> <STRUCTURE_Parent_SMILES>
O=[N+]([O-])c1ccccc1[N+]([O-])=O

> <STRUCTURE_InChIS>
InChI=1S/C6H4N2O4/c9-7(10)5-3-1-2-4-6(5)8(11)12/h1-4H

> <STRUCTURE_InChIKey>
IZUKQUVSCNEFMJ-UHFFFAOYSA-N

> <Substance_modify_yyyymmdd>
20080429

> <Coord_Metals>
0

> <Index>
393

> <Canonical_Smiles>
O=N(=O)c1ccccc1N(=O)=O

> <Molecular_Weight>
168.10696

> <Frequency>
1

$$$$

  SciTegic          2D

 23 24  0  0  0  0            999 V2000
   -0.9509    0.0731    0.0000 C   0  0
   -1.4995   -1.0789    0.0000 C   0  0
    0.3109    0.7498    0.0000 C   0  0
   -0.2194   -0.6035    0.0000 C   0  0
    0.0000    2.0116    0.0000 O   0  0
   -2.9521   -0.6459    0.0000 C   0  0
   -2.3179    0.6019    0.0000 C   0  0
    0.8595   -1.1887    0.0000 C   0  0
    1.4995    0.0549    0.0000 C   0  0
   -3.2494    0.5167    0.0000 O   0  0
   -3.0686   -0.0588    0.0000 O   0  0
   -4.0257   -1.6946    0.0000 O   0  0
   -2.6137    2.0733    0.0000 O   0  0
   -0.6734    1.0339    0.0000 H   0  0
   -1.3003   -2.0589    0.0000 H   0  0
    0.2925   -0.2501    0.0000 H   0  0
   -0.2901   -1.6010    0.0000 H   0  0
    0.1774   -1.9199    0.0000 H   0  0
    1.8350   -1.4087    0.0000 H   0  0
    1.7325    1.0273    0.0000 H   0  0
    2.2181   -0.6406    0.0000 H   0  0
   -4.9887   -1.4251    0.0000 H   0  0
   -3.5611    2.3934    0.0000 H   0  0
  1  2  1  0
  1  3  1  0
  1  7  1  0
  2  4  1  0
  2  6  1  0
  3  5  1  0
  3  9  1  0
  4  5  1  0
  4  8  1  0
  6 10  2  0
  6 12  1  0
  7 11  2  0
  7 13  1  0
  8  9  1  0
  1 14  1  0
  2 15  1  0
  3 16  1  0
  4 17  1  0
  8 18  1  0
  8 19  1  0
  9 20  1  0
  9 21  1  0
 12 22  1  0
 13 23  1  0
V    1 0
V    2 1
V    3 2
V    4 3
V    5 4
V    6 5
V    7 6
V    8 7
V    9 8
V   10 9
V   11 10
V   12 11
V   13 12
M  END
> <DSSTox_RID>
65477

> <DSSTox_CID>
4081

> <DSSTox_CID_Parent>
4081

> <DSSTox_Generic_SID>
24081

> <DSSTox_FileID>
394_TXCST2_v1a

> <STRUCTURE_Formula>
C8H10O5

> <STRUCTURE_MolecularWeight>
186.162

> <STRUCTURE_ChemicalType>
defined organic

> <STRUCTURE_TestedForm_DefinedOrganic>
parent

> <STRUCTURE_Shown>
tested chemical

> <TestSubstance_ChemicalName>
Endothal

> <TestSubstance_CASRN>
145-73-3

> <TestSubstance_Description>
single chemical compound

> <Source_ChemicalNote>
tested chemical contained 7% water (0.78 moles H2O)

> <STRUCTURE_ChemicalName_IUPAC>
7-oxabicyclo[2.2.1]heptane-2,3-dicarboxylic acid

> <STRUCTURE_SMILES>
O=C(O)C2C(C1CCC2O1)C(O)=O

> <STRUCTURE_Parent_SMILES>
O=C(O)C2C(C1CCC2O1)C(O)=O

> <STRUCTURE_InChIS>
InChI=1S/C8H10O5/c9-7(10)5-3-1-2-4(13-3)6(5)8(11)12/h3-6H,1-2H2,(H,9,10)(H,11,12)

> <STRUCTURE_InChIKey>
GXEKYRXVRROBEV-UHFFFAOYSA-N

> <Substance_modify_yyyymmdd>
20080429

> <Coord_Metals>
0

> <Index>
394

> <Canonical_Smiles>
OC(=O)C1C2CCC(O2)C1C(=O)O

> <Molecular_Weight>
186.16199

> <Frequency>
1

$$$$

  SciTegic          2D

 13 12  0  0  0  0            999 V2000
    3.9000    0.7500    0.0000 P   0  0
    2.6000    0.0000    0.0000 C   0  0
    3.9000    1.9500    0.0000 O   0  0
    5.2000    0.0000    0.0000 O   0  0
    2.5761    1.5169    0.0000 O   0  0
    0.2606    0.1503    0.0000 Cl  0  0
    1.3000    0.7500    0.0000 C   0  0
    2.6000   -1.0000    0.0000 H   0  0
    1.7340   -0.5001    0.0000 H   0  0
    6.0661    0.4997    0.0000 H   0  0
    2.5769    2.5169    0.0000 H   0  0
    1.3000    1.7500    0.0000 H   0  0
    0.4340    1.2501    0.0000 H   0  0
  1  2  1  0
  1  3  2  0
  1  4  1  0
  1  5  1  0
  2  7  1  0
  6  7  1  0
  2  8  1  0
  2  9  1  0
  4 10  1  0
  5 11  1  0
  7 12  1  0
  7 13  1  0
V    1 0
V    2 1
V    3 2
V    4 3
V    5 4
V    6 5
V    7 6
M  END
> <DSSTox_RID>
59942

> <DSSTox_CID>
4085

> <DSSTox_CID_Parent>
4085

> <DSSTox_Generic_SID>
24085

> <DSSTox_FileID>
395_TXCST2_v1a

> <STRUCTURE_Formula>
C2H6ClO3P

> <STRUCTURE_MolecularWeight>
144.494

> <STRUCTURE_ChemicalType>
defined organic

> <STRUCTURE_TestedForm_DefinedOrganic>
parent

> <STRUCTURE_Shown>
tested chemical

> <TestSubstance_ChemicalName>
Ethephon

> <TestSubstance_CASRN>
16672-87-0

> <TestSubstance_Description>
single chemical compound

> <Source_ChemicalNote>
tested chemical contained 0.33% water (0.03 moles H2O)

> <STRUCTURE_ChemicalName_IUPAC>
(2-chloroethyl)phosphonic acid

> <STRUCTURE_SMILES>
ClCCP(O)(=O)O

> <STRUCTURE_Parent_SMILES>
ClCCP(O)(=O)O

> <STRUCTURE_InChIS>
InChI=1S/C2H6ClO3P/c3-1-2-7(4,5)6/h1-2H2,(H2,4,5,6)

> <STRUCTURE_InChIKey>
UDPGUMQDCGORJQ-UHFFFAOYSA-N

> <Substance_modify_yyyymmdd>
20080429

> <Coord_Metals>
0

> <Index>
395

> <Canonical_Smiles>
OP(=O)(O)CCCl

> <Molecular_Weight>
144.494

> <Frequency>
1

$$$$

  SciTegic          2D

 41 40  0  0  0  0            999 V2000
    5.2000    0.0000    0.0000 P   0  0
   10.3999    0.0000    0.0000 P   0  0
    6.5000    0.7500    0.0000 S   0  0
    9.0999    0.7500    0.0000 S   0  0
    7.7999    0.0000    0.0000 C   0  0
    4.1611    0.6007    0.0000 S   0  0
   10.3999   -1.2000    0.0000 S   0  0
    5.1985   -1.5008    0.0000 O   0  0
   11.6999    0.7500    0.0000 O   0  0
    9.0760   -0.7669    0.0000 O   0  0
    5.1988    1.5300    0.0000 O   0  0
    3.8985   -2.2508    0.0000 C   0  0
    3.8989    2.2801    0.0000 C   0  0
    9.0772   -2.2677    0.0000 C   0  0
   12.9999    0.0000    0.0000 C   0  0
    3.8971   -3.7516    0.0000 C   0  0
    7.7786   -3.0200    0.0000 C   0  0
    3.8977    3.7810    0.0000 C   0  0
   14.2999    0.7500    0.0000 C   0  0
    7.7999   -1.0000    0.0000 H   0  0
    6.9340   -0.5001    0.0000 H   0  0
    3.0328   -1.7503    0.0000 H   0  0
    3.8990   -1.2508    0.0000 H   0  0
    3.0331    1.7797    0.0000 H   0  0
    3.8992    1.2801    0.0000 H   0  0
    9.9428   -1.7668    0.0000 H   0  0
    9.9438   -2.7667    0.0000 H   0  0
   12.9999   -1.0000    0.0000 H   0  0
   12.1340   -0.5001    0.0000 H   0  0
    3.0309   -4.2514    0.0000 H   0  0
    4.7628   -4.2522    0.0000 H   0  0
    3.8966   -4.7516    0.0000 H   0  0
    7.7794   -4.0200    0.0000 H   0  0
    6.9120   -2.5210    0.0000 H   0  0
    6.9130   -3.5208    0.0000 H   0  0
    3.0315    4.2808    0.0000 H   0  0
    4.7634    4.2814    0.0000 H   0  0
    3.8973    4.7810    0.0000 H   0  0
   15.1661    0.2503    0.0000 H   0  0
   14.2999    1.7500    0.0000 H   0  0
   15.1658    1.2501    0.0000 H   0  0
  1  3  1  0
  1  6  2  0
  1  8  1  0
  1 11  1  0
  2  4  1  0
  2  7  2  0
  2  9  1  0
  2 10  1  0
  3  5  1  0
  4  5  1  0
  8 12  1  0
  9 15  1  0
 10 14  1  0
 11 13  1  0
 12 16  1  0
 13 18  1  0
 14 17  1  0
 15 19  1  0
  5 20  1  0
  5 21  1  0
 12 22  1  0
 12 23  1  0
 13 24  1  0
 13 25  1  0
 14 26  1  0
 14 27  1  0
 15 28  1  0
 15 29  1  0
 16 30  1  0
 16 31  1  0
 16 32  1  0
 17 33  1  0
 17 34  1  0
 17 35  1  0
 18 36  1  0
 18 37  1  0
 18 38  1  0
 19 39  1  0
 19 40  1  0
 19 41  1  0
V    1 0
V    2 1
V    3 2
V    4 3
V    5 4
V    6 5
V    7 6
V    8 7
V    9 8
V   10 9
V   11 10
V   12 11
V   13 12
V   14 13
V   15 14
V   16 15
V   17 16
V   18 17
V   19 18
M  END
> <DSSTox_RID>
59581

> <DSSTox_CID>
4086

> <DSSTox_CID_Parent>
4086

> <DSSTox_Generic_SID>
24086

> <DSSTox_FileID>
396_TXCST2_v1a

> <STRUCTURE_Formula>
C9H22O4P2S4

> <STRUCTURE_MolecularWeight>
384.4761

> <STRUCTURE_ChemicalType>
defined organic

> <STRUCTURE_TestedForm_DefinedOrganic>
parent

> <STRUCTURE_Shown>
tested chemical

> <TestSubstance_ChemicalName>
Ethion

> <TestSubstance_CASRN>
563-12-2

> <TestSubstance_Description>
single chemical compound

> <STRUCTURE_ChemicalName_IUPAC>
O,O,O',O'-tetraethyl S,S'-methylene bis(dithiophosphate)

> <STRUCTURE_SMILES>
S=P(SCSP(=S)(OCC)OCC)(OCC)OCC

> <STRUCTURE_Parent_SMILES>
S=P(SCSP(=S)(OCC)OCC)(OCC)OCC

> <STRUCTURE_InChIS>
InChI=1S/C9H22O4P2S4/c1-5-10-14(16,11-6-2)18-9-19-15(17,12-7-3)13-8-4/h5-9H2,1-4H3

> <STRUCTURE_InChIKey>
RIZMRRKBZQXFOY-UHFFFAOYSA-N

> <Substance_modify_yyyymmdd>
20080429

> <Coord_Metals>
0

> <Index>
396

> <Canonical_Smiles>
CCOP(=S)(OCC)SCSP(=S)(OCC)OCC

> <Molecular_Weight>
384.4761

> <Frequency>
1

$$$$

  SciTegic          2D

 16 15  0  0  0  0            999 V2000
    1.3000    0.7500    0.0000 O   0  0
    5.2000    0.0000    0.0000 O   0  0
    2.6000    0.0000    0.0000 C   0  0
    3.9000    0.7500    0.0000 C   0  0
    6.5000    0.7500    0.0000 C   0  0
    7.7999    0.0000    0.0000 C   0  0
    0.4338    0.2503    0.0000 H   0  0
    2.6000   -1.0000    0.0000 H   0  0
    1.7340   -0.5001    0.0000 H   0  0
    3.9000    1.7500    0.0000 H   0  0
    4.7659    1.2501    0.0000 H   0  0
    6.5000    1.7500    0.0000 H   0  0
    5.6340    1.2501    0.0000 H   0  0
    8.6661    0.4997    0.0000 H   0  0
    7.7999   -1.0000    0.0000 H   0  0
    8.6659   -0.5001    0.0000 H   0  0
  1  3  1  0
  2  4  1  0
  2  5  1  0
  3  4  1  0
  5  6  1  0
  1  7  1  0
  3  8  1  0
  3  9  1  0
  4 10  1  0
  4 11  1  0
  5 12  1  0
  5 13  1  0
  6 14  1  0
  6 15  1  0
  6 16  1  0
V    1 0
V    2 1
V    3 2
V    4 3
V    5 4
V    6 5
M  END
> <DSSTox_RID>
65295

> <DSSTox_CID>
4087

> <DSSTox_CID_Parent>
4087

> <DSSTox_Generic_SID>
24087

> <DSSTox_FileID>
397_TXCST2_v1a

> <STRUCTURE_Formula>
C4H10O2

> <STRUCTURE_MolecularWeight>
90.121

> <STRUCTURE_ChemicalType>
defined organic

> <STRUCTURE_TestedForm_DefinedOrganic>
parent

> <STRUCTURE_Shown>
tested chemical

> <TestSubstance_ChemicalName>
2-Ethoxyethanol

> <TestSubstance_CASRN>
110-80-5

> <TestSubstance_Description>
single chemical compound

> <STRUCTURE_ChemicalName_IUPAC>
2-ethoxyethanol

> <STRUCTURE_SMILES>
CCOCCO

> <STRUCTURE_Parent_SMILES>
CCOCCO

> <STRUCTURE_InChIS>
InChI=1S/C4H10O2/c1-2-6-4-3-5/h5H,2-4H2,1H3

> <STRUCTURE_InChIKey>
ZNQVEEAIQZEUHB-UHFFFAOYSA-N

> <Substance_modify_yyyymmdd>
20080429

> <Coord_Metals>
0

> <Index>
397

> <Canonical_Smiles>
CCOCCO

> <Molecular_Weight>
90.121

> <Frequency>
1

$$$$

  SciTegic          2D

 31 30  0  0  0  0            999 V2000
    5.2000    0.0000    0.0000 C   0  0
    6.5000    0.7500    0.0000 N   0  0
    5.2000   -1.2000    0.0000 O   0  0
    3.9000    0.7500    0.0000 S   0  0
    7.7999    0.0000    0.0000 C   0  0
    6.4969    2.2508    0.0000 C   0  0
    2.6000    0.0000    0.0000 C   0  0
    5.1960    2.9994    0.0000 C   0  0
    9.0999    0.7500    0.0000 C   0  0
    1.3000    0.7500    0.0000 C   0  0
   10.3999    0.0000    0.0000 C   0  0
    5.1930    4.5002    0.0000 C   0  0
    7.7999   -1.0000    0.0000 H   0  0
    6.9340   -0.5001    0.0000 H   0  0
    7.3620    2.7523    0.0000 H   0  0
    7.3638    1.7525    0.0000 H   0  0
    2.6000   -1.0000    0.0000 H   0  0
    3.4659   -0.5001    0.0000 H   0  0
    5.1976    1.9994    0.0000 H   0  0
    4.3309    2.4979    0.0000 H   0  0
    9.0999    1.7500    0.0000 H   0  0
    8.2340    1.2501    0.0000 H   0  0
    0.4338    0.2503    0.0000 H   0  0
    1.3000    1.7500    0.0000 H   0  0
    0.4340    1.2501    0.0000 H   0  0
   11.2661    0.4997    0.0000 H   0  0
   10.3999   -1.0000    0.0000 H   0  0
   11.2659   -0.5001    0.0000 H   0  0
    4.3262    4.9990    0.0000 H   0  0
    6.0581    5.0017    0.0000 H   0  0
    5.1914    5.5002    0.0000 H   0  0
  1  2  1  0
  1  3  2  0
  1  4  1  0
  2  5  1  0
  2  6  1  0
  4  7  1  0
  5  9  1  0
  6  8  1  0
  7 10  1  0
  8 12  1  0
  9 11  1  0
  5 13  1  0
  5 14  1  0
  6 15  1  0
  6 16  1  0
  7 17  1  0
  7 18  1  0
  8 19  1  0
  8 20  1  0
  9 21  1  0
  9 22  1  0
 10 23  1  0
 10 24  1  0
 10 25  1  0
 11 26  1  0
 11 27  1  0
 11 28  1  0
 12 29  1  0
 12 30  1  0
 12 31  1  0
V    1 0
V    2 1
V    3 2
V    4 3
V    5 4
V    6 5
V    7 6
V    8 7
V    9 8
V   10 9
V   11 10
V   12 11
M  END
> <DSSTox_RID>
59958

> <DSSTox_CID>
4091

> <DSSTox_CID_Parent>
4091

> <DSSTox_Generic_SID>
24091

> <DSSTox_FileID>
398_TXCST2_v1a

> <STRUCTURE_Formula>
C9H19NOS

> <STRUCTURE_MolecularWeight>
189.3183

> <STRUCTURE_ChemicalType>
defined organic

> <STRUCTURE_TestedForm_DefinedOrganic>
parent

> <STRUCTURE_Shown>
tested chemical

> <TestSubstance_ChemicalName>
S-Ethyl dipropylthiocarbamate

> <TestSubstance_CASRN>
759-94-4

> <TestSubstance_Description>
single chemical compound

> <STRUCTURE_ChemicalName_IUPAC>
S-ethyl dipropylthiocarbamate

> <STRUCTURE_SMILES>
CCCN(CCC)C(=O)SCC

> <STRUCTURE_Parent_SMILES>
CCCN(CCC)C(=O)SCC

> <STRUCTURE_InChIS>
InChI=1S/C9H19NOS/c1-4-7-10(8-5-2)9(11)12-6-3/h4-8H2,1-3H3

> <STRUCTURE_InChIKey>
GUVLYNGULCJVDO-UHFFFAOYSA-N

> <Substance_modify_yyyymmdd>
20080429

> <Coord_Metals>
0

> <Index>
398

> <Canonical_Smiles>
CCCN(CCC)C(=O)SCC

> <Molecular_Weight>
189.31825

> <Frequency>
1

$$$$

  SciTegic          2D

 22 21  0  0  0  0            999 V2000
    1.3000    0.7500    0.0000 O   0  0
    5.2000    0.0000    0.0000 O   0  0
    2.6000    0.0000    0.0000 C   0  0
    3.9000    0.7500    0.0000 C   0  0
    6.5000    0.7500    0.0000 C   0  0
    7.7999    0.0000    0.0000 C   0  0
    9.0999    0.7500    0.0000 C   0  0
   10.3999    0.0000    0.0000 C   0  0
    0.4338    0.2503    0.0000 H   0  0
    2.6000   -1.0000    0.0000 H   0  0
    1.7340   -0.5001    0.0000 H   0  0
    3.9000    1.7500    0.0000 H   0  0
    4.7659    1.2501    0.0000 H   0  0
    6.5000    1.7500    0.0000 H   0  0
    5.6340    1.2501    0.0000 H   0  0
    7.7999   -1.0000    0.0000 H   0  0
    6.9340   -0.5001    0.0000 H   0  0
    9.0999    1.7500    0.0000 H   0  0
    8.2340    1.2501    0.0000 H   0  0
   11.2661    0.4997    0.0000 H   0  0
   10.3999   -1.0000    0.0000 H   0  0
   11.2659   -0.5001    0.0000 H   0  0
  1  3  1  0
  2  4  1  0
  2  5  1  0
  3  4  1  0
  5  6  1  0
  6  7  1  0
  7  8  1  0
  1  9  1  0
  3 10  1  0
  3 11  1  0
  4 12  1  0
  4 13  1  0
  5 14  1  0
  5 15  1  0
  6 16  1  0
  6 17  1  0
  7 18  1  0
  7 19  1  0
  8 20  1  0
  8 21  1  0
  8 22  1  0
V    1 0
V    2 1
V    3 2
V    4 3
V    5 4
V    6 5
V    7 6
V    8 7
M  END
> <DSSTox_RID>
62288

> <DSSTox_CID>
4097

> <DSSTox_CID_Parent>
4097

> <DSSTox_Generic_SID>
24097

> <DSSTox_FileID>
399_TXCST2_v1a

> <STRUCTURE_Formula>
C6H14O2

> <STRUCTURE_MolecularWeight>
118.1742

> <STRUCTURE_ChemicalType>
defined organic

> <STRUCTURE_TestedForm_DefinedOrganic>
parent

> <STRUCTURE_Shown>
tested chemical

> <TestSubstance_ChemicalName>
2-Butoxyethanol

> <TestSubstance_CASRN>
111-76-2

> <TestSubstance_Description>
single chemical compound

> <Source_ChemicalNote>
tested chemical contained 0.003% water

> <STRUCTURE_ChemicalName_IUPAC>
2-butoxyethanol

> <STRUCTURE_SMILES>
CCCCOCCO

> <STRUCTURE_Parent_SMILES>
CCCCOCCO

> <STRUCTURE_InChIS>
InChI=1S/C6H14O2/c1-2-3-5-8-6-4-7/h7H,2-6H2,1H3

> <STRUCTURE_InChIKey>
POAOYUHQDCAZBD-UHFFFAOYSA-N

> <Substance_modify_yyyymmdd>
20080429

> <Coord_Metals>
0

> <Index>
399

> <Canonical_Smiles>
CCCCOCCO

> <Molecular_Weight>
118.17416

> <Frequency>
1

$$$$

  SciTegic          2D

 41 41  0  0  0  0            999 V2000
   -1.3039    3.7494    0.0000 P   0  0
   -1.3070    5.2502    0.0000 N   0  0
   -0.0031    3.0008    0.0000 O   0  0
   -2.3421    3.1476    0.0000 O   0  0
    1.2990   -0.7500    0.0000 C   0  0
    0.0000   -1.5000    0.0000 C   0  0
    1.2990    0.7500    0.0000 C   0  0
    0.0000    1.5000    0.0000 C   0  0
    0.0211    4.5142    0.0000 O   0  0
   -1.2990   -0.7500    0.0000 C   0  0
   -0.0031   -3.0008    0.0000 S   0  0
   -1.2990    0.7500    0.0000 C   0  0
   -2.6078    5.9988    0.0000 C   0  0
    2.5988   -1.5004    0.0000 C   0  0
   -1.3039   -3.7494    0.0000 C   0  0
    1.3213    3.7644    0.0000 C   0  0
   -2.6109    7.4996    0.0000 C   0  0
   -3.9062    5.2461    0.0000 C   0  0
    2.6211    4.5146    0.0000 C   0  0
   -0.4419    5.7517    0.0000 H   0  0
    2.1651    1.2500    0.0000 H   0  0
   -2.1651   -1.2500    0.0000 H   0  0
   -2.1651    1.2500    0.0000 H   0  0
   -1.7427    6.5003    0.0000 H   0  0
    3.4651   -1.0010    0.0000 H   0  0
    2.5985   -2.5004    0.0000 H   0  0
    3.4646   -2.0008    0.0000 H   0  0
   -1.3060   -4.7494    0.0000 H   0  0
   -2.1691   -3.2479    0.0000 H   0  0
   -2.1709   -4.2478    0.0000 H   0  0
    1.3214    2.7644    0.0000 H   0  0
    0.4554    3.2641    0.0000 H   0  0
   -3.4777    7.9983    0.0000 H   0  0
   -1.7458    8.0011    0.0000 H   0  0
   -2.6125    8.4996    0.0000 H   0  0
   -3.9051    4.2461    0.0000 H   0  0
   -4.7730    5.7449    0.0000 H   0  0
   -4.7716    4.7450    0.0000 H   0  0
    3.4874    4.0150    0.0000 H   0  0
    2.6210    5.5146    0.0000 H   0  0
    3.4870    5.0149    0.0000 H   0  0
  1  2  1  0
  1  3  1  0
  1  4  2  0
  1  9  1  0
  2 13  1  0
  3  8  1  0
  5  7  2  0
  5 14  1  0
  5  6  1  0
  6 10  2  0
  6 11  1  0
  7  8  1  0
  8 12  2  0
  9 16  1  0
 10 12  1  0
 11 15  1  0
 13 17  1  0
 13 18  1  0
 16 19  1  0
  2 20  1  0
  7 21  1  0
 10 22  1  0
 12 23  1  0
 13 24  1  0
 14 25  1  0
 14 26  1  0
 14 27  1  0
 15 28  1  0
 15 29  1  0
 15 30  1  0
 16 31  1  0
 16 32  1  0
 17 33  1  0
 17 34  1  0
 17 35  1  0
 18 36  1  0
 18 37  1  0
 18 38  1  0
 19 39  1  0
 19 40  1  0
 19 41  1  0
V    1 0
V    2 1
V    3 2
V    4 3
V    5 4
V    6 5
V    7 6
V    8 7
V    9 8
V   10 9
V   11 10
V   12 11
V   13 12
V   14 13
V   15 14
V   16 15
V   17 16
V   18 17
V   19 18
M  END
> <DSSTox_RID>
66522

> <DSSTox_CID>
4102

> <DSSTox_CID_Parent>
4102

> <DSSTox_Generic_SID>
24102

> <DSSTox_FileID>
400_TXCST2_v1a

> <STRUCTURE_Formula>
C13H22NO3PS

> <STRUCTURE_MolecularWeight>
303.3574

> <STRUCTURE_ChemicalType>
defined organic

> <STRUCTURE_TestedForm_DefinedOrganic>
parent

> <STRUCTURE_Shown>
tested chemical

> <TestSubstance_ChemicalName>
Fenamiphos

> <TestSubstance_CASRN>
22224-92-6

> <TestSubstance_Description>
single chemical compound

> <STRUCTURE_ChemicalName_IUPAC>
ethyl 3-methyl-4-(methylthio)phenyl isopropylamidophosphate

> <STRUCTURE_SMILES>
Cc1cc(ccc1SC)OP(=O)(NC(C)C)OCC

> <STRUCTURE_Parent_SMILES>
Cc1cc(ccc1SC)OP(=O)(NC(C)C)OCC

> <STRUCTURE_InChIS>
InChI=1S/C13H22NO3PS/c1-6-16-18(15,14-10(2)3)17-12-7-8-13(19-5)11(4)9-12/h7-10H,6H2,1-5H3,(H,14,15)

> <STRUCTURE_InChIKey>
ZCJPOPBZHLUFHF-UHFFFAOYSA-N

> <Substance_modify_yyyymmdd>
20080429

> <Coord_Metals>
0

> <Index>
400

> <Canonical_Smiles>
CCOP(=O)(NC(C)C)Oc1ccc(SC)c(C)c1

> <Molecular_Weight>
303.35744

> <Frequency>
1

$$$$

  SciTegic          2D

 26 29  0  0  0  0            999 V2000
    1.1095   -0.5221    0.0000 C   0  0
    2.5585   -0.8224    0.0000 C   0  0
    0.0000   -1.3706    0.0000 C   0  0
    3.0153   -2.2321    0.0000 C   0  0
    0.0392   -2.8718    0.0000 C   0  0
    2.0233   -3.3156    0.0000 C   0  0
    0.6527    0.8615    0.0000 C   0  0
    1.6578    1.9841    0.0000 C   0  0
    3.5636    0.2480    0.0000 C   0  0
    3.0937    1.6447    0.0000 C   0  0
   -0.7832    0.8615    0.0000 C   0  0
   -1.2531   -0.4569    0.0000 C   0  0
   -1.7753    1.9841    0.0000 C   0  0
   -3.2372    1.6839    0.0000 C   0  0
   -2.6890   -0.7702    0.0000 C   0  0
   -3.6811    0.3133    0.0000 C   0  0
    3.9925   -2.4445    0.0000 H   0  0
   -0.7331   -3.5071    0.0000 H   0  0
    2.3233   -4.2695    0.0000 H   0  0
    1.3582    2.9382    0.0000 H   0  0
    4.5406    0.0350    0.0000 H   0  0
    3.7673    2.3838    0.0000 H   0  0
   -1.4586    2.9326    0.0000 H   0  0
   -3.9042    2.4290    0.0000 H   0  0
   -2.9915   -1.7233    0.0000 H   0  0
   -4.6582    0.1008    0.0000 H   0  0
  1  3  2  0
  1  2  1  0
  1  7  1  0
  2  4  2  0
  2  9  1  0
  3  5  1  0
  3 12  1  0
  4  6  1  0
  5  6  2  0
  7  8  2  0
  7 11  1  0
  8 10  1  0
  9 10  2  0
 11 13  1  0
 11 12  2  0
 12 15  1  0
 13 14  2  0
 14 16  1  0
 15 16  2  0
  4 17  1  0
  5 18  1  0
  6 19  1  0
  8 20  1  0
  9 21  1  0
 10 22  1  0
 13 23  1  0
 14 24  1  0
 15 25  1  0
 16 26  1  0
V    1 0
V    2 1
V    3 2
V    4 3
V    5 4
V    6 5
V    7 6
V    8 7
V    9 8
V   10 9
V   11 10
V   12 11
V   13 12
V   14 13
V   15 14
V   16 15
M  END
> <DSSTox_RID>
66769

> <DSSTox_CID>
4104

> <DSSTox_CID_Parent>
4104

> <DSSTox_Generic_SID>
24104

> <DSSTox_FileID>
401_TXCST2_v1a

> <STRUCTURE_Formula>
C16H10

> <STRUCTURE_MolecularWeight>
202.2506

> <STRUCTURE_ChemicalType>
defined organic

> <STRUCTURE_TestedForm_DefinedOrganic>
parent

> <STRUCTURE_Shown>
tested chemical

> <TestSubstance_ChemicalName>
Fluoranthene

> <TestSubstance_CASRN>
206-44-0

> <TestSubstance_Description>
single chemical compound

> <STRUCTURE_ChemicalName_IUPAC>
fluoranthene

> <STRUCTURE_SMILES>
c1cccc4c1c2cccc3cccc4c23

> <STRUCTURE_Parent_SMILES>
c1cccc4c1c2cccc3cccc4c23

> <STRUCTURE_InChIS>
InChI=1S/C16H10/c1-2-8-13-12(7-1)14-9-3-5-11-6-4-10-15(13)16(11)14/h1-10H

> <STRUCTURE_InChIKey>
GVEPBJHOBDJJJI-UHFFFAOYSA-N

> <Substance_modify_yyyymmdd>
20080429

> <Coord_Metals>
0

> <Index>
401

> <Canonical_Smiles>
c1ccc2c(c1)c3cccc4cccc2c34

> <Molecular_Weight>
202.25059

> <Frequency>
1

$$$$

  SciTegic          2D

 23 25  0  0  0  0            999 V2000
    1.2274    0.8244    0.0000 C   0  0
   -1.2274    0.8244    0.0000 C   0  0
   -1.2274   -0.6045    0.0000 C   0  0
    1.2274   -0.6045    0.0000 C   0  0
    0.0000   -1.3190    0.0000 C   0  0
    2.4732    1.5389    0.0000 C   0  0
   -2.4915    1.5389    0.0000 C   0  0
    2.4732   -1.3190    0.0000 C   0  0
   -2.4915   -1.3190    0.0000 C   0  0
   -3.7006    0.8244    0.0000 C   0  0
    3.7372    0.8244    0.0000 C   0  0
   -3.7006   -0.6045    0.0000 C   0  0
    3.7372   -0.6045    0.0000 C   0  0
    0.8774   -1.7987    0.0000 H   0  0
   -0.8774   -1.7988    0.0000 H   0  0
    2.4700    2.5388    0.0000 H   0  0
   -2.5011    2.5388    0.0000 H   0  0
    2.4700   -2.3190    0.0000 H   0  0
   -2.5011   -2.3190    0.0000 H   0  0
   -4.5691    1.3200    0.0000 H   0  0
    4.6009    1.3283    0.0000 H   0  0
   -4.5691   -1.1002    0.0000 H   0  0
    4.6009   -1.1085    0.0000 H   0  0
  1  2  1  0
  1  4  2  0
  1  6  1  0
  2  3  2  0
  2  7  1  0
  3  9  1  0
  3  5  1  0
  4  5  1  0
  4  8  1  0
  6 11  2  0
  7 10  2  0
  8 13  2  0
  9 12  2  0
 10 12  1  0
 11 13  1  0
  5 14  1  0
  5 15  1  0
  6 16  1  0
  7 17  1  0
  8 18  1  0
  9 19  1  0
 10 20  1  0
 11 21  1  0
 12 22  1  0
 13 23  1  0
V    1 0
V    2 1
V    3 2
V    4 3
V    5 4
V    6 5
V    7 6
V    8 7
V    9 8
V   10 9
V   11 10
V   12 11
V   13 12
M  END
> <DSSTox_RID>
60957

> <DSSTox_CID>
4105

> <DSSTox_CID_Parent>
4105

> <DSSTox_Generic_SID>
24105

> <DSSTox_FileID>
402_TXCST2_v1a

> <STRUCTURE_Formula>
C13H10

> <STRUCTURE_MolecularWeight>
166.2185

> <STRUCTURE_ChemicalType>
defined organic

> <STRUCTURE_TestedForm_DefinedOrganic>
parent

> <STRUCTURE_Shown>
tested chemical

> <TestSubstance_ChemicalName>
Diphenylenemethane

> <TestSubstance_CASRN>
86-73-7

> <TestSubstance_Description>
single chemical compound

> <STRUCTURE_ChemicalName_IUPAC>
9H-fluorene

> <STRUCTURE_SMILES>
c1cccc2Cc3ccccc3c12

> <STRUCTURE_Parent_SMILES>
c1cccc2Cc3ccccc3c12

> <STRUCTURE_InChIS>
InChI=1S/C13H10/c1-3-7-12-10(5-1)9-11-6-2-4-8-13(11)12/h1-8H,9H2

> <STRUCTURE_InChIKey>
NIHNNTQXNPWCJQ-UHFFFAOYSA-N

> <Substance_modify_yyyymmdd>
20080429

> <Coord_Metals>
0

> <Index>
402

> <Canonical_Smiles>
C1c2ccccc2c3ccccc13

> <Molecular_Weight>
166.21849

> <Frequency>
1

$$$$

  SciTegic          2D

 38 40  0  0  0  0            999 V2000
    1.2990   -0.7500    0.0000 N   0  0
    1.2990    0.7500    0.0000 C   0  0
    0.0000   -1.5000    0.0000 C   0  0
   -1.2990   -0.7500    0.0000 C   0  0
    0.0000    1.5000    0.0000 C   0  0
   -1.2990    0.7500    0.0000 C   0  0
   -2.3383    1.3500    0.0000 O   0  0
    2.5988   -1.5004    0.0000 C   0  0
   -2.5987   -1.5004    0.0000 C   0  0
   -3.8991   -0.7525    0.0000 C   0  0
   -2.5964   -3.0004    0.0000 C   0  0
   -5.1969   -1.5046    0.0000 C   0  0
   -3.8943   -3.7525    0.0000 C   0  0
   -5.1945   -3.0046    0.0000 C   0  0
    0.0000    3.0008    0.0000 C   0  0
    1.2978    3.7529    0.0000 C   0  0
   -1.3002    3.7488    0.0000 C   0  0
    1.2954    5.2529    0.0000 C   0  0
   -1.3026    5.2488    0.0000 C   0  0
   -0.0048    6.0009    0.0000 C   0  0
    2.5940    6.0054    0.0000 C   0  0
    3.6346    5.4077    0.0000 F   0  0
    2.5917    7.2054    0.0000 F   0  0
    3.6320    6.6076    0.0000 F   0  0
    2.1651    1.2500    0.0000 H   0  0
    0.0000   -2.5000    0.0000 H   0  0
    3.4651   -1.0010    0.0000 H   0  0
    2.5985   -2.5004    0.0000 H   0  0
    3.4646   -2.0008    0.0000 H   0  0
   -3.9007    0.2475    0.0000 H   0  0
   -1.7296   -3.4991    0.0000 H   0  0
   -6.0637   -1.0060    0.0000 H   0  0
   -3.8927   -4.7525    0.0000 H   0  0
   -6.0597   -3.5059    0.0000 H   0  0
    2.1647    3.2543    0.0000 H   0  0
   -2.1655    3.2474    0.0000 H   0  0
   -2.1695    5.7474    0.0000 H   0  0
   -0.0064    7.0009    0.0000 H   0  0
  1  2  1  0
  1  3  1  0
  1  8  1  0
  2  5  2  0
  3  4  2  0
  4  6  1  0
  4  9  1  0
  5  6  1  0
  5 15  1  0
  6  7  2  0
  9 10  2  0
  9 11  1  0
 10 12  1  0
 11 13  2  0
 12 14  2  0
 13 14  1  0
 15 16  2  0
 15 17  1  0
 16 18  1  0
 17 19  2  0
 18 20  2  0
 18 21  1  0
 19 20  1  0
 21 22  1  0
 21 23  1  0
 21 24  1  0
  2 25  1  0
  3 26  1  0
  8 27  1  0
  8 28  1  0
  8 29  1  0
 10 30  1  0
 11 31  1  0
 12 32  1  0
 13 33  1  0
 14 34  1  0
 16 35  1  0
 17 36  1  0
 19 37  1  0
 20 38  1  0
V    1 0
V    2 1
V    3 2
V    4 3
V    5 4
V    6 5
V    7 6
V    8 7
V    9 8
V   10 9
V   11 10
V   12 11
V   13 12
V   14 13
V   15 14
V   16 15
V   17 16
V   18 17
V   19 18
V   20 19
V   21 20
V   22 21
V   23 22
V   24 23
M  END
> <DSSTox_RID>
65353

> <DSSTox_CID>
4107

> <DSSTox_CID_Parent>
4107

> <DSSTox_Generic_SID>
24107

> <DSSTox_FileID>
403_TXCST2_v1a

> <STRUCTURE_Formula>
C19H14F3NO

> <STRUCTURE_MolecularWeight>
329.3158

> <STRUCTURE_ChemicalType>
defined organic

> <STRUCTURE_TestedForm_DefinedOrganic>
parent

> <STRUCTURE_Shown>
tested chemical

> <TestSubstance_ChemicalName>
Fluridone

> <TestSubstance_CASRN>
59756-60-4

> <TestSubstance_Description>
single chemical compound

> <STRUCTURE_ChemicalName_IUPAC>
1-methyl-3-phenyl-5-[3-(trifluoromethyl)phenyl]pyridin-4(1H)-one

> <STRUCTURE_SMILES>
CN/1/C=C(\C(=O)C(=C\1)\c2cc(ccc2)C(F)(F)F)c3ccccc3

> <STRUCTURE_Parent_SMILES>
CN/1/C=C(\C(=O)C(=C\1)\c2cc(ccc2)C(F)(F)F)c3ccccc3

> <STRUCTURE_InChIS>
InChI=1S/C19H14F3NO/c1-23-11-16(13-6-3-2-4-7-13)18(24)17(12-23)14-8-5-9-15(10-14)19(20,21)22/h2-12H,1H3

> <STRUCTURE_InChIKey>
YWBVHLJPRPCRSD-UHFFFAOYSA-N

> <Substance_modify_yyyymmdd>
20080429

> <Coord_Metals>
0

> <Index>
403

> <Canonical_Smiles>
CN1C=C(C(=O)C(=C1)c2cccc(c2)C(F)(F)F)c3ccccc3

> <Molecular_Weight>
329.31576

> <Frequency>
1

$$$$

  SciTegic          2D

 39 40  0  0  0  0            999 V2000
    1.2990   -0.7500    0.0000 C   0  0
    1.2990    0.7500    0.0000 C   0  0
    2.5973   -1.5031    0.0000 C   0  0
    0.0000   -1.5000    0.0000 C   0  0
    0.0000    1.5000    0.0000 C   0  0
    2.5988    1.5004    0.0000 C   0  0
    2.5951   -3.0039    0.0000 N   0  0
    3.6375   -0.9049    0.0000 O   0  0
   -1.2990   -0.7500    0.0000 C   0  0
   -1.2990    0.7500    0.0000 C   0  0
    3.6384    0.9011    0.0000 F   0  0
    2.5984    2.7004    0.0000 F   0  0
    3.6377    2.1009    0.0000 F   0  0
    3.8933   -3.7570    0.0000 C   0  0
    3.8934   -5.2570    0.0000 C   0  0
    5.1925   -3.0070    0.0000 C   0  0
    5.1924   -6.0070    0.0000 C   0  0
    6.4915   -3.7571    0.0000 C   0  0
    6.4915   -5.2571    0.0000 C   0  0
    5.1955   -7.5079    0.0000 O   0  0
    6.4963   -8.2565    0.0000 C   0  0
    6.4993   -9.7573    0.0000 C   0  0
    7.7947   -7.5039    0.0000 C   0  0
    0.0000   -2.5000    0.0000 H   0  0
    0.0000    2.5000    0.0000 H   0  0
    1.7282   -3.5024    0.0000 H   0  0
   -2.1651   -1.2500    0.0000 H   0  0
   -2.1651    1.2500    0.0000 H   0  0
    3.0274   -5.7570    0.0000 H   0  0
    5.1925   -2.0070    0.0000 H   0  0
    7.3575   -3.2571    0.0000 H   0  0
    7.3575   -5.7571    0.0000 H   0  0
    5.6311   -8.7580    0.0000 H   0  0
    7.3661  -10.2561    0.0000 H   0  0
    5.6342  -10.2588    0.0000 H   0  0
    6.5009  -10.7573    0.0000 H   0  0
    7.7936   -6.5039    0.0000 H   0  0
    8.6614   -8.0026    0.0000 H   0  0
    8.6601   -7.0028    0.0000 H   0  0
  1  2  2  0
  1  3  1  0
  1  4  1  0
  2  5  1  0
  2  6  1  0
  3  7  1  0
  3  8  2  0
  4  9  2  0
  5 10  2  0
  6 11  1  0
  6 12  1  0
  6 13  1  0
  7 14  1  0
  9 10  1  0
 14 15  2  0
 14 16  1  0
 15 17  1  0
 16 18  2  0
 17 19  2  0
 17 20  1  0
 18 19  1  0
 20 21  1  0
 21 22  1  0
 21 23  1  0
  4 24  1  0
  5 25  1  0
  7 26  1  0
  9 27  1  0
 10 28  1  0
 15 29  1  0
 16 30  1  0
 18 31  1  0
 19 32  1  0
 21 33  1  0
 22 34  1  0
 22 35  1  0
 22 36  1  0
 23 37  1  0
 23 38  1  0
 23 39  1  0
V    1 0
V    2 1
V    3 2
V    4 3
V    5 4
V    6 5
V    7 6
V    8 7
V    9 8
V   10 9
V   11 10
V   12 11
V   13 12
V   14 13
V   15 14
V   16 15
V   17 16
V   18 17
V   19 18
V   20 19
V   21 20
V   22 21
V   23 22
M  END
> <DSSTox_RID>
60969

> <DSSTox_CID>
4109

> <DSSTox_CID_Parent>
4109

> <DSSTox_Generic_SID>
24109

> <DSSTox_FileID>
404_TXCST2_v1a

> <STRUCTURE_Formula>
C17H16F3NO2

> <STRUCTURE_MolecularWeight>
323.3096

> <STRUCTURE_ChemicalType>
defined organic

> <STRUCTURE_TestedForm_DefinedOrganic>
parent

> <STRUCTURE_Shown>
tested chemical

> <TestSubstance_ChemicalName>
Flutolanil

> <TestSubstance_CASRN>
66332-96-5

> <TestSubstance_Description>
single chemical compound

> <STRUCTURE_ChemicalName_IUPAC>
N-(3-isopropoxyphenyl)-2-(trifluoromethyl)benzamide

> <STRUCTURE_SMILES>
CC(C)Oc1cccc(c1)NC(=O)c2ccccc2C(F)(F)F

> <STRUCTURE_Parent_SMILES>
CC(C)Oc1cccc(c1)NC(=O)c2ccccc2C(F)(F)F

> <STRUCTURE_InChIS>
InChI=1S/C17H16F3NO2/c1-11(2)23-13-7-5-6-12(10-13)21-16(22)14-8-3-4-9-15(14)17(18,19)20/h3-11H,1-2H3,(H,21,22)

> <STRUCTURE_InChIKey>
PTCGDEVVHUXTMP-UHFFFAOYSA-N

> <Substance_modify_yyyymmdd>
20080429

> <Coord_Metals>
0

> <Index>
404

> <Canonical_Smiles>
CC(C)Oc1cccc(NC(=O)c2ccccc2C(F)(F)F)c1

> <Molecular_Weight>
323.30964

> <Frequency>
1

$$$$

  SciTegic          2D

 38 39  0  0  0  0            999 V2000
    2.5955    2.7031    0.0000 O   0  0
    3.6375    0.9049    0.0000 O   0  0
   -7.7891    1.5184    0.0000 C   0  0
   -8.8308    0.9227    0.0000 F   0  0
   -7.7846    2.7184    0.0000 F   0  0
   -8.8260    2.1225    0.0000 F   0  0
    3.8912   -5.2578    0.0000 C   0  0
    4.9336   -3.1588    0.0000 O   0  0
    3.8933   -3.7570    0.0000 S   0  0
    3.6375   -0.9049    0.0000 O   0  0
    2.5951   -3.0039    0.0000 N   0  0
    2.5972    1.5031    0.0000 N   0  0
    2.5973   -1.5031    0.0000 C   0  0
   -5.2049   -2.6909    0.0000 Cl  0  0
   -2.6003   -1.4978    0.0000 O   0  0
    1.2990   -0.7500    0.0000 C   0  0
    1.2990    0.7500    0.0000 C   0  0
    0.0000   -1.5000    0.0000 C   0  0
    0.0000    1.5000    0.0000 C   0  0
   -1.2990   -0.7500    0.0000 C   0  0
   -1.2990    0.7500    0.0000 C   0  0
   -3.8990   -0.7455    0.0000 C   0  0
   -5.2007   -1.4909    0.0000 C   0  0
   -3.8939    0.7546    0.0000 C   0  0
   -6.4972   -0.7365    0.0000 C   0  0
   -5.1903    1.5090    0.0000 C   0  0
   -6.4920    0.7635    0.0000 C   0  0
    3.8956   -2.5570    0.0000 O   0  0
    4.7562   -5.7596    0.0000 H   0  0
    3.8893   -6.2578    0.0000 H   0  0
    3.0243   -5.7563    0.0000 H   0  0
    1.7282   -3.5024    0.0000 H   0  0
    0.0000   -2.5000    0.0000 H   0  0
    0.0000    2.5000    0.0000 H   0  0
   -2.1651    1.2500    0.0000 H   0  0
   -3.0262    1.2516    0.0000 H   0  0
   -7.3649   -1.2335    0.0000 H   0  0
   -5.1869    2.5090    0.0000 H   0  0
  1 12  2  0
  2 12  2  0
  3  4  1  0
  3  5  1  0
  3  6  1  0
  3 27  1  0
  7  9  1  0
  8  9  2  0
  9 11  1  0
  9 28  2  0
 10 13  2  0
 11 13  1  0
 12 17  1  0
 13 16  1  0
 14 23  1  0
 15 20  1  0
 15 22  1  0
 16 17  2  0
 16 18  1  0
 17 19  1  0
 18 20  2  0
 19 21  2  0
 20 21  1  0
 22 23  1  0
 22 24  2  0
 23 25  2  0
 24 26  1  0
 25 27  1  0
 26 27  2  0
  7 29  1  0
  7 30  1  0
  7 31  1  0
 11 32  1  0
 18 33  1  0
 19 34  1  0
 21 35  1  0
 24 36  1  0
 25 37  1  0
 26 38  1  0
V    1 0
V    2 1
V    3 2
V    4 3
V    5 4
V    6 5
V    7 6
V    8 7
V    9 8
V   10 9
V   11 10
V   12 11
V   13 12
V   14 13
V   15 14
V   16 15
V   17 16
V   18 17
V   19 18
V   20 19
V   21 20
V   22 21
V   23 22
V   24 23
V   25 24
V   26 25
V   27 26
V   28 27
M  END
> <DSSTox_RID>
66965

> <DSSTox_CID>
4112

> <DSSTox_CID_Parent>
4112

> <DSSTox_Generic_SID>
24112

> <DSSTox_FileID>
405_TXCST2_v1a

> <STRUCTURE_Formula>
C15H10ClF3N2O6S

> <STRUCTURE_MolecularWeight>
438.7629

> <STRUCTURE_ChemicalType>
defined organic

> <STRUCTURE_TestedForm_DefinedOrganic>
parent

> <STRUCTURE_Shown>
tested chemical

> <TestSubstance_ChemicalName>
Fomesafen

> <TestSubstance_CASRN>
72178-02-0

> <TestSubstance_Description>
single chemical compound

> <STRUCTURE_ChemicalName_IUPAC>
5-[2-chloro-4-(trifluoromethyl)phenoxy]-N-(methylsulfonyl)-2-nitrobenzamide

> <STRUCTURE_SMILES>
Clc2cc(ccc2Oc1cc(C(=O)NS(C)(=O)=O)c(cc1)[N+]([O-])=O)C(F)(F)F

> <STRUCTURE_Parent_SMILES>
Clc2cc(ccc2Oc1cc(C(=O)NS(C)(=O)=O)c(cc1)[N+]([O-])=O)C(F)(F)F

> <STRUCTURE_InChIS>
InChI=1S/C15H10ClF3N2O6S/c1-28(25,26)20-14(22)10-7-9(3-4-12(10)21(23)24)27-13-5-2-8(6-11(13)16)15(17,18)19/h2-7H,1H3,(H,20,22)

> <STRUCTURE_InChIKey>
BGZZWXTVIYUUEY-UHFFFAOYSA-N

> <Substance_modify_yyyymmdd>
20080429

> <Coord_Metals>
0

> <Index>
405

> <Canonical_Smiles>
CS(=O)(=O)NC(=O)c1cc(Oc2ccc(cc2Cl)C(F)(F)F)ccc1N(=O)=O

> <Molecular_Weight>
438.7629

> <Frequency>
1

$$$$

  SciTegic          2D

 23 26  0  0  0  0            999 V2000
   -2.4000   -1.0600    0.0000 C   0  0
   -0.9200   -0.1200    0.0000 C   0  0
   -0.7700    1.0600    0.0000 C   0  0
    0.7300    0.3100    0.0000 C   0  0
    0.7300   -0.9100    0.0000 C   0  0
   -2.1800    0.2800    0.0000 C   0  0
    1.9600    0.5600    0.0000 C   0  0
    2.6400   -0.4500    0.0000 C   0  0
    1.7200   -1.3100    0.0000 C   0  0
   -1.4200    2.4500    0.0000 C   0  0
   -3.0615   -2.0612    0.0000 Cl  0  0
   -3.1607    0.9715    0.0000 Cl  0  0
    0.2565    1.6815    0.0000 Cl  0  0
   -0.8485   -1.3179    0.0000 Cl  0  0
   -0.6389    3.3610    0.0000 Cl  0  0
   -2.5876    2.7269    0.0000 Cl  0  0
    2.8591   -1.6873    0.0000 Cl  0  0
    3.1500    0.7600    0.0000 O   0  0
    0.8612    1.3014    0.0000 H   0  0
    1.1334    0.0050    0.0000 H   0  0
    2.7202    1.2096    0.0000 H   0  0
    3.5455   -0.0257    0.0000 H   0  0
    0.9473   -1.9448    0.0000 H   0  0
  1  2  1  0
  1  6  2  0
  1 11  1  0
  2  5  1  0
  2 10  1  0
  2 14  1  0
  3  4  1  0
  3  6  1  0
  3 10  1  0
  3 13  1  0
  4  5  1  0
  4  7  1  0
  5  9  1  0
  6 12  1  0
  7  8  1  0
  7 18  1  0
  8  9  1  0
  8 18  1  0
  9 17  1  0
 10 15  1  0
 10 16  1  0
  4 19  1  0
  5 20  1  0
  7 21  1  0
  8 22  1  0
  9 23  1  0
V    1 0
V    2 1
V    3 2
V    4 3
V    5 4
V    6 5
V    7 6
V    8 7
V    9 8
V   10 9
V   11 10
V   12 11
V   13 12
V   14 13
V   15 14
V   16 15
V   17 16
V   18 17
M  END
> <DSSTox_RID>
60002

> <DSSTox_CID>
4126

> <DSSTox_CID_Parent>
4126

> <DSSTox_Generic_SID>
24126

> <DSSTox_FileID>
406_TXCST2_v1a

> <STRUCTURE_Formula>
C10H5Cl7O

> <STRUCTURE_MolecularWeight>
389.3171

> <STRUCTURE_ChemicalType>
defined organic

> <STRUCTURE_TestedForm_DefinedOrganic>
parent

> <STRUCTURE_Shown>
tested chemical

> <TestSubstance_ChemicalName>
Heptachlor epoxide, isomer B

> <TestSubstance_CASRN>
1024-57-3

> <TestSubstance_Description>
single chemical compound

> <ChemicalNote>
stereochem

> <STRUCTURE_ChemicalName_IUPAC>
1,4,5,6,7,8,8-Heptachloro-2,3-epoxy-2,3,3a,4,7,7a-hexahydro-4,7-methanoindene

> <STRUCTURE_SMILES>
Cl\C3=C(/Cl)C4(Cl)C2C1OC1C(Cl)C2C3(Cl)C4(Cl)Cl

> <STRUCTURE_Parent_SMILES>
Cl\C3=C(/Cl)C4(Cl)C2C1OC1C(Cl)C2C3(Cl)C4(Cl)Cl

> <STRUCTURE_InChIS>
InChI=1S/C10H5Cl7O/c11-3-1-2(4-5(3)18-4)9(15)7(13)6(12)8(1,14)10(9,16)17/h1-5H

> <STRUCTURE_InChIKey>
ZXFXBSWRVIQKOD-UHFFFAOYSA-N

> <Substance_modify_yyyymmdd>
20080429

> <Coord_Metals>
0

> <Index>
406

> <Canonical_Smiles>
ClC1C2OC2C3C1C4(Cl)C(=C(Cl)C3(Cl)C4(Cl)Cl)Cl

> <Molecular_Weight>
389.3171

> <Frequency>
1

$$$$

  SciTegic          2D

 24 23  0  0  0  0            999 V2000
    0.2606    0.1503    0.0000 O   0  0
    1.3000    0.7500    0.0000 C   0  0
   12.9999    1.5000    0.0000 C   0  0
    2.6000    1.5000    0.0000 N   0  0
    3.9000    0.7500    0.0000 C   0  0
    5.2000    1.5000    0.0000 C   0  0
    6.5000    0.7500    0.0000 C   0  0
    7.7999    1.5000    0.0000 C   0  0
    9.0999    0.7500    0.0000 C   0  0
   10.3999    1.5000    0.0000 C   0  0
   11.6999    0.7500    0.0000 N   0  0
   14.0393    2.0997    0.0000 O   0  0
    3.9000   -0.2500    0.0000 H   0  0
    3.0340    0.2499    0.0000 H   0  0
    5.2000    2.5000    0.0000 H   0  0
    4.3340    2.0001    0.0000 H   0  0
    6.5000   -0.2500    0.0000 H   0  0
    5.6340    0.2499    0.0000 H   0  0
    7.7999    2.5000    0.0000 H   0  0
    6.9340    2.0001    0.0000 H   0  0
    9.0999   -0.2500    0.0000 H   0  0
    8.2340    0.2499    0.0000 H   0  0
   10.3999    2.5000    0.0000 H   0  0
   11.2659    2.0001    0.0000 H   0  0
  1  2  2  0
  2  4  2  0
  3 11  2  0
  3 12  2  0
  4  5  1  0
  5  6  1  0
  6  7  1  0
  7  8  1  0
  8  9  1  0
  9 10  1  0
 10 11  1  0
  5 13  1  0
  5 14  1  0
  6 15  1  0
  6 16  1  0
  7 17  1  0
  7 18  1  0
  8 19  1  0
  8 20  1  0
  9 21  1  0
  9 22  1  0
 10 23  1  0
 10 24  1  0
V    1 0
V    2 1
V    3 2
V    4 3
V    5 4
V    6 5
V    7 6
V    8 7
V    9 8
V   10 9
V   11 10
V   12 11
M  END
> <DSSTox_RID>
65435

> <DSSTox_CID>
4143

> <DSSTox_CID_Parent>
4143

> <DSSTox_Generic_SID>
24143

> <DSSTox_FileID>
407_TXCST2_v1a

> <STRUCTURE_Formula>
C8H12N2O2

> <STRUCTURE_MolecularWeight>
168.1931

> <STRUCTURE_ChemicalType>
defined organic

> <STRUCTURE_TestedForm_DefinedOrganic>
parent

> <STRUCTURE_Shown>
tested chemical

> <TestSubstance_ChemicalName>
1,6-Diisocyanatohexane

> <TestSubstance_CASRN>
822-06-0

> <TestSubstance_Description>
single chemical compound

> <STRUCTURE_ChemicalName_IUPAC>
1,6-diisocyanatohexane

> <STRUCTURE_SMILES>
O=C=N/CCCCCC\N=C=O

> <STRUCTURE_Parent_SMILES>
O=C=N/CCCCCC\N=C=O

> <STRUCTURE_InChIS>
InChI=1S/C8H12N2O2/c11-7-9-5-3-1-2-4-6-10-8-12/h1-6H2

> <STRUCTURE_InChIKey>
RRAMGCGOFNQTLD-UHFFFAOYSA-N

> <Substance_modify_yyyymmdd>
20080429

> <Coord_Metals>
0

> <Index>
407

> <Canonical_Smiles>
O=C=NCCCCCCN=C=O

> <Molecular_Weight>
168.19307

> <Frequency>
1

$$$$

  SciTegic          2D

 38 39  0  0  0  0            999 V2000
    1.2990   -0.7500    0.0000 N   0  0
   -1.2990    0.7500    0.0000 C   0  0
    0.0000    1.5000    0.0000 N   0  0
    1.2990    0.7500    0.0000 C   0  0
   -1.2990   -0.7500    0.0000 N   0  0
    0.0000   -1.5000    0.0000 C   0  0
    2.6003    1.4978    0.0000 N   0  0
   -2.3383    1.3500    0.0000 O   0  0
    0.0000   -2.7000    0.0000 O   0  0
   -2.2636   -1.8998    0.0000 C   0  0
    0.0000    3.0008    0.0000 C   0  0
    3.8990    0.7455    0.0000 C   0  0
    2.5998    2.9986    0.0000 C   0  0
   -2.7373   -0.4980    0.0000 C   0  0
   -3.1856   -3.0571    0.0000 C   0  0
   -4.2148   -0.2392    0.0000 C   0  0
   -4.6631   -2.7983    0.0000 C   0  0
   -5.1777   -1.3893    0.0000 C   0  0
   -1.9196   -2.8388    0.0000 H   0  0
   -0.8657    3.5014    0.0000 H   0  0
    0.8662    3.5006    0.0000 H   0  0
    0.0005    4.0008    0.0000 H   0  0
    4.7661    1.2437    0.0000 H   0  0
    4.7641    0.2439    0.0000 H   0  0
    3.8973   -0.2545    0.0000 H   0  0
    1.7340    3.4989    0.0000 H   0  0
    2.6000    3.9986    0.0000 H   0  0
    3.4659    3.4986    0.0000 H   0  0
   -1.7589   -0.7047    0.0000 H   0  0
   -3.0900    0.4377    0.0000 H   0  0
   -3.5611   -2.1303    0.0000 H   0  0
   -3.8354   -3.8172    0.0000 H   0  0
   -3.5550    0.5122    0.0000 H   0  0
   -5.2036   -0.0898    0.0000 H   0  0
   -5.6438   -2.6025    0.0000 H   0  0
   -4.2981   -3.7293    0.0000 H   0  0
   -5.4985   -0.4422    0.0000 H   0  0
   -5.8015   -2.1710    0.0000 H   0  0
  1  4  2  0
  1  6  1  0
  2  5  1  0
  2  8  2  0
  2  3  1  0
  3  4  1  0
  3 11  1  0
  4  7  1  0
  5  6  1  0
  5 10  1  0
  6  9  2  0
  7 12  1  0
  7 13  1  0
 10 14  1  0
 10 15  1  0
 14 16  1  0
 15 17  1  0
 16 18  1  0
 17 18  1  0
 10 19  1  0
 11 20  1  0
 11 21  1  0
 11 22  1  0
 12 23  1  0
 12 24  1  0
 12 25  1  0
 13 26  1  0
 13 27  1  0
 13 28  1  0
 14 29  1  0
 14 30  1  0
 15 31  1  0
 15 32  1  0
 16 33  1  0
 16 34  1  0
 17 35  1  0
 17 36  1  0
 18 37  1  0
 18 38  1  0
V    1 0
V    2 1
V    3 2
V    4 3
V    5 4
V    6 5
V    7 6
V    8 7
V    9 8
V   10 9
V   11 10
V   12 11
V   13 12
V   14 13
V   15 14
V   16 15
V   17 16
V   18 17
M  END
> <DSSTox_RID>
62319

> <DSSTox_CID>
4145

> <DSSTox_CID_Parent>
4145

> <DSSTox_Generic_SID>
24145

> <DSSTox_FileID>
408_TXCST2_v1a

> <STRUCTURE_Formula>
C12H20N4O2

> <STRUCTURE_MolecularWeight>
252.3128

> <STRUCTURE_ChemicalType>
defined organic

> <STRUCTURE_TestedForm_DefinedOrganic>
parent

> <STRUCTURE_Shown>
tested chemical

> <TestSubstance_ChemicalName>
Hexazinone

> <TestSubstance_CASRN>
51235-04-2

> <TestSubstance_Description>
single chemical compound

> <Source_ChemicalNote>
tested chemical contained 0.07% water (0.01 moles H2O)

> <STRUCTURE_ChemicalName_IUPAC>
3-cyclohexyl-6-(dimethylamino)-1-methyl-1,3,5-triazine-2,4(1H,3H)-dione

> <STRUCTURE_SMILES>
O=C2/N=C(\N(C)C(=O)N2C1CCCCC1)N(C)C

> <STRUCTURE_Parent_SMILES>
O=C2/N=C(\N(C)C(=O)N2C1CCCCC1)N(C)C

> <STRUCTURE_InChIS>
InChI=1S/C12H20N4O2/c1-14(2)10-13-11(17)16(12(18)15(10)3)9-7-5-4-6-8-9/h9H,4-8H2,1-3H3

> <STRUCTURE_InChIKey>
CAWXEEYDBZRFPE-UHFFFAOYSA-N

> <Substance_modify_yyyymmdd>
20080429

> <Coord_Metals>
0

> <Index>
408

> <Canonical_Smiles>
CN(C)C1=NC(=O)N(C2CCCCC2)C(=O)N1C

> <Molecular_Weight>
252.31279

> <Frequency>
1

$$$$

  SciTegic          2D

 33 34  0  0  0  0            999 V2000
    1.2990   -0.7500    0.0000 C   0  0
    1.2990    0.7500    0.0000 C   0  0
    5.1988   -1.5011    0.0000 N   0  0
    6.8039   -3.2937    0.0000 N   0  0
    2.5989   -1.5004    0.0000 C   0  0
    5.3367   -2.9819    0.0000 C   0  0
    0.0000    1.5000    0.0000 C   0  0
    0.0000   -1.5000    0.0000 C   0  0
    3.8990   -0.7507    0.0000 C   0  0
    7.5538   -1.9946    0.0000 C   0  0
    6.5501   -0.8799    0.0000 C   0  0
   -1.2990    0.7500    0.0000 C   0  0
    1.2909   -5.2503    0.0000 C   0  0
    2.3383    1.3500    0.0000 Cl  0  0
   -0.0101   -5.9986    0.0000 C   0  0
   -1.2990   -0.7500    0.0000 C   0  0
    2.5954   -3.0013    0.0000 O   0  0
   -2.3383    1.3500    0.0000 Cl  0  0
    1.2944   -3.7495    0.0000 C   0  0
    1.7323   -1.9994    0.0000 H   0  0
    4.5896   -3.6466    0.0000 H   0  0
    0.0000    2.5000    0.0000 H   0  0
    0.0000   -2.5000    0.0000 H   0  0
    3.8993    0.2493    0.0000 H   0  0
    4.7651   -0.2508    0.0000 H   0  0
    8.5484   -1.8900    0.0000 H   0  0
    6.7521    0.0995    0.0000 H   0  0
    2.1560   -5.7520    0.0000 H   0  0
   -0.0124   -6.9986    0.0000 H   0  0
   -0.8751   -5.4968    0.0000 H   0  0
   -2.1651   -1.2500    0.0000 H   0  0
    0.4294   -3.2478    0.0000 H   0  0
    1.2962   -2.7495    0.0000 H   0  0
  1  2  2  0
  1  5  1  0
  1  8  1  0
  2  7  1  0
  2 14  1  0
  3  9  1  0
  3  6  1  0
  3 11  1  0
  4  6  2  0
  4 10  1  0
  5  9  1  0
  5 17  1  0
  7 12  2  0
  8 16  2  0
 10 11  2  0
 12 16  1  0
 12 18  1  0
 13 19  1  0
 13 15  2  0
 17 19  1  0
  5 20  1  0
  6 21  1  0
  7 22  1  0
  8 23  1  0
  9 24  1  0
  9 25  1  0
 10 26  1  0
 11 27  1  0
 13 28  1  0
 15 29  1  0
 15 30  1  0
 16 31  1  0
 19 32  1  0
 19 33  1  0
V    1 0
V    2 1
V    3 2
V    4 3
V    5 4
V    6 5
V    7 6
V    8 7
V    9 8
V   10 9
V   11 10
V   12 11
V   13 12
V   14 13
V   15 14
V   16 15
V   17 16
V   18 17
V   19 18
M  END
> <DSSTox_RID>
62335

> <DSSTox_CID>
4151

> <DSSTox_CID_Parent>
4151

> <DSSTox_Generic_SID>
24151

> <DSSTox_FileID>
409_TXCST2_v1a

> <STRUCTURE_Formula>
C14H14Cl2N2O

> <STRUCTURE_MolecularWeight>
297.1798

> <STRUCTURE_ChemicalType>
defined organic

> <STRUCTURE_TestedForm_DefinedOrganic>
parent

> <STRUCTURE_Shown>
tested chemical

> <TestSubstance_ChemicalName>
Imazalil

> <TestSubstance_CASRN>
35554-44-0

> <TestSubstance_Description>
single chemical compound

> <STRUCTURE_ChemicalName_IUPAC>
1-[2-(allyloxy)-2-(2,4-dichlorophenyl)ethyl]-1H-imidazole

> <STRUCTURE_SMILES>
Clc2ccc(C(OCC=C)Cn1ccnc1)c(Cl)c2

> <STRUCTURE_Parent_SMILES>
Clc2ccc(C(OCC=C)Cn1ccnc1)c(Cl)c2

> <STRUCTURE_InChIS>
InChI=1S/C14H14Cl2N2O/c1-2-7-19-14(9-18-6-5-17-10-18)12-4-3-11(15)8-13(12)16/h2-6,8,10,14H,1,7,9H2

> <STRUCTURE_InChIKey>
PZBPKYOVPCNPJY-UHFFFAOYSA-N

> <Substance_modify_yyyymmdd>
20080429

> <Coord_Metals>
0

> <Index>
409

> <Canonical_Smiles>
Clc1ccc(C(Cn2ccnc2)OCC=C)c(Cl)c1

> <Molecular_Weight>
297.17976

> <Frequency>
1

$$$$

  SciTegic          2D

 40 42  0  0  0  0            999 V2000
   -3.9086    1.5029    0.0000 C   0  0
   -5.2594    0.8807    0.0000 N   0  0
   -4.0476    2.9835    0.0000 N   0  0
   -2.6111    0.7486    0.0000 C   0  0
   -2.6111   -0.7486    0.0000 C   0  0
   -5.5150    3.2942    0.0000 C   0  0
   -6.2640    1.9946    0.0000 C   0  0
   -1.2964    1.4973    0.0000 N   0  0
   -1.2964   -1.4973    0.0000 C   0  0
   -3.9091   -1.5019    0.0000 C   0  0
    0.0000    0.7486    0.0000 C   0  0
    0.0000   -0.7486    0.0000 C   0  0
   -6.0040    4.3901    0.0000 O   0  0
   -4.9494   -0.9039    0.0000 O   0  0
   -7.1199    3.2112    0.0000 C   0  0
   -3.9067   -3.0027    0.0000 O   0  0
   -6.8465    0.6255    0.0000 C   0  0
    1.2964    1.4973    0.0000 C   0  0
    1.2964   -1.4973    0.0000 C   0  0
   -8.6167    3.1016    0.0000 C   0  0
   -7.7882    1.8349    0.0000 C   0  0
    2.5929   -0.7486    0.0000 C   0  0
    2.5929    0.7486    0.0000 C   0  0
   -3.3010    3.6488    0.0000 H   0  0
   -1.2934   -2.4973    0.0000 H   0  0
   -6.6848    4.1115    0.0000 H   0  0
   -4.7717   -3.5046    0.0000 H   0  0
   -7.8408    0.5194    0.0000 H   0  0
   -7.2520   -0.2886    0.0000 H   0  0
   -6.2577   -0.1828    0.0000 H   0  0
    1.2964    2.4973    0.0000 H   0  0
    1.2964   -2.4973    0.0000 H   0  0
   -9.1792    3.9284    0.0000 H   0  0
   -9.6140    3.0281    0.0000 H   0  0
   -9.0519    2.2012    0.0000 H   0  0
   -8.7856    1.7628    0.0000 H   0  0
   -8.2246    0.9351    0.0000 H   0  0
   -7.2274    1.0070    0.0000 H   0  0
    3.4589   -1.2486    0.0000 H   0  0
    3.4589    1.2486    0.0000 H   0  0
  1  2  2  0
  1  3  1  0
  1  4  1  0
  2  7  1  0
  3  6  1  0
  4  5  1  0
  4  8  2  0
  5  9  2  0
  5 10  1  0
  6 13  2  0
  6  7  1  0
  7 15  1  0
  7 17  1  0
  8 11  1  0
  9 12  1  0
 10 14  2  0
 10 16  1  0
 11 12  2  0
 11 18  1  0
 12 19  1  0
 15 20  1  0
 15 21  1  0
 18 23  2  0
 19 22  2  0
 22 23  1  0
  3 24  1  0
  9 25  1  0
 15 26  1  0
 16 27  1  0
 17 28  1  0
 17 29  1  0
 17 30  1  0
 18 31  1  0
 19 32  1  0
 20 33  1  0
 20 34  1  0
 20 35  1  0
 21 36  1  0
 21 37  1  0
 21 38  1  0
 22 39  1  0
 23 40  1  0
V    1 0
V    2 1
V    3 2
V    4 3
V    5 4
V    6 5
V    7 6
V    8 7
V    9 8
V   10 9
V   11 10
V   12 11
V   13 12
V   14 13
V   15 14
V   16 15
V   17 16
V   18 17
V   19 18
V   20 19
V   21 20
V   22 21
V   23 22
M  END
> <DSSTox_RID>
62408

> <DSSTox_CID>
4152

> <DSSTox_CID_Parent>
4152

> <DSSTox_Generic_SID>
24152

> <DSSTox_FileID>
410_TXCST2_v1a

> <STRUCTURE_Formula>
C17H17N3O3

> <STRUCTURE_MolecularWeight>
311.3352

> <STRUCTURE_ChemicalType>
defined organic

> <STRUCTURE_TestedForm_DefinedOrganic>
parent

> <STRUCTURE_Shown>
tested chemical

> <TestSubstance_ChemicalName>
Imazaquin

> <TestSubstance_CASRN>
81335-37-7

> <TestSubstance_Description>
single chemical compound

> <ChemicalNote>
mixture of (R,S) isomers; structure shown without stereochem

> <STRUCTURE_ChemicalName_IUPAC>
2-(4-isopropyl-4-methyl-5-oxo-4,5-dihydro-1H-imidazol-2-yl)quinoline-3-carboxylic acid

> <STRUCTURE_SMILES>
OC(=O)c2cc3ccccc3nc2C=1NC(=O)C(C)(N=1)C(C)C

> <STRUCTURE_Parent_SMILES>
OC(=O)c2cc3ccccc3nc2C=1NC(=O)C(C)(N=1)C(C)C

> <STRUCTURE_InChIS>
InChI=1S/C17H17N3O3/c1-9(2)17(3)16(23)19-14(20-17)13-11(15(21)22)8-10-6-4-5-7-12(10)18-13/h4-9H,1-3H3,(H,21,22)(H,19,20,23)

> <STRUCTURE_InChIKey>
CABMTIJINOIHOD-UHFFFAOYSA-N

> <Substance_modify_yyyymmdd>
20080429

> <Coord_Metals>
0

> <Index>
410

> <Canonical_Smiles>
CC(C)C1(C)N=C(NC1=O)c2nc3ccccc3cc2C(=O)O

> <Molecular_Weight>
311.33518

> <Frequency>
1

$$$$

  SciTegic          2D

 34 35  0  0  0  0            999 V2000
    4.9531   -1.9978    0.0000 N   0  0
    3.9511   -0.8815    0.0000 C   0  0
    2.5987   -1.5004    0.0000 N   0  0
    2.7343   -2.9815    0.0000 C   0  0
    6.4430   -1.8405    0.0000 C   0  0
    1.2990   -0.7500    0.0000 C   0  0
    4.2010   -3.2956    0.0000 C   0  0
    7.0537   -0.4695    0.0000 N   0  0
    1.2990    0.7500    0.0000 C   0  0
    0.0000   -1.5000    0.0000 C   0  0
    4.1955    0.2934    0.0000 O   0  0
    1.8365   -3.7777    0.0000 O   0  0
    7.1485   -2.8112    0.0000 O   0  0
    0.0000    1.5000    0.0000 C   0  0
   -1.2990   -0.7500    0.0000 C   0  0
   -1.2990    0.7500    0.0000 C   0  0
   -2.3383   -1.3500    0.0000 Cl  0  0
    0.0000    2.7000    0.0000 Cl  0  0
    8.5462   -0.3119    0.0000 C   0  0
    9.1568    1.0591    0.0000 C   0  0
    9.4285   -1.5258    0.0000 C   0  0
    3.5999   -4.0948    0.0000 H   0  0
    5.1968   -3.3870    0.0000 H   0  0
    6.4657    0.3394    0.0000 H   0  0
    2.1651    1.2500    0.0000 H   0  0
    0.0000   -2.5000    0.0000 H   0  0
   -2.1651    1.2500    0.0000 H   0  0
    7.9583    0.4971    0.0000 H   0  0
   10.1513    1.1641    0.0000 H   0  0
    8.5689    1.8680    0.0000 H   0  0
    9.5633    1.9728    0.0000 H   0  0
   10.4231   -1.4218    0.0000 H   0  0
   10.0161   -2.3350    0.0000 H   0  0
    9.0216   -2.4393    0.0000 H   0  0
  1  2  1  0
  1  5  1  0
  1  7  1  0
  2  3  1  0
  2 11  2  0
  3  6  1  0
  3  4  1  0
  4  7  1  0
  4 12  2  0
  5  8  1  0
  5 13  2  0
  6  9  1  0
  6 10  2  0
  8 19  1  0
  9 14  2  0
 10 15  1  0
 14 18  1  0
 14 16  1  0
 15 16  2  0
 15 17  1  0
 19 20  1  0
 19 21  1  0
  7 22  1  0
  7 23  1  0
  8 24  1  0
  9 25  1  0
 10 26  1  0
 16 27  1  0
 19 28  1  0
 20 29  1  0
 20 30  1  0
 20 31  1  0
 21 32  1  0
 21 33  1  0
 21 34  1  0
V    1 0
V    2 1
V    3 2
V    4 3
V    5 4
V    6 5
V    7 6
V    8 7
V    9 8
V   10 9
V   11 10
V   12 11
V   13 12
V   14 13
V   15 14
V   16 15
V   17 16
V   18 17
V   19 18
V   20 19
V   21 20
M  END
> <DSSTox_RID>
61205

> <DSSTox_CID>
4154

> <DSSTox_CID_Parent>
4154

> <DSSTox_Generic_SID>
24154

> <DSSTox_FileID>
411_TXCST2_v1a

> <STRUCTURE_Formula>
C13H13Cl2N3O3

> <STRUCTURE_MolecularWeight>
330.1666

> <STRUCTURE_ChemicalType>
defined organic

> <STRUCTURE_TestedForm_DefinedOrganic>
parent

> <STRUCTURE_Shown>
tested chemical

> <TestSubstance_ChemicalName>
Iprodione

> <TestSubstance_CASRN>
36734-19-7

> <TestSubstance_Description>
single chemical compound

> <STRUCTURE_ChemicalName_IUPAC>
3-(3,5-dichlorophenyl)-N-isopropyl-2,4-dioxoimidazolidine-1-carboxamide

> <STRUCTURE_SMILES>
O=C2N(c1cc(Cl)cc(Cl)c1)C(=O)CN2C(=O)NC(C)C

> <STRUCTURE_Parent_SMILES>
O=C2N(c1cc(Cl)cc(Cl)c1)C(=O)CN2C(=O)NC(C)C

> <STRUCTURE_InChIS>
InChI=1S/C13H13Cl2N3O3/c1-7(2)16-12(20)17-6-11(19)18(13(17)21)10-4-8(14)3-9(15)5-10/h3-5,7H,6H2,1-2H3,(H,16,20)

> <STRUCTURE_InChIKey>
ONUFESLQCSAYKA-UHFFFAOYSA-N

> <Substance_modify_yyyymmdd>
20080429

> <Coord_Metals>
0

> <Index>
411

> <Canonical_Smiles>
CC(C)NC(=O)N1CC(=O)N(C1=O)c2cc(Cl)cc(Cl)c2

> <Molecular_Weight>
330.16662

> <Frequency>
1

$$$$

  SciTegic          2D

 45 45  0  0  0  0            999 V2000
    1.2990   -0.7500    0.0000 C   0  0
    0.0000    1.5000    0.0000 C   0  0
    1.2990    0.7500    0.0000 C   0  0
   -0.0031    3.0008    0.0000 N   0  0
    2.5973   -1.5031    0.0000 N   0  0
   -1.2990    0.7500    0.0000 C   0  0
    0.0000   -1.5000    0.0000 C   0  0
   -1.2990   -0.7500    0.0000 C   0  0
    2.5972    1.5031    0.0000 N   0  0
    2.5956   -2.7031    0.0000 O   0  0
    1.0345    3.6036    0.0000 O   0  0
    3.4642   -1.0046    0.0000 O   0  0
   -1.0438    3.5984    0.0000 O   0  0
   -2.5988   -1.5004    0.0000 C   0  0
    2.5951    3.0039    0.0000 C   0  0
    3.8968    0.7523    0.0000 C   0  0
   -3.8990   -0.7508    0.0000 C   0  0
   -2.5983   -3.0012    0.0000 C   0  0
    3.8933    3.7570    0.0000 C   0  0
    5.1972    1.5015    0.0000 C   0  0
    3.8912    5.2578    0.0000 C   0  0
    6.4968    0.7507    0.0000 C   0  0
   -2.1651    1.2500    0.0000 H   0  0
    0.0000   -2.5000    0.0000 H   0  0
   -2.5991   -0.5004    0.0000 H   0  0
    1.7299    2.5026    0.0000 H   0  0
    1.7282    3.5024    0.0000 H   0  0
    3.0305    0.2527    0.0000 H   0  0
    3.8961   -0.2477    0.0000 H   0  0
   -4.7650   -1.2508    0.0000 H   0  0
   -3.8993    0.2492    0.0000 H   0  0
   -4.7651   -0.2510    0.0000 H   0  0
   -3.4639   -3.5020    0.0000 H   0  0
   -1.7320   -3.5006    0.0000 H   0  0
   -2.5975   -4.0012    0.0000 H   0  0
    3.8952    2.7570    0.0000 H   0  0
    4.7602    3.2585    0.0000 H   0  0
    4.3316    2.0022    0.0000 H   0  0
    5.1979    2.5015    0.0000 H   0  0
    4.7561    5.7596    0.0000 H   0  0
    3.8892    6.2578    0.0000 H   0  0
    3.0243    5.7563    0.0000 H   0  0
    7.3632    1.2498    0.0000 H   0  0
    7.3624    0.2500    0.0000 H   0  0
    6.4961   -0.2493    0.0000 H   0  0
  1  3  2  0
  1  5  1  0
  1  7  1  0
  2  3  1  0
  2  4  1  0
  2  6  2  0
  3  9  1  0
  4 11  2  0
  4 13  2  0
  5 10  2  0
  5 12  2  0
  6  8  1  0
  7  8  2  0
  8 14  1  0
  9 15  1  0
  9 16  1  0
 14 17  1  0
 14 18  1  0
 15 19  1  0
 16 20  1  0
 19 21  1  0
 20 22  1  0
  6 23  1  0
  7 24  1  0
 14 25  1  0
 15 26  1  0
 15 27  1  0
 16 28  1  0
 16 29  1  0
 17 30  1  0
 17 31  1  0
 17 32  1  0
 18 33  1  0
 18 34  1  0
 18 35  1  0
 19 36  1  0
 19 37  1  0
 20 38  1  0
 20 39  1  0
 21 40  1  0
 21 41  1  0
 21 42  1  0
 22 43  1  0
 22 44  1  0
 22 45  1  0
V    1 0
V    2 1
V    3 2
V    4 3
V    5 4
V    6 5
V    7 6
V    8 7
V    9 8
V   10 9
V   11 10
V   12 11
V   13 12
V   14 13
V   15 14
V   16 15
V   17 16
V   18 17
V   19 18
V   20 19
V   21 20
V   22 21
M  END
> <DSSTox_RID>
62318

> <DSSTox_CID>
4157

> <DSSTox_CID_Parent>
4157

> <DSSTox_Generic_SID>
24157

> <DSSTox_FileID>
412_TXCST2_v1a

> <STRUCTURE_Formula>
C15H23N3O4

> <STRUCTURE_MolecularWeight>
309.3608

> <STRUCTURE_ChemicalType>
defined organic

> <STRUCTURE_TestedForm_DefinedOrganic>
parent

> <STRUCTURE_Shown>
tested chemical

> <TestSubstance_ChemicalName>
Isopropalin

> <TestSubstance_CASRN>
33820-53-0

> <TestSubstance_Description>
single chemical compound

> <STRUCTURE_ChemicalName_IUPAC>
(4-isopropyl-2,6-dinitrophenyl)dipropylamine

> <STRUCTURE_SMILES>
[O-][N+](=O)c1cc(cc([N+]([O-])=O)c1N(CCC)CCC)C(C)C

> <STRUCTURE_Parent_SMILES>
[O-][N+](=O)c1cc(cc([N+]([O-])=O)c1N(CCC)CCC)C(C)C

> <STRUCTURE_InChIS>
InChI=1S/C15H23N3O4/c1-5-7-16(8-6-2)15-13(17(19)20)9-12(11(3)4)10-14(15)18(21)22/h9-11H,5-8H2,1-4H3

> <STRUCTURE_InChIKey>
NEKOXWSIMFDGMA-UHFFFAOYSA-N

> <Substance_modify_yyyymmdd>
20080429

> <Coord_Metals>
0

> <Index>
412

> <Canonical_Smiles>
CCCN(CCC)c1c(cc(cc1N(=O)=O)C(C)C)N(=O)=O

> <Molecular_Weight>
309.36082

> <Frequency>
1

$$$$

  SciTegic          2D

 48 49  0  0  0  0            999 V2000
    2.5973   -1.5031    0.0000 C   0  0
    3.8933   -3.7570    0.0000 C   0  0
    4.0312   -5.2378    0.0000 C   0  0
    6.2484   -4.2507    0.0000 N   0  0
    1.2990   -0.7500    0.0000 C   0  0
    2.5951   -3.0039    0.0000 N   0  0
    5.4984   -5.5497    0.0000 C   0  0
    5.2447   -3.1359    0.0000 O   0  0
    6.1078   -6.9184    0.0000 C   0  0
    3.6375   -0.9049    0.0000 O   0  0
    1.2990    0.7500    0.0000 C   0  0
    0.0000   -1.5000    0.0000 C   0  0
   -0.0031   -3.0008    0.0000 O   0  0
    2.5972    1.5031    0.0000 O   0  0
   -1.2990    0.7500    0.0000 C   0  0
    5.2264   -8.1332    0.0000 C   0  0
    7.6004   -7.0748    0.0000 C   0  0
    4.5865   -6.7561    0.0000 C   0  0
    0.0000    1.5000    0.0000 C   0  0
   -1.2990   -0.7500    0.0000 C   0  0
   -1.3039   -3.7494    0.0000 C   0  0
    2.5951    3.0039    0.0000 C   0  0
    5.8368   -9.5042    0.0000 C   0  0
    8.2121   -8.4453    0.0000 C   0  0
    3.2841   -5.9025    0.0000 H   0  0
    1.7282   -3.5024    0.0000 H   0  0
   -2.1651    1.2500    0.0000 H   0  0
    4.2319   -8.0290    0.0000 H   0  0
    4.8192   -7.2198    0.0000 H   0  0
    8.1877   -6.2654    0.0000 H   0  0
    8.5950   -7.1786    0.0000 H   0  0
    4.1806   -5.8422    0.0000 H   0  0
    3.5921   -6.6505    0.0000 H   0  0
    3.9977   -7.5644    0.0000 H   0  0
    0.0000    2.5000    0.0000 H   0  0
   -2.1651   -1.2500    0.0000 H   0  0
   -1.3060   -4.7494    0.0000 H   0  0
   -2.1691   -3.2479    0.0000 H   0  0
   -2.1709   -4.2478    0.0000 H   0  0
    3.4601    3.5057    0.0000 H   0  0
    1.7282    3.5024    0.0000 H   0  0
    2.5932    4.0039    0.0000 H   0  0
    5.2496  -10.3136    0.0000 H   0  0
    6.8314   -9.6085    0.0000 H   0  0
    6.2440  -10.4176    0.0000 H   0  0
    9.2067   -8.5495    0.0000 H   0  0
    7.6248   -9.2547    0.0000 H   0  0
    8.6193   -9.3587    0.0000 H   0  0
  1  5  1  0
  1  6  1  0
  1 10  2  0
  2  6  1  0
  2  3  2  0
  2  8  1  0
  3  7  1  0
  4  8  1  0
  4  7  2  0
  5 11  2  0
  5 12  1  0
  7  9  1  0
  9 16  1  0
  9 17  1  0
  9 18  1  0
 11 14  1  0
 11 19  1  0
 12 13  1  0
 12 20  2  0
 13 21  1  0
 14 22  1  0
 15 20  1  0
 15 19  2  0
 16 23  1  0
 17 24  1  0
  3 25  1  0
  6 26  1  0
 15 27  1  0
 16 28  1  0
 16 29  1  0
 17 30  1  0
 17 31  1  0
 18 32  1  0
 18 33  1  0
 18 34  1  0
 19 35  1  0
 20 36  1  0
 21 37  1  0
 21 38  1  0
 21 39  1  0
 22 40  1  0
 22 41  1  0
 22 42  1  0
 23 43  1  0
 23 44  1  0
 23 45  1  0
 24 46  1  0
 24 47  1  0
 24 48  1  0
V    1 0
V    2 1
V    3 2
V    4 3
V    5 4
V    6 5
V    7 6
V    8 7
V    9 8
V   10 9
V   11 10
V   12 11
V   13 12
V   14 13
V   15 14
V   16 15
V   17 16
V   18 17
V   19 18
V   20 19
V   21 20
V   22 21
V   23 22
V   24 23
M  END
> <DSSTox_RID>
65436

> <DSSTox_CID>
4159

> <DSSTox_CID_Parent>
4159

> <DSSTox_Generic_SID>
24159

> <DSSTox_FileID>
413_TXCST2_v1a

> <STRUCTURE_Formula>
C18H24N2O4

> <STRUCTURE_MolecularWeight>
332.3942

> <STRUCTURE_ChemicalType>
defined organic

> <STRUCTURE_TestedForm_DefinedOrganic>
parent

> <STRUCTURE_Shown>
tested chemical

> <TestSubstance_ChemicalName>
Isoxaben

> <TestSubstance_CASRN>
82558-50-7

> <TestSubstance_Description>
single chemical compound

> <Source_ChemicalNote>
tested chemical contained 3.17% water (0.6 moles H2O)

> <STRUCTURE_ChemicalName_IUPAC>
N-[3-(1-ethyl-1-methylpropyl)isoxazol-5-yl]-2,6-dimethoxybenzamide

> <STRUCTURE_SMILES>
CCC(C)(CC)c2cc(NC(=O)c1c(OC)cccc1OC)on2

> <STRUCTURE_Parent_SMILES>
CCC(C)(CC)c2cc(NC(=O)c1c(OC)cccc1OC)on2

> <STRUCTURE_InChIS>
InChI=1S/C18H24N2O4/c1-6-18(3,7-2)14-11-15(24-20-14)19-17(21)16-12(22-4)9-8-10-13(16)23-5/h8-11H,6-7H2,1-5H3,(H,19,21)

> <STRUCTURE_InChIKey>
PMHURSZHKKJGBM-UHFFFAOYSA-N

> <Substance_modify_yyyymmdd>
20080429

> <Coord_Metals>
0

> <Index>
413

> <Canonical_Smiles>
CCC(C)(CC)c1cc(NC(=O)c2c(OC)cccc2OC)on1

> <Molecular_Weight>
332.39416

> <Frequency>
1

$$$$

  SciTegic          2D

 46 47  0  0  0  0            999 V2000
    2.5973   -1.5031    0.0000 C   0  0
    3.6375   -0.9049    0.0000 O   0  0
    1.2990   -0.7500    0.0000 C   0  0
    2.5951   -3.0039    0.0000 O   0  0
    1.2990    0.7500    0.0000 C   0  0
    0.0000   -1.5000    0.0000 C   0  0
    0.0000    1.5000    0.0000 C   0  0
   -1.2990   -0.7500    0.0000 C   0  0
   -1.2990    0.7500    0.0000 C   0  0
   -2.6003   -1.4978    0.0000 O   0  0
   -3.8990   -0.7455    0.0000 C   0  0
   -5.2007   -1.4909    0.0000 C   0  0
   -3.8939    0.7546    0.0000 C   0  0
   -6.4972   -0.7365    0.0000 C   0  0
   -5.1903    1.5090    0.0000 C   0  0
   -6.4920    0.7635    0.0000 C   0  0
   -5.2049   -2.6909    0.0000 Cl  0  0
   -7.7891    1.5184    0.0000 C   0  0
   -8.8308    0.9227    0.0000 F   0  0
   -7.7846    2.7184    0.0000 F   0  0
   -8.8260    2.1225    0.0000 F   0  0
    2.5972    1.5031    0.0000 N   0  0
    2.5955    2.7031    0.0000 O   0  0
    3.6375    0.9049    0.0000 O   0  0
    3.8933   -3.7570    0.0000 C   0  0
    3.8912   -5.2578    0.0000 C   0  0
    5.1894   -6.0109    0.0000 O   0  0
    5.1873   -7.5117    0.0000 C   0  0
    6.4855   -8.2648    0.0000 C   0  0
    5.1943   -3.0089    0.0000 C   0  0
    2.8509   -5.8560    0.0000 O   0  0
    0.0000   -2.5000    0.0000 H   0  0
    0.0000    2.5000    0.0000 H   0  0
   -2.1651    1.2500    0.0000 H   0  0
   -3.0262    1.2516    0.0000 H   0  0
   -7.3649   -1.2335    0.0000 H   0  0
   -5.1869    2.5090    0.0000 H   0  0
    3.0264   -4.2555    0.0000 H   0  0
    4.3204   -8.0102    0.0000 H   0  0
    4.3220   -7.0104    0.0000 H   0  0
    6.4840   -9.2648    0.0000 H   0  0
    7.3524   -7.7663    0.0000 H   0  0
    7.3507   -8.7662    0.0000 H   0  0
    6.0598   -3.5098    0.0000 H   0  0
    5.1957   -2.0089    0.0000 H   0  0
    6.0610   -2.5100    0.0000 H   0  0
  1  2  2  0
  1  3  1  0
  1  4  1  0
  3  5  2  0
  3  6  1  0
  4 25  1  0
  5  7  1  0
  5 22  1  0
  6  8  2  0
  7  9  2  0
  8  9  1  0
  8 10  1  0
 10 11  1  0
 11 12  2  0
 11 13  1  0
 12 14  1  0
 12 17  1  0
 13 15  2  0
 14 16  2  0
 15 16  1  0
 16 18  1  0
 18 19  1  0
 18 20  1  0
 18 21  1  0
 22 23  2  0
 22 24  2  0
 25 26  1  0
 25 30  1  0
 26 27  1  0
 26 31  2  0
 27 28  1  0
 28 29  1  0
  6 32  1  0
  7 33  1  0
  9 34  1  0
 13 35  1  0
 14 36  1  0
 15 37  1  0
 25 38  1  0
 28 39  1  0
 28 40  1  0
 29 41  1  0
 29 42  1  0
 29 43  1  0
 30 44  1  0
 30 45  1  0
 30 46  1  0
V    1 0
V    2 1
V    3 2
V    4 3
V    5 4
V    6 5
V    7 6
V    8 7
V    9 8
V   10 9
V   11 10
V   12 11
V   13 12
V   14 13
V   15 14
V   16 15
V   17 16
V   18 17
V   19 18
V   20 19
V   21 20
V   22 21
V   23 22
V   24 23
V   25 24
V   26 25
V   27 26
V   28 27
V   29 28
V   30 29
V   31 30
M  END
> <DSSTox_RID>
65437

> <DSSTox_CID>
4160

> <DSSTox_CID_Parent>
4160

> <DSSTox_Generic_SID>
24160

> <DSSTox_FileID>
414_TXCST2_v1a

> <STRUCTURE_Formula>
C19H15ClF3NO7

> <STRUCTURE_MolecularWeight>
461.7731

> <STRUCTURE_ChemicalType>
defined organic

> <STRUCTURE_TestedForm_DefinedOrganic>
parent

> <STRUCTURE_Shown>
tested chemical

> <TestSubstance_ChemicalName>
Lactofen

> <TestSubstance_CASRN>
77501-63-4

> <TestSubstance_Description>
single chemical compound

> <STRUCTURE_ChemicalName_IUPAC>
2-ethoxy-1-methyl-2-oxoethyl 5-[2-chloro-4-(trifluoromethyl)phenoxy]-2-nitrobenzoate

> <STRUCTURE_SMILES>
Clc2cc(ccc2Oc1cc(C(=O)OC(C)C(=O)OCC)c(cc1)[N+]([O-])=O)C(F)(F)F

> <STRUCTURE_Parent_SMILES>
Clc2cc(ccc2Oc1cc(C(=O)OC(C)C(=O)OCC)c(cc1)[N+]([O-])=O)C(F)(F)F

> <STRUCTURE_InChIS>
InChI=1S/C19H15ClF3NO7/c1-3-29-17(25)10(2)30-18(26)13-9-12(5-6-15(13)24(27)28)31-16-7-4-11(8-14(16)20)19(21,22)23/h4-10H,3H2,1-2H3

> <STRUCTURE_InChIKey>
CONWAEURSVPLRM-UHFFFAOYSA-N

> <Substance_modify_yyyymmdd>
20080429

> <Coord_Metals>
0

> <Index>
414

> <Canonical_Smiles>
CCOC(=O)C(C)OC(=O)c1cc(Oc2ccc(cc2Cl)C(F)(F)F)ccc1N(=O)=O

> <Molecular_Weight>
461.7731

> <Frequency>
1

$$$$

  SciTegic          2D

 25 25  0  0  0  0            999 V2000
   -1.3039    3.7494    0.0000 C   0  0
   -0.0031    3.0008    0.0000 N   0  0
    1.2990   -0.7500    0.0000 C   0  0
   -1.3070    5.2502    0.0000 N   0  0
    1.2990    0.7500    0.0000 C   0  0
    0.0000    1.5000    0.0000 C   0  0
   -2.3421    3.1476    0.0000 O   0  0
    0.0000   -1.5000    0.0000 C   0  0
   -1.2990   -0.7500    0.0000 C   0  0
    2.3383   -1.3500    0.0000 Cl  0  0
   -1.2990    0.7500    0.0000 C   0  0
    0.0000   -2.7000    0.0000 Cl  0  0
   -2.6078    5.9988    0.0000 O   0  0
   -0.0101    6.0056    0.0000 C   0  0
   -2.6109    7.4996    0.0000 C   0  0
    0.8620    3.5023    0.0000 H   0  0
    2.1651    1.2500    0.0000 H   0  0
   -2.1651   -1.2500    0.0000 H   0  0
   -2.1651    1.2500    0.0000 H   0  0
   -0.0133    7.0056    0.0000 H   0  0
    0.8542    6.5084    0.0000 H   0  0
    0.8576    5.5086    0.0000 H   0  0
   -3.4777    7.9983    0.0000 H   0  0
   -1.7458    8.0011    0.0000 H   0  0
   -2.6125    8.4996    0.0000 H   0  0
  1  2  1  0
  1  4  1  0
  1  7  2  0
  2  6  1  0
  3  5  2  0
  3 10  1  0
  3  8  1  0
  4 13  1  0
  4 14  1  0
  5  6  1  0
  6 11  2  0
  8  9  2  0
  8 12  1  0
  9 11  1  0
 13 15  1  0
  2 16  1  0
  5 17  1  0
  9 18  1  0
 11 19  1  0
 14 20  1  0
 14 21  1  0
 14 22  1  0
 15 23  1  0
 15 24  1  0
 15 25  1  0
V    1 0
V    2 1
V    3 2
V    4 3
V    5 4
V    6 5
V    7 6
V    8 7
V    9 8
V   10 9
V   11 10
V   12 11
V   13 12
V   14 13
V   15 14
M  END
> <DSSTox_RID>
65438

> <DSSTox_CID>
4163

> <DSSTox_CID_Parent>
4163

> <DSSTox_Generic_SID>
24163

> <DSSTox_FileID>
415_TXCST2_v1a

> <STRUCTURE_Formula>
C9H10Cl2N2O2

> <STRUCTURE_MolecularWeight>
249.0939

> <STRUCTURE_ChemicalType>
defined organic

> <STRUCTURE_TestedForm_DefinedOrganic>
parent

> <STRUCTURE_Shown>
tested chemical

> <TestSubstance_ChemicalName>
Linuron

> <TestSubstance_CASRN>
330-55-2

> <TestSubstance_Description>
single chemical compound

> <STRUCTURE_ChemicalName_IUPAC>
N'-(3,4-dichlorophenyl)-N-methoxy-N-methylurea

> <STRUCTURE_SMILES>
Clc1ccc(NC(=O)N(C)OC)cc1Cl

> <STRUCTURE_Parent_SMILES>
Clc1ccc(NC(=O)N(C)OC)cc1Cl

> <STRUCTURE_InChIS>
InChI=1S/C9H10Cl2N2O2/c1-13(15-2)9(14)12-6-3-4-7(10)8(11)5-6/h3-5H,1-2H3,(H,12,14)

> <STRUCTURE_InChIKey>
XKJMBINCVNINCA-UHFFFAOYSA-N

> <Substance_modify_yyyymmdd>
20080429

> <Coord_Metals>
0

> <Index>
415

> <Canonical_Smiles>
CON(C)C(=O)Nc1ccc(Cl)c(Cl)c1

> <Molecular_Weight>
249.09389

> <Frequency>
1

$$$$

  SciTegic          2D

 24 24  0  0  0  0            999 V2000
    1.2990   -0.7500    0.0000 N   0  3
    2.5625    0.0216    0.0000 C   0  0
    1.2628   -2.2303    0.0000 C   0  0
    1.2990    0.7500    0.0000 C   0  0
    0.0000   -1.5000    0.0000 C   0  0
   -1.2990   -0.7500    0.0000 C   0  0
    0.0000    1.5000    0.0000 C   0  0
   -1.2990    0.7500    0.0000 C   0  0
    2.5629    1.0216    0.0000 H   0  0
    3.4287    0.5213    0.0000 H   0  0
    3.4285   -0.4785    0.0000 H   0  0
    2.1284   -2.7310    0.0000 H   0  0
    1.2622   -3.2303    0.0000 H   0  0
    0.3965   -2.7300    0.0000 H   0  0
    0.4215    0.2706    0.0000 H   0  0
    1.2755    1.7497    0.0000 H   0  0
   -0.8776   -1.9794    0.0000 H   0  0
   -0.0235   -0.5003    0.0000 H   0  0
   -2.1530   -0.2297    0.0000 H   0  0
   -1.2755   -1.7497    0.0000 H   0  0
    0.8776    1.9794    0.0000 H   0  0
   -0.8775    1.9795    0.0000 H   0  0
   -0.4451    0.2297    0.0000 H   0  0
   -2.1531    0.2298    0.0000 H   0  0
  1  2  1  0
  1  3  1  0
  1  4  1  0
  1  5  1  0
  4  7  1  0
  5  6  1  0
  6  8  1  0
  7  8  1  0
  2  9  1  0
  2 10  1  0
  2 11  1  0
  3 12  1  0
  3 13  1  0
  3 14  1  0
  4 15  1  0
  4 16  1  0
  5 17  1  0
  5 18  1  0
  6 19  1  0
  6 20  1  0
  7 21  1  0
  7 22  1  0
  8 23  1  0
  8 24  1  0
M  CHG  1   1   1
V    1 0
V    2 1
V    3 2
V    4 3
V    5 4
V    6 5
V    7 6
V    8 7
M  END
> <DSSTox_RID>
65439

> <DSSTox_CID>
4170

> <DSSTox_CID_Parent>
22122

> <DSSTox_Generic_SID>
24170

> <DSSTox_FileID>
416_TXCST2_v1a

> <STRUCTURE_Formula>
C7H16ClN

> <STRUCTURE_MolecularWeight>
149.6616

> <STRUCTURE_ChemicalType>
defined organic

> <STRUCTURE_TestedForm_DefinedOrganic>
salt Cl

> <STRUCTURE_Shown>
tested chemical

> <TestSubstance_ChemicalName>
Mepiquat chloride

> <TestSubstance_CASRN>
24307-26-4

> <TestSubstance_Description>
single chemical compound

> <ChemicalNote>
ammonium; parent [15302-91-7]

> <Source_ChemicalNote>
tested chemical contained 0.95% water (0.08 moles H2O)

> <STRUCTURE_ChemicalName_IUPAC>
1,1-dimethylpiperidinium chloride

> <STRUCTURE_SMILES>
[Cl-].C[N+]1(C)CCCCC1

> <STRUCTURE_Parent_SMILES>
C[N+]1(C)CCCCC1

> <STRUCTURE_InChIS>
InChI=1S/C7H16N.ClH/c1-8(2)6-4-3-5-7-8;/h3-7H2,1-2H3;1H/q+1;/p-1

> <STRUCTURE_InChIKey>
VHOVSQVSAAQANU-UHFFFAOYSA-M

> <Substance_modify_yyyymmdd>
20080429

> <Coord_Metals>
0

> <Index>
416

> <Canonical_Smiles>
C[N+]1(C)CCCCC1

> <Molecular_Weight>
114.20864

> <Frequency>
1

$$$$

  SciTegic          2D

 44 43  0  0  0  0            999 V2000
    7.7999    0.0000    0.0000 P   0  0
    6.5000    0.7500    0.0000 S   0  0
    9.0999    0.7500    0.0000 S   0  0
    7.7999   -1.5007    0.0000 S   0  0
    5.2000    0.0000    0.0000 C   0  0
    6.5007   -2.2520    0.0000 C   0  0
   10.3999    0.0000    0.0000 C   0  0
    7.7999    1.2000    0.0000 O   0  0
    3.9000    0.7500    0.0000 C   0  0
    2.6000    0.0000    0.0000 C   0  0
    1.3000    0.7500    0.0000 C   0  0
    6.5007   -3.7528    0.0000 C   0  0
    5.2014   -4.5040    0.0000 C   0  0
    5.2014   -6.0049    0.0000 C   0  0
   11.6999    0.7500    0.0000 C   0  0
   12.9999    0.0000    0.0000 C   0  0
   14.2999    0.7500    0.0000 C   0  0
    5.2000   -1.0000    0.0000 H   0  0
    6.0659   -0.5001    0.0000 H   0  0
    5.6345   -1.7523    0.0000 H   0  0
    6.5002   -1.2520    0.0000 H   0  0
   10.3999   -1.0000    0.0000 H   0  0
    9.5340   -0.5001    0.0000 H   0  0
    3.9000    1.7500    0.0000 H   0  0
    3.0340    1.2501    0.0000 H   0  0
    2.6000   -1.0000    0.0000 H   0  0
    1.7340   -0.5001    0.0000 H   0  0
    0.4338    0.2503    0.0000 H   0  0
    1.3000    1.7500    0.0000 H   0  0
    0.4340    1.2501    0.0000 H   0  0
    7.3668   -4.2525    0.0000 H   0  0
    7.3666   -3.2527    0.0000 H   0  0
    4.3352   -4.0043    0.0000 H   0  0
    5.2009   -3.5040    0.0000 H   0  0
    4.3357   -6.5054    0.0000 H   0  0
    6.0676   -6.5046    0.0000 H   0  0
    5.2019   -7.0049    0.0000 H   0  0
   11.6999    1.7500    0.0000 H   0  0
   10.8340    1.2501    0.0000 H   0  0
   12.9999   -1.0000    0.0000 H   0  0
   12.1340   -0.5001    0.0000 H   0  0
   15.1661    0.2503    0.0000 H   0  0
   14.2999    1.7500    0.0000 H   0  0
   15.1658    1.2501    0.0000 H   0  0
  1  2  1  0
  1  3  1  0
  1  4  1  0
  1  8  2  0
  2  5  1  0
  3  7  1  0
  4  6  1  0
  5  9  1  0
  6 12  1  0
  7 15  1  0
  9 10  1  0
 10 11  1  0
 12 13  1  0
 13 14  1  0
 15 16  1  0
 16 17  1  0
  5 18  1  0
  5 19  1  0
  6 20  1  0
  6 21  1  0
  7 22  1  0
  7 23  1  0
  9 24  1  0
  9 25  1  0
 10 26  1  0
 10 27  1  0
 11 28  1  0
 11 29  1  0
 11 30  1  0
 12 31  1  0
 12 32  1  0
 13 33  1  0
 13 34  1  0
 14 35  1  0
 14 36  1  0
 14 37  1  0
 15 38  1  0
 15 39  1  0
 16 40  1  0
 16 41  1  0
 17 42  1  0
 17 43  1  0
 17 44  1  0
V    1 0
V    2 1
V    3 2
V    4 3
V    5 4
V    6 5
V    7 6
V    8 7
V    9 8
V   10 9
V   11 10
V   12 11
V   13 12
V   14 13
V   15 14
V   16 15
V   17 16
M  END
> <DSSTox_RID>
65440

> <DSSTox_CID>
4174

> <DSSTox_CID_Parent>
4174

> <DSSTox_Generic_SID>
24174

> <DSSTox_FileID>
417_TXCST2_v1a

> <STRUCTURE_Formula>
C12H27OPS3

> <STRUCTURE_MolecularWeight>
314.5109

> <STRUCTURE_ChemicalType>
defined organic

> <STRUCTURE_TestedForm_DefinedOrganic>
parent

> <STRUCTURE_Shown>
tested chemical

> <TestSubstance_ChemicalName>
Tribufos

> <TestSubstance_CASRN>
78-48-8

> <TestSubstance_Description>
single chemical compound

> <STRUCTURE_ChemicalName_IUPAC>
S,S,S-tributyl trithiophosphate

> <STRUCTURE_SMILES>
CCCCSP(=O)(SCCCC)SCCCC

> <STRUCTURE_Parent_SMILES>
CCCCSP(=O)(SCCCC)SCCCC

> <STRUCTURE_InChIS>
InChI=1S/C12H27OPS3/c1-4-7-10-15-14(13,16-11-8-5-2)17-12-9-6-3/h4-12H2,1-3H3

> <STRUCTURE_InChIKey>
ZOKXUAHZSKEQSS-UHFFFAOYSA-N

> <Substance_modify_yyyymmdd>
20080429

> <Coord_Metals>
0

> <Index>
417

> <Canonical_Smiles>
CCCCSP(=O)(SCCCC)SCCCC

> <Molecular_Weight>
314.51094

> <Frequency>
1

$$$$

  SciTegic          2D

 41 41  0  0  0  0            999 V2000
    2.5973   -1.5031    0.0000 N   0  0
    1.2990   -0.7500    0.0000 C   0  0
    3.8990   -0.7562    0.0000 C   0  0
    2.5937   -3.0038    0.0000 C   0  0
    4.1401   -3.0864    0.0000 C   0  0
    1.2990    0.7500    0.0000 C   0  0
    0.0000   -1.5000    0.0000 C   0  0
    3.9019    0.4438    0.0000 O   0  0
    4.8199   -2.0975    0.0000 O   0  0
    4.7516   -4.4570    0.0000 O   0  0
    5.3765   -1.0198    0.0000 C   0  0
    1.8852   -4.3808    0.0000 C   0  0
    6.3443    0.1273    0.0000 O   0  0
   -1.2990    0.7500    0.0000 C   0  0
   -1.2990   -0.7500    0.0000 C   0  0
    0.0000    1.5000    0.0000 C   0  0
    0.0000   -3.0008    0.0000 C   0  0
    2.5988    1.5004    0.0000 C   0  0
    6.2442   -4.6136    0.0000 C   0  0
    7.8218   -0.1364    0.0000 C   0  0
    1.7264   -3.5016    0.0000 H   0  0
    6.3609   -1.1960    0.0000 H   0  0
    5.7163   -1.9603    0.0000 H   0  0
    0.8852   -4.3787    0.0000 H   0  0
    2.4051   -5.2351    0.0000 H   0  0
    1.3943   -5.2521    0.0000 H   0  0
   -2.1651    1.2500    0.0000 H   0  0
   -2.1651   -1.2500    0.0000 H   0  0
    0.0000    2.5000    0.0000 H   0  0
    0.8657   -3.5014    0.0000 H   0  0
   -0.8662   -3.5006    0.0000 H   0  0
   -0.0005   -4.0008    0.0000 H   0  0
    3.4651    1.0010    0.0000 H   0  0
    2.5985    2.5004    0.0000 H   0  0
    3.4646    2.0008    0.0000 H   0  0
    6.6517   -5.5269    0.0000 H   0  0
    6.8316   -3.8043    0.0000 H   0  0
    7.2388   -4.7175    0.0000 H   0  0
    8.4666    0.6279    0.0000 H   0  0
    8.1616   -1.0769    0.0000 H   0  0
    8.8062   -0.3125    0.0000 H   0  0
  1  2  1  0
  1  3  1  0
  1  4  1  0
  2  6  2  0
  2  7  1  0
  3  8  2  0
  3 11  1  0
  4  5  1  0
  4 12  1  0
  5  9  2  0
  5 10  1  0
  6 16  1  0
  6 18  1  0
  7 15  2  0
  7 17  1  0
 10 19  1  0
 11 13  1  0
 13 20  1  0
 14 15  1  0
 14 16  2  0
  4 21  1  0
 11 22  1  0
 11 23  1  0
 12 24  1  0
 12 25  1  0
 12 26  1  0
 14 27  1  0
 15 28  1  0
 16 29  1  0
 17 30  1  0
 17 31  1  0
 17 32  1  0
 18 33  1  0
 18 34  1  0
 18 35  1  0
 19 36  1  0
 19 37  1  0
 19 38  1  0
 20 39  1  0
 20 40  1  0
 20 41  1  0
V    1 0
V    2 1
V    3 2
V    4 3
V    5 4
V    6 5
V    7 6
V    8 7
V    9 8
V   10 9
V   11 10
V   12 11
V   13 12
V   14 13
V   15 14
V   16 15
V   17 16
V   18 17
V   19 18
V   20 19
M  END
> <DSSTox_RID>
65418

> <DSSTox_CID>
4175

> <DSSTox_CID_Parent>
4175

> <DSSTox_Generic_SID>
24175

> <DSSTox_FileID>
418_TXCST2_v1a

> <STRUCTURE_Formula>
C15H21NO4

> <STRUCTURE_MolecularWeight>
279.3315

> <STRUCTURE_ChemicalType>
defined organic

> <STRUCTURE_TestedForm_DefinedOrganic>
parent

> <STRUCTURE_Shown>
tested chemical

> <TestSubstance_ChemicalName>
Metalaxyl

> <TestSubstance_CASRN>
57837-19-1

> <TestSubstance_Description>
single chemical compound

> <ChemicalNote>
mixture of (R,S) isomers; structure shown without stereochem

> <Source_ChemicalNote>
tested chemical contained 0.13% water (0.02 moles H2O)

> <STRUCTURE_ChemicalName_IUPAC>
methyl 2-[(2,6-dimethylphenyl)(methoxyacetyl)amino]propanoate

> <STRUCTURE_SMILES>
Cc1cccc(C)c1N(C(=O)COC)C(C)C(=O)OC

> <STRUCTURE_Parent_SMILES>
Cc1cccc(C)c1N(C(=O)COC)C(C)C(=O)OC

> <STRUCTURE_InChIS>
InChI=1S/C15H21NO4/c1-10-7-6-8-11(2)14(10)16(13(17)9-19-4)12(3)15(18)20-5/h6-8,12H,9H2,1-5H3

> <STRUCTURE_InChIKey>
ZQEIXNIJLIKNTD-UHFFFAOYSA-N

> <Substance_modify_yyyymmdd>
20080429

> <Coord_Metals>
0

> <Index>
418

> <Canonical_Smiles>
COCC(=O)N(C(C)C(=O)OC)c1c(C)cccc1C

> <Molecular_Weight>
279.33154

> <Frequency>
1

$$$$

  SciTegic          2D

 15 14  0  0  0  0            999 V2000
    3.9000    0.7500    0.0000 P   0  0
    3.9000    1.9500    0.0000 O   0  0
    2.6000    0.0000    0.0000 S   0  0
    2.5761    1.5169    0.0000 N   0  0
    5.2000    0.0000    0.0000 O   0  0
    2.5986   -1.5008    0.0000 C   0  0
    6.5000    0.7500    0.0000 C   0  0
    2.5769    2.5169    0.0000 H   0  0
    1.7095    1.0178    0.0000 H   0  0
    1.7324   -2.0005    0.0000 H   0  0
    3.4643   -2.0014    0.0000 H   0  0
    2.5981   -2.5008    0.0000 H   0  0
    7.3661    0.2503    0.0000 H   0  0
    6.5000    1.7500    0.0000 H   0  0
    7.3659    1.2501    0.0000 H   0  0
  1  2  2  0
  1  3  1  0
  1  4  1  0
  1  5  1  0
  3  6  1  0
  5  7  1  0
  4  8  1  0
  4  9  1  0
  6 10  1  0
  6 11  1  0
  6 12  1  0
  7 13  1  0
  7 14  1  0
  7 15  1  0
V    1 0
V    2 1
V    3 2
V    4 3
V    5 4
V    6 5
V    7 6
M  END
> <DSSTox_RID>
65348

> <DSSTox_CID>
4177

> <DSSTox_CID_Parent>
4177

> <DSSTox_Generic_SID>
24177

> <DSSTox_FileID>
419_TXCST2_v1a

> <STRUCTURE_Formula>
C2H8NO2PS

> <STRUCTURE_MolecularWeight>
141.1292

> <STRUCTURE_ChemicalType>
defined organic

> <STRUCTURE_TestedForm_DefinedOrganic>
parent

> <STRUCTURE_Shown>
tested chemical

> <TestSubstance_ChemicalName>
Methamidophos

> <TestSubstance_CASRN>
10265-92-6

> <TestSubstance_Description>
single chemical compound

> <Source_ChemicalNote>
tested chemical contained 0.5744% water (0.05 moles H2O)

> <STRUCTURE_ChemicalName_IUPAC>
O,S-dimethyl amidothiophosphate

> <STRUCTURE_SMILES>
NP(=O)(OC)SC

> <STRUCTURE_Parent_SMILES>
NP(=O)(OC)SC

> <STRUCTURE_InChIS>
InChI=1S/C2H8NO2PS/c1-5-6(3,4)7-2/h1-2H3,(H2,3,4)

> <STRUCTURE_InChIKey>
NNKVPIKMPCQWCG-UHFFFAOYSA-N

> <Substance_modify_yyyymmdd>
20080429

> <Coord_Metals>
0

> <Index>
419

> <Canonical_Smiles>
COP(=O)(N)SC

> <Molecular_Weight>
141.12918

> <Frequency>
1

$$$$

  SciTegic          2D

 13 12  0  0  0  0            999 V2000
    1.3000    0.7500    0.0000 C   0  0
    2.6000    0.0000    0.0000 O   0  0
    3.9000    0.7500    0.0000 C   0  0
    5.2000    0.0000    0.0000 C   0  0
    6.5000    0.7500    0.0000 O   0  0
    0.4338    0.2503    0.0000 H   0  0
    1.3000    1.7500    0.0000 H   0  0
    0.4340    1.2501    0.0000 H   0  0
    3.9000    1.7500    0.0000 H   0  0
    3.0340    1.2501    0.0000 H   0  0
    5.2000   -1.0000    0.0000 H   0  0
    6.0659   -0.5001    0.0000 H   0  0
    7.3661    0.2503    0.0000 H   0  0
  1  2  1  0
  2  3  1  0
  3  4  1  0
  4  5  1  0
  1  6  1  0
  1  7  1  0
  1  8  1  0
  3  9  1  0
  3 10  1  0
  4 11  1  0
  4 12  1  0
  5 13  1  0
V    1 0
V    2 1
V    3 2
V    4 3
V    5 4
M  END
> <DSSTox_RID>
65442

> <DSSTox_CID>
4182

> <DSSTox_CID_Parent>
4182

> <DSSTox_Generic_SID>
24182

> <DSSTox_FileID>
420_TXCST2_v1a

> <STRUCTURE_Formula>
C3H8O2

> <STRUCTURE_MolecularWeight>
76.0944

> <STRUCTURE_ChemicalType>
defined organic

> <STRUCTURE_TestedForm_DefinedOrganic>
parent

> <STRUCTURE_Shown>
tested chemical

> <TestSubstance_ChemicalName>
2-Methoxyethanol

> <TestSubstance_CASRN>
109-86-4

> <TestSubstance_Description>
single chemical compound

> <Source_ChemicalNote>
tested chemical contained 0.001% water

> <STRUCTURE_ChemicalName_IUPAC>
2-methoxyethanol

> <STRUCTURE_SMILES>
OCCOC

> <STRUCTURE_Parent_SMILES>
OCCOC

> <STRUCTURE_InChIS>
InChI=1S/C3H8O2/c1-5-3-2-4/h4H,2-3H2,1H3

> <STRUCTURE_InChIKey>
XNWFRZJHXBZDAG-UHFFFAOYSA-N

> <Substance_modify_yyyymmdd>
20080429

> <Coord_Metals>
0

> <Index>
420

> <Canonical_Smiles>
COCCO

> <Molecular_Weight>
76.09442

> <Frequency>
1

$$$$

  SciTegic          2D

 22 22  0  0  0  0            999 V2000
    1.2990   -0.7500    0.0000 C   0  0
    3.8933    3.7570    0.0000 C   0  0
    1.2990    0.7500    0.0000 C   0  0
    2.5972    1.5031    0.0000 O   0  0
    0.0000   -1.5000    0.0000 C   0  0
    4.9336    3.1588    0.0000 O   0  0
    0.0000    1.5000    0.0000 C   0  0
    2.5951    3.0039    0.0000 C   0  0
   -1.2990   -0.7500    0.0000 C   0  0
    3.8912    5.2578    0.0000 O   0  0
   -1.2990    0.7500    0.0000 C   0  0
   -2.3383   -1.3500    0.0000 Cl  0  0
    2.5988   -1.5004    0.0000 C   0  0
    0.0000   -2.5000    0.0000 H   0  0
    0.0000    2.5000    0.0000 H   0  0
    1.7299    2.5026    0.0000 H   0  0
    1.7282    3.5024    0.0000 H   0  0
    4.7561    5.7596    0.0000 H   0  0
   -2.1651    1.2500    0.0000 H   0  0
    3.4651   -1.0010    0.0000 H   0  0
    2.5985   -2.5004    0.0000 H   0  0
    3.4646   -2.0008    0.0000 H   0  0
  1  3  2  0
  1  5  1  0
  1 13  1  0
  2  8  1  0
  2  6  2  0
  2 10  1  0
  3  4  1  0
  3  7  1  0
  4  8  1  0
  5  9  2  0
  7 11  2  0
  9 11  1  0
  9 12  1  0
  5 14  1  0
  7 15  1  0
  8 16  1  0
  8 17  1  0
 10 18  1  0
 11 19  1  0
 13 20  1  0
 13 21  1  0
 13 22  1  0
V    1 0
V    2 1
V    3 2
V    4 3
V    5 4
V    6 5
V    7 6
V    8 7
V    9 8
V   10 9
V   11 10
V   12 11
V   13 12
M  END
> <DSSTox_RID>
62421

> <DSSTox_CID>
4195

> <DSSTox_CID_Parent>
4195

> <DSSTox_Generic_SID>
24195

> <DSSTox_FileID>
421_TXCST2_v1a

> <STRUCTURE_Formula>
C9H9ClO3

> <STRUCTURE_MolecularWeight>
200.619

> <STRUCTURE_ChemicalType>
defined organic

> <STRUCTURE_TestedForm_DefinedOrganic>
parent

> <STRUCTURE_Shown>
tested chemical

> <TestSubstance_ChemicalName>
2-Methyl-4-chlorophenoxyacetic acid

> <TestSubstance_CASRN>
94-74-6

> <TestSubstance_Description>
single chemical compound

> <Source_ChemicalNote>
tested chemical contained 0.02% water

> <STRUCTURE_ChemicalName_IUPAC>
(4-chloro-2-methylphenoxy)acetic acid

> <STRUCTURE_SMILES>
O=C(O)COC1=C(C)C=C(Cl)C=C1

> <STRUCTURE_Parent_SMILES>
O=C(O)COC1=C(C)C=C(Cl)C=C1

> <STRUCTURE_InChIS>
InChI=1S/C9H9ClO3/c1-6-4-7(10)2-3-8(6)13-5-9(11)12/h2-4H,5H2,1H3,(H,11,12)

> <STRUCTURE_InChIKey>
WHKUVVPPKQRRBV-UHFFFAOYSA-N

> <Substance_modify_yyyymmdd>
20080429

> <Coord_Metals>
0

> <Index>
421

> <Canonical_Smiles>
Cc1cc(Cl)ccc1OCC(=O)O

> <Molecular_Weight>
200.61895

> <Frequency>
1

$$$$

  SciTegic          2D

 28 28  0  0  0  0            999 V2000
    1.2990   -0.7500    0.0000 N   0  0
    1.2990    0.7500    0.0000 C   0  0
    0.0000    1.5000    0.0000 C   0  0
    0.0000   -1.5000    0.0000 C   0  0
   -1.2990    0.7500    0.0000 N   0  0
   -1.2990   -0.7500    0.0000 N   0  0
    0.5133    2.9103    0.0000 C   0  0
    2.3383    1.3500    0.0000 O   0  0
    2.5973   -1.5031    0.0000 N   0  0
   -0.0031   -3.0008    0.0000 S   0  0
   -0.4507    4.0606    0.0000 C   0  0
    1.9913    3.1705    0.0000 C   0  0
   -0.9930    2.6423    0.0000 C   0  0
   -1.3039   -3.7494    0.0000 C   0  0
    2.5958   -2.5031    0.0000 H   0  0
    3.4642   -1.0046    0.0000 H   0  0
   -0.1087    5.0003    0.0000 H   0  0
   -1.4356    3.8873    0.0000 H   0  0
   -1.0934    4.8268    0.0000 H   0  0
    2.3342    4.1098    0.0000 H   0  0
    2.6336    2.4040    0.0000 H   0  0
    2.9763    3.3433    0.0000 H   0  0
   -1.3341    1.7023    0.0000 H   0  0
   -1.9776    2.4676    0.0000 H   0  0
   -1.6368    3.4075    0.0000 H   0  0
   -1.3060   -4.7494    0.0000 H   0  0
   -2.1691   -3.2479    0.0000 H   0  0
   -2.1709   -4.2478    0.0000 H   0  0
  1  2  1  0
  1  4  1  0
  1  9  1  0
  2  3  1  0
  2  8  2  0
  3  7  1  0
  3  5  2  0
  4  6  2  0
  4 10  1  0
  5  6  1  0
  7 11  1  0
  7 12  1  0
  7 13  1  0
 10 14  1  0
  9 15  1  0
  9 16  1  0
 11 17  1  0
 11 18  1  0
 11 19  1  0
 12 20  1  0
 12 21  1  0
 12 22  1  0
 13 23  1  0
 13 24  1  0
 13 25  1  0
 14 26  1  0
 14 27  1  0
 14 28  1  0
V    1 0
V    2 1
V    3 2
V    4 3
V    5 4
V    6 5
V    7 6
V    8 7
V    9 8
V   10 9
V   11 10
V   12 11
V   13 12
V   14 13
M  END
> <DSSTox_RID>
65285

> <DSSTox_CID>
4204

> <DSSTox_CID_Parent>
4204

> <DSSTox_Generic_SID>
24204

> <DSSTox_FileID>
422_TXCST2_v1a

> <STRUCTURE_Formula>
C8H14N4OS

> <STRUCTURE_MolecularWeight>
214.288

> <STRUCTURE_ChemicalType>
defined organic

> <STRUCTURE_TestedForm_DefinedOrganic>
parent

> <STRUCTURE_Shown>
tested chemical

> <TestSubstance_ChemicalName>
Metribuzin

> <TestSubstance_CASRN>
21087-64-9

> <TestSubstance_Description>
single chemical compound

> <STRUCTURE_ChemicalName_IUPAC>
4-amino-6-tert-butyl-3-(methylthio)-1,2,4-triazin-5(4H)-one

> <STRUCTURE_SMILES>
NN1C(=O)/C(=N\N=C1\SC)C(C)(C)C

> <STRUCTURE_Parent_SMILES>
NN1C(=O)/C(=N\N=C1\SC)C(C)(C)C

> <STRUCTURE_InChIS>
InChI=1S/C8H14N4OS/c1-8(2,3)5-6(13)12(9)7(14-4)11-10-5/h9H2,1-4H3

> <STRUCTURE_InChIKey>
FOXFZRUHNHCZPX-UHFFFAOYSA-N

> <Substance_modify_yyyymmdd>
20080429

> <Coord_Metals>
0

> <Index>
422

> <Canonical_Smiles>
CSC1=NN=C(C(=O)N1N)C(C)(C)C

> <Molecular_Weight>
214.28795

> <Frequency>
1

$$$$

  SciTegic          2D

 29 29  0  0  0  0            999 V2000
    1.6852   -0.3846    0.0000 N   0  0
    1.3514    1.0778    0.0000 C   0  0
    0.0000    1.7286    0.0000 C   0  0
   -1.3515    1.0777    0.0000 C   0  0
   -1.6852   -0.3847    0.0000 C   0  0
   -0.7500   -1.5574    0.0000 C   0  0
    0.7500   -1.5574    0.0000 C   0  0
    3.1497   -0.7220    0.0000 C   0  0
    3.9674    0.1562    0.0000 O   0  0
    3.5900   -2.1568    0.0000 S   0  0
    5.0525   -2.4938    0.0000 C   0  0
    5.4929   -3.9285    0.0000 C   0  0
    1.1727    2.0616    0.0000 H   0  0
    2.2709    0.6846    0.0000 H   0  0
   -0.0301    0.7290    0.0000 H   0  0
   -0.8807    2.2023    0.0000 H   0  0
   -0.5888    0.4310    0.0000 H   0  0
   -2.2709    0.6846    0.0000 H   0  0
   -0.7040   -0.1916    0.0000 H   0  0
   -1.9511   -1.3487    0.0000 H   0  0
   -0.2892   -0.6699    0.0000 H   0  0
   -0.1621   -2.3663    0.0000 H   0  0
    0.3435   -0.6438    0.0000 H   0  0
    1.7490   -1.6021    0.0000 H   0  0
    4.7596   -1.5376    0.0000 H   0  0
    5.7340   -1.7619    0.0000 H   0  0
    6.4673   -4.1530    0.0000 H   0  0
    5.7858   -4.8846    0.0000 H   0  0
    4.8114   -4.6604    0.0000 H   0  0
  1  2  1  0
  1  7  1  0
  1  8  1  0
  2  3  1  0
  3  4  1  0
  4  5  1  0
  5  6  1  0
  6  7  1  0
  8  9  2  0
  8 10  1  0
 10 11  1  0
 11 12  1  0
  2 13  1  0
  2 14  1  0
  3 15  1  0
  3 16  1  0
  4 17  1  0
  4 18  1  0
  5 19  1  0
  5 20  1  0
  6 21  1  0
  6 22  1  0
  7 23  1  0
  7 24  1  0
 11 25  1  0
 11 26  1  0
 12 27  1  0
 12 28  1  0
 12 29  1  0
V    1 0
V    2 1
V    3 2
V    4 3
V    5 4
V    6 5
V    7 6
V    8 7
V    9 8
V   10 9
V   11 10
V   12 11
M  END
> <DSSTox_RID>
62346

> <DSSTox_CID>
4206

> <DSSTox_CID_Parent>
4206

> <DSSTox_Generic_SID>
24206

> <DSSTox_FileID>
423_TXCST2_v1a

> <STRUCTURE_Formula>
C9H17NOS

> <STRUCTURE_MolecularWeight>
187.3024

> <STRUCTURE_ChemicalType>
defined organic

> <STRUCTURE_TestedForm_DefinedOrganic>
parent

> <STRUCTURE_Shown>
tested chemical

> <TestSubstance_ChemicalName>
Molinate

> <TestSubstance_CASRN>
2212-67-1

> <TestSubstance_Description>
single chemical compound

> <STRUCTURE_ChemicalName_IUPAC>
S-ethyl azepane-1-carbothioate

> <STRUCTURE_SMILES>
O=C(SCC)N1CCCCCC1

> <STRUCTURE_Parent_SMILES>
O=C(SCC)N1CCCCCC1

> <STRUCTURE_InChIS>
InChI=1S/C9H17NOS/c1-2-12-9(11)10-7-5-3-4-6-8-10/h2-8H2,1H3

> <STRUCTURE_InChIKey>
DEDOPGXGGQYYMW-UHFFFAOYSA-N

> <Substance_modify_yyyymmdd>
20080429

> <Coord_Metals>
0

> <Index>
423

> <Canonical_Smiles>
CCSC(=O)N1CCCCCC1

> <Molecular_Weight>
187.30237

> <Frequency>
1

$$$$

  SciTegic          2D

 20 19  0  0  0  0            999 V2000
    2.6000    0.0000    0.0000 C   0  0
    5.2000    0.0000    0.0000 P   0  0
    3.9000    0.7500    0.0000 O   0  0
    1.3000    0.7500    0.0000 C   0  0
    5.2000    1.2000    0.0000 O   0  0
    2.6000   -1.2000    0.0000 Br  0  0
    0.2606    0.1503    0.0000 Br  0  0
    0.2609    1.3502    0.0000 Cl  0  0
    1.3000    1.9500    0.0000 Cl  0  0
    6.5000    0.7500    0.0000 O   0  0
    5.2000   -1.5007    0.0000 O   0  0
    3.9007   -2.2520    0.0000 C   0  0
    7.7999    0.0000    0.0000 C   0  0
    3.4659   -0.5001    0.0000 H   0  0
    3.9007   -3.2520    0.0000 H   0  0
    3.0345   -1.7523    0.0000 H   0  0
    3.0347   -2.7521    0.0000 H   0  0
    8.6661    0.4997    0.0000 H   0  0
    7.7999   -1.0000    0.0000 H   0  0
    8.6659   -0.5001    0.0000 H   0  0
  1  3  1  0
  1  4  1  0
  1  6  1  0
  2  3  1  0
  2  5  2  0
  2 10  1  0
  2 11  1  0
  4  7  1  0
  4  8  1  0
  4  9  1  0
 10 13  1  0
 11 12  1  0
  1 14  1  0
 12 15  1  0
 12 16  1  0
 12 17  1  0
 13 18  1  0
 13 19  1  0
 13 20  1  0
V    1 0
V    2 1
V    3 2
V    4 3
V    5 4
V    6 5
V    7 6
V    8 7
V    9 8
V   10 9
V   11 10
V   12 11
V   13 12
M  END
> <DSSTox_RID>
62411

> <DSSTox_CID>
4209

> <DSSTox_CID_Parent>
4209

> <DSSTox_Generic_SID>
24209

> <DSSTox_FileID>
424_TXCST2_v1a

> <STRUCTURE_Formula>
C4H7Br2Cl2O4P

> <STRUCTURE_MolecularWeight>
380.7837

> <STRUCTURE_ChemicalType>
defined organic

> <STRUCTURE_TestedForm_DefinedOrganic>
parent

> <STRUCTURE_Shown>
tested chemical

> <TestSubstance_ChemicalName>
Naled

> <TestSubstance_CASRN>
300-76-5

> <TestSubstance_Description>
single chemical compound

> <STRUCTURE_ChemicalName_IUPAC>
1,2-dibromo-2,2-dichloroethyl dimethyl phosphate

> <STRUCTURE_SMILES>
O=P(OC)(OC)OC(Br)C(Cl)(Cl)Br

> <STRUCTURE_Parent_SMILES>
O=P(OC)(OC)OC(Br)C(Cl)(Cl)Br

> <STRUCTURE_InChIS>
InChI=1S/C4H7Br2Cl2O4P/c1-10-13(9,11-2)12-3(5)4(6,7)8/h3H,1-2H3

> <STRUCTURE_InChIKey>
BUYMVQAILCEWRR-UHFFFAOYSA-N

> <Substance_modify_yyyymmdd>
20080429

> <Coord_Metals>
0

> <Index>
424

> <Canonical_Smiles>
COP(=O)(OC)OC(Br)C(Cl)(Cl)Br

> <Molecular_Weight>
380.78374

> <Frequency>
1

$$$$

  SciTegic          2D

 41 42  0  0  0  0            999 V2000
   -2.5812    5.2552    0.0000 C   0  0
   -1.2907    2.9981    0.0000 O   0  0
   -1.2964    1.4973    0.0000 C   0  0
   -2.5870    3.7544    0.0000 C   0  0
    0.0000    0.7486    0.0000 C   0  0
   -1.2790    6.0014    0.0000 N   0  0
   -3.6183    5.8589    0.0000 O   0  0
    0.0000   -0.7486    0.0000 C   0  0
   -2.6111    0.7486    0.0000 C   0  0
   -2.6111   -0.7486    0.0000 C   0  0
   -3.8899    3.0095    0.0000 C   0  0
    0.0188    5.2476    0.0000 C   0  0
   -1.2777    7.5022    0.0000 C   0  0
    1.2964    1.4973    0.0000 C   0  0
   -1.2964   -1.4973    0.0000 C   0  0
    1.2964   -1.4973    0.0000 C   0  0
    1.3210    5.9938    0.0000 C   0  0
   -2.5763    8.2546    0.0000 C   0  0
    2.5929    0.7486    0.0000 C   0  0
    2.5929   -0.7486    0.0000 C   0  0
   -1.7189    4.2508    0.0000 H   0  0
   -3.4756    1.2512    0.0000 H   0  0
   -3.4756   -1.2512    0.0000 H   0  0
   -3.8947    2.0095    0.0000 H   0  0
   -4.7536    3.5134    0.0000 H   0  0
   -4.7582    2.5136    0.0000 H   0  0
    0.0158    4.2476    0.0000 H   0  0
   -0.8486    4.7500    0.0000 H   0  0
   -0.4111    8.0012    0.0000 H   0  0
   -0.4122    7.0013    0.0000 H   0  0
    1.2964    2.4973    0.0000 H   0  0
   -1.2934   -2.4973    0.0000 H   0  0
    1.2964   -2.4973    0.0000 H   0  0
    2.1857    5.4915    0.0000 H   0  0
    1.3239    6.9938    0.0000 H   0  0
    2.1884    6.4914    0.0000 H   0  0
   -2.5754    9.2546    0.0000 H   0  0
   -3.4429    7.7557    0.0000 H   0  0
   -3.4418    8.7555    0.0000 H   0  0
    3.4589    1.2486    0.0000 H   0  0
    3.4589   -1.2486    0.0000 H   0  0
  1  4  1  0
  1  6  1  0
  1  7  2  0
  2  4  1  0
  2  3  1  0
  3  5  2  0
  3  9  1  0
  4 11  1  0
  5  8  1  0
  5 14  1  0
  6 12  1  0
  6 13  1  0
  8 16  1  0
  8 15  2  0
  9 10  2  0
 10 15  1  0
 12 17  1  0
 13 18  1  0
 14 19  2  0
 16 20  2  0
 19 20  1  0
  4 21  1  0
  9 22  1  0
 10 23  1  0
 11 24  1  0
 11 25  1  0
 11 26  1  0
 12 27  1  0
 12 28  1  0
 13 29  1  0
 13 30  1  0
 14 31  1  0
 15 32  1  0
 16 33  1  0
 17 34  1  0
 17 35  1  0
 17 36  1  0
 18 37  1  0
 18 38  1  0
 18 39  1  0
 19 40  1  0
 20 41  1  0
V    1 0
V    2 1
V    3 2
V    4 3
V    5 4
V    6 5
V    7 6
V    8 7
V    9 8
V   10 9
V   11 10
V   12 11
V   13 12
V   14 13
V   15 14
V   16 15
V   17 16
V   18 17
V   19 18
V   20 19
M  END
> <DSSTox_RID>
62412

> <DSSTox_CID>
4211

> <DSSTox_CID_Parent>
4211

> <DSSTox_Generic_SID>
24211

> <DSSTox_FileID>
425_TXCST2_v1a

> <STRUCTURE_Formula>
C17H21NO2

> <STRUCTURE_MolecularWeight>
271.3541

> <STRUCTURE_ChemicalType>
defined organic

> <STRUCTURE_TestedForm_DefinedOrganic>
parent

> <STRUCTURE_Shown>
tested chemical

> <TestSubstance_ChemicalName>
Napropamide

> <TestSubstance_CASRN>
15299-99-7

> <TestSubstance_Description>
single chemical compound

> <ChemicalNote>
mixture of (R,S) isomers; structure shown without stereochem

> <STRUCTURE_ChemicalName_IUPAC>
N,N-diethyl-2-(1-naphthyloxy)propanamide

> <STRUCTURE_SMILES>
CCN(CC)C(=O)C(C)Oc2cccc1ccccc12

> <STRUCTURE_Parent_SMILES>
CCN(CC)C(=O)C(C)Oc2cccc1ccccc12

> <STRUCTURE_InChIS>
InChI=1S/C17H21NO2/c1-4-18(5-2)17(19)13(3)20-16-12-8-10-14-9-6-7-11-15(14)16/h6-13H,4-5H2,1-3H3

> <STRUCTURE_InChIKey>
WXZVAROIGSFCFJ-UHFFFAOYSA-N

> <Substance_modify_yyyymmdd>
20080429

> <Coord_Metals>
0

> <Index>
425

> <Canonical_Smiles>
CCN(CC)C(=O)C(C)Oc1cccc2ccccc12

> <Molecular_Weight>
271.35414

> <Frequency>
1

$$$$

  SciTegic          2D

 14 14  0  0  0  0            999 V2000
    2.5988    1.5004    0.0000 C   0  0
    1.2990   -0.7500    0.0000 N   0  0
    1.2990    0.7500    0.0000 C   0  0
    0.0000   -1.5000    0.0000 C   0  0
    3.6384    0.9011    0.0000 Cl  0  0
    2.5984    2.7004    0.0000 Cl  0  0
    3.6377    2.1009    0.0000 Cl  0  0
    0.0000   -2.7000    0.0000 Cl  0  0
    0.0000    1.5000    0.0000 C   0  0
   -1.2990    0.7500    0.0000 C   0  0
   -1.2990   -0.7500    0.0000 C   0  0
    0.0000    2.5000    0.0000 H   0  0
   -2.1651    1.2500    0.0000 H   0  0
   -2.1651   -1.2500    0.0000 H   0  0
  1  3  1  0
  1  5  1  0
  1  6  1  0
  1  7  1  0
  2  3  2  0
  2  4  1  0
  3  9  1  0
  4  8  1  0
  4 11  2  0
  9 10  2  0
 10 11  1  0
  9 12  1  0
 10 13  1  0
 11 14  1  0
V    1 0
V    2 1
V    3 2
V    4 3
V    5 4
V    6 5
V    7 6
V    8 7
V    9 8
V   10 9
V   11 10
M  END
> <DSSTox_RID>
62340

> <DSSTox_CID>
4216

> <DSSTox_CID_Parent>
4216

> <DSSTox_Generic_SID>
24216

> <DSSTox_FileID>
426_TXCST2_v1a

> <STRUCTURE_Formula>
C6H3Cl4N

> <STRUCTURE_MolecularWeight>
230.9067

> <STRUCTURE_ChemicalType>
defined organic

> <STRUCTURE_TestedForm_DefinedOrganic>
parent

> <STRUCTURE_Shown>
tested chemical

> <TestSubstance_ChemicalName>
Nitrapyrin

> <TestSubstance_CASRN>
1929-82-4

> <TestSubstance_Description>
single chemical compound

> <STRUCTURE_ChemicalName_IUPAC>
2-chloro-6-(trichloromethyl)pyridine

> <STRUCTURE_SMILES>
ClC(Cl)(C1=NC(Cl)=CC=C1)Cl

> <STRUCTURE_Parent_SMILES>
ClC(Cl)(C1=NC(Cl)=CC=C1)Cl

> <STRUCTURE_InChIS>
InChI=1S/C6H3Cl4N/c7-5-3-1-2-4(11-5)6(8,9)10/h1-3H

> <STRUCTURE_InChIKey>
DCUJJWWUNKIJPH-UHFFFAOYSA-N

> <Substance_modify_yyyymmdd>
20080429

> <Coord_Metals>
0

> <Index>
426

> <Canonical_Smiles>
Clc1cccc(n1)C(Cl)(Cl)Cl

> <Molecular_Weight>
230.90671

> <Frequency>
1

$$$$

  SciTegic          2D

 29 30  0  0  0  0            999 V2000
    1.2990   -0.7500    0.0000 C   0  0
    1.2990    0.7500    0.0000 N   0  0
    0.0000   -1.5000    0.0000 C   0  0
    0.0000    1.5000    0.0000 N   0  0
   -1.2990   -0.7500    0.0000 C   0  0
    6.4978    0.7562    0.0000 C   0  0
   -1.2990    0.7500    0.0000 C   0  0
    2.5987    1.5004    0.0000 C   0  0
    5.1969    1.5046    0.0000 C   0  0
    3.8991    0.7525    0.0000 C   0  0
    2.3383   -1.3500    0.0000 O   0  0
    0.0000   -2.7000    0.0000 Cl  0  0
   -2.6003   -1.4978    0.0000 N   0  0
    6.5005   -0.4438    0.0000 F   0  0
    7.5359    1.3582    0.0000 F   0  0
    7.5383    0.1584    0.0000 F   0  0
    2.5964    3.0004    0.0000 C   0  0
    5.1945    3.0046    0.0000 C   0  0
    3.8943    3.7525    0.0000 C   0  0
   -3.8990   -0.7455    0.0000 C   0  0
   -2.1651    1.2500    0.0000 H   0  0
    3.9007   -0.2475    0.0000 H   0  0
   -2.6021   -2.4978    0.0000 H   0  0
    1.7296    3.4991    0.0000 H   0  0
    6.0597    3.5060    0.0000 H   0  0
    3.8927    4.7525    0.0000 H   0  0
   -4.7661   -1.2437    0.0000 H   0  0
   -4.7641   -0.2439    0.0000 H   0  0
   -3.8973    0.2545    0.0000 H   0  0
  1  2  1  0
  1  3  1  0
  1 11  2  0
  2  4  1  0
  2  8  1  0
  3  5  2  0
  3 12  1  0
  4  7  2  0
  5  7  1  0
  5 13  1  0
  6  9  1  0
  6 14  1  0
  6 15  1  0
  6 16  1  0
  8 10  1  0
  8 17  2  0
  9 10  2  0
  9 18  1  0
 13 20  1  0
 17 19  1  0
 18 19  2  0
  7 21  1  0
 10 22  1  0
 13 23  1  0
 17 24  1  0
 18 25  1  0
 19 26  1  0
 20 27  1  0
 20 28  1  0
 20 29  1  0
V    1 0
V    2 1
V    3 2
V    4 3
V    5 4
V    6 5
V    7 6
V    8 7
V    9 8
V   10 9
V   11 10
V   12 11
V   13 12
V   14 13
V   15 14
V   16 15
V   17 16
V   18 17
V   19 18
V   20 19
M  END
> <DSSTox_RID>
62321

> <DSSTox_CID>
4234

> <DSSTox_CID_Parent>
4234

> <DSSTox_Generic_SID>
24234

> <DSSTox_FileID>
427_TXCST2_v1a

> <STRUCTURE_Formula>
C12H9ClF3N3O

> <STRUCTURE_MolecularWeight>
303.6676

> <STRUCTURE_ChemicalType>
defined organic

> <STRUCTURE_TestedForm_DefinedOrganic>
parent

> <STRUCTURE_Shown>
tested chemical

> <TestSubstance_ChemicalName>
Norflurazon

> <TestSubstance_CASRN>
27314-13-2

> <TestSubstance_Description>
single chemical compound

> <STRUCTURE_ChemicalName_IUPAC>
4-chloro-5-(methylamino)-2-[3-(trifluoromethyl)phenyl]pyridazin-3(2H)-one

> <STRUCTURE_SMILES>
FC(F)(F)c1cc(ccc1)N2\N=C/C(NC)=C(/Cl)C2=O

> <STRUCTURE_Parent_SMILES>
FC(F)(F)c1cc(ccc1)N2\N=C/C(NC)=C(/Cl)C2=O

> <STRUCTURE_InChIS>
InChI=1S/C12H9ClF3N3O/c1-17-9-6-18-19(11(20)10(9)13)8-4-2-3-7(5-8)12(14,15)16/h2-6,17H,1H3

> <STRUCTURE_InChIKey>
NVGOPFQZYCNLDU-UHFFFAOYSA-N

> <Substance_modify_yyyymmdd>
20080429

> <Coord_Metals>
0

> <Index>
427

> <Canonical_Smiles>
CNC1=C(Cl)C(=O)N(N=C1)c2cccc(c2)C(F)(F)F

> <Molecular_Weight>
303.66756

> <Frequency>
1

$$$$

  SciTegic          2D

 37 39  0  0  0  0            999 V2000
    3.4069   -6.0827    0.0000 N   0  0
    1.4158   -4.4109    0.0000 Si  0  0
    4.8937   -7.9746    0.0000 N   0  0
    2.5607   -7.3057    0.0000 N   0  0
    2.8936   -4.6724    0.0000 C   0  0
    4.8413   -6.4755    0.0000 C   0  0
    3.4842   -8.4877    0.0000 C   0  0
    0.9025   -3.0005    0.0000 C   0  0
    0.4508   -5.5602    0.0000 C   0  0
   -0.5748   -3.2610    0.0000 C   0  0
    1.4146   -6.7096    0.0000 C   0  0
    1.4155   -1.5910    0.0000 C   0  0
   -1.0265   -5.8202    0.0000 C   0  0
   -1.0259   -0.7024    0.0000 C   0  0
   -0.5762   -8.3789    0.0000 C   0  0
    0.4513   -0.4419    0.0000 C   0  0
   -1.5400   -7.2296    0.0000 C   0  0
   -1.5389   -2.1119    0.0000 C   0  0
    0.9011   -8.1189    0.0000 C   0  0
   -1.7972    0.2168    0.0000 F   0  0
   -0.9870   -9.5064    0.0000 F   0  0
    2.3974   -3.2373    0.0000 C   0  0
    3.5367   -3.9066    0.0000 H   0  0
    3.8784   -4.8462    0.0000 H   0  0
    5.6257   -5.8552    0.0000 H   0  0
    3.2085   -9.4489    0.0000 H   0  0
   -0.9168   -4.2007    0.0000 H   0  0
    2.3994   -6.5362    0.0000 H   0  0
    2.4003   -1.4174    0.0000 H   0  0
   -1.6691   -5.0539    0.0000 H   0  0
    0.7933    0.4978    0.0000 H   0  0
   -2.5249   -7.4029    0.0000 H   0  0
   -2.5237   -2.2856    0.0000 H   0  0
    1.5436   -8.8852    0.0000 H   0  0
    2.0545   -2.2979    0.0000 H   0  0
    3.3824   -3.4097    0.0000 H   0  0
    3.0393   -2.4706    0.0000 H   0  0
  1  4  1  0
  1  5  1  0
  1  6  1  0
  2  5  1  0
  2  8  1  0
  2  9  1  0
  2 22  1  0
  3  6  2  0
  3  7  1  0
  4  7  2  0
  8 10  2  0
  8 12  1  0
  9 11  2  0
  9 13  1  0
 10 18  1  0
 11 19  1  0
 12 16  2  0
 13 17  2  0
 14 16  1  0
 14 20  1  0
 14 18  2  0
 15 17  1  0
 15 21  1  0
 15 19  2  0
  5 23  1  0
  5 24  1  0
  6 25  1  0
  7 26  1  0
 10 27  1  0
 11 28  1  0
 12 29  1  0
 13 30  1  0
 16 31  1  0
 17 32  1  0
 18 33  1  0
 19 34  1  0
 22 35  1  0
 22 36  1  0
 22 37  1  0
V    1 0
V    2 1
V    3 2
V    4 3
V    5 4
V    6 5
V    7 6
V    8 7
V    9 8
V   10 9
V   11 10
V   12 11
V   13 12
V   14 13
V   15 14
V   16 15
V   17 16
V   18 17
V   19 18
V   20 19
V   21 20
V   22 21
M  END
> <DSSTox_RID>
62314

> <DSSTox_CID>
4235

> <DSSTox_Generic_SID>
24235

> <DSSTox_FileID>
428_TXCST2_v1a

> <STRUCTURE_Formula>
C16H15F2N3Si

> <STRUCTURE_MolecularWeight>
315.3927

> <STRUCTURE_ChemicalType>
organometallic

> <STRUCTURE_Shown>
tested chemical

> <TestSubstance_ChemicalName>
Flusilazole

> <TestSubstance_CASRN>
85509-19-9

> <TestSubstance_Description>
single chemical compound

> <STRUCTURE_ChemicalName_IUPAC>
1-[[Bis(4-fluorophenyl)methylsilyl]methyl]-1H-1,2,4-triazole

> <STRUCTURE_SMILES>
C[Si](Cn1cncn1)(c2ccc(F)cc2)c3ccc(F)cc3

> <STRUCTURE_InChIS>
InChI=1S/C16H15F2N3Si/c1-22(12-21-11-19-10-20-21,15-6-2-13(17)3-7-15)16-8-4-14(18)5-9-16/h2-11H,12H2,1H3

> <STRUCTURE_InChIKey>
FQKUGOMFVDPBIZ-UHFFFAOYSA-N

> <Substance_modify_yyyymmdd>
20080429

> <Coord_Metals>
0

> <Index>
428

> <Canonical_Smiles>
C[Si](Cn1cncn1)(c2ccc(F)cc2)c3ccc(F)cc3

> <Molecular_Weight>
315.3927

> <Frequency>
1

$$$$

  SciTegic          2D

 41 41  0  0  0  0            999 V2000
    1.2990   -0.7500    0.0000 C   0  0
    0.0000    1.5000    0.0000 C   0  0
   -2.5988   -1.5004    0.0000 S   0  0
    1.2990    0.7500    0.0000 C   0  0
    2.5973   -1.5031    0.0000 N   0  0
   -0.0031    3.0008    0.0000 N   0  0
   -1.2990   -0.7500    0.0000 C   0  0
   -1.2990    0.7500    0.0000 C   0  0
    0.0000   -1.5000    0.0000 C   0  0
    2.5972    1.5031    0.0000 N   0  0
   -3.6378   -0.9001    0.0000 O   0  0
   -3.6383   -2.0999    0.0000 O   0  0
    2.5956   -2.7031    0.0000 O   0  0
    1.0345    3.6036    0.0000 O   0  0
   -1.0438    3.5984    0.0000 O   0  0
    3.4642   -1.0046    0.0000 O   0  0
   -2.5997   -3.0012    0.0000 N   0  0
    2.5951    3.0039    0.0000 C   0  0
    3.8968    0.7523    0.0000 C   0  0
    3.8933    3.7570    0.0000 C   0  0
    5.1972    1.5015    0.0000 C   0  0
    3.8912    5.2578    0.0000 C   0  0
    6.4968    0.7507    0.0000 C   0  0
   -2.1651    1.2500    0.0000 H   0  0
    0.0000   -2.5000    0.0000 H   0  0
   -3.4658   -3.5012    0.0000 H   0  0
   -1.7339   -3.5015    0.0000 H   0  0
    1.7299    2.5026    0.0000 H   0  0
    1.7282    3.5024    0.0000 H   0  0
    3.0305    0.2527    0.0000 H   0  0
    3.8961   -0.2477    0.0000 H   0  0
    3.8952    2.7570    0.0000 H   0  0
    4.7602    3.2585    0.0000 H   0  0
    4.3316    2.0022    0.0000 H   0  0
    5.1979    2.5015    0.0000 H   0  0
    4.7561    5.7596    0.0000 H   0  0
    3.8892    6.2578    0.0000 H   0  0
    3.0243    5.7563    0.0000 H   0  0
    7.3632    1.2498    0.0000 H   0  0
    7.3624    0.2500    0.0000 H   0  0
    6.4961   -0.2493    0.0000 H   0  0
  1  4  1  0
  1  5  1  0
  1  9  2  0
  2  4  2  0
  2  6  1  0
  2  8  1  0
  3  7  1  0
  3 11  2  0
  3 12  2  0
  3 17  1  0
  4 10  1  0
  5 13  2  0
  5 16  2  0
  6 14  2  0
  6 15  2  0
  7  9  1  0
  7  8  2  0
 10 18  1  0
 10 19  1  0
 18 20  1  0
 19 21  1  0
 20 22  1  0
 21 23  1  0
  8 24  1  0
  9 25  1  0
 17 26  1  0
 17 27  1  0
 18 28  1  0
 18 29  1  0
 19 30  1  0
 19 31  1  0
 20 32  1  0
 20 33  1  0
 21 34  1  0
 21 35  1  0
 22 36  1  0
 22 37  1  0
 22 38  1  0
 23 39  1  0
 23 40  1  0
 23 41  1  0
V    1 0
V    2 1
V    3 2
V    4 3
V    5 4
V    6 5
V    7 6
V    8 7
V    9 8
V   10 9
V   11 10
V   12 11
V   13 12
V   14 13
V   15 14
V   16 15
V   17 16
V   18 17
V   19 18
V   20 19
V   21 20
V   22 21
V   23 22
M  END
> <DSSTox_RID>
65443

> <DSSTox_CID>
4238

> <DSSTox_CID_Parent>
4238

> <DSSTox_Generic_SID>
24238

> <DSSTox_FileID>
429_TXCST2_v1a

> <STRUCTURE_Formula>
C12H18N4O6S

> <STRUCTURE_MolecularWeight>
346.3595

> <STRUCTURE_ChemicalType>
defined organic

> <STRUCTURE_TestedForm_DefinedOrganic>
parent

> <STRUCTURE_Shown>
tested chemical

> <TestSubstance_ChemicalName>
Oryzalin

> <TestSubstance_CASRN>
19044-88-3

> <TestSubstance_Description>
single chemical compound

> <Source_ChemicalNote>
tested chemical contained 0.3% water (0.06 moles H2O)

> <STRUCTURE_ChemicalName_IUPAC>
4-(dipropylamino)-3,5-dinitrobenzenesulfonamide

> <STRUCTURE_SMILES>
[O-][N+](=O)c1cc(cc([N+]([O-])=O)c1N(CCC)CCC)S(N)(=O)=O

> <STRUCTURE_Parent_SMILES>
[O-][N+](=O)c1cc(cc([N+]([O-])=O)c1N(CCC)CCC)S(N)(=O)=O

> <STRUCTURE_InChIS>
InChI=1S/C12H18N4O6S/c1-3-5-14(6-4-2)12-10(15(17)18)7-9(23(13,21)22)8-11(12)16(19)20/h7-8H,3-6H2,1-2H3,(H2,13,21,22)

> <STRUCTURE_InChIKey>
UNAHYJYOSSSJHH-UHFFFAOYSA-N

> <Substance_modify_yyyymmdd>
20080429

> <Coord_Metals>
0

> <Index>
429

> <Canonical_Smiles>
CCCN(CCC)c1c(cc(cc1N(=O)=O)S(=O)(=O)N)N(=O)=O

> <Molecular_Weight>
346.35952

> <Frequency>
1

$$$$

  SciTegic          2D

 40 41  0  0  0  0            999 V2000
    2.5987   -1.5004    0.0000 N   0  0
    2.7343   -2.9815    0.0000 N   0  0
    3.9511   -0.8815    0.0000 C   0  0
    4.9531   -1.9978    0.0000 O   0  0
    4.2010   -3.2956    0.0000 C   0  0
    1.2990   -0.7500    0.0000 C   0  0
    1.2990    0.7500    0.0000 C   0  0
    0.0000   -1.5000    0.0000 C   0  0
    0.0000    1.5000    0.0000 C   0  0
   -1.2990   -0.7500    0.0000 C   0  0
   -1.2990    0.7500    0.0000 C   0  0
    4.8082   -4.6653    0.0000 C   0  0
    4.1955    0.2934    0.0000 O   0  0
   -0.0031    3.0008    0.0000 O   0  0
    0.0000   -2.7000    0.0000 Cl  0  0
   -2.3383    1.3500    0.0000 Cl  0  0
   -1.3039    3.7494    0.0000 C   0  0
    3.9249   -5.8787    0.0000 C   0  0
    6.3006   -4.8241    0.0000 C   0  0
    3.2872   -4.5006    0.0000 C   0  0
   -1.3070    5.2502    0.0000 C   0  0
   -2.6023    2.9967    0.0000 C   0  0
    2.1651    1.2500    0.0000 H   0  0
   -2.1651   -1.2500    0.0000 H   0  0
   -0.4388    4.2509    0.0000 H   0  0
    4.3302   -6.7929    0.0000 H   0  0
    2.9305   -5.7729    0.0000 H   0  0
    3.3360   -6.6869    0.0000 H   0  0
    6.7067   -5.7379    0.0000 H   0  0
    6.8891   -4.0156    0.0000 H   0  0
    7.2950   -4.9294    0.0000 H   0  0
    2.8827   -3.5861    0.0000 H   0  0
    2.2929   -4.3934    0.0000 H   0  0
    2.6971   -5.3080    0.0000 H   0  0
   -2.1738    5.7490    0.0000 H   0  0
   -0.4419    5.7517    0.0000 H   0  0
   -1.3086    6.2502    0.0000 H   0  0
   -2.6012    1.9967    0.0000 H   0  0
   -3.4690    3.4955    0.0000 H   0  0
   -3.4677    2.4956    0.0000 H   0  0
  1  2  1  0
  1  3  1  0
  1  6  1  0
  2  5  2  0
  3  4  1  0
  3 13  2  0
  4  5  1  0
  5 12  1  0
  6  7  1  0
  6  8  2  0
  7  9  2  0
  8 10  1  0
  8 15  1  0
  9 14  1  0
  9 11  1  0
 10 11  2  0
 11 16  1  0
 12 18  1  0
 12 19  1  0
 12 20  1  0
 14 17  1  0
 17 21  1  0
 17 22  1  0
  7 23  1  0
 10 24  1  0
 17 25  1  0
 18 26  1  0
 18 27  1  0
 18 28  1  0
 19 29  1  0
 19 30  1  0
 19 31  1  0
 20 32  1  0
 20 33  1  0
 20 34  1  0
 21 35  1  0
 21 36  1  0
 21 37  1  0
 22 38  1  0
 22 39  1  0
 22 40  1  0
V    1 0
V    2 1
V    3 2
V    4 3
V    5 4
V    6 5
V    7 6
V    8 7
V    9 8
V   10 9
V   11 10
V   12 11
V   13 12
V   14 13
V   15 14
V   16 15
V   17 16
V   18 17
V   19 18
V   20 19
V   21 20
V   22 21
M  END
> <DSSTox_RID>
65280

> <DSSTox_CID>
4239

> <DSSTox_CID_Parent>
4239

> <DSSTox_Generic_SID>
24239

> <DSSTox_FileID>
430_TXCST2_v1a

> <STRUCTURE_Formula>
C15H18Cl2N2O3

> <STRUCTURE_MolecularWeight>
345.221

> <STRUCTURE_ChemicalType>
defined organic

> <STRUCTURE_TestedForm_DefinedOrganic>
parent

> <STRUCTURE_Shown>
tested chemical

> <TestSubstance_ChemicalName>
Oxadiazon

> <TestSubstance_CASRN>
19666-30-9

> <TestSubstance_Description>
single chemical compound

> <STRUCTURE_ChemicalName_IUPAC>
5-tert-butyl-3-(2,4-dichloro-5-isopropoxyphenyl)-1,3,4-oxadiazol-2(3H)-one

> <STRUCTURE_SMILES>
O=C2O\C(=N/N2c1cc(OC(C)C)c(Cl)cc1Cl)C(C)(C)C

> <STRUCTURE_Parent_SMILES>
O=C2O\C(=N/N2c1cc(OC(C)C)c(Cl)cc1Cl)C(C)(C)C

> <STRUCTURE_InChIS>
InChI=1S/C15H18Cl2N2O3/c1-8(2)21-12-7-11(9(16)6-10(12)17)19-14(20)22-13(18-19)15(3,4)5/h6-8H,1-5H3

> <STRUCTURE_InChIKey>
CHNUNORXWHYHNE-UHFFFAOYSA-N

> <Substance_modify_yyyymmdd>
20080429

> <Coord_Metals>
0

> <Index>
430

> <Canonical_Smiles>
CC(C)Oc1cc(N2N=C(OC2=O)C(C)(C)C)c(Cl)cc1Cl

> <Molecular_Weight>
345.22102

> <Frequency>
1

$$$$

  SciTegic          2D

 35 36  0  0  0  0            999 V2000
    2.5973   -1.5031    0.0000 N   0  0
    1.2990   -0.7500    0.0000 C   0  0
   -7.7891   -1.5185    0.0000 C   0  0
    1.2990    0.7500    0.0000 C   0  0
   -6.4920   -0.7636    0.0000 C   0  0
   -3.8990    0.7455    0.0000 C   0  0
   -5.2007    1.4909    0.0000 C   0  0
    0.0000    1.5000    0.0000 C   0  0
    0.0000   -1.5000    0.0000 C   0  0
   -6.4972    0.7364    0.0000 C   0  0
    2.5956   -2.7031    0.0000 O   0  0
   -2.6003    1.4977    0.0000 O   0  0
    3.6375   -0.9049    0.0000 O   0  0
   -1.2990    0.7500    0.0000 C   0  0
   -5.1903   -1.5091    0.0000 C   0  0
   -3.8939   -0.7546    0.0000 C   0  0
   -7.7857   -2.7185    0.0000 F   0  0
   -8.8302   -0.9218    0.0000 F   0  0
   -8.8266   -2.1216    0.0000 F   0  0
   -1.2990   -0.7500    0.0000 C   0  0
   -5.2049    2.6909    0.0000 Cl  0  0
    2.5972    1.5031    0.0000 O   0  0
    2.5951    3.0039    0.0000 C   0  0
    3.8933    3.7570    0.0000 C   0  0
    0.0000    2.5000    0.0000 H   0  0
    0.0000   -2.5000    0.0000 H   0  0
   -7.3649    1.2334    0.0000 H   0  0
   -5.1869   -2.5091    0.0000 H   0  0
   -3.0262   -1.2516    0.0000 H   0  0
   -2.1651   -1.2500    0.0000 H   0  0
    1.7282    3.5024    0.0000 H   0  0
    1.7299    2.5026    0.0000 H   0  0
    3.8919    4.7570    0.0000 H   0  0
    4.7602    3.2585    0.0000 H   0  0
    4.7585    4.2584    0.0000 H   0  0
  1  2  1  0
  1 11  2  0
  1 13  2  0
  2  4  1  0
  2  9  2  0
  3  5  1  0
  3 17  1  0
  3 18  1  0
  3 19  1  0
  4  8  2  0
  4 22  1  0
  5 15  2  0
  5 10  1  0
  6 12  1  0
  6  7  1  0
  6 16  2  0
  7 10  2  0
  7 21  1  0
  8 14  1  0
  9 20  1  0
 12 14  1  0
 14 20  2  0
 15 16  1  0
 22 23  1  0
 23 24  1  0
  8 25  1  0
  9 26  1  0
 10 27  1  0
 15 28  1  0
 16 29  1  0
 20 30  1  0
 23 31  1  0
 23 32  1  0
 24 33  1  0
 24 34  1  0
 24 35  1  0
V    1 0
V    2 1
V    3 2
V    4 3
V    5 4
V    6 5
V    7 6
V    8 7
V    9 8
V   10 9
V   11 10
V   12 11
V   13 12
V   14 13
V   15 14
V   16 15
V   17 16
V   18 17
V   19 18
V   20 19
V   21 20
V   22 21
V   23 22
V   24 23
M  END
> <DSSTox_RID>
62347

> <DSSTox_CID>
4241

> <DSSTox_CID_Parent>
4241

> <DSSTox_Generic_SID>
24241

> <DSSTox_FileID>
431_TXCST2_v1a

> <STRUCTURE_Formula>
C15H11ClF3NO4

> <STRUCTURE_MolecularWeight>
361.7003

> <STRUCTURE_ChemicalType>
defined organic

> <STRUCTURE_TestedForm_DefinedOrganic>
parent

> <STRUCTURE_Shown>
tested chemical

> <TestSubstance_ChemicalName>
Oxyfluorfen

> <TestSubstance_CASRN>
42874-03-3

> <TestSubstance_Description>
single chemical compound

> <STRUCTURE_ChemicalName_IUPAC>
2-chloro-1-(3-ethoxy-4-nitrophenoxy)-4-(trifluoromethyl)benzene

> <STRUCTURE_SMILES>
Clc2cc(ccc2Oc1ccc([N+]([O-])=O)c(OCC)c1)C(F)(F)F

> <STRUCTURE_Parent_SMILES>
Clc2cc(ccc2Oc1ccc([N+]([O-])=O)c(OCC)c1)C(F)(F)F

> <STRUCTURE_InChIS>
InChI=1S/C15H11ClF3NO4/c1-2-23-14-8-10(4-5-12(14)20(21)22)24-13-6-3-9(7-11(13)16)15(17,18)19/h3-8H,2H2,1H3

> <STRUCTURE_InChIKey>
OQMBBFQZGJFLBU-UHFFFAOYSA-N

> <Substance_modify_yyyymmdd>
20080429

> <Coord_Metals>
0

> <Index>
431

> <Canonical_Smiles>
CCOc1cc(Oc2ccc(cc2Cl)C(F)(F)F)ccc1N(=O)=O

> <Molecular_Weight>
361.70034

> <Frequency>
1

$$$$

  SciTegic          2D

 40 41  0  0  0  0            999 V2000
    2.7161   -4.4600    0.0000 N   0  0
    1.7513   -3.3103    0.0000 C   0  0
    4.7602   -5.7294    0.0000 N   0  0
    2.3391   -5.8987    0.0000 N   0  0
    0.2735   -3.5714    0.0000 C   0  0
    4.1983   -4.3386    0.0000 C   0  0
    3.6111   -6.6935    0.0000 C   0  0
   -0.2389   -4.9820    0.0000 C   0  0
    2.7153   -2.1600    0.0000 C   0  0
    2.2020   -0.7497    0.0000 C   0  0
   -0.6912   -2.4217    0.0000 O   0  0
    0.2736    1.5484    0.0000 C   0  0
   -0.4977    2.4677    0.0000 Cl  0  0
    2.7150    0.6598    0.0000 C   0  0
    0.7248   -1.0102    0.0000 C   0  0
    1.7508    1.8089    0.0000 C   0  0
   -0.2394    0.1389    0.0000 C   0  0
   -1.7166   -5.2445    0.0000 C   0  0
   -1.2257   -3.8128    0.0000 C   0  0
    0.7268   -6.1308    0.0000 C   0  0
    1.4095   -4.2501    0.0000 H   0  0
   -0.7113   -3.7454    0.0000 H   0  0
    4.7231   -3.4874    0.0000 H   0  0
    3.6809   -7.6911    0.0000 H   0  0
    3.3580   -1.3939    0.0000 H   0  0
    3.7002   -2.3334    0.0000 H   0  0
   -0.3498   -1.4818    0.0000 H   0  0
    3.6998    0.8335    0.0000 H   0  0
    0.3828   -1.9499    0.0000 H   0  0
    2.0929    2.7486    0.0000 H   0  0
   -1.2242   -0.0348    0.0000 H   0  0
   -2.0581   -6.1845    0.0000 H   0  0
   -2.3602   -4.4791    0.0000 H   0  0
   -2.7013   -5.4190    0.0000 H   0  0
   -2.2101   -3.9886    0.0000 H   0  0
   -1.8703   -3.0483    0.0000 H   0  0
   -0.8860   -2.8723    0.0000 H   0  0
    0.3863   -7.0710    0.0000 H   0  0
    1.7114   -5.9559    0.0000 H   0  0
   -0.2577   -6.3058    0.0000 H   0  0
  2  1  1  0
  1  4  1  0
  1  6  1  0
  2  5  1  0
  2  9  1  0
  3  6  2  0
  3  7  1  0
  4  7  2  0
  5  8  1  0
  5 11  1  0
  8 18  1  0
  8 19  1  0
  8 20  1  0
  9 10  1  0
 10 14  1  0
 10 15  2  0
 12 17  2  0
 12 13  1  0
 12 16  1  0
 14 16  2  0
 15 17  1  0
  2 21  1  0
  5 22  1  0
  6 23  1  0
  7 24  1  0
  9 25  1  0
  9 26  1  0
 11 27  1  0
 14 28  1  0
 15 29  1  0
 16 30  1  0
 17 31  1  0
 18 32  1  0
 18 33  1  0
 18 34  1  0
 19 35  1  0
 19 36  1  0
 19 37  1  0
 20 38  1  0
 20 39  1  0
 20 40  1  0
V    1 0
V    2 1
V    3 2
V    4 3
V    5 4
V    6 5
V    7 6
V    8 7
V    9 8
V   10 9
V   11 10
V   12 11
V   13 12
V   14 13
V   15 14
V   16 15
V   17 16
V   18 17
V   19 18
V   20 19
M  END
> <DSSTox_RID>
65444

> <DSSTox_CID>
4242

> <DSSTox_CID_Parent>
4242

> <DSSTox_Generic_SID>
24242

> <DSSTox_FileID>
432_TXCST2_v1a

> <STRUCTURE_Formula>
C15H20ClN3O

> <STRUCTURE_MolecularWeight>
293.7918

> <STRUCTURE_ChemicalType>
defined organic

> <STRUCTURE_TestedForm_DefinedOrganic>
parent

> <STRUCTURE_Shown>
representative isomer in mixture

> <TestSubstance_ChemicalName>
Paclobutrazol

> <TestSubstance_CASRN>
76738-62-0

> <TestSubstance_Description>
mixture or formulation

> <ChemicalNote>
mixture of (2S,3S) and (2R,3R); structure shown (2S,3S); stereochem

> <Source_ChemicalNote>
tested chemical contained 0.03% water

> <STRUCTURE_ChemicalName_IUPAC>
(2S,3S)-1-(4-chlorophenyl)-4,4-dimethyl-2-(1H-1,2,4-triazol-1-yl)pentan-3-ol

> <STRUCTURE_SMILES>
O[C@H]([C@H](Cc1ccc(Cl)cc1)n2cncn2)C(C)(C)C

> <STRUCTURE_Parent_SMILES>
O[C@H]([C@H](Cc1ccc(Cl)cc1)n2cncn2)C(C)(C)C

> <STRUCTURE_InChIS>
InChI=1S/C15H20ClN3O/c1-15(2,3)14(20)13(19-10-17-9-18-19)8-11-4-6-12(16)7-5-11/h4-7,9-10,13-14,20H,8H2,1-3H3/t13-,14+/m0/s1

> <STRUCTURE_InChIKey>
RMOGWMIKYWRTKW-UONOGXRCSA-N

> <Substance_modify_yyyymmdd>
20080429

> <Coord_Metals>
0

> <Index>
432

> <Canonical_Smiles>
CC(C)(C)C(O)C(Cc1ccc(Cl)cc1)n2cncn2

> <Molecular_Weight>
293.7918

> <Frequency>
1

$$$$

  SciTegic          2D

 39 39  0  0  0  0            999 V2000
    1.2990   -0.7500    0.0000 C   0  0
    0.0000    1.5000    0.0000 C   0  0
    1.2990    0.7500    0.0000 C   0  0
    2.5973   -1.5031    0.0000 N   0  0
   -0.5162    2.9093    0.0000 N   0  0
   -1.2990    0.7500    0.0000 C   0  0
    0.0000   -1.5000    0.0000 C   0  0
   -1.2990   -0.7500    0.0000 C   0  0
    2.5972    1.5031    0.0000 N   0  0
    2.5956   -2.7031    0.0000 O   0  0
   -1.6983    3.1160    0.0000 O   0  0
    0.2535    3.8299    0.0000 O   0  0
    3.6375   -0.9049    0.0000 O   0  0
    2.5951    3.0039    0.0000 C   0  0
   -2.5988    1.5004    0.0000 C   0  0
   -2.5988   -1.5004    0.0000 C   0  0
    1.2947    3.7533    0.0000 C   0  0
    3.8939    3.7557    0.0000 C   0  0
    1.2926    5.2541    0.0000 C   0  0
    5.1950    3.0076    0.0000 C   0  0
    0.0000   -2.5000    0.0000 H   0  0
    3.4641    1.0046    0.0000 H   0  0
    1.7296    2.5030    0.0000 H   0  0
   -2.5994    2.5004    0.0000 H   0  0
   -3.4647    1.0001    0.0000 H   0  0
   -3.4651    2.0000    0.0000 H   0  0
   -3.4651   -1.0010    0.0000 H   0  0
   -2.5985   -2.5004    0.0000 H   0  0
   -3.4646   -2.0008    0.0000 H   0  0
    1.2957    2.7533    0.0000 H   0  0
    0.4293    3.2523    0.0000 H   0  0
    4.7592    4.2571    0.0000 H   0  0
    3.8925    4.7557    0.0000 H   0  0
    0.4262    5.7534    0.0000 H   0  0
    1.2916    6.2541    0.0000 H   0  0
    2.1581    5.7551    0.0000 H   0  0
    6.0605    3.5086    0.0000 H   0  0
    6.0617    2.5087    0.0000 H   0  0
    5.1964    2.0076    0.0000 H   0  0
  1  3  1  0
  1  4  1  0
  1  7  2  0
  2  3  2  0
  2  5  1  0
  2  6  1  0
  3  9  1  0
  4 10  2  0
  4 13  2  0
  5 11  2  0
  5 12  2  0
  6  8  2  0
  6 15  1  0
  7  8  1  0
  8 16  1  0
  9 14  1  0
 14 17  1  0
 14 18  1  0
 17 19  1  0
 18 20  1  0
  7 21  1  0
  9 22  1  0
 14 23  1  0
 15 24  1  0
 15 25  1  0
 15 26  1  0
 16 27  1  0
 16 28  1  0
 16 29  1  0
 17 30  1  0
 17 31  1  0
 18 32  1  0
 18 33  1  0
 19 34  1  0
 19 35  1  0
 19 36  1  0
 20 37  1  0
 20 38  1  0
 20 39  1  0
V    1 0
V    2 1
V    3 2
V    4 3
V    5 4
V    6 5
V    7 6
V    8 7
V    9 8
V   10 9
V   11 10
V   12 11
V   13 12
V   14 13
V   15 14
V   16 15
V   17 16
V   18 17
V   19 18
V   20 19
M  END
> <DSSTox_RID>
66770

> <DSSTox_CID>
4245

> <DSSTox_CID_Parent>
4245

> <DSSTox_Generic_SID>
24245

> <DSSTox_FileID>
433_TXCST2_v1a

> <STRUCTURE_Formula>
C13H19N3O4

> <STRUCTURE_MolecularWeight>
281.3077

> <STRUCTURE_ChemicalType>
defined organic

> <STRUCTURE_TestedForm_DefinedOrganic>
parent

> <STRUCTURE_Shown>
tested chemical

> <TestSubstance_ChemicalName>
Pendimethalin

> <TestSubstance_CASRN>
40487-42-1

> <TestSubstance_Description>
single chemical compound

> <Source_ChemicalNote>
tested chemical contained 0.04% water (0.01 moles H2O)

> <STRUCTURE_ChemicalName_IUPAC>
N-(1-ethylpropyl)-3,4-dimethyl-2,6-dinitroaniline

> <STRUCTURE_SMILES>
[O-][N+](=O)c1c(C)c(C)cc([N+]([O-])=O)c1NC(CC)CC

> <STRUCTURE_Parent_SMILES>
[O-][N+](=O)c1c(C)c(C)cc([N+]([O-])=O)c1NC(CC)CC

> <STRUCTURE_InChIS>
InChI=1S/C13H19N3O4/c1-5-10(6-2)14-12-11(15(17)18)7-8(3)9(4)13(12)16(19)20/h7,10,14H,5-6H2,1-4H3

> <STRUCTURE_InChIKey>
CHIFOSRWCNZCFN-UHFFFAOYSA-N

> <Substance_modify_yyyymmdd>
20080429

> <Coord_Metals>
0

> <Index>
433

> <Canonical_Smiles>
CCC(CC)Nc1c(cc(C)c(C)c1N(=O)=O)N(=O)=O

> <Molecular_Weight>
281.30766

> <Frequency>
1

$$$$

  SciTegic          2D

 24 26  0  0  0  0            999 V2000
   -0.8205    0.0000    0.0000 C   0  0
    0.4558    0.6928    0.0000 C   0  0
    1.7503    0.0000    0.0000 C   0  0
   -0.8205   -1.5498    0.0000 C   0  0
    0.4558   -2.2973    0.0000 C   0  0
    1.7503   -1.5498    0.0000 C   0  0
   -2.1332    0.6928    0.0000 C   0  0
    0.4558    2.1879    0.0000 C   0  0
    3.0631    0.6928    0.0000 C   0  0
   -2.1332   -2.2973    0.0000 C   0  0
    1.7503    2.9537    0.0000 C   0  0
   -3.4277    0.0000    0.0000 C   0  0
   -3.4277   -1.5498    0.0000 C   0  0
    3.0631    2.1879    0.0000 C   0  0
    0.4527   -3.2973    0.0000 H   0  0
    2.6164   -2.0497    0.0000 H   0  0
   -2.1361    1.6928    0.0000 H   0  0
   -0.4128    2.6833    0.0000 H   0  0
    3.9194    0.1765    0.0000 H   0  0
   -2.1362   -3.2973    0.0000 H   0  0
    1.7473    3.9537    0.0000 H   0  0
   -4.2856    0.5139    0.0000 H   0  0
   -4.2937   -2.0497    0.0000 H   0  0
    3.9302    2.6860    0.0000 H   0  0
  1  2  1  0
  1  4  2  0
  1  7  1  0
  2  3  2  0
  2  8  1  0
  3  9  1  0
  3  6  1  0
  4  5  1  0
  4 10  1  0
  5  6  2  0
  7 12  2  0
  8 11  2  0
  9 14  2  0
 10 13  2  0
 11 14  1  0
 12 13  1  0
  5 15  1  0
  6 16  1  0
  7 17  1  0
  8 18  1  0
  9 19  1  0
 10 20  1  0
 11 21  1  0
 12 22  1  0
 13 23  1  0
 14 24  1  0
V    1 0
V    2 1
V    3 2
V    4 3
V    5 4
V    6 5
V    7 6
V    8 7
V    9 8
V   10 9
V   11 10
V   12 11
V   13 12
V   14 13
M  END
> <DSSTox_RID>
65445

> <DSSTox_CID>
4254

> <DSSTox_CID_Parent>
4254

> <DSSTox_Generic_SID>
24254

> <DSSTox_FileID>
434_TXCST2_v1a

> <STRUCTURE_Formula>
C14H10

> <STRUCTURE_MolecularWeight>
178.2292

> <STRUCTURE_ChemicalType>
defined organic

> <STRUCTURE_TestedForm_DefinedOrganic>
parent

> <STRUCTURE_Shown>
tested chemical

> <TestSubstance_ChemicalName>
Phenanthrene

> <TestSubstance_CASRN>
85-01-8

> <TestSubstance_Description>
single chemical compound

> <STRUCTURE_ChemicalName_IUPAC>
phenanthrene

> <STRUCTURE_SMILES>
C1=CC2=C(C=C1)C3=C(C=CC=C3)C=C2

> <STRUCTURE_Parent_SMILES>
C1=CC2=C(C=C1)C3=C(C=CC=C3)C=C2

> <STRUCTURE_InChIS>
InChI=1S/C14H10/c1-3-7-13-11(5-1)9-10-12-6-2-4-8-14(12)13/h1-10H

> <STRUCTURE_InChIKey>
YNPNZTXNASCQKK-UHFFFAOYSA-N

> <Substance_modify_yyyymmdd>
20080429

> <Coord_Metals>
0

> <Index>
434

> <Canonical_Smiles>
c1ccc2c(c1)ccc3ccccc23

> <Molecular_Weight>
178.22919

> <Frequency>
1

$$$$

  SciTegic          2D

 36 37  0  0  0  0            999 V2000
    4.1820   -0.3904    0.0000 N   0  0
    2.7523    0.0720    0.0000 C   0  0
    2.7519    1.5452    0.0000 O   0  0
    5.0549    0.8213    0.0000 C   0  0
    4.1211   -4.3589    0.0000 P   0  0
    4.1665    2.0237    0.0000 C   0  0
    4.6507   -1.8134    0.0000 C   0  0
    3.6516   -2.9334    0.0000 S   0  0
    4.7525    3.4088    0.0000 C   0  0
    3.3215   -5.2536    0.0000 S   0  0
    6.5511    0.9747    0.0000 C   0  0
    1.7820   -0.6341    0.0000 O   0  0
    5.5902   -4.6660    0.0000 O   0  0
    2.6230   -4.0484    0.0000 O   0  0
    6.2633    3.5731    0.0000 C   0  0
    7.1518    2.3707    0.0000 C   0  0
    6.7451    4.6721    0.0000 Cl  0  0
    6.0597   -6.0915    0.0000 C   0  0
    1.6238   -5.1683    0.0000 C   0  0
    7.5288   -6.3985    0.0000 C   0  0
    0.1542   -4.8638    0.0000 C   0  0
    5.6297   -2.0171    0.0000 H   0  0
    4.9640   -2.7631    0.0000 H   0  0
    4.1558    4.2113    0.0000 H   0  0
    7.1429    0.1686    0.0000 H   0  0
    8.1452    2.4854    0.0000 H   0  0
    5.3933   -6.8371    0.0000 H   0  0
    5.0808   -5.8873    0.0000 H   0  0
    2.6029   -5.3716    0.0000 H   0  0
    1.9374   -6.1179    0.0000 H   0  0
    7.8416   -7.3483    0.0000 H   0  0
    8.1952   -5.6529    0.0000 H   0  0
    8.5077   -6.6027    0.0000 H   0  0
   -0.5116   -5.6100    0.0000 H   0  0
   -0.1594   -3.9143    0.0000 H   0  0
   -0.8249   -4.6605    0.0000 H   0  0
  1  2  1  0
  1  4  1  0
  1  7  1  0
  2  3  1  0
  2 12  2  0
  3  6  1  0
  4  6  1  0
  4 11  2  0
  5  8  1  0
  5 10  2  0
  5 13  1  0
  5 14  1  0
  6  9  2  0
  7  8  1  0
  9 15  1  0
 11 16  1  0
 13 18  1  0
 14 19  1  0
 15 16  2  0
 15 17  1  0
 18 20  1  0
 19 21  1  0
  7 22  1  0
  7 23  1  0
  9 24  1  0
 11 25  1  0
 16 26  1  0
 18 27  1  0
 18 28  1  0
 19 29  1  0
 19 30  1  0
 20 31  1  0
 20 32  1  0
 20 33  1  0
 21 34  1  0
 21 35  1  0
 21 36  1  0
V    1 0
V    2 1
V    3 2
V    4 3
V    5 4
V    6 5
V    7 6
V    8 7
V    9 8
V   10 9
V   11 10
V   12 11
V   13 12
V   14 13
V   15 14
V   16 15
V   17 16
V   18 17
V   19 18
V   20 19
V   21 20
M  END
> <DSSTox_RID>
60229

> <DSSTox_CID>
4259

> <DSSTox_CID_Parent>
4259

> <DSSTox_Generic_SID>
24259

> <DSSTox_FileID>
435_TXCST2_v1a

> <STRUCTURE_Formula>
C12H15ClNO4PS2

> <STRUCTURE_MolecularWeight>
367.8086

> <STRUCTURE_ChemicalType>
defined organic

> <STRUCTURE_TestedForm_DefinedOrganic>
parent

> <STRUCTURE_Shown>
tested chemical

> <TestSubstance_ChemicalName>
Phosalone

> <TestSubstance_CASRN>
2310-17-0

> <TestSubstance_Description>
single chemical compound

> <STRUCTURE_ChemicalName_IUPAC>
S-[(6-chloro-2-oxo-1,3-benzoxazol-3(2H)-yl)methyl] O,O-diethyl dithiophosphate

> <STRUCTURE_SMILES>
CCOP(=S)(OCC)SCN1c2ccc(Cl)cc2OC1=O

> <STRUCTURE_Parent_SMILES>
CCOP(=S)(OCC)SCN1c2ccc(Cl)cc2OC1=O

> <STRUCTURE_InChIS>
InChI=1S/C12H15ClNO4PS2/c1-3-16-19(20,17-4-2)21-8-14-10-6-5-9(13)7-11(10)18-12(14)15/h5-7H,3-4,8H2,1-2H3

> <STRUCTURE_InChIKey>
IOUNQDKNJZEDEP-UHFFFAOYSA-N

> <Substance_modify_yyyymmdd>
20080429

> <Coord_Metals>
0

> <Index>
435

> <Canonical_Smiles>
CCOP(=S)(OCC)SCN1C(=O)Oc2cc(Cl)ccc12

> <Molecular_Weight>
367.80856

> <Frequency>
1

$$$$

  SciTegic          2D

 31 32  0  0  0  0            999 V2000
    2.5889    0.0182    0.0000 N   0  0
    1.7138   -1.2033    0.0000 C   0  0
    1.7138    1.2033    0.0000 C   0  0
    6.3539   -1.2384    0.0000 P   0  0
    0.2917   -0.7475    0.0000 C   0  0
    0.2917    0.7475    0.0000 C   0  0
    4.0872    0.0351    0.0000 C   0  0
    4.8532   -1.2555    0.0000 S   0  0
    6.9654   -2.2709    0.0000 S   0  0
    2.0825    2.3453    0.0000 O   0  0
    2.0907   -2.3426    0.0000 O   0  0
    7.0903    0.0693    0.0000 O   0  0
    5.6055   -2.5729    0.0000 O   0  0
   -1.0028   -1.5132    0.0000 C   0  0
   -1.0028    1.5132    0.0000 C   0  0
    8.5910    0.0864    0.0000 C   0  0
    6.3713   -3.8636    0.0000 C   0  0
   -2.3155    0.7475    0.0000 C   0  0
   -2.3155   -0.7475    0.0000 C   0  0
    4.5770    0.9069    0.0000 H   0  0
    5.0871    0.0470    0.0000 H   0  0
   -0.9997   -2.5132    0.0000 H   0  0
   -0.9997    2.5132    0.0000 H   0  0
    9.0817    0.9578    0.0000 H   0  0
    9.1006   -0.7740    0.0000 H   0  0
    9.5910    0.0973    0.0000 H   0  0
    5.8822   -4.7358    0.0000 H   0  0
    6.8820   -4.7234    0.0000 H   0  0
    7.3713   -3.8514    0.0000 H   0  0
   -3.1826    1.2456    0.0000 H   0  0
   -3.1826   -1.2456    0.0000 H   0  0
  1  2  1  0
  1  3  1  0
  1  7  1  0
  2  5  1  0
  2 11  2  0
  3  6  1  0
  3 10  2  0
  4  8  1  0
  4  9  2  0
  4 12  1  0
  4 13  1  0
  5 14  1  0
  5  6  2  0
  6 15  1  0
  7  8  1  0
 12 16  1  0
 13 17  1  0
 14 19  2  0
 15 18  2  0
 18 19  1  0
  7 20  1  0
  7 21  1  0
 14 22  1  0
 15 23  1  0
 16 24  1  0
 16 25  1  0
 16 26  1  0
 17 27  1  0
 17 28  1  0
 17 29  1  0
 18 30  1  0
 19 31  1  0
V    1 0
V    2 1
V    3 2
V    4 3
V    5 4
V    6 5
V    7 6
V    8 7
V    9 8
V   10 9
V   11 10
V   12 11
V   13 12
V   14 13
V   15 14
V   16 15
V   17 16
V   18 17
V   19 18
M  END
> <DSSTox_RID>
65271

> <DSSTox_CID>
4261

> <DSSTox_CID_Parent>
4261

> <DSSTox_Generic_SID>
24261

> <DSSTox_FileID>
436_TXCST2_v1a

> <STRUCTURE_Formula>
C11H12NO4PS2

> <STRUCTURE_MolecularWeight>
317.321

> <STRUCTURE_ChemicalType>
defined organic

> <STRUCTURE_TestedForm_DefinedOrganic>
parent

> <STRUCTURE_Shown>
tested chemical

> <TestSubstance_ChemicalName>
Phosmet

> <TestSubstance_CASRN>
732-11-6

> <TestSubstance_Description>
single chemical compound

> <STRUCTURE_ChemicalName_IUPAC>
S-[(1,3-dioxo-1,3-dihydro-2H-isoindol-2-yl)methyl] O,O-dimethyl dithiophosphate

> <STRUCTURE_SMILES>
COP(=S)(OC)SCN2C(=O)c1ccccc1C2=O

> <STRUCTURE_Parent_SMILES>
COP(=S)(OC)SCN2C(=O)c1ccccc1C2=O

> <STRUCTURE_InChIS>
InChI=1S/C11H12NO4PS2/c1-15-17(18,16-2)19-7-12-10(13)8-5-3-4-6-9(8)11(12)14/h3-6H,7H2,1-2H3

> <STRUCTURE_InChIKey>
LMNZTLDVJIUSHT-UHFFFAOYSA-N

> <Substance_modify_yyyymmdd>
20080429

> <Coord_Metals>
0

> <Index>
436

> <Canonical_Smiles>
COP(=S)(OC)SCN1C(=O)c2ccccc2C1=O

> <Molecular_Weight>
317.32104

> <Frequency>
1

$$$$

  SciTegic          2D

 39 39  0  0  0  0            999 V2000
    1.2990   -0.7500    0.0000 N   0  0
    1.2990    0.7500    0.0000 C   0  0
    1.3039   -3.7494    0.0000 P   0  0
    0.0000   -1.5000    0.0000 C   0  0
    0.0000    1.5000    0.0000 N   0  0
    0.0031   -3.0008    0.0000 O   0  0
   -1.2990   -0.7500    0.0000 C   0  0
    2.5972    1.5031    0.0000 N   0  0
    2.3421   -3.1476    0.0000 S   0  0
   -1.2990    0.7500    0.0000 C   0  0
    1.3070   -5.2502    0.0000 O   0  0
    1.3034   -2.2194    0.0000 O   0  0
    3.8990    0.7562    0.0000 C   0  0
    2.5906    3.0039    0.0000 C   0  0
   -2.5988    1.5004    0.0000 C   0  0
    2.6025   -1.4678    0.0000 C   0  0
    2.6078   -5.9988    0.0000 C   0  0
    5.1972    1.5093    0.0000 C   0  0
    1.2880    3.7494    0.0000 C   0  0
   -2.1651   -1.2500    0.0000 H   0  0
    3.0343    0.2540    0.0000 H   0  0
    3.9014   -0.2438    0.0000 H   0  0
    3.4587    2.5076    0.0000 H   0  0
    3.4545    3.5075    0.0000 H   0  0
   -2.5994    2.5004    0.0000 H   0  0
   -3.4647    1.0001    0.0000 H   0  0
   -3.4651    2.0000    0.0000 H   0  0
    2.6022   -0.4678    0.0000 H   0  0
    3.4683   -0.9674    0.0000 H   0  0
    3.4688   -1.9673    0.0000 H   0  0
    2.6099   -6.9988    0.0000 H   0  0
    3.4730   -5.4973    0.0000 H   0  0
    3.4748   -6.4971    0.0000 H   0  0
    6.0646    1.0116    0.0000 H   0  0
    6.0620    2.0115    0.0000 H   0  0
    5.1948    2.5093    0.0000 H   0  0
    1.2836    4.7494    0.0000 H   0  0
    0.4198    4.2457    0.0000 H   0  0
    0.4240    3.2458    0.0000 H   0  0
  1  2  2  0
  1  4  1  0
  2  5  1  0
  2  8  1  0
  3  6  1  0
  3  9  2  0
  3 11  1  0
  3 12  1  0
  4  6  1  0
  4  7  2  0
  5 10  2  0
  7 10  1  0
  8 13  1  0
  8 14  1  0
 10 15  1  0
 11 17  1  0
 12 16  1  0
 13 18  1  0
 14 19  1  0
  7 20  1  0
 13 21  1  0
 13 22  1  0
 14 23  1  0
 14 24  1  0
 15 25  1  0
 15 26  1  0
 15 27  1  0
 16 28  1  0
 16 29  1  0
 16 30  1  0
 17 31  1  0
 17 32  1  0
 17 33  1  0
 18 34  1  0
 18 35  1  0
 18 36  1  0
 19 37  1  0
 19 38  1  0
 19 39  1  0
V    1 0
V    2 1
V    3 2
V    4 3
V    5 4
V    6 5
V    7 6
V    8 7
V    9 8
V   10 9
V   11 10
V   12 11
V   13 12
V   14 13
V   15 14
V   16 15
V   17 16
V   18 17
V   19 18
M  END
> <DSSTox_RID>
62389

> <DSSTox_CID>
4266

> <DSSTox_CID_Parent>
4266

> <DSSTox_Generic_SID>
24266

> <DSSTox_FileID>
437_TXCST2_v1a

> <STRUCTURE_Formula>
C11H20N3O3PS

> <STRUCTURE_MolecularWeight>
305.3336

> <STRUCTURE_ChemicalType>
defined organic

> <STRUCTURE_TestedForm_DefinedOrganic>
parent

> <STRUCTURE_Shown>
tested chemical

> <TestSubstance_ChemicalName>
Pirimiphos-methyl

> <TestSubstance_CASRN>
29232-93-7

> <TestSubstance_Description>
single chemical compound

> <STRUCTURE_ChemicalName_IUPAC>
O-[2-(diethylamino)-6-methylpyrimidin-4-yl] O,O-dimethyl thiophosphate

> <STRUCTURE_SMILES>
CCN(CC)c1nc(C)cc(OP(=S)(OC)OC)n1

> <STRUCTURE_Parent_SMILES>
CCN(CC)c1nc(C)cc(OP(=S)(OC)OC)n1

> <STRUCTURE_InChIS>
InChI=1S/C11H20N3O3PS/c1-6-14(7-2)11-12-9(3)8-10(13-11)17-18(19,15-4)16-5/h8H,6-7H2,1-5H3

> <STRUCTURE_InChIKey>
QHOQHJPRIBSPCY-UHFFFAOYSA-N

> <Substance_modify_yyyymmdd>
20080429

> <Coord_Metals>
0

> <Index>
437

> <Canonical_Smiles>
CCN(CC)c1nc(C)cc(OP(=S)(OC)OC)n1

> <Molecular_Weight>
305.33356

> <Frequency>
1

$$$$

  SciTegic          2D

 39 40  0  0  0  0            999 V2000
    6.4912   -5.2640    0.0000 N   0  0
    5.1894   -6.0109    0.0000 C   0  0
    1.2990   -0.7500    0.0000 C   0  0
    1.2990    0.7500    0.0000 C   0  0
    0.0000   -1.5000    0.0000 C   0  0
    8.8466   -4.7718    0.0000 N   0  0
    7.8422   -5.8859    0.0000 C   0  0
   -1.2990   -0.7500    0.0000 C   0  0
    0.0000    1.5000    0.0000 C   0  0
    3.8912   -5.2578    0.0000 N   0  0
    6.6300   -3.7832    0.0000 C   0  0
   -1.2990    0.7500    0.0000 C   0  0
    5.1866   -7.2109    0.0000 O   0  0
    8.0974   -3.4723    0.0000 C   0  0
    0.0000   -2.7000    0.0000 Cl  0  0
    2.3383    1.3500    0.0000 Cl  0  0
    2.5973   -1.5031    0.0000 O   0  0
   -2.3383    1.3500    0.0000 Cl  0  0
    2.5951   -3.0039    0.0000 C   0  0
    3.8933   -3.7570    0.0000 C   0  0
    2.5917   -6.0086    0.0000 C   0  0
    2.5912   -7.5095    0.0000 C   0  0
    1.2917   -8.2603    0.0000 C   0  0
    8.0436   -6.8654    0.0000 H   0  0
   -2.1651   -1.2500    0.0000 H   0  0
    0.0000    2.5000    0.0000 H   0  0
    5.8833   -3.1180    0.0000 H   0  0
    8.5047   -2.5590    0.0000 H   0  0
    1.7282   -3.5024    0.0000 H   0  0
    1.7299   -2.5025    0.0000 H   0  0
    4.7602   -3.2585    0.0000 H   0  0
    4.7586   -4.2584    0.0000 H   0  0
    2.5915   -5.0086    0.0000 H   0  0
    1.7256   -5.5086    0.0000 H   0  0
    3.4573   -7.0096    0.0000 H   0  0
    3.4572   -8.0095    0.0000 H   0  0
    1.2914   -9.2603    0.0000 H   0  0
    0.4256   -8.7602    0.0000 H   0  0
    0.4257   -7.7603    0.0000 H   0  0
  1  2  1  0
  1  7  1  0
  1 11  1  0
  2 10  1  0
  2 13  2  0
  3 17  1  0
  3  4  2  0
  3  5  1  0
  4  9  1  0
  4 16  1  0
  5  8  2  0
  5 15  1  0
  6  7  2  0
  6 14  1  0
  8 12  1  0
  9 12  2  0
 10 20  1  0
 10 21  1  0
 11 14  2  0
 12 18  1  0
 17 19  1  0
 19 20  1  0
 21 22  1  0
 22 23  1  0
  7 24  1  0
  8 25  1  0
  9 26  1  0
 11 27  1  0
 14 28  1  0
 19 29  1  0
 19 30  1  0
 20 31  1  0
 20 32  1  0
 21 33  1  0
 21 34  1  0
 22 35  1  0
 22 36  1  0
 23 37  1  0
 23 38  1  0
 23 39  1  0
V    1 0
V    2 1
V    3 2
V    4 3
V    5 4
V    6 5
V    7 6
V    8 7
V    9 8
V   10 9
V   11 10
V   12 11
V   13 12
V   14 13
V   15 14
V   16 15
V   17 16
V   18 17
V   19 18
V   20 19
V   21 20
V   22 21
V   23 22
M  END
> <DSSTox_RID>
65446

> <DSSTox_CID>
4270

> <DSSTox_CID_Parent>
4270

> <DSSTox_Generic_SID>
24270

> <DSSTox_FileID>
438_TXCST2_v1a

> <STRUCTURE_Formula>
C15H16Cl3N3O2

> <STRUCTURE_MolecularWeight>
376.6654

> <STRUCTURE_ChemicalType>
defined organic

> <STRUCTURE_TestedForm_DefinedOrganic>
parent

> <STRUCTURE_Shown>
tested chemical

> <TestSubstance_ChemicalName>
Prochloraz

> <TestSubstance_CASRN>
67747-09-5

> <TestSubstance_Description>
single chemical compound

> <STRUCTURE_ChemicalName_IUPAC>
N-propyl-N-[2-(2,4,6-trichlorophenoxy)ethyl]-1H-imidazole-1-carboxamide

> <STRUCTURE_SMILES>
O=C(N(CCOc1c(Cl)cc(Cl)cc1Cl)CCC)n2ccnc2

> <STRUCTURE_Parent_SMILES>
O=C(N(CCOc1c(Cl)cc(Cl)cc1Cl)CCC)n2ccnc2

> <STRUCTURE_InChIS>
InChI=1S/C15H16Cl3N3O2/c1-2-4-20(15(22)21-5-3-19-10-21)6-7-23-14-12(17)8-11(16)9-13(14)18/h3,5,8-10H,2,4,6-7H2,1H3

> <STRUCTURE_InChIKey>
TVLSRXXIMLFWEO-UHFFFAOYSA-N

> <Substance_modify_yyyymmdd>
20080429

> <Coord_Metals>
0

> <Index>
438

> <Canonical_Smiles>
CCCN(CCOc1c(Cl)cc(Cl)cc1Cl)C(=O)n2ccnc2

> <Molecular_Weight>
376.66544

> <Frequency>
1

$$$$

  SciTegic          2D

 35 35  0  0  0  0            999 V2000
   -5.2003    1.4932    0.0000 C   0  0
    3.8933    3.7570    0.0000 C   0  0
    1.2941    3.7520    0.0000 C   0  0
   -1.3039   -3.7494    0.0000 C   0  0
   -3.8964   -0.7553    0.0000 C   0  0
   -3.8990    0.7455    0.0000 C   0  0
    2.5951    3.0039    0.0000 C   0  0
   -0.0031   -3.0008    0.0000 S   0  0
    2.5972    1.5031    0.0000 N   0  0
   -2.6003    1.4977    0.0000 N   0  0
    1.2990   -0.7500    0.0000 N   0  0
    1.2990    0.7500    0.0000 C   0  0
    0.0000   -1.5000    0.0000 C   0  0
    0.0000    1.5000    0.0000 N   0  0
   -1.2990   -0.7500    0.0000 N   0  0
   -1.2990    0.7500    0.0000 C   0  0
   -6.0656    0.9920    0.0000 H   0  0
   -6.0671    1.9918    0.0000 H   0  0
   -5.2021    2.4932    0.0000 H   0  0
    3.8919    4.7570    0.0000 H   0  0
    4.7585    4.2584    0.0000 H   0  0
    4.7602    3.2585    0.0000 H   0  0
    0.4286    3.2511    0.0000 H   0  0
    0.4274    4.2509    0.0000 H   0  0
    1.2927    4.7520    0.0000 H   0  0
   -1.3060   -4.7494    0.0000 H   0  0
   -2.1691   -3.2479    0.0000 H   0  0
   -2.1709   -4.2478    0.0000 H   0  0
   -3.0298   -1.2543    0.0000 H   0  0
   -3.8951   -1.7553    0.0000 H   0  0
   -4.7617   -1.2565    0.0000 H   0  0
   -3.9008    1.7455    0.0000 H   0  0
    3.4620    2.5054    0.0000 H   0  0
    3.4641    1.0046    0.0000 H   0  0
   -2.6021    2.4977    0.0000 H   0  0
  1  6  1  0
  2  7  1  0
  3  7  1  0
  4  8  1  0
  5  6  1  0
  6 10  1  0
  7  9  1  0
  8 13  1  0
  9 12  1  0
 10 16  1  0
 11 12  2  0
 11 13  1  0
 12 14  1  0
 13 15  2  0
 14 16  2  0
 15 16  1  0
  1 17  1  0
  1 18  1  0
  1 19  1  0
  2 20  1  0
  2 21  1  0
  2 22  1  0
  3 23  1  0
  3 24  1  0
  3 25  1  0
  4 26  1  0
  4 27  1  0
  4 28  1  0
  5 29  1  0
  5 30  1  0
  5 31  1  0
  6 32  1  0
  7 33  1  0
  9 34  1  0
 10 35  1  0
V    1 0
V    2 1
V    3 2
V    4 3
V    5 4
V    6 5
V    7 6
V    8 7
V    9 8
V   10 9
V   11 10
V   12 11
V   13 12
V   14 13
V   15 14
V   16 15
M  END
> <DSSTox_RID>
65447

> <DSSTox_CID>
4272

> <DSSTox_CID_Parent>
4272

> <DSSTox_Generic_SID>
24272

> <DSSTox_FileID>
439_TXCST2_v1a

> <STRUCTURE_Formula>
C10H19N5S

> <STRUCTURE_MolecularWeight>
241.3564

> <STRUCTURE_ChemicalType>
defined organic

> <STRUCTURE_TestedForm_DefinedOrganic>
parent

> <STRUCTURE_Shown>
tested chemical

> <TestSubstance_ChemicalName>
Prometryn

> <TestSubstance_CASRN>
7287-19-6

> <TestSubstance_Description>
single chemical compound

> <STRUCTURE_ChemicalName_IUPAC>
N,N'-diisopropyl-6-(methylthio)-1,3,5-triazine-2,4-diamine

> <STRUCTURE_SMILES>
CSc1nc(NC(C)C)nc(NC(C)C)n1

> <STRUCTURE_Parent_SMILES>
CSc1nc(NC(C)C)nc(NC(C)C)n1

> <STRUCTURE_InChIS>
InChI=1S/C10H19N5S/c1-6(2)11-8-13-9(12-7(3)4)15-10(14-8)16-5/h6-7H,1-5H3,(H2,11,12,13,14,15)

> <STRUCTURE_InChIKey>
AAEVYOVXGOFMJO-UHFFFAOYSA-N

> <Substance_modify_yyyymmdd>
20080429

> <Coord_Metals>
0

> <Index>
439

> <Canonical_Smiles>
CSc1nc(NC(C)C)nc(NC(C)C)n1

> <Molecular_Weight>
241.35635

> <Frequency>
1

$$$$

  SciTegic          2D

 50 51  0  0  0  0            999 V2000
    0.8068   -3.3033    0.0000 S   0  0
    1.7710   -2.1532    0.0000 O   0  0
    1.2990   -0.7500    0.0000 C   0  0
    0.8686   -7.2743    0.0000 C   0  0
    1.3816   -8.6847    0.0000 C   0  0
    1.2990    0.7500    0.0000 C   0  0
    1.7710    2.1532    0.0000 O   0  0
   -0.1781   -3.1298    0.0000 O   0  0
    7.4469    3.8870    0.0000 C   0  0
    6.1707    3.0971    0.0000 C   0  0
    5.7011    1.6725    0.0000 C   0  0
    5.1718    4.2161    0.0000 C   0  0
    1.3198   -4.7137    0.0000 O   0  0
    3.2342    2.4869    0.0000 C   0  0
    3.7033    3.9105    0.0000 C   0  0
    4.2326    1.3669    0.0000 C   0  0
    0.3556   -5.8638    0.0000 C   0  0
    0.0000   -1.5000    0.0000 C   0  0
    8.7695    3.1776    0.0000 C   0  0
    7.4004    5.3870    0.0000 C   0  0
    7.4914    2.3577    0.0000 C   0  0
    0.0000    1.5000    0.0000 C   0  0
   -1.2990   -0.7500    0.0000 C   0  0
   -1.2990    0.7500    0.0000 C   0  0
    2.1526   -0.2289    0.0000 H   0  0
    1.7234   -9.6244    0.0000 H   0  0
    0.4210    0.2714    0.0000 H   0  0
    6.3671    0.9265    0.0000 H   0  0
    5.4849    5.1658    0.0000 H   0  0
    3.0372    4.6564    0.0000 H   0  0
    3.9192    0.4173    0.0000 H   0  0
   -0.6293   -5.6903    0.0000 H   0  0
    0.0133   -4.9242    0.0000 H   0  0
   -0.8776   -1.9794    0.0000 H   0  0
    0.8775   -1.9795    0.0000 H   0  0
    9.6198    3.7039    0.0000 H   0  0
    8.8004    2.1781    0.0000 H   0  0
    9.6505    2.7045    0.0000 H   0  0
    8.2502    5.9141    0.0000 H   0  0
    6.5192    5.8597    0.0000 H   0  0
    7.3690    6.3865    0.0000 H   0  0
    6.6406    1.8322    0.0000 H   0  0
    7.5209    1.3581    0.0000 H   0  0
    8.3717    1.8833    0.0000 H   0  0
    0.8776    1.9794    0.0000 H   0  0
   -0.8775    1.9795    0.0000 H   0  0
   -2.1530   -0.2297    0.0000 H   0  0
   -0.4450   -0.2298    0.0000 H   0  0
   -1.2755    1.7497    0.0000 H   0  0
   -2.1531    0.2298    0.0000 H   0  0
  1  2  1  0
  1  8  2  0
  1 13  1  0
  2  3  1  0
  3  6  1  0
  3 18  1  0
  4 17  1  0
  4  5  3  0
  6  7  1  0
  6 22  1  0
  7 14  1  0
  9 10  1  0
  9 19  1  0
  9 20  1  0
  9 21  1  0
 10 11  2  0
 10 12  1  0
 11 16  1  0
 12 15  2  0
 13 17  1  0
 14 15  1  0
 14 16  2  0
 18 23  1  0
 22 24  1  0
 23 24  1  0
  3 25  1  0
  5 26  1  0
  6 27  1  0
 11 28  1  0
 12 29  1  0
 15 30  1  0
 16 31  1  0
 17 32  1  0
 17 33  1  0
 18 34  1  0
 18 35  1  0
 19 36  1  0
 19 37  1  0
 19 38  1  0
 20 39  1  0
 20 40  1  0
 20 41  1  0
 21 42  1  0
 21 43  1  0
 21 44  1  0
 22 45  1  0
 22 46  1  0
 23 47  1  0
 23 48  1  0
 24 49  1  0
 24 50  1  0
V    1 0
V    2 1
V    3 2
V    4 3
V    5 4
V    6 5
V    7 6
V    8 7
V    9 8
V   10 9
V   11 10
V   12 11
V   13 12
V   14 13
V   15 14
V   16 15
V   17 16
V   18 17
V   19 18
V   20 19
V   21 20
V   22 21
V   23 22
V   24 23
M  END
> <DSSTox_RID>
65448

> <DSSTox_CID>
4276

> <DSSTox_CID_Parent>
4276

> <DSSTox_Generic_SID>
24276

> <DSSTox_FileID>
440_TXCST2_v1a

> <STRUCTURE_Formula>
C19H26O4S

> <STRUCTURE_MolecularWeight>
350.4723

> <STRUCTURE_ChemicalType>
defined organic

> <STRUCTURE_TestedForm_DefinedOrganic>
parent

> <STRUCTURE_Shown>
tested chemical

> <TestSubstance_ChemicalName>
Propargite

> <TestSubstance_CASRN>
2312-35-8

> <TestSubstance_Description>
single chemical compound

> <STRUCTURE_ChemicalName_IUPAC>
2-(4-tert-butylphenoxy)cyclohexyl prop-2-yn-1-yl sulfite

> <STRUCTURE_SMILES>
CC(C)(C)c1ccc(cc1)OC2CCCCC2OS(=O)OCC#C

> <STRUCTURE_Parent_SMILES>
CC(C)(C)c1ccc(cc1)OC2CCCCC2OS(=O)OCC#C

> <STRUCTURE_InChIS>
InChI=1S/C19H26O4S/c1-5-14-21-24(20)23-18-9-7-6-8-17(18)22-16-12-10-15(11-13-16)19(2,3)4/h1,10-13,17-18H,6-9,14H2,2-4H3

> <STRUCTURE_InChIKey>
ZYHMJXZULPZUED-UHFFFAOYSA-N

> <Substance_modify_yyyymmdd>
20080429

> <Coord_Metals>
0

> <Index>
440

> <Canonical_Smiles>
CC(C)(C)c1ccc(OC2CCCCC2OS(=O)OCC#C)cc1

> <Molecular_Weight>
350.47234

> <Frequency>
1

$$$$

  SciTegic          2D

 39 41  0  0  0  0            999 V2000
    2.5978   -1.5030    0.0000 C   0  0
    1.2990   -0.7500    0.0000 C   0  0
    2.5955   -3.0038    0.0000 C   0  0
    3.9119   -2.1471    0.0000 O   0  0
    2.7019   -0.0432    0.0000 O   0  0
    1.2990    0.7500    0.0000 C   0  0
    0.0000   -1.5000    0.0000 C   0  0
    1.2951   -3.7531    0.0000 N   0  0
    4.9175   -1.0340    0.0000 C   0  0
    4.1696    0.2662    0.0000 C   0  0
    0.0000    1.5000    0.0000 C   0  0
    2.3383    1.3500    0.0000 Cl  0  0
   -1.2990   -0.7500    0.0000 C   0  0
    1.1561   -5.2338    0.0000 C   0  0
   -0.0556   -3.1308    0.0000 N   0  0
    5.4984   -2.4034    0.0000 C   0  0
   -1.2990    0.7500    0.0000 C   0  0
   -0.3114   -5.5444    0.0000 N   0  0
   -1.0603   -4.2447    0.0000 C   0  0
    6.9848   -2.6111    0.0000 C   0  0
   -2.3383    1.3500    0.0000 Cl  0  0
    7.5490   -4.0018    0.0000 C   0  0
    2.5945   -4.0038    0.0000 H   0  0
    3.4610   -3.5048    0.0000 H   0  0
    0.0000   -2.5000    0.0000 H   0  0
    5.4937   -0.2168    0.0000 H   0  0
    5.1658    0.3542    0.0000 H   0  0
    3.5712    1.0674    0.0000 H   0  0
    0.0000    2.5000    0.0000 H   0  0
   -2.1651   -1.2500    0.0000 H   0  0
    1.9026   -5.8991    0.0000 H   0  0
    5.8739   -3.3302    0.0000 H   0  0
    4.8836   -3.1921    0.0000 H   0  0
   -2.0547   -4.1393    0.0000 H   0  0
    6.6093   -1.6842    0.0000 H   0  0
    7.5995   -1.8223    0.0000 H   0  0
    8.5394   -4.1401    0.0000 H   0  0
    7.9245   -4.9286    0.0000 H   0  0
    6.9343   -4.7905    0.0000 H   0  0
  1  2  1  0
  1  3  1  0
  1  4  1  0
  1  5  1  0
  2  6  2  0
  2  7  1  0
  3  8  1  0
  4  9  1  0
  5 10  1  0
  6 11  1  0
  6 12  1  0
  7 13  2  0
  8 14  1  0
  8 15  1  0
  9 16  1  0
  9 10  1  0
 11 17  2  0
 13 17  1  0
 14 18  2  0
 15 19  2  0
 16 20  1  0
 17 21  1  0
 18 19  1  0
 20 22  1  0
  3 23  1  0
  3 24  1  0
  7 25  1  0
  9 26  1  0
 10 27  1  0
 10 28  1  0
 11 29  1  0
 13 30  1  0
 14 31  1  0
 16 32  1  0
 16 33  1  0
 19 34  1  0
 20 35  1  0
 20 36  1  0
 22 37  1  0
 22 38  1  0
 22 39  1  0
V    1 0
V    2 1
V    3 2
V    4 3
V    5 4
V    6 5
V    7 6
V    8 7
V    9 8
V   10 9
V   11 10
V   12 11
V   13 12
V   14 13
V   15 14
V   16 15
V   17 16
V   18 17
V   19 18
V   20 19
V   21 20
V   22 21
M  END
> <DSSTox_RID>
62390

> <DSSTox_CID>
4280

> <DSSTox_CID_Parent>
4280

> <DSSTox_Generic_SID>
24280

> <DSSTox_FileID>
441_TXCST2_v1a

> <STRUCTURE_Formula>
C15H17Cl2N3O2

> <STRUCTURE_MolecularWeight>
342.2204

> <STRUCTURE_ChemicalType>
defined organic

> <STRUCTURE_TestedForm_DefinedOrganic>
parent

> <STRUCTURE_Shown>
tested chemical

> <TestSubstance_ChemicalName>
Propiconazole

> <TestSubstance_CASRN>
60207-90-1

> <TestSubstance_Description>
single chemical compound

> <ChemicalNote>
mixture of stereoisomers; structure shown without stereochem

> <STRUCTURE_ChemicalName_IUPAC>
1-{[2-(2,4-dichlorophenyl)-4-propyl-1,3-dioxolan-2-yl]methyl}-1H-1,2,4-triazole

> <STRUCTURE_SMILES>
Clc1ccc(c(Cl)c1)C3(Cn2ncnc2)OCC(CCC)O3

> <STRUCTURE_Parent_SMILES>
Clc1ccc(c(Cl)c1)C3(Cn2ncnc2)OCC(CCC)O3

> <STRUCTURE_InChIS>
InChI=1S/C15H17Cl2N3O2/c1-2-3-12-7-21-15(22-12,8-20-10-18-9-19-20)13-5-4-11(16)6-14(13)17/h4-6,9-10,12H,2-3,7-8H2,1H3

> <STRUCTURE_InChIKey>
STJLVHWMYQXCPB-UHFFFAOYSA-N

> <Substance_modify_yyyymmdd>
20080429

> <Coord_Metals>
0

> <Index>
441

> <Canonical_Smiles>
CCCC1COC(Cn2cncn2)(O1)c3ccc(Cl)cc3Cl

> <Molecular_Weight>
342.22038

> <Frequency>
1

$$$$

  SciTegic          2D

 40 41  0  0  0  0            999 V2000
    1.2990   -0.7500    0.0000 N   0  0
    1.2990    0.7500    0.0000 C   0  0
    0.0000   -1.5000    0.0000 C   0  0
   -1.2990   -0.7500    0.0000 C   0  0
    0.0000    1.5000    0.0000 C   0  0
   -1.2990    0.7500    0.0000 C   0  0
   -2.6003   -1.4978    0.0000 C   0  0
   -2.6021   -2.4978    0.0000 O   0  0
   -3.8990   -0.7455    0.0000 O   0  0
    1.2122   -3.8625    0.0000 N   0  0
   -1.2149   -3.8587    0.0000 N   0  0
    0.0000   -3.0008    0.0000 C   0  0
    0.7464   -5.2884    0.0000 C   0  0
   -0.7536   -5.2860    0.0000 C   0  0
    0.1176   -6.6368    0.0000 C   0  0
    2.2233   -5.1116    0.0000 C   0  0
    3.1425   -6.2980    0.0000 C   0  0
    1.6466   -6.5287    0.0000 C   0  0
   -1.4605   -6.2557    0.0000 O   0  0
    0.0000    3.0008    0.0000 C   0  0
    1.2993    3.7521    0.0000 C   0  0
    2.1651    1.2500    0.0000 H   0  0
   -2.1651    1.2500    0.0000 H   0  0
   -4.7661   -1.2437    0.0000 H   0  0
    2.1619   -3.5494    0.0000 H   0  0
    0.7035   -7.4472    0.0000 H   0  0
   -0.8771   -6.7394    0.0000 H   0  0
   -0.2911   -7.5495    0.0000 H   0  0
    2.6020   -4.1860    0.0000 H   0  0
    4.1334   -6.1635    0.0000 H   0  0
    3.7546   -7.0888    0.0000 H   0  0
    2.7638   -7.2235    0.0000 H   0  0
    2.2598   -7.3186    0.0000 H   0  0
    1.2693   -7.4547    0.0000 H   0  0
    0.6560   -6.6650    0.0000 H   0  0
   -0.8662    3.5005    0.0000 H   0  0
   -0.8660    2.5007    0.0000 H   0  0
    1.2993    4.7521    0.0000 H   0  0
    2.1654    3.2523    0.0000 H   0  0
    2.1652    4.2522    0.0000 H   0  0
  1  2  2  0
  1  3  1  0
  2  5  1  0
  3  4  2  0
  3 12  1  0
  4  6  1  0
  4  7  1  0
  5  6  2  0
  5 20  1  0
  7  8  2  0
  7  9  1  0
 10 12  1  0
 10 13  1  0
 11 12  2  0
 11 14  1  0
 13 14  1  0
 13 15  1  0
 13 16  1  0
 14 19  2  0
 16 17  1  0
 16 18  1  0
 20 21  1  0
  2 22  1  0
  6 23  1  0
  9 24  1  0
 10 25  1  0
 15 26  1  0
 15 27  1  0
 15 28  1  0
 16 29  1  0
 17 30  1  0
 17 31  1  0
 17 32  1  0
 18 33  1  0
 18 34  1  0
 18 35  1  0
 20 36  1  0
 20 37  1  0
 21 38  1  0
 21 39  1  0
 21 40  1  0
V    1 0
V    2 1
V    3 2
V    4 3
V    5 4
V    6 5
V    7 6
V    8 7
V    9 8
V   10 9
V   11 10
V   12 11
V   13 12
V   14 13
V   15 14
V   16 15
V   17 16
V   18 17
V   19 18
V   20 19
V   21 20
M  END
> <DSSTox_RID>
66831

> <DSSTox_CID>
4287

> <DSSTox_CID_Parent>
4287

> <DSSTox_Generic_SID>
24287

> <DSSTox_FileID>
442_TXCST2_v1a

> <STRUCTURE_Formula>
C15H19N3O3

> <STRUCTURE_MolecularWeight>
289.3297

> <STRUCTURE_ChemicalType>
defined organic

> <STRUCTURE_TestedForm_DefinedOrganic>
parent

> <STRUCTURE_Shown>
tested chemical

> <TestSubstance_ChemicalName>
Imazethapyr

> <TestSubstance_CASRN>
81335-77-5

> <TestSubstance_Description>
single chemical compound

> <ChemicalNote>
mixture of (R,S) isomers;, structure shown without stereochem, tautomers

> <Source_ChemicalNote>
tested chemical contained 0.08% water (0.01 moles H2O)

> <STRUCTURE_ChemicalName_IUPAC>
5-ethyl-2-(4-isopropyl-4-methyl-5-oxo-4,5-dihydro-1H-imidazol-2-yl)nicotinic acid

> <STRUCTURE_SMILES>
OC(=O)c2cc(cnc2C=1NC(=O)C(C)(N=1)C(C)C)CC

> <STRUCTURE_Parent_SMILES>
OC(=O)c2cc(cnc2C=1NC(=O)C(C)(N=1)C(C)C)CC

> <STRUCTURE_InChIS>
InChI=1S/C15H19N3O3/c1-5-9-6-10(13(19)20)11(16-7-9)12-17-14(21)15(4,18-12)8(2)3/h6-8H,5H2,1-4H3,(H,19,20)(H,17,18,21)

> <STRUCTURE_InChIKey>
XVOKUMIPKHGGTN-UHFFFAOYSA-N

> <Substance_modify_yyyymmdd>
20080429

> <Coord_Metals>
0

> <Index>
442

> <Canonical_Smiles>
CCc1cnc(C2=NC(=O)C(C)(N2)C(C)C)c(c1)C(=O)O

> <Molecular_Weight>
289.32966

> <Frequency>
1

$$$$

  SciTegic          2D

 26 29  0  0  0  0            999 V2000
   -0.8322    0.1513    0.0000 C   0  0
    0.6052    0.5296    0.0000 C   0  0
   -1.2861   -1.2609    0.0000 C   0  0
    1.6643   -0.5800    0.0000 C   0  0
   -1.8409    1.2861    0.0000 C   0  0
    1.1096    1.9670    0.0000 C   0  0
    1.2104   -2.0174    0.0000 C   0  0
    0.0000   -2.3956    0.0000 C   0  0
   -1.3870    2.7235    0.0000 C   0  0
    0.0504    3.1017    0.0000 C   0  0
   -3.7574   -0.5043    0.0000 C   0  0
    3.5809    1.2104    0.0000 C   0  0
   -3.3035    0.9078    0.0000 C   0  0
    3.1270    0.0000    0.0000 C   0  0
   -2.7487   -1.6391    0.0000 C   0  0
    2.5722    2.3452    0.0000 C   0  0
    1.9165   -2.7256    0.0000 H   0  0
   -0.2085   -3.3737    0.0000 H   0  0
   -2.0767    3.4475    0.0000 H   0  0
    0.3280    4.0624    0.0000 H   0  0
   -4.7359   -0.7107    0.0000 H   0  0
    4.5640    1.3933    0.0000 H   0  0
   -3.9898    1.6351    0.0000 H   0  0
    3.8407   -0.7004    0.0000 H   0  0
   -3.0399   -2.5958    0.0000 H   0  0
    2.8634    3.3019    0.0000 H   0  0
  1  2  1  0
  1  3  1  0
  1  5  2  0
  2  4  1  0
  2  6  2  0
  3  8  1  0
  3 15  2  0
  4 14  2  0
  4  7  1  0
  5  9  1  0
  5 13  1  0
  6 16  1  0
  6 10  1  0
  7  8  2  0
  9 10  2  0
 11 13  2  0
 11 15  1  0
 12 16  2  0
 12 14  1  0
  7 17  1  0
  8 18  1  0
  9 19  1  0
 10 20  1  0
 11 21  1  0
 12 22  1  0
 13 23  1  0
 14 24  1  0
 15 25  1  0
 16 26  1  0
V    1 0
V    2 1
V    3 2
V    4 3
V    5 4
V    6 5
V    7 6
V    8 7
V    9 8
V   10 9
V   11 10
V   12 11
V   13 12
V   14 13
V   15 14
V   16 15
M  END
> <DSSTox_RID>
62352

> <DSSTox_CID>
4289

> <DSSTox_CID_Parent>
4289

> <DSSTox_Generic_SID>
24289

> <DSSTox_FileID>
443_TXCST2_v1a

> <STRUCTURE_Formula>
C16H10

> <STRUCTURE_MolecularWeight>
202.2506

> <STRUCTURE_ChemicalType>
defined organic

> <STRUCTURE_TestedForm_DefinedOrganic>
parent

> <STRUCTURE_Shown>
tested chemical

> <TestSubstance_ChemicalName>
Pyrene

> <TestSubstance_CASRN>
129-00-0

> <TestSubstance_Description>
single chemical compound

> <STRUCTURE_ChemicalName_IUPAC>
pyrene

> <STRUCTURE_SMILES>
C12=CC=CC4=C1C3=C(C=CC=C3C=C4)C=C2

> <STRUCTURE_Parent_SMILES>
C12=CC=CC4=C1C3=C(C=CC=C3C=C4)C=C2

> <STRUCTURE_InChIS>
InChI=1S/C16H10/c1-3-11-7-9-13-5-2-6-14-10-8-12(4-1)15(11)16(13)14/h1-10H

> <STRUCTURE_InChIKey>
BBEAQIROQSPTKN-UHFFFAOYSA-N

> <Substance_modify_yyyymmdd>
20080429

> <Coord_Metals>
0

> <Index>
443

> <Canonical_Smiles>
c1cc2ccc3cccc4ccc(c1)c2c34

> <Molecular_Weight>
202.25059

> <Frequency>
1

$$$$

  SciTegic          2D

 44 46  0  0  0  0            999 V2000
    5.9791    2.6828    0.0000 N   0  0
    4.6568    1.9745    0.0000 C   0  0
    7.3263    2.0273    0.0000 C   0  0
    3.5746    3.0132    0.0000 S   0  0
    5.7141    4.1592    0.0000 C   0  0
    4.2580    4.3074    0.0000 C   0  0
    7.4334    0.5303    0.0000 N   0  0
    4.4934    0.7857    0.0000 O   0  0
    8.3203    2.6996    0.0000 O   0  0
    2.7580    4.3567    0.0000 C   0  0
    1.9656    3.0831    0.0000 C   0  0
    2.0512    5.6798    0.0000 C   0  0
   -0.2404    4.4556    0.0000 C   0  0
    8.7830   -0.1263    0.0000 C   0  0
    7.1606    3.8077    0.0000 C   0  0
    0.5520    5.7292    0.0000 C   0  0
    0.4664    3.1325    0.0000 C   0  0
   -1.4397    4.4951    0.0000 Cl  0  0
    7.8853   -1.3025    0.0000 C   0  0
   10.2579   -0.2438    0.0000 C   0  0
   10.8691   -1.6137    0.0000 C   0  0
    8.4965   -2.6723    0.0000 C   0  0
    9.9885   -2.8279    0.0000 C   0  0
    5.4049    5.1102    0.0000 H   0  0
    4.7845    5.1576    0.0000 H   0  0
    6.6051   -0.0300    0.0000 H   0  0
    2.4368    2.2011    0.0000 H   0  0
    2.5795    6.5289    0.0000 H   0  0
    9.3703    0.6831    0.0000 H   0  0
    7.4564    2.8524    0.0000 H   0  0
    8.1357    3.5860    0.0000 H   0  0
    7.8403    4.5412    0.0000 H   0  0
    0.0808    6.6112    0.0000 H   0  0
   -0.0619    2.2835    0.0000 H   0  0
    8.8757   -1.4407    0.0000 H   0  0
    7.3065   -2.1180    0.0000 H   0  0
    9.6993   -1.0733    0.0000 H   0  0
   11.2514   -0.3577    0.0000 H   0  0
   11.2550   -2.5362    0.0000 H   0  0
   11.4371   -0.7906    0.0000 H   0  0
    7.5047   -2.5452    0.0000 H   0  0
    8.9254   -3.5757    0.0000 H   0  0
    9.6026   -1.9053    0.0000 H   0  0
   10.9852   -2.9082    0.0000 H   0  0
  1  2  1  0
  1  3  1  0
  1  5  1  0
  2  4  1  0
  2  8  2  0
  3  7  1  0
  3  9  2  0
  4  6  1  0
  5  6  1  0
  5 15  1  0
  6 10  1  0
  7 14  1  0
 10 11  2  0
 10 12  1  0
 11 17  1  0
 12 16  2  0
 13 16  1  0
 13 18  1  0
 13 17  2  0
 14 19  1  0
 14 20  1  0
 19 22  1  0
 20 21  1  0
 21 23  1  0
 22 23  1  0
  5 24  1  0
  6 25  1  0
  7 26  1  0
 11 27  1  0
 12 28  1  0
 14 29  1  0
 15 30  1  0
 15 31  1  0
 15 32  1  0
 16 33  1  0
 17 34  1  0
 19 35  1  0
 19 36  1  0
 20 37  1  0
 20 38  1  0
 21 39  1  0
 21 40  1  0
 22 41  1  0
 22 42  1  0
 23 43  1  0
 23 44  1  0
V    1 0
V    2 1
V    3 2
V    4 3
V    5 4
V    6 5
V    7 6
V    8 7
V    9 8
V   10 9
V   11 10
V   12 11
V   13 12
V   14 13
V   15 14
V   16 15
V   17 16
V   18 17
V   19 18
V   20 19
V   21 20
V   22 21
V   23 22
M  END
> <DSSTox_RID>
65311

> <DSSTox_CID>
4299

> <DSSTox_CID_Parent>
4299

> <DSSTox_Generic_SID>
24299

> <DSSTox_FileID>
444_TXCST2_v1a

> <STRUCTURE_Formula>
C17H21ClN2O2S

> <STRUCTURE_MolecularWeight>
352.8788

> <STRUCTURE_ChemicalType>
defined organic

> <STRUCTURE_TestedForm_DefinedOrganic>
parent

> <STRUCTURE_Shown>
tested chemical

> <TestSubstance_ChemicalName>
Hexythiazox

> <TestSubstance_CASRN>
78587-05-0

> <TestSubstance_Description>
single chemical compound

> <ChemicalNote>
stereochem

> <STRUCTURE_ChemicalName_IUPAC>
(4S,5S)-5-(4-chlorophenyl)-N-cyclohexyl-4-methyl-2-oxo-1,3-thiazolidine-3-carboxamide

> <STRUCTURE_SMILES>
C[C@H]2[C@@H](SC(=O)N2C(=O)NC1CCCCC1)c3ccc(Cl)cc3

> <STRUCTURE_Parent_SMILES>
C[C@H]2[C@@H](SC(=O)N2C(=O)NC1CCCCC1)c3ccc(Cl)cc3

> <STRUCTURE_InChIS>
InChI=1S/C17H21ClN2O2S/c1-11-15(12-7-9-13(18)10-8-12)23-17(22)20(11)16(21)19-14-5-3-2-4-6-14/h7-11,14-15H,2-6H2,1H3,(H,19,21)/t11-,15+/m0/s1

> <STRUCTURE_InChIKey>
XGWIJUOSCAQSSV-XHDPSFHLSA-N

> <Substance_modify_yyyymmdd>
20080429

> <Coord_Metals>
0

> <Index>
444

> <Canonical_Smiles>
CC1C(SC(=O)N1C(=O)NC2CCCCC2)c3ccc(Cl)cc3

> <Molecular_Weight>
352.87884

> <Frequency>
1

$$$$

  SciTegic          2D

 51 51  0  0  0  0            999 V2000
    1.2990   -0.7500    0.0000 C   0  0
    1.2990    0.7500    0.0000 C   0  0
    0.0000   -1.5000    0.0000 C   0  0
    2.5973   -1.5031    0.0000 C   0  0
    0.0000    1.5000    0.0000 C   0  0
   -1.2990   -0.7500    0.0000 C   0  0
   -1.2990    0.7500    0.0000 C   0  0
    0.0000   -2.7000    0.0000 O   0  0
    2.5951   -3.0039    0.0000 N   0  0
    2.6003    1.4978    0.0000 O   0  0
   -2.7502    0.4571    0.0000 C   0  0
    3.8933   -3.7570    0.0000 O   0  0
   -5.2343    1.2247    0.0000 S   0  0
   -3.7708    1.5575    0.0000 C   0  0
    3.8999   -0.7576    0.0000 C   0  0
   -6.2549    2.3251    0.0000 C   0  0
    3.8912   -5.2578    0.0000 C   0  0
    5.1972   -1.5121    0.0000 C   0  0
   -3.3278    2.9913    0.0000 C   0  0
   -7.7184    1.9923    0.0000 C   0  0
    5.1894   -6.0109    0.0000 C   0  0
    6.4998   -0.7667    0.0000 C   0  0
   -0.8776    1.9794    0.0000 H   0  0
    0.8775    1.9795    0.0000 H   0  0
   -2.1530   -0.2297    0.0000 H   0  0
   -1.2755   -1.7497    0.0000 H   0  0
   -0.4455    0.2289    0.0000 H   0  0
    3.4656    0.9965    0.0000 H   0  0
   -3.0454   -0.4983    0.0000 H   0  0
   -3.7252    0.2349    0.0000 H   0  0
   -4.0661    0.6020    0.0000 H   0  0
    3.0357   -0.2545    0.0000 H   0  0
    3.9033    0.2424    0.0000 H   0  0
   -5.2799    2.5473    0.0000 H   0  0
   -5.9597    3.2805    0.0000 H   0  0
    3.0260   -4.7564    0.0000 H   0  0
    3.0243   -5.7563    0.0000 H   0  0
    4.3295   -2.0092    0.0000 H   0  0
    5.1937   -2.5121    0.0000 H   0  0
   -2.3529    3.2140    0.0000 H   0  0
   -3.0330    3.9469    0.0000 H   0  0
   -4.0078    3.7245    0.0000 H   0  0
   -8.3984    2.7255    0.0000 H   0  0
   -8.6934    1.7701    0.0000 H   0  0
   -8.0136    1.0369    0.0000 H   0  0
    5.1880   -7.0109    0.0000 H   0  0
    6.0546   -6.5123    0.0000 H   0  0
    6.0563   -5.5124    0.0000 H   0  0
    7.3643   -1.2694    0.0000 H   0  0
    7.3675   -0.2695    0.0000 H   0  0
    6.5033    0.2333    0.0000 H   0  0
  1  2  2  0
  1  3  1  0
  1  4  1  0
  2  5  1  0
  2 10  1  0
  3  6  1  0
  3  8  2  0
  4  9  2  0
  4 15  1  0
  5  7  1  0
  6  7  1  0
  7 11  1  0
  9 12  1  0
 11 14  1  0
 12 17  1  0
 13 14  1  0
 13 16  1  0
 14 19  1  0
 15 18  1  0
 16 20  1  0
 17 21  1  0
 18 22  1  0
  5 23  1  0
  5 24  1  0
  6 25  1  0
  6 26  1  0
  7 27  1  0
 10 28  1  0
 11 29  1  0
 11 30  1  0
 14 31  1  0
 15 32  1  0
 15 33  1  0
 16 34  1  0
 16 35  1  0
 17 36  1  0
 17 37  1  0
 18 38  1  0
 18 39  1  0
 19 40  1  0
 19 41  1  0
 19 42  1  0
 20 43  1  0
 20 44  1  0
 20 45  1  0
 21 46  1  0
 21 47  1  0
 21 48  1  0
 22 49  1  0
 22 50  1  0
 22 51  1  0
V    1 0
V    2 1
V    3 2
V    4 3
V    5 4
V    6 5
V    7 6
V    8 7
V    9 8
V   10 9
V   11 10
V   12 11
V   13 12
V   14 13
V   15 14
V   16 15
V   17 16
V   18 17
V   19 18
V   20 19
V   21 20
V   22 21
M  END
> <DSSTox_RID>
62367

> <DSSTox_CID>
4304

> <DSSTox_CID_Parent>
4304

> <DSSTox_Generic_SID>
24304

> <DSSTox_FileID>
445_TXCST2_v1a

> <STRUCTURE_Formula>
C17H29NO3S

> <STRUCTURE_MolecularWeight>
327.4821

> <STRUCTURE_ChemicalType>
defined organic

> <STRUCTURE_TestedForm_DefinedOrganic>
parent

> <STRUCTURE_Shown>
tested chemical

> <TestSubstance_ChemicalName>
Sethoxydim

> <TestSubstance_CASRN>
74051-80-2

> <TestSubstance_Description>
single chemical compound

> <STRUCTURE_ChemicalName_IUPAC>
2-[1-(ethoxyimino)butyl]-5-[2-(ethylthio)propyl]-3-hydroxy-2-cyclohexen-1-one

> <STRUCTURE_SMILES>
O=C1C(/C(CCC)=N/OCC)=C(O)CC(CC(SCC)C)C1

> <STRUCTURE_Parent_SMILES>
O=C1C(/C(CCC)=N/OCC)=C(O)CC(CC(SCC)C)C1

> <STRUCTURE_InChIS>
InChI=1S/C17H29NO3S/c1-5-8-14(18-21-6-2)17-15(19)10-13(11-16(17)20)9-12(4)22-7-3/h12-13,19H,5-11H2,1-4H3

> <STRUCTURE_InChIKey>
CSPPKDPQLUUTND-UHFFFAOYSA-N

> <Substance_modify_yyyymmdd>
20080429

> <Coord_Metals>
0

> <Index>
445

> <Canonical_Smiles>
CCCC(=NOCC)C1=C(O)CC(CC(C)SCC)CC1=O

> <Molecular_Weight>
327.48206

> <Frequency>
1

$$$$

  SciTegic          2D

 37 38  0  0  0  0            999 V2000
    2.2638   -1.8997    0.0000 C   0  0
    6.7510   -4.0588    0.0000 N   0  0
    4.7067   -2.7896    0.0000 N   0  0
    4.3298   -4.2282    0.0000 N   0  0
    2.7916   -0.4637    0.0000 C   0  0
    3.2056    0.6626    0.0000 N   0  0
    5.6019   -5.0230    0.0000 C   0  0
    6.1890   -2.6680    0.0000 C   0  0
    3.7420   -1.6399    0.0000 C   0  0
    1.2990   -0.7500    0.0000 C   0  0
    1.2990    0.7500    0.0000 C   0  0
    0.0000   -1.5000    0.0000 C   0  0
   -1.2990    0.7500    0.0000 C   0  0
   -1.2990   -0.7500    0.0000 C   0  0
    0.0000    1.5000    0.0000 C   0  0
   -2.3383    1.3500    0.0000 Cl  0  0
    2.2603   -3.4006    0.0000 C   0  0
    0.9593   -4.1488    0.0000 C   0  0
    0.9559   -5.6496    0.0000 C   0  0
   -0.3451   -6.3979    0.0000 C   0  0
    5.6717   -6.0206    0.0000 H   0  0
    6.7138   -1.8168    0.0000 H   0  0
    4.0842   -0.7003    0.0000 H   0  0
    4.7268   -1.4663    0.0000 H   0  0
    2.1651    1.2500    0.0000 H   0  0
    0.0000   -2.5000    0.0000 H   0  0
   -2.1651   -1.2500    0.0000 H   0  0
    0.0000    2.5000    0.0000 H   0  0
    3.1254   -3.9023    0.0000 H   0  0
    3.1274   -2.9024    0.0000 H   0  0
    0.0943   -3.6471    0.0000 H   0  0
    0.9612   -3.1488    0.0000 H   0  0
    1.8209   -6.1513    0.0000 H   0  0
    1.8230   -5.1515    0.0000 H   0  0
   -0.3474   -7.3979    0.0000 H   0  0
   -1.2102   -5.8962    0.0000 H   0  0
   -1.2122   -6.8960    0.0000 H   0  0
  1  5  1  0
  1  9  1  0
  1 10  1  0
  1 17  1  0
  2  8  2  0
  2  7  1  0
  3  9  1  0
  3  4  1  0
  3  8  1  0
  4  7  2  0
  5  6  3  0
 10 11  1  0
 10 12  2  0
 11 15  2  0
 12 14  1  0
 13 14  2  0
 13 16  1  0
 13 15  1  0
 17 18  1  0
 18 19  1  0
 19 20  1  0
  7 21  1  0
  8 22  1  0
  9 23  1  0
  9 24  1  0
 11 25  1  0
 12 26  1  0
 14 27  1  0
 15 28  1  0
 17 29  1  0
 17 30  1  0
 18 31  1  0
 18 32  1  0
 19 33  1  0
 19 34  1  0
 20 35  1  0
 20 36  1  0
 20 37  1  0
V    1 0
V    2 1
V    3 2
V    4 3
V    5 4
V    6 5
V    7 6
V    8 7
V    9 8
V   10 9
V   11 10
V   12 11
V   13 12
V   14 13
V   15 14
V   16 15
V   17 16
V   18 17
V   19 18
V   20 19
M  END
> <DSSTox_RID>
65449

> <DSSTox_CID>
4315

> <DSSTox_CID_Parent>
4315

> <DSSTox_Generic_SID>
24315

> <DSSTox_FileID>
446_TXCST2_v1a

> <STRUCTURE_Formula>
C15H17ClN4

> <STRUCTURE_MolecularWeight>
288.7753

> <STRUCTURE_ChemicalType>
defined organic

> <STRUCTURE_TestedForm_DefinedOrganic>
parent

> <STRUCTURE_Shown>
tested chemical

> <TestSubstance_ChemicalName>
Myclobutanil

> <TestSubstance_CASRN>
88671-89-0

> <TestSubstance_Description>
single chemical compound

> <STRUCTURE_ChemicalName_IUPAC>
2-(4-chlorophenyl)-2-(1H-1,2,4-triazol-1-ylmethyl)hexanenitrile

> <STRUCTURE_SMILES>
Clc1ccc(cc1)C(CCCC)(Cn2cncn2)C#N

> <STRUCTURE_Parent_SMILES>
Clc1ccc(cc1)C(CCCC)(Cn2cncn2)C#N

> <STRUCTURE_InChIS>
InChI=1S/C15H17ClN4/c1-2-3-8-15(9-17,10-20-12-18-11-19-20)13-4-6-14(16)7-5-13/h4-7,11-12H,2-3,8,10H2,1H3

> <STRUCTURE_InChIKey>
HZJKXKUJVSEEFU-UHFFFAOYSA-N

> <Substance_modify_yyyymmdd>
20080429

> <Coord_Metals>
0

> <Index>
446

> <Canonical_Smiles>
CCCCC(Cn1cncn1)(C#N)c2ccc(Cl)cc2

> <Molecular_Weight>
288.77528

> <Frequency>
1

$$$$

  SciTegic          2D

 31 31  0  0  0  0            999 V2000
    0.7500   -1.0323    0.0000 C   0  0
    1.2135    0.3943    0.0000 S   0  0
   -0.7500   -1.0323    0.0000 N   0  0
    0.0000    1.2760    0.0000 C   0  0
    1.6281   -2.2462    0.0000 N   0  0
   -1.2135    0.3943    0.0000 N   0  0
    1.0157   -3.6164    0.0000 C   0  0
    0.0000    2.7742    0.0000 C   0  0
   -0.1779   -3.7398    0.0000 O   0  0
    1.8954   -4.8324    0.0000 N   0  0
    3.1213   -2.0950    0.0000 C   0  0
    1.2993    3.5255    0.0000 C   0  0
   -1.2999    3.5242    0.0000 C   0  0
    1.3238    2.0072    0.0000 C   0  0
    1.2830   -6.2026    0.0000 C   0  0
    2.8901   -4.7297    0.0000 H   0  0
    3.7065   -2.9059    0.0000 H   0  0
    4.1162   -1.9938    0.0000 H   0  0
    3.5313   -1.1829    0.0000 H   0  0
    1.2993    4.5255    0.0000 H   0  0
    2.1654    3.0257    0.0000 H   0  0
    2.1652    4.0256    0.0000 H   0  0
   -1.3009    4.5242    0.0000 H   0  0
   -2.1656    3.0236    0.0000 H   0  0
   -2.1664    4.0235    0.0000 H   0  0
    1.3228    1.0072    0.0000 H   0  0
    2.1893    1.5062    0.0000 H   0  0
    2.1904    2.5061    0.0000 H   0  0
    1.8691   -7.0129    0.0000 H   0  0
    0.8745   -7.1154    0.0000 H   0  0
    0.2882   -6.3054    0.0000 H   0  0
  1  2  1  0
  1  3  2  0
  1  5  1  0
  2  4  1  0
  3  6  1  0
  4  8  1  0
  4  6  2  0
  5  7  1  0
  5 11  1  0
  7  9  2  0
  7 10  1  0
  8 12  1  0
  8 13  1  0
  8 14  1  0
 10 15  1  0
 10 16  1  0
 11 17  1  0
 11 18  1  0
 11 19  1  0
 12 20  1  0
 12 21  1  0
 12 22  1  0
 13 23  1  0
 13 24  1  0
 13 25  1  0
 14 26  1  0
 14 27  1  0
 14 28  1  0
 15 29  1  0
 15 30  1  0
 15 31  1  0
V    1 0
V    2 1
V    3 2
V    4 3
V    5 4
V    6 5
V    7 6
V    8 7
V    9 8
V   10 9
V   11 10
V   12 11
V   13 12
V   14 13
V   15 14
M  END
> <DSSTox_RID>
65299

> <DSSTox_CID>
4316

> <DSSTox_CID_Parent>
4316

> <DSSTox_Generic_SID>
24316

> <DSSTox_FileID>
447_TXCST2_v1a

> <STRUCTURE_Formula>
C9H16N4OS

> <STRUCTURE_MolecularWeight>
228.3145

> <STRUCTURE_ChemicalType>
defined organic

> <STRUCTURE_TestedForm_DefinedOrganic>
parent

> <STRUCTURE_Shown>
tested chemical

> <TestSubstance_ChemicalName>
Tebuthiuron

> <TestSubstance_CASRN>
34014-18-1

> <TestSubstance_Description>
single chemical compound

> <STRUCTURE_ChemicalName_IUPAC>
N-(5-tert-butyl-1,3,4-thiadiazol-2-yl)-N,N'-dimethylurea

> <STRUCTURE_SMILES>
O=C(NC)N(C)c1nnc(s1)C(C)(C)C

> <STRUCTURE_Parent_SMILES>
O=C(NC)N(C)c1nnc(s1)C(C)(C)C

> <STRUCTURE_InChIS>
InChI=1S/C9H16N4OS/c1-9(2,3)6-11-12-8(15-6)13(5)7(14)10-4/h1-5H3,(H,10,14)

> <STRUCTURE_InChIKey>
HBPDKDSFLXWOAE-UHFFFAOYSA-N

> <Substance_modify_yyyymmdd>
20080429

> <Coord_Metals>
0

> <Index>
447

> <Canonical_Smiles>
CNC(=O)N(C)c1nnc(s1)C(C)(C)C

> <Molecular_Weight>
228.31453

> <Frequency>
1

$$$$

  SciTegic          2D

 27 27  0  0  0  0            999 V2000
    1.2990   -0.7500    0.0000 N   0  0
    1.2990    0.7500    0.0000 C   0  0
    0.0000   -1.5000    0.0000 C   0  0
    0.0000    1.5000    0.0000 C   0  0
   -1.2990   -0.7500    0.0000 N   0  0
   -1.2990    0.7500    0.0000 C   0  0
    2.2638   -1.8997    0.0000 C   0  0
    0.0000   -2.7000    0.0000 O   0  0
    2.3383    1.3500    0.0000 O   0  0
    0.0000    2.7000    0.0000 Cl  0  0
   -2.5988    1.5004    0.0000 C   0  0
    3.7419   -1.6400    0.0000 C   0  0
    1.7500   -3.3098    0.0000 C   0  0
    2.7848   -0.4612    0.0000 C   0  0
   -2.1651   -1.2500    0.0000 H   0  0
   -2.5994    2.5004    0.0000 H   0  0
   -3.4647    1.0001    0.0000 H   0  0
   -3.4651    2.0000    0.0000 H   0  0
    4.3847   -2.4061    0.0000 H   0  0
    4.0843   -0.7004    0.0000 H   0  0
    4.7268   -1.4665    0.0000 H   0  0
    2.3921   -4.0764    0.0000 H   0  0
    0.7651   -3.4828    0.0000 H   0  0
    1.4073   -4.2492    0.0000 H   0  0
    2.1413    0.3042    0.0000 H   0  0
    3.1258    0.4789    0.0000 H   0  0
    3.7694   -0.2863    0.0000 H   0  0
  1  2  1  0
  1  3  1  0
  1  7  1  0
  2  4  1  0
  2  9  2  0
  3  5  1  0
  3  8  2  0
  4 10  1  0
  4  6  2  0
  5  6  1  0
  6 11  1  0
  7 12  1  0
  7 13  1  0
  7 14  1  0
  5 15  1  0
 11 16  1  0
 11 17  1  0
 11 18  1  0
 12 19  1  0
 12 20  1  0
 12 21  1  0
 13 22  1  0
 13 23  1  0
 13 24  1  0
 14 25  1  0
 14 26  1  0
 14 27  1  0
V    1 0
V    2 1
V    3 2
V    4 3
V    5 4
V    6 5
V    7 6
V    8 7
V    9 8
V   10 9
V   11 10
V   12 11
V   13 12
V   14 13
M  END
> <DSSTox_RID>
66584

> <DSSTox_CID>
4317

> <DSSTox_CID_Parent>
4317

> <DSSTox_Generic_SID>
24317

> <DSSTox_FileID>
448_TXCST2_v1a

> <STRUCTURE_Formula>
C9H13ClN2O2

> <STRUCTURE_MolecularWeight>
216.6647

> <STRUCTURE_ChemicalType>
defined organic

> <STRUCTURE_TestedForm_DefinedOrganic>
parent

> <STRUCTURE_Shown>
tested chemical

> <TestSubstance_ChemicalName>
Terbacil

> <TestSubstance_CASRN>
5902-51-2

> <TestSubstance_Description>
single chemical compound

> <Source_ChemicalNote>
tested chemical contained 0.06% water (0.01 moles H2O)

> <STRUCTURE_ChemicalName_IUPAC>
3-tert-butyl-5-chloro-6-methylpyrimidine-2,4(1H,3H)-dione

> <STRUCTURE_SMILES>
O=C1NC(/C)=C(/Cl)C(=O)N1C(C)(C)C

> <STRUCTURE_Parent_SMILES>
O=C1NC(/C)=C(/Cl)C(=O)N1C(C)(C)C

> <STRUCTURE_InChIS>
InChI=1S/C9H13ClN2O2/c1-5-6(10)7(13)12(8(14)11-5)9(2,3)4/h1-4H3,(H,11,14)

> <STRUCTURE_InChIKey>
NBQCNZYJJMBDKY-UHFFFAOYSA-N

> <Substance_modify_yyyymmdd>
20080429

> <Coord_Metals>
0

> <Index>
448

> <Canonical_Smiles>
CC1=C(Cl)C(=O)N(C(=O)N1)C(C)(C)C

> <Molecular_Weight>
216.66471

> <Frequency>
1

$$$$

  SciTegic          2D

 12 12  0  0  0  0            999 V2000
   -2.3383   -1.3500    0.0000 Cl  0  0
   -2.3383    1.3500    0.0000 Cl  0  0
    2.3383    1.3500    0.0000 Cl  0  0
    2.3383   -1.3500    0.0000 Cl  0  0
    1.2990   -0.7500    0.0000 C   0  0
    1.2990    0.7500    0.0000 C   0  0
    0.0000   -1.5000    0.0000 C   0  0
    0.0000    1.5000    0.0000 C   0  0
   -1.2990   -0.7500    0.0000 C   0  0
   -1.2990    0.7500    0.0000 C   0  0
    0.0000   -2.5000    0.0000 H   0  0
    0.0000    2.5000    0.0000 H   0  0
  1  9  1  0
  2 10  1  0
  3  6  1  0
  4  5  1  0
  5  6  1  0
  5  7  2  0
  6  8  2  0
  7  9  1  0
  8 10  1  0
  9 10  2  0
  7 11  1  0
  8 12  1  0
V    1 0
V    2 1
V    3 2
V    4 3
V    5 4
V    6 5
V    7 6
V    8 7
V    9 8
V   10 9
M  END
> <DSSTox_RID>
62373

> <DSSTox_CID>
4320

> <DSSTox_CID_Parent>
4320

> <DSSTox_Generic_SID>
24320

> <DSSTox_FileID>
449_TXCST2_v1a

> <STRUCTURE_Formula>
C6H2Cl4

> <STRUCTURE_MolecularWeight>
215.8921

> <STRUCTURE_ChemicalType>
defined organic

> <STRUCTURE_TestedForm_DefinedOrganic>
parent

> <STRUCTURE_Shown>
tested chemical

> <TestSubstance_ChemicalName>
1,2,4,5-Tetrachlorobenzene

> <TestSubstance_CASRN>
95-94-3

> <TestSubstance_Description>
single chemical compound

> <STRUCTURE_ChemicalName_IUPAC>
1,2,4,5-tetrachlorobenzene

> <STRUCTURE_SMILES>
Clc1cc(Cl)c(Cl)cc1Cl

> <STRUCTURE_Parent_SMILES>
Clc1cc(Cl)c(Cl)cc1Cl

> <STRUCTURE_InChIS>
InChI=1S/C6H2Cl4/c7-3-1-4(8)6(10)2-5(3)9/h1-2H

> <STRUCTURE_InChIKey>
JHBKHLUZVFWLAG-UHFFFAOYSA-N

> <Substance_modify_yyyymmdd>
20080429

> <Coord_Metals>
0

> <Index>
449

> <Canonical_Smiles>
Clc1cc(Cl)c(Cl)cc1Cl

> <Molecular_Weight>
215.89207

> <Frequency>
1

$$$$

  SciTegic          2D

 32 32  0  0  0  0            999 V2000
    5.1988   -1.5012    0.0000 C   0  0
    5.1984   -2.7012    0.0000 O   0  0
    6.4990   -0.7516    0.0000 N   0  0
    3.8990   -0.7508    0.0000 S   0  0
    7.7988   -1.5020    0.0000 C   0  0
    9.0990   -0.7525    0.0000 C   0  0
    6.4964    0.7492    0.0000 C   0  0
    5.1958    1.4982    0.0000 C   0  0
    2.5988   -1.5004    0.0000 C   0  0
    1.2990   -0.7500    0.0000 C   0  0
    1.2990    0.7500    0.0000 C   0  0
    0.0000   -1.5000    0.0000 C   0  0
    0.0000    1.5000    0.0000 C   0  0
   -1.2990   -0.7500    0.0000 C   0  0
   -1.2990    0.7500    0.0000 C   0  0
   -2.3383    1.3500    0.0000 Cl  0  0
    7.7984   -2.5020    0.0000 H   0  0
    6.9326   -2.0019    0.0000 H   0  0
    9.9650   -1.2525    0.0000 H   0  0
    9.0993    0.2475    0.0000 H   0  0
    9.9651   -0.2526    0.0000 H   0  0
    7.3632    0.2506    0.0000 H   0  0
    7.3617    1.2504    0.0000 H   0  0
    5.1941    2.4982    0.0000 H   0  0
    4.3290    1.9968    0.0000 H   0  0
    4.3305    0.9969    0.0000 H   0  0
    2.5985   -2.5004    0.0000 H   0  0
    3.4646   -2.0008    0.0000 H   0  0
    2.1651    1.2500    0.0000 H   0  0
    0.0000   -2.5000    0.0000 H   0  0
    0.0000    2.5000    0.0000 H   0  0
   -2.1651   -1.2500    0.0000 H   0  0
  1  2  2  0
  1  4  1  0
  1  3  1  0
  3  5  1  0
  3  7  1  0
  4  9  1  0
  5  6  1  0
  7  8  1  0
  9 10  1  0
 10 11  2  0
 10 12  1  0
 11 13  1  0
 12 14  2  0
 13 15  2  0
 14 15  1  0
 15 16  1  0
  5 17  1  0
  5 18  1  0
  6 19  1  0
  6 20  1  0
  6 21  1  0
  7 22  1  0
  7 23  1  0
  8 24  1  0
  8 25  1  0
  8 26  1  0
  9 27  1  0
  9 28  1  0
 11 29  1  0
 12 30  1  0
 13 31  1  0
 14 32  1  0
V    1 0
V    2 1
V    3 2
V    4 3
V    5 4
V    6 5
V    7 6
V    8 7
V    9 8
V   10 9
V   11 10
V   12 11
V   13 12
V   14 13
V   15 14
V   16 15
M  END
> <DSSTox_RID>
65300

> <DSSTox_CID>
4337

> <DSSTox_CID_Parent>
4337

> <DSSTox_Generic_SID>
24337

> <DSSTox_FileID>
450_TXCST2_v1a

> <STRUCTURE_Formula>
C12H16ClNOS

> <STRUCTURE_MolecularWeight>
257.7795

> <STRUCTURE_ChemicalType>
defined organic

> <STRUCTURE_TestedForm_DefinedOrganic>
parent

> <STRUCTURE_Shown>
tested chemical

> <TestSubstance_ChemicalName>
Thiobencarb

> <TestSubstance_CASRN>
28249-77-6

> <TestSubstance_Description>
single chemical compound

> <STRUCTURE_ChemicalName_IUPAC>
S-(4-chlorobenzyl) diethylthiocarbamate

> <STRUCTURE_SMILES>
Clc1ccc(CSC(=O)N(CC)CC)cc1

> <STRUCTURE_Parent_SMILES>
Clc1ccc(CSC(=O)N(CC)CC)cc1

> <STRUCTURE_InChIS>
InChI=1S/C12H16ClNOS/c1-3-14(4-2)12(15)16-9-10-5-7-11(13)8-6-10/h5-8H,3-4,9H2,1-2H3

> <STRUCTURE_InChIKey>
QHTQREMOGMZHJV-UHFFFAOYSA-N

> <Substance_modify_yyyymmdd>
20080429

> <Coord_Metals>
0

> <Index>
450

> <Canonical_Smiles>
CCN(CC)C(=O)SCc1ccc(Cl)cc1

> <Molecular_Weight>
257.77953

> <Frequency>
1

$$$$

  SciTegic          2D

 36 36  0  0  0  0            999 V2000
    2.5951    3.0039    0.0000 C   0  0
    2.5951   -3.0039    0.0000 C   0  0
    3.8933    3.7570    0.0000 N   0  0
    3.8933   -3.7570    0.0000 N   0  0
    3.8912    5.2578    0.0000 C   0  0
    3.8912   -5.2578    0.0000 C   0  0
    2.5972    1.5031    0.0000 N   0  0
    2.5973   -1.5031    0.0000 N   0  0
    1.2990   -0.7500    0.0000 C   0  0
    1.2990    0.7500    0.0000 C   0  0
    1.5548   -3.6021    0.0000 S   0  0
    1.5548    3.6021    0.0000 S   0  0
    2.8509    5.8560    0.0000 O   0  0
    2.8509   -5.8560    0.0000 O   0  0
    5.1894    6.0109    0.0000 O   0  0
    5.1894   -6.0109    0.0000 O   0  0
    0.0000    1.5000    0.0000 C   0  0
    0.0000   -1.5000    0.0000 C   0  0
    5.1873   -7.5117    0.0000 C   0  0
    5.1872    7.5118    0.0000 C   0  0
   -1.2990   -0.7500    0.0000 C   0  0
   -1.2990    0.7500    0.0000 C   0  0
    4.7602    3.2585    0.0000 H   0  0
    4.7602   -3.2585    0.0000 H   0  0
    3.4641    1.0046    0.0000 H   0  0
    3.4642   -1.0046    0.0000 H   0  0
    0.0000    2.5000    0.0000 H   0  0
    0.0000   -2.5000    0.0000 H   0  0
    6.0523   -8.0135    0.0000 H   0  0
    4.3204   -8.0102    0.0000 H   0  0
    5.1854   -8.5117    0.0000 H   0  0
    6.0522    8.0135    0.0000 H   0  0
    4.3203    8.0102    0.0000 H   0  0
    5.1853    8.5118    0.0000 H   0  0
   -2.1651   -1.2500    0.0000 H   0  0
   -2.1651    1.2500    0.0000 H   0  0
  1  3  1  0
  1  7  1  0
  1 12  2  0
  2  8  1  0
  2  4  1  0
  2 11  2  0
  3  5  1  0
  4  6  1  0
  5 13  2  0
  5 15  1  0
  6 14  2  0
  6 16  1  0
  7 10  1  0
  8  9  1  0
  9 10  2  0
  9 18  1  0
 10 17  1  0
 15 20  1  0
 16 19  1  0
 17 22  2  0
 18 21  2  0
 21 22  1  0
  3 23  1  0
  4 24  1  0
  7 25  1  0
  8 26  1  0
 17 27  1  0
 18 28  1  0
 19 29  1  0
 19 30  1  0
 19 31  1  0
 20 32  1  0
 20 33  1  0
 20 34  1  0
 21 35  1  0
 22 36  1  0
V    1 0
V    2 1
V    3 2
V    4 3
V    5 4
V    6 5
V    7 6
V    8 7
V    9 8
V   10 9
V   11 10
V   12 11
V   13 12
V   14 13
V   15 14
V   16 15
V   17 16
V   18 17
V   19 18
V   20 19
V   21 20
V   22 21
M  END
> <DSSTox_RID>
65301

> <DSSTox_CID>
4338

> <DSSTox_CID_Parent>
4338

> <DSSTox_Generic_SID>
24338

> <DSSTox_FileID>
451_TXCST2_v1a

> <STRUCTURE_Formula>
C12H14N4O4S2

> <STRUCTURE_MolecularWeight>
342.394

> <STRUCTURE_ChemicalType>
defined organic

> <STRUCTURE_TestedForm_DefinedOrganic>
parent

> <STRUCTURE_Shown>
tested chemical

> <TestSubstance_ChemicalName>
Thiophanate-methyl

> <TestSubstance_CASRN>
23564-05-8

> <TestSubstance_Description>
single chemical compound

> <STRUCTURE_ChemicalName_IUPAC>
dimethyl [1,2-phenylenebis(iminocarbonothioyl)]biscarbamate

> <STRUCTURE_SMILES>
S=C(Nc1ccccc1NC(=S)NC(=O)OC)NC(=O)OC

> <STRUCTURE_Parent_SMILES>
S=C(Nc1ccccc1NC(=S)NC(=O)OC)NC(=O)OC

> <STRUCTURE_InChIS>
InChI=1S/C12H14N4O4S2/c1-19-11(17)15-9(21)13-7-5-3-4-6-8(7)14-10(22)16-12(18)20-2/h3-6H,1-2H3,(H2,13,15,17,21)(H2,14,16,18,22)

> <STRUCTURE_InChIKey>
QGHREAKMXXNCOA-UHFFFAOYSA-N

> <Substance_modify_yyyymmdd>
20080429

> <Coord_Metals>
0

> <Index>
451

> <Canonical_Smiles>
COC(=O)NC(=S)Nc1ccccc1NC(=S)NC(=O)OC

> <Molecular_Weight>
342.39396

> <Frequency>
1

$$$$

  SciTegic          2D

 32 31  0  0  0  0            999 V2000
    6.5000    0.7500    0.0000 C   0  0
    2.6000    0.0000    0.0000 C   0  0
    1.3000    0.7500    0.0000 C   0  0
    7.7999    0.0000    0.0000 N   0  0
    5.2000    0.0000    0.0000 S   0  0
    3.9000    0.7500    0.0000 C   0  0
    6.5000    1.9500    0.0000 O   0  0
    2.6000   -1.2000    0.0000 Cl  0  0
    0.2606    0.1503    0.0000 Cl  0  0
    1.3000    1.9500    0.0000 Cl  0  0
    9.2780    0.2601    0.0000 C   0  0
    7.7999   -1.5007    0.0000 C   0  0
    9.7927    1.6700    0.0000 C   0  0
    6.2534   -1.5797    0.0000 C   0  0
    8.2932    1.4310    0.0000 C   0  0
    8.5051   -2.8794    0.0000 C   0  0
    3.9000    1.7500    0.0000 H   0  0
    4.7659    1.2501    0.0000 H   0  0
    9.9203   -0.5063    0.0000 H   0  0
    8.6660   -2.0006    0.0000 H   0  0
   10.7776    1.8433    0.0000 H   0  0
    9.1504    2.4364    0.0000 H   0  0
   10.1352    2.6095    0.0000 H   0  0
    5.7530   -0.7139    0.0000 H   0  0
    5.2535   -1.5927    0.0000 H   0  0
    5.7758   -2.4583    0.0000 H   0  0
    7.3085    1.2567    0.0000 H   0  0
    8.6343    2.3710    0.0000 H   0  0
    7.6498    2.1965    0.0000 H   0  0
    9.5051   -2.8797    0.0000 H   0  0
    7.9832   -3.7324    0.0000 H   0  0
    8.9940   -3.7518    0.0000 H   0  0
  1  4  1  0
  1  5  1  0
  1  7  2  0
  2  6  1  0
  2  3  2  0
  2  8  1  0
  3  9  1  0
  3 10  1  0
  4 11  1  0
  4 12  1  0
  5  6  1  0
 11 13  1  0
 11 15  1  0
 12 14  1  0
 12 16  1  0
  6 17  1  0
  6 18  1  0
 11 19  1  0
 12 20  1  0
 13 21  1  0
 13 22  1  0
 13 23  1  0
 14 24  1  0
 14 25  1  0
 14 26  1  0
 15 27  1  0
 15 28  1  0
 15 29  1  0
 16 30  1  0
 16 31  1  0
 16 32  1  0
V    1 0
V    2 1
V    3 2
V    4 3
V    5 4
V    6 5
V    7 6
V    8 7
V    9 8
V   10 9
V   11 10
V   12 11
V   13 12
V   14 13
V   15 14
V   16 15
M  END
> <DSSTox_RID>
59530

> <DSSTox_CID>
4344

> <DSSTox_CID_Parent>
4344

> <DSSTox_Generic_SID>
24344

> <DSSTox_FileID>
452_TXCST2_v1a

> <STRUCTURE_Formula>
C10H16Cl3NOS

> <STRUCTURE_MolecularWeight>
304.6641

> <STRUCTURE_ChemicalType>
defined organic

> <STRUCTURE_TestedForm_DefinedOrganic>
parent

> <STRUCTURE_Shown>
tested chemical

> <TestSubstance_ChemicalName>
Tri-allate

> <TestSubstance_CASRN>
2303-17-5

> <TestSubstance_Description>
single chemical compound

> <STRUCTURE_ChemicalName_IUPAC>
S-(2,3,3-trichloroprop-2-en-1-yl) diisopropylthiocarbamate

> <STRUCTURE_SMILES>
CC(C)N(C(=O)SCC(\Cl)=C(/Cl)Cl)C(C)C

> <STRUCTURE_Parent_SMILES>
CC(C)N(C(=O)SCC(\Cl)=C(/Cl)Cl)C(C)C

> <STRUCTURE_InChIS>
InChI=1S/C10H16Cl3NOS/c1-6(2)14(7(3)4)10(15)16-5-8(11)9(12)13/h6-7H,5H2,1-4H3

> <STRUCTURE_InChIKey>
MWBPRDONLNQCFV-UHFFFAOYSA-N

> <Substance_modify_yyyymmdd>
20080429

> <Coord_Metals>
0

> <Index>
452

> <Canonical_Smiles>
CC(C)N(C(C)C)C(=O)SCC(=C(Cl)Cl)Cl

> <Molecular_Weight>
304.66414

> <Frequency>
1

$$$$

  SciTegic          2D

 13 13  0  0  0  0            999 V2000
    2.3383   -1.3500    0.0000 Cl  0  0
    1.2990   -0.7500    0.0000 C   0  0
    1.2990    0.7500    0.0000 C   0  0
    0.0000    1.5000    0.0000 C   0  0
   -1.2990    0.7500    0.0000 C   0  0
   -1.2990   -0.7500    0.0000 C   0  0
    0.0000   -1.5000    0.0000 C   0  0
   -2.3383   -1.3500    0.0000 Cl  0  0
   -2.3383    1.3500    0.0000 Cl  0  0
    2.5972    1.5031    0.0000 O   0  0
    0.0000    2.5000    0.0000 H   0  0
    0.0000   -2.5000    0.0000 H   0  0
    2.5958    2.5031    0.0000 H   0  0
  1  2  1  0
  2  3  2  0
  2  7  1  0
  3  4  1  0
  3 10  1  0
  4  5  2  0
  5  6  1  0
  5  9  1  0
  6  7  2  0
  6  8  1  0
  4 11  1  0
  7 12  1  0
 10 13  1  0
V    1 0
V    2 1
V    3 2
V    4 3
V    5 4
V    6 5
V    7 6
V    8 7
V    9 8
V   10 9
M  END
> <DSSTox_RID>
60403

> <DSSTox_CID>
4359

> <DSSTox_CID_Parent>
4359

> <DSSTox_Generic_SID>
24359

> <DSSTox_FileID>
453_TXCST2_v1a

> <STRUCTURE_Formula>
C6H3Cl3O

> <STRUCTURE_MolecularWeight>
197.4464

> <STRUCTURE_ChemicalType>
defined organic

> <STRUCTURE_TestedForm_DefinedOrganic>
parent

> <STRUCTURE_Shown>
tested chemical

> <TestSubstance_ChemicalName>
2,4,5-Trichlorophenol

> <TestSubstance_CASRN>
95-95-4

> <TestSubstance_Description>
single chemical compound

> <STRUCTURE_ChemicalName_IUPAC>
2,4,5-trichlorophenol

> <STRUCTURE_SMILES>
ClC1=C(O)C=C(Cl)C(Cl)=C1

> <STRUCTURE_Parent_SMILES>
ClC1=C(O)C=C(Cl)C(Cl)=C1

> <STRUCTURE_InChIS>
InChI=1S/C6H3Cl3O/c7-3-1-5(9)6(10)2-4(3)8/h1-2,10H

> <STRUCTURE_InChIKey>
LHJGJYXLEPZJPM-UHFFFAOYSA-N

> <Substance_modify_yyyymmdd>
20080429

> <Coord_Metals>
0

> <Index>
453

> <Canonical_Smiles>
Oc1cc(Cl)c(Cl)cc1Cl

> <Molecular_Weight>
197.44642

> <Frequency>
1

$$$$

  SciTegic          2D

 30 29  0  0  0  0            999 V2000
    1.3000    0.7500    0.0000 O   0  0
    2.6000    0.0000    0.0000 C   0  0
    3.9000    0.7500    0.0000 C   0  0
    5.2000    0.0000    0.0000 O   0  0
    6.5000    0.7500    0.0000 C   0  0
    7.7999    0.0000    0.0000 C   0  0
    9.0999    0.7500    0.0000 O   0  0
   10.3999    0.0000    0.0000 C   0  0
   11.6999    0.7500    0.0000 C   0  0
   12.9999    0.0000    0.0000 O   0  0
   14.2999    0.7500    0.0000 C   0  0
   15.5999    0.0000    0.0000 C   0  0
    0.4338    0.2503    0.0000 H   0  0
    2.6000   -1.0000    0.0000 H   0  0
    1.7340   -0.5001    0.0000 H   0  0
    3.9000    1.7500    0.0000 H   0  0
    4.7659    1.2501    0.0000 H   0  0
    6.5000    1.7500    0.0000 H   0  0
    5.6340    1.2501    0.0000 H   0  0
    7.7999   -1.0000    0.0000 H   0  0
    8.6659   -0.5001    0.0000 H   0  0
   10.3999   -1.0000    0.0000 H   0  0
    9.5340   -0.5001    0.0000 H   0  0
   11.6999    1.7500    0.0000 H   0  0
   12.5659    1.2501    0.0000 H   0  0
   14.2999    1.7500    0.0000 H   0  0
   13.4339    1.2501    0.0000 H   0  0
   16.4661    0.4997    0.0000 H   0  0
   15.5999   -1.0000    0.0000 H   0  0
   16.4658   -0.5001    0.0000 H   0  0
  1  2  1  0
  2  3  1  0
  3  4  1  0
  4  5  1  0
  5  6  1  0
  6  7  1  0
  7  8  1  0
  8  9  1  0
  9 10  1  0
 10 11  1  0
 11 12  1  0
  1 13  1  0
  2 14  1  0
  2 15  1  0
  3 16  1  0
  3 17  1  0
  5 18  1  0
  5 19  1  0
  6 20  1  0
  6 21  1  0
  8 22  1  0
  8 23  1  0
  9 24  1  0
  9 25  1  0
 11 26  1  0
 11 27  1  0
 12 28  1  0
 12 29  1  0
 12 30  1  0
V    1 0
V    2 1
V    3 2
V    4 3
V    5 4
V    6 5
V    7 6
V    8 7
V    9 8
V   10 9
V   11 10
V   12 11
M  END
> <DSSTox_RID>
60888

> <DSSTox_CID>
4368

> <DSSTox_CID_Parent>
4368

> <DSSTox_Generic_SID>
24368

> <DSSTox_FileID>
454_TXCST2_v1a

> <STRUCTURE_Formula>
C8H18O4

> <STRUCTURE_MolecularWeight>
178.2261

> <STRUCTURE_ChemicalType>
defined organic

> <STRUCTURE_TestedForm_DefinedOrganic>
parent

> <STRUCTURE_Shown>
tested chemical

> <TestSubstance_ChemicalName>
2-[2-(2-Ethoxyethoxy)ethoxy]ethanol

> <TestSubstance_CASRN>
112-50-5

> <TestSubstance_Description>
single chemical compound

> <STRUCTURE_ChemicalName_IUPAC>
2-[2-(2-ethoxyethoxy)ethoxy]ethanol

> <STRUCTURE_SMILES>
OCCOCCOCCOCC

> <STRUCTURE_Parent_SMILES>
OCCOCCOCCOCC

> <STRUCTURE_InChIS>
InChI=1S/C8H18O4/c1-2-10-5-6-12-8-7-11-4-3-9/h9H,2-8H2,1H3

> <STRUCTURE_InChIKey>
WFSMVVDJSNMRAR-UHFFFAOYSA-N

> <Substance_modify_yyyymmdd>
20080429

> <Coord_Metals>
0

> <Index>
454

> <Canonical_Smiles>
CCOCCOCCOCCO

> <Molecular_Weight>
178.22611

> <Frequency>
1

$$$$

  SciTegic          2D

 34 33  0  0  0  0            999 V2000
    6.5000    0.7500    0.0000 C   0  0
    7.7999    0.0000    0.0000 N   0  0
    6.5000    1.9500    0.0000 O   0  0
    5.2000    0.0000    0.0000 S   0  0
    9.0999    0.7500    0.0000 C   0  0
    7.7969   -1.5008    0.0000 C   0  0
    3.9000    0.7500    0.0000 C   0  0
   10.3999    0.0000    0.0000 C   0  0
    6.4960   -2.2494    0.0000 C   0  0
    2.6000    0.0000    0.0000 C   0  0
    1.3000    0.7500    0.0000 C   0  0
   11.6999    0.7500    0.0000 C   0  0
    6.4929   -3.7502    0.0000 C   0  0
    9.0999    1.7500    0.0000 H   0  0
    8.2340    1.2501    0.0000 H   0  0
    8.6620   -2.0023    0.0000 H   0  0
    8.6638   -1.0025    0.0000 H   0  0
    3.9000    1.7500    0.0000 H   0  0
    4.7659    1.2501    0.0000 H   0  0
   10.3999   -1.0000    0.0000 H   0  0
    9.5340   -0.5001    0.0000 H   0  0
    5.6309   -1.7479    0.0000 H   0  0
    6.4976   -1.2494    0.0000 H   0  0
    2.6000   -1.0000    0.0000 H   0  0
    1.7340   -0.5001    0.0000 H   0  0
    0.4338    0.2503    0.0000 H   0  0
    1.3000    1.7500    0.0000 H   0  0
    0.4340    1.2501    0.0000 H   0  0
   12.5661    0.2503    0.0000 H   0  0
   11.6999    1.7500    0.0000 H   0  0
   12.5659    1.2501    0.0000 H   0  0
    5.6262   -4.2490    0.0000 H   0  0
    6.4914   -4.7502    0.0000 H   0  0
    7.3581   -4.2517    0.0000 H   0  0
  1  2  1  0
  1  3  2  0
  1  4  1  0
  2  5  1  0
  2  6  1  0
  4  7  1  0
  5  8  1  0
  6  9  1  0
  7 10  1  0
  8 12  1  0
  9 13  1  0
 10 11  1  0
  5 14  1  0
  5 15  1  0
  6 16  1  0
  6 17  1  0
  7 18  1  0
  7 19  1  0
  8 20  1  0
  8 21  1  0
  9 22  1  0
  9 23  1  0
 10 24  1  0
 10 25  1  0
 11 26  1  0
 11 27  1  0
 11 28  1  0
 12 29  1  0
 12 30  1  0
 12 31  1  0
 13 32  1  0
 13 33  1  0
 13 34  1  0
V    1 0
V    2 1
V    3 2
V    4 3
V    5 4
V    6 5
V    7 6
V    8 7
V    9 8
V   10 9
V   11 10
V   12 11
V   13 12
M  END
> <DSSTox_RID>
61831

> <DSSTox_CID>
4376

> <DSSTox_CID_Parent>
4376

> <DSSTox_Generic_SID>
24376

> <DSSTox_FileID>
455_TXCST2_v1a

> <STRUCTURE_Formula>
C10H21NOS

> <STRUCTURE_MolecularWeight>
203.3448

> <STRUCTURE_ChemicalType>
defined organic

> <STRUCTURE_TestedForm_DefinedOrganic>
parent

> <STRUCTURE_Shown>
tested chemical

> <TestSubstance_ChemicalName>
Vernolate

> <TestSubstance_CASRN>
1929-77-7

> <TestSubstance_Description>
single chemical compound

> <STRUCTURE_ChemicalName_IUPAC>
S-propyl dipropylthiocarbamate

> <STRUCTURE_SMILES>
O=C(SCCC)N(CCC)CCC

> <STRUCTURE_InChIS>
InChI=1S/C10H21NOS/c1-4-7-11(8-5-2)10(12)13-9-6-3/h4-9H2,1-3H3

> <STRUCTURE_InChIKey>
OKUGPJPKMAEJOE-UHFFFAOYSA-N

> <Substance_modify_yyyymmdd>
20080429

> <Coord_Metals>
0

> <Index>
455

> <Canonical_Smiles>
CCCSC(=O)N(CCC)CCC

> <Molecular_Weight>
203.34483

> <Frequency>
1

$$$$

  SciTegic          2D

 19 18  0  0  0  0            999 V2000
    2.6000    0.0000    0.0000 N   0  0
    1.3000    0.7500    0.0000 O   0  0
    3.9000    0.7500    0.0000 C   0  0
    5.2000    0.0000    0.0000 C   0  0
    6.5000    0.7500    0.0000 S   0  0
    7.7999    0.0000    0.0000 C   0  0
    5.2000   -1.5007    0.0000 C   0  0
    5.2028    1.5300    0.0000 C   0  0
    0.4338    0.2503    0.0000 H   0  0
    3.9000    1.7500    0.0000 H   0  0
    8.6661    0.4997    0.0000 H   0  0
    8.6659   -0.5001    0.0000 H   0  0
    7.7999   -1.0000    0.0000 H   0  0
    4.3343   -2.0013    0.0000 H   0  0
    5.2004   -2.5007    0.0000 H   0  0
    6.0661   -2.0005    0.0000 H   0  0
    6.0695    2.0289    0.0000 H   0  0
    5.2042    2.5300    0.0000 H   0  0
    4.3376    2.0313    0.0000 H   0  0
  1  2  1  0
  1  3  2  0
  3  4  1  0
  4  5  1  0
  4  7  1  0
  4  8  1  0
  5  6  1  0
  2  9  1  0
  3 10  1  0
  6 11  1  0
  6 12  1  0
  6 13  1  0
  7 14  1  0
  7 15  1  0
  7 16  1  0
  8 17  1  0
  8 18  1  0
  8 19  1  0
V    1 0
V    2 1
V    3 2
V    4 3
V    5 4
V    6 5
V    7 6
V    8 7
M  END
> <DSSTox_RID>
60843

> <DSSTox_CID>
4431

> <DSSTox_CID_Parent>
4431

> <DSSTox_Generic_SID>
24431

> <DSSTox_FileID>
456_TXCST2_v1a

> <STRUCTURE_Formula>
C5H11NOS

> <STRUCTURE_MolecularWeight>
133.2119

> <STRUCTURE_ChemicalType>
defined organic

> <STRUCTURE_TestedForm_DefinedOrganic>
parent

> <STRUCTURE_Shown>
tested chemical

> <TestSubstance_ChemicalName>
Aldicarb oxime

> <TestSubstance_CASRN>
1646-75-9

> <TestSubstance_Description>
single chemical compound

> <STRUCTURE_ChemicalName_IUPAC>
(1E)-2-methyl-2-(methylthio)propanal oxime

> <STRUCTURE_SMILES>
N(O)=CC(SC)(C)C

> <STRUCTURE_Parent_SMILES>
N(O)=CC(SC)(C)C

> <STRUCTURE_InChIS>
InChI=1S/C5H11NOS/c1-5(2,8-3)4-6-7/h4,7H,1-3H3/b6-4+

> <STRUCTURE_InChIKey>
ZFGMCJAXIZTVJA-GQCTYLIASA-N

> <Substance_modify_yyyymmdd>
20080429

> <Coord_Metals>
0

> <Index>
456

> <Canonical_Smiles>
CSC(C)(C)C=NO

> <Molecular_Weight>
133.21193

> <Frequency>
1

$$$$

  SciTegic          2D

 46 48  0  0  0  0            999 V2000
    2.6035   -9.7484    0.0000 S   0  0
    2.6035   -8.2476    0.0000 C   0  0
    3.9025   -7.4976    0.0000 C   0  0
    3.9025   -5.9976    0.0000 C   0  0
    2.6034   -5.2475    0.0000 C   0  0
    2.6003   -3.7467    0.0000 N   0  0
    1.2995   -2.9981    0.0000 N   0  0
    1.2964   -1.4973    0.0000 C   0  0
    0.0000   -0.7486    0.0000 C   0  0
    0.0000    0.7486    0.0000 C   0  0
   -1.2964    1.4973    0.0000 C   0  0
   -2.6111    0.7486    0.0000 C   0  0
   -3.9106    1.4992    0.0000 S   0  0
   -3.9114    3.0001    0.0000 O   0  0
   -4.9497    0.8990    0.0000 O   0  0
   -4.9500    2.0989    0.0000 O   0  0
   -2.6111   -0.7486    0.0000 C   0  0
   -1.2964   -1.4973    0.0000 C   0  0
    1.2964    1.4973    0.0000 C   0  0
    2.5929    0.7486    0.0000 C   0  0
    2.5929   -0.7486    0.0000 C   0  0
    3.8942   -1.4964    0.0000 O   0  0
    1.3044   -5.9976    0.0000 C   0  0
    1.3044   -7.4976    0.0000 C   0  0
    0.0047   -8.2481    0.0000 C   0  0
    5.2007   -5.2445    0.0000 O   0  0
    5.1986   -3.7437    0.0000 C   0  0
    3.9028  -10.4996    0.0000 O   0  0
    1.5641  -10.3481    0.0000 O   0  0
    2.6030  -10.9484    0.0000 O   0  0
    4.7685   -7.9976    0.0000 H   0  0
   -1.2934    2.4973    0.0000 H   0  0
   -4.7773    3.5002    0.0000 H   0  0
   -3.4756   -1.2512    0.0000 H   0  0
   -1.2934   -2.4973    0.0000 H   0  0
    1.2964    2.4973    0.0000 H   0  0
    3.4589    1.2486    0.0000 H   0  0
    4.7595   -0.9952    0.0000 H   0  0
    0.4383   -5.4977    0.0000 H   0  0
    0.0041   -9.2481    0.0000 H   0  0
   -0.8612   -7.7478    0.0000 H   0  0
   -0.8616   -8.7477    0.0000 H   0  0
    6.0636   -3.2419    0.0000 H   0  0
    4.3317   -3.2452    0.0000 H   0  0
    5.1967   -2.7437    0.0000 H   0  0
    3.9028  -11.4996    0.0000 H   0  0
  1  2  1  0
  1 28  1  0
  1 29  2  0
  1 30  2  0
  2  3  2  0
  2 24  1  0
  3  4  1  0
  4  5  2  0
  4 26  1  0
  6  5  1  0
  5 23  1  0
  6  7  2  0
  7  8  1  0
  8  9  2  0
  8 21  1  0
  9 10  1  0
  9 18  1  0
 10 11  1  0
 10 19  2  0
 11 12  2  0
 12 13  1  0
 12 17  1  0
 13 14  1  0
 13 15  2  0
 13 16  2  0
 17 18  2  0
 19 20  1  0
 20 21  2  0
 21 22  1  0
 23 24  2  0
 24 25  1  0
 26 27  1  0
  3 31  1  0
 11 32  1  0
 14 33  1  0
 17 34  1  0
 18 35  1  0
 19 36  1  0
 20 37  1  0
 22 38  1  0
 23 39  1  0
 25 40  1  0
 25 41  1  0
 25 42  1  0
 27 43  1  0
 27 44  1  0
 27 45  1  0
 28 46  1  0
V    1 0
V    2 1
V    3 2
V    4 3
V    5 4
V    6 5
V    7 6
V    8 7
V    9 8
V   10 9
V   11 10
V   12 11
V   13 12
V   14 13
V   15 14
V   16 15
V   17 16
V   18 17
V   19 18
V   20 19
V   21 20
V   22 21
V   23 22
V   24 23
V   25 24
V   26 25
V   27 26
V   28 27
V   29 28
V   30 29
M  END
> <DSSTox_RID>
59666

> <DSSTox_CID>
4436

> <DSSTox_CID_Parent>
24302

> <DSSTox_Generic_SID>
24436

> <DSSTox_FileID>
457_TXCST2_v1a

> <STRUCTURE_Formula>
C18H14N2Na2O8S2

> <STRUCTURE_MolecularWeight>
496.4219

> <STRUCTURE_ChemicalType>
defined organic

> <STRUCTURE_TestedForm_DefinedOrganic>
salt 2Na

> <STRUCTURE_Shown>
tested chemical

> <TestSubstance_ChemicalName>
Allura red

> <TestSubstance_CASRN>
25956-17-6

> <TestSubstance_Description>
single chemical compound

> <ChemicalNote>
C.I.16035

> <STRUCTURE_ChemicalName_IUPAC>
disodium 6-hydroxy-5-[(E)-(2-methoxy-5-methyl-4-sulfonatophenyl)diazenyl]naphthalene-2-sulfonate

> <STRUCTURE_SMILES>
[O-]S(c3ccc1c(c3)ccc(O)c1/N=N/c2cc(C)c(S([O-])(=O)=O)cc2OC)(=O)=O.[Na+].[Na+]

> <STRUCTURE_Parent_SMILES>
OS(c3ccc1c(c3)ccc(O)c1/N=N/c2cc(C)c(S(O)(=O)=O)cc2OC)(=O)=O

> <STRUCTURE_InChIS>
InChI=1S/C18H16N2O8S2.2Na/c1-10-7-14(16(28-2)9-17(10)30(25,26)27)19-20-18-13-5-4-12(29(22,23)24)8-11(13)3-6-15(18)21;;/h3-9,21H,1-2H3,(H,22,23,24)(H,25,26,27);;/q;2*+1/p-2/b20-19+;;

> <STRUCTURE_InChIKey>
CEZCCHQBSQPRMU-LLIZZRELSA-L

> <Substance_modify_yyyymmdd>
20080429

> <Coord_Metals>
0

> <Index>
457

> <Canonical_Smiles>
COc1cc(c(C)cc1N=Nc2c(O)ccc3cc(ccc23)S(=O)(=O)O)S(=O)(=O)O

> <Molecular_Weight>
452.45824

> <Frequency>
1

$$$$

  SciTegic          2D

 26 27  0  0  0  0            999 V2000
    2.5951   -3.0039    0.0000 N   0  0
    2.5973   -1.5031    0.0000 N   0  0
    1.2990   -0.7500    0.0000 C   0  0
    1.2990    0.7500    0.0000 C   0  0
    0.0000    1.5000    0.0000 C   0  0
   -1.2990    0.7500    0.0000 C   0  0
   -1.2990   -0.7500    0.0000 C   0  0
    0.0000   -1.5000    0.0000 C   0  0
    3.8933   -3.7570    0.0000 C   0  0
    3.8934   -5.2570    0.0000 C   0  0
    5.1924   -6.0070    0.0000 C   0  0
    6.4915   -5.2571    0.0000 C   0  0
    7.7928   -6.0048    0.0000 N   0  0
    6.4915   -3.7571    0.0000 C   0  0
    5.1925   -3.0070    0.0000 C   0  0
    2.1651    1.2500    0.0000 H   0  0
    0.0000    2.5000    0.0000 H   0  0
   -2.1651    1.2500    0.0000 H   0  0
   -2.1651   -1.2500    0.0000 H   0  0
    0.0000   -2.5000    0.0000 H   0  0
    3.0274   -5.7570    0.0000 H   0  0
    5.1924   -7.0070    0.0000 H   0  0
    8.6581   -5.5036    0.0000 H   0  0
    7.7945   -7.0048    0.0000 H   0  0
    7.3575   -3.2571    0.0000 H   0  0
    5.1925   -2.0070    0.0000 H   0  0
  1  2  2  0
  1  9  1  0
  2  3  1  0
  3  4  2  0
  3  8  1  0
  4  5  1  0
  5  6  2  0
  6  7  1  0
  7  8  2  0
  9 10  2  0
  9 15  1  0
 10 11  1  0
 11 12  2  0
 12 13  1  0
 12 14  1  0
 14 15  2  0
  4 16  1  0
  5 17  1  0
  6 18  1  0
  7 19  1  0
  8 20  1  0
 10 21  1  0
 11 22  1  0
 13 23  1  0
 13 24  1  0
 14 25  1  0
 15 26  1  0
V    1 0
V    2 1
V    3 2
V    4 3
V    5 4
V    6 5
V    7 6
V    8 7
V    9 8
V   10 9
V   11 10
V   12 11
V   13 12
V   14 13
V   15 14
M  END
> <DSSTox_RID>
60187

> <DSSTox_CID>
4460

> <DSSTox_CID_Parent>
4460

> <DSSTox_Generic_SID>
24460

> <DSSTox_FileID>
458_TXCST2_v1a

> <STRUCTURE_Formula>
C12H11N3

> <STRUCTURE_MolecularWeight>
197.2358

> <STRUCTURE_ChemicalType>
defined organic

> <STRUCTURE_TestedForm_DefinedOrganic>
parent

> <STRUCTURE_Shown>
tested chemical

> <TestSubstance_ChemicalName>
4-Aminoazobenzene

> <TestSubstance_CASRN>
60-09-3

> <TestSubstance_Description>
single chemical compound

> <STRUCTURE_ChemicalName_IUPAC>
4-[(E)-phenyldiazenyl]aniline

> <STRUCTURE_SMILES>
N(=Nc(cccc1)c1)c(ccc(N)c2)c2

> <STRUCTURE_Parent_SMILES>
N(=Nc(cccc1)c1)c(ccc(N)c2)c2

> <STRUCTURE_InChIS>
InChI=1S/C12H11N3/c13-10-6-8-12(9-7-10)15-14-11-4-2-1-3-5-11/h1-9H,13H2/b15-14+

> <STRUCTURE_InChIKey>
QPQKUYVSJWQSDY-CCEZHUSRSA-N

> <Substance_modify_yyyymmdd>
20080429

> <Coord_Metals>
0

> <Index>
458

> <Canonical_Smiles>
Nc1ccc(cc1)N=Nc2ccccc2

> <Molecular_Weight>
197.23583

> <Frequency>
1

$$$$

  SciTegic          2D

 17 17  0  0  0  0            999 V2000
    3.6375   -0.9049    0.0000 O   0  0
    2.5973   -1.5031    0.0000 C   0  0
    2.5951   -3.0039    0.0000 O   0  0
    1.2990   -0.7500    0.0000 C   0  0
    1.2990    0.7500    0.0000 C   0  0
    0.0000    1.5000    0.0000 C   0  0
   -1.2990    0.7500    0.0000 C   0  0
   -2.6003    1.4977    0.0000 N   0  0
   -1.2990   -0.7500    0.0000 C   0  0
    0.0000   -1.5000    0.0000 C   0  0
    3.4601   -3.5057    0.0000 H   0  0
    2.1651    1.2500    0.0000 H   0  0
    0.0000    2.5000    0.0000 H   0  0
   -3.4657    0.9965    0.0000 H   0  0
   -2.6021    2.4977    0.0000 H   0  0
   -2.1651   -1.2500    0.0000 H   0  0
    0.0000   -2.5000    0.0000 H   0  0
  1  2  2  0
  2  3  1  0
  2  4  1  0
  4  5  2  0
  4 10  1  0
  5  6  1  0
  6  7  2  0
  7  8  1  0
  7  9  1  0
  9 10  2  0
  3 11  1  0
  5 12  1  0
  6 13  1  0
  8 14  1  0
  8 15  1  0
  9 16  1  0
 10 17  1  0
V    1 0
V    2 1
V    3 2
V    4 3
V    5 4
V    6 5
V    7 6
V    8 7
V    9 8
V   10 9
M  END
> <DSSTox_RID>
66581

> <DSSTox_CID>
4466

> <DSSTox_CID_Parent>
4466

> <DSSTox_Generic_SID>
24466

> <DSSTox_FileID>
459_TXCST2_v1a

> <STRUCTURE_Formula>
C7H7NO2

> <STRUCTURE_MolecularWeight>
137.136

> <STRUCTURE_ChemicalType>
defined organic

> <STRUCTURE_TestedForm_DefinedOrganic>
parent

> <STRUCTURE_Shown>
tested chemical

> <TestSubstance_ChemicalName>
4-Aminobenzoic acid

> <TestSubstance_CASRN>
150-13-0

> <TestSubstance_Description>
single chemical compound

> <STRUCTURE_ChemicalName_IUPAC>
4-aminobenzoic acid

> <STRUCTURE_SMILES>
O=C(O)c(ccc(N)c1)c1

> <STRUCTURE_Parent_SMILES>
O=C(O)c(ccc(N)c1)c1

> <STRUCTURE_InChIS>
InChI=1S/C7H7NO2/c8-6-3-1-5(2-4-6)7(9)10/h1-4H,8H2,(H,9,10)

> <STRUCTURE_InChIKey>
ALYNCZNDIQEVRV-UHFFFAOYSA-N

> <Substance_modify_yyyymmdd>
20080429

> <Coord_Metals>
0

> <Index>
459

> <Canonical_Smiles>
Nc1ccc(cc1)C(=O)O

> <Molecular_Weight>
137.13597

> <Frequency>
1

$$$$

  SciTegic          2D

 18 18  0  0  0  0            999 V2000
    2.5973   -1.5031    0.0000 O   0  0
    1.2990   -0.7500    0.0000 C   0  0
    1.2990    0.7500    0.0000 C   0  0
    0.0000    1.5000    0.0000 C   0  0
   -1.2990    0.7500    0.0000 C   0  0
   -1.2990   -0.7500    0.0000 C   0  0
   -2.5972   -1.5031    0.0000 N   0  0
    2.5988    1.5004    0.0000 C   0  0
    0.0000   -1.5000    0.0000 C   0  0
    2.5958   -2.5031    0.0000 H   0  0
    0.0000    2.5000    0.0000 H   0  0
   -2.1651    1.2500    0.0000 H   0  0
   -2.5958   -2.5031    0.0000 H   0  0
   -3.4641   -1.0046    0.0000 H   0  0
    3.4651    1.0010    0.0000 H   0  0
    2.5985    2.5004    0.0000 H   0  0
    3.4646    2.0008    0.0000 H   0  0
    0.0000   -2.5000    0.0000 H   0  0
  1  2  1  0
  2  3  2  0
  2  9  1  0
  3  4  1  0
  3  8  1  0
  4  5  2  0
  5  6  1  0
  6  7  1  0
  6  9  2  0
  1 10  1  0
  4 11  1  0
  5 12  1  0
  7 13  1  0
  7 14  1  0
  8 15  1  0
  8 16  1  0
  8 17  1  0
  9 18  1  0
V    1 0
V    2 1
V    3 2
V    4 3
V    5 4
V    6 5
V    7 6
V    8 7
V    9 8
M  END
> <DSSTox_RID>
66800

> <DSSTox_CID>
4489

> <DSSTox_CID_Parent>
4489

> <DSSTox_Generic_SID>
24489

> <DSSTox_FileID>
460_TXCST2_v1a

> <STRUCTURE_Formula>
C7H9NO

> <STRUCTURE_MolecularWeight>
123.1525

> <STRUCTURE_ChemicalType>
defined organic

> <STRUCTURE_TestedForm_DefinedOrganic>
parent

> <STRUCTURE_Shown>
tested chemical

> <TestSubstance_ChemicalName>
5-Amino-o-cresol

> <TestSubstance_CASRN>
2835-95-2

> <TestSubstance_Description>
single chemical compound

> <STRUCTURE_ChemicalName_IUPAC>
5-amino-2-methylphenol

> <STRUCTURE_SMILES>
Oc(c(ccc1N)C)c1

> <STRUCTURE_Parent_SMILES>
Oc(c(ccc1N)C)c1

> <STRUCTURE_InChIS>
InChI=1S/C7H9NO/c1-5-2-3-6(8)4-7(5)9/h2-4,9H,8H2,1H3

> <STRUCTURE_InChIKey>
DBFYESDCPWWCHN-UHFFFAOYSA-N

> <Substance_modify_yyyymmdd>
20080429

> <Coord_Metals>
0

> <Index>
460

> <Canonical_Smiles>
Cc1ccc(N)cc1O

> <Molecular_Weight>
123.15246

> <Frequency>
1

$$$$

  SciTegic          2D

 47 50  0  0  0  0            999 V2000
   -2.9731   -1.1442    0.0000 C   0  0
   -1.6790   -0.3832    0.0000 C   0  0
   -2.9565    0.3102    0.0000 C   0  0
   -4.1792   -0.4015    0.0000 C   0  0
   -4.1792   -1.8432    0.0000 C   0  0
   -5.2209   -2.4390    0.0000 O   0  0
   -2.9382   -2.5732    0.0000 C   0  0
   -1.6790   -1.8250    0.0000 C   0  0
   -0.4197   -2.5550    0.0000 C   0  0
    0.8212   -1.8067    0.0000 C   0  0
    0.8030   -0.3650    0.0000 C   0  0
   -0.4380    0.3285    0.0000 C   0  0
   -0.4562    1.7885    0.0000 C   0  0
    0.8030    2.5185    0.0000 C   0  0
    2.0440    1.7885    0.0000 C   0  0
    2.0418    3.2897    0.0000 C   0  0
    3.3032    2.5367    0.0000 C   0  0
    3.2968    3.7367    0.0000 O   0  0
    4.5625    1.8067    0.0000 C   0  0
    4.5625    0.3285    0.0000 C   0  0
    2.0440    0.3467    0.0000 C   0  0
   -3.8434   -0.6517    0.0000 H   0  0
   -2.9649   -2.1442    0.0000 H   0  0
   -3.8349   -1.6515    0.0000 H   0  0
   -2.0857    0.8018    0.0000 H   0  0
   -3.8415    0.7758    0.0000 H   0  0
   -4.1573    0.5983    0.0000 H   0  0
   -5.0323   -0.9233    0.0000 H   0  0
   -2.9360   -3.5732    0.0000 H   0  0
    0.4615   -3.0276    0.0000 H   0  0
   -1.2927   -3.0428    0.0000 H   0  0
    1.6667   -1.2728    0.0000 H   0  0
   -0.0408   -1.2999    0.0000 H   0  0
    0.7981    0.6350    0.0000 H   0  0
   -1.3064    0.8243    0.0000 H   0  0
    0.4245    1.3149    0.0000 H   0  0
   -0.4404    2.7884    0.0000 H   0  0
    1.6819    2.9955    0.0000 H   0  0
   -0.0728    3.0011    0.0000 H   0  0
    1.1754    3.7889    0.0000 H   0  0
    2.9072    3.7907    0.0000 H   0  0
    2.0408    4.2897    0.0000 H   0  0
    5.4159    1.2856    0.0000 H   0  0
    4.5398    2.8065    0.0000 H   0  0
    4.2971   -0.6356    0.0000 H   0  0
    5.5286    0.5867    0.0000 H   0  0
    2.2979   -0.6205    0.0000 H   0  0
  2  1  1  0
  2  3  1  0
  2  8  1  0
  2 12  1  0
  3  4  1  0
  4  5  1  0
  5  6  2  0
  5  7  1  0
  7  8  2  0
  8  9  1  0
  9 10  1  0
 10 11  1  0
 11 12  1  0
 11 21  1  0
 12 13  1  0
 13 14  1  0
 14 15  1  0
 15 16  1  0
 15 17  1  0
 15 21  1  0
 17 18  2  0
 17 19  1  0
 19 20  1  0
 20 21  1  0
  1 22  1  0
  1 23  1  0
  1 24  1  0
  3 25  1  0
  3 26  1  0
  4 27  1  0
  4 28  1  0
  7 29  1  0
  9 30  1  0
  9 31  1  0
 10 32  1  0
 10 33  1  0
 11 34  1  0
 12 35  1  0
 13 36  1  0
 13 37  1  0
 14 38  1  0
 14 39  1  0
 16 40  1  0
 16 41  1  0
 16 42  1  0
 19 43  1  0
 19 44  1  0
 20 45  1  0
 20 46  1  0
 21 47  1  0
V    1 0
V    2 1
V    3 2
V    4 3
V    5 4
V    6 5
V    7 6
V    8 7
V    9 8
V   10 9
V   11 10
V   12 11
V   13 12
V   14 13
V   15 14
V   16 15
V   17 16
V   18 17
V   19 18
V   20 19
V   21 20
M  END
> <DSSTox_RID>
65925

> <DSSTox_CID>
4523

> <DSSTox_CID_Parent>
4523

> <DSSTox_Generic_SID>
24523

> <DSSTox_FileID>
461_TXCST2_v1a

> <STRUCTURE_Formula>
C19H26O2

> <STRUCTURE_MolecularWeight>
286.4085

> <STRUCTURE_ChemicalType>
defined organic

> <STRUCTURE_TestedForm_DefinedOrganic>
parent

> <STRUCTURE_Shown>
tested chemical

> <TestSubstance_ChemicalName>
Androstenedione, Androsterone sodium sulfate

> <TestSubstance_CASRN>
63-05-8

> <TestSubstance_Description>
single chemical compound

> <ChemicalNote>
stereochem

> <STRUCTURE_ChemicalName_IUPAC>
androst-4-ene-3,17-dione

> <STRUCTURE_SMILES>
O=C3/C=C4/CC[C@@H]2[C@H](CC[C@]1(C)C(=O)CC[C@H]12)[C@@]4(C)CC3

> <STRUCTURE_Parent_SMILES>
O=C3/C=C4/CC[C@@H]2[C@H](CC[C@]1(C)C(=O)CC[C@H]12)[C@@]4(C)CC3

> <STRUCTURE_InChIS>
InChI=1S/C19H26O2/c1-18-9-7-13(20)11-12(18)3-4-14-15-5-6-17(21)19(15,2)10-8-16(14)18/h11,14-16H,3-10H2,1-2H3/t14-,15-,16-,18-,19-/m0/s1

> <STRUCTURE_InChIKey>
AEMFNILZOJDQLW-QAGGRKNESA-N

> <Substance_modify_yyyymmdd>
20080429

> <Coord_Metals>
0

> <Index>
461

> <Canonical_Smiles>
CC12CCC3C(CCC4=CC(=O)CCC34C)C1CCC2=O

> <Molecular_Weight>
286.40854

> <Frequency>
1

$$$$

  SciTegic          2D

 27 29  0  0  0  0            999 V2000
    0.0037    2.7002    0.0000 O   0  0
    0.0000    1.5002    0.0000 C   0  0
   -1.2989    0.7501    0.0000 C   0  0
   -2.5978    1.5002    0.0000 C   0  0
   -2.6009    3.0010    0.0000 O   0  0
   -3.8968    0.7501    0.0000 C   0  0
   -3.8968   -0.7501    0.0000 C   0  0
   -2.5978   -1.5002    0.0000 C   0  0
   -1.2989   -0.7501    0.0000 C   0  0
    0.0000   -1.5002    0.0000 C   0  0
    1.2806   -0.7501    0.0000 C   0  0
    2.5978   -1.5002    0.0000 C   0  0
    3.8968   -0.7501    0.0000 C   0  0
    3.8968    0.7501    0.0000 C   0  0
    2.5978    1.5002    0.0000 C   0  0
    2.6098    3.0009    0.0000 O   0  0
    1.2806    0.7501    0.0000 C   0  0
   -3.4677    3.4998    0.0000 H   0  0
   -4.7628    1.2500    0.0000 H   0  0
   -4.7628   -1.2500    0.0000 H   0  0
   -2.5978   -2.5002    0.0000 H   0  0
    0.8789   -1.9771    0.0000 H   0  0
   -0.8759   -1.9826    0.0000 H   0  0
    2.6009   -2.5002    0.0000 H   0  0
    4.7628   -1.2500    0.0000 H   0  0
    4.7628    1.2500    0.0000 H   0  0
    3.4794    3.4946    0.0000 H   0  0
  1  2  2  0
  2  3  1  0
  2 17  1  0
  3  4  2  0
  3  9  1  0
  4  5  1  0
  4  6  1  0
  6  7  2  0
  7  8  1  0
  8  9  2  0
  9 10  1  0
 10 11  1  0
 11 12  2  0
 11 17  1  0
 12 13  1  0
 13 14  2  0
 14 15  1  0
 15 16  1  0
 15 17  2  0
  5 18  1  0
  6 19  1  0
  7 20  1  0
  8 21  1  0
 10 22  1  0
 10 23  1  0
 12 24  1  0
 13 25  1  0
 14 26  1  0
 16 27  1  0
V    1 0
V    2 1
V    3 2
V    4 3
V    5 4
V    6 5
V    7 6
V    8 7
V    9 8
V   10 9
V   11 10
V   12 11
V   13 12
V   14 13
V   15 14
V   16 15
V   17 16
M  END
> <DSSTox_RID>
59883

> <DSSTox_CID>
4538

> <DSSTox_CID_Parent>
4538

> <DSSTox_Generic_SID>
24538

> <DSSTox_FileID>
462_TXCST2_v1a

> <STRUCTURE_Formula>
C14H10O3

> <STRUCTURE_MolecularWeight>
226.2274

> <STRUCTURE_ChemicalType>
defined organic

> <STRUCTURE_TestedForm_DefinedOrganic>
parent

> <STRUCTURE_Shown>
tested chemical

> <TestSubstance_ChemicalName>
Anthralin

> <TestSubstance_CASRN>
1143-38-0

> <TestSubstance_Description>
single chemical compound

> <STRUCTURE_ChemicalName_IUPAC>
1,8-dihydroxyanthracen-9(10H)-one

> <STRUCTURE_SMILES>
O=C1c2c(O)cccc2Cc3cccc(O)c13

> <STRUCTURE_Parent_SMILES>
O=C1c2c(O)cccc2Cc3cccc(O)c13

> <STRUCTURE_InChIS>
InChI=1S/C14H10O3/c15-10-5-1-3-8-7-9-4-2-6-11(16)13(9)14(17)12(8)10/h1-6,15-16H,7H2

> <STRUCTURE_InChIKey>
NUZWLKWWNNJHPT-UHFFFAOYSA-N

> <Substance_modify_yyyymmdd>
20080429

> <Coord_Metals>
0

> <Index>
462

> <Canonical_Smiles>
Oc1cccc2Cc3cccc(O)c3C(=O)c12

> <Molecular_Weight>
226.22739

> <Frequency>
1

$$$$

  SciTegic          2D

 23 22  0  0  0  0            999 V2000
    6.5000    0.7500    0.0000 O   0  0
    5.2000    0.0000    0.0000 C   0  0
    3.9000    0.7500    0.0000 C   0  0
    2.6000    0.0000    0.0000 O   0  0
    1.3000    0.7500    0.0000 C   0  0
    7.7999    0.0000    0.0000 C   0  0
    9.0999    0.7500    0.0000 C   0  0
   10.3999    0.0000    0.0000 O   0  0
   11.6999    0.7500    0.0000 C   0  0
    5.2000   -1.0000    0.0000 H   0  0
    6.0659   -0.5001    0.0000 H   0  0
    3.9000    1.7500    0.0000 H   0  0
    3.0340    1.2501    0.0000 H   0  0
    0.4338    0.2503    0.0000 H   0  0
    1.3000    1.7500    0.0000 H   0  0
    0.4340    1.2501    0.0000 H   0  0
    7.7999   -1.0000    0.0000 H   0  0
    6.9340   -0.5001    0.0000 H   0  0
    9.0999    1.7500    0.0000 H   0  0
    9.9659    1.2501    0.0000 H   0  0
   12.5661    0.2503    0.0000 H   0  0
   11.6999    1.7500    0.0000 H   0  0
   12.5659    1.2501    0.0000 H   0  0
  1  2  1  0
  1  6  1  0
  2  3  1  0
  3  4  1  0
  4  5  1  0
  6  7  1  0
  7  8  1  0
  8  9  1  0
  2 10  1  0
  2 11  1  0
  3 12  1  0
  3 13  1  0
  5 14  1  0
  5 15  1  0
  5 16  1  0
  6 17  1  0
  6 18  1  0
  7 19  1  0
  7 20  1  0
  9 21  1  0
  9 22  1  0
  9 23  1  0
V    1 0
V    2 1
V    3 2
V    4 3
V    5 4
V    6 5
V    7 6
V    8 7
V    9 8
M  END
> <DSSTox_RID>
59776

> <DSSTox_CID>
4621

> <DSSTox_CID_Parent>
4621

> <DSSTox_Generic_SID>
24621

> <DSSTox_FileID>
463_TXCST2_v1a

> <STRUCTURE_Formula>
C6H14O3

> <STRUCTURE_MolecularWeight>
134.1736

> <STRUCTURE_ChemicalType>
defined organic

> <STRUCTURE_TestedForm_DefinedOrganic>
parent

> <STRUCTURE_Shown>
tested chemical

> <TestSubstance_ChemicalName>
Bis(2-methoxyethyl) ether

> <TestSubstance_CASRN>
111-96-6

> <TestSubstance_Description>
single chemical compound

> <Source_ChemicalNote>
tested chemical contained 0.005% water

> <STRUCTURE_ChemicalName_IUPAC>
1,1'-oxybis(2-methoxyethane)

> <STRUCTURE_SMILES>
O(CCOC)CCOC

> <STRUCTURE_Parent_SMILES>
O(CCOC)CCOC

> <STRUCTURE_InChIS>
InChI=1S/C6H14O3/c1-7-3-5-9-6-4-8-2/h3-6H2,1-2H3

> <STRUCTURE_InChIKey>
SBZXBUIDTXKZTM-UHFFFAOYSA-N

> <Substance_modify_yyyymmdd>
20080429

> <Coord_Metals>
0

> <Index>
463

> <Canonical_Smiles>
COCCOCCOC

> <Molecular_Weight>
134.17355

> <Frequency>
1

$$$$

  SciTegic          2D

 15 14  0  0  0  0            999 V2000
    2.8611    2.8514    0.0000 O   0  0
    3.9000    2.2507    0.0000 N   0  0
    4.9394    2.8504    0.0000 O   0  0
    3.9000    0.7500    0.0000 C   0  0
    2.8608    1.3502    0.0000 Br  0  0
    2.6000    0.0000    0.0000 C   0  0
    1.3000    0.7500    0.0000 O   0  0
    5.2000    0.0000    0.0000 C   0  0
    6.5000    0.7500    0.0000 O   0  0
    1.7340   -0.5001    0.0000 H   0  0
    2.6000   -1.0000    0.0000 H   0  0
    0.4338    0.2503    0.0000 H   0  0
    6.0659   -0.5001    0.0000 H   0  0
    5.2000   -1.0000    0.0000 H   0  0
    7.3661    0.2503    0.0000 H   0  0
  1  2  2  0
  2  3  2  0
  2  4  1  0
  4  5  1  0
  4  6  1  0
  4  8  1  0
  6  7  1  0
  8  9  1  0
  6 10  1  0
  6 11  1  0
  7 12  1  0
  8 13  1  0
  8 14  1  0
  9 15  1  0
V    1 0
V    2 1
V    3 2
V    4 3
V    5 4
V    6 5
V    7 6
V    8 7
V    9 8
M  END
> <DSSTox_RID>
60362

> <DSSTox_CID>
4652

> <DSSTox_CID_Parent>
4652

> <DSSTox_Generic_SID>
24652

> <DSSTox_FileID>
464_TXCST2_v1a

> <STRUCTURE_Formula>
C3H6BrNO4

> <STRUCTURE_MolecularWeight>
199.988

> <STRUCTURE_ChemicalType>
defined organic

> <STRUCTURE_TestedForm_DefinedOrganic>
parent

> <STRUCTURE_Shown>
tested chemical

> <TestSubstance_ChemicalName>
Bronopol

> <TestSubstance_CASRN>
52-51-7

> <TestSubstance_Description>
single chemical compound

> <STRUCTURE_ChemicalName_IUPAC>
2-bromo-2-nitropropane-1,3-diol

> <STRUCTURE_SMILES>
[O-][N+](C(CO)(CO)Br)=O

> <STRUCTURE_Parent_SMILES>
[O-][N+](C(CO)(CO)Br)=O

> <STRUCTURE_InChIS>
InChI=1S/C3H6BrNO4/c4-3(1-6,2-7)5(8)9/h6-7H,1-2H2

> <STRUCTURE_InChIKey>
LVDKZNITIUWNER-UHFFFAOYSA-N

> <Substance_modify_yyyymmdd>
20080429

> <Coord_Metals>
0

> <Index>
464

> <Canonical_Smiles>
OCC(Br)(CO)N(=O)=O

> <Molecular_Weight>
199.98804

> <Frequency>
1

$$$$

  SciTegic          2D

 28 28  0  0  0  0            999 V2000
    2.5973   -1.5031    0.0000 C   0  0
    3.6375   -0.9049    0.0000 O   0  0
    2.5951   -3.0039    0.0000 O   0  0
    3.8933   -3.7570    0.0000 O   0  0
    3.8912   -5.2578    0.0000 C   0  0
    5.1894   -6.0109    0.0000 C   0  0
    5.2161   -4.4927    0.0000 C   0  0
    2.5902   -6.0059    0.0000 C   0  0
    1.2990   -0.7500    0.0000 C   0  0
    1.2990    0.7500    0.0000 C   0  0
    0.0000    1.5000    0.0000 C   0  0
   -1.2990    0.7500    0.0000 C   0  0
   -1.2990   -0.7500    0.0000 C   0  0
    0.0000   -1.5000    0.0000 C   0  0
    5.1880   -7.0109    0.0000 H   0  0
    6.0546   -6.5123    0.0000 H   0  0
    6.0563   -5.5124    0.0000 H   0  0
    5.2166   -3.4927    0.0000 H   0  0
    6.0820   -4.9928    0.0000 H   0  0
    6.0823   -3.9929    0.0000 H   0  0
    1.7247   -5.5050    0.0000 H   0  0
    2.5888   -7.0059    0.0000 H   0  0
    1.7235   -6.5048    0.0000 H   0  0
    2.1651    1.2500    0.0000 H   0  0
    0.0000    2.5000    0.0000 H   0  0
   -2.1651    1.2500    0.0000 H   0  0
   -2.1651   -1.2500    0.0000 H   0  0
    0.0000   -2.5000    0.0000 H   0  0
  1  2  2  0
  1  3  1  0
  1  9  1  0
  3  4  1  0
  4  5  1  0
  5  6  1  0
  5  7  1  0
  5  8  1  0
  9 10  2  0
  9 14  1  0
 10 11  1  0
 11 12  2  0
 12 13  1  0
 13 14  2  0
  6 15  1  0
  6 16  1  0
  6 17  1  0
  7 18  1  0
  7 19  1  0
  7 20  1  0
  8 21  1  0
  8 22  1  0
  8 23  1  0
 10 24  1  0
 11 25  1  0
 12 26  1  0
 13 27  1  0
 14 28  1  0
V    1 0
V    2 1
V    3 2
V    4 3
V    5 4
V    6 5
V    7 6
V    8 7
V    9 8
V   10 9
V   11 10
V   12 11
V   13 12
V   14 13
M  END
> <DSSTox_RID>
66501

> <DSSTox_CID>
4699

> <DSSTox_CID_Parent>
4699

> <DSSTox_Generic_SID>
24699

> <DSSTox_FileID>
465_TXCST2_v1a

> <STRUCTURE_Formula>
C11H14O3

> <STRUCTURE_MolecularWeight>
194.2271

> <STRUCTURE_ChemicalType>
defined organic

> <STRUCTURE_TestedForm_DefinedOrganic>
parent

> <STRUCTURE_Shown>
tested chemical

> <TestSubstance_ChemicalName>
tert-Butyl perbenzoate

> <TestSubstance_CASRN>
614-45-9

> <TestSubstance_Description>
single chemical compound

> <STRUCTURE_ChemicalName_IUPAC>
tert-butyl benzenecarboperoxoate

> <STRUCTURE_SMILES>
C(=O)(OOC(C)(C)C)c1ccccc1

> <STRUCTURE_Parent_SMILES>
C(=O)(OOC(C)(C)C)c1ccccc1

> <STRUCTURE_InChIS>
InChI=1S/C11H14O3/c1-11(2,3)14-13-10(12)9-7-5-4-6-8-9/h4-8H,1-3H3

> <STRUCTURE_InChIKey>
GJBRNHKUVLOCEB-UHFFFAOYSA-N

> <Substance_modify_yyyymmdd>
20080429

> <Coord_Metals>
0

> <Index>
465

> <Canonical_Smiles>
CC(C)(C)OOC(=O)c1ccccc1

> <Molecular_Weight>
194.22705

> <Frequency>
1

$$$$

  SciTegic          2D

 23 24  0  0  0  0            999 V2000
    4.0872    0.0382    0.0000 N   0  0
    4.8208    1.3475    0.0000 C   0  0
    4.2072    2.3788    0.0000 O   0  0
    6.3215    1.3677    0.0000 O   0  0
    7.0552    2.6770    0.0000 C   0  0
    2.5889    0.0182    0.0000 C   0  0
    1.7138    1.2033    0.0000 N   0  0
    0.2917    0.7475    0.0000 C   0  0
   -1.0028    1.5132    0.0000 C   0  0
   -2.3155    0.7475    0.0000 C   0  0
   -2.3155   -0.7475    0.0000 C   0  0
   -1.0028   -1.5132    0.0000 C   0  0
    0.2917   -0.7475    0.0000 C   0  0
    1.7138   -1.2033    0.0000 N   0  0
    4.5985   -0.8211    0.0000 H   0  0
    8.0551    2.6905    0.0000 H   0  0
    6.5439    3.5364    0.0000 H   0  0
    7.5436    3.5496    0.0000 H   0  0
   -0.9997    2.5132    0.0000 H   0  0
   -3.1826    1.2456    0.0000 H   0  0
   -3.1826   -1.2456    0.0000 H   0  0
   -0.9997   -2.5132    0.0000 H   0  0
    2.0279   -2.1527    0.0000 H   0  0
  1  2  1  0
  1  6  1  0
  2  3  2  0
  2  4  1  0
  4  5  1  0
  6  7  2  0
  6 14  1  0
  7  8  1  0
  8  9  2  0
  8 13  1  0
  9 10  1  0
 10 11  2  0
 11 12  1  0
 12 13  2  0
 13 14  1  0
  1 15  1  0
  5 16  1  0
  5 17  1  0
  5 18  1  0
  9 19  1  0
 10 20  1  0
 11 21  1  0
 12 22  1  0
 14 23  1  0
V    1 0
V    2 1
V    3 2
V    4 3
V    5 4
V    6 5
V    7 6
V    8 7
V    9 8
V   10 9
V   11 10
V   12 11
V   13 12
V   14 13
M  END
> <DSSTox_RID>
62298

> <DSSTox_CID>
4729

> <DSSTox_CID_Parent>
4729

> <DSSTox_Generic_SID>
24729

> <DSSTox_FileID>
466_TXCST2_v1a

> <STRUCTURE_Formula>
C9H9N3O2

> <STRUCTURE_MolecularWeight>
191.1867

> <STRUCTURE_ChemicalType>
defined organic

> <STRUCTURE_TestedForm_DefinedOrganic>
parent

> <STRUCTURE_Shown>
tested chemical

> <TestSubstance_ChemicalName>
Methyl 1H-benzimidazol-2-ylcarbamate

> <TestSubstance_CASRN>
10605-21-7

> <TestSubstance_Description>
single chemical compound

> <STRUCTURE_ChemicalName_IUPAC>
methyl 1H-benzimidazol-2-ylcarbamate

> <STRUCTURE_SMILES>
N(C(=O)OC)C1=Nc2ccccc2N1

> <STRUCTURE_Parent_SMILES>
N(C(=O)OC)C1=Nc2ccccc2N1

> <STRUCTURE_InChIS>
InChI=1S/C9H9N3O2/c1-14-9(13)12-8-10-6-4-2-3-5-7(6)11-8/h2-5H,1H3,(H2,10,11,12,13)

> <STRUCTURE_InChIKey>
TWFZGCMQGLPBSX-UHFFFAOYSA-N

> <Substance_modify_yyyymmdd>
20080429

> <Coord_Metals>
0

> <Index>
466

> <Canonical_Smiles>
COC(=O)Nc1nc2ccccc2[nH]1

> <Molecular_Weight>
191.18665

> <Frequency>
1

$$$$

  SciTegic          2D

 20 20  0  0  0  0            999 V2000
    2.5973   -1.5031    0.0000 O   0  0
    2.5951   -3.0039    0.0000 C   0  0
    1.2990   -0.7500    0.0000 C   0  0
    1.2990    0.7500    0.0000 C   0  0
    0.0000    1.5000    0.0000 C   0  0
    0.0000    2.7000    0.0000 Cl  0  0
   -1.2990    0.7500    0.0000 C   0  0
   -2.6003    1.4977    0.0000 O   0  0
   -3.8990    0.7455    0.0000 C   0  0
   -1.2990   -0.7500    0.0000 C   0  0
    0.0000   -1.5000    0.0000 C   0  0
    0.0000   -2.7000    0.0000 Cl  0  0
    3.4601   -3.5057    0.0000 H   0  0
    1.7282   -3.5024    0.0000 H   0  0
    2.5932   -4.0039    0.0000 H   0  0
    2.1651    1.2500    0.0000 H   0  0
   -4.7661    1.2437    0.0000 H   0  0
   -3.8973   -0.2545    0.0000 H   0  0
   -4.7641    0.2438    0.0000 H   0  0
   -2.1651   -1.2500    0.0000 H   0  0
  1  2  1  0
  1  3  1  0
  3  4  2  0
  3 11  1  0
  4  5  1  0
  5  6  1  0
  5  7  2  0
  7  8  1  0
  7 10  1  0
  8  9  1  0
 10 11  2  0
 11 12  1  0
  2 13  1  0
  2 14  1  0
  2 15  1  0
  4 16  1  0
  9 17  1  0
  9 18  1  0
  9 19  1  0
 10 20  1  0
V    1 0
V    2 1
V    3 2
V    4 3
V    5 4
V    6 5
V    7 6
V    8 7
V    9 8
V   10 9
V   11 10
V   12 11
M  END
> <DSSTox_RID>
60198

> <DSSTox_CID>
4793

> <DSSTox_CID_Parent>
4793

> <DSSTox_Generic_SID>
24793

> <DSSTox_FileID>
467_TXCST2_v1a

> <STRUCTURE_Formula>
C8H8Cl2O2

> <STRUCTURE_MolecularWeight>
207.0539

> <STRUCTURE_ChemicalType>
defined organic

> <STRUCTURE_TestedForm_DefinedOrganic>
parent

> <STRUCTURE_Shown>
tested chemical

> <TestSubstance_ChemicalName>
Chloroneb

> <TestSubstance_CASRN>
2675-77-6

> <TestSubstance_Description>
single chemical compound

> <STRUCTURE_ChemicalName_IUPAC>
1,4-dichloro-2,5-dimethoxybenzene

> <STRUCTURE_SMILES>
O(C)c1cc(Cl)c(OC)cc1Cl

> <STRUCTURE_Parent_SMILES>
O(C)c1cc(Cl)c(OC)cc1Cl

> <STRUCTURE_InChIS>
InChI=1S/C8H8Cl2O2/c1-11-7-3-6(10)8(12-2)4-5(7)9/h3-4H,1-2H3

> <STRUCTURE_InChIKey>
PFIADAMVCJPXSF-UHFFFAOYSA-N

> <Substance_modify_yyyymmdd>
20080429

> <Coord_Metals>
0

> <Index>
467

> <Canonical_Smiles>
COc1cc(Cl)c(OC)cc1Cl

> <Molecular_Weight>
207.05391

> <Frequency>
1

$$$$

  SciTegic          2D

 15 15  0  0  0  0            999 V2000
    2.5988   -1.5004    0.0000 C   0  0
    1.2990   -0.7500    0.0000 C   0  0
    1.2990    0.7500    0.0000 C   0  0
    0.0000    1.5000    0.0000 C   0  0
   -1.2990    0.7500    0.0000 C   0  0
   -2.3383    1.3500    0.0000 Cl  0  0
   -1.2990   -0.7500    0.0000 C   0  0
    0.0000   -1.5000    0.0000 C   0  0
    3.4651   -1.0010    0.0000 H   0  0
    2.5985   -2.5004    0.0000 H   0  0
    3.4646   -2.0008    0.0000 H   0  0
    2.1651    1.2500    0.0000 H   0  0
    0.0000    2.5000    0.0000 H   0  0
   -2.1651   -1.2500    0.0000 H   0  0
    0.0000   -2.5000    0.0000 H   0  0
  1  2  1  0
  2  3  2  0
  2  8  1  0
  3  4  1  0
  4  5  2  0
  5  6  1  0
  5  7  1  0
  7  8  2  0
  1  9  1  0
  1 10  1  0
  1 11  1  0
  3 12  1  0
  4 13  1  0
  7 14  1  0
  8 15  1  0
V    1 0
V    2 1
V    3 2
V    4 3
V    5 4
V    6 5
V    7 6
V    8 7
M  END
> <DSSTox_RID>
60781

> <DSSTox_CID>
4814

> <DSSTox_CID_Parent>
4814

> <DSSTox_Generic_SID>
24814

> <DSSTox_FileID>
468_TXCST2_v1a

> <STRUCTURE_Formula>
C7H7Cl

> <STRUCTURE_MolecularWeight>
126.5835

> <STRUCTURE_ChemicalType>
defined organic

> <STRUCTURE_TestedForm_DefinedOrganic>
parent

> <STRUCTURE_Shown>
tested chemical

> <TestSubstance_ChemicalName>
4-Chlorotoluene

> <TestSubstance_CASRN>
106-43-4

> <TestSubstance_Description>
single chemical compound

> <STRUCTURE_ChemicalName_IUPAC>
1-chloro-4-methylbenzene

> <STRUCTURE_SMILES>
Cc1ccc(Cl)cc1

> <STRUCTURE_Parent_SMILES>
Cc1ccc(Cl)cc1

> <STRUCTURE_InChIS>
InChI=1S/C7H7Cl/c1-6-2-4-7(8)5-3-6/h2-5H,1H3

> <STRUCTURE_InChIKey>
NPDACUSDTOMAMK-UHFFFAOYSA-N

> <Substance_modify_yyyymmdd>
20080429

> <Coord_Metals>
0

> <Index>
468

> <Canonical_Smiles>
Cc1ccc(Cl)cc1

> <Molecular_Weight>
126.58348

> <Frequency>
1

$$$$

  SciTegic          2D

 40 42  0  0  0  0            999 V2000
   -2.5627    7.5205    0.0000 C   0  0
   -2.5716    6.0198    0.0000 N   0  0
   -3.8746    5.2749    0.0000 C   0  0
   -1.2769    5.2608    0.0000 C   0  0
   -1.2859    3.7600    0.0000 C   0  0
    0.0089    3.0010    0.0000 C   0  0
    0.0000    1.5002    0.0000 N   0  0
   -1.2989    0.7501    0.0000 C   0  0
   -2.5978    1.5002    0.0000 C   0  0
   -3.8968    0.7501    0.0000 C   0  0
   -4.9360    1.3500    0.0000 Cl  0  0
   -3.8968   -0.7501    0.0000 C   0  0
   -2.5978   -1.5002    0.0000 C   0  0
   -1.2989   -0.7501    0.0000 C   0  0
    0.0000   -1.5002    0.0000 S   0  0
    1.2806   -0.7501    0.0000 C   0  0
    1.2806    0.7501    0.0000 C   0  0
    2.5978    1.5002    0.0000 C   0  0
    3.8968    0.7501    0.0000 C   0  0
    3.8968   -0.7501    0.0000 C   0  0
    2.5978   -1.5002    0.0000 C   0  0
   -3.4254    8.0263    0.0000 H   0  0
   -2.5562    8.5205    0.0000 H   0  0
   -1.6935    8.0151    0.0000 H   0  0
   -3.8795    4.2749    0.0000 H   0  0
   -4.7430    4.7790    0.0000 H   0  0
   -4.7383    5.7788    0.0000 H   0  0
   -1.2704    6.2607    0.0000 H   0  0
   -0.4077    5.7553    0.0000 H   0  0
   -1.2923    2.7600    0.0000 H   0  0
   -2.1550    3.2654    0.0000 H   0  0
    0.8718    2.4956    0.0000 H   0  0
    0.8781    3.4955    0.0000 H   0  0
   -2.5978    2.5002    0.0000 H   0  0
   -4.7628   -1.2500    0.0000 H   0  0
   -2.5978   -2.5002    0.0000 H   0  0
    2.6009    2.5002    0.0000 H   0  0
    4.7628    1.2500    0.0000 H   0  0
    4.7628   -1.2500    0.0000 H   0  0
    2.6009   -2.5002    0.0000 H   0  0
  1  2  1  0
  2  3  1  0
  2  4  1  0
  4  5  1  0
  5  6  1  0
  6  7  1  0
  7  8  1  0
  7 17  1  0
  8  9  1  0
  8 14  2  0
  9 10  2  0
 10 11  1  0
 10 12  1  0
 12 13  2  0
 13 14  1  0
 14 15  1  0
 15 16  1  0
 16 17  2  0
 16 21  1  0
 17 18  1  0
 18 19  2  0
 19 20  1  0
 20 21  2  0
  1 22  1  0
  1 23  1  0
  1 24  1  0
  3 25  1  0
  3 26  1  0
  3 27  1  0
  4 28  1  0
  4 29  1  0
  5 30  1  0
  5 31  1  0
  6 32  1  0
  6 33  1  0
  9 34  1  0
 12 35  1  0
 13 36  1  0
 18 37  1  0
 19 38  1  0
 20 39  1  0
 21 40  1  0
V    1 0
V    2 1
V    3 2
V    4 3
V    5 4
V    6 5
V    7 6
V    8 7
V    9 8
V   10 9
V   11 10
V   12 11
V   13 12
V   14 13
V   15 14
V   16 15
V   17 16
V   18 17
V   19 18
V   20 19
V   21 20
M  END
> <DSSTox_RID>
59829

> <DSSTox_CID>
4827

> <DSSTox_CID_Parent>
2808

> <DSSTox_Generic_SID>
24827

> <DSSTox_FileID>
469_TXCST2_v1a

> <STRUCTURE_Formula>
C17H20Cl2N2S

> <STRUCTURE_MolecularWeight>
355.3251

> <STRUCTURE_ChemicalType>
defined organic

> <STRUCTURE_TestedForm_DefinedOrganic>
complex HCl

> <STRUCTURE_Shown>
tested chemical

> <TestSubstance_ChemicalName>
Chlorpromazine hydrochloride

> <TestSubstance_CASRN>
69-09-0

> <TestSubstance_Description>
single chemical compound

> <ChemicalNote>
parent [50-53-3]

> <STRUCTURE_ChemicalName_IUPAC>
3-(2-chloro-10H-phenothiazin-10-yl)-N,N-dimethylpropan-1-amine hydrochloride

> <STRUCTURE_SMILES>
Cl.CN(C)CCCN1c3ccccc3Sc2ccc(Cl)cc12

> <STRUCTURE_Parent_SMILES>
CN(C)CCCN1c3ccccc3Sc2ccc(Cl)cc12

> <STRUCTURE_InChIS>
InChI=1S/C17H19ClN2S.ClH/c1-19(2)10-5-11-20-14-6-3-4-7-16(14)21-17-9-8-13(18)12-15(17)20;/h3-4,6-9,12H,5,10-11H2,1-2H3;1H

> <STRUCTURE_InChIKey>
FBSMERQALIEGJT-UHFFFAOYSA-N

> <Substance_modify_yyyymmdd>
20080429

> <Coord_Metals>
0

> <Index>
469

> <Canonical_Smiles>
CN(C)CCCN1c2ccccc2Sc3ccc(Cl)cc13

> <Molecular_Weight>
318.86416

> <Frequency>
1

$$$$

  SciTegic          2D

 27 26  0  0  0  0            999 V2000
    0.2606    0.1503    0.0000 O   0  0
    1.3000    0.7500    0.0000 C   0  0
    2.6000    0.0000    0.0000 C   0  0
    3.9000    0.7500    0.0000 C   0  0
    5.2000    0.0000    0.0000 C   0  0
    6.5000    0.7500    0.0000 C   0  0
    7.7999    0.0000    0.0000 C   0  0
    9.0999    0.7500    0.0000 C   0  0
   10.3999    0.0000    0.0000 C   0  0
    9.0968    2.2508    0.0000 C   0  0
    3.8969    2.2508    0.0000 C   0  0
    1.3000    1.7500    0.0000 H   0  0
    2.6000   -1.0000    0.0000 H   0  0
    5.2000   -1.0000    0.0000 H   0  0
    4.3340   -0.5001    0.0000 H   0  0
    6.5000    1.7500    0.0000 H   0  0
    7.3659    1.2501    0.0000 H   0  0
    7.7999   -1.0000    0.0000 H   0  0
   11.2661    0.4997    0.0000 H   0  0
   11.2659   -0.5001    0.0000 H   0  0
   10.3999   -1.0000    0.0000 H   0  0
    8.2301    2.7496    0.0000 H   0  0
    9.0953    3.2508    0.0000 H   0  0
    9.9620    2.7523    0.0000 H   0  0
    3.0301    2.7496    0.0000 H   0  0
    4.7620    2.7523    0.0000 H   0  0
    3.8953    3.2508    0.0000 H   0  0
  1  2  2  0
  3  2  1  0
  3  4  2  0
  4  5  1  0
  4 11  1  0
  5  6  1  0
  6  7  1  0
  7  8  2  0
  8  9  1  0
  8 10  1  0
  2 12  1  0
  3 13  1  0
  5 14  1  0
  5 15  1  0
  6 16  1  0
  6 17  1  0
  7 18  1  0
  9 19  1  0
  9 20  1  0
  9 21  1  0
 10 22  1  0
 10 23  1  0
 10 24  1  0
 11 25  1  0
 11 26  1  0
 11 27  1  0
V    1 0
V    2 1
V    3 2
V    4 3
V    5 4
V    6 5
V    7 6
V    8 7
V    9 8
V   10 9
V   11 10
M  END
> <DSSTox_RID>
66804

> <DSSTox_CID>
4836

> <DSSTox_CID_Parent>
4836

> <DSSTox_Generic_SID>
24836

> <DSSTox_FileID>
470_TXCST2_v1a

> <STRUCTURE_Formula>
C10H16O

> <STRUCTURE_MolecularWeight>
152.2334

> <STRUCTURE_ChemicalType>
defined organic

> <STRUCTURE_TestedForm_DefinedOrganic>
parent

> <STRUCTURE_Shown>
representative isomer in mixture

> <TestSubstance_ChemicalName>
3,7-Dimethyl-2,6-octadienal

> <TestSubstance_CASRN>
5392-40-5

> <TestSubstance_Description>
mixture or formulation

> <ChemicalNote>
mixture of Z [106-26-3], E [141-27-5] isomers; structure shown E; stereochem

> <Source_ChemicalNote>
tested chemical was a mixture of Z,E isomers

> <STRUCTURE_ChemicalName_IUPAC>
(2E)-3,7-dimethylocta-2,6-dienal

> <STRUCTURE_SMILES>
O=CC=C(CCC=C(C)C)C

> <STRUCTURE_Parent_SMILES>
O=CC=C(CCC=C(C)C)C

> <STRUCTURE_InChIS>
InChI=1S/C10H16O/c1-9(2)5-4-6-10(3)7-8-11/h5,7-8H,4,6H2,1-3H3/b10-7+

> <STRUCTURE_InChIKey>
WTEVQBCEXWBHNA-JXMROGBWSA-N

> <Substance_modify_yyyymmdd>
20080429

> <Coord_Metals>
0

> <Index>
470

> <Canonical_Smiles>
CC(=CCCC(=CC=O)C)C

> <Molecular_Weight>
152.23343

> <Frequency>
1

$$$$

  SciTegic          2D

 54 56  0  0  0  0            999 V2000
    0.3700   -0.4000    0.0000 C   0  0
    1.7400    0.3100    0.0000 C   0  0
   -1.0300    0.2100    0.0000 C   0  0
   -2.1200   -0.8500    0.0000 C   0  0
    3.1600   -0.2800    0.0000 C   0  0
   -3.6000   -0.4900    0.0000 C   0  0
    0.1000   -1.9000    0.0000 C   0  0
   -1.4400    1.6900    0.0000 C   0  0
    3.5600   -1.7500    0.0000 C   0  0
    2.0200    1.8300    0.0000 C   0  0
   -3.9800    0.9900    0.0000 C   0  0
    1.1000   -3.0600    0.0000 C   0  0
    2.6400   -3.0000    0.0000 C   0  0
    3.4556    2.1682    0.0000 N   0  0
   -2.9300    2.0900    0.0000 C   0  0
    3.9337    3.5909    0.0000 C   0  0
   -0.5200    2.9400    0.0000 C   0  0
    4.7397   -1.9700    0.0000 O   0  0
    1.0100    3.0100    0.0000 C   0  0
    3.1394    4.4904    0.0000 O   0  0
   -2.2462   -2.3458    0.0000 O   0  0
   -4.9563   -1.1309    0.0000 O   0  0
   -5.4310    1.3742    0.0000 O   0  0
    3.3382   -4.3303    0.0000 O   0  0
    5.4046    3.8891    0.0000 C   0  0
   -3.6041   -2.9851    0.0000 C   0  0
   -6.1907   -0.2772    0.0000 C   0  0
   -5.8247    2.8224    0.0000 C   0  0
    2.5368   -5.5992    0.0000 C   0  0
    3.9109    0.3804    0.0000 H   0  0
   -0.8647   -2.1635    0.0000 H   0  0
    2.2473    2.8038    0.0000 H   0  0
    0.7012   -3.9770    0.0000 H   0  0
    4.1175    1.4186    0.0000 H   0  0
   -3.1998    3.0529    0.0000 H   0  0
    0.0336    3.7728    0.0000 H   0  0
   -1.5200    2.9422    0.0000 H   0  0
    0.6401    2.0809    0.0000 H   0  0
    2.0063    3.0954    0.0000 H   0  0
    5.7231    4.8370    0.0000 H   0  0
    6.3847    4.0874    0.0000 H   0  0
    6.0665    3.1395    0.0000 H   0  0
   -3.6882   -3.9816    0.0000 H   0  0
   -4.4252   -2.4143    0.0000 H   0  0
   -4.5090   -3.4107    0.0000 H   0  0
   -7.0948   -0.7045    0.0000 H   0  0
   -6.1090    0.7194    0.0000 H   0  0
   -7.0129    0.2920    0.0000 H   0  0
   -6.7914    3.0784    0.0000 H   0  0
   -5.1199    3.5319    0.0000 H   0  0
   -6.0865    3.7876    0.0000 H   0  0
    3.0015   -6.4847    0.0000 H   0  0
    1.5376   -5.5593    0.0000 H   0  0
    2.0024   -6.4445    0.0000 H   0  0
  1  2  1  0
  1  3  1  0
  1  7  2  0
  2  5  2  0
  2 10  1  0
  3  4  1  0
  3  8  2  0
  4  6  2  0
  4 21  1  0
  5  9  1  0
  6 22  1  0
  6 11  1  0
  7 12  1  0
  8 15  1  0
  8 17  1  0
  9 18  2  0
  9 13  1  0
 10 14  1  0
 10 19  1  0
 11 15  2  0
 11 23  1  0
 12 13  2  0
 13 24  1  0
 14 16  1  0
 16 20  2  0
 16 25  1  0
 17 19  1  0
 21 26  1  0
 22 27  1  0
 23 28  1  0
 24 29  1  0
  5 30  1  0
  7 31  1  0
 10 32  1  0
 12 33  1  0
 14 34  1  0
 15 35  1  0
 17 36  1  0
 17 37  1  0
 19 38  1  0
 19 39  1  0
 25 40  1  0
 25 41  1  0
 25 42  1  0
 26 43  1  0
 26 44  1  0
 26 45  1  0
 27 46  1  0
 27 47  1  0
 27 48  1  0
 28 49  1  0
 28 50  1  0
 28 51  1  0
 29 52  1  0
 29 53  1  0
 29 54  1  0
V    1 0
V    2 1
V    3 2
V    4 3
V    5 4
V    6 5
V    7 6
V    8 7
V    9 8
V   10 9
V   11 10
V   12 11
V   13 12
V   14 13
V   15 14
V   16 15
V   17 16
V   18 17
V   19 18
V   20 19
V   21 20
V   22 21
V   23 22
V   24 23
V   25 24
V   26 25
V   27 26
V   28 27
V   29 28
M  END
> <DSSTox_RID>
65706

> <DSSTox_CID>
4845

> <DSSTox_CID_Parent>
4845

> <DSSTox_Generic_SID>
24845

> <DSSTox_FileID>
471_TXCST2_v1a

> <STRUCTURE_Formula>
C22H25NO6

> <STRUCTURE_MolecularWeight>
399.437

> <STRUCTURE_ChemicalType>
defined organic

> <STRUCTURE_TestedForm_DefinedOrganic>
parent

> <STRUCTURE_Shown>
tested chemical

> <TestSubstance_ChemicalName>
Colchicine

> <TestSubstance_CASRN>
64-86-8

> <TestSubstance_Description>
single chemical compound

> <ChemicalNote>
stereochem

> <STRUCTURE_ChemicalName_IUPAC>
N-[(7S)-1,2,3,10-tetramethoxy-9-oxo-5,6,7,9-tetrahydrobenzo[a]heptalen-7-yl]acetamide

> <STRUCTURE_SMILES>
O=C1C=C([C@H]3NC(C)=O)C(C2=C(CC3)C=C(OC)C(OC)=C2OC)=CC=C1OC

> <STRUCTURE_Parent_SMILES>
O=C1C=C([C@H]3NC(C)=O)C(C2=C(CC3)C=C(OC)C(OC)=C2OC)=CC=C1OC

> <STRUCTURE_InChIS>
InChI=1S/C22H25NO6/c1-12(24)23-16-8-6-13-10-19(27-3)21(28-4)22(29-5)20(13)14-7-9-18(26-2)17(25)11-15(14)16/h7,9-11,16H,6,8H2,1-5H3,(H,23,24)/t16-/m0/s1

> <STRUCTURE_InChIKey>
IAKHMKGGTNLKSZ-INIZCTEOSA-N

> <Substance_modify_yyyymmdd>
20080429

> <Coord_Metals>
0

> <Index>
471

> <Canonical_Smiles>
COC1=CC=C2C(=CC1=O)C(CCc3cc(OC)c(OC)c(OC)c23)NC(=O)C

> <Molecular_Weight>
399.437

> <Frequency>
1

$$$$

  SciTegic          2D

 23 23  0  0  0  0            999 V2000
    3.7419   -1.6400    0.0000 O   0  0
    4.7067   -2.7897    0.0000 O   0  0
    2.2638   -1.8997    0.0000 C   0  0
    1.2990   -0.7500    0.0000 C   0  0
    1.2990    0.7500    0.0000 C   0  0
    0.0000    1.5000    0.0000 C   0  0
   -1.2990    0.7500    0.0000 C   0  0
   -1.2990   -0.7500    0.0000 C   0  0
    0.0000   -1.5000    0.0000 C   0  0
    1.7500   -3.3098    0.0000 C   0  0
    2.7902   -0.4631    0.0000 C   0  0
    5.6916   -2.6167    0.0000 H   0  0
    2.1651    1.2500    0.0000 H   0  0
    0.0000    2.5000    0.0000 H   0  0
   -2.1651    1.2500    0.0000 H   0  0
   -2.1651   -1.2500    0.0000 H   0  0
    0.0000   -2.5000    0.0000 H   0  0
    2.3921   -4.0764    0.0000 H   0  0
    0.7651   -3.4828    0.0000 H   0  0
    1.4073   -4.2492    0.0000 H   0  0
    3.7752   -0.2911    0.0000 H   0  0
    2.1488    0.3041    0.0000 H   0  0
    3.1338    0.4760    0.0000 H   0  0
  1  2  1  0
  1  3  1  0
  3  4  1  0
  3 10  1  0
  3 11  1  0
  4  5  2  0
  4  9  1  0
  5  6  1  0
  6  7  2  0
  7  8  1  0
  8  9  2  0
  2 12  1  0
  5 13  1  0
  6 14  1  0
  7 15  1  0
  8 16  1  0
  9 17  1  0
 10 18  1  0
 10 19  1  0
 10 20  1  0
 11 21  1  0
 11 22  1  0
 11 23  1  0
V    1 0
V    2 1
V    3 2
V    4 3
V    5 4
V    6 5
V    7 6
V    8 7
V    9 8
V   10 9
V   11 10
M  END
> <DSSTox_RID>
66878

> <DSSTox_CID>
4869

> <DSSTox_CID_Parent>
4869

> <DSSTox_Generic_SID>
24869

> <DSSTox_FileID>
472_TXCST2_v1a

> <STRUCTURE_Formula>
C9H12O2

> <STRUCTURE_MolecularWeight>
152.1904

> <STRUCTURE_ChemicalType>
defined organic

> <STRUCTURE_TestedForm_DefinedOrganic>
parent

> <STRUCTURE_Shown>
tested chemical

> <TestSubstance_ChemicalName>
Cumene hydroperoxide

> <TestSubstance_CASRN>
80-15-9

> <TestSubstance_Description>
single chemical compound

> <STRUCTURE_ChemicalName_IUPAC>
1-methyl-1-phenylethyl hydroperoxide

> <STRUCTURE_SMILES>
O(O)C(c(cccc1)c1)(C)C

> <STRUCTURE_Parent_SMILES>
O(O)C(c(cccc1)c1)(C)C

> <STRUCTURE_InChIS>
InChI=1S/C9H12O2/c1-9(2,11-10)8-6-4-3-5-7-8/h3-7,10H,1-2H3

> <STRUCTURE_InChIKey>
YQHLDYVWEZKEOX-UHFFFAOYSA-N

> <Substance_modify_yyyymmdd>
20080429

> <Coord_Metals>
0

> <Index>
472

> <Canonical_Smiles>
CC(C)(OO)c1ccccc1

> <Molecular_Weight>
152.19037

> <Frequency>
1

$$$$

  SciTegic          2D

 29 29  0  0  0  0            999 V2000
    1.2696   -1.9496    0.0000 O   0  0
    1.2990   -0.7500    0.0000 P   0  0
    1.2990    0.7500    0.0000 O   0  0
    0.0000    1.5000    0.0000 C   0  0
   -1.2990    0.7500    0.0000 C   0  0
   -1.2990   -0.7500    0.0000 C   0  0
    0.0000   -1.5000    0.0000 N   0  0
    2.7502   -0.4571    0.0000 N   0  0
    3.2641    0.9530    0.0000 C   0  0
    4.7421    1.2139    0.0000 C   0  0
    5.1530    2.3414    0.0000 Cl  0  0
    3.7172   -1.6049    0.0000 C   0  0
    5.1948   -1.3424    0.0000 C   0  0
    5.9680   -2.2601    0.0000 Cl  0  0
   -0.8776    1.9794    0.0000 H   0  0
    0.8775    1.9795    0.0000 H   0  0
   -0.4451    0.2297    0.0000 H   0  0
   -2.1531    0.2298    0.0000 H   0  0
   -2.1530   -0.2297    0.0000 H   0  0
   -1.2755   -1.7497    0.0000 H   0  0
    0.0000   -2.5000    0.0000 H   0  0
    2.6214    1.7191    0.0000 H   0  0
    2.2793    0.7796    0.0000 H   0  0
    5.3848    0.4478    0.0000 H   0  0
    5.7269    1.3873    0.0000 H   0  0
    2.7327   -1.7803    0.0000 H   0  0
    3.3767   -2.5452    0.0000 H   0  0
    6.1793   -1.1669    0.0000 H   0  0
    5.5353   -0.4021    0.0000 H   0  0
  1  2  2  0
  2  3  1  0
  2  7  1  0
  2  8  1  0
  3  4  1  0
  4  5  1  0
  5  6  1  0
  6  7  1  0
  8  9  1  0
  8 12  1  0
  9 10  1  0
 10 11  1  0
 12 13  1  0
 13 14  1  0
  4 15  1  0
  4 16  1  0
  5 17  1  0
  5 18  1  0
  6 19  1  0
  6 20  1  0
  7 21  1  0
  9 22  1  0
  9 23  1  0
 10 24  1  0
 10 25  1  0
 12 26  1  0
 12 27  1  0
 13 28  1  0
 13 29  1  0
V    1 0
V    2 1
V    3 2
V    4 3
V    5 4
V    6 5
V    7 6
V    8 7
V    9 8
V   10 9
V   11 10
V   12 11
V   13 12
V   14 13
M  END
> <DSSTox_RID>
66528

> <DSSTox_CID>
4888

> <DSSTox_CID_Parent>
364

> <DSSTox_Generic_SID>
24888

> <DSSTox_FileID>
473_TXCST2_v1a

> <STRUCTURE_Formula>
C7H17Cl2N2O3P

> <STRUCTURE_MolecularWeight>
279.1012

> <STRUCTURE_ChemicalType>
defined organic

> <STRUCTURE_TestedForm_DefinedOrganic>
complex H2O

> <STRUCTURE_Shown>
tested chemical

> <TestSubstance_ChemicalName>
Cytoxan

> <TestSubstance_CASRN>
6055-19-2

> <TestSubstance_Description>
single chemical compound

> <ChemicalNote>
parent [50-18-0]

> <STRUCTURE_ChemicalName_IUPAC>
N,N-bis(2-chloroethyl)-1,3,2-oxazaphosphinan-2-amine 2-oxide hydrate

> <STRUCTURE_SMILES>
O=P1(N(CCCl)CCCl)OCCCN1.O

> <STRUCTURE_Parent_SMILES>
O=P1(N(CCCl)CCCl)OCCCN1

> <STRUCTURE_InChIS>
InChI=1S/C7H15Cl2N2O2P.H2O/c8-2-5-11(6-3-9)14(12)10-4-1-7-13-14;/h1-7H2,(H,10,12);1H2

> <STRUCTURE_InChIKey>
PWOQRKCAHTVFLB-UHFFFAOYSA-N

> <Substance_modify_yyyymmdd>
20080429

> <Coord_Metals>
0

> <Index>
473

> <Canonical_Smiles>
ClCCN(CCCl)P1(=O)NCCCO1

> <Molecular_Weight>
261.08596

> <Frequency>
1

$$$$

  SciTegic          2D

 30 31  0  0  0  0            999 V2000
    2.5987   -1.5006    0.0000 C   0  0
    1.1207   -1.2398    0.0000 N   0  0
    0.1563   -2.3886    0.0000 C   0  0
   -1.3209   -2.1278    0.0000 N   0  0
   -1.8336   -0.7182    0.0000 C   0  0
   -3.3121   -0.4603    0.0000 N   0  0
   -0.8692    0.4307    0.0000 C   0  0
    0.6080    0.1699    0.0000 C   0  0
    0.5664   -3.5164    0.0000 O   0  0
    2.7022   -0.0406    0.0000 O   0  0
    4.1697    0.2696    0.0000 C   0  0
    3.2776    1.4599    0.0000 C   0  0
    3.8448    2.8494    0.0000 O   0  0
    4.9183   -1.0302    0.0000 C   0  0
    3.9134   -2.1439    0.0000 C   0  0
    5.3273   -2.6095    0.0000 O   0  0
    5.5000   -2.3993    0.0000 O   0  0
    2.5966   -2.5006    0.0000 H   0  0
   -3.9540   -1.2271    0.0000 H   0  0
   -3.6555    0.4789    0.0000 H   0  0
   -1.2110    1.3705    0.0000 H   0  0
    1.2510    0.9358    0.0000 H   0  0
    5.1659    0.3573    0.0000 H   0  0
    2.6649    2.2502    0.0000 H   0  0
    2.2868    1.3246    0.0000 H   0  0
    3.2324    3.6400    0.0000 H   0  0
    5.4941   -0.2126    0.0000 H   0  0
    3.1485   -2.7880    0.0000 H   0  0
    6.0830   -1.9547    0.0000 H   0  0
    4.9116   -3.2079    0.0000 H   0  0
  1  2  1  0
  1 10  1  0
  1 15  1  0
  2  3  1  0
  2  8  1  0
  3  4  1  0
  3  9  2  0
  4  5  2  0
  5  6  1  0
  5  7  1  0
  7  8  2  0
 10 11  1  0
 11 12  1  0
 11 14  1  0
 12 13  1  0
 14 15  1  0
 14 17  1  0
 15 16  1  0
  1 18  1  0
  6 19  1  0
  6 20  1  0
  7 21  1  0
  8 22  1  0
 11 23  1  0
 12 24  1  0
 12 25  1  0
 13 26  1  0
 14 27  1  0
 15 28  1  0
 16 29  1  0
 17 30  1  0
V    1 0
V    2 1
V    3 2
V    4 3
V    5 4
V    6 5
V    7 6
V    8 7
V    9 8
V   10 9
V   11 10
V   12 11
V   13 12
V   14 13
V   15 14
V   16 15
V   17 16
M  END
> <DSSTox_RID>
62393

> <DSSTox_CID>
4891

> <DSSTox_CID_Parent>
2877

> <DSSTox_Generic_SID>
24891

> <DSSTox_FileID>
474_TXCST2_v1a

> <STRUCTURE_Formula>
C9H14ClN3O5

> <STRUCTURE_MolecularWeight>
279.6776

> <STRUCTURE_ChemicalType>
defined organic

> <STRUCTURE_TestedForm_DefinedOrganic>
complex HCl

> <STRUCTURE_Shown>
tested chemical

> <TestSubstance_ChemicalName>
Cytarabine hydrochloride

> <TestSubstance_CASRN>
69-74-9

> <TestSubstance_Description>
single chemical compound

> <ChemicalNote>
stereochem; parent [147-94-4]

> <STRUCTURE_ChemicalName_IUPAC>
4-amino-1-[(2R,3S,4S,5R)-3,4-dihydroxy-5-(hydroxymethyl)tetrahydrofuran-2-yl]pyrimidin-2(1H)-one hydrochloride

> <STRUCTURE_SMILES>
NC(C=C1)=NC(N1[C@@H]2O[C@@H]([C@@H](O)[C@@H]2O)CO)=O.Cl

> <STRUCTURE_Parent_SMILES>
NC(C=C1)=NC(N1[C@@H]2O[C@@H]([C@@H](O)[C@@H]2O)CO)=O

> <STRUCTURE_InChIS>
InChI=1S/C9H13N3O5.ClH/c10-5-1-2-12(9(16)11-5)8-7(15)6(14)4(3-13)17-8;/h1-2,4,6-8,13-15H,3H2,(H2,10,11,16);1H/t4-,6-,7+,8-;/m1./s1

> <STRUCTURE_InChIKey>
KCURWTAZOZXKSJ-JBMRGDGGSA-N

> <Substance_modify_yyyymmdd>
20080429

> <Coord_Metals>
0

> <Index>
474

> <Canonical_Smiles>
NC1=NC(=O)N(C=C1)C2OC(CO)C(O)C2O

> <Molecular_Weight>
243.21661

> <Frequency>
1

$$$$

  SciTegic          2D

 19 19  0  0  0  0            999 V2000
    2.5988   -1.5004    0.0000 C   0  0
    1.2990   -0.7500    0.0000 N   0  0
    1.2990    0.7500    0.0000 C   0  0
    0.0000    1.5000    0.0000 N   0  0
    0.0000    3.0008    0.0000 C   0  0
   -1.2990    0.7500    0.0000 C   0  0
   -1.2990   -0.7500    0.0000 S   0  0
    0.0000   -1.5000    0.0000 C   0  0
    0.0000   -2.7000    0.0000 S   0  0
    3.4651   -1.0010    0.0000 H   0  0
    2.5985   -2.5004    0.0000 H   0  0
    3.4646   -2.0008    0.0000 H   0  0
    2.1530    0.2297    0.0000 H   0  0
    1.2755    1.7497    0.0000 H   0  0
    0.8657    3.5014    0.0000 H   0  0
   -0.8662    3.5005    0.0000 H   0  0
   -0.0005    4.0008    0.0000 H   0  0
   -1.2754    1.7497    0.0000 H   0  0
   -2.1531    0.2298    0.0000 H   0  0
  1  2  1  0
  2  3  1  0
  2  8  1  0
  3  4  1  0
  4  5  1  0
  4  6  1  0
  6  7  1  0
  7  8  1  0
  8  9  2  0
  1 10  1  0
  1 11  1  0
  1 12  1  0
  3 13  1  0
  3 14  1  0
  5 15  1  0
  5 16  1  0
  5 17  1  0
  6 18  1  0
  6 19  1  0
V    1 0
V    2 1
V    3 2
V    4 3
V    5 4
V    6 5
V    7 6
V    8 7
V    9 8
M  END
> <DSSTox_RID>
59856

> <DSSTox_CID>
4902

> <DSSTox_CID_Parent>
4902

> <DSSTox_Generic_SID>
24902

> <DSSTox_FileID>
475_TXCST2_v1a

> <STRUCTURE_Formula>
C5H10N2S2

> <STRUCTURE_MolecularWeight>
162.2763

> <STRUCTURE_ChemicalType>
defined organic

> <STRUCTURE_TestedForm_DefinedOrganic>
parent

> <STRUCTURE_Shown>
tested chemical

> <TestSubstance_ChemicalName>
Dazomet

> <TestSubstance_CASRN>
533-74-4

> <TestSubstance_Description>
single chemical compound

> <Source_ChemicalNote>
tested chemical contained 0.22% water (0.02 moles H2O)

> <STRUCTURE_ChemicalName_IUPAC>
3,5-dimethyl-1,3,5-thiadiazinane-2-thione

> <STRUCTURE_SMILES>
CN1CN(C)CSC1=S

> <STRUCTURE_Parent_SMILES>
CN1CN(C)CSC1=S

> <STRUCTURE_InChIS>
InChI=1S/C5H10N2S2/c1-6-3-7(2)5(8)9-4-6/h3-4H2,1-2H3

> <STRUCTURE_InChIKey>
QAYICIQNSGETAS-UHFFFAOYSA-N

> <Substance_modify_yyyymmdd>
20080429

> <Coord_Metals>
0

> <Index>
475

> <Canonical_Smiles>
CN1CSC(=S)N(C)C1

> <Molecular_Weight>
162.27629

> <Frequency>
1

$$$$

  SciTegic          2D

 32 31  0  0  0  0            999 V2000
   11.6999    0.7500    0.0000 C   0  0
   10.3999    0.0000    0.0000 C   0  0
    9.0999    0.7500    0.0000 C   0  0
    7.7999    0.0000    0.0000 C   0  0
    6.5000    0.7500    0.0000 C   0  0
    5.2000    0.0000    0.0000 C   0  0
    3.9000    0.7500    0.0000 C   0  0
    2.6000    0.0000    0.0000 C   0  0
    1.3000    0.7500    0.0000 C   0  0
   12.9999    0.0000    0.0000 C   0  0
   11.6999    1.7500    0.0000 H   0  0
   10.8340    1.2501    0.0000 H   0  0
   10.3999   -1.0000    0.0000 H   0  0
    9.5340   -0.5001    0.0000 H   0  0
    9.0999    1.7500    0.0000 H   0  0
    8.2340    1.2501    0.0000 H   0  0
    7.7999   -1.0000    0.0000 H   0  0
    6.9340   -0.5001    0.0000 H   0  0
    6.5000    1.7500    0.0000 H   0  0
    5.6340    1.2501    0.0000 H   0  0
    5.2000   -1.0000    0.0000 H   0  0
    4.3340   -0.5001    0.0000 H   0  0
    3.9000    1.7500    0.0000 H   0  0
    3.0340    1.2501    0.0000 H   0  0
    2.6000   -1.0000    0.0000 H   0  0
    1.7340   -0.5001    0.0000 H   0  0
    0.4338    0.2503    0.0000 H   0  0
    1.3000    1.7500    0.0000 H   0  0
    0.4340    1.2501    0.0000 H   0  0
   13.8661    0.4997    0.0000 H   0  0
   12.9999   -1.0000    0.0000 H   0  0
   13.8658   -0.5001    0.0000 H   0  0
  1  2  1  0
  1 10  1  0
  2  3  1  0
  3  4  1  0
  4  5  1  0
  5  6  1  0
  6  7  1  0
  7  8  1  0
  8  9  1  0
  1 11  1  0
  1 12  1  0
  2 13  1  0
  2 14  1  0
  3 15  1  0
  3 16  1  0
  4 17  1  0
  4 18  1  0
  5 19  1  0
  5 20  1  0
  6 21  1  0
  6 22  1  0
  7 23  1  0
  7 24  1  0
  8 25  1  0
  8 26  1  0
  9 27  1  0
  9 28  1  0
  9 29  1  0
 10 30  1  0
 10 31  1  0
 10 32  1  0
V    1 0
V    2 1
V    3 2
V    4 3
V    5 4
V    6 5
V    7 6
V    8 7
V    9 8
V   10 9
M  END
> <DSSTox_RID>
66588

> <DSSTox_CID>
4913

> <DSSTox_CID_Parent>
4913

> <DSSTox_Generic_SID>
24913

> <DSSTox_FileID>
476_TXCST2_v1a

> <STRUCTURE_Formula>
C10H22

> <STRUCTURE_MolecularWeight>
142.2817

> <STRUCTURE_ChemicalType>
defined organic

> <STRUCTURE_TestedForm_DefinedOrganic>
parent

> <STRUCTURE_Shown>
tested chemical

> <TestSubstance_ChemicalName>
Decane

> <TestSubstance_CASRN>
124-18-5

> <TestSubstance_Description>
single chemical compound

> <STRUCTURE_ChemicalName_IUPAC>
decane

> <STRUCTURE_SMILES>
C(CCCCCCCC)C

> <STRUCTURE_Parent_SMILES>
C(CCCCCCCC)C

> <STRUCTURE_InChIS>
InChI=1S/C10H22/c1-3-5-7-9-10-8-6-4-2/h3-10H2,1-2H3

> <STRUCTURE_InChIKey>
DIOQZVSQGTUSAI-UHFFFAOYSA-N

> <Substance_modify_yyyymmdd>
20080429

> <Coord_Metals>
0

> <Index>
476

> <Canonical_Smiles>
CCCCCCCCCC

> <Molecular_Weight>
142.28167

> <Frequency>
1

$$$$

  SciTegic          2D

 19 19  0  0  0  0            999 V2000
    2.5973   -1.5031    0.0000 N   0  0
    1.2990   -0.7500    0.0000 C   0  0
    1.2990    0.7500    0.0000 C   0  0
    0.0000    1.5000    0.0000 C   0  0
    0.0000    3.0008    0.0000 C   0  0
   -1.2990    0.7500    0.0000 C   0  0
   -1.2990   -0.7500    0.0000 C   0  0
    0.0000   -1.5000    0.0000 C   0  0
   -0.0031   -3.0008    0.0000 N   0  0
    2.5958   -2.5031    0.0000 H   0  0
    3.4642   -1.0046    0.0000 H   0  0
    2.1651    1.2500    0.0000 H   0  0
    0.8657    3.5014    0.0000 H   0  0
   -0.8662    3.5005    0.0000 H   0  0
   -0.0005    4.0008    0.0000 H   0  0
   -2.1651    1.2500    0.0000 H   0  0
   -2.1651   -1.2500    0.0000 H   0  0
   -0.8698   -3.4996    0.0000 H   0  0
    0.8621   -3.5023    0.0000 H   0  0
  1  2  1  0
  2  3  2  0
  2  8  1  0
  3  4  1  0
  4  5  1  0
  4  6  2  0
  6  7  1  0
  7  8  2  0
  8  9  1  0
  1 10  1  0
  1 11  1  0
  3 12  1  0
  5 13  1  0
  5 14  1  0
  5 15  1  0
  6 16  1  0
  7 17  1  0
  9 18  1  0
  9 19  1  0
V    1 0
V    2 1
V    3 2
V    4 3
V    5 4
V    6 5
V    7 6
V    8 7
V    9 8
M  END
> <DSSTox_RID>
59921

> <DSSTox_CID>
4930

> <DSSTox_CID_Parent>
4930

> <DSSTox_Generic_SID>
24930

> <DSSTox_FileID>
477_TXCST2_v1a

> <STRUCTURE_Formula>
C7H10N2

> <STRUCTURE_MolecularWeight>
122.1677

> <STRUCTURE_ChemicalType>
defined organic

> <STRUCTURE_TestedForm_DefinedOrganic>
parent

> <STRUCTURE_Shown>
tested chemical

> <TestSubstance_ChemicalName>
3,4-Diaminotoluene

> <TestSubstance_CASRN>
496-72-0

> <TestSubstance_Description>
single chemical compound

> <STRUCTURE_ChemicalName_IUPAC>
4-methylbenzene-1,2-diamine

> <STRUCTURE_SMILES>
Nc1cc(C)ccc1N

> <STRUCTURE_Parent_SMILES>
Nc1cc(C)ccc1N

> <STRUCTURE_InChIS>
InChI=1S/C7H10N2/c1-5-2-3-6(8)7(9)4-5/h2-4H,8-9H2,1H3

> <STRUCTURE_InChIKey>
DGRGLKZMKWPMOH-UHFFFAOYSA-N

> <Substance_modify_yyyymmdd>
20080429

> <Coord_Metals>
0

> <Index>
477

> <Canonical_Smiles>
Cc1ccc(N)c(N)c1

> <Molecular_Weight>
122.1677

> <Frequency>
1

$$$$

  SciTegic          2D

 28 27  0  0  0  0            999 V2000
    3.9000    0.7500    0.0000 O   0  0
    5.2000    0.0000    0.0000 O   0  0
    2.6000    0.0000    0.0000 C   0  0
    1.3000    0.7500    0.0000 C   0  0
    2.6028    1.5300    0.0000 C   0  0
    2.6000   -1.5007    0.0000 C   0  0
    6.5000    0.7500    0.0000 C   0  0
    7.7999    0.0000    0.0000 C   0  0
    6.4971   -0.7800    0.0000 C   0  0
    6.5000    2.2507    0.0000 C   0  0
    0.4338    0.2503    0.0000 H   0  0
    1.3000    1.7500    0.0000 H   0  0
    0.4340    1.2501    0.0000 H   0  0
    3.4695    2.0289    0.0000 H   0  0
    2.6043    2.5300    0.0000 H   0  0
    1.7376    2.0313    0.0000 H   0  0
    1.7343   -2.0013    0.0000 H   0  0
    3.4662   -2.0005    0.0000 H   0  0
    2.6005   -2.5007    0.0000 H   0  0
    8.6661    0.4997    0.0000 H   0  0
    7.7999   -1.0000    0.0000 H   0  0
    8.6659   -0.5001    0.0000 H   0  0
    5.6304   -1.2789    0.0000 H   0  0
    6.4957   -1.7800    0.0000 H   0  0
    7.3623   -1.2813    0.0000 H   0  0
    7.3657    2.7513    0.0000 H   0  0
    5.6338    2.7505    0.0000 H   0  0
    6.4995    3.2507    0.0000 H   0  0
  1  2  1  0
  1  3  1  0
  2  7  1  0
  3  4  1  0
  3  6  1  0
  3  5  1  0
  7  8  1  0
  7 10  1  0
  7  9  1  0
  4 11  1  0
  4 12  1  0
  4 13  1  0
  5 14  1  0
  5 15  1  0
  5 16  1  0
  6 17  1  0
  6 18  1  0
  6 19  1  0
  8 20  1  0
  8 21  1  0
  8 22  1  0
  9 23  1  0
  9 24  1  0
  9 25  1  0
 10 26  1  0
 10 27  1  0
 10 28  1  0
V    1 0
V    2 1
V    3 2
V    4 3
V    5 4
V    6 5
V    7 6
V    8 7
V    9 8
V   10 9
M  END
> <DSSTox_RID>
59460

> <DSSTox_CID>
4955

> <DSSTox_CID_Parent>
4955

> <DSSTox_Generic_SID>
24955

> <DSSTox_FileID>
478_TXCST2_v1a

> <STRUCTURE_Formula>
C8H18O2

> <STRUCTURE_MolecularWeight>
146.2273

> <STRUCTURE_ChemicalType>
defined organic

> <STRUCTURE_TestedForm_DefinedOrganic>
parent

> <STRUCTURE_Shown>
tested chemical

> <TestSubstance_ChemicalName>
Di-tert-butyl peroxide

> <TestSubstance_CASRN>
110-05-4

> <TestSubstance_Description>
single chemical compound

> <STRUCTURE_ChemicalName_IUPAC>
2,2'-dioxybis(2-methylpropane)

> <STRUCTURE_SMILES>
O(OC(C)(C)C)C(C)(C)C

> <STRUCTURE_Parent_SMILES>
O(OC(C)(C)C)C(C)(C)C

> <STRUCTURE_InChIS>
InChI=1S/C8H18O2/c1-7(2,3)9-10-8(4,5)6/h1-6H3

> <STRUCTURE_InChIKey>
LSXWFXONGKSEMY-UHFFFAOYSA-N

> <Substance_modify_yyyymmdd>
20080429

> <Coord_Metals>
0

> <Index>
478

> <Canonical_Smiles>
CC(C)(C)OOC(C)(C)C

> <Molecular_Weight>
146.22731

> <Frequency>
1

$$$$

  SciTegic          2D

 17 17  0  0  0  0            999 V2000
    1.4553   -2.0031    0.0000 O   0  0
    0.7500   -1.0323    0.0000 C   0  0
    1.2135    0.3943    0.0000 N   0  0
    0.0000    1.2760    0.0000 C   0  0
   -1.2135    0.3943    0.0000 C   0  0
   -2.3548    0.7651    0.0000 O   0  0
    1.2999    1.9990    0.0000 C   0  0
   -1.3002    1.9994    0.0000 C   0  0
    2.3548    0.7651    0.0000 Cl  0  0
   -0.7500   -1.0323    0.0000 N   0  0
   -1.4553   -2.0031    0.0000 Cl  0  0
    2.1662    1.4994    0.0000 H   0  0
    2.1658    2.4992    0.0000 H   0  0
    1.2998    2.9990    0.0000 H   0  0
   -1.3009    2.9994    0.0000 H   0  0
   -2.1665    2.4989    0.0000 H   0  0
   -2.1660    1.4990    0.0000 H   0  0
  1  2  2  0
  2  3  1  0
  2 10  1  0
  3  4  1  0
  3  9  1  0
  4  5  1  0
  4  7  1  0
  4  8  1  0
  5  6  2  0
  5 10  1  0
 10 11  1  0
  7 12  1  0
  7 13  1  0
  7 14  1  0
  8 15  1  0
  8 16  1  0
  8 17  1  0
V    1 0
V    2 1
V    3 2
V    4 3
V    5 4
V    6 5
V    7 6
V    8 7
V    9 8
V   10 9
V   11 10
M  END
> <DSSTox_RID>
65934

> <DSSTox_CID>
4985

> <DSSTox_CID_Parent>
4985

> <DSSTox_Generic_SID>
24985

> <DSSTox_FileID>
479_TXCST2_v1a

> <STRUCTURE_Formula>
C5H6Cl2N2O2

> <STRUCTURE_MolecularWeight>
197.0193

> <STRUCTURE_ChemicalType>
defined organic

> <STRUCTURE_TestedForm_DefinedOrganic>
parent

> <STRUCTURE_Shown>
tested chemical

> <TestSubstance_ChemicalName>
1,3-Dichloro-5,5-dimethylhydantoin

> <TestSubstance_CASRN>
118-52-5

> <TestSubstance_Description>
single chemical compound

> <STRUCTURE_ChemicalName_IUPAC>
1,3-dichloro-5,5-dimethylimidazolidine-2,4-dione

> <STRUCTURE_SMILES>
O=C(N(C(C1=O)(C)C)Cl)N1Cl

> <STRUCTURE_Parent_SMILES>
O=C(N(C(C1=O)(C)C)Cl)N1Cl

> <STRUCTURE_InChIS>
InChI=1S/C5H6Cl2N2O2/c1-5(2)3(10)8(6)4(11)9(5)7/h1-2H3

> <STRUCTURE_InChIKey>
KEQGZUUPPQEDPF-UHFFFAOYSA-N

> <Substance_modify_yyyymmdd>
20080429

> <Coord_Metals>
0

> <Index>
479

> <Canonical_Smiles>
CC1(C)N(Cl)C(=O)N(Cl)C1=O

> <Molecular_Weight>
197.01933

> <Frequency>
1

$$$$

  SciTegic          2D

 14 14  0  0  0  0            999 V2000
    2.5973   -1.5031    0.0000 N   0  0
    2.5956   -2.7031    0.0000 O   0  0
    3.6375   -0.9049    0.0000 O   0  0
    1.2990   -0.7500    0.0000 C   0  0
    1.2990    0.7500    0.0000 C   0  0
    0.0000    1.5000    0.0000 C   0  0
   -1.2990    0.7500    0.0000 C   0  0
   -2.3383    1.3500    0.0000 Cl  0  0
   -1.2990   -0.7500    0.0000 C   0  0
   -2.3383   -1.3500    0.0000 Cl  0  0
    0.0000   -1.5000    0.0000 C   0  0
    2.1651    1.2500    0.0000 H   0  0
    0.0000    2.5000    0.0000 H   0  0
    0.0000   -2.5000    0.0000 H   0  0
  1  2  2  0
  1  3  2  0
  1  4  1  0
  4  5  2  0
  4 11  1  0
  5  6  1  0
  6  7  2  0
  7  8  1  0
  7  9  1  0
  9 10  1  0
  9 11  2  0
  5 12  1  0
  6 13  1  0
 11 14  1  0
V    1 0
V    2 1
V    3 2
V    4 3
V    5 4
V    6 5
V    7 6
V    8 7
V    9 8
V   10 9
V   11 10
M  END
> <DSSTox_RID>
60819

> <DSSTox_CID>
4999

> <DSSTox_CID_Parent>
4999

> <DSSTox_Generic_SID>
24999

> <DSSTox_FileID>
480_TXCST2_v1a

> <STRUCTURE_Formula>
C6H3Cl2NO2

> <STRUCTURE_MolecularWeight>
191.9995

> <STRUCTURE_ChemicalType>
defined organic

> <STRUCTURE_TestedForm_DefinedOrganic>
parent

> <STRUCTURE_Shown>
tested chemical

> <TestSubstance_ChemicalName>
3,4-Dichloronitrobenzene

> <TestSubstance_CASRN>
99-54-7

> <TestSubstance_Description>
single chemical compound

> <STRUCTURE_ChemicalName_IUPAC>
1,2-dichloro-4-nitrobenzene

> <STRUCTURE_SMILES>
[N+](=O)([O-])c1ccc(Cl)c(Cl)c1

> <STRUCTURE_Parent_SMILES>
[N+](=O)([O-])c1ccc(Cl)c(Cl)c1

> <STRUCTURE_InChIS>
InChI=1S/C6H3Cl2NO2/c7-5-2-1-4(9(10)11)3-6(5)8/h1-3H

> <STRUCTURE_InChIKey>
NTBYINQTYWZXLH-UHFFFAOYSA-N

> <Substance_modify_yyyymmdd>
20080429

> <Coord_Metals>
0

> <Index>
480

> <Canonical_Smiles>
Clc1ccc(cc1Cl)N(=O)=O

> <Molecular_Weight>
191.99952

> <Frequency>
1

$$$$

  SciTegic          2D

 12 11  0  0  0  0            999 V2000
    2.6000   -1.5007    0.0000 O   0  0
    2.6000    0.0000    0.0000 C   0  0
    1.3000    0.7500    0.0000 C   0  0
    0.2606    0.1503    0.0000 Cl  0  0
    3.9000    0.7500    0.0000 C   0  0
    4.9394    0.1503    0.0000 Cl  0  0
    1.7343   -2.0013    0.0000 H   0  0
    1.7340   -0.5001    0.0000 H   0  0
    1.3000    1.7500    0.0000 H   0  0
    0.4340    1.2501    0.0000 H   0  0
    3.9000    1.7500    0.0000 H   0  0
    4.7659    1.2501    0.0000 H   0  0
  1  2  1  0
  2  3  1  0
  2  5  1  0
  3  4  1  0
  5  6  1  0
  1  7  1  0
  2  8  1  0
  3  9  1  0
  3 10  1  0
  5 11  1  0
  5 12  1  0
V    1 0
V    2 1
V    3 2
V    4 3
V    5 4
V    6 5
M  END
> <DSSTox_RID>
59742

> <DSSTox_CID>
5010

> <DSSTox_CID_Parent>
5010

> <DSSTox_Generic_SID>
25010

> <DSSTox_FileID>
481_TXCST2_v1a

> <STRUCTURE_Formula>
C3H6Cl2O

> <STRUCTURE_MolecularWeight>
128.9851

> <STRUCTURE_ChemicalType>
defined organic

> <STRUCTURE_TestedForm_DefinedOrganic>
parent

> <STRUCTURE_Shown>
tested chemical

> <TestSubstance_ChemicalName>
1,3-Dichloro-2-propanol

> <TestSubstance_CASRN>
96-23-1

> <TestSubstance_Description>
single chemical compound

> <STRUCTURE_ChemicalName_IUPAC>
1,3-dichloropropan-2-ol

> <STRUCTURE_SMILES>
OC(CCl)CCl

> <STRUCTURE_Parent_SMILES>
OC(CCl)CCl

> <STRUCTURE_InChIS>
InChI=1S/C3H6Cl2O/c4-1-3(6)2-5/h3,6H,1-2H2

> <STRUCTURE_InChIKey>
DEWLEGDTCGBNGU-UHFFFAOYSA-N

> <Substance_modify_yyyymmdd>
20080429

> <Coord_Metals>
0

> <Index>
481

> <Canonical_Smiles>
OC(CCl)CCl

> <Molecular_Weight>
128.98514

> <Frequency>
1

$$$$

  SciTegic          2D

 15 15  0  0  0  0            999 V2000
    1.2990   -0.7500    0.0000 C   0  0
    1.2990    0.7500    0.0000 C   0  0
    0.0000    1.5000    0.0000 C   0  0
   -1.2990    0.7500    0.0000 C   0  0
   -1.2990   -0.7500    0.0000 C   0  0
    0.0000   -1.5000    0.0000 C   0  0
    2.5988   -1.5004    0.0000 C   0  0
    3.6384   -0.9011    0.0000 Cl  0  0
    2.5984   -2.7004    0.0000 Cl  0  0
    2.1651    1.2500    0.0000 H   0  0
    0.0000    2.5000    0.0000 H   0  0
   -2.1651    1.2500    0.0000 H   0  0
   -2.1651   -1.2500    0.0000 H   0  0
    0.0000   -2.5000    0.0000 H   0  0
    3.4646   -2.0008    0.0000 H   0  0
  1  2  2  0
  1  6  1  0
  1  7  1  0
  2  3  1  0
  3  4  2  0
  4  5  1  0
  5  6  2  0
  7  8  1  0
  7  9  1  0
  2 10  1  0
  3 11  1  0
  4 12  1  0
  5 13  1  0
  6 14  1  0
  7 15  1  0
V    1 0
V    2 1
V    3 2
V    4 3
V    5 4
V    6 5
V    7 6
V    8 7
V    9 8
M  END
> <DSSTox_RID>
59871

> <DSSTox_CID>
5014

> <DSSTox_CID_Parent>
5014

> <DSSTox_Generic_SID>
25014

> <DSSTox_FileID>
482_TXCST2_v1a

> <STRUCTURE_Formula>
C7H6Cl2

> <STRUCTURE_MolecularWeight>
161.0285

> <STRUCTURE_ChemicalType>
defined organic

> <STRUCTURE_TestedForm_DefinedOrganic>
parent

> <STRUCTURE_Shown>
tested chemical

> <TestSubstance_ChemicalName>
Benzal chloride

> <TestSubstance_CASRN>
98-87-3

> <TestSubstance_Description>
single chemical compound

> <STRUCTURE_ChemicalName_IUPAC>
(dichloromethyl)benzene

> <STRUCTURE_SMILES>
c(cccc1)(c1)C(Cl)Cl

> <STRUCTURE_Parent_SMILES>
c(cccc1)(c1)C(Cl)Cl

> <STRUCTURE_InChIS>
InChI=1S/C7H6Cl2/c8-7(9)6-4-2-1-3-5-6/h1-5,7H

> <STRUCTURE_InChIKey>
CAHQGWAXKLQREW-UHFFFAOYSA-N

> <Substance_modify_yyyymmdd>
20080429

> <Coord_Metals>
0

> <Index>
482

> <Canonical_Smiles>
ClC(Cl)c1ccccc1

> <Molecular_Weight>
161.02853

> <Frequency>
1

$$$$

  SciTegic          2D

 42 43  0  0  0  0            999 V2000
    5.1584   -2.0079    0.0000 O   0  0
    4.6451   -0.5976    0.0000 O   0  0
    3.1672   -0.3360    0.0000 C   0  0
    2.6539    1.0743    0.0000 C   0  0
    3.1669    2.4839    0.0000 C   0  0
    2.2027    3.6329    0.0000 C   0  0
    0.7255    3.3724    0.0000 C   0  0
    0.2125    1.9629    0.0000 C   0  0
    1.1767    0.8138    0.0000 C   0  0
    2.2022   -1.4853    0.0000 C   0  0
    4.1532    0.8339    0.0000 C   0  0
    6.6362   -2.2694    0.0000 C   0  0
    7.1496   -3.6797    0.0000 C   0  0
    6.6365   -5.0893    0.0000 C   0  0
    7.6007   -6.2383    0.0000 C   0  0
    9.0779   -5.9779    0.0000 C   0  0
    9.5910   -4.5683    0.0000 C   0  0
    8.6268   -3.4193    0.0000 C   0  0
    7.6013   -1.1201    0.0000 C   0  0
    5.6503   -3.4393    0.0000 C   0  0
    4.1517    2.6575    0.0000 H   0  0
    2.5448    4.5726    0.0000 H   0  0
    0.0827    4.1385    0.0000 H   0  0
   -0.7723    1.7892    0.0000 H   0  0
    0.8347   -0.1259    0.0000 H   0  0
    2.5433   -2.4254    0.0000 H   0  0
    1.2175   -1.3111    0.0000 H   0  0
    1.5588   -2.2509    0.0000 H   0  0
    5.1377    0.6587    0.0000 H   0  0
    4.7973    1.5988    0.0000 H   0  0
    3.8130    1.7742    0.0000 H   0  0
    5.6517   -5.2629    0.0000 H   0  0
    7.2587   -7.1780    0.0000 H   0  0
    9.7207   -6.7439    0.0000 H   0  0
   10.5758   -4.3947    0.0000 H   0  0
    8.9688   -2.4796    0.0000 H   0  0
    7.2601   -0.1801    0.0000 H   0  0
    8.5860   -1.2943    0.0000 H   0  0
    8.2447   -0.3545    0.0000 H   0  0
    4.6657   -3.2641    0.0000 H   0  0
    5.0061   -4.2042    0.0000 H   0  0
    5.9905   -4.3796    0.0000 H   0  0
  1  2  1  0
  1 12  1  0
  2  3  1  0
  3  4  1  0
  3 10  1  0
  3 11  1  0
  4  5  2  0
  4  9  1  0
  5  6  1  0
  6  7  2  0
  7  8  1  0
  8  9  2  0
 12 13  1  0
 12 19  1  0
 12 20  1  0
 13 14  2  0
 13 18  1  0
 14 15  1  0
 15 16  2  0
 16 17  1  0
 17 18  2  0
  5 21  1  0
  6 22  1  0
  7 23  1  0
  8 24  1  0
  9 25  1  0
 10 26  1  0
 10 27  1  0
 10 28  1  0
 11 29  1  0
 11 30  1  0
 11 31  1  0
 14 32  1  0
 15 33  1  0
 16 34  1  0
 17 35  1  0
 18 36  1  0
 19 37  1  0
 19 38  1  0
 19 39  1  0
 20 40  1  0
 20 41  1  0
 20 42  1  0
V    1 0
V    2 1
V    3 2
V    4 3
V    5 4
V    6 5
V    7 6
V    8 7
V    9 8
V   10 9
V   11 10
V   12 11
V   13 12
V   14 13
V   15 14
V   16 15
V   17 16
V   18 17
V   19 18
V   20 19
M  END
> <DSSTox_RID>
59887

> <DSSTox_CID>
5017

> <DSSTox_CID_Parent>
5017

> <DSSTox_Generic_SID>
25017

> <DSSTox_FileID>
483_TXCST2_v1a

> <STRUCTURE_Formula>
C18H22O2

> <STRUCTURE_MolecularWeight>
270.3661

> <STRUCTURE_ChemicalType>
defined organic

> <STRUCTURE_TestedForm_DefinedOrganic>
parent

> <STRUCTURE_Shown>
tested chemical

> <TestSubstance_ChemicalName>
Dicumyl peroxide?-(Dioxydipropane-2,2-diyl)dibenzene)

> <TestSubstance_CASRN>
80-43-3

> <TestSubstance_Description>
single chemical compound

> <STRUCTURE_ChemicalName_IUPAC>
1,1'-(dioxydipropane-2,2-diyl)dibenzene

> <STRUCTURE_SMILES>
O(OC(c(cccc1)c1)(C)C)C(c(cccc2)c2)(C)C

> <STRUCTURE_Parent_SMILES>
O(OC(c(cccc1)c1)(C)C)C(c(cccc2)c2)(C)C

> <STRUCTURE_InChIS>
InChI=1S/C18H22O2/c1-17(2,15-11-7-5-8-12-15)19-20-18(3,4)16-13-9-6-10-14-16/h5-14H,1-4H3

> <STRUCTURE_InChIKey>
XMNIXWIUMCBBBL-UHFFFAOYSA-N

> <Substance_modify_yyyymmdd>
20080429

> <Coord_Metals>
0

> <Index>
483

> <Canonical_Smiles>
CC(C)(OOC(C)(C)c1ccccc1)c2ccccc2

> <Molecular_Weight>
270.36608

> <Frequency>
1

$$$$

  SciTegic          2D

 20 19  0  0  0  0            999 V2000
    6.5000    0.7500    0.0000 O   0  0
    5.2000    0.0000    0.0000 C   0  0
    3.9000    0.7500    0.0000 C   0  0
    2.6000    0.0000    0.0000 O   0  0
    1.3000    0.7500    0.0000 C   0  0
    7.7999    0.0000    0.0000 C   0  0
    9.0999    0.7500    0.0000 C   0  0
   10.3999    0.0000    0.0000 O   0  0
    5.2000   -1.0000    0.0000 H   0  0
    6.0659   -0.5001    0.0000 H   0  0
    3.9000    1.7500    0.0000 H   0  0
    3.0340    1.2501    0.0000 H   0  0
    0.4338    0.2503    0.0000 H   0  0
    1.3000    1.7500    0.0000 H   0  0
    0.4340    1.2501    0.0000 H   0  0
    7.7999   -1.0000    0.0000 H   0  0
    6.9340   -0.5001    0.0000 H   0  0
    9.0999    1.7500    0.0000 H   0  0
    9.9659    1.2501    0.0000 H   0  0
   11.2661    0.4997    0.0000 H   0  0
  1  2  1  0
  1  6  1  0
  2  3  1  0
  3  4  1  0
  4  5  1  0
  6  7  1  0
  7  8  1  0
  2  9  1  0
  2 10  1  0
  3 11  1  0
  3 12  1  0
  5 13  1  0
  5 14  1  0
  5 15  1  0
  6 16  1  0
  6 17  1  0
  7 18  1  0
  7 19  1  0
  8 20  1  0
V    1 0
V    2 1
V    3 2
V    4 3
V    5 4
V    6 5
V    7 6
V    8 7
M  END
> <DSSTox_RID>
61319

> <DSSTox_CID>
5049

> <DSSTox_CID_Parent>
5049

> <DSSTox_Generic_SID>
25049

> <DSSTox_FileID>
484_TXCST2_v1a

> <STRUCTURE_Formula>
C5H12O3

> <STRUCTURE_MolecularWeight>
120.147

> <STRUCTURE_ChemicalType>
defined organic

> <STRUCTURE_TestedForm_DefinedOrganic>
parent

> <STRUCTURE_Shown>
tested chemical

> <TestSubstance_ChemicalName>
Diethylene glycol monomethyl ether

> <TestSubstance_CASRN>
111-77-3

> <TestSubstance_Description>
single chemical compound

> <Source_ChemicalNote>
tested chemical contained 0.03% water

> <STRUCTURE_ChemicalName_IUPAC>
2-(2-methoxyethoxy)ethanol

> <STRUCTURE_SMILES>
O(CCOC)CCO

> <STRUCTURE_Parent_SMILES>
O(CCOC)CCO

> <STRUCTURE_InChIS>
InChI=1S/C5H12O3/c1-7-4-5-8-3-2-6/h6H,2-5H2,1H3

> <STRUCTURE_InChIKey>
SBASXUCJHJRPEV-UHFFFAOYSA-N

> <Substance_modify_yyyymmdd>
20080429

> <Coord_Metals>
0

> <Index>
484

> <Canonical_Smiles>
COCCOCCO

> <Molecular_Weight>
120.14698

> <Frequency>
1

$$$$

  SciTegic          2D

 54 54  0  0  0  0            999 V2000
    3.6375   -0.9049    0.0000 O   0  0
    2.5973   -1.5031    0.0000 C   0  0
    2.5951   -3.0039    0.0000 O   0  0
    3.8933   -3.7570    0.0000 C   0  0
    3.8912   -5.2578    0.0000 C   0  0
    5.1894   -6.0109    0.0000 C   0  0
    5.1873   -7.5117    0.0000 C   0  0
    6.4855   -8.2648    0.0000 C   0  0
    6.4833   -9.7656    0.0000 C   0  0
    1.2990   -0.7500    0.0000 C   0  0
    1.2990    0.7500    0.0000 C   0  0
    0.0000    1.5000    0.0000 C   0  0
   -1.2990    0.7500    0.0000 C   0  0
   -1.2990   -0.7500    0.0000 C   0  0
    2.5972    1.5031    0.0000 C   0  0
    3.6375    0.9049    0.0000 O   0  0
    2.5951    3.0039    0.0000 O   0  0
    3.8933    3.7570    0.0000 C   0  0
    3.8912    5.2578    0.0000 C   0  0
    5.1894    6.0109    0.0000 C   0  0
    5.1872    7.5118    0.0000 C   0  0
    6.4854    8.2649    0.0000 C   0  0
    6.4833    9.7657    0.0000 C   0  0
    0.0000   -1.5000    0.0000 C   0  0
    3.8952   -2.7570    0.0000 H   0  0
    4.7602   -3.2585    0.0000 H   0  0
    3.0260   -4.7564    0.0000 H   0  0
    3.0243   -5.7563    0.0000 H   0  0
    5.1913   -5.0109    0.0000 H   0  0
    6.0563   -5.5124    0.0000 H   0  0
    4.3220   -7.0104    0.0000 H   0  0
    4.3204   -8.0102    0.0000 H   0  0
    6.4874   -7.2648    0.0000 H   0  0
    7.3524   -7.7663    0.0000 H   0  0
    7.3483  -10.2674    0.0000 H   0  0
    6.4814  -10.7656    0.0000 H   0  0
    5.6164  -10.2641    0.0000 H   0  0
    0.0000    2.5000    0.0000 H   0  0
   -2.1651    1.2500    0.0000 H   0  0
   -2.1651   -1.2500    0.0000 H   0  0
    3.8952    2.7570    0.0000 H   0  0
    4.7602    3.2585    0.0000 H   0  0
    3.0259    4.7565    0.0000 H   0  0
    3.0243    5.7563    0.0000 H   0  0
    5.1913    5.0109    0.0000 H   0  0
    6.0563    5.5125    0.0000 H   0  0
    4.3220    7.0104    0.0000 H   0  0
    4.3203    8.0102    0.0000 H   0  0
    6.4873    7.2649    0.0000 H   0  0
    7.3523    7.7664    0.0000 H   0  0
    7.3483   10.2675    0.0000 H   0  0
    6.4814   10.7657    0.0000 H   0  0
    5.6164   10.2642    0.0000 H   0  0
    0.0000   -2.5000    0.0000 H   0  0
  1  2  2  0
  2  3  1  0
  2 10  1  0
  3  4  1  0
  4  5  1  0
  5  6  1  0
  6  7  1  0
  7  8  1  0
  8  9  1  0
 10 11  2  0
 10 24  1  0
 11 12  1  0
 11 15  1  0
 12 13  2  0
 13 14  1  0
 14 24  2  0
 15 16  2  0
 15 17  1  0
 17 18  1  0
 18 19  1  0
 19 20  1  0
 20 21  1  0
 21 22  1  0
 22 23  1  0
  4 25  1  0
  4 26  1  0
  5 27  1  0
  5 28  1  0
  6 29  1  0
  6 30  1  0
  7 31  1  0
  7 32  1  0
  8 33  1  0
  8 34  1  0
  9 35  1  0
  9 36  1  0
  9 37  1  0
 12 38  1  0
 13 39  1  0
 14 40  1  0
 18 41  1  0
 18 42  1  0
 19 43  1  0
 19 44  1  0
 20 45  1  0
 20 46  1  0
 21 47  1  0
 21 48  1  0
 22 49  1  0
 22 50  1  0
 23 51  1  0
 23 52  1  0
 23 53  1  0
 24 54  1  0
V    1 0
V    2 1
V    3 2
V    4 3
V    5 4
V    6 5
V    7 6
V    8 7
V    9 8
V   10 9
V   11 10
V   12 11
V   13 12
V   14 13
V   15 14
V   16 15
V   17 16
V   18 17
V   19 18
V   20 19
V   21 20
V   22 21
V   23 22
V   24 23
M  END
> <DSSTox_RID>
59629

> <DSSTox_CID>
5068

> <DSSTox_CID_Parent>
5068

> <DSSTox_Generic_SID>
25068

> <DSSTox_FileID>
485_TXCST2_v1a

> <STRUCTURE_Formula>
C20H30O4

> <STRUCTURE_MolecularWeight>
334.4498

> <STRUCTURE_ChemicalType>
defined organic

> <STRUCTURE_TestedForm_DefinedOrganic>
parent

> <STRUCTURE_Shown>
tested chemical

> <TestSubstance_ChemicalName>
Dihexyl phthalate

> <TestSubstance_CASRN>
84-75-3

> <TestSubstance_Description>
single chemical compound

> <STRUCTURE_ChemicalName_IUPAC>
Dihexyl phthalate

> <STRUCTURE_SMILES>
O=C(OCCCCCC)c(c(ccc1)C(=O)OCCCCCC)c1

> <STRUCTURE_Parent_SMILES>
O=C(OCCCCCC)c(c(ccc1)C(=O)OCCCCCC)c1

> <STRUCTURE_InChIS>
InChI=1S/C20H30O4/c1-3-5-7-11-15-23-19(21)17-13-9-10-14-18(17)20(22)24-16-12-8-6-4-2/h9-10,13-14H,3-8,11-12,15-16H2,1-2H3

> <STRUCTURE_InChIKey>
KCXZNSGUUQJJTR-UHFFFAOYSA-N

> <Substance_modify_yyyymmdd>
20080429

> <Coord_Metals>
0

> <Index>
485

> <Canonical_Smiles>
CCCCCCOC(=O)c1ccccc1C(=O)OCCCCCC

> <Molecular_Weight>
334.4498

> <Frequency>
1

$$$$

  SciTegic          2D

 26 25  0  0  0  0            999 V2000
    9.0999    0.7500    0.0000 C   0  0
    7.7999    0.0000    0.0000 C   0  0
    6.5000    0.7500    0.0000 C   0  0
    5.2000    0.0000    0.0000 C   0  0
    3.9000    0.7500    0.0000 C   0  0
    3.9000    1.9500    0.0000 O   0  0
    2.6000    0.0000    0.0000 O   0  0
    1.3000    0.7500    0.0000 C   0  0
   10.3999    0.0000    0.0000 C   0  0
   10.3999   -1.2000    0.0000 O   0  0
   11.6999    0.7500    0.0000 O   0  0
   12.9999    0.0000    0.0000 C   0  0
    9.0999    1.7500    0.0000 H   0  0
    9.9659    1.2501    0.0000 H   0  0
    7.7999   -1.0000    0.0000 H   0  0
    6.9340   -0.5001    0.0000 H   0  0
    6.5000    1.7500    0.0000 H   0  0
    5.6340    1.2501    0.0000 H   0  0
    5.2000   -1.0000    0.0000 H   0  0
    4.3340   -0.5001    0.0000 H   0  0
    0.4338    0.2503    0.0000 H   0  0
    1.3000    1.7500    0.0000 H   0  0
    0.4340    1.2501    0.0000 H   0  0
   13.8661    0.4997    0.0000 H   0  0
   12.9999   -1.0000    0.0000 H   0  0
   13.8658   -0.5001    0.0000 H   0  0
  1  2  1  0
  1  9  1  0
  2  3  1  0
  3  4  1  0
  4  5  1  0
  5  6  2  0
  5  7  1  0
  7  8  1  0
  9 10  2  0
  9 11  1  0
 11 12  1  0
  1 13  1  0
  1 14  1  0
  2 15  1  0
  2 16  1  0
  3 17  1  0
  3 18  1  0
  4 19  1  0
  4 20  1  0
  8 21  1  0
  8 22  1  0
  8 23  1  0
 12 24  1  0
 12 25  1  0
 12 26  1  0
V    1 0
V    2 1
V    3 2
V    4 3
V    5 4
V    6 5
V    7 6
V    8 7
V    9 8
V   10 9
V   11 10
V   12 11
M  END
> <DSSTox_RID>
61722

> <DSSTox_CID>
5096

> <DSSTox_CID_Parent>
5096

> <DSSTox_Generic_SID>
25096

> <DSSTox_FileID>
487_TXCST2_v1a

> <STRUCTURE_Formula>
C8H14O4

> <STRUCTURE_MolecularWeight>
174.1944

> <STRUCTURE_ChemicalType>
defined organic

> <STRUCTURE_TestedForm_DefinedOrganic>
parent

> <STRUCTURE_Shown>
tested chemical

> <TestSubstance_ChemicalName>
Dimethyl adipate

> <TestSubstance_CASRN>
627-93-0

> <TestSubstance_Description>
single chemical compound

> <STRUCTURE_ChemicalName_IUPAC>
dimethyl adipate

> <STRUCTURE_SMILES>
C(CCCC(=O)OC)C(=O)OC

> <STRUCTURE_Parent_SMILES>
C(CCCC(=O)OC)C(=O)OC

> <STRUCTURE_InChIS>
InChI=1S/C8H14O4/c1-11-7(9)5-3-4-6-8(10)12-2/h3-6H2,1-2H3

> <STRUCTURE_InChIKey>
UDSFAEKRVUSQDD-UHFFFAOYSA-N

> <Substance_modify_yyyymmdd>
20080429

> <Coord_Metals>
0

> <Index>
487

> <Canonical_Smiles>
COC(=O)CCCCC(=O)OC

> <Molecular_Weight>
174.19435

> <Frequency>
1

$$$$

  SciTegic          2D

 54 53  0  0  0  0            999 V2000
    6.5000    0.7500    0.0000 C   0  0
    6.5000    2.2507    0.0000 C   0  0
    5.1732    1.5119    0.0000 C   0  0
    5.2000    0.0000    0.0000 O   0  0
    5.1985   -1.5008    0.0000 O   0  0
    3.8985   -2.2508    0.0000 C   0  0
    3.8971   -3.7516    0.0000 C   0  0
    2.5993   -1.4996    0.0000 C   0  0
    5.2245   -3.0142    0.0000 C   0  0
    7.7999    0.0000    0.0000 C   0  0
    9.0999    0.7500    0.0000 C   0  0
   10.3999    0.0000    0.0000 C   0  0
   11.6991    0.7512    0.0000 C   0  0
   10.4011    1.5300    0.0000 C   0  0
   10.4013   -1.5008    0.0000 O   0  0
   11.7013   -2.2508    0.0000 O   0  0
   11.7028   -3.7516    0.0000 C   0  0
   13.0028   -4.5016    0.0000 C   0  0
   10.4036   -4.5028    0.0000 C   0  0
   13.0258   -2.9834    0.0000 C   0  0
    7.3657    2.7513    0.0000 H   0  0
    5.6338    2.7505    0.0000 H   0  0
    6.4995    3.2507    0.0000 H   0  0
    4.3080    1.0104    0.0000 H   0  0
    4.3062    2.0103    0.0000 H   0  0
    5.1712    2.5119    0.0000 H   0  0
    3.0309   -4.2514    0.0000 H   0  0
    4.7628   -4.2522    0.0000 H   0  0
    3.8966   -4.7516    0.0000 H   0  0
    1.7327   -1.9985    0.0000 H   0  0
    2.6003   -0.4996    0.0000 H   0  0
    1.7339   -0.9987    0.0000 H   0  0
    6.0902   -2.5136    0.0000 H   0  0
    5.2254   -4.0142    0.0000 H   0  0
    6.0909   -3.5135    0.0000 H   0  0
    7.7999   -1.0000    0.0000 H   0  0
    6.9340   -0.5001    0.0000 H   0  0
    9.0999    1.7500    0.0000 H   0  0
    8.2340    1.2501    0.0000 H   0  0
   11.6991    1.7512    0.0000 H   0  0
   12.5653    0.2515    0.0000 H   0  0
   12.5651    1.2513    0.0000 H   0  0
   11.2672    2.0298    0.0000 H   0  0
   10.4014    2.5300    0.0000 H   0  0
    9.5353    2.0304    0.0000 H   0  0
   13.0037   -5.5016    0.0000 H   0  0
   13.8685   -4.0011    0.0000 H   0  0
   13.8692   -5.0010    0.0000 H   0  0
   10.4036   -5.5028    0.0000 H   0  0
    9.5374   -4.0031    0.0000 H   0  0
    9.5376   -5.0030    0.0000 H   0  0
   13.0239   -1.9834    0.0000 H   0  0
   13.8930   -3.4815    0.0000 H   0  0
   13.8908   -2.4816    0.0000 H   0  0
  1  2  1  0
  1  3  1  0
  1  4  1  0
  1 10  1  0
  4  5  1  0
  5  6  1  0
  6  7  1  0
  6  8  1  0
  6  9  1  0
 10 11  1  0
 11 12  1  0
 12 13  1  0
 12 14  1  0
 12 15  1  0
 15 16  1  0
 16 17  1  0
 17 18  1  0
 17 19  1  0
 17 20  1  0
  2 21  1  0
  2 22  1  0
  2 23  1  0
  3 24  1  0
  3 25  1  0
  3 26  1  0
  7 27  1  0
  7 28  1  0
  7 29  1  0
  8 30  1  0
  8 31  1  0
  8 32  1  0
  9 33  1  0
  9 34  1  0
  9 35  1  0
 10 36  1  0
 10 37  1  0
 11 38  1  0
 11 39  1  0
 13 40  1  0
 13 41  1  0
 13 42  1  0
 14 43  1  0
 14 44  1  0
 14 45  1  0
 18 46  1  0
 18 47  1  0
 18 48  1  0
 19 49  1  0
 19 50  1  0
 19 51  1  0
 20 52  1  0
 20 53  1  0
 20 54  1  0
V    1 0
V    2 1
V    3 2
V    4 3
V    5 4
V    6 5
V    7 6
V    8 7
V    9 8
V   10 9
V   11 10
V   12 11
V   13 12
V   14 13
V   15 14
V   16 15
V   17 16
V   18 17
V   19 18
V   20 19
M  END
> <DSSTox_RID>
59896

> <DSSTox_CID>
5110

> <DSSTox_CID_Parent>
5110

> <DSSTox_Generic_SID>
25110

> <DSSTox_FileID>
488_TXCST2_v1a

> <STRUCTURE_Formula>
C16H34O4

> <STRUCTURE_MolecularWeight>
290.4388

> <STRUCTURE_ChemicalType>
defined organic

> <STRUCTURE_TestedForm_DefinedOrganic>
parent

> <STRUCTURE_Shown>
tested chemical

> <TestSubstance_ChemicalName>
2,5-Dimethyl-2,5-bis(tert-butylperoxy)hexane

> <TestSubstance_CASRN>
78-63-7

> <TestSubstance_Description>
single chemical compound

> <STRUCTURE_ChemicalName_IUPAC>
2,5-Dimethyl-2,5-bis(tert-butylperoxy)hexane

> <STRUCTURE_SMILES>
C(C)(C)(OOC(C)(C)C)CCC(C)(C)OOC(C)(C)C

> <STRUCTURE_Parent_SMILES>
C(C)(C)(OOC(C)(C)C)CCC(C)(C)OOC(C)(C)C

> <STRUCTURE_InChIS>
InChI=1S/C16H34O4/c1-13(2,3)17-19-15(7,8)11-12-16(9,10)20-18-14(4,5)6/h11-12H2,1-10H3

> <STRUCTURE_InChIKey>
DMWVYCCGCQPJEA-UHFFFAOYSA-N

> <Substance_modify_yyyymmdd>
20080429

> <Coord_Metals>
0

> <Index>
488

> <Canonical_Smiles>
CC(C)(C)OOC(C)(C)CCC(C)(C)OOC(C)(C)C

> <Molecular_Weight>
290.43876

> <Frequency>
1

$$$$

  SciTegic          2D

 23 22  0  0  0  0            999 V2000
    1.3000    0.7500    0.0000 C   0  0
    2.6000    0.0000    0.0000 O   0  0
    3.9000    0.7500    0.0000 C   0  0
    3.9000    1.9500    0.0000 O   0  0
    5.2000    0.0000    0.0000 C   0  0
    6.5000    0.7500    0.0000 C   0  0
    7.7999    0.0000    0.0000 C   0  0
    9.0999    0.7500    0.0000 C   0  0
    9.0999    1.9500    0.0000 O   0  0
   10.3999    0.0000    0.0000 O   0  0
   11.6999    0.7500    0.0000 C   0  0
    0.4338    0.2503    0.0000 H   0  0
    1.3000    1.7500    0.0000 H   0  0
    0.4340    1.2501    0.0000 H   0  0
    5.2000   -1.0000    0.0000 H   0  0
    4.3340   -0.5001    0.0000 H   0  0
    6.5000    1.7500    0.0000 H   0  0
    5.6340    1.2501    0.0000 H   0  0
    7.7999   -1.0000    0.0000 H   0  0
    8.6659   -0.5001    0.0000 H   0  0
   12.5661    0.2503    0.0000 H   0  0
   11.6999    1.7500    0.0000 H   0  0
   12.5659    1.2501    0.0000 H   0  0
  1  2  1  0
  2  3  1  0
  3  4  2  0
  3  5  1  0
  5  6  1  0
  6  7  1  0
  7  8  1  0
  8  9  2  0
  8 10  1  0
 10 11  1  0
  1 12  1  0
  1 13  1  0
  1 14  1  0
  5 15  1  0
  5 16  1  0
  6 17  1  0
  6 18  1  0
  7 19  1  0
  7 20  1  0
 11 21  1  0
 11 22  1  0
 11 23  1  0
V    1 0
V    2 1
V    3 2
V    4 3
V    5 4
V    6 5
V    7 6
V    8 7
V    9 8
V   10 9
V   11 10
M  END
> <DSSTox_RID>
59652

> <DSSTox_CID>
5122

> <DSSTox_CID_Parent>
5122

> <DSSTox_Generic_SID>
25122

> <DSSTox_FileID>
489_TXCST2_v1a

> <STRUCTURE_Formula>
C7H12O4

> <STRUCTURE_MolecularWeight>
160.1678

> <STRUCTURE_ChemicalType>
defined organic

> <STRUCTURE_TestedForm_DefinedOrganic>
parent

> <STRUCTURE_Shown>
tested chemical

> <TestSubstance_ChemicalName>
Dimethyl glutarate

> <TestSubstance_CASRN>
1119-40-0

> <TestSubstance_Description>
single chemical compound

> <STRUCTURE_ChemicalName_IUPAC>
dimethyl glutarate

> <STRUCTURE_SMILES>
COC(=O)CCCC(=O)OC

> <STRUCTURE_Parent_SMILES>
COC(=O)CCCC(=O)OC

> <STRUCTURE_InChIS>
InChI=1S/C7H12O4/c1-10-6(8)4-3-5-7(9)11-2/h3-5H2,1-2H3

> <STRUCTURE_InChIKey>
XTDYIOOONNVFMA-UHFFFAOYSA-N

> <Substance_modify_yyyymmdd>
20080429

> <Coord_Metals>
0

> <Index>
489

> <Canonical_Smiles>
COC(=O)CCCC(=O)OC

> <Molecular_Weight>
160.16777

> <Frequency>
1

$$$$

  SciTegic          2D

 20 20  0  0  0  0            999 V2000
    2.5988   -1.5004    0.0000 C   0  0
    1.2990   -0.7500    0.0000 C   0  0
    1.2990    0.7500    0.0000 C   0  0
    0.0000    1.5000    0.0000 C   0  0
   -1.2990    0.7500    0.0000 C   0  0
   -1.2990   -0.7500    0.0000 C   0  0
    0.0000   -1.5000    0.0000 C   0  0
    0.0000   -3.0008    0.0000 C   0  0
   -2.5972   -1.5031    0.0000 N   0  0
   -2.5955   -2.7031    0.0000 O   0  0
   -3.6375   -0.9049    0.0000 O   0  0
    3.4651   -1.0010    0.0000 H   0  0
    2.5985   -2.5004    0.0000 H   0  0
    3.4646   -2.0008    0.0000 H   0  0
    2.1651    1.2500    0.0000 H   0  0
    0.0000    2.5000    0.0000 H   0  0
   -2.1651    1.2500    0.0000 H   0  0
    0.8657   -3.5014    0.0000 H   0  0
   -0.8662   -3.5006    0.0000 H   0  0
   -0.0005   -4.0008    0.0000 H   0  0
  1  2  1  0
  2  3  2  0
  2  7  1  0
  3  4  1  0
  4  5  2  0
  5  6  1  0
  6  7  2  0
  6  9  1  0
  7  8  1  0
  9 10  2  0
  9 11  2  0
  1 12  1  0
  1 13  1  0
  1 14  1  0
  3 15  1  0
  4 16  1  0
  5 17  1  0
  8 18  1  0
  8 19  1  0
  8 20  1  0
V    1 0
V    2 1
V    3 2
V    4 3
V    5 4
V    6 5
V    7 6
V    8 7
V    9 8
V   10 9
V   11 10
M  END
> <DSSTox_RID>
59687

> <DSSTox_CID>
5132

> <DSSTox_CID_Parent>
5132

> <DSSTox_Generic_SID>
25132

> <DSSTox_FileID>
490_TXCST2_v1a

> <STRUCTURE_Formula>
C8H9NO2

> <STRUCTURE_MolecularWeight>
151.1626

> <STRUCTURE_ChemicalType>
defined organic

> <STRUCTURE_TestedForm_DefinedOrganic>
parent

> <STRUCTURE_Shown>
tested chemical

> <TestSubstance_ChemicalName>
1,2-Dimethyl-3-nitrobenzene

> <TestSubstance_CASRN>
83-41-0

> <TestSubstance_Description>
single chemical compound

> <STRUCTURE_ChemicalName_IUPAC>
1,2-dimethyl-3-nitrobenzene

> <STRUCTURE_SMILES>
CC1=CC=CC(=C1C)[N+]([O-])=O

> <STRUCTURE_Parent_SMILES>
CC1=CC=CC(=C1C)[N+]([O-])=O

> <STRUCTURE_InChIS>
InChI=1S/C8H9NO2/c1-6-4-3-5-8(7(6)2)9(10)11/h3-5H,1-2H3

> <STRUCTURE_InChIKey>
FVHAWXWFPBPFOS-UHFFFAOYSA-N

> <Substance_modify_yyyymmdd>
20080429

> <Coord_Metals>
0

> <Index>
490

> <Canonical_Smiles>
Cc1cccc(c1C)N(=O)=O

> <Molecular_Weight>
151.16255

> <Frequency>
1

$$$$

  SciTegic          2D

 20 20  0  0  0  0            999 V2000
    2.5988   -1.5004    0.0000 C   0  0
    1.2990   -0.7500    0.0000 C   0  0
    1.2990    0.7500    0.0000 C   0  0
    0.0000    1.5000    0.0000 C   0  0
   -1.2990    0.7500    0.0000 C   0  0
   -1.2990   -0.7500    0.0000 C   0  0
    0.0000   -1.5000    0.0000 C   0  0
    0.0000   -3.0008    0.0000 C   0  0
   -2.6003    1.4977    0.0000 N   0  0
   -3.6387    0.8962    0.0000 O   0  0
   -2.6024    2.6977    0.0000 O   0  0
    3.4651   -1.0010    0.0000 H   0  0
    2.5985   -2.5004    0.0000 H   0  0
    3.4646   -2.0008    0.0000 H   0  0
    2.1651    1.2500    0.0000 H   0  0
    0.0000    2.5000    0.0000 H   0  0
   -2.1651   -1.2500    0.0000 H   0  0
    0.8657   -3.5014    0.0000 H   0  0
   -0.8662   -3.5006    0.0000 H   0  0
   -0.0005   -4.0008    0.0000 H   0  0
  1  2  1  0
  2  3  2  0
  2  7  1  0
  3  4  1  0
  4  5  2  0
  5  6  1  0
  5  9  1  0
  6  7  2  0
  7  8  1  0
  9 10  2  0
  9 11  2  0
  1 12  1  0
  1 13  1  0
  1 14  1  0
  3 15  1  0
  4 16  1  0
  6 17  1  0
  8 18  1  0
  8 19  1  0
  8 20  1  0
V    1 0
V    2 1
V    3 2
V    4 3
V    5 4
V    6 5
V    7 6
V    8 7
V    9 8
V   10 9
V   11 10
M  END
> <DSSTox_RID>
59549

> <DSSTox_CID>
5133

> <DSSTox_CID_Parent>
5133

> <DSSTox_Generic_SID>
25133

> <DSSTox_FileID>
491_TXCST2_v1a

> <STRUCTURE_Formula>
C8H9NO2

> <STRUCTURE_MolecularWeight>
151.1626

> <STRUCTURE_ChemicalType>
defined organic

> <STRUCTURE_TestedForm_DefinedOrganic>
parent

> <STRUCTURE_Shown>
tested chemical

> <TestSubstance_ChemicalName>
1,2-Dimethyl-4-nitrobenzene

> <TestSubstance_CASRN>
99-51-4

> <TestSubstance_Description>
single chemical compound

> <STRUCTURE_ChemicalName_IUPAC>
1,2-dimethyl-4-nitrobenzene

> <STRUCTURE_SMILES>
CC1=CC=C(C=C1C)[N+]([O-])=O

> <STRUCTURE_Parent_SMILES>
CC1=CC=C(C=C1C)[N+]([O-])=O

> <STRUCTURE_InChIS>
InChI=1S/C8H9NO2/c1-6-3-4-8(9(10)11)5-7(6)2/h3-5H,1-2H3

> <STRUCTURE_InChIKey>
HFZKOYWDLDYELC-UHFFFAOYSA-N

> <Substance_modify_yyyymmdd>
20080429

> <Coord_Metals>
0

> <Index>
491

> <Canonical_Smiles>
Cc1ccc(cc1C)N(=O)=O

> <Molecular_Weight>
151.16255

> <Frequency>
1

$$$$

  SciTegic          2D

 19 19  0  0  0  0            999 V2000
    2.5973   -1.5031    0.0000 O   0  0
    1.2990   -0.7500    0.0000 C   0  0
    1.2990    0.7500    0.0000 C   0  0
    0.0000    1.5000    0.0000 C   0  0
   -1.2990    0.7500    0.0000 C   0  0
   -1.2990   -0.7500    0.0000 C   0  0
   -2.5988   -1.5004    0.0000 C   0  0
    2.5988    1.5004    0.0000 C   0  0
    0.0000   -1.5000    0.0000 C   0  0
    2.5958   -2.5031    0.0000 H   0  0
    0.0000    2.5000    0.0000 H   0  0
   -2.1651    1.2500    0.0000 H   0  0
   -3.4651   -1.0010    0.0000 H   0  0
   -2.5985   -2.5004    0.0000 H   0  0
   -3.4646   -2.0008    0.0000 H   0  0
    3.4651    1.0010    0.0000 H   0  0
    2.5985    2.5004    0.0000 H   0  0
    3.4646    2.0008    0.0000 H   0  0
    0.0000   -2.5000    0.0000 H   0  0
  1  2  1  0
  2  3  2  0
  2  9  1  0
  3  4  1  0
  3  8  1  0
  4  5  2  0
  5  6  1  0
  6  7  1  0
  6  9  2  0
  1 10  1  0
  4 11  1  0
  5 12  1  0
  7 13  1  0
  7 14  1  0
  7 15  1  0
  8 16  1  0
  8 17  1  0
  8 18  1  0
  9 19  1  0
V    1 0
V    2 1
V    3 2
V    4 3
V    5 4
V    6 5
V    7 6
V    8 7
V    9 8
M  END
> <DSSTox_RID>
59899

> <DSSTox_CID>
5145

> <DSSTox_CID_Parent>
5145

> <DSSTox_Generic_SID>
25145

> <DSSTox_FileID>
492_TXCST2_v1a

> <STRUCTURE_Formula>
C8H10O

> <STRUCTURE_MolecularWeight>
122.1644

> <STRUCTURE_ChemicalType>
defined organic

> <STRUCTURE_TestedForm_DefinedOrganic>
parent

> <STRUCTURE_Shown>
tested chemical

> <TestSubstance_ChemicalName>
2,5-Dimethylphenol

> <TestSubstance_CASRN>
95-87-4

> <TestSubstance_Description>
single chemical compound

> <STRUCTURE_ChemicalName_IUPAC>
2,5-dimethylphenol

> <STRUCTURE_SMILES>
Oc(c(ccc1C)C)c1

> <STRUCTURE_Parent_SMILES>
Oc(c(ccc1C)C)c1

> <STRUCTURE_InChIS>
InChI=1S/C8H10O/c1-6-3-4-7(2)8(9)5-6/h3-5,9H,1-2H3

> <STRUCTURE_InChIKey>
NKTOLZVEWDHZMU-UHFFFAOYSA-N

> <Substance_modify_yyyymmdd>
20080429

> <Coord_Metals>
0

> <Index>
492

> <Canonical_Smiles>
Cc1ccc(C)c(O)c1

> <Molecular_Weight>
122.1644

> <Frequency>
1

$$$$

  SciTegic          2D

 20 19  0  0  0  0            999 V2000
    3.9000    0.7500    0.0000 C   0  0
    3.9000    1.9500    0.0000 O   0  0
    2.6000    0.0000    0.0000 O   0  0
    1.3000    0.7500    0.0000 C   0  0
    5.2000    0.0000    0.0000 C   0  0
    6.5000    0.7500    0.0000 C   0  0
    7.7999    0.0000    0.0000 C   0  0
    7.7999   -1.2000    0.0000 O   0  0
    9.0999    0.7500    0.0000 O   0  0
   10.3999    0.0000    0.0000 C   0  0
    0.4338    0.2503    0.0000 H   0  0
    1.3000    1.7500    0.0000 H   0  0
    0.4340    1.2501    0.0000 H   0  0
    5.2000   -1.0000    0.0000 H   0  0
    4.3340   -0.5001    0.0000 H   0  0
    6.5000    1.7500    0.0000 H   0  0
    7.3659    1.2501    0.0000 H   0  0
   11.2661    0.4997    0.0000 H   0  0
   10.3999   -1.0000    0.0000 H   0  0
   11.2659   -0.5001    0.0000 H   0  0
  1  2  2  0
  1  3  1  0
  1  5  1  0
  3  4  1  0
  5  6  1  0
  6  7  1  0
  7  8  2  0
  7  9  1  0
  9 10  1  0
  4 11  1  0
  4 12  1  0
  4 13  1  0
  5 14  1  0
  5 15  1  0
  6 16  1  0
  6 17  1  0
 10 18  1  0
 10 19  1  0
 10 20  1  0
V    1 0
V    2 1
V    3 2
V    4 3
V    5 4
V    6 5
V    7 6
V    8 7
V    9 8
V   10 9
M  END
> <DSSTox_RID>
65919

> <DSSTox_CID>
5152

> <DSSTox_CID_Parent>
5152

> <DSSTox_Generic_SID>
25152

> <DSSTox_FileID>
493_TXCST2_v1a

> <STRUCTURE_Formula>
C6H10O4

> <STRUCTURE_MolecularWeight>
146.1412

> <STRUCTURE_ChemicalType>
defined organic

> <STRUCTURE_TestedForm_DefinedOrganic>
parent

> <STRUCTURE_Shown>
tested chemical

> <TestSubstance_ChemicalName>
Dimethyl succinate

> <TestSubstance_CASRN>
106-65-0

> <TestSubstance_Description>
single chemical compound

> <STRUCTURE_ChemicalName_IUPAC>
dimethyl succinate

> <STRUCTURE_SMILES>
C(=O)(OC)CCC(=O)OC

> <STRUCTURE_Parent_SMILES>
C(=O)(OC)CCC(=O)OC

> <STRUCTURE_InChIS>
InChI=1S/C6H10O4/c1-9-5(7)3-4-6(8)10-2/h3-4H2,1-2H3

> <STRUCTURE_InChIKey>
MUXOBHXGJLMRAB-UHFFFAOYSA-N

> <Substance_modify_yyyymmdd>
20080429

> <Coord_Metals>
0

> <Index>
493

> <Canonical_Smiles>
COC(=O)CCC(=O)OC

> <Molecular_Weight>
146.14119

> <Frequency>
1

$$$$

  SciTegic          2D

 29 30  0  0  0  0            999 V2000
    1.2956   -3.7547    0.0000 N   0  0
    2.5951   -3.0039    0.0000 C   0  0
    2.5973   -1.5031    0.0000 N   0  0
    1.2990   -0.7500    0.0000 C   0  0
    1.2990    0.7500    0.0000 C   0  0
    0.0000    1.5000    0.0000 C   0  0
   -1.2990    0.7500    0.0000 C   0  0
   -1.2990   -0.7500    0.0000 C   0  0
    0.0000   -1.5000    0.0000 C   0  0
    3.8933   -3.7570    0.0000 N   0  0
    3.8912   -5.2578    0.0000 C   0  0
    5.1876   -6.0124    0.0000 C   0  0
    5.1824   -7.5124    0.0000 C   0  0
    3.8808   -8.2579    0.0000 C   0  0
    2.5844   -7.5034    0.0000 C   0  0
    2.5895   -6.0034    0.0000 C   0  0
    1.2953   -4.7547    0.0000 H   0  0
    3.4642   -1.0046    0.0000 H   0  0
    2.1651    1.2500    0.0000 H   0  0
    0.0000    2.5000    0.0000 H   0  0
   -2.1651    1.2500    0.0000 H   0  0
   -2.1651   -1.2500    0.0000 H   0  0
    0.0000   -2.5000    0.0000 H   0  0
    4.7602   -3.2585    0.0000 H   0  0
    6.0554   -5.5154    0.0000 H   0  0
    6.0467   -8.0154    0.0000 H   0  0
    3.8773   -9.2579    0.0000 H   0  0
    1.7166   -8.0004    0.0000 H   0  0
    1.7252   -5.5004    0.0000 H   0  0
  1  2  2  0
  2  3  1  0
  2 10  1  0
  3  4  1  0
  4  5  2  0
  4  9  1  0
  5  6  1  0
  6  7  2  0
  7  8  1  0
  8  9  2  0
 10 11  1  0
 11 12  2  0
 11 16  1  0
 12 13  1  0
 13 14  2  0
 14 15  1  0
 15 16  2  0
  1 17  1  0
  3 18  1  0
  5 19  1  0
  6 20  1  0
  7 21  1  0
  8 22  1  0
  9 23  1  0
 10 24  1  0
 12 25  1  0
 13 26  1  0
 14 27  1  0
 15 28  1  0
 16 29  1  0
V    1 0
V    2 1
V    3 2
V    4 3
V    5 4
V    6 5
V    7 6
V    8 7
V    9 8
V   10 9
V   11 10
V   12 11
V   13 12
V   14 13
V   15 14
V   16 15
M  END
> <DSSTox_RID>
66585

> <DSSTox_CID>
5178

> <DSSTox_CID_Parent>
5178

> <DSSTox_Generic_SID>
25178

> <DSSTox_FileID>
494_TXCST2_v1a

> <STRUCTURE_Formula>
C13H13N3

> <STRUCTURE_MolecularWeight>
211.2624

> <STRUCTURE_ChemicalType>
defined organic

> <STRUCTURE_TestedForm_DefinedOrganic>
parent

> <STRUCTURE_Shown>
tested chemical

> <TestSubstance_ChemicalName>
1,3-Diphenylguanidine

> <TestSubstance_CASRN>
102-06-7

> <TestSubstance_Description>
single chemical compound

> <STRUCTURE_ChemicalName_IUPAC>
N,N'-diphenylguanidine

> <STRUCTURE_SMILES>
N=C(Nc(cccc1)c1)Nc(cccc2)c2

> <STRUCTURE_Parent_SMILES>
N=C(Nc(cccc1)c1)Nc(cccc2)c2

> <STRUCTURE_InChIS>
InChI=1S/C13H13N3/c14-13(15-11-7-3-1-4-8-11)16-12-9-5-2-6-10-12/h1-10H,(H3,14,15,16)

> <STRUCTURE_InChIKey>
OWRCNXZUPFZXOS-UHFFFAOYSA-N

> <Substance_modify_yyyymmdd>
20080429

> <Coord_Metals>
0

> <Index>
494

> <Canonical_Smiles>
N=C(Nc1ccccc1)Nc2ccccc2

> <Molecular_Weight>
211.26241

> <Frequency>
1

$$$$

  SciTegic          2D

 52 52  0  0  0  0            999 V2000
    6.4964  -12.7603    0.0000 C   0  0
   -1.3013   -5.2516    0.0000 C   0  0
    5.1971  -12.0091    0.0000 C   0  0
   -1.2999   -3.7508    0.0000 C   0  0
    5.1971  -10.5082    0.0000 C   0  0
    3.8979   -9.7570    0.0000 C   0  0
    3.8978   -8.2562    0.0000 C   0  0
    2.5986   -7.5049    0.0000 C   0  0
    2.5986   -6.0041    0.0000 C   0  0
    1.2993   -5.2529    0.0000 C   0  0
    1.2993   -3.7521    0.0000 C   0  0
    1.2990   -0.7500    0.0000 C   0  0
   -1.2990   -0.7500    0.0000 C   0  0
    1.2990    0.7500    0.0000 C   0  0
   -1.2990    0.7500    0.0000 C   0  0
    0.0000   -3.0008    0.0000 C   0  0
    0.0000   -1.5000    0.0000 C   0  0
    0.0000    1.5000    0.0000 C   0  0
    1.2993    3.7521    0.0000 O   0  0
   -1.0394    3.6005    0.0000 O   0  0
   -0.0006    4.2008    0.0000 O   0  0
    0.0000    3.0008    0.0000 S   0  0
    6.4964  -13.7603    0.0000 H   0  0
    7.3624  -13.2604    0.0000 H   0  0
    7.3626  -12.2606    0.0000 H   0  0
   -2.1675   -5.7513    0.0000 H   0  0
   -1.3018   -6.2516    0.0000 H   0  0
   -0.4356   -5.7522    0.0000 H   0  0
    4.3312  -11.5089    0.0000 H   0  0
    4.3310  -12.5088    0.0000 H   0  0
   -2.1663   -4.2501    0.0000 H   0  0
   -2.1656   -3.2502    0.0000 H   0  0
    5.1976   -9.5082    0.0000 H   0  0
    6.0633  -10.0085    0.0000 H   0  0
    3.0319   -9.2569    0.0000 H   0  0
    3.0317  -10.2567    0.0000 H   0  0
    3.8983   -7.2562    0.0000 H   0  0
    4.7640   -7.7564    0.0000 H   0  0
    1.7326   -7.0048    0.0000 H   0  0
    1.7324   -8.0047    0.0000 H   0  0
    2.5990   -5.0041    0.0000 H   0  0
    3.4648   -5.5044    0.0000 H   0  0
    0.4333   -4.7527    0.0000 H   0  0
    0.4331   -5.7526    0.0000 H   0  0
    1.2998   -2.7521    0.0000 H   0  0
    2.1655   -3.2523    0.0000 H   0  0
    2.1651   -1.2500    0.0000 H   0  0
   -2.1651   -1.2500    0.0000 H   0  0
    2.1651    1.2500    0.0000 H   0  0
   -2.1651    1.2500    0.0000 H   0  0
    0.8662   -2.5011    0.0000 H   0  0
    1.2993    4.7521    0.0000 H   0  0
  1  3  1  0
  2  4  1  0
  3  5  1  0
  4 16  1  0
  5  6  1  0
  6  7  1  0
  7  8  1  0
  8  9  1  0
  9 10  1  0
 10 11  1  0
 11 16  1  0
 12 14  1  0
 12 17  2  0
 13 15  2  0
 13 17  1  0
 14 18  2  0
 15 18  1  0
 16 17  1  0
 18 22  1  0
 19 22  1  0
 20 22  2  0
 21 22  2  0
  1 23  1  0
  1 24  1  0
  1 25  1  0
  2 26  1  0
  2 27  1  0
  2 28  1  0
  3 29  1  0
  3 30  1  0
  4 31  1  0
  4 32  1  0
  5 33  1  0
  5 34  1  0
  6 35  1  0
  6 36  1  0
  7 37  1  0
  7 38  1  0
  8 39  1  0
  8 40  1  0
  9 41  1  0
  9 42  1  0
 10 43  1  0
 10 44  1  0
 11 45  1  0
 11 46  1  0
 12 47  1  0
 13 48  1  0
 14 49  1  0
 15 50  1  0
 16 51  1  0
 19 52  1  0
V    1 0
V    2 1
V    3 2
V    4 3
V    5 4
V    6 5
V    7 6
V    8 7
V    9 8
V   10 9
V   11 10
V   12 11
V   13 12
V   14 13
V   15 14
V   16 15
V   17 16
V   18 17
V   19 18
V   20 19
V   21 20
V   22 21
M  END
> <DSSTox_RID>
66966
65822
61693

> <DSSTox_CID>
5219
7923
7932

> <DSSTox_Generic_SID>
25219
27923
27932

> <DSSTox_FileID>
495_TXCST2_v1a
588_TXCST2_v1a
590_TXCST2_v1a

> <STRUCTURE_Formula>
C18H29NaO3S
C18H30O3S
C24H45NO6S

> <STRUCTURE_MolecularWeight>
348.4758
326.494
475.6822

> <STRUCTURE_ChemicalType>
defined organic
defined organic
defined organic

> <STRUCTURE_TestedForm_DefinedOrganic>
salt Na
parent
complex triethanolamine (C6H15NO3)

> <STRUCTURE_Shown>
representative component in mixture
representative component in mixture
representative component in mixture

> <TestSubstance_ChemicalName>
Dodecylbenzenesulfonic acid, Na salt
4-Dodecylbenzenesulfonic acid
Benzenesulfonic acid, dodecyl-, compd. with 2,2',2''-nitrilotris[ethanol] (1:1)

> <TestSubstance_CASRN>
25155-30-0
27176-87-0
27323-41-7

> <TestSubstance_Description>
mixture or formulation
mixture or formulation
mixture or formulation

> <ChemicalNote>
mixture of benzenesulfonates; benzene sulfonated at C4 and dodecyl chain attached at any position except terminal carbons; structure shown attached at C3; parent [27176-87-0]
mixture of benzenesulfonic acids; benzene sulfonated at C4 and dodecyl chain attached at any position except terminal carbons; structure shown attached at C3
mixture of benzenesulfonic acid complexes; benzene sulfonated at C4 and dodecyl chain attached at any position except terminal carbons; structure shown attached at C3

> <STRUCTURE_ChemicalName_IUPAC>
sodium 4-(1-ethyldecyl)benzenesulfonate
4-(1-ethyldecyl)benzenesulfonic acid
4-(1-ethyldecyl)benzenesulfonic acid - 2,2',2''-nitrilotriethanol (1:1)

> <STRUCTURE_SMILES>
O=S(C1=CC=C(C(CCCCCCCCC)CC)C=C1)([O-])=O.[Na+]
O=S(C1=CC=C(C(CCCCCCCCC)CC)C=C1)(O)=O
O=S(C1=CC=C(C(CCCCCCCCC)CC)C=C1)(O)=O.OCCN(CCO)CCO

> <STRUCTURE_Parent_SMILES>
O=S(C1=CC=C(C(CCCCCCCCC)CC)C=C1)(O)=O
O=S(C1=CC=C(C(CCCCCCCCC)CC)C=C1)(O)=O
O=S(C1=CC=C(C(CCCCCCCCC)CC)C=C1)(O)=O

> <STRUCTURE_InChIS>
InChI=1S/C18H30O3S.Na/c1-3-5-6-7-8-9-10-11-16(4-2)17-12-14-18(15-13-17)22(19,20)21;/h12-16H,3-11H2,1-2H3,(H,19,20,21);/q;+1/p-1
InChI=1S/C18H30O3S/c1-3-5-6-7-8-9-10-11-16(4-2)17-12-14-18(15-13-17)22(19,20)21/h12-16H,3-11H2,1-2H3,(H,19,20,21)
InChI=1S/C18H30O3S.C6H15NO3/c1-3-5-6-7-8-9-10-11-16(4-2)17-12-14-18(15-13-17)22(19,20)21;8-4-1-7(2-5-9)3-6-10/h12-16H,3-11H2,1-2H3,(H,19,20,21);8-10H,1-6H2

> <STRUCTURE_InChIKey>
HOXWFOVSCUWIEH-UHFFFAOYSA-M
QJRVOJKLQNSNDB-UHFFFAOYSA-N
DBNIPVLIXGKUHK-UHFFFAOYSA-N

> <Substance_modify_yyyymmdd>
20080429
20080429
20080429

> <Coord_Metals>
0
0
0

> <Index>
495
588
590

> <Canonical_Smiles>
CCCCCCCCCC(CC)c1ccc(cc1)S(=O)(=O)O

> <Molecular_Weight>
326.494
326.494
326.494

> <DSSTox_CID_Parent>
7923
7923

> <Source_ChemicalNote>
tested chemical was a complex mixture

> <Frequency>
3

$$$$

  SciTegic          2D

 20 20  0  0  0  0            999 V2000
    2.5973   -1.5031    0.0000 N   0  0
    1.2990   -0.7500    0.0000 C   0  0
    1.2990    0.7500    0.0000 C   0  0
    0.0000    1.5000    0.0000 C   0  0
   -1.2990    0.7500    0.0000 C   0  0
   -1.2990   -0.7500    0.0000 C   0  0
    0.0000   -1.5000    0.0000 C   0  0
    2.5951   -3.0039    0.0000 C   0  0
    3.8933   -3.7570    0.0000 C   0  0
    3.4642   -1.0046    0.0000 H   0  0
    2.1651    1.2500    0.0000 H   0  0
    0.0000    2.5000    0.0000 H   0  0
   -2.1651    1.2500    0.0000 H   0  0
   -2.1651   -1.2500    0.0000 H   0  0
    0.0000   -2.5000    0.0000 H   0  0
    1.7299   -2.5025    0.0000 H   0  0
    1.7282   -3.5024    0.0000 H   0  0
    3.8919   -4.7570    0.0000 H   0  0
    4.7586   -4.2584    0.0000 H   0  0
    4.7602   -3.2585    0.0000 H   0  0
  1  2  1  0
  1  8  1  0
  2  3  2  0
  2  7  1  0
  3  4  1  0
  4  5  2  0
  5  6  1  0
  6  7  2  0
  8  9  1  0
  1 10  1  0
  3 11  1  0
  4 12  1  0
  5 13  1  0
  6 14  1  0
  7 15  1  0
  8 16  1  0
  8 17  1  0
  9 18  1  0
  9 19  1  0
  9 20  1  0
V    1 0
V    2 1
V    3 2
V    4 3
V    5 4
V    6 5
V    7 6
V    8 7
V    9 8
M  END
> <DSSTox_RID>
59585

> <DSSTox_CID>
5271

> <DSSTox_CID_Parent>
5271

> <DSSTox_Generic_SID>
25271

> <DSSTox_FileID>
496_TXCST2_v1a

> <STRUCTURE_Formula>
C8H11N

> <STRUCTURE_MolecularWeight>
121.1796

> <STRUCTURE_ChemicalType>
defined organic

> <STRUCTURE_TestedForm_DefinedOrganic>
parent

> <STRUCTURE_Shown>
tested chemical

> <TestSubstance_ChemicalName>
N-Ethyl aniline

> <TestSubstance_CASRN>
103-69-5

> <TestSubstance_Description>
single chemical compound

> <STRUCTURE_ChemicalName_IUPAC>
N-ethylaniline

> <STRUCTURE_SMILES>
N(c(cccc1)c1)CC

> <STRUCTURE_Parent_SMILES>
N(c(cccc1)c1)CC

> <STRUCTURE_InChIS>
InChI=1S/C8H11N/c1-2-9-8-6-4-3-5-7-8/h3-7,9H,2H2,1H3

> <STRUCTURE_InChIKey>
OJGMBLNIHDZDGS-UHFFFAOYSA-N

> <Substance_modify_yyyymmdd>
20080429

> <Coord_Metals>
0

> <Index>
496

> <Canonical_Smiles>
CCNc1ccccc1

> <Molecular_Weight>
121.17964

> <Frequency>
1

$$$$

  SciTegic          2D

 26 25  0  0  0  0            999 V2000
    2.0798   -0.4498    0.0000 O   0  0
    2.4219    0.4899    0.0000 C   0  0
    1.4568    1.6392    0.0000 O   0  0
    3.9000    0.7500    0.0000 C   0  0
    5.2000    0.0000    0.0000 C   0  0
    6.5000    0.7500    0.0000 C   0  0
    7.7999    0.0000    0.0000 C   0  0
    9.0999    0.7500    0.0000 C   0  0
    3.8971   -0.7800    0.0000 C   0  0
    5.1950   -1.5336    0.0000 C   0  0
    0.4719    1.4659    0.0000 H   0  0
    3.9000    1.7500    0.0000 H   0  0
    4.3340   -0.5001    0.0000 H   0  0
    5.2000   -1.0000    0.0000 H   0  0
    5.6340    1.2501    0.0000 H   0  0
    6.5000    1.7500    0.0000 H   0  0
    6.9340   -0.5001    0.0000 H   0  0
    7.7999   -1.0000    0.0000 H   0  0
    9.9661    0.2503    0.0000 H   0  0
    9.9659    1.2501    0.0000 H   0  0
    9.0999    1.7500    0.0000 H   0  0
    3.0321   -0.2782    0.0000 H   0  0
    3.0300   -1.2781    0.0000 H   0  0
    5.1932   -2.5336    0.0000 H   0  0
    6.0601   -2.0353    0.0000 H   0  0
    6.0621   -1.0354    0.0000 H   0  0
  1  2  2  0
  2  3  1  0
  2  4  1  0
  4  5  1  0
  4  9  1  0
  5  6  1  0
  6  7  1  0
  7  8  1  0
  9 10  1  0
  3 11  1  0
  4 12  1  0
  5 13  1  0
  5 14  1  0
  6 15  1  0
  6 16  1  0
  7 17  1  0
  7 18  1  0
  8 19  1  0
  8 20  1  0
  8 21  1  0
  9 22  1  0
  9 23  1  0
 10 24  1  0
 10 25  1  0
 10 26  1  0
V    1 0
V    2 1
V    3 2
V    4 3
V    5 4
V    6 5
V    7 6
V    8 7
V    9 8
V   10 9
M  END
> <DSSTox_RID>
65535

> <DSSTox_CID>
5293

> <DSSTox_CID_Parent>
5293

> <DSSTox_Generic_SID>
25293

> <DSSTox_FileID>
497_TXCST2_v1a

> <STRUCTURE_Formula>
C8H16O2

> <STRUCTURE_MolecularWeight>
144.2114

> <STRUCTURE_ChemicalType>
defined organic

> <STRUCTURE_TestedForm_DefinedOrganic>
parent

> <STRUCTURE_Shown>
tested chemical

> <TestSubstance_ChemicalName>
2-Ethylhexanoic acid

> <TestSubstance_CASRN>
149-57-5

> <TestSubstance_Description>
single chemical compound

> <Source_ChemicalNote>
tested chemical contained 0.0178% water

> <STRUCTURE_ChemicalName_IUPAC>
2-ethylhexanoic acid

> <STRUCTURE_SMILES>
O=C(O)C(CCCC)CC

> <STRUCTURE_Parent_SMILES>
O=C(O)C(CCCC)CC

> <STRUCTURE_InChIS>
InChI=1S/C8H16O2/c1-3-5-6-7(4-2)8(9)10/h7H,3-6H2,1-2H3,(H,9,10)

> <STRUCTURE_InChIKey>
OBETXYAYXDNJHR-UHFFFAOYSA-N

> <Substance_modify_yyyymmdd>
20080429

> <Coord_Metals>
0

> <Index>
497

> <Canonical_Smiles>
CCCCC(CC)C(=O)O

> <Molecular_Weight>
144.21143

> <Frequency>
1

$$$$

  SciTegic          2D

  9  8  0  0  0  0            999 V2000
    2.6000    0.0000    0.0000 C   0  0
    1.3000    0.7500    0.0000 N   0  0
    2.6000   -1.2000    0.0000 O   0  0
    3.9000    0.7500    0.0000 N   0  0
    5.2000    0.0000    0.0000 O   0  0
    0.4338    0.2503    0.0000 H   0  0
    1.3000    1.7500    0.0000 H   0  0
    3.9000    1.7500    0.0000 H   0  0
    6.0661    0.4997    0.0000 H   0  0
  1  2  1  0
  1  3  2  0
  1  4  1  0
  4  5  1  0
  2  6  1  0
  2  7  1  0
  4  8  1  0
  5  9  1  0
V    1 0
V    2 1
V    3 2
V    4 3
V    5 4
M  END
> <DSSTox_RID>
60021

> <DSSTox_CID>
5438

> <DSSTox_CID_Parent>
5438

> <DSSTox_Generic_SID>
25438

> <DSSTox_FileID>
498_TXCST2_v1a

> <STRUCTURE_Formula>
CH4N2O2

> <STRUCTURE_MolecularWeight>
76.0547

> <STRUCTURE_ChemicalType>
defined organic

> <STRUCTURE_TestedForm_DefinedOrganic>
parent

> <STRUCTURE_Shown>
tested chemical

> <TestSubstance_ChemicalName>
Hydroxyurea (HU)

> <TestSubstance_CASRN>
127-07-1

> <TestSubstance_Description>
single chemical compound

> <STRUCTURE_ChemicalName_IUPAC>
N-hydroxyurea

> <STRUCTURE_SMILES>
C(N)(=O)NO

> <STRUCTURE_Parent_SMILES>
C(N)(=O)NO

> <STRUCTURE_InChIS>
InChI=1S/CH4N2O2/c2-1(4)3-5/h5H,(H3,2,3,4)

> <STRUCTURE_InChIKey>
VSNHCAURESNICA-UHFFFAOYSA-N

> <Substance_modify_yyyymmdd>
20080429

> <Coord_Metals>
0

> <Index>
498

> <Canonical_Smiles>
NC(=O)NO

> <Molecular_Weight>
76.05466

> <Frequency>
1

$$$$

  SciTegic          2D

 23 22  0  0  0  0            999 V2000
    5.2000    0.0000    0.0000 C   0  0
    3.9000    0.7500    0.0000 C   0  0
    2.6000    0.0000    0.0000 C   0  0
    1.3000    0.7500    0.0000 C   0  0
    2.6000   -1.5007    0.0000 C   0  0
    6.5000    0.7500    0.0000 O   0  0
    7.7999    0.0000    0.0000 C   0  0
    9.0999    0.7500    0.0000 C   0  0
    7.7999   -1.2000    0.0000 O   0  0
    5.2000   -1.0000    0.0000 H   0  0
    6.0659   -0.5001    0.0000 H   0  0
    3.9000    1.7500    0.0000 H   0  0
    3.0340    1.2501    0.0000 H   0  0
    2.6000    1.0000    0.0000 H   0  0
    0.4338    0.2503    0.0000 H   0  0
    0.4340    1.2501    0.0000 H   0  0
    1.3000    1.7500    0.0000 H   0  0
    1.7343   -2.0013    0.0000 H   0  0
    2.6005   -2.5007    0.0000 H   0  0
    3.4662   -2.0005    0.0000 H   0  0
    9.9661    0.2503    0.0000 H   0  0
    9.9659    1.2501    0.0000 H   0  0
    9.0999    1.7500    0.0000 H   0  0
  1  2  1  0
  1  6  1  0
  2  3  1  0
  3  4  1  0
  3  5  1  0
  6  7  1  0
  7  8  1  0
  7  9  2  0
  1 10  1  0
  1 11  1  0
  2 12  1  0
  2 13  1  0
  3 14  1  0
  4 15  1  0
  4 16  1  0
  4 17  1  0
  5 18  1  0
  5 19  1  0
  5 20  1  0
  8 21  1  0
  8 22  1  0
  8 23  1  0
V    1 0
V    2 1
V    3 2
V    4 3
V    5 4
V    6 5
V    7 6
V    8 7
V    9 8
M  END
> <DSSTox_RID>
61657

> <DSSTox_CID>
5453

> <DSSTox_CID_Parent>
5453

> <DSSTox_Generic_SID>
25453

> <DSSTox_FileID>
499_TXCST2_v1a

> <STRUCTURE_Formula>
C7H14O2

> <STRUCTURE_MolecularWeight>
130.1849

> <STRUCTURE_ChemicalType>
defined organic

> <STRUCTURE_TestedForm_DefinedOrganic>
parent

> <STRUCTURE_Shown>
tested chemical

> <TestSubstance_ChemicalName>
3-Methylbutyl acetate

> <TestSubstance_CASRN>
123-92-2

> <TestSubstance_Description>
single chemical compound

> <STRUCTURE_ChemicalName_IUPAC>
3-methylbutyl acetate

> <STRUCTURE_SMILES>
C(CC(C)C)OC(C)=O

> <STRUCTURE_Parent_SMILES>
C(CC(C)C)OC(C)=O

> <STRUCTURE_InChIS>
InChI=1S/C7H14O2/c1-6(2)4-5-9-7(3)8/h6H,4-5H2,1-3H3

> <STRUCTURE_InChIKey>
MLFHJEHSLIIPHL-UHFFFAOYSA-N

> <Substance_modify_yyyymmdd>
20080429

> <Coord_Metals>
0

> <Index>
499

> <Canonical_Smiles>
CC(C)CCOC(=O)C

> <Molecular_Weight>
130.18486

> <Frequency>
1

$$$$

  SciTegic          2D

 32 32  0  0  0  0            999 V2000
    7.1496   -3.6797    0.0000 C   0  0
    6.1848   -2.5300    0.0000 C   0  0
    6.6986   -1.1199    0.0000 C   0  0
    4.7067   -2.7897    0.0000 N   0  0
    3.7419   -1.6400    0.0000 C   0  0
    2.2638   -1.8997    0.0000 C   0  0
    2.7848   -0.4612    0.0000 O   0  0
    1.2990   -0.7500    0.0000 C   0  0
    1.2990    0.7500    0.0000 C   0  0
    0.0000    1.5000    0.0000 C   0  0
   -1.2990    0.7500    0.0000 C   0  0
   -2.6003    1.4977    0.0000 O   0  0
   -1.2990   -0.7500    0.0000 C   0  0
    0.0000   -1.5000    0.0000 C   0  0
   -0.0031    3.0008    0.0000 O   0  0
    8.1345   -3.5067    0.0000 H   0  0
    6.8072   -4.6193    0.0000 H   0  0
    7.7920   -4.4461    0.0000 H   0  0
    5.8425   -3.4696    0.0000 H   0  0
    6.0565   -0.3533    0.0000 H   0  0
    7.0413   -0.1805    0.0000 H   0  0
    7.6835   -0.9469    0.0000 H   0  0
    4.3643   -3.7293    0.0000 H   0  0
    4.0843   -0.7004    0.0000 H   0  0
    4.7268   -1.4665    0.0000 H   0  0
    1.9214   -2.8393    0.0000 H   0  0
    2.1413    0.3042    0.0000 H   0  0
    2.1651    1.2500    0.0000 H   0  0
   -3.4657    0.9965    0.0000 H   0  0
   -2.1651   -1.2500    0.0000 H   0  0
    0.0000   -2.5000    0.0000 H   0  0
   -0.8698    3.4996    0.0000 H   0  0
  1  2  1  0
  2  3  1  0
  2  4  1  0
  4  5  1  0
  5  6  1  0
  6  7  1  0
  6  8  1  0
  8  9  2  0
  8 14  1  0
  9 10  1  0
 10 11  2  0
 10 15  1  0
 11 12  1  0
 11 13  1  0
 13 14  2  0
  1 16  1  0
  1 17  1  0
  1 18  1  0
  2 19  1  0
  3 20  1  0
  3 21  1  0
  3 22  1  0
  4 23  1  0
  5 24  1  0
  5 25  1  0
  6 26  1  0
  7 27  1  0
  9 28  1  0
 12 29  1  0
 13 30  1  0
 14 31  1  0
 15 32  1  0
V    1 0
V    2 1
V    3 2
V    4 3
V    5 4
V    6 5
V    7 6
V    8 7
V    9 8
V   10 9
V   11 10
V   12 11
V   13 12
V   14 13
V   15 14
M  END
> <DSSTox_RID>
60056

> <DSSTox_CID>
5486

> <DSSTox_CID_Parent>
3175

> <DSSTox_Generic_SID>
25486

> <DSSTox_FileID>
500_TXCST2_v1a

> <STRUCTURE_Formula>
C11H18ClNO3

> <STRUCTURE_MolecularWeight>
247.7185

> <STRUCTURE_ChemicalType>
defined organic

> <STRUCTURE_TestedForm_DefinedOrganic>
complex HCl

> <STRUCTURE_Shown>
tested chemical

> <TestSubstance_ChemicalName>
Isoproterenol hydrochloride

> <TestSubstance_CASRN>
51-30-9

> <TestSubstance_Description>
single chemical compound

> <ChemicalNote>
parent [7683-59-2]

> <STRUCTURE_ChemicalName_IUPAC>
4-[1-hydroxy-2-(isopropylamino)ethyl]benzene-1,2-diol hydrochloride

> <STRUCTURE_SMILES>
OC(C1=CC(O)=C(C=C1)O)CNC(C)C.Cl

> <STRUCTURE_Parent_SMILES>
OC(C1=CC(O)=C(C=C1)O)CNC(C)C

> <STRUCTURE_InChIS>
InChI=1S/C11H17NO3.ClH/c1-7(2)12-6-11(15)8-3-4-9(13)10(14)5-8;/h3-5,7,11-15H,6H2,1-2H3;1H

> <STRUCTURE_InChIKey>
IROWCYIEJAOFOW-UHFFFAOYSA-N

> <Substance_modify_yyyymmdd>
20080429

> <Coord_Metals>
0

> <Index>
500

> <Canonical_Smiles>
CC(C)NCC(O)c1ccc(O)c(O)c1

> <Molecular_Weight>
211.25757

> <Frequency>
1

$$$$

  SciTegic          2D

 15 15  0  0  0  0            999 V2000
    1.2990   -0.7500    0.0000 O   0  0
    1.2990    0.7500    0.0000 C   0  0
    2.5988    1.5004    0.0000 C   0  0
    0.0000    1.5000    0.0000 C   0  0
   -0.0031    3.0008    0.0000 O   0  0
   -1.2990    0.7500    0.0000 C   0  0
   -2.3383    1.3500    0.0000 O   0  0
   -1.2990   -0.7500    0.0000 C   0  0
    0.0000   -1.5000    0.0000 C   0  0
    3.4651    1.0010    0.0000 H   0  0
    2.5985    2.5004    0.0000 H   0  0
    3.4646    2.0008    0.0000 H   0  0
   -0.8698    3.4996    0.0000 H   0  0
   -2.1651   -1.2500    0.0000 H   0  0
    0.0000   -2.5000    0.0000 H   0  0
  1  2  1  0
  1  9  1  0
  2  3  1  0
  2  4  2  0
  4  5  1  0
  4  6  1  0
  6  7  2  0
  6  8  1  0
  8  9  2  0
  3 10  1  0
  3 11  1  0
  3 12  1  0
  5 13  1  0
  8 14  1  0
  9 15  1  0
V    1 0
V    2 1
V    3 2
V    4 3
V    5 4
V    6 5
V    7 6
V    8 7
V    9 8
M  END
> <DSSTox_RID>
60080

> <DSSTox_CID>
5523

> <DSSTox_CID_Parent>
5523

> <DSSTox_Generic_SID>
25523

> <DSSTox_FileID>
501_TXCST2_v1a

> <STRUCTURE_Formula>
C6H6O3

> <STRUCTURE_MolecularWeight>
126.11

> <STRUCTURE_ChemicalType>
defined organic

> <STRUCTURE_TestedForm_DefinedOrganic>
parent

> <STRUCTURE_Shown>
tested chemical

> <TestSubstance_ChemicalName>
Maltol

> <TestSubstance_CASRN>
118-71-8

> <TestSubstance_Description>
single chemical compound

> <STRUCTURE_ChemicalName_IUPAC>
3-hydroxy-2-methyl-4H-pyran-4-one

> <STRUCTURE_SMILES>
O1C(C)=C(O)C(=O)C=C1

> <STRUCTURE_Parent_SMILES>
O1C(C)=C(O)C(=O)C=C1

> <STRUCTURE_InChIS>
InChI=1S/C6H6O3/c1-4-6(8)5(7)2-3-9-4/h2-3,8H,1H3

> <STRUCTURE_InChIKey>
XPCTZQVDEJYUGT-UHFFFAOYSA-N

> <Substance_modify_yyyymmdd>
20080429

> <Coord_Metals>
0

> <Index>
501

> <Canonical_Smiles>
CC1=C(O)C(=O)C=CO1

> <Molecular_Weight>
126.11004

> <Frequency>
1

$$$$

  SciTegic          2D

 20 20  0  0  0  0            999 V2000
    3.6375   -0.9049    0.0000 O   0  0
    2.5973   -1.5031    0.0000 C   0  0
    2.5951   -3.0039    0.0000 O   0  0
    3.8933   -3.7570    0.0000 C   0  0
    1.2990   -0.7500    0.0000 C   0  0
    1.2990    0.7500    0.0000 C   0  0
    2.5972    1.5031    0.0000 N   0  0
    0.0000    1.5000    0.0000 C   0  0
   -1.2990    0.7500    0.0000 C   0  0
   -1.2990   -0.7500    0.0000 C   0  0
    0.0000   -1.5000    0.0000 C   0  0
    3.8919   -4.7570    0.0000 H   0  0
    4.7586   -4.2584    0.0000 H   0  0
    4.7602   -3.2585    0.0000 H   0  0
    2.5958    2.5031    0.0000 H   0  0
    3.4641    1.0046    0.0000 H   0  0
    0.0000    2.5000    0.0000 H   0  0
   -2.1651    1.2500    0.0000 H   0  0
   -2.1651   -1.2500    0.0000 H   0  0
    0.0000   -2.5000    0.0000 H   0  0
  1  2  2  0
  2  3  1  0
  2  5  1  0
  3  4  1  0
  5  6  2  0
  5 11  1  0
  6  7  1  0
  6  8  1  0
  8  9  2  0
  9 10  1  0
 10 11  2  0
  4 12  1  0
  4 13  1  0
  4 14  1  0
  7 15  1  0
  7 16  1  0
  8 17  1  0
  9 18  1  0
 10 19  1  0
 11 20  1  0
V    1 0
V    2 1
V    3 2
V    4 3
V    5 4
V    6 5
V    7 6
V    8 7
V    9 8
V   10 9
V   11 10
M  END
> <DSSTox_RID>
65628

> <DSSTox_CID>
5567

> <DSSTox_CID_Parent>
5567

> <DSSTox_Generic_SID>
25567

> <DSSTox_FileID>
502_TXCST2_v1a

> <STRUCTURE_Formula>
C8H9NO2

> <STRUCTURE_MolecularWeight>
151.1626

> <STRUCTURE_ChemicalType>
defined organic

> <STRUCTURE_TestedForm_DefinedOrganic>
parent

> <STRUCTURE_Shown>
tested chemical

> <TestSubstance_ChemicalName>
Methyl 2-aminobenzoate

> <TestSubstance_CASRN>
134-20-3

> <TestSubstance_Description>
single chemical compound

> <STRUCTURE_ChemicalName_IUPAC>
methyl 2-aminobenzoate

> <STRUCTURE_SMILES>
O=C(OC)c(c(N)ccc1)c1

> <STRUCTURE_Parent_SMILES>
O=C(OC)c(c(N)ccc1)c1

> <STRUCTURE_InChIS>
InChI=1S/C8H9NO2/c1-11-8(10)6-4-2-3-5-7(6)9/h2-5H,9H2,1H3

> <STRUCTURE_InChIKey>
VAMXMNNIEUEQDV-UHFFFAOYSA-N

> <Substance_modify_yyyymmdd>
20080429

> <Coord_Metals>
0

> <Index>
502

> <Canonical_Smiles>
COC(=O)c1ccccc1N

> <Molecular_Weight>
151.16255

> <Frequency>
1

$$$$

  SciTegic          2D

 21 20  0  0  0  0            999 V2000
    9.0999    1.9500    0.0000 O   0  0
    9.0999    0.7500    0.0000 C   0  0
    7.7999    0.0000    0.0000 N   0  0
    6.5000    0.7500    0.0000 C   0  0
    5.2000    0.0000    0.0000 N   0  0
    3.9000    0.7500    0.0000 C   0  0
    3.9000    1.9500    0.0000 O   0  0
    2.6000    0.0000    0.0000 C   0  0
    1.3000    0.7500    0.0000 C   0  0
   10.3999    0.0000    0.0000 C   0  0
   11.6999    0.7500    0.0000 C   0  0
    7.7999   -1.0000    0.0000 H   0  0
    5.6340    1.2501    0.0000 H   0  0
    6.5000    1.7500    0.0000 H   0  0
    5.2000   -1.0000    0.0000 H   0  0
    2.6000   -1.0000    0.0000 H   0  0
    0.4338    0.2503    0.0000 H   0  0
    1.3000    1.7500    0.0000 H   0  0
   10.3999   -1.0000    0.0000 H   0  0
   12.5661    0.2503    0.0000 H   0  0
   11.6999    1.7500    0.0000 H   0  0
  1  2  2  0
  2  3  1  0
  2 10  1  0
  3  4  1  0
  4  5  1  0
  5  6  1  0
  6  7  2  0
  6  8  1  0
  8  9  2  0
 10 11  2  0
  3 12  1  0
  4 13  1  0
  4 14  1  0
  5 15  1  0
  8 16  1  0
  9 17  1  0
  9 18  1  0
 10 19  1  0
 11 20  1  0
 11 21  1  0
V    1 0
V    2 1
V    3 2
V    4 3
V    5 4
V    6 5
V    7 6
V    8 7
V    9 8
V   10 9
V   11 10
M  END
> <DSSTox_RID>
62278

> <DSSTox_CID>
5595

> <DSSTox_CID_Parent>
5595

> <DSSTox_Generic_SID>
25595

> <DSSTox_FileID>
503_TXCST2_v1a

> <STRUCTURE_Formula>
C7H10N2O2

> <STRUCTURE_MolecularWeight>
154.1665

> <STRUCTURE_ChemicalType>
defined organic

> <STRUCTURE_TestedForm_DefinedOrganic>
parent

> <STRUCTURE_Shown>
tested chemical

> <TestSubstance_ChemicalName>
N,N'-methylenebisacrylamide

> <TestSubstance_CASRN>
110-26-9

> <TestSubstance_Description>
single chemical compound

> <Source_ChemicalNote>
tested chemical contained 0.19% water (0.02 moles H2O)

> <STRUCTURE_ChemicalName_IUPAC>
N,N'-methylenebisacrylamide

> <STRUCTURE_SMILES>
O=C(NCNC(=O)C=C)C=C

> <STRUCTURE_Parent_SMILES>
O=C(NCNC(=O)C=C)C=C

> <STRUCTURE_InChIS>
InChI=1S/C7H10N2O2/c1-3-6(10)8-5-9-7(11)4-2/h3-4H,1-2,5H2,(H,8,10)(H,9,11)

> <STRUCTURE_InChIKey>
ZIUHHBKFKCYYJD-UHFFFAOYSA-N

> <Substance_modify_yyyymmdd>
20080429

> <Coord_Metals>
0

> <Index>
503

> <Canonical_Smiles>
C=CC(=O)NCNC(=O)C=C

> <Molecular_Weight>
154.16649

> <Frequency>
1

$$$$

  SciTegic          2D

  9  8  0  0  0  0            999 V2000
    3.9000    0.7500    0.0000 C   0  0
    2.6000    1.5000    0.0000 S   0  0
    1.3000    0.7500    0.0000 C   0  0
    0.2606    0.1503    0.0000 N   0  0
    5.2000    1.5000    0.0000 S   0  0
    6.5000    0.7500    0.0000 C   0  0
    7.5394    0.1503    0.0000 N   0  0
    3.9000   -0.2500    0.0000 H   0  0
    3.0340    0.2499    0.0000 H   0  0
  1  2  1  0
  1  5  1  0
  2  3  1  0
  3  4  3  0
  5  6  1  0
  6  7  3  0
  1  8  1  0
  1  9  1  0
V    1 0
V    2 1
V    3 2
V    4 3
V    5 4
V    6 5
V    7 6
M  END
> <DSSTox_RID>
60092

> <DSSTox_CID>
5599

> <DSSTox_CID_Parent>
5599

> <DSSTox_Generic_SID>
25599

> <DSSTox_FileID>
504_TXCST2_v1a

> <STRUCTURE_Formula>
C3H2N2S2

> <STRUCTURE_MolecularWeight>
130.1914

> <STRUCTURE_ChemicalType>
defined organic

> <STRUCTURE_TestedForm_DefinedOrganic>
parent

> <STRUCTURE_Shown>
tested chemical

> <TestSubstance_ChemicalName>
Methylene bis(thiocyanate)

> <TestSubstance_CASRN>
6317-18-6

> <TestSubstance_Description>
single chemical compound

> <Source_ChemicalNote>
tested chemical contained 0.79% water (0.06 moles H2O)

> <STRUCTURE_ChemicalName_IUPAC>
methylene bis(thiocyanate)

> <STRUCTURE_SMILES>
C(SC#N)SC#N

> <STRUCTURE_Parent_SMILES>
C(SC#N)SC#N

> <STRUCTURE_InChIS>
InChI=1S/C3H2N2S2/c4-1-6-3-7-2-5/h3H2

> <STRUCTURE_InChIKey>
JWZXKXIUSSIAMR-UHFFFAOYSA-N

> <Substance_modify_yyyymmdd>
20080429

> <Coord_Metals>
0

> <Index>
504

> <Canonical_Smiles>
N#CSCSC#N

> <Molecular_Weight>
130.19137

> <Frequency>
1

$$$$

  SciTegic          2D

 27 27  0  0  0  0            999 V2000
    2.5973   -1.5031    0.0000 O   0  0
    2.5951   -3.0039    0.0000 C   0  0
    1.2990   -0.7500    0.0000 C   0  0
    1.2990    0.7500    0.0000 C   0  0
    0.0000    1.5000    0.0000 C   0  0
    0.0000    3.0008    0.0000 C   0  0
    1.2993    3.7521    0.0000 C   0  0
    1.2992    5.2529    0.0000 C   0  0
   -1.2990    0.7500    0.0000 C   0  0
   -1.2990   -0.7500    0.0000 C   0  0
    0.0000   -1.5000    0.0000 C   0  0
   -0.0031   -3.0008    0.0000 O   0  0
   -1.3039   -3.7494    0.0000 C   0  0
    3.4601   -3.5057    0.0000 H   0  0
    1.7282   -3.5024    0.0000 H   0  0
    2.5932   -4.0039    0.0000 H   0  0
    2.1651    1.2500    0.0000 H   0  0
   -0.8662    3.5005    0.0000 H   0  0
   -0.0005    4.0008    0.0000 H   0  0
    2.1654    3.2523    0.0000 H   0  0
    2.1650    5.7534    0.0000 H   0  0
    0.4331    5.7526    0.0000 H   0  0
   -2.1651    1.2500    0.0000 H   0  0
   -2.1651   -1.2500    0.0000 H   0  0
   -1.3060   -4.7494    0.0000 H   0  0
   -2.1691   -3.2479    0.0000 H   0  0
   -2.1709   -4.2478    0.0000 H   0  0
  1  2  1  0
  1  3  1  0
  3  4  2  0
  3 11  1  0
  4  5  1  0
  5  6  1  0
  5  9  2  0
  6  7  1  0
  7  8  2  0
  9 10  1  0
 10 11  2  0
 11 12  1  0
 12 13  1  0
  2 14  1  0
  2 15  1  0
  2 16  1  0
  4 17  1  0
  6 18  1  0
  6 19  1  0
  7 20  1  0
  8 21  1  0
  8 22  1  0
  9 23  1  0
 10 24  1  0
 13 25  1  0
 13 26  1  0
 13 27  1  0
V    1 0
V    2 1
V    3 2
V    4 3
V    5 4
V    6 5
V    7 6
V    8 7
V    9 8
V   10 9
V   11 10
V   12 11
V   13 12
M  END
> <DSSTox_RID>
60090

> <DSSTox_CID>
5607

> <DSSTox_CID_Parent>
5607

> <DSSTox_Generic_SID>
25607

> <DSSTox_FileID>
505_TXCST2_v1a

> <STRUCTURE_Formula>
C11H14O2

> <STRUCTURE_MolecularWeight>
178.2277

> <STRUCTURE_ChemicalType>
defined organic

> <STRUCTURE_TestedForm_DefinedOrganic>
parent

> <STRUCTURE_Shown>
tested chemical

> <TestSubstance_ChemicalName>
Methyleugenol

> <TestSubstance_CASRN>
93-15-2

> <TestSubstance_Description>
single chemical compound

> <STRUCTURE_ChemicalName_IUPAC>
4-allyl-1,2-dimethoxybenzene

> <STRUCTURE_SMILES>
O(C)c1cc(CC=C)ccc1OC

> <STRUCTURE_Parent_SMILES>
O(C)c1cc(CC=C)ccc1OC

> <STRUCTURE_InChIS>
InChI=1S/C11H14O2/c1-4-5-9-6-7-10(12-2)11(8-9)13-3/h4,6-8H,1,5H2,2-3H3

> <STRUCTURE_InChIKey>
ZYEMGPIYFIJGTP-UHFFFAOYSA-N

> <Substance_modify_yyyymmdd>
20080429

> <Coord_Metals>
0

> <Index>
505

> <Canonical_Smiles>
COc1ccc(CC=C)cc1OC

> <Molecular_Weight>
178.22765

> <Frequency>
1

$$$$

  SciTegic          2D

 19 19  0  0  0  0            999 V2000
    3.6375   -0.9049    0.0000 O   0  0
    2.5973   -1.5031    0.0000 C   0  0
    2.5951   -3.0039    0.0000 O   0  0
    3.8933   -3.7570    0.0000 C   0  0
    1.2990   -0.7500    0.0000 C   0  0
    1.2990    0.7500    0.0000 C   0  0
    2.5972    1.5031    0.0000 O   0  0
    0.0000    1.5000    0.0000 C   0  0
   -1.2990    0.7500    0.0000 C   0  0
   -1.2990   -0.7500    0.0000 C   0  0
    0.0000   -1.5000    0.0000 C   0  0
    3.8919   -4.7570    0.0000 H   0  0
    4.7586   -4.2584    0.0000 H   0  0
    4.7602   -3.2585    0.0000 H   0  0
    2.5958    2.5031    0.0000 H   0  0
    0.0000    2.5000    0.0000 H   0  0
   -2.1651    1.2500    0.0000 H   0  0
   -2.1651   -1.2500    0.0000 H   0  0
    0.0000   -2.5000    0.0000 H   0  0
  1  2  2  0
  2  3  1  0
  2  5  1  0
  3  4  1  0
  5  6  2  0
  5 11  1  0
  6  7  1  0
  6  8  1  0
  8  9  2  0
  9 10  1  0
 10 11  2  0
  4 12  1  0
  4 13  1  0
  4 14  1  0
  7 15  1  0
  8 16  1  0
  9 17  1  0
 10 18  1  0
 11 19  1  0
V    1 0
V    2 1
V    3 2
V    4 3
V    5 4
V    6 5
V    7 6
V    8 7
V    9 8
V   10 9
V   11 10
M  END
> <DSSTox_RID>
65450

> <DSSTox_CID>
5659

> <DSSTox_CID_Parent>
5659

> <DSSTox_Generic_SID>
25659

> <DSSTox_FileID>
506_TXCST2_v1a

> <STRUCTURE_Formula>
C8H8O3

> <STRUCTURE_MolecularWeight>
152.1473

> <STRUCTURE_ChemicalType>
defined organic

> <STRUCTURE_TestedForm_DefinedOrganic>
parent

> <STRUCTURE_Shown>
tested chemical

> <TestSubstance_ChemicalName>
Methyl salicylate

> <TestSubstance_CASRN>
119-36-8

> <TestSubstance_Description>
single chemical compound

> <STRUCTURE_ChemicalName_IUPAC>
methyl salicylate

> <STRUCTURE_SMILES>
O=C(OC)c(c(O)ccc1)c1

> <STRUCTURE_Parent_SMILES>
O=C(OC)c(c(O)ccc1)c1

> <STRUCTURE_InChIS>
InChI=1S/C8H8O3/c1-11-8(10)6-4-2-3-5-7(6)9/h2-5,9H,1H3

> <STRUCTURE_InChIKey>
OSWPMRLSEDHDFF-UHFFFAOYSA-N

> <Substance_modify_yyyymmdd>
20080429

> <Coord_Metals>
0

> <Index>
506

> <Canonical_Smiles>
COC(=O)c1ccccc1O

> <Molecular_Weight>
152.14731

> <Frequency>
1

$$$$

  SciTegic          2D

 42 42  0  0  0  0            999 V2000
    6.4833   -9.7656    0.0000 C   0  0
    6.4855   -8.2648    0.0000 C   0  0
    5.1873   -7.5117    0.0000 C   0  0
    5.1894   -6.0109    0.0000 C   0  0
    3.8912   -5.2578    0.0000 C   0  0
    2.5902   -6.0059    0.0000 C   0  0
    1.2913   -5.2541    0.0000 C   0  0
    3.8933   -3.7570    0.0000 C   0  0
    2.5951   -3.0039    0.0000 O   0  0
    2.5973   -1.5031    0.0000 C   0  0
    3.6375   -0.9049    0.0000 O   0  0
    1.2990   -0.7500    0.0000 C   0  0
    1.2990    0.7500    0.0000 C   0  0
    0.0000    1.5000    0.0000 C   0  0
   -1.2990    0.7500    0.0000 C   0  0
   -1.2990   -0.7500    0.0000 C   0  0
    0.0000   -1.5000    0.0000 C   0  0
   -0.0031   -3.0008    0.0000 C   0  0
   -1.3039   -3.7494    0.0000 O   0  0
    1.0351   -3.6026    0.0000 O   0  0
    7.3483  -10.2674    0.0000 H   0  0
    5.6164  -10.2641    0.0000 H   0  0
    6.4814  -10.7656    0.0000 H   0  0
    7.3524   -7.7663    0.0000 H   0  0
    6.4874   -7.2648    0.0000 H   0  0
    4.3204   -8.0102    0.0000 H   0  0
    4.3220   -7.0104    0.0000 H   0  0
    6.0563   -5.5124    0.0000 H   0  0
    5.1913   -5.0109    0.0000 H   0  0
    4.7581   -4.7593    0.0000 H   0  0
    1.7235   -6.5048    0.0000 H   0  0
    2.5888   -7.0059    0.0000 H   0  0
    0.4244   -5.7526    0.0000 H   0  0
    0.4260   -4.7527    0.0000 H   0  0
    1.2927   -4.2541    0.0000 H   0  0
    3.8952   -2.7570    0.0000 H   0  0
    4.7602   -3.2585    0.0000 H   0  0
    2.1651    1.2500    0.0000 H   0  0
    0.0000    2.5000    0.0000 H   0  0
   -2.1651    1.2500    0.0000 H   0  0
   -2.1651   -1.2500    0.0000 H   0  0
   -1.3060   -4.7494    0.0000 H   0  0
  1  2  1  0
  2  3  1  0
  3  4  1  0
  4  5  1  0
  5  6  1  0
  5  8  1  0
  6  7  1  0
  8  9  1  0
  9 10  1  0
 10 11  2  0
 10 12  1  0
 12 13  2  0
 12 17  1  0
 13 14  1  0
 14 15  2  0
 15 16  1  0
 16 17  2  0
 17 18  1  0
 18 19  1  0
 18 20  2  0
  1 21  1  0
  1 22  1  0
  1 23  1  0
  2 24  1  0
  2 25  1  0
  3 26  1  0
  3 27  1  0
  4 28  1  0
  4 29  1  0
  5 30  1  0
  6 31  1  0
  6 32  1  0
  7 33  1  0
  7 34  1  0
  7 35  1  0
  8 36  1  0
  8 37  1  0
 13 38  1  0
 14 39  1  0
 15 40  1  0
 16 41  1  0
 19 42  1  0
V    1 0
V    2 1
V    3 2
V    4 3
V    5 4
V    6 5
V    7 6
V    8 7
V    9 8
V   10 9
V   11 10
V   12 11
V   13 12
V   14 13
V   15 14
V   16 15
V   17 16
V   18 17
V   19 18
V   20 19
M  END
> <DSSTox_RID>
60109

> <DSSTox_CID>
5680

> <DSSTox_CID_Parent>
5680

> <DSSTox_Generic_SID>
25680

> <DSSTox_FileID>
507_TXCST2_v1a

> <STRUCTURE_Formula>
C16H22O4

> <STRUCTURE_MolecularWeight>
278.3435

> <STRUCTURE_ChemicalType>
defined organic

> <STRUCTURE_TestedForm_DefinedOrganic>
parent

> <STRUCTURE_Shown>
tested chemical

> <TestSubstance_ChemicalName>
Mono(2-ethylhexyl) phthalate

> <TestSubstance_CASRN>
4376-20-9

> <TestSubstance_Description>
single chemical compound

> <STRUCTURE_ChemicalName_IUPAC>
2-{[(2-ethylhexyl)oxy]carbonyl}benzoic acid

> <STRUCTURE_SMILES>
CCCCC(CC)COC(=O)c1ccccc1C(O)=O

> <STRUCTURE_Parent_SMILES>
CCCCC(CC)COC(=O)c1ccccc1C(O)=O

> <STRUCTURE_InChIS>
InChI=1S/C16H22O4/c1-3-5-8-12(4-2)11-20-16(19)14-10-7-6-9-13(14)15(17)18/h6-7,9-10,12H,3-5,8,11H2,1-2H3,(H,17,18)

> <STRUCTURE_InChIKey>
DJDSLBVSSOQSLW-UHFFFAOYSA-N

> <Substance_modify_yyyymmdd>
20080429

> <Coord_Metals>
0

> <Index>
507

> <Canonical_Smiles>
CCCCC(CC)COC(=O)c1ccccc1C(=O)O

> <Molecular_Weight>
278.34348

> <Frequency>
1

$$$$

  SciTegic          2D

 26 25  0  0  0  0            999 V2000
    3.9000    0.7500    0.0000 C   0  0
    3.8969    2.2508    0.0000 C   0  0
    2.6000    0.0000    0.0000 C   0  0
    1.3000    0.7500    0.0000 C   0  0
    5.2000    0.0000    0.0000 C   0  0
    6.5000    0.7500    0.0000 C   0  0
    7.7999    0.0000    0.0000 C   0  0
    9.0999    0.7500    0.0000 C   0  0
   10.3999    0.0000    0.0000 C   0  0
    9.0968    2.2508    0.0000 C   0  0
    3.0301    2.7496    0.0000 H   0  0
    4.7620    2.7523    0.0000 H   0  0
    2.6000   -1.0000    0.0000 H   0  0
    0.4338    0.2503    0.0000 H   0  0
    1.3000    1.7500    0.0000 H   0  0
    4.3340   -0.5001    0.0000 H   0  0
    5.2000   -1.0000    0.0000 H   0  0
    7.3659    1.2501    0.0000 H   0  0
    6.5000    1.7500    0.0000 H   0  0
    7.7999   -1.0000    0.0000 H   0  0
   11.2661    0.4997    0.0000 H   0  0
   10.3999   -1.0000    0.0000 H   0  0
   11.2659   -0.5001    0.0000 H   0  0
    8.2301    2.7496    0.0000 H   0  0
    9.9620    2.7523    0.0000 H   0  0
    9.0953    3.2508    0.0000 H   0  0
  1  2  2  0
  1  3  1  0
  1  5  1  0
  3  4  2  0
  5  6  1  0
  6  7  1  0
  7  8  2  0
  8  9  1  0
  8 10  1  0
  2 11  1  0
  2 12  1  0
  3 13  1  0
  4 14  1  0
  4 15  1  0
  5 16  1  0
  5 17  1  0
  6 18  1  0
  6 19  1  0
  7 20  1  0
  9 21  1  0
  9 22  1  0
  9 23  1  0
 10 24  1  0
 10 25  1  0
 10 26  1  0
V    1 0
V    2 1
V    3 2
V    4 3
V    5 4
V    6 5
V    7 6
V    8 7
V    9 8
V   10 9
M  END
> <DSSTox_RID>
60171

> <DSSTox_CID>
5692

> <DSSTox_CID_Parent>
5692

> <DSSTox_Generic_SID>
25692

> <DSSTox_FileID>
508_TXCST2_v1a

> <STRUCTURE_Formula>
C10H16

> <STRUCTURE_MolecularWeight>
136.234

> <STRUCTURE_ChemicalType>
defined organic

> <STRUCTURE_TestedForm_DefinedOrganic>
parent

> <STRUCTURE_Shown>
tested chemical

> <TestSubstance_ChemicalName>
Myrcene

> <TestSubstance_CASRN>
123-35-3

> <TestSubstance_Description>
single chemical compound

> <STRUCTURE_ChemicalName_IUPAC>
7-methyl-3-methyleneocta-1,6-diene

> <STRUCTURE_SMILES>
C(=C)(C=C)CCC=C(C)C

> <STRUCTURE_Parent_SMILES>
C(=C)(C=C)CCC=C(C)C

> <STRUCTURE_InChIS>
InChI=1S/C10H16/c1-5-10(4)8-6-7-9(2)3/h5,7H,1,4,6,8H2,2-3H3

> <STRUCTURE_InChIKey>
UAHWPYUMFXYFJY-UHFFFAOYSA-N

> <Substance_modify_yyyymmdd>
20080429

> <Coord_Metals>
0

> <Index>
508

> <Canonical_Smiles>
CC(=CCCC(=C)C=C)C

> <Molecular_Weight>
136.23403

> <Frequency>
1

$$$$

  SciTegic          2D

 17 17  0  0  0  0            999 V2000
    2.5973   -1.5031    0.0000 N   0  0
    2.5956   -2.7031    0.0000 O   0  0
    3.6375   -0.9049    0.0000 O   0  0
    1.2990   -0.7500    0.0000 C   0  0
    1.2990    0.7500    0.0000 C   0  0
    0.0000    1.5000    0.0000 C   0  0
   -1.2990    0.7500    0.0000 C   0  0
   -1.2990   -0.7500    0.0000 C   0  0
    0.0000   -1.5000    0.0000 C   0  0
    0.0000   -3.0008    0.0000 C   0  0
    2.1651    1.2500    0.0000 H   0  0
    0.0000    2.5000    0.0000 H   0  0
   -2.1651    1.2500    0.0000 H   0  0
   -2.1651   -1.2500    0.0000 H   0  0
    0.8657   -3.5014    0.0000 H   0  0
   -0.8662   -3.5006    0.0000 H   0  0
   -0.0005   -4.0008    0.0000 H   0  0
  1  2  2  0
  1  3  2  0
  1  4  1  0
  4  5  2  0
  4  9  1  0
  5  6  1  0
  6  7  2  0
  7  8  1  0
  8  9  2  0
  9 10  1  0
  5 11  1  0
  6 12  1  0
  7 13  1  0
  8 14  1  0
 10 15  1  0
 10 16  1  0
 10 17  1  0
V    1 0
V    2 1
V    3 2
V    4 3
V    5 4
V    6 5
V    7 6
V    8 7
V    9 8
V   10 9
M  END
> <DSSTox_RID>
66744

> <DSSTox_CID>
5791

> <DSSTox_CID_Parent>
5791

> <DSSTox_Generic_SID>
25791

> <DSSTox_FileID>
509_TXCST2_v1a

> <STRUCTURE_Formula>
C7H7NO2

> <STRUCTURE_MolecularWeight>
137.136

> <STRUCTURE_ChemicalType>
defined organic

> <STRUCTURE_TestedForm_DefinedOrganic>
parent

> <STRUCTURE_Shown>
tested chemical

> <TestSubstance_ChemicalName>
2-Nitrotoluene

> <TestSubstance_CASRN>
88-72-2

> <TestSubstance_Description>
single chemical compound

> <STRUCTURE_ChemicalName_IUPAC>
1-methyl-2-nitrobenzene

> <STRUCTURE_SMILES>
[N+](=O)([O-])c1ccccc1C

> <STRUCTURE_Parent_SMILES>
[N+](=O)([O-])c1ccccc1C

> <STRUCTURE_InChIS>
InChI=1S/C7H7NO2/c1-6-4-2-3-5-7(6)8(9)10/h2-5H,1H3

> <STRUCTURE_InChIKey>
PLAZTCDQAHEYBI-UHFFFAOYSA-N

> <Substance_modify_yyyymmdd>
20080429

> <Coord_Metals>
0

> <Index>
509

> <Canonical_Smiles>
Cc1ccccc1N(=O)=O

> <Molecular_Weight>
137.13597

> <Frequency>
1

$$$$

  SciTegic          2D

 33 33  0  0  0  0            999 V2000
    1.4553   -2.0031    0.0000 O   0  0
    0.7500   -1.0323    0.0000 C   0  0
    1.2135    0.3943    0.0000 C   0  0
    0.0000    1.2760    0.0000 C   0  0
   -1.2135    0.3943    0.0000 S   0  0
   -0.7500   -1.0323    0.0000 N   0  0
   -1.6306   -2.2444    0.0000 C   0  0
   -1.0211   -3.6159    0.0000 C   0  0
   -1.9032   -4.8300    0.0000 C   0  0
   -1.2936   -6.2015    0.0000 C   0  0
   -2.1758   -7.4157    0.0000 C   0  0
   -1.5662   -8.7872    0.0000 C   0  0
   -2.4484  -10.0014    0.0000 C   0  0
   -1.8388  -11.3728    0.0000 C   0  0
    2.1646    0.7033    0.0000 H   0  0
    0.0000    2.2760    0.0000 H   0  0
   -2.6251   -2.1396    0.0000 H   0  0
   -2.0372   -1.3308    0.0000 H   0  0
   -0.0266   -3.7207    0.0000 H   0  0
   -0.4329   -2.8071    0.0000 H   0  0
   -2.8977   -4.7252    0.0000 H   0  0
   -2.3098   -3.9164    0.0000 H   0  0
   -0.2992   -6.3063    0.0000 H   0  0
   -0.7055   -5.3928    0.0000 H   0  0
   -3.1703   -7.3109    0.0000 H   0  0
   -2.5824   -6.5021    0.0000 H   0  0
   -0.5717   -8.8920    0.0000 H   0  0
   -0.9781   -7.9784    0.0000 H   0  0
   -3.4429   -9.8965    0.0000 H   0  0
   -2.8550   -9.0877    0.0000 H   0  0
   -2.4266  -12.1818    0.0000 H   0  0
   -0.8443  -11.4776    0.0000 H   0  0
   -1.4322  -12.2864    0.0000 H   0  0
  1  2  2  0
  2  3  1  0
  2  6  1  0
  3  4  2  0
  4  5  1  0
  5  6  1  0
  6  7  1  0
  7  8  1  0
  8  9  1  0
  9 10  1  0
 10 11  1  0
 11 12  1  0
 12 13  1  0
 13 14  1  0
  3 15  1  0
  4 16  1  0
  7 17  1  0
  7 18  1  0
  8 19  1  0
  8 20  1  0
  9 21  1  0
  9 22  1  0
 10 23  1  0
 10 24  1  0
 11 25  1  0
 11 26  1  0
 12 27  1  0
 12 28  1  0
 13 29  1  0
 13 30  1  0
 14 31  1  0
 14 32  1  0
 14 33  1  0
V    1 0
V    2 1
V    3 2
V    4 3
V    5 4
V    6 5
V    7 6
V    8 7
V    9 8
V   10 9
V   11 10
V   12 11
V   13 12
V   14 13
M  END
> <DSSTox_RID>
59449

> <DSSTox_CID>
5805

> <DSSTox_CID_Parent>
5805

> <DSSTox_Generic_SID>
25805

> <DSSTox_FileID>
510_TXCST2_v1a

> <STRUCTURE_Formula>
C11H19NOS

> <STRUCTURE_MolecularWeight>
213.3397

> <STRUCTURE_ChemicalType>
defined organic

> <STRUCTURE_TestedForm_DefinedOrganic>
parent

> <STRUCTURE_Shown>
tested chemical

> <TestSubstance_ChemicalName>
Octhilinone

> <TestSubstance_CASRN>
26530-20-1

> <TestSubstance_Description>
single chemical compound

> <STRUCTURE_ChemicalName_IUPAC>
2-octylisothiazol-3(2H)-one

> <STRUCTURE_SMILES>
O=C1\C=C/SN1CCCCCCCC

> <STRUCTURE_Parent_SMILES>
O=C1\C=C/SN1CCCCCCCC

> <STRUCTURE_InChIS>
InChI=1S/C11H19NOS/c1-2-3-4-5-6-7-9-12-11(13)8-10-14-12/h8,10H,2-7,9H2,1H3

> <STRUCTURE_InChIKey>
JPMIIZHYYWMHDT-UHFFFAOYSA-N

> <Substance_modify_yyyymmdd>
20080429

> <Coord_Metals>
0

> <Index>
510

> <Canonical_Smiles>
CCCCCCCCN1SC=CC1=O

> <Molecular_Weight>
213.33965

> <Frequency>
1

$$$$

  SciTegic          2D

 16 16  0  0  0  0            999 V2000
    2.5973   -1.5031    0.0000 N   0  0
    1.2990   -0.7500    0.0000 C   0  0
    1.2990    0.7500    0.0000 C   0  0
    2.5972    1.5031    0.0000 N   0  0
    0.0000    1.5000    0.0000 C   0  0
   -1.2990    0.7500    0.0000 C   0  0
   -1.2990   -0.7500    0.0000 C   0  0
    0.0000   -1.5000    0.0000 C   0  0
    2.5958   -2.5031    0.0000 H   0  0
    3.4642   -1.0046    0.0000 H   0  0
    2.5958    2.5031    0.0000 H   0  0
    3.4641    1.0046    0.0000 H   0  0
    0.0000    2.5000    0.0000 H   0  0
   -2.1651    1.2500    0.0000 H   0  0
   -2.1651   -1.2500    0.0000 H   0  0
    0.0000   -2.5000    0.0000 H   0  0
  1  2  1  0
  2  3  2  0
  2  8  1  0
  3  4  1  0
  3  5  1  0
  5  6  2  0
  6  7  1  0
  7  8  2  0
  1  9  1  0
  1 10  1  0
  4 11  1  0
  4 12  1  0
  5 13  1  0
  6 14  1  0
  7 15  1  0
  8 16  1  0
V    1 0
V    2 1
V    3 2
V    4 3
V    5 4
V    6 5
V    7 6
V    8 7
M  END
> <DSSTox_RID>
60188

> <DSSTox_CID>
5881

> <DSSTox_CID_Parent>
5881

> <DSSTox_Generic_SID>
25881

> <DSSTox_FileID>
511_TXCST2_v1a

> <STRUCTURE_Formula>
C6H8N2

> <STRUCTURE_MolecularWeight>
108.1411

> <STRUCTURE_ChemicalType>
defined organic

> <STRUCTURE_TestedForm_DefinedOrganic>
parent

> <STRUCTURE_Shown>
tested chemical

> <TestSubstance_ChemicalName>
1,2-Phenylenediamine

> <TestSubstance_CASRN>
95-54-5

> <TestSubstance_Description>
single chemical compound

> <STRUCTURE_ChemicalName_IUPAC>
benzene-1,2-diamine

> <STRUCTURE_SMILES>
Nc(c(N)ccc1)c1

> <STRUCTURE_Parent_SMILES>
Nc(c(N)ccc1)c1

> <STRUCTURE_InChIS>
InChI=1S/C6H8N2/c7-5-3-1-2-4-6(5)8/h1-4H,7-8H2

> <STRUCTURE_InChIKey>
GEYOCULIXLDCMW-UHFFFAOYSA-N

> <Substance_modify_yyyymmdd>
20080429

> <Coord_Metals>
0

> <Index>
511

> <Canonical_Smiles>
Nc1ccccc1N

> <Molecular_Weight>
108.14112

> <Frequency>
1

$$$$

  SciTegic          2D

 26 27  0  0  0  0            999 V2000
    2.5973   -1.5031    0.0000 N   0  0
    1.2990   -0.7500    0.0000 C   0  0
    1.2990    0.7500    0.0000 C   0  0
    0.0000    1.5000    0.0000 C   0  0
   -1.2990    0.7500    0.0000 C   0  0
   -1.2990   -0.7500    0.0000 C   0  0
    0.0000   -1.5000    0.0000 C   0  0
    2.5951   -3.0039    0.0000 C   0  0
    3.8915   -3.7585    0.0000 C   0  0
    3.8864   -5.2585    0.0000 C   0  0
    2.5847   -6.0040    0.0000 C   0  0
    2.5765   -7.5048    0.0000 N   0  0
    1.2883   -5.2495    0.0000 C   0  0
    1.2935   -3.7495    0.0000 C   0  0
    3.4642   -1.0046    0.0000 H   0  0
    2.1651    1.2500    0.0000 H   0  0
    0.0000    2.5000    0.0000 H   0  0
   -2.1651    1.2500    0.0000 H   0  0
   -2.1651   -1.2500    0.0000 H   0  0
    0.0000   -2.5000    0.0000 H   0  0
    4.7593   -3.2615    0.0000 H   0  0
    4.7506   -5.7615    0.0000 H   0  0
    1.7080   -8.0006    0.0000 H   0  0
    3.4399   -8.0093    0.0000 H   0  0
    0.4205   -5.7465    0.0000 H   0  0
    0.4292   -3.2465    0.0000 H   0  0
  1  2  1  0
  1  8  1  0
  2  3  2  0
  2  7  1  0
  3  4  1  0
  4  5  2  0
  5  6  1  0
  6  7  2  0
  8  9  2  0
  8 14  1  0
  9 10  1  0
 10 11  2  0
 11 12  1  0
 11 13  1  0
 13 14  2  0
  1 15  1  0
  3 16  1  0
  4 17  1  0
  5 18  1  0
  6 19  1  0
  7 20  1  0
  9 21  1  0
 10 22  1  0
 12 23  1  0
 12 24  1  0
 13 25  1  0
 14 26  1  0
V    1 0
V    2 1
V    3 2
V    4 3
V    5 4
V    6 5
V    7 6
V    8 7
V    9 8
V   10 9
V   11 10
V   12 11
V   13 12
V   14 13
M  END
> <DSSTox_RID>
59641

> <DSSTox_CID>
5895

> <DSSTox_CID_Parent>
5895

> <DSSTox_Generic_SID>
25895

> <DSSTox_FileID>
512_TXCST2_v1a

> <STRUCTURE_Formula>
C12H12N2

> <STRUCTURE_MolecularWeight>
184.2371

> <STRUCTURE_ChemicalType>
defined organic

> <STRUCTURE_TestedForm_DefinedOrganic>
parent

> <STRUCTURE_Shown>
tested chemical

> <TestSubstance_ChemicalName>
N-Phenyl-1,4-benzenediamine

> <TestSubstance_CASRN>
101-54-2

> <TestSubstance_Description>
single chemical compound

> <STRUCTURE_ChemicalName_IUPAC>
N-phenylbenzene-1,4-diamine

> <STRUCTURE_SMILES>
N(c1ccccc1)c2ccc(N)cc2

> <STRUCTURE_Parent_SMILES>
N(c1ccccc1)c2ccc(N)cc2

> <STRUCTURE_InChIS>
InChI=1S/C12H12N2/c13-10-6-8-12(9-7-10)14-11-4-2-1-3-5-11/h1-9,14H,13H2

> <STRUCTURE_InChIKey>
ATGUVEKSASEFFO-UHFFFAOYSA-N

> <Substance_modify_yyyymmdd>
20080429

> <Coord_Metals>
0

> <Index>
512

> <Canonical_Smiles>
Nc1ccc(Nc2ccccc2)cc1

> <Molecular_Weight>
184.23707

> <Frequency>
1

$$$$

  SciTegic          2D

 20 20  0  0  0  0            999 V2000
    2.3383   -1.3500    0.0000 O   0  0
    1.2990   -0.7500    0.0000 C   0  0
    1.2990    0.7500    0.0000 O   0  0
    0.0000    1.5000    0.0000 C   0  0
   -1.2990    0.7500    0.0000 C   0  0
    0.0000    3.0008    0.0000 C   0  0
    0.0000   -1.5000    0.0000 C   0  0
   -1.2990   -0.7500    0.0000 C   0  0
   -2.5972   -1.5031    0.0000 O   0  0
   -0.0031   -3.0008    0.0000 C   0  0
    1.0351   -3.6026    0.0000 O   0  0
   -1.3039   -3.7494    0.0000 C   0  0
   -2.1651    1.2500    0.0000 H   0  0
    0.8657    3.5014    0.0000 H   0  0
   -0.8662    3.5005    0.0000 H   0  0
   -0.0005    4.0008    0.0000 H   0  0
   -2.5958   -2.5031    0.0000 H   0  0
   -1.3060   -4.7494    0.0000 H   0  0
   -2.1709   -4.2478    0.0000 H   0  0
   -2.1691   -3.2479    0.0000 H   0  0
  1  2  2  0
  2  3  1  0
  2  7  1  0
  3  4  1  0
  4  5  2  0
  4  6  1  0
  5  8  1  0
  7  8  2  0
  7 10  1  0
  8  9  1  0
 10 11  2  0
 10 12  1  0
  5 13  1  0
  6 14  1  0
  6 15  1  0
  6 16  1  0
  9 17  1  0
 12 18  1  0
 12 19  1  0
 12 20  1  0
V    1 1
V    2 2
V    3 3
V    4 4
V    5 5
V    6 6
V    7 7
V    8 8
V    9 9
V   10 10
V   11 11
V   12 12
M  END
> <DSSTox_RID>
60318

> <DSSTox_CID>
6029

> <DSSTox_CID_Parent>
14

> <DSSTox_Generic_SID>
26029

> <DSSTox_FileID>
513_TXCST2_v1a

> <STRUCTURE_Formula>
C8H7NaO4

> <STRUCTURE_MolecularWeight>
190.1285

> <STRUCTURE_ChemicalType>
defined organic

> <STRUCTURE_TestedForm_DefinedOrganic>
salt Na

> <STRUCTURE_Shown>
tested chemical

> <TestSubstance_ChemicalName>
Sodium dehydroacetate

> <TestSubstance_CASRN>
4418-26-2

> <TestSubstance_Description>
single chemical compound

> <ChemicalNote>
parent [520-45-6]

> <STRUCTURE_ChemicalName_IUPAC>
sodium (1E)-1-(6-methyl-2,4-dioxo-2H-pyran-3(4H)-ylidene)ethanolate

> <STRUCTURE_SMILES>
[Na+].C/C([O-])=C1/C(=O)/C=C(/C)OC1=O

> <STRUCTURE_Parent_SMILES>
O/C(C)=C1\C(=O)/C=C(/C)OC1=O

> <STRUCTURE_InChIS>
InChI=1S/C8H8O4.Na/c1-4-3-6(10)7(5(2)9)8(11)12-4;/h3,9H,1-2H3;/q;+1/p-1/b7-5+;

> <STRUCTURE_InChIKey>
DSOWAKKSGYUMTF-GZOLSCHFSA-M

> <Substance_modify_yyyymmdd>
20080429

> <Coord_Metals>
0

> <Index>
513

> <Canonical_Smiles>
CC(=O)C1=C(O)C=C(C)OC1=O

> <Molecular_Weight>
168.14671

> <Frequency>
1

$$$$

  SciTegic          2D

 43 42  0  0  0  0            999 V2000
    2.6000    0.0000    0.0000 S   0  0
    2.6000   -1.2000    0.0000 O   0  0
    1.5608   -0.6002    0.0000 O   0  0
    1.3000    0.7500    0.0000 O   0  0
    3.9000    0.7500    0.0000 O   0  0
    5.2000    0.0000    0.0000 C   0  0
    6.5000    0.7500    0.0000 C   0  0
    7.7999    0.0000    0.0000 C   0  0
    9.0999    0.7500    0.0000 C   0  0
   10.3999    0.0000    0.0000 C   0  0
   11.6999    0.7500    0.0000 C   0  0
   12.9999    0.0000    0.0000 C   0  0
   14.2999    0.7500    0.0000 C   0  0
   15.5999    0.0000    0.0000 C   0  0
   16.8999    0.7500    0.0000 C   0  0
   18.1999    0.0000    0.0000 C   0  0
   19.4998    0.7500    0.0000 C   0  0
    0.4338    0.2503    0.0000 H   0  0
    5.2000   -1.0000    0.0000 H   0  0
    4.3340   -0.5001    0.0000 H   0  0
    6.5000    1.7500    0.0000 H   0  0
    5.6340    1.2501    0.0000 H   0  0
    7.7999   -1.0000    0.0000 H   0  0
    6.9340   -0.5001    0.0000 H   0  0
    9.0999    1.7500    0.0000 H   0  0
    8.2340    1.2501    0.0000 H   0  0
   10.3999   -1.0000    0.0000 H   0  0
    9.5340   -0.5001    0.0000 H   0  0
   11.6999    1.7500    0.0000 H   0  0
   10.8340    1.2501    0.0000 H   0  0
   12.9999   -1.0000    0.0000 H   0  0
   12.1340   -0.5001    0.0000 H   0  0
   14.2999    1.7500    0.0000 H   0  0
   13.4339    1.2501    0.0000 H   0  0
   15.5999   -1.0000    0.0000 H   0  0
   14.7339   -0.5001    0.0000 H   0  0
   16.8999    1.7500    0.0000 H   0  0
   16.0339    1.2501    0.0000 H   0  0
   18.1999   -1.0000    0.0000 H   0  0
   17.3339   -0.5001    0.0000 H   0  0
   20.3660    0.2503    0.0000 H   0  0
   19.4998    1.7500    0.0000 H   0  0
   20.3658    1.2501    0.0000 H   0  0
  1  2  2  0
  1  3  2  0
  1  4  1  0
  1  5  1  0
  5  6  1  0
  6  7  1  0
  7  8  1  0
  8  9  1  0
  9 10  1  0
 10 11  1  0
 11 12  1  0
 12 13  1  0
 13 14  1  0
 14 15  1  0
 15 16  1  0
 16 17  1  0
  4 18  1  0
  6 19  1  0
  6 20  1  0
  7 21  1  0
  7 22  1  0
  8 23  1  0
  8 24  1  0
  9 25  1  0
  9 26  1  0
 10 27  1  0
 10 28  1  0
 11 29  1  0
 11 30  1  0
 12 31  1  0
 12 32  1  0
 13 33  1  0
 13 34  1  0
 14 35  1  0
 14 36  1  0
 15 37  1  0
 15 38  1  0
 16 39  1  0
 16 40  1  0
 17 41  1  0
 17 42  1  0
 17 43  1  0
V    1 0
V    2 1
V    3 2
V    4 3
V    5 4
V    6 5
V    7 6
V    8 7
V    9 8
V   10 9
V   11 10
V   12 11
V   13 12
V   14 13
V   15 14
V   16 15
V   17 16
M  END
> <DSSTox_RID>
60352

> <DSSTox_CID>
6031

> <DSSTox_CID_Parent>
22088

> <DSSTox_Generic_SID>
26031

> <DSSTox_FileID>
514_TXCST2_v1a

> <STRUCTURE_Formula>
C12H25NaO4S

> <STRUCTURE_MolecularWeight>
288.3793

> <STRUCTURE_ChemicalType>
defined organic

> <STRUCTURE_TestedForm_DefinedOrganic>
salt Na

> <STRUCTURE_Shown>
tested chemical

> <TestSubstance_ChemicalName>
Sodium dodecyl sulfate

> <TestSubstance_CASRN>
151-21-3

> <TestSubstance_Description>
single chemical compound

> <ChemicalNote>
parent [151-41-7]

> <STRUCTURE_ChemicalName_IUPAC>
sodium dodecyl sulfate

> <STRUCTURE_SMILES>
[Na+].[O-]S(=O)(=O)OCCCCCCCCCCCC

> <STRUCTURE_Parent_SMILES>
S(=O)(=O)(O)OCCCCCCCCCCCC

> <STRUCTURE_InChIS>
InChI=1S/C12H26O4S.Na/c1-2-3-4-5-6-7-8-9-10-11-12-16-17(13,14)15;/h2-12H2,1H3,(H,13,14,15);/q;+1/p-1

> <STRUCTURE_InChIKey>
DBMJMQXJHONAFJ-UHFFFAOYSA-M

> <Substance_modify_yyyymmdd>
20080429

> <Coord_Metals>
0

> <Index>
514

> <Canonical_Smiles>
CCCCCCCCCCCCOS(=O)(=O)O

> <Molecular_Weight>
266.39743

> <Frequency>
1

$$$$

  SciTegic          2D

174184  0  0  0  0            999 V2000
   20.4283   19.6248    0.0000 O   0  0
   21.4123   18.4916    0.0000 C   0  0
   21.0859   17.5463    0.0000 O   0  0
   22.8859   18.7762    0.0000 C   0  0
   23.8710   17.6450    0.0000 C   0  0
   23.3730   20.1949    0.0000 C   0  0
   25.3432   17.9325    0.0000 C   0  0
   24.8452   20.4824    0.0000 C   0  0
   25.8303   19.3512    0.0000 C   0  0
   25.3355   21.9009    0.0000 O   0  0
   27.3027   19.6420    0.0000 O   0  0
   26.3312   16.8027    0.0000 O   0  0
   27.8038   17.0925    0.0000 C   0  0
   28.7917   15.9627    0.0000 C   0  0
   28.3105   14.5420    0.0000 C   0  0
   30.2628   16.2562    0.0000 C   0  0
   29.3002   13.4148    0.0000 C   0  0
   31.2525   15.1291    0.0000 C   0  0
   30.7712   13.7084    0.0000 C   0  0
   28.1915   18.2282    0.0000 O   0  0
   28.8216   11.9924    0.0000 O   0  0
   31.7638   12.5826    0.0000 O   0  0
   32.7249   15.4197    0.0000 O   0  0
   16.7576   17.4099    0.0000 O   0  0
   17.2436   15.9899    0.0000 C   0  0
   18.2250   15.7976    0.0000 O   0  0
   16.2577   14.8584    0.0000 C   0  0
   14.7849   15.1433    0.0000 C   0  0
   16.7472   13.4405    0.0000 C   0  0
   13.8018   14.0104    0.0000 C   0  0
   15.7640   12.3076    0.0000 C   0  0
   14.2913   12.5925    0.0000 C   0  0
   16.2509   10.8879    0.0000 O   0  0
   13.3100   11.4570    0.0000 O   0  0
   12.3277   14.2925    0.0000 O   0  0
   11.3457   13.1576    0.0000 C   0  0
    9.8716   13.4397    0.0000 C   0  0
    9.3761   14.8555    0.0000 C   0  0
    8.8930   12.3028    0.0000 C   0  0
    7.9023   15.1345    0.0000 C   0  0
    7.4192   12.5817    0.0000 C   0  0
    6.9238   13.9976    0.0000 C   0  0
   11.7393   12.0240    0.0000 O   0  0
    7.4038   16.5501    0.0000 O   0  0
    5.4486   14.2736    0.0000 O   0  0
    6.4378   11.4462    0.0000 O   0  0
   17.6560   21.5487    0.0000 C   0  0
   18.9670   20.8197    0.0000 C   0  0
   16.3693   20.7778    0.0000 O   0  0
   18.9547   19.3402    0.0000 C   0  0
   16.3934   19.2780    0.0000 C   0  0
   17.7044   18.5491    0.0000 C   0  0
   19.4352   22.2251    0.0000 O   0  0
   20.8978   22.5614    0.0000 C   0  0
   21.5789   21.8293    0.0000 O   0  0
   21.3387   23.9960    0.0000 C   0  0
   22.8001   24.3344    0.0000 C   0  0
   20.3151   25.0926    0.0000 C   0  0
   23.2379   25.7691    0.0000 C   0  0
   20.7529   26.5273    0.0000 C   0  0
   22.2143   26.8655    0.0000 C   0  0
   19.7310   27.6265    0.0000 O   0  0
   22.6493   28.3019    0.0000 O   0  0
   24.6993   26.1105    0.0000 O   0  0
   25.1353   27.5466    0.0000 C   0  0
   26.5968   27.8880    0.0000 C   0  0
   27.0346   29.3228    0.0000 C   0  0
   27.6205   26.7916    0.0000 C   0  0
   28.4960   29.6610    0.0000 C   0  0
   29.0819   27.1299    0.0000 C   0  0
   29.5196   28.5646    0.0000 C   0  0
   24.3149   28.4223    0.0000 O   0  0
   28.9369   31.0956    0.0000 O   0  0
   30.9825   28.9000    0.0000 O   0  0
   30.1083   26.0349    0.0000 O   0  0
   14.9377   19.5475    0.0000 O   0  0
   13.9350   18.4308    0.0000 C   0  0
   14.2456   17.4803    0.0000 O   0  0
   12.4663   18.7400    0.0000 C   0  0
   11.9970   20.1647    0.0000 C   0  0
   11.4670   17.6212    0.0000 C   0  0
   10.5285   20.4707    0.0000 C   0  0
    9.9986   17.9272    0.0000 C   0  0
    9.5293   19.3519    0.0000 C   0  0
    8.9965   16.8099    0.0000 O   0  0
    8.0594   19.6550    0.0000 O   0  0
   10.0561   21.8952    0.0000 O   0  0
    8.5864   22.1992    0.0000 C   0  0
    8.1139   23.6238    0.0000 C   0  0
    6.6455   23.9298    0.0000 C   0  0
    9.1131   24.7426    0.0000 C   0  0
    6.1762   25.3545    0.0000 C   0  0
    8.6438   26.1673    0.0000 C   0  0
    7.1754   26.4733    0.0000 C   0  0
    7.7886   21.3029    0.0000 O   0  0
    4.7075   25.6636    0.0000 O   0  0
    6.7087   27.8997    0.0000 O   0  0
    9.6413   27.2888    0.0000 O   0  0
   16.3449   22.2361    0.0000 C   0  0
   16.2462   23.7336    0.0000 O   0  0
   14.9003   24.3978    0.0000 C   0  0
   14.8016   25.8954    0.0000 C   0  0
   16.0468   26.7318    0.0000 C   0  0
   13.4547   26.5557    0.0000 C   0  0
   15.9452   28.2284    0.0000 C   0  0
   13.3531   28.0523    0.0000 C   0  0
   14.5983   28.8886    0.0000 C   0  0
   14.0689   23.8422    0.0000 O   0  0
   14.4935   30.3858    0.0000 O   0  0
   12.0068   28.7157    0.0000 O   0  0
   17.1894   29.0677    0.0000 O   0  0
   17.0855   30.5650    0.0000 C   0  0
   18.3297   31.4043    0.0000 C   0  0
   18.2281   32.9009    0.0000 C   0  0
   19.6767   30.7441    0.0000 C   0  0
   19.4733   33.7372    0.0000 C   0  0
   20.9219   31.5805    0.0000 C   0  0
   20.8202   33.0770    0.0000 C   0  0
   16.1868   31.0035    0.0000 O   0  0
   19.3746   35.2348    0.0000 O   0  0
   22.0678   33.9113    0.0000 O   0  0
   22.2709   30.9227    0.0000 O   0  0
   23.5463   16.6992    0.0000 H   0  0
   22.7163   20.9491    0.0000 H   0  0
   26.3172   22.0912    0.0000 H   0  0
   27.6261   20.5882    0.0000 H   0  0
   27.3298   14.3463    0.0000 H   0  0
   30.5837   17.2033    0.0000 H   0  0
   29.4825   11.2419    0.0000 H   0  0
   32.7442   12.7797    0.0000 H   0  0
   33.3837   14.6674    0.0000 H   0  0
   14.4585   16.0885    0.0000 H   0  0
   17.7289   13.2504    0.0000 H   0  0
   15.5944   10.1336    0.0000 H   0  0
   13.6377   10.5122    0.0000 H   0  0
   10.0284   15.6135    0.0000 H   0  0
    9.2232   11.3589    0.0000 H   0  0
    6.4209   16.7347    0.0000 H   0  0
    4.7973   13.5148    0.0000 H   0  0
    5.4555   11.6336    0.0000 H   0  0
   18.5262   22.0414    0.0000 H   0  0
   19.8231   20.3029    0.0000 H   0  0
   18.9707   18.3403    0.0000 H   0  0
   16.4340   18.2789    0.0000 H   0  0
   17.6526   19.5477    0.0000 H   0  0
   23.4825   23.6034    0.0000 H   0  0
   19.3409   24.8671    0.0000 H   0  0
   20.0242   28.5825    0.0000 H   0  0
   21.9659   29.0319    0.0000 H   0  0
   26.3522   30.0537    0.0000 H   0  0
   27.3287   25.8351    0.0000 H   0  0
   29.9114   31.3198    0.0000 H   0  0
   31.6638   28.1681    0.0000 H   0  0
   31.0822   26.2618    0.0000 H   0  0
   12.6631   20.9105    0.0000 H   0  0
   11.7798   16.6714    0.0000 H   0  0
    8.0178   17.0153    0.0000 H   0  0
    7.3943   18.9083    0.0000 H   0  0
    5.9793   23.1840    0.0000 H   0  0
   10.0921   24.5387    0.0000 H   0  0
    4.3960   26.6139    0.0000 H   0  0
    7.3759   28.6446    0.0000 H   0  0
    9.3271   28.2381    0.0000 H   0  0
   15.5134   21.6805    0.0000 H   0  0
   15.4479   22.6782    0.0000 H   0  0
   16.9448   26.2917    0.0000 H   0  0
   12.6246   25.9982    0.0000 H   0  0
   13.5949   30.8246    0.0000 H   0  0
   11.9404   29.7134    0.0000 H   0  0
   17.3301   33.3410    0.0000 H   0  0
   19.7445   29.7464    0.0000 H   0  0
   20.2055   35.7912    0.0000 H   0  0
   22.9651   33.4699    0.0000 H   0  0
   23.1002   31.4814    0.0000 H   0  0
  1  2  1  0
 50  1  1  0
  2  3  2  0
  2  4  1  0
  4  5  2  0
  4  6  1  0
  5  7  1  0
  6  8  2  0
  7  9  2  0
  7 12  1  0
  8  9  1  0
  8 10  1  0
  9 11  1  0
 12 13  1  0
 13 14  1  0
 13 20  2  0
 14 15  2  0
 14 16  1  0
 15 17  1  0
 16 18  2  0
 17 19  2  0
 17 21  1  0
 18 19  1  0
 18 23  1  0
 19 22  1  0
 24 25  1  0
 52 24  1  0
 25 26  2  0
 25 27  1  0
 27 28  2  0
 27 29  1  0
 28 30  1  0
 29 31  2  0
 30 32  2  0
 30 35  1  0
 31 32  1  0
 31 33  1  0
 32 34  1  0
 35 36  1  0
 36 37  1  0
 36 43  2  0
 37 38  2  0
 37 39  1  0
 38 40  1  0
 39 41  2  0
 40 42  2  0
 40 44  1  0
 41 42  1  0
 41 46  1  0
 42 45  1  0
 47 48  1  0
 47 49  1  0
 47 99  1  0
 48 50  1  0
 48 53  1  0
 49 51  1  0
 50 52  1  0
 51 52  1  0
 51 76  1  0
 53 54  1  0
 54 55  2  0
 54 56  1  0
 56 57  2  0
 56 58  1  0
 57 59  1  0
 58 60  2  0
 59 61  2  0
 59 64  1  0
 60 61  1  0
 60 62  1  0
 61 63  1  0
 64 65  1  0
 65 66  1  0
 65 72  2  0
 66 67  2  0
 66 68  1  0
 67 69  1  0
 68 70  2  0
 69 71  2  0
 69 73  1  0
 70 71  1  0
 70 75  1  0
 71 74  1  0
 76 77  1  0
 77 78  2  0
 77 79  1  0
 79 80  2  0
 79 81  1  0
 80 82  1  0
 81 83  2  0
 82 84  2  0
 82 87  1  0
 83 84  1  0
 83 85  1  0
 84 86  1  0
 87 88  1  0
 88 89  1  0
 88 95  2  0
 89 90  2  0
 89 91  1  0
 90 92  1  0
 91 93  2  0
 92 94  2  0
 92 96  1  0
 93 94  1  0
 93 98  1  0
 94 97  1  0
 99100  1  0
100101  1  0
101102  1  0
101108  2  0
102103  2  0
102104  1  0
103105  1  0
104106  2  0
105107  2  0
105111  1  0
106107  1  0
106110  1  0
107109  1  0
111112  1  0
112113  1  0
112119  2  0
113114  2  0
113115  1  0
114116  1  0
115117  2  0
116118  2  0
116120  1  0
117118  1  0
117122  1  0
118121  1  0
  5123  1  0
  6124  1  0
 10125  1  0
 11126  1  0
 15127  1  0
 16128  1  0
 21129  1  0
 22130  1  0
 23131  1  0
 28132  1  0
 29133  1  0
 33134  1  0
 34135  1  0
 38136  1  0
 39137  1  0
 44138  1  0
 45139  1  0
 46140  1  0
 47141  1  0
 48142  1  0
 50143  1  0
 51144  1  0
 52145  1  0
 57146  1  0
 58147  1  0
 62148  1  0
 63149  1  0
 67150  1  0
 68151  1  0
 73152  1  0
 74153  1  0
 75154  1  0
 80155  1  0
 81156  1  0
 85157  1  0
 86158  1  0
 90159  1  0
 91160  1  0
 96161  1  0
 97162  1  0
 98163  1  0
 99164  1  0
 99165  1  0
103166  1  0
104167  1  0
109168  1  0
110169  1  0
114170  1  0
115171  1  0
120172  1  0
121173  1  0
122174  1  0
V    1 0
V    2 1
V    3 2
V    4 3
V    5 4
V    6 5
V    7 6
V    8 7
V    9 8
V   10 9
V   11 10
V   12 11
V   13 12
V   14 13
V   15 14
V   16 15
V   17 16
V   18 17
V   19 18
V   20 19
V   21 20
V   22 21
V   23 22
V   24 23
V   25 24
V   26 25
V   27 26
V   28 27
V   29 28
V   30 29
V   31 30
V   32 31
V   33 32
V   34 33
V   35 34
V   36 35
V   37 36
V   38 37
V   39 38
V   40 39
V   41 40
V   42 41
V   43 42
V   44 43
V   45 44
V   46 45
V   47 46
V   48 47
V   49 48
V   50 49
V   51 50
V   52 51
V   53 52
V   54 53
V   55 54
V   56 55
V   57 56
V   58 57
V   59 58
V   60 59
V   61 60
V   62 61
V   63 62
V   64 63
V   65 64
V   66 65
V   67 66
V   68 67
V   69 68
V   70 69
V   71 70
V   72 71
V   73 72
V   74 73
V   75 74
V   76 75
V   77 76
V   78 77
V   79 78
V   80 79
V   81 80
V   82 81
V   83 82
V   84 83
V   85 84
V   86 85
V   87 86
V   88 87
V   89 88
V   90 89
V   91 90
V   92 91
V   93 92
V   94 93
V   95 94
V   96 95
V   97 96
V   98 97
V   99 98
V  100 99
V  101 100
V  102 101
V  103 102
V  104 103
V  105 104
V  106 105
V  107 106
V  108 107
V  109 108
V  110 109
V  111 110
V  112 111
V  113 112
V  114 113
V  115 114
V  116 115
V  117 116
V  118 117
V  119 118
V  120 119
V  121 120
V  122 121
M  END
> <DSSTox_RID>
65777

> <DSSTox_CID>
6076

> <DSSTox_CID_Parent>
6076

> <DSSTox_Generic_SID>
26076

> <DSSTox_FileID>
515_TXCST2_v1a

> <STRUCTURE_Formula>
C76H52O46

> <STRUCTURE_MolecularWeight>
1701.1985

> <STRUCTURE_ChemicalType>
defined organic

> <STRUCTURE_TestedForm_DefinedOrganic>
parent

> <STRUCTURE_Shown>
tested chemical

> <TestSubstance_ChemicalName>
Tannic acid

> <TestSubstance_CASRN>
1401-55-4

> <TestSubstance_Description>
single chemical compound

> <ChemicalNote>
gallic acid derivatives found in nutgalls; bark and other plant parts; especially oak bark.

> <STRUCTURE_ChemicalName_IUPAC>
1,2,3,4,6-penta-O-(3,4-dihydroxy-5-[(3,4,5-trihydroxybenzoyl)oxy]benzoyl)-beta-D-glucopyranose

> <STRUCTURE_SMILES>
O=C(C2=CC(O)=C(O)C(OC(C3=CC(O)=C(O)C(O)=C3)=O)=C2)O[C@H]1[C@H](OC(C6=CC(O)=C(O)C(OC(C7=CC(O)=C(O)C(O)=C7)=O)=C6)=O)[C@@H](COC(C%10=CC(O)=C(O)C(OC(C%11=CC(O)=C(O)C(O)=C%11)=O)=C%10)=O)O[C@@H](OC(C8=CC(
O)=C(O)C(OC(C9=CC(O)=C(O)C(O)=C9)=O)=C8)=O)[C@@H]1OC(C4=CC(O)=C(O)C(OC(C5=CC(O)=C(O)C(O)=C5)=O)=C4)=O

> <STRUCTURE_Parent_SMILES>
O=C(C2=CC(O)=C(O)C(OC(C3=CC(O)=C(O)C(O)=C3)=O)=C2)O[C@H]1[C@H](OC(C6=CC(O)=C(O)C(OC(C7=CC(O)=C(O)C(O)=C7)=O)=C6)=O)[C@@H](COC(C%10=CC(O)=C(O)C(OC(C%11=CC(O)=C(O)C(O)=C%11)=O)=C%10)=O)O[C@@H](OC(C8=CC(
O)=C(O)C(OC(C9=CC(O)=C(O)C(O)=C9)=O)=C8)=O)[C@@H]1OC(C4=CC(O)=C(O)C(OC(C5=CC(O)=C(O)C(O)=C5)=O)=C4)=O

> <STRUCTURE_InChIS>
InChI=1S/C76H52O46/c77-32-1-22(2-33(78)53(32)92)67(103)113-47-16-27(11-42(87)58(47)97)66(102)112-21-52-63(119-72(108)28-12-43(88)59(98)48(17-28)114-68(104)23-3-34(79)54(93)35(80)4-23)64(120-73(109)29-
13-44(89)60(99)49(18-29)115-69(105)24-5-36(81)55(94)37(82)6-24)65(121-74(110)30-14-45(90)61(100)50(19-30)116-70(106)25-7-38(83)56(95)39(84)8-25)76(118-52)122-75(111)31-15-46(91)62(101)51(20-31)117-71(
107)26-9-40(85)57(96)41(86)10-26/h1-20,52,63-65,76-101H,21H2/t52-,63-,64+,65-,76+/m1/s1

> <STRUCTURE_InChIKey>
LRBQNJMCXXYXIU-PPKXGCFTSA-N

> <Substance_modify_yyyymmdd>
21010223

> <Coord_Metals>
0

> <Index>
515

> <Canonical_Smiles>
Oc1cc(cc(O)c1O)C(=O)Oc2cc(cc(O)c2O)C(=O)OCC3OC(OC(=O)c4cc(O)c(O)c(OC(=O)c5cc(O)c(O)c(O)c5)c4)C(OC(=O)c6cc(O)c(O)c(OC(=O)c7cc(O)c(O)c(O)c7)c6)C(OC(=O)c8cc(O)c(O)c(OC(=O)c9cc(O)c(O)c(O)c9)c8)C3OC(=O)c%1
0cc(O)c(O)c(OC(=O)c%11cc(O)c(O)c(O)c%11)c%10

> <Molecular_Weight>
1701.19847

> <Frequency>
1

$$$$

  SciTegic          2D

 33 34  0  0  0  0            999 V2000
    3.2283   -1.2715    0.0000 C   0  0
    4.1926   -2.4215    0.0000 C   0  0
    2.7012   -2.7078    0.0000 C   0  0
    1.7503   -1.5321    0.0000 C   0  0
    1.2372   -0.1226    0.0000 C   0  0
   -0.2400    0.1379    0.0000 C   0  0
   -0.6504    1.2655    0.0000 Br  0  0
   -1.2042   -1.0112    0.0000 C   0  0
   -2.6827   -0.7536    0.0000 O   0  0
   -0.6911   -2.4207    0.0000 C   0  0
   -1.4625   -3.3400    0.0000 Br  0  0
    0.7861   -2.6812    0.0000 C   0  0
    3.7425    0.1385    0.0000 C   0  0
    5.2196   -0.1229    0.0000 C   0  0
    6.1845    1.0255    0.0000 C   0  0
    7.3661    0.8164    0.0000 Br  0  0
    5.6723    2.4354    0.0000 C   0  0
    6.6354    3.5865    0.0000 O   0  0
    4.1953    2.6968    0.0000 C   0  0
    3.7856    3.8247    0.0000 Br  0  0
    3.2304    1.5483    0.0000 C   0  0
    5.1776   -2.2487    0.0000 H   0  0
    3.8500   -3.3609    0.0000 H   0  0
    4.8348   -3.1880    0.0000 H   0  0
    1.7161   -2.8795    0.0000 H   0  0
    3.3422   -3.4754    0.0000 H   0  0
    2.3572   -3.6468    0.0000 H   0  0
    1.8800    0.6435    0.0000 H   0  0
   -3.3244   -1.5206    0.0000 H   0  0
    1.1281   -3.6209    0.0000 H   0  0
    5.5610   -1.0628    0.0000 H   0  0
    6.2926    4.5259    0.0000 H   0  0
    2.2457    1.7226    0.0000 H   0  0
  1  2  1  0
  1  3  1  0
  1  4  1  0
  1 13  1  0
  4  5  2  0
  4 12  1  0
  5  6  1  0
  6  7  1  0
  6  8  2  0
  8  9  1  0
  8 10  1  0
 10 11  1  0
 10 12  2  0
 13 14  2  0
 13 21  1  0
 14 15  1  0
 15 16  1  0
 15 17  2  0
 17 18  1  0
 17 19  1  0
 19 20  1  0
 19 21  2  0
  2 22  1  0
  2 23  1  0
  2 24  1  0
  3 25  1  0
  3 26  1  0
  3 27  1  0
  5 28  1  0
  9 29  1  0
 12 30  1  0
 14 31  1  0
 18 32  1  0
 21 33  1  0
V    1 0
V    2 1
V    3 2
V    4 3
V    5 4
V    6 5
V    7 6
V    8 7
V    9 8
V   10 9
V   11 10
V   12 11
V   13 12
V   14 13
V   15 14
V   16 15
V   17 16
V   18 17
V   19 18
V   20 19
V   21 20
M  END
> <DSSTox_RID>
60513

> <DSSTox_CID>
6081

> <DSSTox_CID_Parent>
6081

> <DSSTox_Generic_SID>
26081

> <DSSTox_FileID>
516_TXCST2_v1a

> <STRUCTURE_Formula>
C15H12Br4O2

> <STRUCTURE_MolecularWeight>
543.8706

> <STRUCTURE_ChemicalType>
defined organic

> <STRUCTURE_TestedForm_DefinedOrganic>
parent

> <STRUCTURE_Shown>
tested chemical

> <TestSubstance_ChemicalName>
3,3',5,5'-Tetrabromobisphenol A

> <TestSubstance_CASRN>
79-94-7

> <TestSubstance_Description>
single chemical compound

> <STRUCTURE_ChemicalName_IUPAC>
4,4'-propane-2,2-diylbis(2,6-dibromophenol)

> <STRUCTURE_SMILES>
C(C)(C)(c1cc(Br)c(O)c(Br)c1)c2cc(Br)c(O)c(Br)c2

> <STRUCTURE_Parent_SMILES>
C(C)(C)(c1cc(Br)c(O)c(Br)c1)c2cc(Br)c(O)c(Br)c2

> <STRUCTURE_InChIS>
InChI=1S/C15H12Br4O2/c1-15(2,7-3-9(16)13(20)10(17)4-7)8-5-11(18)14(21)12(19)6-8/h3-6,20-21H,1-2H3

> <STRUCTURE_InChIKey>
VEORPZCZECFIRK-UHFFFAOYSA-N

> <Substance_modify_yyyymmdd>
20080429

> <Coord_Metals>
0

> <Index>
516

> <Canonical_Smiles>
CC(C)(c1cc(Br)c(O)c(Br)c1)c2cc(Br)c(O)c(Br)c2

> <Molecular_Weight>
543.87057

> <Frequency>
1

$$$$

  SciTegic          2D

 21 22  0  0  0  0            999 V2000
    0.2917    0.7475    0.0000 C   0  0
    0.2917   -0.7475    0.0000 C   0  0
   -1.0028    1.5132    0.0000 N   0  0
   -2.3155    0.7475    0.0000 C   0  0
   -2.3155   -0.7475    0.0000 N   0  0
    1.7138    1.2033    0.0000 N   0  0
   -1.0028   -1.5132    0.0000 C   0  0
    1.7138   -1.2033    0.0000 N   0  0
    2.5889    0.0182    0.0000 C   0  0
   -3.3560    1.3452    0.0000 O   0  0
   -0.9991   -2.7132    0.0000 O   0  0
   -0.9940    3.0137    0.0000 C   0  0
    2.1825   -2.6263    0.0000 C   0  0
   -3.1826   -1.2456    0.0000 H   0  0
    3.5889    0.0254    0.0000 H   0  0
   -0.1254    3.5092    0.0000 H   0  0
   -1.8573    3.5185    0.0000 H   0  0
   -0.9886    4.0137    0.0000 H   0  0
    1.5169   -3.3726    0.0000 H   0  0
    3.1616   -2.8300    0.0000 H   0  0
    2.4958   -3.5760    0.0000 H   0  0
  1  2  2  0
  1  3  1  0
  1  6  1  0
  2  7  1  0
  2  8  1  0
  3  4  1  0
  3 12  1  0
  4  5  1  0
  4 10  2  0
  5  7  1  0
  6  9  2  0
  7 11  2  0
  8 13  1  0
  8  9  1  0
  5 14  1  0
  9 15  1  0
 12 16  1  0
 12 17  1  0
 12 18  1  0
 13 19  1  0
 13 20  1  0
 13 21  1  0
V    1 0
V    2 1
V    3 2
V    4 3
V    5 4
V    6 5
V    7 6
V    8 7
V    9 8
V   10 9
V   11 10
V   12 11
V   13 12
M  END
> <DSSTox_RID>
60387

> <DSSTox_CID>
6132

> <DSSTox_CID_Parent>
6132

> <DSSTox_Generic_SID>
26132

> <DSSTox_FileID>
517_TXCST2_v1a

> <STRUCTURE_Formula>
C7H8N4O2

> <STRUCTURE_MolecularWeight>
180.164

> <STRUCTURE_ChemicalType>
defined organic

> <STRUCTURE_TestedForm_DefinedOrganic>
parent

> <STRUCTURE_Shown>
tested chemical

> <TestSubstance_ChemicalName>
Theobromine

> <TestSubstance_CASRN>
83-67-0

> <TestSubstance_Description>
single chemical compound

> <Source_ChemicalNote>
tested chemical contained 0.043% water

> <STRUCTURE_ChemicalName_IUPAC>
3,7-dimethyl-3,7-dihydro-1H-purine-2,6-dione

> <STRUCTURE_SMILES>
N1C(=O)N(C)c2ncn(C)c2C1(=O)

> <STRUCTURE_Parent_SMILES>
N1C(=O)N(C)c2ncn(C)c2C1(=O)

> <STRUCTURE_InChIS>
InChI=1S/C7H8N4O2/c1-10-3-8-5-4(10)6(12)9-7(13)11(5)2/h3H,1-2H3,(H,9,12,13)

> <STRUCTURE_InChIKey>
YAPQBXQYLJRXSA-UHFFFAOYSA-N

> <Substance_modify_yyyymmdd>
20080429

> <Coord_Metals>
0

> <Index>
517

> <Canonical_Smiles>
CN1C(=O)NC(=O)c2c1ncn2C

> <Molecular_Weight>
180.16401

> <Frequency>
1

$$$$

  SciTegic          2D

 19 19  0  0  0  0            999 V2000
    1.2990   -0.7500    0.0000 C   0  0
    1.2990    0.7500    0.0000 C   0  0
    0.0000    1.5000    0.0000 C   0  0
   -1.2990    0.7500    0.0000 C   0  0
   -1.2990   -0.7500    0.0000 C   0  0
    0.0000   -1.5000    0.0000 C   0  0
   -1.3039   -3.7494    0.0000 C   0  0
   -0.0031   -3.0008    0.0000 N   0  0
   -2.3440   -4.3479    0.0000 O   0  0
   -3.8990    0.7455    0.0000 C   0  0
   -2.6003    1.4977    0.0000 N   0  0
   -4.9374    0.1440    0.0000 O   0  0
    2.5988   -1.5004    0.0000 C   0  0
    2.1651    1.2500    0.0000 H   0  0
    0.0000    2.5000    0.0000 H   0  0
   -2.1651   -1.2500    0.0000 H   0  0
    3.4651   -1.0010    0.0000 H   0  0
    2.5985   -2.5004    0.0000 H   0  0
    3.4646   -2.0008    0.0000 H   0  0
  1  2  2  0
  1  6  1  0
  1 13  1  0
  2  3  1  0
  3  4  2  0
  4  5  1  0
  4 11  1  0
  5  6  2  0
  6  8  1  0
  7  8  2  0
  7  9  2  0
 10 11  2  0
 10 12  2  0
  2 14  1  0
  3 15  1  0
  5 16  1  0
 13 17  1  0
 13 18  1  0
 13 19  1  0
V    1 0
V    2 1
V    3 2
V    4 3
V    5 4
V    6 5
V    7 6
V    8 7
V    9 8
V   10 9
V   11 10
V   12 11
V   13 12
M  END
> <DSSTox_RID>
60173

> <DSSTox_CID>
1361

> <DSSTox_CID_Parent>
1361

> <DSSTox_Generic_SID>
26156

> <DSSTox_FileID>
518_TXCST2_v1a

> <STRUCTURE_Formula>
C9H6N2O2

> <STRUCTURE_MolecularWeight>
174.1561

> <STRUCTURE_ChemicalType>
defined organic

> <STRUCTURE_TestedForm_DefinedOrganic>
parent

> <STRUCTURE_Shown>
tested chemical

> <TestSubstance_ChemicalName>
Toluene-2,4-diisocyanate

> <TestSubstance_CASRN>
584-84-9

> <TestSubstance_Description>
single chemical compound

> <STRUCTURE_ChemicalName_IUPAC>
2,4-diisocyanato-1-methylbenzene

> <STRUCTURE_SMILES>
O=C=NC1=CC(N=C=O)=CC=C1C

> <STRUCTURE_Parent_SMILES>
O=C=NC1=CC(N=C=O)=CC=C1C

> <STRUCTURE_InChIS>
InChI=1S/C9H6N2O2/c1-7-2-3-8(10-5-12)4-9(7)11-6-13/h2-4H,1H3

> <STRUCTURE_InChIKey>
DVKJHBMWWAPEIU-UHFFFAOYSA-N

> <Substance_modify_yyyymmdd>
20080429

> <Coord_Metals>
0

> <Index>
518

> <Canonical_Smiles>
Cc1ccc(cc1N=C=O)N=C=O

> <Molecular_Weight>
174.15613

> <Frequency>
1

$$$$

  SciTegic          2D

 17 17  0  0  0  0            999 V2000
    2.5973   -1.5031    0.0000 N   0  0
    1.2990   -0.7500    0.0000 C   0  0
    1.2990    0.7500    0.0000 C   0  0
    0.0000    1.5000    0.0000 C   0  0
   -1.2990    0.7500    0.0000 C   0  0
   -1.2990   -0.7500    0.0000 C   0  0
    2.5988    1.5004    0.0000 C   0  0
    0.0000   -1.5000    0.0000 C   0  0
    2.5958   -2.5031    0.0000 H   0  0
    3.4642   -1.0046    0.0000 H   0  0
    0.0000    2.5000    0.0000 H   0  0
   -2.1651    1.2500    0.0000 H   0  0
   -2.1651   -1.2500    0.0000 H   0  0
    3.4651    1.0010    0.0000 H   0  0
    2.5985    2.5004    0.0000 H   0  0
    3.4646    2.0008    0.0000 H   0  0
    0.0000   -2.5000    0.0000 H   0  0
  1  2  1  0
  2  3  2  0
  2  8  1  0
  3  4  1  0
  3  7  1  0
  4  5  2  0
  5  6  1  0
  6  8  2  0
  1  9  1  0
  1 10  1  0
  4 11  1  0
  5 12  1  0
  6 13  1  0
  7 14  1  0
  7 15  1  0
  7 16  1  0
  8 17  1  0
V    1 0
V    2 1
V    3 2
V    4 3
V    5 4
V    6 5
V    7 6
V    8 7
M  END
> <DSSTox_RID>
60393

> <DSSTox_CID>
6164

> <DSSTox_CID_Parent>
6164

> <DSSTox_Generic_SID>
26164

> <DSSTox_FileID>
519_TXCST2_v1a

> <STRUCTURE_Formula>
C7H9N

> <STRUCTURE_MolecularWeight>
107.1531

> <STRUCTURE_ChemicalType>
defined organic

> <STRUCTURE_TestedForm_DefinedOrganic>
parent

> <STRUCTURE_Shown>
tested chemical

> <TestSubstance_ChemicalName>
2-Methylaniline

> <TestSubstance_CASRN>
95-53-4

> <TestSubstance_Description>
single chemical compound

> <STRUCTURE_ChemicalName_IUPAC>
o-toluidine

> <STRUCTURE_SMILES>
Nc(c(ccc1)C)c1

> <STRUCTURE_Parent_SMILES>
Nc(c(ccc1)C)c1

> <STRUCTURE_InChIS>
InChI=1S/C7H9N/c1-6-4-2-3-5-7(6)8/h2-5H,8H2,1H3

> <STRUCTURE_InChIKey>
RNVCVTLRINQCPJ-UHFFFAOYSA-N

> <Substance_modify_yyyymmdd>
20080429

> <Coord_Metals>
0

> <Index>
519

> <Canonical_Smiles>
Cc1ccccc1N

> <Molecular_Weight>
107.15306

> <Frequency>
1

$$$$

  SciTegic          2D

 40 39  0  0  0  0            999 V2000
    6.5000    0.7500    0.0000 N   0  0
    5.2000    0.0000    0.0000 C   0  0
    3.9000    0.7500    0.0000 C   0  0
    2.6000    0.0000    0.0000 C   0  0
    1.3000    0.7500    0.0000 C   0  0
    7.7999    0.0000    0.0000 C   0  0
    9.0999    0.7500    0.0000 C   0  0
   10.3999    0.0000    0.0000 C   0  0
   11.6999    0.7500    0.0000 C   0  0
    6.5030    2.2508    0.0000 C   0  0
    7.8039    2.9994    0.0000 C   0  0
    7.8069    4.5002    0.0000 C   0  0
    9.1078    5.2488    0.0000 C   0  0
    6.0659   -0.5001    0.0000 H   0  0
    5.2000   -1.0000    0.0000 H   0  0
    3.0340    1.2501    0.0000 H   0  0
    3.9000    1.7500    0.0000 H   0  0
    1.7340   -0.5001    0.0000 H   0  0
    2.6000   -1.0000    0.0000 H   0  0
    0.4338    0.2503    0.0000 H   0  0
    0.4340    1.2501    0.0000 H   0  0
    1.3000    1.7500    0.0000 H   0  0
    6.9340   -0.5001    0.0000 H   0  0
    7.7999   -1.0000    0.0000 H   0  0
    8.2340    1.2501    0.0000 H   0  0
    9.0999    1.7500    0.0000 H   0  0
    9.5340   -0.5001    0.0000 H   0  0
   10.3999   -1.0000    0.0000 H   0  0
   12.5661    0.2503    0.0000 H   0  0
   12.5659    1.2501    0.0000 H   0  0
   11.6999    1.7500    0.0000 H   0  0
    5.6361    1.7525    0.0000 H   0  0
    5.6379    2.7523    0.0000 H   0  0
    7.8023    1.9994    0.0000 H   0  0
    8.6690    2.4979    0.0000 H   0  0
    6.9400    4.0019    0.0000 H   0  0
    6.9418    5.0017    0.0000 H   0  0
    9.1098    6.2488    0.0000 H   0  0
    9.9747    5.7471    0.0000 H   0  0
    9.9729    4.7473    0.0000 H   0  0
  1  2  1  0
  1  6  1  0
  1 10  1  0
  2  3  1  0
  3  4  1  0
  4  5  1  0
  6  7  1  0
  7  8  1  0
  8  9  1  0
 10 11  1  0
 11 12  1  0
 12 13  1  0
  2 14  1  0
  2 15  1  0
  3 16  1  0
  3 17  1  0
  4 18  1  0
  4 19  1  0
  5 20  1  0
  5 21  1  0
  5 22  1  0
  6 23  1  0
  6 24  1  0
  7 25  1  0
  7 26  1  0
  8 27  1  0
  8 28  1  0
  9 29  1  0
  9 30  1  0
  9 31  1  0
 10 32  1  0
 10 33  1  0
 11 34  1  0
 11 35  1  0
 12 36  1  0
 12 37  1  0
 13 38  1  0
 13 39  1  0
 13 40  1  0
V    1 0
V    2 1
V    3 2
V    4 3
V    5 4
V    6 5
V    7 6
V    8 7
V    9 8
V   10 9
V   11 10
V   12 11
V   13 12
M  END
> <DSSTox_RID>
66568

> <DSSTox_CID>
6183

> <DSSTox_CID_Parent>
6183

> <DSSTox_Generic_SID>
26183

> <DSSTox_FileID>
520_TXCST2_v1a

> <STRUCTURE_Formula>
C12H27N

> <STRUCTURE_MolecularWeight>
185.3495

> <STRUCTURE_ChemicalType>
defined organic

> <STRUCTURE_TestedForm_DefinedOrganic>
parent

> <STRUCTURE_Shown>
tested chemical

> <TestSubstance_ChemicalName>
Tributylamine

> <TestSubstance_CASRN>
102-82-9

> <TestSubstance_Description>
single chemical compound

> <STRUCTURE_ChemicalName_IUPAC>
N,N-dibutylbutan-1-amine

> <STRUCTURE_SMILES>
N(CCCC)(CCCC)CCCC

> <STRUCTURE_Parent_SMILES>
N(CCCC)(CCCC)CCCC

> <STRUCTURE_InChIS>
InChI=1S/C12H27N/c1-4-7-10-13(11-8-5-2)12-9-6-3/h4-12H2,1-3H3

> <STRUCTURE_InChIKey>
IMFACGCPASFAPR-UHFFFAOYSA-N

> <Substance_modify_yyyymmdd>
20080429

> <Coord_Metals>
0

> <Index>
520

> <Canonical_Smiles>
CCCCN(CCCC)CCCC

> <Molecular_Weight>
185.34947

> <Frequency>
1

$$$$

  SciTegic          2D

 12 12  0  0  0  0            999 V2000
    2.3383   -1.3500    0.0000 Cl  0  0
    1.2990   -0.7500    0.0000 C   0  0
    1.2990    0.7500    0.0000 C   0  0
    2.3383    1.3500    0.0000 Cl  0  0
    0.0000    1.5000    0.0000 C   0  0
   -1.2990    0.7500    0.0000 C   0  0
   -1.2990   -0.7500    0.0000 C   0  0
    0.0000   -1.5000    0.0000 C   0  0
    0.0000   -2.7000    0.0000 Cl  0  0
    0.0000    2.5000    0.0000 H   0  0
   -2.1651    1.2500    0.0000 H   0  0
   -2.1651   -1.2500    0.0000 H   0  0
  1  2  1  0
  2  3  2  0
  2  8  1  0
  3  4  1  0
  3  5  1  0
  5  6  2  0
  6  7  1  0
  7  8  2  0
  8  9  1  0
  5 10  1  0
  6 11  1  0
  7 12  1  0
V    1 0
V    2 1
V    3 2
V    4 3
V    5 4
V    6 5
V    7 6
V    8 7
V    9 8
M  END
> <DSSTox_RID>
65583

> <DSSTox_CID>
6193

> <DSSTox_CID_Parent>
6193

> <DSSTox_Generic_SID>
26193

> <DSSTox_FileID>
521_TXCST2_v1a

> <STRUCTURE_Formula>
C6H3Cl3

> <STRUCTURE_MolecularWeight>
181.447

> <STRUCTURE_ChemicalType>
defined organic

> <STRUCTURE_TestedForm_DefinedOrganic>
parent

> <STRUCTURE_Shown>
tested chemical

> <TestSubstance_ChemicalName>
1,2,3-Trichlorobenzene

> <TestSubstance_CASRN>
87-61-6

> <TestSubstance_Description>
single chemical compound

> <STRUCTURE_ChemicalName_IUPAC>
1,2,3-trichlorobenzene

> <STRUCTURE_SMILES>
Clc1c(Cl)cccc1Cl

> <STRUCTURE_Parent_SMILES>
Clc1c(Cl)cccc1Cl

> <STRUCTURE_InChIS>
InChI=1S/C6H3Cl3/c7-4-2-1-3-5(8)6(4)9/h1-3H

> <STRUCTURE_InChIKey>
RELMFMZEBKVZJC-UHFFFAOYSA-N

> <Substance_modify_yyyymmdd>
20080429

> <Coord_Metals>
0

> <Index>
521

> <Canonical_Smiles>
Clc1cccc(Cl)c1Cl

> <Molecular_Weight>
181.44701

> <Frequency>
1

$$$$

  SciTegic          2D

 28 29  0  0  0  0            999 V2000
    1.5548   -3.6021    0.0000 O   0  0
    2.5951   -3.0039    0.0000 C   0  0
    2.5973   -1.5031    0.0000 N   0  0
    1.2990   -0.7500    0.0000 C   0  0
    1.2990    0.7500    0.0000 C   0  0
    0.0000    1.5000    0.0000 C   0  0
   -1.2990    0.7500    0.0000 C   0  0
   -1.2990   -0.7500    0.0000 C   0  0
   -2.3383    1.3500    0.0000 Cl  0  0
    0.0000   -1.5000    0.0000 C   0  0
    3.8933   -3.7570    0.0000 N   0  0
    3.8912   -5.2578    0.0000 C   0  0
    5.1876   -6.0124    0.0000 C   0  0
    5.1824   -7.5124    0.0000 C   0  0
    3.8808   -8.2579    0.0000 C   0  0
    2.5844   -7.5034    0.0000 C   0  0
    1.5431   -8.0998    0.0000 Cl  0  0
    3.8767   -9.4579    0.0000 Cl  0  0
    2.5895   -6.0034    0.0000 C   0  0
    3.4642   -1.0046    0.0000 H   0  0
    2.1651    1.2500    0.0000 H   0  0
    0.0000    2.5000    0.0000 H   0  0
   -2.1651   -1.2500    0.0000 H   0  0
    0.0000   -2.5000    0.0000 H   0  0
    4.7602   -3.2585    0.0000 H   0  0
    6.0554   -5.5154    0.0000 H   0  0
    6.0467   -8.0154    0.0000 H   0  0
    1.7252   -5.5004    0.0000 H   0  0
  1  2  2  0
  2  3  1  0
  2 11  1  0
  3  4  1  0
  4  5  2  0
  4 10  1  0
  5  6  1  0
  6  7  2  0
  7  8  1  0
  7  9  1  0
  8 10  2  0
 11 12  1  0
 12 13  2  0
 12 19  1  0
 13 14  1  0
 14 15  2  0
 15 16  1  0
 15 18  1  0
 16 17  1  0
 16 19  2  0
  3 20  1  0
  5 21  1  0
  6 22  1  0
  8 23  1  0
 10 24  1  0
 11 25  1  0
 13 26  1  0
 14 27  1  0
 19 28  1  0
V    1 0
V    2 1
V    3 2
V    4 3
V    5 4
V    6 5
V    7 6
V    8 7
V    9 8
V   10 9
V   11 10
V   12 11
V   13 12
V   14 13
V   15 14
V   16 15
V   17 16
V   18 17
V   19 18
M  END
> <DSSTox_RID>
66074

> <DSSTox_CID>
6214

> <DSSTox_CID_Parent>
6214

> <DSSTox_Generic_SID>
26214

> <DSSTox_FileID>
522_TXCST2_v1a

> <STRUCTURE_Formula>
C13H9Cl3N2O

> <STRUCTURE_MolecularWeight>
315.5824

> <STRUCTURE_ChemicalType>
defined organic

> <STRUCTURE_TestedForm_DefinedOrganic>
parent

> <STRUCTURE_Shown>
tested chemical

> <TestSubstance_ChemicalName>
Triclocarban

> <TestSubstance_CASRN>
101-20-2

> <TestSubstance_Description>
single chemical compound

> <STRUCTURE_ChemicalName_IUPAC>
N-(4-chlorophenyl)-N'-(3,4-dichlorophenyl)urea

> <STRUCTURE_SMILES>
O=C(Nc(ccc(c1)Cl)c1)Nc(ccc(c2Cl)Cl)c2

> <STRUCTURE_Parent_SMILES>
O=C(Nc(ccc(c1)Cl)c1)Nc(ccc(c2Cl)Cl)c2

> <STRUCTURE_InChIS>
InChI=1S/C13H9Cl3N2O/c14-8-1-3-9(4-2-8)17-13(19)18-10-5-6-11(15)12(16)7-10/h1-7H,(H2,17,18,19)

> <STRUCTURE_InChIKey>
ICUTUKXCWQYESQ-UHFFFAOYSA-N

> <Substance_modify_yyyymmdd>
20080429

> <Coord_Metals>
0

> <Index>
522

> <Canonical_Smiles>
Clc1ccc(NC(=O)Nc2ccc(Cl)c(Cl)c2)cc1

> <Molecular_Weight>
315.58236

> <Frequency>
1

$$$$

  SciTegic          2D

 34 33  0  0  0  0            999 V2000
   16.8999    1.9500    0.0000 O   0  0
   16.8999    0.7500    0.0000 C   0  0
   15.5999    0.0000    0.0000 O   0  0
   14.2999    0.7500    0.0000 C   0  0
   12.9999    0.0000    0.0000 C   0  0
   11.6999    0.7500    0.0000 O   0  0
   10.3999    0.0000    0.0000 C   0  0
    9.0999    0.7500    0.0000 C   0  0
    7.7999    0.0000    0.0000 O   0  0
    6.5000    0.7500    0.0000 C   0  0
    5.2000    0.0000    0.0000 C   0  0
    3.9000    0.7500    0.0000 O   0  0
    2.6000    0.0000    0.0000 C   0  0
    2.6000   -1.2000    0.0000 O   0  0
    1.3000    0.7500    0.0000 C   0  0
   18.1999    0.0000    0.0000 C   0  0
   14.2999    1.7500    0.0000 H   0  0
   15.1658    1.2501    0.0000 H   0  0
   12.9999   -1.0000    0.0000 H   0  0
   12.1340   -0.5001    0.0000 H   0  0
   10.3999   -1.0000    0.0000 H   0  0
   11.2659   -0.5001    0.0000 H   0  0
    9.0999    1.7500    0.0000 H   0  0
    8.2340    1.2501    0.0000 H   0  0
    6.5000    1.7500    0.0000 H   0  0
    7.3659    1.2501    0.0000 H   0  0
    5.2000   -1.0000    0.0000 H   0  0
    4.3340   -0.5001    0.0000 H   0  0
    0.4338    0.2503    0.0000 H   0  0
    1.3000    1.7500    0.0000 H   0  0
    0.4340    1.2501    0.0000 H   0  0
   19.0660    0.4997    0.0000 H   0  0
   18.1999   -1.0000    0.0000 H   0  0
   19.0658   -0.5001    0.0000 H   0  0
  1  2  2  0
  2  3  1  0
  2 16  1  0
  3  4  1  0
  4  5  1  0
  5  6  1  0
  6  7  1  0
  7  8  1  0
  8  9  1  0
  9 10  1  0
 10 11  1  0
 11 12  1  0
 12 13  1  0
 13 14  2  0
 13 15  1  0
  4 17  1  0
  4 18  1  0
  5 19  1  0
  5 20  1  0
  7 21  1  0
  7 22  1  0
  8 23  1  0
  8 24  1  0
 10 25  1  0
 10 26  1  0
 11 27  1  0
 11 28  1  0
 15 29  1  0
 15 30  1  0
 15 31  1  0
 16 32  1  0
 16 33  1  0
 16 34  1  0
V    1 0
V    2 1
V    3 2
V    4 3
V    5 4
V    6 5
V    7 6
V    8 7
V    9 8
V   10 9
V   11 10
V   12 11
V   13 12
V   14 13
V   15 14
V   16 15
M  END
> <DSSTox_RID>
60516

> <DSSTox_CID>
6223

> <DSSTox_CID_Parent>
6223

> <DSSTox_Generic_SID>
26223

> <DSSTox_FileID>
523_TXCST2_v1a

> <STRUCTURE_Formula>
C10H18O6

> <STRUCTURE_MolecularWeight>
234.2463

> <STRUCTURE_ChemicalType>
defined organic

> <STRUCTURE_TestedForm_DefinedOrganic>
parent

> <STRUCTURE_Shown>
tested chemical

> <TestSubstance_ChemicalName>
Triethylene glycol, diacetate

> <TestSubstance_CASRN>
111-21-7

> <TestSubstance_Description>
single chemical compound

> <STRUCTURE_ChemicalName_IUPAC>
ethane-1,2-diylbis(oxyethane-2,1-diyl) diacetate

> <STRUCTURE_SMILES>
O=C(OCCOCCOCCOC(=O)C)C

> <STRUCTURE_Parent_SMILES>
O=C(OCCOCCOCCOC(=O)C)C

> <STRUCTURE_InChIS>
InChI=1S/C10H18O6/c1-9(11)15-7-5-13-3-4-14-6-8-16-10(2)12/h3-8H2,1-2H3

> <STRUCTURE_InChIKey>
OVOUKWFJRHALDD-UHFFFAOYSA-N

> <Substance_modify_yyyymmdd>
20080429

> <Coord_Metals>
0

> <Index>
523

> <Canonical_Smiles>
CC(=O)OCCOCCOCCOC(=O)C

> <Molecular_Weight>
234.24631

> <Frequency>
1

$$$$

  SciTegic          2D

 30 29  0  0  0  0            999 V2000
    7.7999    0.0000    0.0000 C   0  0
    6.5000    0.7500    0.0000 O   0  0
    5.2000    0.0000    0.0000 C   0  0
    3.9000    0.7500    0.0000 C   0  0
    2.6000    0.0000    0.0000 O   0  0
    1.3000    0.7500    0.0000 C   0  0
    9.0999    0.7500    0.0000 C   0  0
   10.3999    0.0000    0.0000 O   0  0
   11.6999    0.7500    0.0000 C   0  0
   12.9999    0.0000    0.0000 C   0  0
   14.2999    0.7500    0.0000 O   0  0
   15.5999    0.0000    0.0000 C   0  0
    7.7999   -1.0000    0.0000 H   0  0
    6.9340   -0.5001    0.0000 H   0  0
    5.2000   -1.0000    0.0000 H   0  0
    6.0659   -0.5001    0.0000 H   0  0
    3.9000    1.7500    0.0000 H   0  0
    3.0340    1.2501    0.0000 H   0  0
    0.4338    0.2503    0.0000 H   0  0
    1.3000    1.7500    0.0000 H   0  0
    0.4340    1.2501    0.0000 H   0  0
    9.0999    1.7500    0.0000 H   0  0
    9.9659    1.2501    0.0000 H   0  0
   11.6999    1.7500    0.0000 H   0  0
   10.8340    1.2501    0.0000 H   0  0
   12.9999   -1.0000    0.0000 H   0  0
   13.8658   -0.5001    0.0000 H   0  0
   16.4661    0.4997    0.0000 H   0  0
   15.5999   -1.0000    0.0000 H   0  0
   16.4658   -0.5001    0.0000 H   0  0
  1  2  1  0
  1  7  1  0
  2  3  1  0
  3  4  1  0
  4  5  1  0
  5  6  1  0
  7  8  1  0
  8  9  1  0
  9 10  1  0
 10 11  1  0
 11 12  1  0
  1 13  1  0
  1 14  1  0
  3 15  1  0
  3 16  1  0
  4 17  1  0
  4 18  1  0
  6 19  1  0
  6 20  1  0
  6 21  1  0
  7 22  1  0
  7 23  1  0
  9 24  1  0
  9 25  1  0
 10 26  1  0
 10 27  1  0
 12 28  1  0
 12 29  1  0
 12 30  1  0
V    1 0
V    2 1
V    3 2
V    4 3
V    5 4
V    6 5
V    7 6
V    8 7
V    9 8
V   10 9
V   11 10
V   12 11
M  END
> <DSSTox_RID>
60409

> <DSSTox_CID>
6224

> <DSSTox_CID_Parent>
6224

> <DSSTox_Generic_SID>
26224

> <DSSTox_FileID>
524_TXCST2_v1a

> <STRUCTURE_Formula>
C8H18O4

> <STRUCTURE_MolecularWeight>
178.2261

> <STRUCTURE_ChemicalType>
defined organic

> <STRUCTURE_TestedForm_DefinedOrganic>
parent

> <STRUCTURE_Shown>
tested chemical

> <TestSubstance_ChemicalName>
Triethylene glycol dimethyl ether

> <TestSubstance_CASRN>
112-49-2

> <TestSubstance_Description>
single chemical compound

> <Source_ChemicalNote>
tested chemical was stabilized with 0.01% BHT

> <STRUCTURE_ChemicalName_IUPAC>
2,5,8,11-tetraoxadodecane

> <STRUCTURE_SMILES>
C(OCCOC)COCCOC

> <STRUCTURE_Parent_SMILES>
C(OCCOC)COCCOC

> <STRUCTURE_InChIS>
InChI=1S/C8H18O4/c1-9-3-5-11-7-8-12-6-4-10-2/h3-8H2,1-2H3

> <STRUCTURE_InChIKey>
YFNKIDBQEZZDLK-UHFFFAOYSA-N

> <Substance_modify_yyyymmdd>
20080429

> <Coord_Metals>
0

> <Index>
524

> <Canonical_Smiles>
COCCOCCOCCOC

> <Molecular_Weight>
178.22611

> <Frequency>
1

$$$$

  SciTegic          2D

 37 39  0  0  0  0            999 V2000
    2.5973   -1.5031    0.0000 O   0  0
    1.2990   -0.7500    0.0000 C   0  0
    1.2990    0.7500    0.0000 C   0  0
    0.0000    1.5000    0.0000 C   0  0
   -1.2990    0.7500    0.0000 C   0  0
   -1.2990   -0.7500    0.0000 C   0  0
    0.0000   -1.5000    0.0000 C   0  0
    2.5951   -3.0039    0.0000 P   0  0
    3.8933   -3.7570    0.0000 O   0  0
    5.1951   -3.0101    0.0000 C   0  0
    6.4937   -3.7609    0.0000 C   0  0
    7.7932   -3.0117    0.0000 C   0  0
    7.7942   -1.5117    0.0000 C   0  0
    6.4957   -0.7609    0.0000 C   0  0
    5.1961   -1.5100    0.0000 C   0  0
    1.2956   -3.7547    0.0000 O   0  0
    1.2951   -5.2556    0.0000 C   0  0
   -0.0026   -6.0079    0.0000 C   0  0
    0.0000   -7.5079    0.0000 C   0  0
    1.3003   -8.2557    0.0000 C   0  0
    2.5980   -7.5034    0.0000 C   0  0
    2.5955   -6.0034    0.0000 C   0  0
    2.1651    1.2500    0.0000 H   0  0
    0.0000    2.5000    0.0000 H   0  0
   -2.1651    1.2500    0.0000 H   0  0
   -2.1651   -1.2500    0.0000 H   0  0
    0.0000   -2.5000    0.0000 H   0  0
    6.4931   -4.7609    0.0000 H   0  0
    8.6589   -3.5123    0.0000 H   0  0
    8.6606   -1.0123    0.0000 H   0  0
    6.4963    0.2391    0.0000 H   0  0
    4.3305   -1.0094    0.0000 H   0  0
   -0.8695   -5.5094    0.0000 H   0  0
   -0.8652   -8.0094    0.0000 H   0  0
    1.3020   -9.2557    0.0000 H   0  0
    3.4649   -8.0019    0.0000 H   0  0
    3.4607   -5.5020    0.0000 H   0  0
  1  2  1  0
  1  8  1  0
  2  3  2  0
  2  7  1  0
  3  4  1  0
  4  5  2  0
  5  6  1  0
  6  7  2  0
  8  9  1  0
  8 16  1  0
  9 10  1  0
 10 11  2  0
 10 15  1  0
 11 12  1  0
 12 13  2  0
 13 14  1  0
 14 15  2  0
 16 17  1  0
 17 18  2  0
 17 22  1  0
 18 19  1  0
 19 20  2  0
 20 21  1  0
 21 22  2  0
  3 23  1  0
  4 24  1  0
  5 25  1  0
  6 26  1  0
  7 27  1  0
 11 28  1  0
 12 29  1  0
 13 30  1  0
 14 31  1  0
 15 32  1  0
 18 33  1  0
 19 34  1  0
 20 35  1  0
 21 36  1  0
 22 37  1  0
V    1 0
V    2 1
V    3 2
V    4 3
V    5 4
V    6 5
V    7 6
V    8 7
V    9 8
V   10 9
V   11 10
V   12 11
V   13 12
V   14 13
V   15 14
V   16 15
V   17 16
V   18 17
V   19 18
V   20 19
V   21 20
V   22 21
M  END
> <DSSTox_RID>
66026

> <DSSTox_CID>
6252

> <DSSTox_CID_Parent>
6252

> <DSSTox_Generic_SID>
26252

> <DSSTox_FileID>
525_TXCST2_v1a

> <STRUCTURE_Formula>
C18H15O3P

> <STRUCTURE_MolecularWeight>
310.2837

> <STRUCTURE_ChemicalType>
defined organic

> <STRUCTURE_TestedForm_DefinedOrganic>
parent

> <STRUCTURE_Shown>
tested chemical

> <TestSubstance_ChemicalName>
Triphenyl phosphite

> <TestSubstance_CASRN>
101-02-0

> <TestSubstance_Description>
single chemical compound

> <STRUCTURE_ChemicalName_IUPAC>
triphenyl phosphite

> <STRUCTURE_SMILES>
O(c(cccc1)c1)P(Oc(cccc2)c2)Oc(cccc3)c3

> <STRUCTURE_Parent_SMILES>
O(c(cccc1)c1)P(Oc(cccc2)c2)Oc(cccc3)c3

> <STRUCTURE_InChIS>
InChI=1S/C18H15O3P/c1-4-10-16(11-5-1)19-22(20-17-12-6-2-7-13-17)21-18-14-8-3-9-15-18/h1-15H

> <STRUCTURE_InChIKey>
HVLLSGMXQDNUAL-UHFFFAOYSA-N

> <Substance_modify_yyyymmdd>
20080429

> <Coord_Metals>
0

> <Index>
525

> <Canonical_Smiles>
O(P(Oc1ccccc1)Oc2ccccc2)c3ccccc3

> <Molecular_Weight>
310.28366

> <Frequency>
1

$$$$

  SciTegic          2D

 35 34  0  0  0  0            999 V2000
    5.2000   -1.2000    0.0000 O   0  0
    5.2000    0.0000    0.0000 P   0  0
    3.9000    0.7500    0.0000 O   0  0
    3.8985    2.2508    0.0000 C   0  0
    2.5986    3.0008    0.0000 C   0  0
    2.5974    4.2008    0.0000 Cl  0  0
    5.1978    3.0020    0.0000 C   0  0
    5.1978    4.0020    0.0000 Cl  0  0
    6.5000    0.7500    0.0000 O   0  0
    7.7999    0.0000    0.0000 C   0  0
    9.0999    0.7500    0.0000 C   0  0
   10.1394    0.1503    0.0000 Cl  0  0
    7.7999   -1.5007    0.0000 C   0  0
    6.7611   -2.1014    0.0000 Cl  0  0
    3.8760   -0.7669    0.0000 O   0  0
    3.8773   -2.2677    0.0000 C   0  0
    2.5786   -3.0200    0.0000 C   0  0
    2.5796   -4.2200    0.0000 Cl  0  0
    5.1778   -3.0166    0.0000 C   0  0
    6.2167   -2.4161    0.0000 Cl  0  0
    3.0328    1.7503    0.0000 H   0  0
    1.7321    3.5001    0.0000 H   0  0
    1.7328    2.5003    0.0000 H   0  0
    6.0637    3.5022    0.0000 H   0  0
    6.0639    2.5023    0.0000 H   0  0
    7.7999    1.0000    0.0000 H   0  0
    9.0999    1.7500    0.0000 H   0  0
    9.9659    1.2501    0.0000 H   0  0
    7.8004   -2.5007    0.0000 H   0  0
    8.6661   -2.0005    0.0000 H   0  0
    3.0107   -1.7687    0.0000 H   0  0
    1.7131   -3.5208    0.0000 H   0  0
    1.7120   -2.5210    0.0000 H   0  0
    6.0442   -3.5160    0.0000 H   0  0
    5.1786   -4.0166    0.0000 H   0  0
  1  2  2  0
  2  3  1  0
  2  9  1  0
  2 15  1  0
  3  4  1  0
  4  5  1  0
  4  7  1  0
  5  6  1  0
  7  8  1  0
  9 10  1  0
 10 11  1  0
 10 13  1  0
 11 12  1  0
 13 14  1  0
 15 16  1  0
 16 17  1  0
 16 19  1  0
 17 18  1  0
 19 20  1  0
  4 21  1  0
  5 22  1  0
  5 23  1  0
  7 24  1  0
  7 25  1  0
 10 26  1  0
 11 27  1  0
 11 28  1  0
 13 29  1  0
 13 30  1  0
 16 31  1  0
 17 32  1  0
 17 33  1  0
 19 34  1  0
 19 35  1  0
V    1 0
V    2 1
V    3 2
V    4 3
V    5 4
V    6 5
V    7 6
V    8 7
V    9 8
V   10 9
V   11 10
V   12 11
V   13 12
V   14 13
V   15 14
V   16 15
V   17 16
V   18 17
V   19 18
V   20 19
M  END
> <DSSTox_RID>
60405

> <DSSTox_CID>
6261

> <DSSTox_CID_Parent>
6261

> <DSSTox_Generic_SID>
26261

> <DSSTox_FileID>
526_TXCST2_v1a

> <STRUCTURE_Formula>
C9H15Cl6O4P

> <STRUCTURE_MolecularWeight>
430.9048

> <STRUCTURE_ChemicalType>
defined organic

> <STRUCTURE_TestedForm_DefinedOrganic>
parent

> <STRUCTURE_Shown>
tested chemical

> <TestSubstance_ChemicalName>
Tris(1,3-dichloro-2-propyl) phosphate

> <TestSubstance_CASRN>
13674-87-8

> <TestSubstance_Description>
single chemical compound

> <STRUCTURE_ChemicalName_IUPAC>
tris[2-chloro-1-(chloromethyl)ethyl] phosphate

> <STRUCTURE_SMILES>
O=P(OC(CCl)CCl)(OC(CCl)CCl)OC(CCl)CCl

> <STRUCTURE_Parent_SMILES>
O=P(OC(CCl)CCl)(OC(CCl)CCl)OC(CCl)CCl

> <STRUCTURE_InChIS>
InChI=1S/C9H15Cl6O4P/c10-1-7(2-11)17-20(16,18-8(3-12)4-13)19-9(5-14)6-15/h7-9H,1-6H2

> <STRUCTURE_InChIKey>
ASLWPAWFJZFCKF-UHFFFAOYSA-N

> <Substance_modify_yyyymmdd>
20080429

> <Coord_Metals>
0

> <Index>
526

> <Canonical_Smiles>
ClCC(CCl)OP(=O)(OC(CCl)CCl)OC(CCl)CCl

> <Molecular_Weight>
430.90476

> <Frequency>
1

$$$$

  SciTegic          2D

 36 39  0  0  0  0            999 V2000
    2.5988   -1.5004    0.0000 C   0  0
    3.8990   -0.7508    0.0000 C   0  0
    4.6496    0.4147    0.0000 C   0  0
    3.1496    0.4154    0.0000 O   0  0
    1.2990   -0.7500    0.0000 N   0  0
    1.2990    0.7500    0.0000 C   0  0
    2.3383    1.3500    0.0000 O   0  0
    0.0000    1.5000    0.0000 N   0  0
    0.0000    3.0008    0.0000 C   0  0
    1.2993    3.7521    0.0000 C   0  0
    2.6839    3.8193    0.0000 C   0  0
    1.9345    2.5199    0.0000 O   0  0
   -1.2990    0.7500    0.0000 C   0  0
   -2.3383    1.3500    0.0000 O   0  0
   -1.2990   -0.7500    0.0000 N   0  0
   -2.5988   -1.5004    0.0000 C   0  0
   -3.8990   -0.7508    0.0000 C   0  0
   -4.6496    0.4146    0.0000 C   0  0
   -3.1496    0.4154    0.0000 O   0  0
    0.0000   -1.5000    0.0000 C   0  0
    0.0000   -2.7000    0.0000 O   0  0
    2.5985   -2.5004    0.0000 H   0  0
    1.7327   -2.0003    0.0000 H   0  0
    4.7649   -1.2511    0.0000 H   0  0
    5.5097   -0.0954    0.0000 H   0  0
    4.6872    1.4140    0.0000 H   0  0
   -0.8662    3.5005    0.0000 H   0  0
   -0.8660    2.5007    0.0000 H   0  0
    1.2989    4.7521    0.0000 H   0  0
    2.6722    4.8193    0.0000 H   0  0
    3.5681    3.3523    0.0000 H   0  0
   -2.5985   -2.5004    0.0000 H   0  0
   -1.7327   -2.0003    0.0000 H   0  0
   -4.7649   -1.2511    0.0000 H   0  0
   -5.5097   -0.0954    0.0000 H   0  0
   -4.6872    1.4139    0.0000 H   0  0
  1  2  1  0
  1  5  1  0
  2  3  1  0
  2  4  1  0
  3  4  1  0
  5  6  1  0
  5 20  1  0
  6  7  2  0
  6  8  1  0
  8  9  1  0
  8 13  1  0
  9 10  1  0
 10 11  1  0
 10 12  1  0
 11 12  1  0
 13 14  2  0
 13 15  1  0
 15 16  1  0
 15 20  1  0
 16 17  1  0
 17 18  1  0
 17 19  1  0
 18 19  1  0
 20 21  2  0
  1 22  1  0
  1 23  1  0
  2 24  1  0
  3 25  1  0
  3 26  1  0
  9 27  1  0
  9 28  1  0
 10 29  1  0
 11 30  1  0
 11 31  1  0
 16 32  1  0
 16 33  1  0
 17 34  1  0
 18 35  1  0
 18 36  1  0
V    1 0
V    2 1
V    3 2
V    4 3
V    5 4
V    6 5
V    7 6
V    8 7
V    9 8
V   10 9
V   11 10
V   12 11
V   13 12
V   14 13
V   15 14
V   16 15
V   17 16
V   18 17
V   19 18
V   20 19
V   21 20
M  END
> <DSSTox_RID>
67069

> <DSSTox_CID>
6262

> <DSSTox_CID_Parent>
6262

> <DSSTox_Generic_SID>
26262

> <DSSTox_FileID>
527_TXCST2_v1a

> <STRUCTURE_Formula>
C12H15N3O6

> <STRUCTURE_MolecularWeight>
297.264

> <STRUCTURE_ChemicalType>
defined organic

> <STRUCTURE_TestedForm_DefinedOrganic>
parent

> <STRUCTURE_Shown>
tested chemical

> <TestSubstance_ChemicalName>
Triglycidyl isocyanurate

> <TestSubstance_CASRN>
2451-62-9

> <TestSubstance_Description>
single chemical compound

> <STRUCTURE_ChemicalName_IUPAC>
1,3,5-tris(oxiran-2-ylmethyl)-1,3,5-triazinane-2,4,6-trione

> <STRUCTURE_SMILES>
C(C1CO1)N2C(=O)N(CC3CO3)C(=O)N(CC4CO4)C2=O

> <STRUCTURE_Parent_SMILES>
C(C1CO1)N2C(=O)N(CC3CO3)C(=O)N(CC4CO4)C2=O

> <STRUCTURE_InChIS>
InChI=1S/C12H15N3O6/c16-10-13(1-7-4-19-7)11(17)15(3-9-6-21-9)12(18)14(10)2-8-5-20-8/h7-9H,1-6H2

> <STRUCTURE_InChIKey>
OUPZKGBUJRBPGC-UHFFFAOYSA-N

> <Substance_modify_yyyymmdd>
20080429

> <Coord_Metals>
0

> <Index>
527

> <Canonical_Smiles>
O=C1N(CC2CO2)C(=O)N(CC3CO3)C(=O)N1CC4CO4

> <Molecular_Weight>
297.264

> <Frequency>
1

$$$$

  SciTegic          2D

 93 93  0  0  0  0            999 V2000
    3.6375   -0.9049    0.0000 O   0  0
    2.5973   -1.5031    0.0000 C   0  0
    2.5951   -3.0039    0.0000 O   0  0
    3.8933   -3.7570    0.0000 C   0  0
    3.3780   -5.1666    0.0000 C   0  0
    4.3404   -6.3183    0.0000 C   0  0
    3.8250   -7.7278    0.0000 C   0  0
    4.7874   -8.8795    0.0000 C   0  0
    4.2721  -10.2891    0.0000 C   0  0
    4.8857   -4.9063    0.0000 C   0  0
    5.8469   -6.0589    0.0000 C   0  0
    1.2990   -0.7500    0.0000 C   0  0
    1.2990    0.7500    0.0000 C   0  0
    0.0000    1.5000    0.0000 C   0  0
   -1.2990    0.7500    0.0000 C   0  0
   -1.2990   -0.7500    0.0000 C   0  0
   -2.5972   -1.5031    0.0000 C   0  0
   -3.6375   -0.9049    0.0000 O   0  0
   -2.5951   -3.0039    0.0000 O   0  0
   -3.8933   -3.7570    0.0000 C   0  0
   -3.3780   -5.1666    0.0000 C   0  0
   -4.3403   -6.3183    0.0000 C   0  0
   -3.8250   -7.7279    0.0000 C   0  0
   -4.7873   -8.8795    0.0000 C   0  0
   -4.2720  -10.2891    0.0000 C   0  0
   -4.8856   -4.9064    0.0000 C   0  0
   -5.8469   -6.0590    0.0000 C   0  0
   -2.6003    1.4977    0.0000 C   0  0
   -2.6024    2.6977    0.0000 O   0  0
   -3.8990    0.7455    0.0000 O   0  0
   -5.2003    1.4932    0.0000 C   0  0
   -6.1634    0.3421    0.0000 C   0  0
   -7.6419    0.5997    0.0000 C   0  0
   -8.6050   -0.5514    0.0000 C   0  0
  -10.0836   -0.2938    0.0000 C   0  0
  -11.0466   -1.4449    0.0000 C   0  0
   -6.6919    1.7779    0.0000 C   0  0
   -8.1707    2.0341    0.0000 C   0  0
    0.0000   -1.5000    0.0000 C   0  0
    4.7602   -3.2585    0.0000 H   0  0
    3.8952   -2.7570    0.0000 H   0  0
    2.3929   -5.3385    0.0000 H   0  0
    4.6842   -5.3792    0.0000 H   0  0
    5.3255   -6.1463    0.0000 H   0  0
    3.1835   -6.9608    0.0000 H   0  0
    2.8399   -7.8998    0.0000 H   0  0
    5.1312   -7.9405    0.0000 H   0  0
    5.7725   -8.7076    0.0000 H   0  0
    4.9133  -11.0565    0.0000 H   0  0
    3.9283  -11.2281    0.0000 H   0  0
    3.2870  -10.4610    0.0000 H   0  0
    5.2308   -3.9678    0.0000 H   0  0
    4.2455   -4.1381    0.0000 H   0  0
    6.8324   -5.8889    0.0000 H   0  0
    5.5018   -6.9975    0.0000 H   0  0
    6.4870   -6.8272    0.0000 H   0  0
    2.1651    1.2500    0.0000 H   0  0
    0.0000    2.5000    0.0000 H   0  0
   -4.7602   -3.2585    0.0000 H   0  0
   -3.8952   -2.7570    0.0000 H   0  0
   -2.3929   -5.3385    0.0000 H   0  0
   -4.6841   -5.3792    0.0000 H   0  0
   -5.3254   -6.1463    0.0000 H   0  0
   -3.1834   -6.9608    0.0000 H   0  0
   -2.8399   -7.8998    0.0000 H   0  0
   -5.1311   -7.9405    0.0000 H   0  0
   -5.7724   -8.7076    0.0000 H   0  0
   -4.9132  -11.0565    0.0000 H   0  0
   -3.9282  -11.2282    0.0000 H   0  0
   -3.2869  -10.4611    0.0000 H   0  0
   -5.2308   -3.9678    0.0000 H   0  0
   -4.2455   -4.1381    0.0000 H   0  0
   -6.8323   -5.8889    0.0000 H   0  0
   -5.5017   -6.9975    0.0000 H   0  0
   -6.4870   -6.8272    0.0000 H   0  0
   -5.2021    2.4932    0.0000 H   0  0
   -4.3353    1.9948    0.0000 H   0  0
   -5.8197   -0.5970    0.0000 H   0  0
   -7.0006    1.3670    0.0000 H   0  0
   -7.9856    1.5388    0.0000 H   0  0
   -7.6199   -0.7235    0.0000 H   0  0
   -8.2614   -1.4905    0.0000 H   0  0
   -9.4422    0.4734    0.0000 H   0  0
  -10.4272    0.6453    0.0000 H   0  0
  -12.0318   -1.2733    0.0000 H   0  0
  -11.6880   -2.2122    0.0000 H   0  0
  -10.7030   -2.3840    0.0000 H   0  0
   -6.0516    2.5461    0.0000 H   0  0
   -5.7065    1.6077    0.0000 H   0  0
   -8.5161    2.9725    0.0000 H   0  0
   -8.8109    1.2659    0.0000 H   0  0
   -9.1561    2.2043    0.0000 H   0  0
    0.0000   -2.5000    0.0000 H   0  0
  1  2  2  0
  2  3  1  0
  2 12  1  0
  3  4  1  0
  4  5  1  0
  5  6  1  0
  5 10  1  0
  6  7  1  0
  7  8  1  0
  8  9  1  0
 10 11  1  0
 12 13  2  0
 12 39  1  0
 13 14  1  0
 14 15  2  0
 15 16  1  0
 15 28  1  0
 16 17  1  0
 16 39  2  0
 17 18  2  0
 17 19  1  0
 19 20  1  0
 20 21  1  0
 21 22  1  0
 21 26  1  0
 22 23  1  0
 23 24  1  0
 24 25  1  0
 26 27  1  0
 28 29  2  0
 28 30  1  0
 30 31  1  0
 31 32  1  0
 32 33  1  0
 32 37  1  0
 33 34  1  0
 34 35  1  0
 35 36  1  0
 37 38  1  0
  4 40  1  0
  4 41  1  0
  5 42  1  0
  6 43  1  0
  6 44  1  0
  7 45  1  0
  7 46  1  0
  8 47  1  0
  8 48  1  0
  9 49  1  0
  9 50  1  0
  9 51  1  0
 10 52  1  0
 10 53  1  0
 11 54  1  0
 11 55  1  0
 11 56  1  0
 13 57  1  0
 14 58  1  0
 20 59  1  0
 20 60  1  0
 21 61  1  0
 22 62  1  0
 22 63  1  0
 23 64  1  0
 23 65  1  0
 24 66  1  0
 24 67  1  0
 25 68  1  0
 25 69  1  0
 25 70  1  0
 26 71  1  0
 26 72  1  0
 27 73  1  0
 27 74  1  0
 27 75  1  0
 31 76  1  0
 31 77  1  0
 32 78  1  0
 33 79  1  0
 33 80  1  0
 34 81  1  0
 34 82  1  0
 35 83  1  0
 35 84  1  0
 36 85  1  0
 36 86  1  0
 36 87  1  0
 37 88  1  0
 37 89  1  0
 38 90  1  0
 38 91  1  0
 38 92  1  0
 39 93  1  0
V    1 0
V    2 1
V    3 2
V    4 3
V    5 4
V    6 5
V    7 6
V    8 7
V    9 8
V   10 9
V   11 10
V   12 11
V   13 12
V   14 13
V   15 14
V   16 15
V   17 16
V   18 17
V   19 18
V   20 19
V   21 20
V   22 21
V   23 22
V   24 23
V   25 24
V   26 25
V   27 26
V   28 27
V   29 28
V   30 29
V   31 30
V   32 31
V   33 32
V   34 33
V   35 34
V   36 35
V   37 36
V   38 37
V   39 38
M  END
> <DSSTox_RID>
60335

> <DSSTox_CID>
6265

> <DSSTox_CID_Parent>
6265

> <DSSTox_Generic_SID>
26265

> <DSSTox_FileID>
528_TXCST2_v1a

> <STRUCTURE_Formula>
C33H54O6

> <STRUCTURE_MolecularWeight>
546.7783

> <STRUCTURE_ChemicalType>
defined organic

> <STRUCTURE_TestedForm_DefinedOrganic>
parent

> <STRUCTURE_Shown>
tested chemical

> <TestSubstance_ChemicalName>
Tris(2-ethylhexyl)trimellitate

> <TestSubstance_CASRN>
3319-31-1

> <TestSubstance_Description>
single chemical compound

> <STRUCTURE_ChemicalName_IUPAC>
Tris(2-ethylhexyl) benzene-1,2,4-tricarboxylate

> <STRUCTURE_SMILES>
O=C(OCC(CCCC)CC)c(ccc(c1C(=O)OCC(CCCC)CC)C(=O)OCC(CCCC)CC)c1

> <STRUCTURE_Parent_SMILES>
O=C(OCC(CCCC)CC)c(ccc(c1C(=O)OCC(CCCC)CC)C(=O)OCC(CCCC)CC)c1

> <STRUCTURE_InChIS>
InChI=1S/C33H54O6/c1-7-13-16-25(10-4)22-37-31(34)28-19-20-29(32(35)38-23-26(11-5)17-14-8-2)30(21-28)33(36)39-24-27(12-6)18-15-9-3/h19-21,25-27H,7-18,22-24H2,1-6H3

> <STRUCTURE_InChIKey>
KRADHMIOFJQKEZ-UHFFFAOYSA-N

> <Substance_modify_yyyymmdd>
20080429

> <Coord_Metals>
0

> <Index>
528

> <Canonical_Smiles>
CCCCC(CC)COC(=O)c1ccc(C(=O)OCC(CC)CCCC)c(c1)C(=O)OCC(CC)CCCC

> <Molecular_Weight>
546.77825

> <Frequency>
1

$$$$

  SciTegic          2D

 22 22  0  0  0  0            999 V2000
   -2.5988    1.5004    0.0000 C   0  0
    1.2990   -0.7500    0.0000 C   0  0
    1.2990    0.7500    0.0000 C   0  0
    0.0000   -1.5000    0.0000 C   0  0
    0.0000    1.5000    0.0000 C   0  0
   -1.2990   -0.7500    0.0000 C   0  0
   -1.2990    0.7500    0.0000 C   0  0
    0.0000    3.0008    0.0000 C   0  0
    2.5988   -1.5004    0.0000 S   0  0
    2.5984   -2.7004    0.0000 O   0  0
    3.6377   -2.1009    0.0000 O   0  0
    3.8990   -0.7508    0.0000 O   0  0
   -2.5994    2.5004    0.0000 H   0  0
   -3.4647    1.0001    0.0000 H   0  0
   -3.4651    2.0000    0.0000 H   0  0
    2.1651    1.2500    0.0000 H   0  0
    0.0000   -2.5000    0.0000 H   0  0
   -2.1651   -1.2500    0.0000 H   0  0
    0.8657    3.5014    0.0000 H   0  0
   -0.8662    3.5005    0.0000 H   0  0
   -0.0005    4.0008    0.0000 H   0  0
    4.7650   -1.2508    0.0000 H   0  0
  1  7  1  0
  2  3  1  0
  2  4  2  0
  2  9  1  0
  3  5  2  0
  4  6  1  0
  5  7  1  0
  5  8  1  0
  6  7  2  0
  9 10  2  0
  9 11  2  0
  9 12  1  0
  1 13  1  0
  1 14  1  0
  1 15  1  0
  3 16  1  0
  4 17  1  0
  6 18  1  0
  8 19  1  0
  8 20  1  0
  8 21  1  0
 12 22  1  0
V    1 0
V    2 1
V    3 2
V    4 3
V    5 4
V    6 5
V    7 6
V    8 7
V    9 8
V   10 9
V   11 10
V   12 11
M  END
> <DSSTox_RID>
59557

> <DSSTox_CID>
6302

> <DSSTox_Generic_SID>
26302

> <DSSTox_FileID>
529_TXCST2_v1a

> <STRUCTURE_Formula>
C8H9NaO3S

> <STRUCTURE_MolecularWeight>
208.21

> <STRUCTURE_ChemicalType>
defined organic

> <STRUCTURE_TestedForm_DefinedOrganic>
salt Na

> <STRUCTURE_Shown>
representative isomer in mixture

> <TestSubstance_ChemicalName>
Sodium xylenesulfonate

> <TestSubstance_CASRN>
1300-72-7

> <TestSubstance_Description>
mixture or formulation

> <ChemicalNote>
mixture of dimethylbenzene sulfonates; structure shown 3,4-; parent [88-61-9]

> <Source_ChemicalNote>
tested chemical was a mixture of dimethylbenzene sulfonates

> <STRUCTURE_ChemicalName_IUPAC>
sodium 3,4-dimethylbenzenesulfonate

> <STRUCTURE_SMILES>
[Na+].Cc1ccc(cc1C)S([O-])(=O)=O

> <STRUCTURE_Parent_SMILES>
Cc1ccc(cc1C)S(O)(=O)=O

> <STRUCTURE_InChIS>
InChI=1S/C8H10O3S.Na/c1-6-3-4-8(5-7(6)2)12(9,10)11;/h3-5H,1-2H3,(H,9,10,11);/q;+1/p-1

> <STRUCTURE_InChIKey>
QUCDWLYKDRVKMI-UHFFFAOYSA-M

> <Substance_modify_yyyymmdd>
20080429

> <Coord_Metals>
0

> <Index>
529

> <Canonical_Smiles>
Cc1ccc(cc1C)S(=O)(=O)O

> <Molecular_Weight>
186.22819

> <Frequency>
1

$$$$

  SciTegic          2D

 20 20  0  0  0  0            999 V2000
    2.5973   -1.5031    0.0000 N   0  0
    1.2990   -0.7500    0.0000 C   0  0
    1.2990    0.7500    0.0000 C   0  0
    0.0000    1.5000    0.0000 C   0  0
   -1.2990    0.7500    0.0000 C   0  0
   -1.2990   -0.7500    0.0000 C   0  0
    2.5988    1.5004    0.0000 C   0  0
    0.0000   -1.5000    0.0000 C   0  0
    0.0000   -3.0008    0.0000 C   0  0
    2.5958   -2.5031    0.0000 H   0  0
    3.4642   -1.0046    0.0000 H   0  0
    0.0000    2.5000    0.0000 H   0  0
   -2.1651    1.2500    0.0000 H   0  0
   -2.1651   -1.2500    0.0000 H   0  0
    3.4651    1.0010    0.0000 H   0  0
    2.5985    2.5004    0.0000 H   0  0
    3.4646    2.0008    0.0000 H   0  0
    0.8657   -3.5014    0.0000 H   0  0
   -0.8662   -3.5006    0.0000 H   0  0
   -0.0005   -4.0008    0.0000 H   0  0
  1  2  1  0
  2  3  2  0
  2  8  1  0
  3  4  1  0
  3  7  1  0
  4  5  2  0
  5  6  1  0
  6  8  2  0
  8  9  1  0
  1 10  1  0
  1 11  1  0
  4 12  1  0
  5 13  1  0
  6 14  1  0
  7 15  1  0
  7 16  1  0
  7 17  1  0
  9 18  1  0
  9 19  1  0
  9 20  1  0
V    1 0
V    2 1
V    3 2
V    4 3
V    5 4
V    6 5
V    7 6
V    8 7
V    9 8
M  END
> <DSSTox_RID>
62418

> <DSSTox_CID>
6307

> <DSSTox_CID_Parent>
6307

> <DSSTox_Generic_SID>
26307

> <DSSTox_FileID>
530_TXCST2_v1a

> <STRUCTURE_Formula>
C8H11N

> <STRUCTURE_MolecularWeight>
121.1796

> <STRUCTURE_ChemicalType>
defined organic

> <STRUCTURE_TestedForm_DefinedOrganic>
parent

> <STRUCTURE_Shown>
tested chemical

> <TestSubstance_ChemicalName>
2,6-Dimethylaniline

> <TestSubstance_CASRN>
87-62-7

> <TestSubstance_Description>
single chemical compound

> <STRUCTURE_ChemicalName_IUPAC>
2,6-dimethylaniline

> <STRUCTURE_SMILES>
Nc(c(ccc1)C)c1C

> <STRUCTURE_Parent_SMILES>
Nc(c(ccc1)C)c1C

> <STRUCTURE_InChIS>
InChI=1S/C8H11N/c1-6-4-3-5-7(2)8(6)9/h3-5H,9H2,1-2H3

> <STRUCTURE_InChIKey>
UFFBMTHBGFGIHF-UHFFFAOYSA-N

> <Substance_modify_yyyymmdd>
20080429

> <Coord_Metals>
0

> <Index>
530

> <Canonical_Smiles>
Cc1cccc(C)c1N

> <Molecular_Weight>
121.17964

> <Frequency>
1

$$$$

  SciTegic          2D

 12 12  0  0  0  0            999 V2000
    1.2990   -0.7500    0.0000 N   0  0
    1.2990    0.7500    0.0000 C   0  0
    0.0000    1.5000    0.0000 N   0  0
   -1.2990    0.7500    0.0000 C   0  0
   -1.2990   -0.7500    0.0000 N   0  0
    0.0000   -1.5000    0.0000 C   0  0
    2.3383    1.3500    0.0000 O   0  0
   -2.3383    1.3500    0.0000 O   0  0
    0.0000   -2.7000    0.0000 O   0  0
    2.3383   -1.3500    0.0000 Cl  0  0
    0.0000    2.7000    0.0000 Cl  0  0
   -2.3383   -1.3500    0.0000 Cl  0  0
  1  2  1  0
  1  6  1  0
  1 10  1  0
  2  3  1  0
  2  7  2  0
  3  4  1  0
  3 11  1  0
  4  5  1  0
  4  8  2  0
  5  6  1  0
  5 12  1  0
  6  9  2  0
V    1 0
V    2 1
V    3 2
V    4 3
V    5 4
V    6 5
V    7 6
V    8 7
V    9 8
V   10 9
V   11 10
V   12 11
M  END
> <DSSTox_RID>
59624

> <DSSTox_CID>
6523

> <DSSTox_CID_Parent>
6523

> <DSSTox_Generic_SID>
26523

> <DSSTox_FileID>
531_TXCST2_v1a

> <STRUCTURE_Formula>
C3Cl3N3O3

> <STRUCTURE_MolecularWeight>
232.4094

> <STRUCTURE_ChemicalType>
defined organic

> <STRUCTURE_TestedForm_DefinedOrganic>
parent

> <STRUCTURE_Shown>
tested chemical

> <TestSubstance_ChemicalName>
Symclosene

> <TestSubstance_CASRN>
87-90-1

> <TestSubstance_Description>
single chemical compound

> <STRUCTURE_ChemicalName_IUPAC>
1,3,5-trichloro-1,3,5-triazinane-2,4,6-trione

> <STRUCTURE_SMILES>
O=C(N(Cl)C(N1Cl)=O)N(Cl)C1=O

> <STRUCTURE_Parent_SMILES>
O=C(N(Cl)C(N1Cl)=O)N(Cl)C1=O

> <STRUCTURE_InChIS>
InChI=1S/C3Cl3N3O3/c4-7-1(10)8(5)3(12)9(6)2(7)11

> <STRUCTURE_InChIKey>
YRIZYWQGELRKNT-UHFFFAOYSA-N

> <Substance_modify_yyyymmdd>
20080429

> <Coord_Metals>
0

> <Index>
531

> <Canonical_Smiles>
ClN1C(=O)N(Cl)C(=O)N(Cl)C1=O

> <Molecular_Weight>
232.4094

> <Frequency>
1

$$$$

  SciTegic          2D

 25 25  0  0  0  0            999 V2000
    1.2990   -0.7500    0.0000 C   0  0
    2.5973   -1.5031    0.0000 O   0  0
    1.2990    0.7500    0.0000 C   0  0
    0.0000   -1.5000    0.0000 C   0  0
   -1.2990   -0.7500    0.0000 C   0  0
    0.0000    1.5000    0.0000 C   0  0
   -1.2990    0.7500    0.0000 C   0  0
    2.2637    1.8997    0.0000 C   0  0
    3.7419    1.6400    0.0000 C   0  0
    1.7500    3.3098    0.0000 C   0  0
    2.7848    0.4612    0.0000 C   0  0
    2.5958   -2.5031    0.0000 H   0  0
    0.0000   -2.5000    0.0000 H   0  0
   -2.1651   -1.2500    0.0000 H   0  0
    0.0000    2.5000    0.0000 H   0  0
   -2.1651    1.2500    0.0000 H   0  0
    4.3847    2.4061    0.0000 H   0  0
    4.0843    0.7005    0.0000 H   0  0
    4.7268    1.4666    0.0000 H   0  0
    2.3920    4.0764    0.0000 H   0  0
    0.7651    3.4828    0.0000 H   0  0
    1.4072    4.2492    0.0000 H   0  0
    2.1413   -0.3042    0.0000 H   0  0
    3.1258   -0.4789    0.0000 H   0  0
    3.7694    0.2863    0.0000 H   0  0
  1  2  1  0
  1  3  2  0
  1  4  1  0
  3  6  1  0
  3  8  1  0
  4  5  2  0
  5  7  1  0
  6  7  2  0
  8  9  1  0
  8 10  1  0
  8 11  1  0
  2 12  1  0
  4 13  1  0
  5 14  1  0
  6 15  1  0
  7 16  1  0
  9 17  1  0
  9 18  1  0
  9 19  1  0
 10 20  1  0
 10 21  1  0
 10 22  1  0
 11 23  1  0
 11 24  1  0
 11 25  1  0
V    1 0
V    2 1
V    3 2
V    4 3
V    5 4
V    6 5
V    7 6
V    8 7
V    9 8
V   10 9
V   11 10
M  END
> <DSSTox_RID>
65891

> <DSSTox_CID>
6525

> <DSSTox_CID_Parent>
6525

> <DSSTox_Generic_SID>
26525

> <DSSTox_FileID>
532_TXCST2_v1a

> <STRUCTURE_Formula>
C10H14O

> <STRUCTURE_MolecularWeight>
150.2176

> <STRUCTURE_ChemicalType>
defined organic

> <STRUCTURE_TestedForm_DefinedOrganic>
parent

> <STRUCTURE_Shown>
tested chemical

> <TestSubstance_ChemicalName>
2-tert-Butylphenol

> <TestSubstance_CASRN>
88-18-6

> <TestSubstance_Description>
single chemical compound

> <STRUCTURE_ChemicalName_IUPAC>
2-tert-butylphenol

> <STRUCTURE_SMILES>
OC1=C(C(C)(C)C)C=CC=C1

> <STRUCTURE_Parent_SMILES>
OC1=C(C(C)(C)C)C=CC=C1

> <STRUCTURE_InChIS>
InChI=1S/C10H14O/c1-10(2,3)8-6-4-5-7-9(8)11/h4-7,11H,1-3H3

> <STRUCTURE_InChIKey>
WJQOZHYUIDYNHM-UHFFFAOYSA-N

> <Substance_modify_yyyymmdd>
20080429

> <Coord_Metals>
0

> <Index>
532

> <Canonical_Smiles>
CC(C)(C)c1ccccc1O

> <Molecular_Weight>
150.21755

> <Frequency>
1

$$$$

  SciTegic          2D

 28 28  0  0  0  0            999 V2000
    1.2990   -0.7500    0.0000 C   0  0
    2.5973   -1.5031    0.0000 O   0  0
    1.2990    0.7500    0.0000 C   0  0
    0.0000   -1.5000    0.0000 C   0  0
   -1.2990   -0.7500    0.0000 C   0  0
    0.0000    1.5000    0.0000 C   0  0
   -1.2990    0.7500    0.0000 C   0  0
    2.2637    1.8997    0.0000 C   0  0
    3.7419    1.6400    0.0000 C   0  0
    1.7500    3.3098    0.0000 C   0  0
    2.7848    0.4612    0.0000 C   0  0
   -2.5988   -1.5004    0.0000 C   0  0
    2.5958   -2.5031    0.0000 H   0  0
    0.0000   -2.5000    0.0000 H   0  0
    0.0000    2.5000    0.0000 H   0  0
   -2.1651    1.2500    0.0000 H   0  0
    4.3847    2.4061    0.0000 H   0  0
    4.0843    0.7005    0.0000 H   0  0
    4.7268    1.4666    0.0000 H   0  0
    2.3920    4.0764    0.0000 H   0  0
    0.7651    3.4828    0.0000 H   0  0
    1.4072    4.2492    0.0000 H   0  0
    2.1413   -0.3042    0.0000 H   0  0
    3.1258   -0.4789    0.0000 H   0  0
    3.7694    0.2863    0.0000 H   0  0
   -2.5994   -2.5004    0.0000 H   0  0
   -3.4647   -1.0002    0.0000 H   0  0
   -3.4650   -2.0000    0.0000 H   0  0
  1  2  1  0
  1  3  2  0
  1  4  1  0
  3  6  1  0
  3  8  1  0
  4  5  2  0
  5  7  1  0
  5 12  1  0
  6  7  2  0
  8  9  1  0
  8 10  1  0
  8 11  1  0
  2 13  1  0
  4 14  1  0
  6 15  1  0
  7 16  1  0
  9 17  1  0
  9 18  1  0
  9 19  1  0
 10 20  1  0
 10 21  1  0
 10 22  1  0
 11 23  1  0
 11 24  1  0
 11 25  1  0
 12 26  1  0
 12 27  1  0
 12 28  1  0
V    1 0
V    2 1
V    3 2
V    4 3
V    5 4
V    6 5
V    7 6
V    8 7
V    9 8
V   10 9
V   11 10
V   12 11
M  END
> <DSSTox_RID>
65832

> <DSSTox_CID>
6529

> <DSSTox_CID_Parent>
6529

> <DSSTox_Generic_SID>
26529

> <DSSTox_FileID>
533_TXCST2_v1a

> <STRUCTURE_Formula>
C11H16O

> <STRUCTURE_MolecularWeight>
164.2441

> <STRUCTURE_ChemicalType>
defined organic

> <STRUCTURE_TestedForm_DefinedOrganic>
parent

> <STRUCTURE_Shown>
tested chemical

> <TestSubstance_ChemicalName>
2-tert-Butyl-5-methylphenol

> <TestSubstance_CASRN>
88-60-8

> <TestSubstance_Description>
single chemical compound

> <STRUCTURE_ChemicalName_IUPAC>
2-tert-butyl-5-methylphenol

> <STRUCTURE_SMILES>
OC1=C(C(C)(C)C)C=CC(C)=C1

> <STRUCTURE_Parent_SMILES>
OC1=C(C(C)(C)C)C=CC(C)=C1

> <STRUCTURE_InChIS>
InChI=1S/C11H16O/c1-8-5-6-9(10(12)7-8)11(2,3)4/h5-7,12H,1-4H3

> <STRUCTURE_InChIKey>
XOUQAVYLRNOXDO-UHFFFAOYSA-N

> <Substance_modify_yyyymmdd>
20080429

> <Coord_Metals>
0

> <Index>
533

> <Canonical_Smiles>
Cc1ccc(c(O)c1)C(C)(C)C

> <Molecular_Weight>
164.24413

> <Frequency>
1

$$$$

  SciTegic          2D

 70 69  0  0  0  0            999 V2000
   10.3999    0.0000    0.0000 C   0  0
   11.6999    0.7500    0.0000 C   0  0
   10.3985   -1.5008    0.0000 O   0  0
   12.9999    0.0000    0.0000 O   0  0
   14.2999    0.7500    0.0000 C   0  0
   15.5999    0.0000    0.0000 C   0  0
   16.8999    0.7500    0.0000 O   0  0
   18.1999    0.0000    0.0000 C   0  0
   19.4998    0.7500    0.0000 C   0  0
   20.7998    0.0000    0.0000 O   0  0
    9.0985   -2.2508    0.0000 C   0  0
    9.0971   -3.7516    0.0000 C   0  0
    8.1320   -4.9010    0.0000 C   0  0
    8.6440   -6.3118    0.0000 C   0  0
    7.6789   -7.4612    0.0000 C   0  0
    8.1909   -8.8720    0.0000 C   0  0
    8.2328   -1.7503    0.0000 O   0  0
    7.7740   -2.9834    0.0000 C   0  0
    7.7769   -1.4825    0.0000 C   0  0
   22.0998    0.7500    0.0000 C   0  0
   23.0649   -0.3994    0.0000 C   0  0
   24.5430   -0.1392    0.0000 C   0  0
   25.5081   -1.2886    0.0000 C   0  0
   26.9862   -1.0285    0.0000 C   0  0
   27.9513   -2.1779    0.0000 C   0  0
   22.0998    1.7500    0.0000 O   0  0
   23.5855    1.0393    0.0000 C   0  0
   25.0629    1.3035    0.0000 C   0  0
    9.5342    0.5005    0.0000 H   0  0
    9.5335   -0.4993    0.0000 H   0  0
   11.6999    1.7500    0.0000 H   0  0
   12.5659    1.2501    0.0000 H   0  0
   14.2999    1.7500    0.0000 H   0  0
   13.4339    1.2501    0.0000 H   0  0
   15.5999   -1.0000    0.0000 H   0  0
   16.4658   -0.5001    0.0000 H   0  0
   18.1999   -1.0000    0.0000 H   0  0
   17.3339   -0.5001    0.0000 H   0  0
   19.4998    1.7500    0.0000 H   0  0
   20.3658    1.2501    0.0000 H   0  0
    9.9628   -4.2522    0.0000 H   0  0
    7.4886   -5.6666    0.0000 H   0  0
    7.1473   -4.7268    0.0000 H   0  0
    8.9855   -7.2517    0.0000 H   0  0
    9.6287   -6.4861    0.0000 H   0  0
    7.0355   -8.2268    0.0000 H   0  0
    6.6942   -7.2870    0.0000 H   0  0
    7.5478   -9.6379    0.0000 H   0  0
    8.5324   -9.8119    0.0000 H   0  0
    9.1756   -9.0463    0.0000 H   0  0
    6.9069   -3.4815    0.0000 H   0  0
    7.7717   -3.9834    0.0000 H   0  0
    6.9121   -0.9803    0.0000 H   0  0
    8.6440   -0.9845    0.0000 H   0  0
    7.7792   -0.4825    0.0000 H   0  0
   22.7229   -1.3391    0.0000 H   0  0
   23.9003    0.6269    0.0000 H   0  0
   24.8850    0.8004    0.0000 H   0  0
   24.5233   -1.4624    0.0000 H   0  0
   25.1661   -2.2283    0.0000 H   0  0
   26.3435   -0.2623    0.0000 H   0  0
   27.3282   -0.0888    0.0000 H   0  0
   28.9361   -2.0045    0.0000 H   0  0
   28.5939   -2.9440    0.0000 H   0  0
   27.6092   -3.1176    0.0000 H   0  0
   22.9411    1.8039    0.0000 H   0  0
   22.6010    0.8636    0.0000 H   0  0
   25.4032    2.2438    0.0000 H   0  0
   25.7073    0.5389    0.0000 H   0  0
   26.0473    1.4791    0.0000 H   0  0
  1  2  1  0
  1  3  1  0
  2  4  1  0
  3 11  1  0
  4  5  1  0
  5  6  1  0
  6  7  1  0
  7  8  1  0
  8  9  1  0
  9 10  1  0
 10 20  1  0
 11 12  1  0
 11 17  2  0
 12 13  1  0
 12 18  1  0
 13 14  1  0
 14 15  1  0
 15 16  1  0
 18 19  1  0
 20 21  1  0
 20 26  2  0
 21 22  1  0
 21 27  1  0
 22 23  1  0
 23 24  1  0
 24 25  1  0
 27 28  1  0
  1 29  1  0
  1 30  1  0
  2 31  1  0
  2 32  1  0
  5 33  1  0
  5 34  1  0
  6 35  1  0
  6 36  1  0
  8 37  1  0
  8 38  1  0
  9 39  1  0
  9 40  1  0
 12 41  1  0
 13 42  1  0
 13 43  1  0
 14 44  1  0
 14 45  1  0
 15 46  1  0
 15 47  1  0
 16 48  1  0
 16 49  1  0
 16 50  1  0
 18 51  1  0
 18 52  1  0
 19 53  1  0
 19 54  1  0
 19 55  1  0
 21 56  1  0
 22 57  1  0
 22 58  1  0
 23 59  1  0
 23 60  1  0
 24 61  1  0
 24 62  1  0
 25 63  1  0
 25 64  1  0
 25 65  1  0
 27 66  1  0
 27 67  1  0
 28 68  1  0
 28 69  1  0
 28 70  1  0
V    1 0
V    2 1
V    3 2
V    4 3
V    5 4
V    6 5
V    7 6
V    8 7
V    9 8
V   10 9
V   11 10
V   12 11
V   13 12
V   14 13
V   15 14
V   16 15
V   17 16
V   18 17
V   19 18
V   20 19
V   21 20
V   22 21
V   23 22
V   24 23
V   25 24
V   26 25
V   27 26
V   28 27
M  END
> <DSSTox_RID>
59546

> <DSSTox_CID>
6564

> <DSSTox_CID_Parent>
6564

> <DSSTox_Generic_SID>
26564

> <DSSTox_FileID>
534_TXCST2_v1a

> <STRUCTURE_Formula>
C22H42O6

> <STRUCTURE_MolecularWeight>
402.5653

> <STRUCTURE_ChemicalType>
defined organic

> <STRUCTURE_TestedForm_DefinedOrganic>
parent

> <STRUCTURE_Shown>
tested chemical

> <TestSubstance_ChemicalName>
Tri(ethylene glycol) bis(2-ethylhexanoate)

> <TestSubstance_CASRN>
94-28-0

> <TestSubstance_Description>
single chemical compound

> <STRUCTURE_ChemicalName_IUPAC>
ethane-1,2-diylbis(oxyethane-2,1-diyl) bis(2-ethylhexanoate)

> <STRUCTURE_SMILES>
O=C(C(CC)CCCC)OCCOCCOCCOC(C(CC)CCCC)=O

> <STRUCTURE_Parent_SMILES>
O=C(C(CC)CCCC)OCCOCCOCCOC(C(CC)CCCC)=O

> <STRUCTURE_InChIS>
InChI=1S/C22H42O6/c1-5-9-11-19(7-3)21(23)27-17-15-25-13-14-26-16-18-28-22(24)20(8-4)12-10-6-2/h19-20H,5-18H2,1-4H3

> <STRUCTURE_InChIKey>
FRQDZJMEHSJOPU-UHFFFAOYSA-N

> <Substance_modify_yyyymmdd>
20080429

> <Coord_Metals>
0

> <Index>
534

> <Canonical_Smiles>
CCCCC(CC)C(=O)OCCOCCOCCOC(=O)C(CC)CCCC

> <Molecular_Weight>
402.56528

> <Frequency>
1

$$$$

  SciTegic          2D

 37 37  0  0  0  0            999 V2000
    1.2990   -0.7500    0.0000 C   0  0
    2.5973   -1.5031    0.0000 O   0  0
    1.2990    0.7500    0.0000 C   0  0
    0.0000   -1.5000    0.0000 C   0  0
   -1.2990   -0.7500    0.0000 C   0  0
    0.0000    1.5000    0.0000 C   0  0
   -1.2990    0.7500    0.0000 C   0  0
    2.2637    1.8997    0.0000 C   0  0
    3.7419    1.6400    0.0000 C   0  0
    1.7500    3.3098    0.0000 C   0  0
    2.7848    0.4612    0.0000 C   0  0
   -2.2638    1.8997    0.0000 C   0  0
   -3.7419    1.6400    0.0000 C   0  0
   -1.7500    3.3098    0.0000 C   0  0
   -2.7848    0.4612    0.0000 C   0  0
    2.5958   -2.5031    0.0000 H   0  0
    0.0000   -2.5000    0.0000 H   0  0
   -2.1651   -1.2500    0.0000 H   0  0
    0.0000    2.5000    0.0000 H   0  0
    4.3847    2.4061    0.0000 H   0  0
    4.0843    0.7005    0.0000 H   0  0
    4.7268    1.4666    0.0000 H   0  0
    2.3920    4.0764    0.0000 H   0  0
    0.7651    3.4828    0.0000 H   0  0
    1.4072    4.2492    0.0000 H   0  0
    2.1413   -0.3042    0.0000 H   0  0
    3.1258   -0.4789    0.0000 H   0  0
    3.7694    0.2863    0.0000 H   0  0
   -4.3847    2.4060    0.0000 H   0  0
   -4.0843    0.7004    0.0000 H   0  0
   -4.7268    1.4665    0.0000 H   0  0
   -2.3921    4.0764    0.0000 H   0  0
   -0.7651    3.4828    0.0000 H   0  0
   -1.4073    4.2492    0.0000 H   0  0
   -2.1413   -0.3042    0.0000 H   0  0
   -3.1258   -0.4789    0.0000 H   0  0
   -3.7694    0.2863    0.0000 H   0  0
  1  2  1  0
  1  3  2  0
  1  4  1  0
  3  6  1  0
  3  8  1  0
  4  5  2  0
  5  7  1  0
  6  7  2  0
  7 12  1  0
  8  9  1  0
  8 10  1  0
  8 11  1  0
 12 13  1  0
 12 14  1  0
 12 15  1  0
  2 16  1  0
  4 17  1  0
  5 18  1  0
  6 19  1  0
  9 20  1  0
  9 21  1  0
  9 22  1  0
 10 23  1  0
 10 24  1  0
 10 25  1  0
 11 26  1  0
 11 27  1  0
 11 28  1  0
 13 29  1  0
 13 30  1  0
 13 31  1  0
 14 32  1  0
 14 33  1  0
 14 34  1  0
 15 35  1  0
 15 36  1  0
 15 37  1  0
V    1 0
V    2 1
V    3 2
V    4 3
V    5 4
V    6 5
V    7 6
V    8 7
V    9 8
V   10 9
V   11 10
V   12 11
V   13 12
V   14 13
V   15 14
M  END
> <DSSTox_RID>
60062

> <DSSTox_CID>
6602

> <DSSTox_CID_Parent>
6602

> <DSSTox_Generic_SID>
26602

> <DSSTox_FileID>
535_TXCST2_v1a

> <STRUCTURE_Formula>
C14H22O

> <STRUCTURE_MolecularWeight>
206.3239

> <STRUCTURE_ChemicalType>
defined organic

> <STRUCTURE_TestedForm_DefinedOrganic>
parent

> <STRUCTURE_Shown>
tested chemical

> <TestSubstance_ChemicalName>
2,4-Di-tert-butylphenol

> <TestSubstance_CASRN>
96-76-4

> <TestSubstance_Description>
single chemical compound

> <STRUCTURE_ChemicalName_IUPAC>
2,4-di-tert-butylphenol

> <STRUCTURE_SMILES>
OC1=C(C(C)(C)C)C=C(C(C)(C)C)C=C1

> <STRUCTURE_Parent_SMILES>
OC1=C(C(C)(C)C)C=C(C(C)(C)C)C=C1

> <STRUCTURE_InChIS>
InChI=1S/C14H22O/c1-13(2,3)10-7-8-12(15)11(9-10)14(4,5)6/h7-9,15H,1-6H3

> <STRUCTURE_InChIKey>
ICKWICRCANNIBI-UHFFFAOYSA-N

> <Substance_modify_yyyymmdd>
20080429

> <Coord_Metals>
0

> <Index>
535

> <Canonical_Smiles>
CC(C)(C)c1ccc(O)c(c1)C(C)(C)C

> <Molecular_Weight>
206.32387

> <Frequency>
1

$$$$

  SciTegic          2D

 30 30  0  0  0  0            999 V2000
    1.2990   -0.7500    0.0000 C   0  0
    1.2990    0.7500    0.0000 C   0  0
    0.0000    1.5000    0.0000 C   0  0
   -1.2990    0.7500    0.0000 C   0  0
   -1.2990   -0.7500    0.0000 C   0  0
    0.0000   -1.5000    0.0000 C   0  0
    2.5988   -1.5004    0.0000 C   0  0
    3.8990   -0.7508    0.0000 C   0  0
    2.5983   -3.0012    0.0000 C   0  0
   -2.5988   -1.5004    0.0000 C   0  0
   -3.8990   -0.7508    0.0000 C   0  0
   -2.5983   -3.0012    0.0000 C   0  0
    2.1651    1.2500    0.0000 H   0  0
    0.0000    2.5000    0.0000 H   0  0
   -2.1651    1.2500    0.0000 H   0  0
    0.0000   -2.5000    0.0000 H   0  0
    2.5991   -0.5004    0.0000 H   0  0
    4.7650   -1.2508    0.0000 H   0  0
    3.8993    0.2492    0.0000 H   0  0
    4.7651   -0.2510    0.0000 H   0  0
    3.4639   -3.5020    0.0000 H   0  0
    1.7320   -3.5006    0.0000 H   0  0
    2.5975   -4.0012    0.0000 H   0  0
   -2.5991   -0.5004    0.0000 H   0  0
   -4.7650   -1.2508    0.0000 H   0  0
   -3.8993    0.2492    0.0000 H   0  0
   -4.7651   -0.2510    0.0000 H   0  0
   -3.4639   -3.5020    0.0000 H   0  0
   -1.7320   -3.5006    0.0000 H   0  0
   -2.5975   -4.0012    0.0000 H   0  0
  1  2  2  0
  1  6  1  0
  1  7  1  0
  2  3  1  0
  3  4  2  0
  4  5  1  0
  5  6  2  0
  5 10  1  0
  7  8  1  0
  7  9  1  0
 10 11  1  0
 10 12  1  0
  2 13  1  0
  3 14  1  0
  4 15  1  0
  6 16  1  0
  7 17  1  0
  8 18  1  0
  8 19  1  0
  8 20  1  0
  9 21  1  0
  9 22  1  0
  9 23  1  0
 10 24  1  0
 11 25  1  0
 11 26  1  0
 11 27  1  0
 12 28  1  0
 12 29  1  0
 12 30  1  0
V    1 0
V    2 1
V    3 2
V    4 3
V    5 4
V    6 5
V    7 6
V    8 7
V    9 8
V   10 9
V   11 10
V   12 11
M  END
> <DSSTox_RID>
60202

> <DSSTox_CID>
6640

> <DSSTox_CID_Parent>
6640

> <DSSTox_Generic_SID>
26640

> <DSSTox_FileID>
536_TXCST2_v1a

> <STRUCTURE_Formula>
C12H18

> <STRUCTURE_MolecularWeight>
162.2713

> <STRUCTURE_ChemicalType>
defined organic

> <STRUCTURE_TestedForm_DefinedOrganic>
parent

> <STRUCTURE_Shown>
tested chemical

> <TestSubstance_ChemicalName>
1,3-Diisopropylbenzene

> <TestSubstance_CASRN>
99-62-7

> <TestSubstance_Description>
single chemical compound

> <STRUCTURE_ChemicalName_IUPAC>
1,3-diisopropylbenzene

> <STRUCTURE_SMILES>
CC(C)C1=CC=CC(C(C)C)=C1

> <STRUCTURE_Parent_SMILES>
CC(C)C1=CC=CC(C(C)C)=C1

> <STRUCTURE_InChIS>
InChI=1S/C12H18/c1-9(2)11-6-5-7-12(8-11)10(3)4/h5-10H,1-4H3

> <STRUCTURE_InChIKey>
UNEATYXSUBPPKP-UHFFFAOYSA-N

> <Substance_modify_yyyymmdd>
20080429

> <Coord_Metals>
0

> <Index>
536

> <Canonical_Smiles>
CC(C)c1cccc(c1)C(C)C

> <Molecular_Weight>
162.27131

> <Frequency>
1

$$$$

  SciTegic          2D

 24 24  0  0  0  0            999 V2000
    1.2990   -0.7500    0.0000 C   0  0
    1.2990    0.7500    0.0000 C   0  0
    0.0000    1.5000    0.0000 C   0  0
   -1.2990    0.7500    0.0000 C   0  0
   -1.2990   -0.7500    0.0000 C   0  0
    0.0000   -1.5000    0.0000 C   0  0
    2.5988   -1.5004    0.0000 C   0  0
   -2.5988    1.5004    0.0000 C   0  0
   -2.5998    3.0012    0.0000 C   0  0
   -3.8982    0.7496    0.0000 C   0  0
    2.1651    1.2500    0.0000 H   0  0
    0.0000    2.5000    0.0000 H   0  0
   -2.1651   -1.2500    0.0000 H   0  0
    0.0000   -2.5000    0.0000 H   0  0
    3.4651   -1.0010    0.0000 H   0  0
    2.5985   -2.5004    0.0000 H   0  0
    3.4646   -2.0008    0.0000 H   0  0
   -1.7329    2.0007    0.0000 H   0  0
   -3.4658    3.5012    0.0000 H   0  0
   -1.7339    3.5015    0.0000 H   0  0
   -2.5999    4.0012    0.0000 H   0  0
   -4.7647    1.2488    0.0000 H   0  0
   -3.8976   -0.2504    0.0000 H   0  0
   -4.7639    0.2489    0.0000 H   0  0
  1  2  2  0
  1  6  1  0
  1  7  1  0
  2  3  1  0
  3  4  2  0
  4  5  1  0
  4  8  1  0
  5  6  2  0
  8  9  1  0
  8 10  1  0
  2 11  1  0
  3 12  1  0
  5 13  1  0
  6 14  1  0
  7 15  1  0
  7 16  1  0
  7 17  1  0
  8 18  1  0
  9 19  1  0
  9 20  1  0
  9 21  1  0
 10 22  1  0
 10 23  1  0
 10 24  1  0
V    1 0
V    2 1
V    3 2
V    4 3
V    5 4
V    6 5
V    7 6
V    8 7
V    9 8
V   10 9
M  END
> <DSSTox_RID>
59654

> <DSSTox_CID>
6645

> <DSSTox_CID_Parent>
6645

> <DSSTox_Generic_SID>
26645

> <DSSTox_FileID>
537_TXCST2_v1a

> <STRUCTURE_Formula>
C10H14

> <STRUCTURE_MolecularWeight>
134.2182

> <STRUCTURE_ChemicalType>
defined organic

> <STRUCTURE_TestedForm_DefinedOrganic>
parent

> <STRUCTURE_Shown>
tested chemical

> <TestSubstance_ChemicalName>
p-Cymene

> <TestSubstance_CASRN>
99-87-6

> <TestSubstance_Description>
single chemical compound

> <STRUCTURE_ChemicalName_IUPAC>
1-isopropyl-4-methylbenzene

> <STRUCTURE_SMILES>
CC(C)C1=CC=C(C)C=C1

> <STRUCTURE_Parent_SMILES>
CC(C)C1=CC=C(C)C=C1

> <STRUCTURE_InChIS>
InChI=1S/C10H14/c1-8(2)10-6-4-9(3)5-7-10/h4-8H,1-3H3

> <STRUCTURE_InChIKey>
HFPZCAJZSCWRBC-UHFFFAOYSA-N

> <Substance_modify_yyyymmdd>
20080429

> <Coord_Metals>
0

> <Index>
537

> <Canonical_Smiles>
CC(C)c1ccc(C)cc1

> <Molecular_Weight>
134.21815

> <Frequency>
1

$$$$

  SciTegic          2D

 12 12  0  0  0  0            999 V2000
    1.2990   -0.7500    0.0000 N   0  0
    1.2990    0.7500    0.0000 C   0  0
    0.0000   -1.5000    0.0000 C   0  0
   -1.2990   -0.7500    0.0000 C   0  0
    0.0000    1.5000    0.0000 C   0  0
   -1.2990    0.7500    0.0000 C   0  0
   -2.5988   -1.5004    0.0000 C   0  0
   -3.6380   -2.1004    0.0000 N   0  0
    2.1651    1.2500    0.0000 H   0  0
    0.0000   -2.5000    0.0000 H   0  0
    0.0000    2.5000    0.0000 H   0  0
   -2.1651    1.2500    0.0000 H   0  0
  1  2  2  0
  1  3  1  0
  2  5  1  0
  3  4  2  0
  4  6  1  0
  4  7  1  0
  5  6  2  0
  7  8  3  0
  2  9  1  0
  3 10  1  0
  5 11  1  0
  6 12  1  0
V    1 0
V    2 1
V    3 2
V    4 3
V    5 4
V    6 5
V    7 6
V    8 7
M  END
> <DSSTox_RID>
59419

> <DSSTox_CID>
6665

> <DSSTox_CID_Parent>
6665

> <DSSTox_Generic_SID>
26665

> <DSSTox_FileID>
538_TXCST2_v1a

> <STRUCTURE_Formula>
C6H4N2

> <STRUCTURE_MolecularWeight>
104.1094

> <STRUCTURE_ChemicalType>
defined organic

> <STRUCTURE_TestedForm_DefinedOrganic>
parent

> <STRUCTURE_Shown>
tested chemical

> <TestSubstance_ChemicalName>
3-Pyridinecarbonitrile

> <TestSubstance_CASRN>
100-54-9

> <TestSubstance_Description>
single chemical compound

> <STRUCTURE_ChemicalName_IUPAC>
nicotinonitrile

> <STRUCTURE_SMILES>
N#CC1=CN=CC=C1

> <STRUCTURE_Parent_SMILES>
N#CC1=CN=CC=C1

> <STRUCTURE_InChIS>
InChI=1S/C6H4N2/c7-4-6-2-1-3-8-5-6/h1-3,5H

> <STRUCTURE_InChIKey>
GZPHSAQLYPIAIN-UHFFFAOYSA-N

> <Substance_modify_yyyymmdd>
20080429

> <Coord_Metals>
0

> <Index>
538

> <Canonical_Smiles>
N#Cc1cccnc1

> <Molecular_Weight>
104.10936

> <Frequency>
1

$$$$

  SciTegic          2D

 36 36  0  0  0  0            999 V2000
    1.2925   -3.7494    0.0000 C   0  0
    2.5951   -3.0039    0.0000 C   0  0
    3.8933   -3.7570    0.0000 C   0  0
    3.8912   -5.2578    0.0000 C   0  0
    5.1894   -6.0109    0.0000 C   0  0
    5.1873   -7.5117    0.0000 C   0  0
    6.4855   -8.2648    0.0000 C   0  0
    6.4833   -9.7656    0.0000 C   0  0
    0.2552   -3.1461    0.0000 O   0  0
    2.5973   -1.5031    0.0000 C   0  0
    1.2990   -0.7500    0.0000 C   0  0
    1.2990    0.7500    0.0000 C   0  0
    0.0000   -1.5000    0.0000 C   0  0
    0.0000    1.5000    0.0000 C   0  0
   -1.2990   -0.7500    0.0000 C   0  0
   -1.2990    0.7500    0.0000 C   0  0
    1.2890   -4.7494    0.0000 H   0  0
    4.7602   -3.2585    0.0000 H   0  0
    3.8952   -2.7570    0.0000 H   0  0
    3.0243   -5.7563    0.0000 H   0  0
    3.0260   -4.7564    0.0000 H   0  0
    6.0563   -5.5124    0.0000 H   0  0
    5.1913   -5.0109    0.0000 H   0  0
    4.3204   -8.0102    0.0000 H   0  0
    4.3220   -7.0104    0.0000 H   0  0
    7.3524   -7.7663    0.0000 H   0  0
    6.4874   -7.2648    0.0000 H   0  0
    7.3483  -10.2674    0.0000 H   0  0
    5.6164  -10.2641    0.0000 H   0  0
    6.4814  -10.7656    0.0000 H   0  0
    3.4642   -1.0046    0.0000 H   0  0
    2.1651    1.2500    0.0000 H   0  0
    0.0000   -2.5000    0.0000 H   0  0
    0.0000    2.5000    0.0000 H   0  0
   -2.1651   -1.2500    0.0000 H   0  0
   -2.1651    1.2500    0.0000 H   0  0
  1  2  1  0
  1  9  2  0
  2  3  1  0
  2 10  2  0
  3  4  1  0
  4  5  1  0
  5  6  1  0
  6  7  1  0
  7  8  1  0
 10 11  1  0
 11 12  2  0
 11 13  1  0
 12 14  1  0
 13 15  2  0
 14 16  2  0
 15 16  1  0
  1 17  1  0
  3 18  1  0
  3 19  1  0
  4 20  1  0
  4 21  1  0
  5 22  1  0
  5 23  1  0
  6 24  1  0
  6 25  1  0
  7 26  1  0
  7 27  1  0
  8 28  1  0
  8 29  1  0
  8 30  1  0
 10 31  1  0
 12 32  1  0
 13 33  1  0
 14 34  1  0
 15 35  1  0
 16 36  1  0
V    1 0
V    2 1
V    3 2
V    4 3
V    5 4
V    6 5
V    7 6
V    8 7
V    9 8
V   10 9
V   11 10
V   12 11
V   13 12
V   14 13
V   15 14
V   16 15
M  END
> <DSSTox_RID>
65599

> <DSSTox_CID>
6684

> <DSSTox_CID_Parent>
6684

> <DSSTox_Generic_SID>
26684

> <DSSTox_FileID>
539_TXCST2_v1a

> <STRUCTURE_Formula>
C15H20O

> <STRUCTURE_MolecularWeight>
216.3187

> <STRUCTURE_ChemicalType>
defined organic

> <STRUCTURE_TestedForm_DefinedOrganic>
parent

> <STRUCTURE_Shown>
tested chemical

> <TestSubstance_ChemicalName>
2-Benzylideneoctanal

> <TestSubstance_CASRN>
101-86-0

> <TestSubstance_Description>
mixture or formulation

> <ChemicalNote>
mixture of Z,E isomers

> <STRUCTURE_ChemicalName_IUPAC>
2-benzylideneoctanal

> <STRUCTURE_SMILES>
CCCCCC/C(C=O)=C\C1=CC=CC=C1

> <STRUCTURE_Parent_SMILES>
CCCCCC/C(C=O)=C\C1=CC=CC=C1

> <STRUCTURE_InChIS>
InChI=1S/C15H20O/c1-2-3-4-6-11-15(13-16)12-14-9-7-5-8-10-14/h5,7-10,12-13H,2-4,6,11H2,1H3

> <STRUCTURE_InChIKey>
GUUHFMWKWLOQMM-UHFFFAOYSA-N

> <Substance_modify_yyyymmdd>
20080429

> <Coord_Metals>
0

> <Index>
539

> <Canonical_Smiles>
CCCCCCC(=Cc1ccccc1)C=O

> <Molecular_Weight>
216.31869

> <Frequency>
1

$$$$

  SciTegic          2D

 52 51  0  0  0  0            999 V2000
    3.9000    0.7500    0.0000 C   0  0
    2.6000    0.0000    0.0000 C   0  0
    1.3000    0.7500    0.0000 C   0  0
    2.6000   -1.5007    0.0000 O   0  0
    9.1014    2.2508    0.0000 C   0  0
   10.4013    3.0008    0.0000 C   0  0
   10.4028    4.5016    0.0000 C   0  0
   11.7006    2.2496    0.0000 O   0  0
    5.2030   -1.5008    0.0000 C   0  0
    6.5039   -2.2494    0.0000 C   0  0
    6.5070   -3.7502    0.0000 C   0  0
    5.1816   -3.0191    0.0000 O   0  0
   10.3977   -0.0039    0.0000 C   0  0
   10.3946   -1.5047    0.0000 C   0  0
   11.6923   -2.2586    0.0000 C   0  0
    9.0931   -2.2520    0.0000 O   0  0
    7.7999    0.0000    0.0000 C   0  0
    6.5000    0.7500    0.0000 C   0  0
    9.0999    0.7500    0.0000 N   0  0
    5.2000    0.0000    0.0000 N   0  0
    3.9000    1.7500    0.0000 H   0  0
    4.7659    1.2501    0.0000 H   0  0
    1.7340   -0.5001    0.0000 H   0  0
    0.4338    0.2503    0.0000 H   0  0
    0.4340    1.2501    0.0000 H   0  0
    1.3000    1.7500    0.0000 H   0  0
    1.7343   -2.0013    0.0000 H   0  0
    8.2349    1.7515    0.0000 H   0  0
    8.2356    2.7514    0.0000 H   0  0
   10.4009    2.0008    0.0000 H   0  0
   11.2690    5.0014    0.0000 H   0  0
    9.5371    5.0022    0.0000 H   0  0
   10.4033    5.5016    0.0000 H   0  0
   12.5672    2.7485    0.0000 H   0  0
    4.3379   -2.0023    0.0000 H   0  0
    4.3361   -1.0025    0.0000 H   0  0
    7.3690   -1.7479    0.0000 H   0  0
    7.3737   -4.2490    0.0000 H   0  0
    6.5085   -4.7502    0.0000 H   0  0
    5.6418   -4.2517    0.0000 H   0  0
    5.1847   -4.0191    0.0000 H   0  0
   10.4002    0.9961    0.0000 H   0  0
   11.2649    0.4940    0.0000 H   0  0
    9.5297   -1.0028    0.0000 H   0  0
   11.6902   -3.2586    0.0000 H   0  0
   12.5595   -1.7607    0.0000 H   0  0
   12.5572   -2.7606    0.0000 H   0  0
    9.0901   -3.2520    0.0000 H   0  0
    7.7999   -1.0000    0.0000 H   0  0
    8.6659   -0.5001    0.0000 H   0  0
    6.5000    1.7500    0.0000 H   0  0
    5.6340    1.2501    0.0000 H   0  0
  1  2  1  0
  1 20  1  0
  2  3  1  0
  2  4  1  0
  5  6  1  0
  5 19  1  0
  6  7  1  0
  6  8  1  0
  9 10  1  0
  9 20  1  0
 10 11  1  0
 10 12  1  0
 13 14  1  0
 13 19  1  0
 14 15  1  0
 14 16  1  0
 17 18  1  0
 17 19  1  0
 18 20  1  0
  1 21  1  0
  1 22  1  0
  2 23  1  0
  3 24  1  0
  3 25  1  0
  3 26  1  0
  4 27  1  0
  5 28  1  0
  5 29  1  0
  6 30  1  0
  7 31  1  0
  7 32  1  0
  7 33  1  0
  8 34  1  0
  9 35  1  0
  9 36  1  0
 10 37  1  0
 11 38  1  0
 11 39  1  0
 11 40  1  0
 12 41  1  0
 13 42  1  0
 13 43  1  0
 14 44  1  0
 15 45  1  0
 15 46  1  0
 15 47  1  0
 16 48  1  0
 17 49  1  0
 17 50  1  0
 18 51  1  0
 18 52  1  0
V    1 0
V    2 1
V    3 2
V    4 3
V    5 4
V    6 5
V    7 6
V    8 7
V    9 8
V   10 9
V   11 10
V   12 11
V   13 12
V   14 13
V   15 14
V   16 15
V   17 16
V   18 17
V   19 18
V   20 19
M  END
> <DSSTox_RID>
59984

> <DSSTox_CID>
6689

> <DSSTox_CID_Parent>
6689

> <DSSTox_Generic_SID>
26689

> <DSSTox_FileID>
540_TXCST2_v1a

> <STRUCTURE_Formula>
C14H32N2O4

> <STRUCTURE_MolecularWeight>
292.4149

> <STRUCTURE_ChemicalType>
defined organic

> <STRUCTURE_TestedForm_DefinedOrganic>
parent

> <STRUCTURE_Shown>
tested chemical

> <TestSubstance_ChemicalName>
2-Propanol, 1,1',1'',1'''-(1,2-ethanediyldinitrilo)tetrakis-

> <TestSubstance_CASRN>
102-60-3

> <TestSubstance_Description>
single chemical compound

> <STRUCTURE_ChemicalName_IUPAC>
1,1',1'',1'''-(ethane-1,2-diyldinitrilo)tetrapropan-2-ol

> <STRUCTURE_SMILES>
OC(C)CN(CCN(CC(O)C)CC(O)C)CC(O)C

> <STRUCTURE_Parent_SMILES>
OC(C)CN(CCN(CC(O)C)CC(O)C)CC(O)C

> <STRUCTURE_InChIS>
InChI=1S/C14H32N2O4/c1-11(17)7-15(8-12(2)18)5-6-16(9-13(3)19)10-14(4)20/h11-14,17-20H,5-10H2,1-4H3

> <STRUCTURE_InChIKey>
NSOXQYCFHDMMGV-UHFFFAOYSA-N

> <Substance_modify_yyyymmdd>
20080429

> <Coord_Metals>
0

> <Index>
540

> <Canonical_Smiles>
CC(O)CN(CCN(CC(C)O)CC(C)O)CC(C)O

> <Molecular_Weight>
292.41488

> <Frequency>
1

$$$$

  SciTegic          2D

 29 28  0  0  0  0            999 V2000
    5.2000    0.0000    0.0000 C   0  0
    6.5000    0.7500    0.0000 C   0  0
    7.7999    0.0000    0.0000 C   0  0
    3.9000    0.7500    0.0000 O   0  0
    6.5000    2.2507    0.0000 O   0  0
    9.0999    0.7500    0.0000 O   0  0
    2.6000    0.0000    0.0000 C   0  0
    2.6000   -1.2000    0.0000 O   0  0
    1.3000    0.7500    0.0000 C   0  0
    7.7992    3.0020    0.0000 C   0  0
    8.8386    2.4023    0.0000 O   0  0
    7.7992    4.5028    0.0000 C   0  0
   10.3999    0.0000    0.0000 C   0  0
   10.3999   -1.2000    0.0000 O   0  0
   11.6999    0.7500    0.0000 C   0  0
    5.2000   -1.0000    0.0000 H   0  0
    4.3340   -0.5001    0.0000 H   0  0
    5.6340    1.2501    0.0000 H   0  0
    8.6659   -0.5001    0.0000 H   0  0
    7.7999   -1.0000    0.0000 H   0  0
    0.4338    0.2503    0.0000 H   0  0
    0.4340    1.2501    0.0000 H   0  0
    1.3000    1.7500    0.0000 H   0  0
    8.6649    5.0034    0.0000 H   0  0
    7.7988    5.5028    0.0000 H   0  0
    6.9330    5.0025    0.0000 H   0  0
   12.5661    0.2503    0.0000 H   0  0
   12.5659    1.2501    0.0000 H   0  0
   11.6999    1.7500    0.0000 H   0  0
  1  2  1  0
  1  4  1  0
  2  3  1  0
  2  5  1  0
  3  6  1  0
  4  7  1  0
  5 10  1  0
  6 13  1  0
  7  8  2  0
  7  9  1  0
 10 11  2  0
 10 12  1  0
 13 14  2  0
 13 15  1  0
  1 16  1  0
  1 17  1  0
  2 18  1  0
  3 19  1  0
  3 20  1  0
  9 21  1  0
  9 22  1  0
  9 23  1  0
 12 24  1  0
 12 25  1  0
 12 26  1  0
 15 27  1  0
 15 28  1  0
 15 29  1  0
V    1 0
V    2 1
V    3 2
V    4 3
V    5 4
V    6 5
V    7 6
V    8 7
V    9 8
V   10 9
V   11 10
V   12 11
V   13 12
V   14 13
V   15 14
M  END
> <DSSTox_RID>
66395

> <DSSTox_CID>
6691

> <DSSTox_CID_Parent>
6691

> <DSSTox_Generic_SID>
26691

> <DSSTox_FileID>
541_TXCST2_v1a

> <STRUCTURE_Formula>
C9H14O6

> <STRUCTURE_MolecularWeight>
218.2039

> <STRUCTURE_ChemicalType>
defined organic

> <STRUCTURE_TestedForm_DefinedOrganic>
parent

> <STRUCTURE_Shown>
tested chemical

> <TestSubstance_ChemicalName>
Triacetin

> <TestSubstance_CASRN>
102-76-1

> <TestSubstance_Description>
single chemical compound

> <STRUCTURE_ChemicalName_IUPAC>
propane-1,2,3-triyl triacetate

> <STRUCTURE_SMILES>
O=C(C)OCC(OC(C)=O)COC(C)=O

> <STRUCTURE_Parent_SMILES>
O=C(C)OCC(OC(C)=O)COC(C)=O

> <STRUCTURE_InChIS>
InChI=1S/C9H14O6/c1-6(10)13-4-9(15-8(3)12)5-14-7(2)11/h9H,4-5H2,1-3H3

> <STRUCTURE_InChIKey>
URAYPUMNDPQOKB-UHFFFAOYSA-N

> <Substance_modify_yyyymmdd>
20080429

> <Coord_Metals>
0

> <Index>
541

> <Canonical_Smiles>
CC(=O)OCC(COC(=O)C)OC(=O)C

> <Molecular_Weight>
218.20385

> <Frequency>
1

$$$$

  SciTegic          2D

 77 76  0  0  0  0            999 V2000
   10.3999    0.0000    0.0000 C   0  0
   11.6999    0.7500    0.0000 C   0  0
   12.9999    0.0000    0.0000 C   0  0
   14.2999    0.7500    0.0000 C   0  0
   15.5999    0.0000    0.0000 C   0  0
   16.8999    0.7500    0.0000 C   0  0
   18.1999    0.0000    0.0000 C   0  0
   19.4998    0.7500    0.0000 C   0  0
   20.7998    0.0000    0.0000 C   0  0
   10.3999   -1.2000    0.0000 O   0  0
    9.0999    0.7500    0.0000 O   0  0
   20.7998   -1.2000    0.0000 O   0  0
   22.0998    0.7500    0.0000 O   0  0
    7.7999    0.0000    0.0000 C   0  0
    6.5000    0.7500    0.0000 C   0  0
    5.2000    0.0000    0.0000 C   0  0
    3.9000    0.7500    0.0000 C   0  0
    2.6000    0.0000    0.0000 C   0  0
    1.3000    0.7500    0.0000 C   0  0
    6.5000    2.2507    0.0000 C   0  0
    7.7992    3.0020    0.0000 C   0  0
   23.3998    0.0000    0.0000 C   0  0
   24.6998    0.7500    0.0000 C   0  0
   25.9998    0.0000    0.0000 C   0  0
   27.2998    0.7500    0.0000 C   0  0
   28.5998    0.0000    0.0000 C   0  0
   29.8998    0.7500    0.0000 C   0  0
   24.6998    2.2507    0.0000 C   0  0
   25.9991    3.0020    0.0000 C   0  0
   11.6999    1.7500    0.0000 H   0  0
   10.8340    1.2501    0.0000 H   0  0
   12.9999   -1.0000    0.0000 H   0  0
   12.1340   -0.5001    0.0000 H   0  0
   14.2999    1.7500    0.0000 H   0  0
   13.4339    1.2501    0.0000 H   0  0
   15.5999   -1.0000    0.0000 H   0  0
   14.7339   -0.5001    0.0000 H   0  0
   16.8999    1.7500    0.0000 H   0  0
   16.0339    1.2501    0.0000 H   0  0
   18.1999   -1.0000    0.0000 H   0  0
   17.3339   -0.5001    0.0000 H   0  0
   19.4998    1.7500    0.0000 H   0  0
   20.3658    1.2501    0.0000 H   0  0
    7.7999   -1.0000    0.0000 H   0  0
    8.6659   -0.5001    0.0000 H   0  0
    6.5000   -0.2500    0.0000 H   0  0
    4.3340   -0.5001    0.0000 H   0  0
    5.2000   -1.0000    0.0000 H   0  0
    3.0340    1.2501    0.0000 H   0  0
    3.9000    1.7500    0.0000 H   0  0
    1.7340   -0.5001    0.0000 H   0  0
    2.6000   -1.0000    0.0000 H   0  0
    0.4338    0.2503    0.0000 H   0  0
    0.4340    1.2501    0.0000 H   0  0
    1.3000    1.7500    0.0000 H   0  0
    6.4995    3.2507    0.0000 H   0  0
    5.6338    2.7505    0.0000 H   0  0
    7.7992    4.0020    0.0000 H   0  0
    8.6652    3.5021    0.0000 H   0  0
    8.6654    2.5023    0.0000 H   0  0
   22.5339   -0.5001    0.0000 H   0  0
   23.3998   -1.0000    0.0000 H   0  0
   24.6998   -0.2500    0.0000 H   0  0
   25.9998   -1.0000    0.0000 H   0  0
   25.1339   -0.5001    0.0000 H   0  0
   27.2998    1.7500    0.0000 H   0  0
   26.4338    1.2501    0.0000 H   0  0
   28.5998   -1.0000    0.0000 H   0  0
   27.7338   -0.5001    0.0000 H   0  0
   30.7660    0.2503    0.0000 H   0  0
   29.8998    1.7500    0.0000 H   0  0
   30.7657    1.2501    0.0000 H   0  0
   24.6993    3.2507    0.0000 H   0  0
   23.8336    2.7505    0.0000 H   0  0
   25.9991    4.0020    0.0000 H   0  0
   26.8650    3.5021    0.0000 H   0  0
   26.8653    2.5023    0.0000 H   0  0
  1  2  1  0
  1 11  1  0
  1 10  2  0
  2  3  1  0
  3  4  1  0
  4  5  1  0
  5  6  1  0
  6  7  1  0
  7  8  1  0
  8  9  1  0
  9 13  1  0
  9 12  2  0
 11 14  1  0
 13 22  1  0
 14 15  1  0
 15 16  1  0
 15 20  1  0
 16 17  1  0
 17 18  1  0
 18 19  1  0
 20 21  1  0
 22 23  1  0
 23 24  1  0
 23 28  1  0
 24 25  1  0
 25 26  1  0
 26 27  1  0
 28 29  1  0
  2 30  1  0
  2 31  1  0
  3 32  1  0
  3 33  1  0
  4 34  1  0
  4 35  1  0
  5 36  1  0
  5 37  1  0
  6 38  1  0
  6 39  1  0
  7 40  1  0
  7 41  1  0
  8 42  1  0
  8 43  1  0
 14 44  1  0
 14 45  1  0
 15 46  1  0
 16 47  1  0
 16 48  1  0
 17 49  1  0
 17 50  1  0
 18 51  1  0
 18 52  1  0
 19 53  1  0
 19 54  1  0
 19 55  1  0
 20 56  1  0
 20 57  1  0
 21 58  1  0
 21 59  1  0
 21 60  1  0
 22 61  1  0
 22 62  1  0
 23 63  1  0
 24 64  1  0
 24 65  1  0
 25 66  1  0
 25 67  1  0
 26 68  1  0
 26 69  1  0
 27 70  1  0
 27 71  1  0
 27 72  1  0
 28 73  1  0
 28 74  1  0
 29 75  1  0
 29 76  1  0
 29 77  1  0
V    1 0
V    2 1
V    3 2
V    4 3
V    5 4
V    6 5
V    7 6
V    8 7
V    9 8
V   10 9
V   11 10
V   12 11
V   13 12
V   14 13
V   15 14
V   16 15
V   17 16
V   18 17
V   19 18
V   20 19
V   21 20
V   22 21
V   23 22
V   24 23
V   25 24
V   26 25
V   27 26
V   28 27
V   29 28
M  END
> <DSSTox_RID>
59831

> <DSSTox_CID>
6697

> <DSSTox_CID_Parent>
6697

> <DSSTox_Generic_SID>
26697

> <DSSTox_FileID>
542_TXCST2_v1a

> <STRUCTURE_Formula>
C25H48O4

> <STRUCTURE_MolecularWeight>
412.6462

> <STRUCTURE_ChemicalType>
defined organic

> <STRUCTURE_TestedForm_DefinedOrganic>
parent

> <STRUCTURE_Shown>
tested chemical

> <TestSubstance_ChemicalName>
Azelaic acid di(2-ethylhexyl) ester

> <TestSubstance_CASRN>
103-24-2

> <TestSubstance_Description>
single chemical compound

> <STRUCTURE_ChemicalName_IUPAC>
bis(2-ethylhexyl) azelaate

> <STRUCTURE_SMILES>
O=C(OCC(CC)CCCC)CCCCCCCC(OCC(CC)CCCC)=O

> <STRUCTURE_Parent_SMILES>
O=C(OCC(CC)CCCC)CCCCCCCC(OCC(CC)CCCC)=O

> <STRUCTURE_InChIS>
InChI=1S/C25H48O4/c1-5-9-16-22(7-3)20-28-24(26)18-14-12-11-13-15-19-25(27)29-21-23(8-4)17-10-6-2/h22-23H,5-21H2,1-4H3

> <STRUCTURE_InChIKey>
ZDWGXBPVPXVXMQ-UHFFFAOYSA-N

> <Substance_modify_yyyymmdd>
20080429

> <Coord_Metals>
0

> <Index>
542

> <Canonical_Smiles>
CCCCC(CC)COC(=O)CCCCCCCC(=O)OCC(CC)CCCC

> <Molecular_Weight>
412.64622

> <Frequency>
1

$$$$

  SciTegic          2D

 31 30  0  0  0  0            999 V2000
   10.3999    0.0000    0.0000 C   0  0
    9.0999    0.7500    0.0000 C   0  0
    7.7999    0.0000    0.0000 C   0  0
    6.5000    0.7500    0.0000 C   0  0
    5.2000    0.0000    0.0000 C   0  0
    3.9000    0.7500    0.0000 C   0  0
    2.6000    0.0000    0.0000 C   0  0
    1.3000    0.7500    0.0000 C   0  0
   11.6999    0.7500    0.0000 O   0  0
    7.7999   -1.5007    0.0000 C   0  0
    2.6031   -1.5008    0.0000 C   0  0
   10.3999   -1.0000    0.0000 H   0  0
   11.2659   -0.5001    0.0000 H   0  0
    9.0999    1.7500    0.0000 H   0  0
    8.2340    1.2501    0.0000 H   0  0
    7.7999    1.0000    0.0000 H   0  0
    5.6340    1.2501    0.0000 H   0  0
    6.5000    1.7500    0.0000 H   0  0
    4.3340   -0.5001    0.0000 H   0  0
    5.2000   -1.0000    0.0000 H   0  0
    3.9000    1.7500    0.0000 H   0  0
    0.4338    0.2503    0.0000 H   0  0
    1.3000    1.7500    0.0000 H   0  0
    0.4340    1.2501    0.0000 H   0  0
   12.5661    0.2503    0.0000 H   0  0
    6.9342   -2.0013    0.0000 H   0  0
    8.6661   -2.0005    0.0000 H   0  0
    7.8004   -2.5007    0.0000 H   0  0
    3.4698   -1.9996    0.0000 H   0  0
    1.7379   -2.0023    0.0000 H   0  0
    2.6046   -2.5008    0.0000 H   0  0
  1  2  1  0
  1  9  1  0
  2  3  1  0
  3  4  1  0
  3 10  1  0
  4  5  1  0
  5  6  1  0
  6  7  2  0
  7  8  1  0
  7 11  1  0
  1 12  1  0
  1 13  1  0
  2 14  1  0
  2 15  1  0
  3 16  1  0
  4 17  1  0
  4 18  1  0
  5 19  1  0
  5 20  1  0
  6 21  1  0
  8 22  1  0
  8 23  1  0
  8 24  1  0
  9 25  1  0
 10 26  1  0
 10 27  1  0
 10 28  1  0
 11 29  1  0
 11 30  1  0
 11 31  1  0
V    1 0
V    2 1
V    3 2
V    4 3
V    5 4
V    6 5
V    7 6
V    8 7
V    9 8
V   10 9
V   11 10
M  END
> <DSSTox_RID>
60390

> <DSSTox_CID>
6726

> <DSSTox_CID_Parent>
6726

> <DSSTox_Generic_SID>
26726

> <DSSTox_FileID>
543_TXCST2_v1a

> <STRUCTURE_Formula>
C10H20O

> <STRUCTURE_MolecularWeight>
156.2652

> <STRUCTURE_ChemicalType>
defined organic

> <STRUCTURE_TestedForm_DefinedOrganic>
parent

> <STRUCTURE_Shown>
tested chemical

> <TestSubstance_ChemicalName>
Citronellol

> <TestSubstance_CASRN>
106-22-9

> <TestSubstance_Description>
single chemical compound

> <ChemicalNote>
mixture of (3R) [1117-61-9]; (3S) [7540-51-4] isomers; structure shown without stereochem

> <STRUCTURE_ChemicalName_IUPAC>
3,7-dimethyloct-6-en-1-ol

> <STRUCTURE_SMILES>
OCCC(C)CC/C=C(C)/C

> <STRUCTURE_Parent_SMILES>
OCCC(C)CC/C=C(C)/C

> <STRUCTURE_InChIS>
InChI=1S/C10H20O/c1-9(2)5-4-6-10(3)7-8-11/h5,10-11H,4,6-8H2,1-3H3

> <STRUCTURE_InChIKey>
QMVPMAAFGQKVCJ-UHFFFAOYSA-N

> <Substance_modify_yyyymmdd>
20080429

> <Coord_Metals>
0

> <Index>
543

> <Canonical_Smiles>
CC(CCO)CCC=C(C)C

> <Molecular_Weight>
156.26519

> <Frequency>
1

$$$$

  SciTegic          2D

 29 28  0  0  0  0            999 V2000
   10.3999    0.0000    0.0000 C   0  0
    9.0999    0.7500    0.0000 C   0  0
    7.7999    0.0000    0.0000 C   0  0
    6.5000    0.7500    0.0000 C   0  0
    5.2000    0.0000    0.0000 C   0  0
    3.9000    0.7500    0.0000 C   0  0
    2.6000    0.0000    0.0000 C   0  0
    1.3000    0.7500    0.0000 C   0  0
   11.6999    0.7500    0.0000 O   0  0
    7.8030   -1.5008    0.0000 C   0  0
    2.6031   -1.5008    0.0000 C   0  0
   10.3999   -1.0000    0.0000 H   0  0
   11.2659   -0.5001    0.0000 H   0  0
    9.0999    1.7500    0.0000 H   0  0
    7.3659    1.2501    0.0000 H   0  0
    6.5000    1.7500    0.0000 H   0  0
    4.3340   -0.5001    0.0000 H   0  0
    5.2000   -1.0000    0.0000 H   0  0
    3.9000    1.7500    0.0000 H   0  0
    0.4338    0.2503    0.0000 H   0  0
    1.3000    1.7500    0.0000 H   0  0
    0.4340    1.2501    0.0000 H   0  0
   12.5661    0.2503    0.0000 H   0  0
    8.6698   -1.9996    0.0000 H   0  0
    6.9379   -2.0023    0.0000 H   0  0
    7.8046   -2.5008    0.0000 H   0  0
    3.4698   -1.9996    0.0000 H   0  0
    2.6046   -2.5008    0.0000 H   0  0
    1.7379   -2.0023    0.0000 H   0  0
  2  1  1  0
  1  9  1  0
  2  3  2  0
  3  4  1  0
  3 10  1  0
  4  5  1  0
  5  6  1  0
  6  7  2  0
  7  8  1  0
  7 11  1  0
  1 12  1  0
  1 13  1  0
  2 14  1  0
  4 15  1  0
  4 16  1  0
  5 17  1  0
  5 18  1  0
  6 19  1  0
  8 20  1  0
  8 21  1  0
  8 22  1  0
  9 23  1  0
 10 24  1  0
 10 25  1  0
 10 26  1  0
 11 27  1  0
 11 28  1  0
 11 29  1  0
V    1 0
V    2 1
V    3 2
V    4 3
V    5 4
V    6 5
V    7 6
V    8 7
V    9 8
V   10 9
V   11 10
M  END
> <DSSTox_RID>
65727
59456

> <DSSTox_CID>
6727
6728

> <DSSTox_CID_Parent>
21380
21380

> <DSSTox_Generic_SID>
26727
26728

> <DSSTox_FileID>
544_TXCST2_v1a
545_TXCST2_v1a

> <STRUCTURE_Formula>
C10H18O
C10H18O

> <STRUCTURE_MolecularWeight>
154.2493
154.2493

> <STRUCTURE_ChemicalType>
defined organic
defined organic

> <STRUCTURE_TestedForm_DefinedOrganic>
parent
parent

> <STRUCTURE_Shown>
tested chemical
tested chemical

> <TestSubstance_ChemicalName>
Geraniol
2,6-Octadien-1-ol, 3,7-dimethyl-, (2Z)-

> <TestSubstance_CASRN>
106-24-1
106-25-2

> <TestSubstance_Description>
single chemical compound
single chemical compound

> <ChemicalNote>
stereochem
stereochem

> <STRUCTURE_ChemicalName_IUPAC>
(2E)-3,7-dimethylocta-2,6-dien-1-ol
(2Z)-3,7-dimethylocta-2,6-dien-1-ol

> <STRUCTURE_SMILES>
OC/C=C(C)/CC/C=C(C)/C
OC\C=C(C)/CC/C=C(C)/C

> <STRUCTURE_Parent_SMILES>
OC/C=C(C)/CC/C=C(C)/C
OC\C=C(C)/CC/C=C(C)/C

> <STRUCTURE_InChIS>
InChI=1S/C10H18O/c1-9(2)5-4-6-10(3)7-8-11/h5,7,11H,4,6,8H2,1-3H3/b10-7+
InChI=1S/C10H18O/c1-9(2)5-4-6-10(3)7-8-11/h5,7,11H,4,6,8H2,1-3H3/b10-7-

> <STRUCTURE_InChIKey>
GLZPCOQZEFWAFX-JXMROGBWSA-N
GLZPCOQZEFWAFX-YFHOEESVSA-N

> <Substance_modify_yyyymmdd>
20080429
20080429

> <Coord_Metals>
0
0

> <Index>
544
545

> <Canonical_Smiles>
CC(=CCCC(=CCO)C)C

> <Molecular_Weight>
154.24931
154.24931

> <Frequency>
2

$$$$

  SciTegic          2D

 16 15  0  0  0  0            999 V2000
    5.2000    0.0000    0.0000 C   0  0
    3.9000    0.7500    0.0000 C   0  0
    2.6000    0.0000    0.0000 C   0  0
    1.3000    0.7500    0.0000 C   0  0
    6.5000    0.7500    0.0000 O   0  0
    2.6000   -1.5007    0.0000 O   0  0
    6.0659   -0.5001    0.0000 H   0  0
    5.2000   -1.0000    0.0000 H   0  0
    3.0340    1.2501    0.0000 H   0  0
    3.9000    1.7500    0.0000 H   0  0
    1.7340   -0.5001    0.0000 H   0  0
    0.4338    0.2503    0.0000 H   0  0
    1.3000    1.7500    0.0000 H   0  0
    0.4340    1.2501    0.0000 H   0  0
    7.3661    0.2503    0.0000 H   0  0
    1.7343   -2.0013    0.0000 H   0  0
  1  2  1  0
  1  5  1  0
  2  3  1  0
  3  4  1  0
  3  6  1  0
  1  7  1  0
  1  8  1  0
  2  9  1  0
  2 10  1  0
  3 11  1  0
  4 12  1  0
  4 13  1  0
  4 14  1  0
  5 15  1  0
  6 16  1  0
V    1 0
V    2 1
V    3 2
V    4 3
V    5 4
V    6 5
M  END
> <DSSTox_RID>
59680

> <DSSTox_CID>
6773

> <DSSTox_CID_Parent>
6773

> <DSSTox_Generic_SID>
26773

> <DSSTox_FileID>
546_TXCST2_v1a

> <STRUCTURE_Formula>
C4H10O2

> <STRUCTURE_MolecularWeight>
90.121

> <STRUCTURE_ChemicalType>
defined organic

> <STRUCTURE_TestedForm_DefinedOrganic>
parent

> <STRUCTURE_Shown>
tested chemical

> <TestSubstance_ChemicalName>
1,3-Butanediol

> <TestSubstance_CASRN>
107-88-0

> <TestSubstance_Description>
single chemical compound

> <Source_ChemicalNote>
tested chemical contained 0.001% water

> <STRUCTURE_ChemicalName_IUPAC>
butane-1,3-diol

> <STRUCTURE_SMILES>
OCCC(O)C

> <STRUCTURE_Parent_SMILES>
OCCC(O)C

> <STRUCTURE_InChIS>
InChI=1S/C4H10O2/c1-4(6)2-3-5/h4-6H,2-3H2,1H3

> <STRUCTURE_InChIKey>
PUPZLCDOIYMWBV-UHFFFAOYSA-N

> <Substance_modify_yyyymmdd>
20080429

> <Coord_Metals>
0

> <Index>
546

> <Canonical_Smiles>
CC(O)CCO

> <Molecular_Weight>
90.121

> <Frequency>
1

$$$$

  SciTegic          2D

 21 20  0  0  0  0            999 V2000
    1.3000    0.7500    0.0000 C   0  0
    2.6000    0.0000    0.0000 C   0  0
    3.9000    0.7500    0.0000 C   0  0
    5.2000    0.0000    0.0000 C   0  0
    6.5000    0.7500    0.0000 C   0  0
    2.6000   -1.5007    0.0000 O   0  0
    5.2000   -1.5007    0.0000 C   0  0
    0.4338    0.2503    0.0000 H   0  0
    1.3000    1.7500    0.0000 H   0  0
    0.4340    1.2501    0.0000 H   0  0
    1.7340   -0.5001    0.0000 H   0  0
    3.0340    1.2501    0.0000 H   0  0
    3.9000    1.7500    0.0000 H   0  0
    5.2000    1.0000    0.0000 H   0  0
    7.3661    0.2503    0.0000 H   0  0
    6.5000    1.7500    0.0000 H   0  0
    7.3659    1.2501    0.0000 H   0  0
    1.7343   -2.0013    0.0000 H   0  0
    4.3343   -2.0013    0.0000 H   0  0
    5.2004   -2.5007    0.0000 H   0  0
    6.0661   -2.0005    0.0000 H   0  0
  1  2  1  0
  2  3  1  0
  2  6  1  0
  3  4  1  0
  4  5  1  0
  4  7  1  0
  1  8  1  0
  1  9  1  0
  1 10  1  0
  2 11  1  0
  3 12  1  0
  3 13  1  0
  4 14  1  0
  5 15  1  0
  5 16  1  0
  5 17  1  0
  6 18  1  0
  7 19  1  0
  7 20  1  0
  7 21  1  0
V    1 0
V    2 1
V    3 2
V    4 3
V    5 4
V    6 5
V    7 6
M  END
> <DSSTox_RID>
66746

> <DSSTox_CID>
6781

> <DSSTox_CID_Parent>
6781

> <DSSTox_Generic_SID>
26781

> <DSSTox_FileID>
547_TXCST2_v1a

> <STRUCTURE_Formula>
C6H14O

> <STRUCTURE_MolecularWeight>
102.1748

> <STRUCTURE_ChemicalType>
defined organic

> <STRUCTURE_TestedForm_DefinedOrganic>
parent

> <STRUCTURE_Shown>
tested chemical

> <TestSubstance_ChemicalName>
4-Methyl-2-pentanol

> <TestSubstance_CASRN>
108-11-2

> <TestSubstance_Description>
single chemical compound

> <STRUCTURE_ChemicalName_IUPAC>
4-methylpentan-2-ol

> <STRUCTURE_SMILES>
OC(CC(C)C)C

> <STRUCTURE_Parent_SMILES>
OC(CC(C)C)C

> <STRUCTURE_InChIS>
InChI=1S/C6H14O/c1-5(2)4-6(3)7/h5-7H,4H2,1-3H3

> <STRUCTURE_InChIKey>
WVYWICLMDOOCFB-UHFFFAOYSA-N

> <Substance_modify_yyyymmdd>
20080429

> <Coord_Metals>
0

> <Index>
547

> <Canonical_Smiles>
CC(C)CC(C)O

> <Molecular_Weight>
102.17476

> <Frequency>
1

$$$$

  SciTegic          2D

 17 17  0  0  0  0            999 V2000
    1.2990   -0.7500    0.0000 C   0  0
    1.2990    0.7500    0.0000 C   0  0
    0.0000    1.5000    0.0000 C   0  0
   -1.2990    0.7500    0.0000 C   0  0
   -1.2990   -0.7500    0.0000 C   0  0
    0.0000   -1.5000    0.0000 C   0  0
    2.5973   -1.5031    0.0000 N   0  0
   -2.5988   -1.5004    0.0000 C   0  0
    2.1651    1.2500    0.0000 H   0  0
    0.0000    2.5000    0.0000 H   0  0
   -2.1651    1.2500    0.0000 H   0  0
    0.0000   -2.5000    0.0000 H   0  0
    2.5958   -2.5031    0.0000 H   0  0
    3.4642   -1.0046    0.0000 H   0  0
   -3.4651   -1.0010    0.0000 H   0  0
   -2.5985   -2.5004    0.0000 H   0  0
   -3.4646   -2.0008    0.0000 H   0  0
  1  2  2  0
  1  6  1  0
  1  7  1  0
  2  3  1  0
  3  4  2  0
  4  5  1  0
  5  6  2  0
  5  8  1  0
  2  9  1  0
  3 10  1  0
  4 11  1  0
  6 12  1  0
  7 13  1  0
  7 14  1  0
  8 15  1  0
  8 16  1  0
  8 17  1  0
V    1 0
V    2 1
V    3 2
V    4 3
V    5 4
V    6 5
V    7 6
V    8 7
M  END
> <DSSTox_RID>
59452

> <DSSTox_CID>
6792

> <DSSTox_CID_Parent>
6792

> <DSSTox_Generic_SID>
26792

> <DSSTox_FileID>
548_TXCST2_v1a

> <STRUCTURE_Formula>
C7H9N

> <STRUCTURE_MolecularWeight>
107.1531

> <STRUCTURE_ChemicalType>
defined organic

> <STRUCTURE_TestedForm_DefinedOrganic>
parent

> <STRUCTURE_Shown>
tested chemical

> <TestSubstance_ChemicalName>
3-Methylaniline

> <TestSubstance_CASRN>
108-44-1

> <TestSubstance_Description>
single chemical compound

> <STRUCTURE_ChemicalName_IUPAC>
m-toluidine

> <STRUCTURE_SMILES>
NC1=CC=CC(C)=C1

> <STRUCTURE_Parent_SMILES>
NC1=CC=CC(C)=C1

> <STRUCTURE_InChIS>
InChI=1S/C7H9N/c1-6-3-2-4-7(8)5-6/h2-5H,8H2,1H3

> <STRUCTURE_InChIKey>
JJYPMNFTHPTTDI-UHFFFAOYSA-N

> <Substance_modify_yyyymmdd>
20080429

> <Coord_Metals>
0

> <Index>
548

> <Canonical_Smiles>
Cc1cccc(N)c1

> <Molecular_Weight>
107.15306

> <Frequency>
1

$$$$

  SciTegic          2D

 21 21  0  0  0  0            999 V2000
    1.2990   -0.7500    0.0000 C   0  0
    1.2990    0.7500    0.0000 C   0  0
    0.0000    1.5000    0.0000 C   0  0
   -1.2990    0.7500    0.0000 C   0  0
   -1.2990   -0.7500    0.0000 C   0  0
    0.0000   -1.5000    0.0000 C   0  0
    2.5988   -1.5004    0.0000 C   0  0
   -2.5988   -1.5004    0.0000 C   0  0
    0.0000    3.0008    0.0000 C   0  0
    2.1651    1.2500    0.0000 H   0  0
   -2.1651    1.2500    0.0000 H   0  0
    0.0000   -2.5000    0.0000 H   0  0
    3.4651   -1.0010    0.0000 H   0  0
    2.5985   -2.5004    0.0000 H   0  0
    3.4646   -2.0008    0.0000 H   0  0
   -3.4651   -1.0010    0.0000 H   0  0
   -2.5985   -2.5004    0.0000 H   0  0
   -3.4646   -2.0008    0.0000 H   0  0
    0.8657    3.5014    0.0000 H   0  0
   -0.8662    3.5005    0.0000 H   0  0
   -0.0005    4.0008    0.0000 H   0  0
  1  2  2  0
  1  6  1  0
  1  7  1  0
  2  3  1  0
  3  4  2  0
  3  9  1  0
  4  5  1  0
  5  6  2  0
  5  8  1  0
  2 10  1  0
  4 11  1  0
  6 12  1  0
  7 13  1  0
  7 14  1  0
  7 15  1  0
  8 16  1  0
  8 17  1  0
  8 18  1  0
  9 19  1  0
  9 20  1  0
  9 21  1  0
V    1 0
V    2 1
V    3 2
V    4 3
V    5 4
V    6 5
V    7 6
V    8 7
V    9 8
M  END
> <DSSTox_RID>
65723

> <DSSTox_CID>
6797

> <DSSTox_CID_Parent>
6797

> <DSSTox_Generic_SID>
26797

> <DSSTox_FileID>
549_TXCST2_v1a

> <STRUCTURE_Formula>
C9H12

> <STRUCTURE_MolecularWeight>
120.1916

> <STRUCTURE_ChemicalType>
defined organic

> <STRUCTURE_TestedForm_DefinedOrganic>
parent

> <STRUCTURE_Shown>
tested chemical

> <TestSubstance_ChemicalName>
1,3,5-Trimethylbenzene

> <TestSubstance_CASRN>
108-67-8

> <TestSubstance_Description>
single chemical compound

> <STRUCTURE_ChemicalName_IUPAC>
mesitylene

> <STRUCTURE_SMILES>
CC1=CC(C)=CC(C)=C1

> <STRUCTURE_Parent_SMILES>
CC1=CC(C)=CC(C)=C1

> <STRUCTURE_InChIS>
InChI=1S/C9H12/c1-7-4-8(2)6-9(3)5-7/h4-6H,1-3H3

> <STRUCTURE_InChIKey>
AUHZEENZYGFFBQ-UHFFFAOYSA-N

> <Substance_modify_yyyymmdd>
20080429

> <Coord_Metals>
0

> <Index>
549

> <Canonical_Smiles>
Cc1cc(C)cc(C)c1

> <Molecular_Weight>
120.19158

> <Frequency>
1

$$$$

  SciTegic          2D

 29 28  0  0  0  0            999 V2000
   10.3999    0.0000    0.0000 C   0  0
    9.0999    0.7500    0.0000 C   0  0
    7.7999    0.0000    0.0000 C   0  0
    6.5000    0.7500    0.0000 C   0  0
    5.2000    0.0000    0.0000 C   0  0
    3.9000    0.7500    0.0000 C   0  0
    2.6000    0.0000    0.0000 C   0  0
    1.3000    0.7500    0.0000 C   0  0
   10.3999   -1.2000    0.0000 O   0  0
   11.6999    0.7500    0.0000 O   0  0
   12.9999    0.0000    0.0000 C   0  0
    9.9659    1.2501    0.0000 H   0  0
    9.0999    1.7500    0.0000 H   0  0
    6.9340   -0.5001    0.0000 H   0  0
    7.7999   -1.0000    0.0000 H   0  0
    5.6340    1.2501    0.0000 H   0  0
    6.5000    1.7500    0.0000 H   0  0
    4.3340   -0.5001    0.0000 H   0  0
    5.2000   -1.0000    0.0000 H   0  0
    3.0340    1.2501    0.0000 H   0  0
    3.9000    1.7500    0.0000 H   0  0
    1.7340   -0.5001    0.0000 H   0  0
    2.6000   -1.0000    0.0000 H   0  0
    0.4338    0.2503    0.0000 H   0  0
    0.4340    1.2501    0.0000 H   0  0
    1.3000    1.7500    0.0000 H   0  0
   13.8661    0.4997    0.0000 H   0  0
   13.8658   -0.5001    0.0000 H   0  0
   12.9999   -1.0000    0.0000 H   0  0
  1  2  1  0
  1 10  1  0
  1  9  2  0
  2  3  1  0
  3  4  1  0
  4  5  1  0
  5  6  1  0
  6  7  1  0
  7  8  1  0
 10 11  1  0
  2 12  1  0
  2 13  1  0
  3 14  1  0
  3 15  1  0
  4 16  1  0
  4 17  1  0
  5 18  1  0
  5 19  1  0
  6 20  1  0
  6 21  1  0
  7 22  1  0
  7 23  1  0
  8 24  1  0
  8 25  1  0
  8 26  1  0
 11 27  1  0
 11 28  1  0
 11 29  1  0
V    1 0
V    2 1
V    3 2
V    4 3
V    5 4
V    6 5
V    7 6
V    8 7
V    9 8
V   10 9
V   11 10
M  END
> <DSSTox_RID>
65691

> <DSSTox_CID>
6864

> <DSSTox_CID_Parent>
6864

> <DSSTox_Generic_SID>
26864

> <DSSTox_FileID>
550_TXCST2_v1a

> <STRUCTURE_Formula>
C9H18O2

> <STRUCTURE_MolecularWeight>
158.238

> <STRUCTURE_ChemicalType>
defined organic

> <STRUCTURE_TestedForm_DefinedOrganic>
parent

> <STRUCTURE_Shown>
tested chemical

> <TestSubstance_ChemicalName>
Methyl octanoate

> <TestSubstance_CASRN>
111-11-5

> <TestSubstance_Description>
single chemical compound

> <STRUCTURE_ChemicalName_IUPAC>
methyl octanoate

> <STRUCTURE_SMILES>
O=C(OC)CCCCCCC

> <STRUCTURE_Parent_SMILES>
O=C(OC)CCCCCCC

> <STRUCTURE_InChIS>
InChI=1S/C9H18O2/c1-3-4-5-6-7-8-9(10)11-2/h3-8H2,1-2H3

> <STRUCTURE_InChIKey>
JGHZJRVDZXSNKQ-UHFFFAOYSA-N

> <Substance_modify_yyyymmdd>
20080429

> <Coord_Metals>
0

> <Index>
550

> <Canonical_Smiles>
CCCCCCCC(=O)OC

> <Molecular_Weight>
158.23801

> <Frequency>
1

$$$$

  SciTegic          2D

 41 40  0  0  0  0            999 V2000
   15.5999    0.0000    0.0000 C   0  0
   14.2999    0.7500    0.0000 C   0  0
   12.9999    0.0000    0.0000 C   0  0
   11.6999    0.7500    0.0000 C   0  0
   10.3999    0.0000    0.0000 C   0  0
    9.0999    0.7500    0.0000 C   0  0
    7.7999    0.0000    0.0000 C   0  0
    6.5000    0.7500    0.0000 C   0  0
    5.2000    0.0000    0.0000 C   0  0
    3.9000    0.7500    0.0000 C   0  0
    2.6000    0.0000    0.0000 C   0  0
    1.3000    0.7500    0.0000 C   0  0
   15.5999   -1.2000    0.0000 O   0  0
   16.8999    0.7500    0.0000 O   0  0
   18.1999    0.0000    0.0000 C   0  0
   15.1658    1.2501    0.0000 H   0  0
   14.2999    1.7500    0.0000 H   0  0
   12.1340   -0.5001    0.0000 H   0  0
   12.9999   -1.0000    0.0000 H   0  0
   10.8340    1.2501    0.0000 H   0  0
   11.6999    1.7500    0.0000 H   0  0
    9.5340   -0.5001    0.0000 H   0  0
   10.3999   -1.0000    0.0000 H   0  0
    8.2340    1.2501    0.0000 H   0  0
    9.0999    1.7500    0.0000 H   0  0
    6.9340   -0.5001    0.0000 H   0  0
    7.7999   -1.0000    0.0000 H   0  0
    5.6340    1.2501    0.0000 H   0  0
    6.5000    1.7500    0.0000 H   0  0
    4.3340   -0.5001    0.0000 H   0  0
    5.2000   -1.0000    0.0000 H   0  0
    3.0340    1.2501    0.0000 H   0  0
    3.9000    1.7500    0.0000 H   0  0
    1.7340   -0.5001    0.0000 H   0  0
    2.6000   -1.0000    0.0000 H   0  0
    0.4338    0.2503    0.0000 H   0  0
    0.4340    1.2501    0.0000 H   0  0
    1.3000    1.7500    0.0000 H   0  0
   19.0660    0.4997    0.0000 H   0  0
   19.0658   -0.5001    0.0000 H   0  0
   18.1999   -1.0000    0.0000 H   0  0
  1  2  1  0
  1 14  1  0
  1 13  2  0
  2  3  1  0
  3  4  1  0
  4  5  1  0
  5  6  1  0
  6  7  1  0
  7  8  1  0
  8  9  1  0
  9 10  1  0
 10 11  1  0
 11 12  1  0
 14 15  1  0
  2 16  1  0
  2 17  1  0
  3 18  1  0
  3 19  1  0
  4 20  1  0
  4 21  1  0
  5 22  1  0
  5 23  1  0
  6 24  1  0
  6 25  1  0
  7 26  1  0
  7 27  1  0
  8 28  1  0
  8 29  1  0
  9 30  1  0
  9 31  1  0
 10 32  1  0
 10 33  1  0
 11 34  1  0
 11 35  1  0
 12 36  1  0
 12 37  1  0
 12 38  1  0
 15 39  1  0
 15 40  1  0
 15 41  1  0
V    1 0
V    2 1
V    3 2
V    4 3
V    5 4
V    6 5
V    7 6
V    8 7
V    9 8
V   10 9
V   11 10
V   12 11
V   13 12
V   14 13
V   15 14
M  END
> <DSSTox_RID>
59926

> <DSSTox_CID>
6889

> <DSSTox_CID_Parent>
6889

> <DSSTox_Generic_SID>
26889

> <DSSTox_FileID>
551_TXCST2_v1a

> <STRUCTURE_Formula>
C13H26O2

> <STRUCTURE_MolecularWeight>
214.3443

> <STRUCTURE_ChemicalType>
defined organic

> <STRUCTURE_TestedForm_DefinedOrganic>
parent

> <STRUCTURE_Shown>
tested chemical

> <TestSubstance_ChemicalName>
Methyl dodecanoate (Methyl laurate)

> <TestSubstance_CASRN>
111-82-0

> <TestSubstance_Description>
single chemical compound

> <STRUCTURE_ChemicalName_IUPAC>
methyl laurate

> <STRUCTURE_SMILES>
O=C(OC)CCCCCCCCCCC

> <STRUCTURE_Parent_SMILES>
O=C(OC)CCCCCCCCCCC

> <STRUCTURE_InChIS>
InChI=1S/C13H26O2/c1-3-4-5-6-7-8-9-10-11-12-13(14)15-2/h3-12H2,1-2H3

> <STRUCTURE_InChIKey>
UQDUPQYQJKYHQI-UHFFFAOYSA-N

> <Substance_modify_yyyymmdd>
20080429

> <Coord_Metals>
0

> <Index>
551

> <Canonical_Smiles>
CCCCCCCCCCCC(=O)OC

> <Molecular_Weight>
214.34433

> <Frequency>
1

$$$$

  SciTegic          2D

 50 49  0  0  0  0            999 V2000
   15.5999    0.0000    0.0000 C   0  0
   14.2999    0.7500    0.0000 C   0  0
   12.9999    0.0000    0.0000 C   0  0
   11.6999    0.7500    0.0000 C   0  0
   10.3999    0.0000    0.0000 C   0  0
    9.0999    0.7500    0.0000 C   0  0
    7.7999    0.0000    0.0000 C   0  0
    6.5000    0.7500    0.0000 C   0  0
    5.2000    0.0000    0.0000 C   0  0
    3.9000    0.7500    0.0000 C   0  0
    2.6000    0.0000    0.0000 C   0  0
    1.3000    0.7500    0.0000 C   0  0
   16.8999    0.7500    0.0000 N   0  3
   18.1999    0.0000    0.0000 C   0  0
   16.8999    2.2507    0.0000 C   0  0
   16.9027   -0.7800    0.0000 C   0  0
   15.5999   -1.0000    0.0000 H   0  0
   14.7339   -0.5001    0.0000 H   0  0
   14.2999    1.7500    0.0000 H   0  0
   13.4339    1.2501    0.0000 H   0  0
   12.9999   -1.0000    0.0000 H   0  0
   12.1340   -0.5001    0.0000 H   0  0
   11.6999    1.7500    0.0000 H   0  0
   10.8340    1.2501    0.0000 H   0  0
   10.3999   -1.0000    0.0000 H   0  0
    9.5340   -0.5001    0.0000 H   0  0
    9.0999    1.7500    0.0000 H   0  0
    8.2340    1.2501    0.0000 H   0  0
    7.7999   -1.0000    0.0000 H   0  0
    6.9340   -0.5001    0.0000 H   0  0
    6.5000    1.7500    0.0000 H   0  0
    5.6340    1.2501    0.0000 H   0  0
    5.2000   -1.0000    0.0000 H   0  0
    4.3340   -0.5001    0.0000 H   0  0
    3.9000    1.7500    0.0000 H   0  0
    3.0340    1.2501    0.0000 H   0  0
    2.6000   -1.0000    0.0000 H   0  0
    1.7340   -0.5001    0.0000 H   0  0
    0.4338    0.2503    0.0000 H   0  0
    1.3000    1.7500    0.0000 H   0  0
    0.4340    1.2501    0.0000 H   0  0
   19.0660    0.4997    0.0000 H   0  0
   18.1999   -1.0000    0.0000 H   0  0
   19.0658   -0.5001    0.0000 H   0  0
   17.7656    2.7513    0.0000 H   0  0
   16.0337    2.7505    0.0000 H   0  0
   16.8994    3.2507    0.0000 H   0  0
   17.7694   -1.2789    0.0000 H   0  0
   16.9041   -1.7800    0.0000 H   0  0
   16.0375   -1.2813    0.0000 H   0  0
  1  2  1  0
  1 13  1  0
  2  3  1  0
  3  4  1  0
  4  5  1  0
  5  6  1  0
  6  7  1  0
  7  8  1  0
  8  9  1  0
  9 10  1  0
 10 11  1  0
 11 12  1  0
 13 14  1  0
 13 15  1  0
 13 16  1  0
  1 17  1  0
  1 18  1  0
  2 19  1  0
  2 20  1  0
  3 21  1  0
  3 22  1  0
  4 23  1  0
  4 24  1  0
  5 25  1  0
  5 26  1  0
  6 27  1  0
  6 28  1  0
  7 29  1  0
  7 30  1  0
  8 31  1  0
  8 32  1  0
  9 33  1  0
  9 34  1  0
 10 35  1  0
 10 36  1  0
 11 37  1  0
 11 38  1  0
 12 39  1  0
 12 40  1  0
 12 41  1  0
 14 42  1  0
 14 43  1  0
 14 44  1  0
 15 45  1  0
 15 46  1  0
 15 47  1  0
 16 48  1  0
 16 49  1  0
 16 50  1  0
M  CHG  1  13   1
V    1 0
V    2 1
V    3 2
V    4 3
V    5 4
V    6 5
V    7 6
V    8 7
V    9 8
V   10 9
V   11 10
V   12 11
V   13 12
V   14 13
V   15 14
V   16 15
M  END
> <DSSTox_RID>
65972

> <DSSTox_CID>
6900

> <DSSTox_Generic_SID>
26900

> <DSSTox_FileID>
552_TXCST2_v1a

> <STRUCTURE_Formula>
C15H34ClN

> <STRUCTURE_MolecularWeight>
263.8902

> <STRUCTURE_ChemicalType>
defined organic

> <STRUCTURE_TestedForm_DefinedOrganic>
salt Cl

> <STRUCTURE_Shown>
tested chemical

> <TestSubstance_ChemicalName>
Dodecyltrimethylammonium chloride

> <TestSubstance_CASRN>
112-00-5

> <TestSubstance_Description>
single chemical compound

> <ChemicalNote>
ammonium; parent [10182-91-9]

> <STRUCTURE_ChemicalName_IUPAC>
N,N,N-trimethyldodecan-1-aminium chloride

> <STRUCTURE_SMILES>
C[N+](C)(C)CCCCCCCCCCCC.[Cl-]

> <STRUCTURE_Parent_SMILES>
C[N+](C)(C)CCCCCCCCCCCC

> <STRUCTURE_InChIS>
InChI=1S/C15H34N.ClH/c1-5-6-7-8-9-10-11-12-13-14-15-16(2,3)4;/h5-15H2,1-4H3;1H/q+1;/p-1

> <STRUCTURE_InChIKey>
DDXLVDQZPFLQMZ-UHFFFAOYSA-M

> <Substance_modify_yyyymmdd>
20080429

> <Coord_Metals>
0

> <Index>
552

> <Canonical_Smiles>
CCCCCCCCCCCC[N+](C)(C)C

> <Molecular_Weight>
228.43715

> <Frequency>
1

$$$$

  SciTegic          2D

 28 27  0  0  0  0            999 V2000
    2.6000    0.0000    0.0000 C   0  0
    3.9000    0.7500    0.0000 C   0  0
    1.3000    0.7500    0.0000 O   0  0
    5.2000    0.0000    0.0000 O   0  0
    6.5000    0.7500    0.0000 C   0  0
    7.7999    0.0000    0.0000 C   0  0
    9.0999    0.7500    0.0000 C   0  0
   10.3999    0.0000    0.0000 C   0  0
   11.6999    0.7500    0.0000 C   0  0
   12.9999    0.0000    0.0000 C   0  0
    2.6000   -1.0000    0.0000 H   0  0
    1.7340   -0.5001    0.0000 H   0  0
    3.9000    1.7500    0.0000 H   0  0
    4.7659    1.2501    0.0000 H   0  0
    0.4338    0.2503    0.0000 H   0  0
    6.5000    1.7500    0.0000 H   0  0
    5.6340    1.2501    0.0000 H   0  0
    7.7999   -1.0000    0.0000 H   0  0
    6.9340   -0.5001    0.0000 H   0  0
    9.0999    1.7500    0.0000 H   0  0
    8.2340    1.2501    0.0000 H   0  0
   10.3999   -1.0000    0.0000 H   0  0
    9.5340   -0.5001    0.0000 H   0  0
   11.6999    1.7500    0.0000 H   0  0
   10.8340    1.2501    0.0000 H   0  0
   13.8661    0.4997    0.0000 H   0  0
   12.9999   -1.0000    0.0000 H   0  0
   13.8658   -0.5001    0.0000 H   0  0
  1  2  1  0
  1  3  1  0
  2  4  1  0
  4  5  1  0
  5  6  1  0
  6  7  1  0
  7  8  1  0
  8  9  1  0
  9 10  1  0
  1 11  1  0
  1 12  1  0
  2 13  1  0
  2 14  1  0
  3 15  1  0
  5 16  1  0
  5 17  1  0
  6 18  1  0
  6 19  1  0
  7 20  1  0
  7 21  1  0
  8 22  1  0
  8 23  1  0
  9 24  1  0
  9 25  1  0
 10 26  1  0
 10 27  1  0
 10 28  1  0
V    1 0
V    2 1
V    3 2
V    4 3
V    5 4
V    6 5
V    7 6
V    8 7
V    9 8
V   10 9
M  END
> <DSSTox_RID>
66095

> <DSSTox_CID>
6908

> <DSSTox_CID_Parent>
6908

> <DSSTox_Generic_SID>
26908

> <DSSTox_FileID>
553_TXCST2_v1a

> <STRUCTURE_Formula>
C8H18O2

> <STRUCTURE_MolecularWeight>
146.2273

> <STRUCTURE_ChemicalType>
defined organic

> <STRUCTURE_TestedForm_DefinedOrganic>
parent

> <STRUCTURE_Shown>
tested chemical

> <TestSubstance_ChemicalName>
2-(Hexyloxy)ethanol

> <TestSubstance_CASRN>
112-25-4

> <TestSubstance_Description>
single chemical compound

> <STRUCTURE_ChemicalName_IUPAC>
2-(hexyloxy)ethanol

> <STRUCTURE_SMILES>
OCCOCCCCCC

> <STRUCTURE_Parent_SMILES>
OCCOCCCCCC

> <STRUCTURE_InChIS>
InChI=1S/C8H18O2/c1-2-3-4-5-7-10-8-6-9/h9H,2-8H2,1H3

> <STRUCTURE_InChIKey>
UPGSWASWQBLSKZ-UHFFFAOYSA-N

> <Substance_modify_yyyymmdd>
20080429

> <Coord_Metals>
0

> <Index>
553

> <Canonical_Smiles>
CCCCCCOCCO

> <Molecular_Weight>
146.22731

> <Frequency>
1

$$$$

  SciTegic          2D

 36 35  0  0  0  0            999 V2000
   14.2999    0.7500    0.0000 C   0  0
   12.9999    0.0000    0.0000 C   0  0
   11.6999    0.7500    0.0000 C   0  0
   10.3999    0.0000    0.0000 C   0  0
    9.0999    0.7500    0.0000 C   0  0
    7.7999    0.0000    0.0000 C   0  0
    6.5000    0.7500    0.0000 C   0  0
    5.2000    0.0000    0.0000 C   0  0
    3.9000    0.7500    0.0000 C   0  0
    2.6000    0.0000    0.0000 C   0  0
    1.3000    0.7500    0.0000 C   0  0
   15.5999    0.0000    0.0000 O   0  0
   14.2999    1.7500    0.0000 H   0  0
   15.1658    1.2501    0.0000 H   0  0
   12.9999   -1.0000    0.0000 H   0  0
   12.1340   -0.5001    0.0000 H   0  0
   11.6999    1.7500    0.0000 H   0  0
   10.8340    1.2501    0.0000 H   0  0
   10.3999   -1.0000    0.0000 H   0  0
    9.5340   -0.5001    0.0000 H   0  0
    9.0999    1.7500    0.0000 H   0  0
    8.2340    1.2501    0.0000 H   0  0
    7.7999   -1.0000    0.0000 H   0  0
    6.9340   -0.5001    0.0000 H   0  0
    6.5000    1.7500    0.0000 H   0  0
    5.6340    1.2501    0.0000 H   0  0
    5.2000   -1.0000    0.0000 H   0  0
    4.3340   -0.5001    0.0000 H   0  0
    3.9000    1.7500    0.0000 H   0  0
    3.0340    1.2501    0.0000 H   0  0
    2.6000   -1.0000    0.0000 H   0  0
    1.7340   -0.5001    0.0000 H   0  0
    0.4338    0.2503    0.0000 H   0  0
    1.3000    1.7500    0.0000 H   0  0
    0.4340    1.2501    0.0000 H   0  0
   16.4661    0.4997    0.0000 H   0  0
  1  2  1  0
  1 12  1  0
  2  3  1  0
  3  4  1  0
  4  5  1  0
  5  6  1  0
  6  7  1  0
  7  8  1  0
  8  9  1  0
  9 10  1  0
 10 11  1  0
  1 13  1  0
  1 14  1  0
  2 15  1  0
  2 16  1  0
  3 17  1  0
  3 18  1  0
  4 19  1  0
  4 20  1  0
  5 21  1  0
  5 22  1  0
  6 23  1  0
  6 24  1  0
  7 25  1  0
  7 26  1  0
  8 27  1  0
  8 28  1  0
  9 29  1  0
  9 30  1  0
 10 31  1  0
 10 32  1  0
 11 33  1  0
 11 34  1  0
 11 35  1  0
 12 36  1  0
V    1 0
V    2 1
V    3 2
V    4 3
V    5 4
V    6 5
V    7 6
V    8 7
V    9 8
V   10 9
V   11 10
V   12 11
M  END
> <DSSTox_RID>
59490

> <DSSTox_CID>
6915

> <DSSTox_CID_Parent>
6915

> <DSSTox_Generic_SID>
26915

> <DSSTox_FileID>
554_TXCST2_v1a

> <STRUCTURE_Formula>
C11H24O

> <STRUCTURE_MolecularWeight>
172.3077

> <STRUCTURE_ChemicalType>
defined organic

> <STRUCTURE_TestedForm_DefinedOrganic>
parent

> <STRUCTURE_Shown>
tested chemical

> <TestSubstance_ChemicalName>
1-Undecanol

> <TestSubstance_CASRN>
112-42-5

> <TestSubstance_Description>
single chemical compound

> <STRUCTURE_ChemicalName_IUPAC>
undecan-1-ol

> <STRUCTURE_SMILES>
OCCCCCCCCCCC

> <STRUCTURE_Parent_SMILES>
OCCCCCCCCCCC

> <STRUCTURE_InChIS>
InChI=1S/C11H24O/c1-2-3-4-5-6-7-8-9-10-11-12/h12H,2-11H2,1H3

> <STRUCTURE_InChIKey>
KJIOQYGWTQBHNH-UHFFFAOYSA-N

> <Substance_modify_yyyymmdd>
20080429

> <Coord_Metals>
0

> <Index>
554

> <Canonical_Smiles>
CCCCCCCCCCCO

> <Molecular_Weight>
172.30765

> <Frequency>
1

$$$$

  SciTegic          2D

 39 38  0  0  0  0            999 V2000
   15.5999    0.0000    0.0000 C   0  0
   14.2999    0.7500    0.0000 C   0  0
   12.9999    0.0000    0.0000 C   0  0
   11.6999    0.7500    0.0000 C   0  0
   10.3999    0.0000    0.0000 C   0  0
    9.0999    0.7500    0.0000 C   0  0
    7.7999    0.0000    0.0000 C   0  0
    6.5000    0.7500    0.0000 C   0  0
    5.2000    0.0000    0.0000 C   0  0
    3.9000    0.7500    0.0000 C   0  0
    2.6000    0.0000    0.0000 C   0  0
    1.3000    0.7500    0.0000 C   0  0
   16.8999    0.7500    0.0000 O   0  0
   15.5999   -1.0000    0.0000 H   0  0
   16.4658   -0.5001    0.0000 H   0  0
   14.2999    1.7500    0.0000 H   0  0
   13.4339    1.2501    0.0000 H   0  0
   12.9999   -1.0000    0.0000 H   0  0
   12.1340   -0.5001    0.0000 H   0  0
   11.6999    1.7500    0.0000 H   0  0
   10.8340    1.2501    0.0000 H   0  0
   10.3999   -1.0000    0.0000 H   0  0
    9.5340   -0.5001    0.0000 H   0  0
    9.0999    1.7500    0.0000 H   0  0
    8.2340    1.2501    0.0000 H   0  0
    7.7999   -1.0000    0.0000 H   0  0
    6.9340   -0.5001    0.0000 H   0  0
    6.5000    1.7500    0.0000 H   0  0
    5.6340    1.2501    0.0000 H   0  0
    5.2000   -1.0000    0.0000 H   0  0
    4.3340   -0.5001    0.0000 H   0  0
    3.9000    1.7500    0.0000 H   0  0
    3.0340    1.2501    0.0000 H   0  0
    2.6000   -1.0000    0.0000 H   0  0
    1.7340   -0.5001    0.0000 H   0  0
    0.4338    0.2503    0.0000 H   0  0
    1.3000    1.7500    0.0000 H   0  0
    0.4340    1.2501    0.0000 H   0  0
   17.7661    0.2503    0.0000 H   0  0
  1  2  1  0
  1 13  1  0
  2  3  1  0
  3  4  1  0
  4  5  1  0
  5  6  1  0
  6  7  1  0
  7  8  1  0
  8  9  1  0
  9 10  1  0
 10 11  1  0
 11 12  1  0
  1 14  1  0
  1 15  1  0
  2 16  1  0
  2 17  1  0
  3 18  1  0
  3 19  1  0
  4 20  1  0
  4 21  1  0
  5 22  1  0
  5 23  1  0
  6 24  1  0
  6 25  1  0
  7 26  1  0
  7 27  1  0
  8 28  1  0
  8 29  1  0
  9 30  1  0
  9 31  1  0
 10 32  1  0
 10 33  1  0
 11 34  1  0
 11 35  1  0
 12 36  1  0
 12 37  1  0
 12 38  1  0
 13 39  1  0
V    1 0
V    2 1
V    3 2
V    4 3
V    5 4
V    6 5
V    7 6
V    8 7
V    9 8
V   10 9
V   11 10
V   12 11
V   13 12
M  END
> <DSSTox_RID>
65568

> <DSSTox_CID>
6918

> <DSSTox_CID_Parent>
6918

> <DSSTox_Generic_SID>
26918

> <DSSTox_FileID>
555_TXCST2_v1a

> <STRUCTURE_Formula>
C12H26O

> <STRUCTURE_MolecularWeight>
186.3342

> <STRUCTURE_ChemicalType>
defined organic

> <STRUCTURE_TestedForm_DefinedOrganic>
parent

> <STRUCTURE_Shown>
tested chemical

> <TestSubstance_ChemicalName>
1-Dodecanol

> <TestSubstance_CASRN>
112-53-8

> <TestSubstance_Description>
single chemical compound

> <Source_ChemicalNote>
tested chemical contained 0.95% water (0.1 moles H2O)

> <STRUCTURE_ChemicalName_IUPAC>
dodecan-1-ol

> <STRUCTURE_SMILES>
OCCCCCCCCCCCC

> <STRUCTURE_Parent_SMILES>
OCCCCCCCCCCCC

> <STRUCTURE_InChIS>
InChI=1S/C12H26O/c1-2-3-4-5-6-7-8-9-10-11-12-13/h13H,2-12H2,1H3

> <STRUCTURE_InChIKey>
LQZZUXJYWNFBMV-UHFFFAOYSA-N

> <Substance_modify_yyyymmdd>
20080429

> <Coord_Metals>
0

> <Index>
555

> <Canonical_Smiles>
CCCCCCCCCCCCO

> <Molecular_Weight>
186.33423

> <Frequency>
1

$$$$

  SciTegic          2D

 45 44  0  0  0  0            999 V2000
   18.1999    0.0000    0.0000 C   0  0
   16.8999    0.7500    0.0000 C   0  0
   15.5999    0.0000    0.0000 C   0  0
   14.2999    0.7500    0.0000 C   0  0
   12.9999    0.0000    0.0000 C   0  0
   11.6999    0.7500    0.0000 C   0  0
   10.3999    0.0000    0.0000 C   0  0
    9.0999    0.7500    0.0000 C   0  0
    7.7999    0.0000    0.0000 C   0  0
    6.5000    0.7500    0.0000 C   0  0
    5.2000    0.0000    0.0000 C   0  0
    3.9000    0.7500    0.0000 C   0  0
    2.6000    0.0000    0.0000 C   0  0
    1.3000    0.7500    0.0000 C   0  0
   19.4998    0.7500    0.0000 O   0  0
   18.1999   -1.0000    0.0000 H   0  0
   19.0658   -0.5001    0.0000 H   0  0
   16.8999    1.7500    0.0000 H   0  0
   16.0339    1.2501    0.0000 H   0  0
   15.5999   -1.0000    0.0000 H   0  0
   14.7339   -0.5001    0.0000 H   0  0
   14.2999    1.7500    0.0000 H   0  0
   13.4339    1.2501    0.0000 H   0  0
   12.9999   -1.0000    0.0000 H   0  0
   12.1340   -0.5001    0.0000 H   0  0
   11.6999    1.7500    0.0000 H   0  0
   10.8340    1.2501    0.0000 H   0  0
   10.3999   -1.0000    0.0000 H   0  0
    9.5340   -0.5001    0.0000 H   0  0
    9.0999    1.7500    0.0000 H   0  0
    8.2340    1.2501    0.0000 H   0  0
    7.7999   -1.0000    0.0000 H   0  0
    6.9340   -0.5001    0.0000 H   0  0
    6.5000    1.7500    0.0000 H   0  0
    5.6340    1.2501    0.0000 H   0  0
    5.2000   -1.0000    0.0000 H   0  0
    4.3340   -0.5001    0.0000 H   0  0
    3.9000    1.7500    0.0000 H   0  0
    3.0340    1.2501    0.0000 H   0  0
    2.6000   -1.0000    0.0000 H   0  0
    1.7340   -0.5001    0.0000 H   0  0
    0.4338    0.2503    0.0000 H   0  0
    1.3000    1.7500    0.0000 H   0  0
    0.4340    1.2501    0.0000 H   0  0
   20.3660    0.2503    0.0000 H   0  0
  1  2  1  0
  1 15  1  0
  2  3  1  0
  3  4  1  0
  4  5  1  0
  5  6  1  0
  6  7  1  0
  7  8  1  0
  8  9  1  0
  9 10  1  0
 10 11  1  0
 11 12  1  0
 12 13  1  0
 13 14  1  0
  1 16  1  0
  1 17  1  0
  2 18  1  0
  2 19  1  0
  3 20  1  0
  3 21  1  0
  4 22  1  0
  4 23  1  0
  5 24  1  0
  5 25  1  0
  6 26  1  0
  6 27  1  0
  7 28  1  0
  7 29  1  0
  8 30  1  0
  8 31  1  0
  9 32  1  0
  9 33  1  0
 10 34  1  0
 10 35  1  0
 11 36  1  0
 11 37  1  0
 12 38  1  0
 12 39  1  0
 13 40  1  0
 13 41  1  0
 14 42  1  0
 14 43  1  0
 14 44  1  0
 15 45  1  0
V    1 0
V    2 1
V    3 2
V    4 3
V    5 4
V    6 5
V    7 6
V    8 7
V    9 8
V   10 9
V   11 10
V   12 11
V   13 12
V   14 13
V   15 14
M  END
> <DSSTox_RID>
67004

> <DSSTox_CID>
6926

> <DSSTox_CID_Parent>
6926

> <DSSTox_Generic_SID>
26926

> <DSSTox_FileID>
556_TXCST2_v1a

> <STRUCTURE_Formula>
C14H30O

> <STRUCTURE_MolecularWeight>
214.3874

> <STRUCTURE_ChemicalType>
defined organic

> <STRUCTURE_TestedForm_DefinedOrganic>
parent

> <STRUCTURE_Shown>
tested chemical

> <TestSubstance_ChemicalName>
1-Tetradecanol

> <TestSubstance_CASRN>
112-72-1

> <TestSubstance_Description>
single chemical compound

> <STRUCTURE_ChemicalName_IUPAC>
tetradecan-1-ol

> <STRUCTURE_SMILES>
OCCCCCCCCCCCCCC

> <STRUCTURE_Parent_SMILES>
OCCCCCCCCCCCCCC

> <STRUCTURE_InChIS>
InChI=1S/C14H30O/c1-2-3-4-5-6-7-8-9-10-11-12-13-14-15/h15H,2-14H2,1H3

> <STRUCTURE_InChIKey>
HLZKNKRTKFSKGZ-UHFFFAOYSA-N

> <Substance_modify_yyyymmdd>
20080429

> <Coord_Metals>
0

> <Index>
556

> <Canonical_Smiles>
CCCCCCCCCCCCCCO

> <Molecular_Weight>
214.38739

> <Frequency>
1

$$$$

  SciTegic          2D

 41 42  0  0  0  0            999 V2000
    6.4855   -8.2648    0.0000 C   0  0
    5.1873   -7.5117    0.0000 C   0  0
    6.4833   -9.7656    0.0000 O   0  0
    3.8933   -3.7570    0.0000 C   0  0
    3.8912   -5.2578    0.0000 C   0  0
    2.5951   -3.0039    0.0000 O   0  0
    5.1894   -6.0109    0.0000 O   0  0
    2.5973   -1.5031    0.0000 C   0  0
    3.6375   -0.9049    0.0000 O   0  0
    1.2990   -0.7500    0.0000 C   0  0
    1.2990    0.7500    0.0000 C   0  0
    0.0000   -1.5000    0.0000 C   0  0
    0.0000    1.5000    0.0000 C   0  0
   -1.2990   -0.7500    0.0000 C   0  0
   -1.2990    0.7500    0.0000 C   0  0
    7.7815  -10.5187    0.0000 C   0  0
    8.8218   -9.9205    0.0000 O   0  0
    7.7794  -12.0195    0.0000 C   0  0
    9.0758  -12.7741    0.0000 C   0  0
    6.4778  -12.7651    0.0000 C   0  0
    9.0706  -14.2741    0.0000 C   0  0
    6.4726  -14.2651    0.0000 C   0  0
    7.7690  -15.0196    0.0000 C   0  0
    7.3524   -7.7663    0.0000 H   0  0
    7.3507   -8.7662    0.0000 H   0  0
    4.3204   -8.0102    0.0000 H   0  0
    4.3220   -7.0104    0.0000 H   0  0
    4.7602   -3.2585    0.0000 H   0  0
    3.8952   -2.7570    0.0000 H   0  0
    3.0243   -5.7563    0.0000 H   0  0
    3.8893   -6.2578    0.0000 H   0  0
    2.1651    1.2500    0.0000 H   0  0
    0.0000   -2.5000    0.0000 H   0  0
    0.0000    2.5000    0.0000 H   0  0
   -2.1651   -1.2500    0.0000 H   0  0
   -2.1651    1.2500    0.0000 H   0  0
    9.9436  -12.2771    0.0000 H   0  0
    5.6135  -12.2622    0.0000 H   0  0
    9.9349  -14.7771    0.0000 H   0  0
    5.6048  -14.7621    0.0000 H   0  0
    7.7656  -16.0196    0.0000 H   0  0
  1  2  1  0
  1  3  1  0
  2  7  1  0
  3 16  1  0
  4  5  1  0
  4  6  1  0
  5  7  1  0
  6  8  1  0
  8  9  2  0
  8 10  1  0
 10 11  2  0
 10 12  1  0
 11 13  1  0
 12 14  2  0
 13 15  2  0
 14 15  1  0
 16 17  2  0
 16 18  1  0
 18 19  2  0
 18 20  1  0
 19 21  1  0
 20 22  2  0
 21 23  2  0
 22 23  1  0
  1 24  1  0
  1 25  1  0
  2 26  1  0
  2 27  1  0
  4 28  1  0
  4 29  1  0
  5 30  1  0
  5 31  1  0
 11 32  1  0
 12 33  1  0
 13 34  1  0
 14 35  1  0
 15 36  1  0
 19 37  1  0
 20 38  1  0
 21 39  1  0
 22 40  1  0
 23 41  1  0
V    1 0
V    2 1
V    3 2
V    4 3
V    5 4
V    6 5
V    7 6
V    8 7
V    9 8
V   10 9
V   11 10
V   12 11
V   13 12
V   14 13
V   15 14
V   16 15
V   17 16
V   18 17
V   19 18
V   20 19
V   21 20
V   22 21
V   23 22
M  END
> <DSSTox_RID>
59545

> <DSSTox_CID>
6967

> <DSSTox_CID_Parent>
6967

> <DSSTox_Generic_SID>
26967

> <DSSTox_FileID>
557_TXCST2_v1a

> <STRUCTURE_Formula>
C18H18O5

> <STRUCTURE_MolecularWeight>
314.3325

> <STRUCTURE_ChemicalType>
defined organic

> <STRUCTURE_TestedForm_DefinedOrganic>
parent

> <STRUCTURE_Shown>
tested chemical

> <TestSubstance_ChemicalName>
Di(ethylene glycol) dibenzoate

> <TestSubstance_CASRN>
120-55-8

> <TestSubstance_Description>
single chemical compound

> <STRUCTURE_ChemicalName_IUPAC>
2,2'-oxydiethylene dibenzoate

> <STRUCTURE_SMILES>
O=C(C1=CC=CC=C1)OCCOCCOC(C2=CC=CC=C2)=O

> <STRUCTURE_Parent_SMILES>
O=C(C1=CC=CC=C1)OCCOCCOC(C2=CC=CC=C2)=O

> <STRUCTURE_InChIS>
InChI=1S/C18H18O5/c19-17(15-7-3-1-4-8-15)22-13-11-21-12-14-23-18(20)16-9-5-2-6-10-16/h1-10H,11-14H2

> <STRUCTURE_InChIKey>
NXQMCAOPTPLPRL-UHFFFAOYSA-N

> <Substance_modify_yyyymmdd>
20080429

> <Coord_Metals>
0

> <Index>
557

> <Canonical_Smiles>
O=C(OCCOCCOC(=O)c1ccccc1)c2ccccc2

> <Molecular_Weight>
314.33252

> <Frequency>
1

$$$$

  SciTegic          2D

 43 43  0  0  0  0            999 V2000
    1.2990   -0.7500    0.0000 C   0  0
    2.5973   -1.5031    0.0000 O   0  0
    1.2990    0.7500    0.0000 C   0  0
    0.0000   -1.5000    0.0000 C   0  0
   -1.2990   -0.7500    0.0000 C   0  0
    0.0000    1.5000    0.0000 C   0  0
   -1.2990    0.7500    0.0000 C   0  0
    2.2637    1.8997    0.0000 C   0  0
    3.7419    1.6400    0.0000 C   0  0
    4.7066    2.7897    0.0000 C   0  0
    1.7500    3.3098    0.0000 C   0  0
    2.7848    0.4612    0.0000 C   0  0
   -2.2638    1.8997    0.0000 C   0  0
   -3.7419    1.6400    0.0000 C   0  0
   -4.7067    2.7897    0.0000 C   0  0
   -1.7500    3.3098    0.0000 C   0  0
   -2.7848    0.4612    0.0000 C   0  0
    2.5958   -2.5031    0.0000 H   0  0
    0.0000   -2.5000    0.0000 H   0  0
   -2.1651   -1.2500    0.0000 H   0  0
    0.0000    2.5000    0.0000 H   0  0
    4.0843    0.7005    0.0000 H   0  0
    3.0995    0.8737    0.0000 H   0  0
    5.6916    2.6167    0.0000 H   0  0
    4.3643    3.7293    0.0000 H   0  0
    5.3491    3.5561    0.0000 H   0  0
    2.3920    4.0764    0.0000 H   0  0
    0.7651    3.4828    0.0000 H   0  0
    1.4072    4.2492    0.0000 H   0  0
    2.1413   -0.3042    0.0000 H   0  0
    3.7694    0.2863    0.0000 H   0  0
    3.1258   -0.4789    0.0000 H   0  0
   -4.0843    0.7004    0.0000 H   0  0
   -3.0995    0.8737    0.0000 H   0  0
   -5.6916    2.6167    0.0000 H   0  0
   -4.3643    3.7293    0.0000 H   0  0
   -5.3491    3.5560    0.0000 H   0  0
   -2.3921    4.0764    0.0000 H   0  0
   -0.7651    3.4828    0.0000 H   0  0
   -1.4073    4.2492    0.0000 H   0  0
   -2.1413   -0.3042    0.0000 H   0  0
   -3.7694    0.2863    0.0000 H   0  0
   -3.1258   -0.4789    0.0000 H   0  0
  1  2  1  0
  1  3  2  0
  1  4  1  0
  3  6  1  0
  3  8  1  0
  4  5  2  0
  5  7  1  0
  6  7  2  0
  7 13  1  0
  8  9  1  0
  8 11  1  0
  8 12  1  0
  9 10  1  0
 13 14  1  0
 13 16  1  0
 13 17  1  0
 14 15  1  0
  2 18  1  0
  4 19  1  0
  5 20  1  0
  6 21  1  0
  9 22  1  0
  9 23  1  0
 10 24  1  0
 10 25  1  0
 10 26  1  0
 11 27  1  0
 11 28  1  0
 11 29  1  0
 12 30  1  0
 12 31  1  0
 12 32  1  0
 14 33  1  0
 14 34  1  0
 15 35  1  0
 15 36  1  0
 15 37  1  0
 16 38  1  0
 16 39  1  0
 16 40  1  0
 17 41  1  0
 17 42  1  0
 17 43  1  0
V    1 0
V    2 1
V    3 2
V    4 3
V    5 4
V    6 5
V    7 6
V    8 7
V    9 8
V   10 9
V   11 10
V   12 11
V   13 12
V   14 13
V   15 14
V   16 15
V   17 16
M  END
> <DSSTox_RID>
65587

> <DSSTox_CID>
6974

> <DSSTox_CID_Parent>
6974

> <DSSTox_Generic_SID>
26974

> <DSSTox_FileID>
558_TXCST2_v1a

> <STRUCTURE_Formula>
C16H26O

> <STRUCTURE_MolecularWeight>
234.377

> <STRUCTURE_ChemicalType>
defined organic

> <STRUCTURE_TestedForm_DefinedOrganic>
parent

> <STRUCTURE_Shown>
tested chemical

> <TestSubstance_ChemicalName>
2,4-Bis(2-methylbutan-2-yl)phenol

> <TestSubstance_CASRN>
120-95-6

> <TestSubstance_Description>
single chemical compound

> <STRUCTURE_ChemicalName_IUPAC>
2,4-bis(1,1-dimethylpropyl)phenol

> <STRUCTURE_SMILES>
OC1=C(C(C)(C)CC)C=C(C(C)(C)CC)C=C1

> <STRUCTURE_Parent_SMILES>
OC1=C(C(C)(C)CC)C=C(C(C)(C)CC)C=C1

> <STRUCTURE_InChIS>
InChI=1S/C16H26O/c1-7-15(3,4)12-9-10-14(17)13(11-12)16(5,6)8-2/h9-11,17H,7-8H2,1-6H3

> <STRUCTURE_InChIKey>
WMVJWKURWRGJCI-UHFFFAOYSA-N

> <Substance_modify_yyyymmdd>
20080429

> <Coord_Metals>
0

> <Index>
558

> <Canonical_Smiles>
CCC(C)(C)c1ccc(O)c(c1)C(C)(C)CC

> <Molecular_Weight>
234.37703

> <Frequency>
1

$$$$

  SciTegic          2D

 19 18  0  0  0  0            999 V2000
    2.6000    0.0000    0.0000 C   0  0
    3.9000    0.7500    0.0000 C   0  0
    5.2000    0.0000    0.0000 C   0  0
    1.3000    0.7500    0.0000 O   0  0
    6.5000    0.7500    0.0000 O   0  0
    3.9000    2.2507    0.0000 C   0  0
    5.1992    3.0020    0.0000 O   0  0
    3.9028   -0.7800    0.0000 N   0  0
    4.7695   -1.2789    0.0000 O   0  0
    3.0376   -1.2813    0.0000 O   0  0
    2.6000   -1.0000    0.0000 H   0  0
    1.7340   -0.5001    0.0000 H   0  0
    5.2000   -1.0000    0.0000 H   0  0
    6.0659   -0.5001    0.0000 H   0  0
    0.4338    0.2503    0.0000 H   0  0
    7.3661    0.2503    0.0000 H   0  0
    3.0338    2.7505    0.0000 H   0  0
    3.8995    3.2507    0.0000 H   0  0
    5.1992    4.0020    0.0000 H   0  0
  1  2  1  0
  1  4  1  0
  2  3  1  0
  2  6  1  0
  2  8  1  0
  3  5  1  0
  6  7  1  0
  8  9  2  0
  8 10  2  0
  1 11  1  0
  1 12  1  0
  3 13  1  0
  3 14  1  0
  4 15  1  0
  5 16  1  0
  6 17  1  0
  6 18  1  0
  7 19  1  0
V    1 0
V    2 1
V    3 2
V    4 3
V    5 4
V    6 5
V    7 6
V    8 7
V    9 8
V   10 9
M  END
> <DSSTox_RID>
65736

> <DSSTox_CID>
7034

> <DSSTox_CID_Parent>
7034

> <DSSTox_Generic_SID>
27034

> <DSSTox_FileID>
559_TXCST2_v1a

> <STRUCTURE_Formula>
C4H9NO5

> <STRUCTURE_MolecularWeight>
151.118

> <STRUCTURE_ChemicalType>
defined organic

> <STRUCTURE_TestedForm_DefinedOrganic>
parent

> <STRUCTURE_Shown>
tested chemical

> <TestSubstance_ChemicalName>
2-(Hydroxymethyl)-2-nitro-1,3-propanediol

> <TestSubstance_CASRN>
126-11-4

> <TestSubstance_Description>
single chemical compound

> <STRUCTURE_ChemicalName_IUPAC>
2-(hydroxymethyl)-2-nitropropane-1,3-diol

> <STRUCTURE_SMILES>
OCC(CO)([N+]([O-])=O)CO

> <STRUCTURE_Parent_SMILES>
OCC(CO)([N+]([O-])=O)CO

> <STRUCTURE_InChIS>
InChI=1S/C4H9NO5/c6-1-4(2-7,3-8)5(9)10/h6-8H,1-3H2

> <STRUCTURE_InChIKey>
OLQJQHSAWMFDJE-UHFFFAOYSA-N

> <Substance_modify_yyyymmdd>
20080429

> <Coord_Metals>
0

> <Index>
559

> <Canonical_Smiles>
OCC(CO)(CO)N(=O)=O

> <Molecular_Weight>
151.11795

> <Frequency>
1

$$$$

  SciTegic          2D

 42 41  0  0  0  0            999 V2000
    1.3000    0.7500    0.0000 C   0  0
    2.6000    0.0000    0.0000 C   0  0
    3.9000    0.7500    0.0000 C   0  0
    5.2000    0.0000    0.0000 C   0  0
    6.5000    0.7500    0.0000 C   0  0
    7.7999    1.5000    0.0000 C   0  0
    9.0999    2.2500    0.0000 C   0  0
   10.3999    1.5000    0.0000 C   0  0
   11.6999    2.2500    0.0000 C   0  0
   12.9999    1.5000    0.0000 C   0  0
    5.2028    1.5300    0.0000 O   0  0
    9.0971    0.7200    0.0000 O   0  0
    2.6000   -1.5007    0.0000 C   0  0
    5.2000   -1.5007    0.0000 C   0  0
    9.0999    3.7507    0.0000 C   0  0
   11.6999    3.7507    0.0000 C   0  0
    0.4338    0.2503    0.0000 H   0  0
    1.3000    1.7500    0.0000 H   0  0
    0.4340    1.2501    0.0000 H   0  0
    2.6000    1.0000    0.0000 H   0  0
    3.0340    1.2501    0.0000 H   0  0
    3.9000    1.7500    0.0000 H   0  0
    9.5340    0.9999    0.0000 H   0  0
   10.3999    0.5000    0.0000 H   0  0
   11.6999    1.2500    0.0000 H   0  0
   13.8661    1.9997    0.0000 H   0  0
   12.9999    0.5000    0.0000 H   0  0
   13.8658    0.9999    0.0000 H   0  0
    6.0695    2.0289    0.0000 H   0  0
    8.2304    0.2211    0.0000 H   0  0
    1.7343   -2.0013    0.0000 H   0  0
    3.4662   -2.0005    0.0000 H   0  0
    2.6005   -2.5007    0.0000 H   0  0
    4.3343   -2.0013    0.0000 H   0  0
    6.0661   -2.0005    0.0000 H   0  0
    5.2004   -2.5007    0.0000 H   0  0
    9.9656    4.2513    0.0000 H   0  0
    8.2337    4.2505    0.0000 H   0  0
    9.0995    4.7507    0.0000 H   0  0
   12.5656    4.2513    0.0000 H   0  0
   11.6994    4.7507    0.0000 H   0  0
   10.8337    4.2505    0.0000 H   0  0
  1  2  1  0
  2  3  1  0
  2 13  1  0
  3  4  1  0
  4  5  1  0
  4 11  1  0
  4 14  1  0
  5  6  3  0
  6  7  1  0
  7  8  1  0
  7 12  1  0
  7 15  1  0
  8  9  1  0
  9 10  1  0
  9 16  1  0
  1 17  1  0
  1 18  1  0
  1 19  1  0
  2 20  1  0
  3 21  1  0
  3 22  1  0
  8 23  1  0
  8 24  1  0
  9 25  1  0
 10 26  1  0
 10 27  1  0
 10 28  1  0
 11 29  1  0
 12 30  1  0
 13 31  1  0
 13 32  1  0
 13 33  1  0
 14 34  1  0
 14 35  1  0
 14 36  1  0
 15 37  1  0
 15 38  1  0
 15 39  1  0
 16 40  1  0
 16 41  1  0
 16 42  1  0
V    1 0
V    2 1
V    3 2
V    4 3
V    5 4
V    6 5
V    7 6
V    8 7
V    9 8
V   10 9
V   11 10
V   12 11
V   13 12
V   14 13
V   15 14
V   16 15
M  END
> <DSSTox_RID>
60989

> <DSSTox_CID>
7041

> <DSSTox_CID_Parent>
7041

> <DSSTox_Generic_SID>
27041

> <DSSTox_FileID>
560_TXCST2_v1a

> <STRUCTURE_Formula>
C14H26O2

> <STRUCTURE_MolecularWeight>
226.355

> <STRUCTURE_ChemicalType>
defined organic

> <STRUCTURE_TestedForm_DefinedOrganic>
parent

> <STRUCTURE_Shown>
tested chemical

> <TestSubstance_ChemicalName>
2,4,7,9-Tetramethyl-5-decyne-4,7-diol

> <TestSubstance_CASRN>
126-86-3

> <TestSubstance_Description>
single chemical compound

> <Source_ChemicalNote>
tested chemical was a mixture of (+/-) and meso

> <STRUCTURE_ChemicalName_IUPAC>
2,4,7,9-tetramethyldec-5-yne-4,7-diol

> <STRUCTURE_SMILES>
OC(C#CC(O)(C)CC(C)C)(C)CC(C)C

> <STRUCTURE_Parent_SMILES>
OC(C#CC(O)(C)CC(C)C)(C)CC(C)C

> <STRUCTURE_InChIS>
InChI=1S/C14H26O2/c1-11(2)9-13(5,15)7-8-14(6,16)10-12(3)4/h11-12,15-16H,9-10H2,1-6H3

> <STRUCTURE_InChIKey>
LXOFYPKXCSULTL-UHFFFAOYSA-N

> <Substance_modify_yyyymmdd>
20080429

> <Coord_Metals>
0

> <Index>
560

> <Canonical_Smiles>
CC(C)CC(C)(O)C#CC(C)(O)CC(C)C

> <Molecular_Weight>
226.35503

> <Frequency>
1

$$$$

  SciTegic          2D

 37 37  0  0  0  0            999 V2000
    6.2549   -2.3251    0.0000 C   0  0
    5.2343   -1.2247    0.0000 C   0  0
    3.7708   -1.5575    0.0000 C   0  0
    2.7502   -0.4571    0.0000 C   0  0
    5.5886   -0.0782    0.0000 O   0  0
    3.3248   -2.9905    0.0000 C   0  0
    1.2990   -0.7500    0.0000 C   0  0
    1.2990    0.7500    0.0000 C   0  0
    0.0000    1.5000    0.0000 C   0  0
   -1.2990    0.7500    0.0000 C   0  0
   -1.2990   -0.7500    0.0000 C   0  0
    0.0000   -1.5000    0.0000 C   0  0
    2.5988    1.5004    0.0000 C   0  0
   -1.2999   -2.2084    0.0000 C   0  0
    1.3002   -2.2087    0.0000 C   0  0
    7.2300   -2.1034    0.0000 H   0  0
    5.9597   -3.2805    0.0000 H   0  0
    6.9346   -3.0586    0.0000 H   0  0
    3.0454    0.4983    0.0000 H   0  0
    2.3494   -3.2111    0.0000 H   0  0
    4.0033   -3.7251    0.0000 H   0  0
    3.0280   -3.9454    0.0000 H   0  0
    0.4455   -0.2289    0.0000 H   0  0
    0.0000    2.5000    0.0000 H   0  0
   -2.1530    0.2297    0.0000 H   0  0
   -1.2756    1.7497    0.0000 H   0  0
   -0.4215   -0.2706    0.0000 H   0  0
   -1.2755   -1.7497    0.0000 H   0  0
    3.4651    1.0010    0.0000 H   0  0
    2.5985    2.5004    0.0000 H   0  0
    3.4646    2.0008    0.0000 H   0  0
   -2.1662   -1.7088    0.0000 H   0  0
   -2.1658   -2.7087    0.0000 H   0  0
   -1.2998   -3.2084    0.0000 H   0  0
    1.3009   -3.2087    0.0000 H   0  0
    2.1665   -2.7082    0.0000 H   0  0
    2.1660   -1.7084    0.0000 H   0  0
  1  2  1  0
  2  3  1  0
  2  5  2  0
  3  4  2  0
  3  6  1  0
  4  7  1  0
  7  8  1  0
  7 12  1  0
  8  9  2  0
  8 13  1  0
  9 10  1  0
 10 11  1  0
 11 12  1  0
 12 14  1  0
 12 15  1  0
  1 16  1  0
  1 17  1  0
  1 18  1  0
  4 19  1  0
  6 20  1  0
  6 21  1  0
  6 22  1  0
  7 23  1  0
  9 24  1  0
 10 25  1  0
 10 26  1  0
 11 27  1  0
 11 28  1  0
 13 29  1  0
 13 30  1  0
 13 31  1  0
 14 32  1  0
 14 33  1  0
 14 34  1  0
 15 35  1  0
 15 36  1  0
 15 37  1  0
V    1 0
V    2 1
V    3 2
V    4 3
V    5 4
V    6 5
V    7 6
V    8 7
V    9 8
V   10 9
V   11 10
V   12 11
V   13 12
V   14 13
V   15 14
M  END
> <DSSTox_RID>
61082

> <DSSTox_CID>
7047

> <DSSTox_CID_Parent>
7047

> <DSSTox_Generic_SID>
27047

> <DSSTox_FileID>
561_TXCST2_v1a

> <STRUCTURE_Formula>
C14H22O

> <STRUCTURE_MolecularWeight>
206.3239

> <STRUCTURE_ChemicalType>
defined organic

> <STRUCTURE_TestedForm_DefinedOrganic>
parent

> <STRUCTURE_Shown>
tested chemical

> <TestSubstance_ChemicalName>
3-Buten-2-one, 3-methyl-4-(2,6,6-trimethyl-2-cyclohexen-1-yl)-

> <TestSubstance_CASRN>
127-51-5

> <TestSubstance_Description>
single chemical compound

> <STRUCTURE_ChemicalName_IUPAC>
3-methyl-4-(2,6,6-trimethylcyclohex-2-en-1-yl)but-3-en-2-one

> <STRUCTURE_SMILES>
O=C(/C(C)=C/C1C(C)=CCCC(C)1C)C

> <STRUCTURE_Parent_SMILES>
O=C(/C(C)=C/C1C(C)=CCCC(C)1C)C

> <STRUCTURE_InChIS>
InChI=1S/C14H22O/c1-10-7-6-8-14(4,5)13(10)9-11(2)12(3)15/h7,9,13H,6,8H2,1-5H3/b11-9+

> <STRUCTURE_InChIKey>
JRJBVWJSTHECJK-PKNBQFBNSA-N

> <Substance_modify_yyyymmdd>
20080429

> <Coord_Metals>
0

> <Index>
561

> <Canonical_Smiles>
CC(=O)C(=CC1C(=CCCC1(C)C)C)C

> <Molecular_Weight>
206.32387

> <Frequency>
1

$$$$

  SciTegic          2D

 37 37  0  0  0  0            999 V2000
    1.2990   -0.7500    0.0000 C   0  0
    2.5973   -1.5031    0.0000 O   0  0
    1.2990    0.7500    0.0000 C   0  0
    0.0000   -1.5000    0.0000 C   0  0
   -1.2990   -0.7500    0.0000 C   0  0
    0.0000    1.5000    0.0000 C   0  0
   -1.2990    0.7500    0.0000 C   0  0
    2.2637    1.8997    0.0000 C   0  0
    3.7419    1.6400    0.0000 C   0  0
    1.7500    3.3098    0.0000 C   0  0
    2.7848    0.4612    0.0000 C   0  0
    0.0000   -3.0008    0.0000 C   0  0
   -1.2993   -3.7521    0.0000 C   0  0
    1.2999   -3.7508    0.0000 C   0  0
   -1.3238   -2.2338    0.0000 C   0  0
    2.5958   -2.5031    0.0000 H   0  0
   -2.1651   -1.2500    0.0000 H   0  0
    0.0000    2.5000    0.0000 H   0  0
   -2.1651    1.2500    0.0000 H   0  0
    4.3847    2.4061    0.0000 H   0  0
    4.0843    0.7005    0.0000 H   0  0
    4.7268    1.4666    0.0000 H   0  0
    2.3920    4.0764    0.0000 H   0  0
    0.7651    3.4828    0.0000 H   0  0
    1.4072    4.2492    0.0000 H   0  0
    2.1413   -0.3042    0.0000 H   0  0
    3.1258   -0.4789    0.0000 H   0  0
    3.7694    0.2863    0.0000 H   0  0
   -1.2993   -4.7521    0.0000 H   0  0
   -2.1655   -3.2523    0.0000 H   0  0
   -2.1652   -4.2522    0.0000 H   0  0
    1.3009   -4.7508    0.0000 H   0  0
    2.1656   -3.2502    0.0000 H   0  0
    2.1664   -4.2501    0.0000 H   0  0
   -1.3228   -1.2338    0.0000 H   0  0
   -2.1893   -1.7328    0.0000 H   0  0
   -2.1904   -2.7327    0.0000 H   0  0
  1  2  1  0
  1  3  2  0
  1  4  1  0
  3  6  1  0
  3  8  1  0
  4  5  2  0
  4 12  1  0
  5  7  1  0
  6  7  2  0
  8  9  1  0
  8 10  1  0
  8 11  1  0
 12 13  1  0
 12 14  1  0
 12 15  1  0
  2 16  1  0
  5 17  1  0
  6 18  1  0
  7 19  1  0
  9 20  1  0
  9 21  1  0
  9 22  1  0
 10 23  1  0
 10 24  1  0
 10 25  1  0
 11 26  1  0
 11 27  1  0
 11 28  1  0
 13 29  1  0
 13 30  1  0
 13 31  1  0
 14 32  1  0
 14 33  1  0
 14 34  1  0
 15 35  1  0
 15 36  1  0
 15 37  1  0
V    1 0
V    2 1
V    3 2
V    4 3
V    5 4
V    6 5
V    7 6
V    8 7
V    9 8
V   10 9
V   11 10
V   12 11
V   13 12
V   14 13
V   15 14
M  END
> <DSSTox_RID>
59438

> <DSSTox_CID>
7052

> <DSSTox_CID_Parent>
7052

> <DSSTox_Generic_SID>
27052

> <DSSTox_FileID>
563_TXCST2_v1a

> <STRUCTURE_Formula>
C14H22O

> <STRUCTURE_MolecularWeight>
206.3239

> <STRUCTURE_ChemicalType>
defined organic

> <STRUCTURE_TestedForm_DefinedOrganic>
parent

> <STRUCTURE_Shown>
tested chemical

> <TestSubstance_ChemicalName>
2,6-Di-tert-butylphenol

> <TestSubstance_CASRN>
128-39-2

> <TestSubstance_Description>
single chemical compound

> <STRUCTURE_ChemicalName_IUPAC>
2,6-di-tert-butylphenol

> <STRUCTURE_SMILES>
OC1=C(C(C)(C)C)C=CC=C1C(C)(C)C

> <STRUCTURE_Parent_SMILES>
OC1=C(C(C)(C)C)C=CC=C1C(C)(C)C

> <STRUCTURE_InChIS>
InChI=1S/C14H22O/c1-13(2,3)10-8-7-9-11(12(10)15)14(4,5)6/h7-9,15H,1-6H3

> <STRUCTURE_InChIKey>
DKCPKDPYUFEZCP-UHFFFAOYSA-N

> <Substance_modify_yyyymmdd>
20080429

> <Coord_Metals>
0

> <Index>
563

> <Canonical_Smiles>
CC(C)(C)c1cccc(c1O)C(C)(C)C

> <Molecular_Weight>
206.32387

> <Frequency>
1

$$$$

  SciTegic          2D

  8  8  0  0  0  0            999 V2000
    0.7500   -1.0323    0.0000 N   0  0
    1.2135    0.3943    0.0000 N   0  0
    0.0000    1.2760    0.0000 C   0  0
   -1.2135    0.3943    0.0000 N   0  0
   -0.7500   -1.0323    0.0000 C   0  0
    2.1646    0.7033    0.0000 H   0  0
    0.0000    2.2760    0.0000 H   0  0
   -1.3378   -1.8413    0.0000 H   0  0
  1  2  1  0
  1  5  2  0
  2  3  1  0
  3  4  2  0
  4  5  1  0
  2  6  1  0
  3  7  1  0
  5  8  1  0
V    1 0
V    2 1
V    3 2
V    4 3
V    5 4
M  END
> <DSSTox_RID>
65761

> <DSSTox_CID>
7131

> <DSSTox_CID_Parent>
7131

> <DSSTox_Generic_SID>
27131

> <DSSTox_FileID>
564_TXCST2_v1a

> <STRUCTURE_Formula>
C2H3N3

> <STRUCTURE_MolecularWeight>
69.0653

> <STRUCTURE_ChemicalType>
defined organic

> <STRUCTURE_TestedForm_DefinedOrganic>
parent

> <STRUCTURE_Shown>
tested chemical

> <TestSubstance_ChemicalName>
1H-1,2,4-Triazole

> <TestSubstance_CASRN>
288-88-0

> <TestSubstance_Description>
single chemical compound

> <STRUCTURE_ChemicalName_IUPAC>
1H-1,2,4-triazole

> <STRUCTURE_SMILES>
N1N=CN=C1

> <STRUCTURE_Parent_SMILES>
N1N=CN=C1

> <STRUCTURE_InChIS>
InChI=1S/C2H3N3/c1-3-2-5-4-1/h1-2H,(H,3,4,5)

> <STRUCTURE_InChIKey>
NSPMIYGKQJPBQR-UHFFFAOYSA-N

> <Substance_modify_yyyymmdd>
20080429

> <Coord_Metals>
0

> <Index>
564

> <Canonical_Smiles>
c1nc[nH]n1

> <Molecular_Weight>
69.06532

> <Frequency>
1

$$$$

  SciTegic          2D

 50 49  0  0  0  0            999 V2000
    1.3000    0.7500    0.0000 C   0  0
    2.6000    0.0000    0.0000 C   0  0
    3.9000    0.7500    0.0000 C   0  0
    5.2000    0.0000    0.0000 C   0  0
    6.5000    0.7500    0.0000 C   0  0
    7.7999    0.0000    0.0000 C   0  0
    9.0999    0.7500    0.0000 C   0  0
   10.3999    0.0000    0.0000 C   0  0
   11.6999    0.7500    0.0000 C   0  0
   12.9999    0.0000    0.0000 C   0  0
   14.2999    0.7500    0.0000 C   0  0
   15.5999    0.0000    0.0000 C   0  0
   16.8999    0.7500    0.0000 C   0  0
   18.1999    0.0000    0.0000 C   0  0
   19.4998    0.7500    0.0000 C   0  0
   20.7998    0.0000    0.0000 C   0  0
    0.4338    0.2503    0.0000 H   0  0
    1.3000    1.7500    0.0000 H   0  0
    0.4340    1.2501    0.0000 H   0  0
    2.6000   -1.0000    0.0000 H   0  0
    1.7340   -0.5001    0.0000 H   0  0
    3.9000    1.7500    0.0000 H   0  0
    3.0340    1.2501    0.0000 H   0  0
    5.2000   -1.0000    0.0000 H   0  0
    4.3340   -0.5001    0.0000 H   0  0
    6.5000    1.7500    0.0000 H   0  0
    5.6340    1.2501    0.0000 H   0  0
    7.7999   -1.0000    0.0000 H   0  0
    6.9340   -0.5001    0.0000 H   0  0
    9.0999    1.7500    0.0000 H   0  0
    8.2340    1.2501    0.0000 H   0  0
   10.3999   -1.0000    0.0000 H   0  0
    9.5340   -0.5001    0.0000 H   0  0
   11.6999    1.7500    0.0000 H   0  0
   10.8340    1.2501    0.0000 H   0  0
   12.9999   -1.0000    0.0000 H   0  0
   12.1340   -0.5001    0.0000 H   0  0
   14.2999    1.7500    0.0000 H   0  0
   13.4339    1.2501    0.0000 H   0  0
   15.5999   -1.0000    0.0000 H   0  0
   14.7339   -0.5001    0.0000 H   0  0
   16.8999    1.7500    0.0000 H   0  0
   16.0339    1.2501    0.0000 H   0  0
   18.1999   -1.0000    0.0000 H   0  0
   17.3339   -0.5001    0.0000 H   0  0
   19.4998    1.7500    0.0000 H   0  0
   18.6339    1.2501    0.0000 H   0  0
   21.6660    0.4997    0.0000 H   0  0
   20.7998   -1.0000    0.0000 H   0  0
   21.6658   -0.5001    0.0000 H   0  0
  1  2  1  0
  2  3  1  0
  3  4  1  0
  4  5  1  0
  5  6  1  0
  6  7  1  0
  7  8  1  0
  8  9  1  0
  9 10  1  0
 10 11  1  0
 11 12  1  0
 12 13  1  0
 13 14  1  0
 14 15  1  0
 15 16  1  0
  1 17  1  0
  1 18  1  0
  1 19  1  0
  2 20  1  0
  2 21  1  0
  3 22  1  0
  3 23  1  0
  4 24  1  0
  4 25  1  0
  5 26  1  0
  5 27  1  0
  6 28  1  0
  6 29  1  0
  7 30  1  0
  7 31  1  0
  8 32  1  0
  8 33  1  0
  9 34  1  0
  9 35  1  0
 10 36  1  0
 10 37  1  0
 11 38  1  0
 11 39  1  0
 12 40  1  0
 12 41  1  0
 13 42  1  0
 13 43  1  0
 14 44  1  0
 14 45  1  0
 15 46  1  0
 15 47  1  0
 16 48  1  0
 16 49  1  0
 16 50  1  0
V    1 0
V    2 1
V    3 2
V    4 3
V    5 4
V    6 5
V    7 6
V    8 7
V    9 8
V   10 9
V   11 10
V   12 11
V   13 12
V   14 13
V   15 14
V   16 15
M  END
> <DSSTox_RID>
66795

> <DSSTox_CID>
7195

> <DSSTox_CID_Parent>
7195

> <DSSTox_Generic_SID>
27195

> <DSSTox_FileID>
565_TXCST2_v1a

> <STRUCTURE_Formula>
C16H34

> <STRUCTURE_MolecularWeight>
226.4412

> <STRUCTURE_ChemicalType>
defined organic

> <STRUCTURE_TestedForm_DefinedOrganic>
parent

> <STRUCTURE_Shown>
tested chemical

> <TestSubstance_ChemicalName>
Hexadecane

> <TestSubstance_CASRN>
544-76-3

> <TestSubstance_Description>
single chemical compound

> <Source_ChemicalNote>
tested chemical contained 0.0002% water

> <STRUCTURE_ChemicalName_IUPAC>
hexadecane

> <STRUCTURE_SMILES>
CCCCCCCCCCCCCCCC

> <STRUCTURE_Parent_SMILES>
CCCCCCCCCCCCCCCC

> <STRUCTURE_InChIS>
InChI=1S/C16H34/c1-3-5-7-9-11-13-15-16-14-12-10-8-6-4-2/h3-16H2,1-2H3

> <STRUCTURE_InChIKey>
DCAYPVUWAIABOU-UHFFFAOYSA-N

> <Substance_modify_yyyymmdd>
20080429

> <Coord_Metals>
0

> <Index>
565

> <Canonical_Smiles>
CCCCCCCCCCCCCCCC

> <Molecular_Weight>
226.44115

> <Frequency>
1

$$$$

  SciTegic          2D

 20 21  0  0  0  0            999 V2000
    1.2990   -0.7500    0.0000 N   0  0
    1.2990    0.7500    0.0000 C   0  0
    0.0000   -1.5000    0.0000 C   0  0
   -1.2990   -0.7500    0.0000 C   0  0
    0.0000    1.5000    0.0000 C   0  0
   -1.2990    0.7500    0.0000 C   0  0
   -5.1993    2.9963    0.0000 N   0  0
   -5.1969    1.4963    0.0000 C   0  0
   -3.9014    3.7484    0.0000 C   0  0
   -2.6012    3.0004    0.0000 C   0  0
   -3.8967    0.7484    0.0000 C   0  0
   -2.5987    1.5004    0.0000 C   0  0
    2.1651    1.2500    0.0000 H   0  0
    0.0000   -2.5000    0.0000 H   0  0
   -2.1651   -1.2500    0.0000 H   0  0
    0.0000    2.5000    0.0000 H   0  0
   -6.0621    0.9949    0.0000 H   0  0
   -3.9030    4.7484    0.0000 H   0  0
   -1.7360    3.5018    0.0000 H   0  0
   -3.8951   -0.2516    0.0000 H   0  0
  1  2  2  0
  1  3  1  0
  2  5  1  0
  3  4  2  0
  4  6  1  0
  5  6  2  0
  6 12  1  0
  7  8  2  0
  7  9  1  0
  8 11  1  0
  9 10  2  0
 10 12  1  0
 11 12  2  0
  2 13  1  0
  3 14  1  0
  4 15  1  0
  5 16  1  0
  8 17  1  0
  9 18  1  0
 10 19  1  0
 11 20  1  0
V    1 0
V    2 1
V    3 2
V    4 3
V    5 4
V    6 5
V    7 6
V    8 7
V    9 8
V   10 9
V   11 10
V   12 11
M  END
> <DSSTox_RID>
62426

> <DSSTox_CID>
7200

> <DSSTox_CID_Parent>
7200

> <DSSTox_Generic_SID>
27200

> <DSSTox_FileID>
566_TXCST2_v1a

> <STRUCTURE_Formula>
C10H8N2

> <STRUCTURE_MolecularWeight>
156.1839

> <STRUCTURE_ChemicalType>
defined organic

> <STRUCTURE_TestedForm_DefinedOrganic>
parent

> <STRUCTURE_Shown>
tested chemical

> <TestSubstance_ChemicalName>
4,4'-Bipyridine

> <TestSubstance_CASRN>
553-26-4

> <TestSubstance_Description>
single chemical compound

> <STRUCTURE_ChemicalName_IUPAC>
4,4'-bipyridine

> <STRUCTURE_SMILES>
C1(C2=CC=NC=C2)=CC=NC=C1

> <STRUCTURE_Parent_SMILES>
C1(C2=CC=NC=C2)=CC=NC=C1

> <STRUCTURE_InChIS>
InChI=1S/C10H8N2/c1-5-11-6-2-9(1)10-3-7-12-8-4-10/h1-8H

> <STRUCTURE_InChIKey>
MWVTWFVJZLCBMC-UHFFFAOYSA-N

> <Substance_modify_yyyymmdd>
20080429

> <Coord_Metals>
0

> <Index>
566

> <Canonical_Smiles>
c1cc(ccn1)c2ccncc2

> <Molecular_Weight>
156.18391

> <Frequency>
1

$$$$

  SciTegic          2D

  7  6  0  0  0  0            999 V2000
    3.9000    0.7500    0.0000 C   0  0
    1.3000    0.7500    0.0000 C   0  0
    2.6000    1.5000    0.0000 N   0  0
    0.2606    0.1503    0.0000 S   0  0
    4.7662    1.2497    0.0000 H   0  0
    3.9000   -0.2500    0.0000 H   0  0
    4.7659    0.2499    0.0000 H   0  0
  1  3  1  0
  2  3  2  0
  2  4  2  0
  1  5  1  0
  1  6  1  0
  1  7  1  0
V    1 0
V    2 1
V    3 2
V    4 3
M  END
> <DSSTox_RID>
65693

> <DSSTox_CID>
7204

> <DSSTox_CID_Parent>
7204

> <DSSTox_Generic_SID>
27204

> <DSSTox_FileID>
567_TXCST2_v1a

> <STRUCTURE_Formula>
C2H3NS

> <STRUCTURE_MolecularWeight>
73.1169

> <STRUCTURE_ChemicalType>
defined organic

> <STRUCTURE_TestedForm_DefinedOrganic>
parent

> <STRUCTURE_Shown>
tested chemical

> <TestSubstance_ChemicalName>
Methyl isothiocyanate

> <TestSubstance_CASRN>
556-61-6

> <TestSubstance_Description>
single chemical compound

> <STRUCTURE_ChemicalName_IUPAC>
(methylimino)(thioxo)methane

> <STRUCTURE_SMILES>
S=C=NC

> <STRUCTURE_Parent_SMILES>
S=C=NC

> <STRUCTURE_InChIS>
InChI=1S/C2H3NS/c1-3-2-4/h1H3

> <STRUCTURE_InChIKey>
LGDSHSYDSCRFAB-UHFFFAOYSA-N

> <Substance_modify_yyyymmdd>
20080429

> <Coord_Metals>
0

> <Index>
567

> <Canonical_Smiles>
CN=C=S

> <Molecular_Weight>
73.11692

> <Frequency>
1

$$$$

  SciTegic          2D

 40 40  0  0  0  0            999 V2000
    1.9598    0.0000    0.0000 O   0  0
    1.3858    1.3858    0.0000 Si  0  0
    0.0000    1.9598    0.0000 O   0  0
   -1.3858    1.3858    0.0000 Si  0  0
   -1.9598    0.0000    0.0000 O   0  0
   -1.3858   -1.3858    0.0000 Si  0  0
    0.0000   -1.9598    0.0000 O   0  0
    1.3858   -1.3858    0.0000 Si  0  0
    2.7921    0.9538    0.0000 C   0  0
    0.9538    2.7925    0.0000 C   0  0
   -0.9538    2.7921    0.0000 C   0  0
   -2.7925    0.9538    0.0000 C   0  0
   -2.7921   -0.9538    0.0000 C   0  0
   -0.9538   -2.7925    0.0000 C   0  0
    0.9538   -2.7921    0.0000 C   0  0
    2.7925   -0.9538    0.0000 C   0  0
    3.0514   -0.0120    0.0000 H   0  0
    3.7581    0.6952    0.0000 H   0  0
    3.4991    1.6610    0.0000 H   0  0
    1.6603    3.5002    0.0000 H   0  0
    0.6943    3.7583    0.0000 H   0  0
   -0.0123    3.0509    0.0000 H   0  0
    0.0120    3.0514    0.0000 H   0  0
   -0.6952    3.7581    0.0000 H   0  0
   -1.6610    3.4991    0.0000 H   0  0
   -3.5002    1.6603    0.0000 H   0  0
   -3.7583    0.6943    0.0000 H   0  0
   -3.0509   -0.0123    0.0000 H   0  0
   -3.0514    0.0120    0.0000 H   0  0
   -3.7581   -0.6952    0.0000 H   0  0
   -3.4991   -1.6610    0.0000 H   0  0
   -1.6603   -3.5002    0.0000 H   0  0
   -0.6944   -3.7583    0.0000 H   0  0
    0.0123   -3.0509    0.0000 H   0  0
   -0.0120   -3.0514    0.0000 H   0  0
    0.6952   -3.7581    0.0000 H   0  0
    1.6610   -3.4991    0.0000 H   0  0
    3.5002   -1.6603    0.0000 H   0  0
    3.7583   -0.6944    0.0000 H   0  0
    3.0509    0.0123    0.0000 H   0  0
  1  2  1  0
  1  8  1  0
  2  3  1  0
  2  9  1  0
  2 10  1  0
  3  4  1  0
  4  5  1  0
  4 11  1  0
  4 12  1  0
  5  6  1  0
  6  7  1  0
  6 13  1  0
  6 14  1  0
  7  8  1  0
  8 15  1  0
  8 16  1  0
  9 17  1  0
  9 18  1  0
  9 19  1  0
 10 20  1  0
 10 21  1  0
 10 22  1  0
 11 23  1  0
 11 24  1  0
 11 25  1  0
 12 26  1  0
 12 27  1  0
 12 28  1  0
 13 29  1  0
 13 30  1  0
 13 31  1  0
 14 32  1  0
 14 33  1  0
 14 34  1  0
 15 35  1  0
 15 36  1  0
 15 37  1  0
 16 38  1  0
 16 39  1  0
 16 40  1  0
V    1 0
V    2 1
V    3 2
V    4 3
V    5 4
V    6 5
V    7 6
V    8 7
V    9 8
V   10 9
V   11 10
V   12 11
V   13 12
V   14 13
V   15 14
V   16 15
M  END
> <DSSTox_RID>
59550

> <DSSTox_CID>
7205

> <DSSTox_Generic_SID>
27205

> <DSSTox_FileID>
568_TXCST2_v1a

> <STRUCTURE_Formula>
C8H24O4Si4

> <STRUCTURE_MolecularWeight>
296.6158

> <STRUCTURE_ChemicalType>
organometallic

> <STRUCTURE_Shown>
tested chemical

> <TestSubstance_ChemicalName>
Octamethylcyclotetrasiloxane

> <TestSubstance_CASRN>
556-67-2

> <TestSubstance_Description>
single chemical compound

> <STRUCTURE_ChemicalName_IUPAC>
2,2,4,4,6,6,8,8-octamethyl-1,3,5,7,2,4,6,8-tetroxatetrasilocane

> <STRUCTURE_SMILES>
C[Si]1(C)O[Si](C)(C)O[Si](C)(C)O[Si](C)(C)O1

> <STRUCTURE_InChIS>
InChI=1S/C8H24O4Si4/c1-13(2)9-14(3,4)11-16(7,8)12-15(5,6)10-13/h1-8H3

> <STRUCTURE_InChIKey>
HMMGMWAXVFQUOA-UHFFFAOYSA-N

> <Substance_modify_yyyymmdd>
20080429

> <Coord_Metals>
0

> <Index>
568

> <Canonical_Smiles>
C[Si]1(C)O[Si](C)(C)O[Si](C)(C)O[Si](C)(C)O1

> <Molecular_Weight>
296.61576

> <Frequency>
1

$$$$

  SciTegic          2D

 26 26  0  0  0  0            999 V2000
    1.2990   -0.7500    0.0000 C   0  0
    1.2990    0.7500    0.0000 C   0  0
    0.0000    1.5000    0.0000 C   0  0
   -1.2990    0.7500    0.0000 C   0  0
   -1.2990   -0.7500    0.0000 C   0  0
    0.0000   -1.5000    0.0000 C   0  0
    2.5973   -1.5031    0.0000 N   0  0
    0.0000   -3.0008    0.0000 C   0  0
    1.2993   -3.7521    0.0000 C   0  0
    2.5988    1.5004    0.0000 C   0  0
    3.8990    0.7508    0.0000 C   0  0
    0.0000    2.5000    0.0000 H   0  0
   -2.1651    1.2500    0.0000 H   0  0
   -2.1651   -1.2500    0.0000 H   0  0
    2.5958   -2.5031    0.0000 H   0  0
    3.4642   -1.0046    0.0000 H   0  0
   -0.8662   -3.5006    0.0000 H   0  0
   -0.8659   -2.5007    0.0000 H   0  0
    1.2993   -4.7521    0.0000 H   0  0
    2.1655   -3.2523    0.0000 H   0  0
    2.1652   -4.2522    0.0000 H   0  0
    2.5985    2.5004    0.0000 H   0  0
    1.7327    2.0003    0.0000 H   0  0
    4.7650    1.2509    0.0000 H   0  0
    3.8993   -0.2492    0.0000 H   0  0
    4.7651    0.2510    0.0000 H   0  0
  1  2  2  0
  1  6  1  0
  1  7  1  0
  2  3  1  0
  2 10  1  0
  3  4  2  0
  4  5  1  0
  5  6  2  0
  6  8  1  0
  8  9  1  0
 10 11  1  0
  3 12  1  0
  4 13  1  0
  5 14  1  0
  7 15  1  0
  7 16  1  0
  8 17  1  0
  8 18  1  0
  9 19  1  0
  9 20  1  0
  9 21  1  0
 10 22  1  0
 10 23  1  0
 11 24  1  0
 11 25  1  0
 11 26  1  0
V    1 0
V    2 1
V    3 2
V    4 3
V    5 4
V    6 5
V    7 6
V    8 7
V    9 8
V   10 9
V   11 10
M  END
> <DSSTox_RID>
66846

> <DSSTox_CID>
7218

> <DSSTox_CID_Parent>
7218

> <DSSTox_Generic_SID>
27218

> <DSSTox_FileID>
569_TXCST2_v1a

> <STRUCTURE_Formula>
C10H15N

> <STRUCTURE_MolecularWeight>
149.2328

> <STRUCTURE_ChemicalType>
defined organic

> <STRUCTURE_TestedForm_DefinedOrganic>
parent

> <STRUCTURE_Shown>
tested chemical

> <TestSubstance_ChemicalName>
2,6-Diethylaniline

> <TestSubstance_CASRN>
579-66-8

> <TestSubstance_Description>
single chemical compound

> <STRUCTURE_ChemicalName_IUPAC>
2,6-diethylaniline

> <STRUCTURE_SMILES>
NC1=C(CC)C=CC=C1CC

> <STRUCTURE_Parent_SMILES>
NC1=C(CC)C=CC=C1CC

> <STRUCTURE_InChIS>
InChI=1S/C10H15N/c1-3-8-6-5-7-9(4-2)10(8)11/h5-7H,3-4,11H2,1-2H3

> <STRUCTURE_InChIKey>
FOYHNROGBXVLLX-UHFFFAOYSA-N

> <Substance_modify_yyyymmdd>
20080429

> <Coord_Metals>
0

> <Index>
569

> <Canonical_Smiles>
CCc1cccc(CC)c1N

> <Molecular_Weight>
149.23279

> <Frequency>
1

$$$$

  SciTegic          2D

 19 19  0  0  0  0            999 V2000
    1.2990   -0.7500    0.0000 C   0  0
    1.2990    0.7500    0.0000 C   0  0
    0.0000    1.5000    0.0000 C   0  0
   -1.2990    0.7500    0.0000 C   0  0
   -1.2990   -0.7500    0.0000 C   0  0
    0.0000   -1.5000    0.0000 C   0  0
    2.5988   -1.5004    0.0000 C   0  0
   -0.0031   -3.0008    0.0000 N   0  0
   -1.0432   -3.5994    0.0000 O   0  0
    1.0351   -3.6026    0.0000 O   0  0
   -2.5972   -1.5031    0.0000 N   0  0
   -2.5955   -2.7031    0.0000 O   0  0
   -3.6375   -0.9049    0.0000 O   0  0
    2.1651    1.2500    0.0000 H   0  0
    0.0000    2.5000    0.0000 H   0  0
   -2.1651    1.2500    0.0000 H   0  0
    3.4651   -1.0010    0.0000 H   0  0
    2.5985   -2.5004    0.0000 H   0  0
    3.4646   -2.0008    0.0000 H   0  0
  1  2  2  0
  1  6  1  0
  1  7  1  0
  2  3  1  0
  3  4  2  0
  4  5  1  0
  5  6  2  0
  5 11  1  0
  6  8  1  0
  8  9  2  0
  8 10  2  0
 11 12  2  0
 11 13  2  0
  2 14  1  0
  3 15  1  0
  4 16  1  0
  7 17  1  0
  7 18  1  0
  7 19  1  0
V    1 0
V    2 1
V    3 2
V    4 3
V    5 4
V    6 5
V    7 6
V    8 7
V    9 8
V   10 9
V   11 10
V   12 11
V   13 12
M  END
> <DSSTox_RID>
60122

> <DSSTox_CID>
7236

> <DSSTox_CID_Parent>
7236

> <DSSTox_Generic_SID>
27236

> <DSSTox_FileID>
570_TXCST2_v1a

> <STRUCTURE_Formula>
C7H6N2O4

> <STRUCTURE_MolecularWeight>
182.1335

> <STRUCTURE_ChemicalType>
defined organic

> <STRUCTURE_TestedForm_DefinedOrganic>
parent

> <STRUCTURE_Shown>
tested chemical

> <TestSubstance_ChemicalName>
2,3-Dinitrotoluene

> <TestSubstance_CASRN>
602-01-7

> <TestSubstance_Description>
single chemical compound

> <STRUCTURE_ChemicalName_IUPAC>
1-methyl-2,3-dinitrobenzene

> <STRUCTURE_SMILES>
[O-][N+](C1=C([N+]([O-])=O)C=CC=C1C)=O

> <STRUCTURE_Parent_SMILES>
[O-][N+](C1=C([N+]([O-])=O)C=CC=C1C)=O

> <STRUCTURE_InChIS>
InChI=1S/C7H6N2O4/c1-5-3-2-4-6(8(10)11)7(5)9(12)13/h2-4H,1H3

> <STRUCTURE_InChIKey>
DYSXLQBUUOPLBB-UHFFFAOYSA-N

> <Substance_modify_yyyymmdd>
20080429

> <Coord_Metals>
0

> <Index>
570

> <Canonical_Smiles>
Cc1cccc(c1N(=O)=O)N(=O)=O

> <Molecular_Weight>
182.13353

> <Frequency>
1

$$$$

  SciTegic          2D

 23 22  0  0  0  0            999 V2000
    2.6000    0.0000    0.0000 C   0  0
    2.6000   -1.2000    0.0000 O   0  0
    3.9000    0.7500    0.0000 O   0  0
    1.3000    0.7500    0.0000 C   0  0
    5.2000    0.0000    0.0000 C   0  0
    6.5000    0.7500    0.0000 C   0  0
    7.7999    0.0000    0.0000 C   0  0
    9.0999    0.7500    0.0000 C   0  0
   10.3999    0.0000    0.0000 C   0  0
    0.4338    0.2503    0.0000 H   0  0
    0.4340    1.2501    0.0000 H   0  0
    1.3000    1.7500    0.0000 H   0  0
    4.3340   -0.5001    0.0000 H   0  0
    5.2000   -1.0000    0.0000 H   0  0
    5.6340    1.2501    0.0000 H   0  0
    6.5000    1.7500    0.0000 H   0  0
    6.9340   -0.5001    0.0000 H   0  0
    7.7999   -1.0000    0.0000 H   0  0
    8.2340    1.2501    0.0000 H   0  0
    9.0999    1.7500    0.0000 H   0  0
   11.2661    0.4997    0.0000 H   0  0
   11.2659   -0.5001    0.0000 H   0  0
   10.3999   -1.0000    0.0000 H   0  0
  1  2  2  0
  1  3  1  0
  1  4  1  0
  3  5  1  0
  5  6  1  0
  6  7  1  0
  7  8  1  0
  8  9  1  0
  4 10  1  0
  4 11  1  0
  4 12  1  0
  5 13  1  0
  5 14  1  0
  6 15  1  0
  6 16  1  0
  7 17  1  0
  7 18  1  0
  8 19  1  0
  8 20  1  0
  9 21  1  0
  9 22  1  0
  9 23  1  0
V    1 0
V    2 1
V    3 2
V    4 3
V    5 4
V    6 5
V    7 6
V    8 7
V    9 8
M  END
> <DSSTox_RID>
66035

> <DSSTox_CID>
7263

> <DSSTox_CID_Parent>
7263

> <DSSTox_Generic_SID>
27263

> <DSSTox_FileID>
571_TXCST2_v1a

> <STRUCTURE_Formula>
C7H14O2

> <STRUCTURE_MolecularWeight>
130.1849

> <STRUCTURE_ChemicalType>
defined organic

> <STRUCTURE_TestedForm_DefinedOrganic>
parent

> <STRUCTURE_Shown>
tested chemical

> <TestSubstance_ChemicalName>
Pentyl acetate

> <TestSubstance_CASRN>
628-63-7

> <TestSubstance_Description>
single chemical compound

> <STRUCTURE_ChemicalName_IUPAC>
pentyl acetate

> <STRUCTURE_SMILES>
O=C(C)OCCCCC

> <STRUCTURE_Parent_SMILES>
O=C(C)OCCCCC

> <STRUCTURE_InChIS>
InChI=1S/C7H14O2/c1-3-4-5-6-9-7(2)8/h3-6H2,1-2H3

> <STRUCTURE_InChIKey>
PGMYKACGEOXYJE-UHFFFAOYSA-N

> <Substance_modify_yyyymmdd>
20080429

> <Coord_Metals>
0

> <Index>
571

> <Canonical_Smiles>
CCCCCOC(=O)C

> <Molecular_Weight>
130.18486

> <Frequency>
1

$$$$

  SciTegic          2D

 47 46  0  0  0  0            999 V2000
    1.3000    0.7500    0.0000 C   0  0
    2.6000    0.0000    0.0000 C   0  0
    3.9000    0.7500    0.0000 C   0  0
    5.2000    0.0000    0.0000 C   0  0
    6.5000    0.7500    0.0000 C   0  0
    7.7999    0.0000    0.0000 C   0  0
    9.0999    0.7500    0.0000 C   0  0
   10.3999    0.0000    0.0000 C   0  0
   11.6999    0.7500    0.0000 C   0  0
   12.9999    0.0000    0.0000 C   0  0
   14.2999    0.7500    0.0000 C   0  0
   15.5999    0.0000    0.0000 C   0  0
   16.8999    0.7500    0.0000 C   0  0
   18.1999    0.0000    0.0000 C   0  0
   19.4998    0.7500    0.0000 C   0  0
    0.4338    0.2503    0.0000 H   0  0
    1.3000    1.7500    0.0000 H   0  0
    0.4340    1.2501    0.0000 H   0  0
    2.6000   -1.0000    0.0000 H   0  0
    1.7340   -0.5001    0.0000 H   0  0
    3.9000    1.7500    0.0000 H   0  0
    3.0340    1.2501    0.0000 H   0  0
    5.2000   -1.0000    0.0000 H   0  0
    4.3340   -0.5001    0.0000 H   0  0
    6.5000    1.7500    0.0000 H   0  0
    5.6340    1.2501    0.0000 H   0  0
    7.7999   -1.0000    0.0000 H   0  0
    6.9340   -0.5001    0.0000 H   0  0
    9.0999    1.7500    0.0000 H   0  0
    8.2340    1.2501    0.0000 H   0  0
   10.3999   -1.0000    0.0000 H   0  0
    9.5340   -0.5001    0.0000 H   0  0
   11.6999    1.7500    0.0000 H   0  0
   10.8340    1.2501    0.0000 H   0  0
   12.9999   -1.0000    0.0000 H   0  0
   12.1340   -0.5001    0.0000 H   0  0
   14.2999    1.7500    0.0000 H   0  0
   13.4339    1.2501    0.0000 H   0  0
   15.5999   -1.0000    0.0000 H   0  0
   14.7339   -0.5001    0.0000 H   0  0
   16.8999    1.7500    0.0000 H   0  0
   16.0339    1.2501    0.0000 H   0  0
   18.1999   -1.0000    0.0000 H   0  0
   17.3339   -0.5001    0.0000 H   0  0
   20.3660    0.2503    0.0000 H   0  0
   19.4998    1.7500    0.0000 H   0  0
   20.3658    1.2501    0.0000 H   0  0
  1  2  1  0
  2  3  1  0
  3  4  1  0
  4  5  1  0
  5  6  1  0
  6  7  1  0
  7  8  1  0
  8  9  1  0
  9 10  1  0
 10 11  1  0
 11 12  1  0
 12 13  1  0
 13 14  1  0
 14 15  1  0
  1 16  1  0
  1 17  1  0
  1 18  1  0
  2 19  1  0
  2 20  1  0
  3 21  1  0
  3 22  1  0
  4 23  1  0
  4 24  1  0
  5 25  1  0
  5 26  1  0
  6 27  1  0
  6 28  1  0
  7 29  1  0
  7 30  1  0
  8 31  1  0
  8 32  1  0
  9 33  1  0
  9 34  1  0
 10 35  1  0
 10 36  1  0
 11 37  1  0
 11 38  1  0
 12 39  1  0
 12 40  1  0
 13 41  1  0
 13 42  1  0
 14 43  1  0
 14 44  1  0
 15 45  1  0
 15 46  1  0
 15 47  1  0
V    1 0
V    2 1
V    3 2
V    4 3
V    5 4
V    6 5
V    7 6
V    8 7
V    9 8
V   10 9
V   11 10
V   12 11
V   13 12
V   14 13
V   15 14
M  END
> <DSSTox_RID>
65799

> <DSSTox_CID>
7268

> <DSSTox_CID_Parent>
7268

> <DSSTox_Generic_SID>
27268

> <DSSTox_FileID>
572_TXCST2_v1a

> <STRUCTURE_Formula>
C15H32

> <STRUCTURE_MolecularWeight>
212.4146

> <STRUCTURE_ChemicalType>
defined organic

> <STRUCTURE_TestedForm_DefinedOrganic>
parent

> <STRUCTURE_Shown>
tested chemical

> <TestSubstance_ChemicalName>
Pentadecane

> <TestSubstance_CASRN>
629-62-9

> <TestSubstance_Description>
single chemical compound

> <STRUCTURE_ChemicalName_IUPAC>
pentadecane

> <STRUCTURE_SMILES>
CCCCCCCCCCCCCCC

> <STRUCTURE_Parent_SMILES>
CCCCCCCCCCCCCCC

> <STRUCTURE_InChIS>
InChI=1S/C15H32/c1-3-5-7-9-11-13-15-14-12-10-8-6-4-2/h3-15H2,1-2H3

> <STRUCTURE_InChIKey>
YCOZIPAWZNQLMR-UHFFFAOYSA-N

> <Substance_modify_yyyymmdd>
20080429

> <Coord_Metals>
0

> <Index>
572

> <Canonical_Smiles>
CCCCCCCCCCCCCCC

> <Molecular_Weight>
212.41457

> <Frequency>
1

$$$$

  SciTegic          2D

 48 47  0  0  0  0            999 V2000
   19.4998    0.7500    0.0000 C   0  0
   18.1999    0.0000    0.0000 C   0  0
   16.8999    0.7500    0.0000 C   0  0
   15.5999    0.0000    0.0000 C   0  0
   14.2999    0.7500    0.0000 C   0  0
   12.9999    0.0000    0.0000 C   0  0
   11.6999    0.7500    0.0000 C   0  0
   10.3999    0.0000    0.0000 C   0  0
    9.0999    0.7500    0.0000 C   0  0
    7.7999    0.0000    0.0000 C   0  0
    6.5000    0.7500    0.0000 C   0  0
    5.2000    0.0000    0.0000 C   0  0
    3.9000    0.7500    0.0000 C   0  0
    2.6000    0.0000    0.0000 C   0  0
    1.3000    0.7500    0.0000 C   0  0
   20.7998    0.0000    0.0000 O   0  0
   19.4998    1.7500    0.0000 H   0  0
   20.3658    1.2501    0.0000 H   0  0
   18.1999   -1.0000    0.0000 H   0  0
   17.3339   -0.5001    0.0000 H   0  0
   16.8999    1.7500    0.0000 H   0  0
   16.0339    1.2501    0.0000 H   0  0
   15.5999   -1.0000    0.0000 H   0  0
   14.7339   -0.5001    0.0000 H   0  0
   14.2999    1.7500    0.0000 H   0  0
   13.4339    1.2501    0.0000 H   0  0
   12.9999   -1.0000    0.0000 H   0  0
   12.1340   -0.5001    0.0000 H   0  0
   11.6999    1.7500    0.0000 H   0  0
   10.8340    1.2501    0.0000 H   0  0
   10.3999   -1.0000    0.0000 H   0  0
    9.5340   -0.5001    0.0000 H   0  0
    9.0999    1.7500    0.0000 H   0  0
    8.2340    1.2501    0.0000 H   0  0
    7.7999   -1.0000    0.0000 H   0  0
    6.9340   -0.5001    0.0000 H   0  0
    6.5000    1.7500    0.0000 H   0  0
    5.6340    1.2501    0.0000 H   0  0
    5.2000   -1.0000    0.0000 H   0  0
    4.3340   -0.5001    0.0000 H   0  0
    3.9000    1.7500    0.0000 H   0  0
    3.0340    1.2501    0.0000 H   0  0
    2.6000   -1.0000    0.0000 H   0  0
    1.7340   -0.5001    0.0000 H   0  0
    0.4338    0.2503    0.0000 H   0  0
    1.3000    1.7500    0.0000 H   0  0
    0.4340    1.2501    0.0000 H   0  0
   21.6660    0.4997    0.0000 H   0  0
  1  2  1  0
  1 16  1  0
  2  3  1  0
  3  4  1  0
  4  5  1  0
  5  6  1  0
  6  7  1  0
  7  8  1  0
  8  9  1  0
  9 10  1  0
 10 11  1  0
 11 12  1  0
 12 13  1  0
 13 14  1  0
 14 15  1  0
  1 17  1  0
  1 18  1  0
  2 19  1  0
  2 20  1  0
  3 21  1  0
  3 22  1  0
  4 23  1  0
  4 24  1  0
  5 25  1  0
  5 26  1  0
  6 27  1  0
  6 28  1  0
  7 29  1  0
  7 30  1  0
  8 31  1  0
  8 32  1  0
  9 33  1  0
  9 34  1  0
 10 35  1  0
 10 36  1  0
 11 37  1  0
 11 38  1  0
 12 39  1  0
 12 40  1  0
 13 41  1  0
 13 42  1  0
 14 43  1  0
 14 44  1  0
 15 45  1  0
 15 46  1  0
 15 47  1  0
 16 48  1  0
V    1 0
V    2 1
V    3 2
V    4 3
V    5 4
V    6 5
V    7 6
V    8 7
V    9 8
V   10 9
V   11 10
V   12 11
V   13 12
V   14 13
V   15 14
V   16 15
M  END
> <DSSTox_RID>
61315

> <DSSTox_CID>
7270

> <DSSTox_CID_Parent>
7270

> <DSSTox_Generic_SID>
27270

> <DSSTox_FileID>
573_TXCST2_v1a

> <STRUCTURE_Formula>
C15H32O

> <STRUCTURE_MolecularWeight>
228.414

> <STRUCTURE_ChemicalType>
defined organic

> <STRUCTURE_TestedForm_DefinedOrganic>
parent

> <STRUCTURE_Shown>
tested chemical

> <TestSubstance_ChemicalName>
1-Pentadecanol

> <TestSubstance_CASRN>
629-76-5

> <TestSubstance_Description>
single chemical compound

> <STRUCTURE_ChemicalName_IUPAC>
pentadecan-1-ol

> <STRUCTURE_SMILES>
OCCCCCCCCCCCCCCC

> <STRUCTURE_Parent_SMILES>
OCCCCCCCCCCCCCCC

> <STRUCTURE_InChIS>
InChI=1S/C15H32O/c1-2-3-4-5-6-7-8-9-10-11-12-13-14-15-16/h16H,2-15H2,1H3

> <STRUCTURE_InChIKey>
REIUXOLGHVXAEO-UHFFFAOYSA-N

> <Substance_modify_yyyymmdd>
20080429

> <Coord_Metals>
0

> <Index>
573

> <Canonical_Smiles>
CCCCCCCCCCCCCCCO

> <Molecular_Weight>
228.41397

> <Frequency>
1

$$$$

  SciTegic          2D

 74 74  0  0  0  0            999 V2000
    0.7500   -1.0323    0.0000 C   0  0
    1.2135    0.3943    0.0000 O   0  0
   -0.7500   -1.0323    0.0000 C   0  0
    0.0000    1.2760    0.0000 C   0  0
   -1.2135    0.3943    0.0000 C   0  0
   -2.3029   -0.6186    0.0000 O   0  0
   -0.1233   -2.3813    0.0000 O   0  0
    2.2267   -0.8531    0.0000 C   0  0
    3.1087   -2.0673    0.0000 O   0  0
    2.8377    0.5177    0.0000 C   0  0
    4.3302    0.6749    0.0000 O   0  0
    4.9412    2.0457    0.0000 C   0  0
    6.4338    2.2030    0.0000 C   0  0
    4.2360    3.0166    0.0000 O   0  0
    7.0448    3.5738    0.0000 C   0  0
    8.5373    3.7310    0.0000 C   0  0
    9.1483    5.1018    0.0000 C   0  0
   10.6409    5.2591    0.0000 C   0  0
   11.2519    6.6299    0.0000 C   0  0
   12.7445    6.7871    0.0000 C   0  0
   13.3555    8.1579    0.0000 C   0  0
   14.8480    8.3152    0.0000 C   0  0
   15.4590    9.6860    0.0000 C   0  0
   16.9516    9.8432    0.0000 C   0  0
   17.5626   11.2140    0.0000 C   0  0
   19.0551   11.3712    0.0000 C   0  0
   19.6661   12.7421    0.0000 C   0  0
   21.1587   12.8993    0.0000 C   0  0
   21.7697   14.2701    0.0000 C   0  0
   23.2623   14.4273    0.0000 C   0  0
    0.3288   -1.9393    0.0000 H   0  0
   -1.7427   -0.9120    0.0000 H   0  0
   -0.8734    1.7629    0.0000 H   0  0
    0.8733    1.7631    0.0000 H   0  0
   -1.4059    1.3756    0.0000 H   0  0
   -2.0954   -1.5968    0.0000 H   0  0
    0.8712   -2.4862    0.0000 H   0  0
    3.2212   -0.7489    0.0000 H   0  0
    4.1033   -1.9635    0.0000 H   0  0
    2.2499    1.3268    0.0000 H   0  0
    3.2443    1.4313    0.0000 H   0  0
    7.0215    1.3939    0.0000 H   0  0
    6.0271    1.2894    0.0000 H   0  0
    6.4571    4.3829    0.0000 H   0  0
    6.0502    3.4695    0.0000 H   0  0
    9.1251    2.9219    0.0000 H   0  0
    8.1307    2.8174    0.0000 H   0  0
    8.5606    5.9109    0.0000 H   0  0
    8.1538    4.9975    0.0000 H   0  0
   11.2286    4.4500    0.0000 H   0  0
   10.2342    4.3455    0.0000 H   0  0
   10.6642    7.4389    0.0000 H   0  0
   10.2574    6.5256    0.0000 H   0  0
   13.3322    5.9780    0.0000 H   0  0
   13.7390    6.8914    0.0000 H   0  0
   12.7677    8.9670    0.0000 H   0  0
   15.4357    7.5061    0.0000 H   0  0
   14.8713   10.4950    0.0000 H   0  0
   14.4645    9.5817    0.0000 H   0  0
   17.5393    9.0341    0.0000 H   0  0
   16.5449    8.9296    0.0000 H   0  0
   16.9749   12.0231    0.0000 H   0  0
   16.5680   11.1097    0.0000 H   0  0
   19.6429   10.5622    0.0000 H   0  0
   18.6485   10.4577    0.0000 H   0  0
   19.0784   13.5511    0.0000 H   0  0
   18.6716   12.6378    0.0000 H   0  0
   21.7464   12.0902    0.0000 H   0  0
   20.7520   11.9857    0.0000 H   0  0
   21.1820   15.0792    0.0000 H   0  0
   20.7752   14.1658    0.0000 H   0  0
   23.6694   15.3407    0.0000 H   0  0
   23.8500   13.6183    0.0000 H   0  0
   24.2568   14.5316    0.0000 H   0  0
  1  2  1  0
  1  3  1  0
  1  8  1  0
  2  4  1  0
  3  5  1  0
  3  7  1  0
  4  5  1  0
  5  6  1  0
  8  9  1  0
  8 10  1  0
 10 11  1  0
 11 12  1  0
 12 13  1  0
 12 14  2  0
 13 15  1  0
 15 16  1  0
 16 17  1  0
 17 18  1  0
 18 19  1  0
 19 20  1  0
 21 20  1  0
 21 22  2  0
 22 23  1  0
 23 24  1  0
 24 25  1  0
 25 26  1  0
 26 27  1  0
 27 28  1  0
 28 29  1  0
 29 30  1  0
  1 31  1  0
  3 32  1  0
  4 33  1  0
  4 34  1  0
  5 35  1  0
  6 36  1  0
  7 37  1  0
  8 38  1  0
  9 39  1  0
 10 40  1  0
 10 41  1  0
 13 42  1  0
 13 43  1  0
 15 44  1  0
 15 45  1  0
 16 46  1  0
 16 47  1  0
 17 48  1  0
 17 49  1  0
 18 50  1  0
 18 51  1  0
 19 52  1  0
 19 53  1  0
 20 54  1  0
 20 55  1  0
 21 56  1  0
 22 57  1  0
 23 58  1  0
 23 59  1  0
 24 60  1  0
 24 61  1  0
 25 62  1  0
 25 63  1  0
 26 64  1  0
 26 65  1  0
 27 66  1  0
 27 67  1  0
 28 68  1  0
 28 69  1  0
 29 70  1  0
 29 71  1  0
 30 72  1  0
 30 73  1  0
 30 74  1  0
V    1 0
V    2 1
V    3 2
V    4 3
V    5 4
V    6 5
V    7 6
V    8 7
V    9 8
V   10 9
V   11 10
V   12 11
V   13 12
V   14 13
V   15 14
V   16 15
V   17 16
V   18 17
V   19 18
V   20 19
V   21 20
V   22 21
V   23 22
V   24 23
V   25 24
V   26 25
V   27 26
V   28 27
V   29 28
V   30 29
M  END
> <DSSTox_RID>
66083

> <DSSTox_CID>
7397

> <DSSTox_CID_Parent>
7397

> <DSSTox_Generic_SID>
27397

> <DSSTox_FileID>
575_TXCST2_v1a

> <STRUCTURE_Formula>
C24H44O6

> <STRUCTURE_MolecularWeight>
428.6026

> <STRUCTURE_ChemicalType>
defined organic

> <STRUCTURE_TestedForm_DefinedOrganic>
parent

> <STRUCTURE_Shown>
tested chemical

> <TestSubstance_ChemicalName>
Sorbitan, mono-(9Z)-9-octadecenoate

> <TestSubstance_CASRN>
1338-43-8

> <TestSubstance_Description>
single chemical compound

> <ChemicalNote>
stereochem

> <STRUCTURE_ChemicalName_IUPAC>
1,4-anhydro-6-O-[(9Z)-octadec-9-enoyl]-D-glucitol

> <STRUCTURE_SMILES>
O[C@@H]1[C@@H](O)[C@]([C@@H](COC(CCCCCCC\C=C/CCCCCCCC)=O)O)([H])OC1

> <STRUCTURE_Parent_SMILES>
O[C@@H]1[C@@H](O)[C@]([C@@H](COC(CCCCCCC\C=C/CCCCCCCC)=O)O)([H])OC1

> <STRUCTURE_InChIS>
InChI=1S/C24H44O6/c1-2-3-4-5-6-7-8-9-10-11-12-13-14-15-16-17-22(27)29-19-21(26)24-23(28)20(25)18-30-24/h9-10,20-21,23-26,28H,2-8,11-19H2,1H3/b10-9-/t20-,21+,23+,24+/m0/s1

> <STRUCTURE_InChIKey>
NWGKJDSIEKMTRX-AAZCQSIUSA-N

> <Substance_modify_yyyymmdd>
20080429

> <Coord_Metals>
0

> <Index>
575

> <Canonical_Smiles>
CCCCCCCCC=CCCCCCCCC(=O)OCC(O)C1OCC(O)C1O

> <Molecular_Weight>
428.60256

> <Frequency>
1

$$$$

  SciTegic          2D

 41 40  0  0  0  0            999 V2000
    6.5000    0.7500    0.0000 Sn  0  0
    5.2000    0.0000    0.0000 C   0  0
    3.9000    0.7500    0.0000 C   0  0
    2.6000    0.0000    0.0000 C   0  0
    1.3000    0.7500    0.0000 C   0  0
    7.7999    0.0000    0.0000 C   0  0
    9.0999    0.7500    0.0000 C   0  0
   10.3999    0.0000    0.0000 C   0  0
   11.6999    0.7500    0.0000 C   0  0
    6.5000    2.2507    0.0000 C   0  0
    7.7992    3.0020    0.0000 C   0  0
    7.7992    4.5028    0.0000 C   0  0
    9.0985    5.2540    0.0000 C   0  0
    6.5000   -0.2500    0.0000 Cl  0  0
    5.2000   -1.0000    0.0000 H   0  0
    4.3340   -0.5001    0.0000 H   0  0
    3.9000    1.7500    0.0000 H   0  0
    3.0340    1.2501    0.0000 H   0  0
    2.6000   -1.0000    0.0000 H   0  0
    1.7340   -0.5001    0.0000 H   0  0
    0.4338    0.2503    0.0000 H   0  0
    1.3000    1.7500    0.0000 H   0  0
    0.4340    1.2501    0.0000 H   0  0
    7.7999   -1.0000    0.0000 H   0  0
    6.9340   -0.5001    0.0000 H   0  0
    9.0999    1.7500    0.0000 H   0  0
    8.2340    1.2501    0.0000 H   0  0
   10.3999   -1.0000    0.0000 H   0  0
    9.5340   -0.5001    0.0000 H   0  0
   12.5661    0.2503    0.0000 H   0  0
   11.6999    1.7500    0.0000 H   0  0
   12.5659    1.2501    0.0000 H   0  0
    5.6338    2.7505    0.0000 H   0  0
    6.4995    3.2507    0.0000 H   0  0
    8.6654    2.5023    0.0000 H   0  0
    7.7997    2.0020    0.0000 H   0  0
    6.9330    5.0025    0.0000 H   0  0
    6.9333    4.0027    0.0000 H   0  0
    9.0985    6.2540    0.0000 H   0  0
    9.9647    4.7543    0.0000 H   0  0
    9.9644    5.7542    0.0000 H   0  0
  1  2  1  0
  1  6  1  0
  1 10  1  0
  1 14  1  0
  2  3  1  0
  3  4  1  0
  4  5  1  0
  6  7  1  0
  7  8  1  0
  8  9  1  0
 10 11  1  0
 11 12  1  0
 12 13  1  0
  2 15  1  0
  2 16  1  0
  3 17  1  0
  3 18  1  0
  4 19  1  0
  4 20  1  0
  5 21  1  0
  5 22  1  0
  5 23  1  0
  6 24  1  0
  6 25  1  0
  7 26  1  0
  7 27  1  0
  8 28  1  0
  8 29  1  0
  9 30  1  0
  9 31  1  0
  9 32  1  0
 10 33  1  0
 10 34  1  0
 11 35  1  0
 11 36  1  0
 12 37  1  0
 12 38  1  0
 13 39  1  0
 13 40  1  0
 13 41  1  0
V    1 0
V    2 1
V    3 2
V    4 3
V    5 4
V    6 5
V    7 6
V    8 7
V    9 8
V   10 9
V   11 10
V   12 11
V   13 12
V   14 13
M  END
> <DSSTox_RID>
65801

> <DSSTox_CID>
7403

> <DSSTox_Generic_SID>
27403

> <DSSTox_FileID>
576_TXCST2_v1a

> <STRUCTURE_Formula>
C12H27ClSn

> <STRUCTURE_MolecularWeight>
325.5058

> <STRUCTURE_ChemicalType>
organometallic

> <STRUCTURE_Shown>
tested chemical

> <TestSubstance_ChemicalName>
Tributyltin chloride

> <TestSubstance_CASRN>
1461-22-9

> <TestSubstance_Description>
single chemical compound

> <STRUCTURE_ChemicalName_IUPAC>
tributyl(chloro)stannane

> <STRUCTURE_SMILES>
Cl[Sn](CCCC)(CCCC)CCCC

> <STRUCTURE_InChIS>
InChI=1S/3C4H9.ClH.Sn/c3*1-3-4-2;;/h3*1,3-4H2,2H3;1H;/q;;;;+1/p-1

> <STRUCTURE_InChIKey>
GCTFWCDSFPMHHS-UHFFFAOYSA-M

> <Substance_modify_yyyymmdd>
20080429

> <Coord_Metals>
1

> <Index>
576

> <Canonical_Smiles>
CCCC[Sn](Cl)(CCCC)CCCC

> <Molecular_Weight>
325.50578

> <Frequency>
1

$$$$

  SciTegic          2D

 50 51  0  0  0  0            999 V2000
    2.5973   -1.5031    0.0000 C   0  0
    3.6375   -0.9049    0.0000 O   0  0
    1.2990   -0.7500    0.0000 C   0  0
    1.2990    0.7500    0.0000 C   0  0
    0.0000   -1.5000    0.0000 C   0  0
    0.0000    1.5000    0.0000 C   0  0
   -1.2990   -0.7500    0.0000 C   0  0
   -1.2990    0.7500    0.0000 C   0  0
    2.5972    1.5031    0.0000 O   0  0
   -2.6003    1.4977    0.0000 O   0  0
   -3.8990    0.7455    0.0000 C   0  0
   -5.2003    1.4932    0.0000 C   0  0
   -6.4990    0.7409    0.0000 C   0  0
   -7.8003    1.4887    0.0000 C   0  0
   -9.0990    0.7364    0.0000 C   0  0
  -10.4003    1.4841    0.0000 C   0  0
  -11.6990    0.7318    0.0000 C   0  0
  -13.0003    1.4796    0.0000 C   0  0
    2.5951   -3.0039    0.0000 C   0  0
    3.8915   -3.7585    0.0000 C   0  0
    1.2935   -3.7495    0.0000 C   0  0
    3.8864   -5.2585    0.0000 C   0  0
    1.2883   -5.2495    0.0000 C   0  0
    2.5847   -6.0040    0.0000 C   0  0
    0.0000   -2.5000    0.0000 H   0  0
    0.0000    2.5000    0.0000 H   0  0
   -2.1651   -1.2500    0.0000 H   0  0
    2.5958    2.5031    0.0000 H   0  0
   -3.8973   -0.2545    0.0000 H   0  0
   -3.0322    0.2468    0.0000 H   0  0
   -5.2021    2.4932    0.0000 H   0  0
   -4.3353    1.9948    0.0000 H   0  0
   -6.4973   -0.2591    0.0000 H   0  0
   -5.6322    0.2423    0.0000 H   0  0
   -7.8020    2.4887    0.0000 H   0  0
   -6.9352    1.9903    0.0000 H   0  0
   -9.0972   -0.2636    0.0000 H   0  0
   -8.2322    0.2378    0.0000 H   0  0
  -10.4020    2.4841    0.0000 H   0  0
   -9.5352    1.9858    0.0000 H   0  0
  -11.6972   -0.2682    0.0000 H   0  0
  -10.8321    0.2332    0.0000 H   0  0
  -13.8656    0.9783    0.0000 H   0  0
  -13.0020    2.4796    0.0000 H   0  0
  -13.8671    1.9782    0.0000 H   0  0
    4.7593   -3.2615    0.0000 H   0  0
    0.4292   -3.2465    0.0000 H   0  0
    4.7506   -5.7615    0.0000 H   0  0
    0.4205   -5.7465    0.0000 H   0  0
    2.5813   -7.0040    0.0000 H   0  0
  1  2  2  0
  1  3  1  0
  1 19  1  0
  3  4  2  0
  3  5  1  0
  4  6  1  0
  4  9  1  0
  5  7  2  0
  6  8  2  0
  7  8  1  0
  8 10  1  0
 10 11  1  0
 11 12  1  0
 12 13  1  0
 13 14  1  0
 14 15  1  0
 15 16  1  0
 16 17  1  0
 17 18  1  0
 19 20  2  0
 19 21  1  0
 20 22  1  0
 21 23  2  0
 22 24  2  0
 23 24  1  0
  5 25  1  0
  6 26  1  0
  7 27  1  0
  9 28  1  0
 11 29  1  0
 11 30  1  0
 12 31  1  0
 12 32  1  0
 13 33  1  0
 13 34  1  0
 14 35  1  0
 14 36  1  0
 15 37  1  0
 15 38  1  0
 16 39  1  0
 16 40  1  0
 17 41  1  0
 17 42  1  0
 18 43  1  0
 18 44  1  0
 18 45  1  0
 20 46  1  0
 21 47  1  0
 22 48  1  0
 23 49  1  0
 24 50  1  0
V    1 0
V    2 1
V    3 2
V    4 3
V    5 4
V    6 5
V    7 6
V    8 7
V    9 8
V   10 9
V   11 10
V   12 11
V   13 12
V   14 13
V   15 14
V   16 15
V   17 16
V   18 17
V   19 18
V   20 19
V   21 20
V   22 21
V   23 22
V   24 23
M  END
> <DSSTox_RID>
59442

> <DSSTox_CID>
7441

> <DSSTox_CID_Parent>
7441

> <DSSTox_Generic_SID>
27441

> <DSSTox_FileID>
577_TXCST2_v1a

> <STRUCTURE_Formula>
C21H26O3

> <STRUCTURE_MolecularWeight>
326.4293

> <STRUCTURE_ChemicalType>
defined organic

> <STRUCTURE_TestedForm_DefinedOrganic>
parent

> <STRUCTURE_Shown>
tested chemical

> <TestSubstance_ChemicalName>
2-Hydroxy-4-octyloxybenzophenone

> <TestSubstance_CASRN>
1843-05-6

> <TestSubstance_Description>
single chemical compound

> <STRUCTURE_ChemicalName_IUPAC>
[2-hydroxy-4-(octyloxy)phenyl](phenyl)methanone

> <STRUCTURE_SMILES>
O=C(C2=CC=CC=C2)C1=C(O)C=C(OCCCCCCCC)C=C1

> <STRUCTURE_Parent_SMILES>
O=C(C2=CC=CC=C2)C1=C(O)C=C(OCCCCCCCC)C=C1

> <STRUCTURE_InChIS>
InChI=1S/C21H26O3/c1-2-3-4-5-6-10-15-24-18-13-14-19(20(22)16-18)21(23)17-11-8-7-9-12-17/h7-9,11-14,16,22H,2-6,10,15H2,1H3

> <STRUCTURE_InChIKey>
QUAMTGJKVDWJEQ-UHFFFAOYSA-N

> <Substance_modify_yyyymmdd>
20080429

> <Coord_Metals>
0

> <Index>
577

> <Canonical_Smiles>
CCCCCCCCOc1ccc(C(=O)c2ccccc2)c(O)c1

> <Molecular_Weight>
326.42934

> <Frequency>
1

$$$$

  SciTegic          2D

 19 19  0  0  0  0            999 V2000
    1.2990   -0.7500    0.0000 C   0  0
    1.2990    0.7500    0.0000 C   0  0
    0.0000    1.5000    0.0000 C   0  0
   -1.2990    0.7500    0.0000 C   0  0
   -1.2990   -0.7500    0.0000 C   0  0
    0.0000   -1.5000    0.0000 C   0  0
    2.5973   -1.5031    0.0000 N   0  0
   -0.0031   -3.0008    0.0000 N   0  0
   -2.5988   -1.5004    0.0000 C   0  0
    2.1651    1.2500    0.0000 H   0  0
    0.0000    2.5000    0.0000 H   0  0
   -2.1651    1.2500    0.0000 H   0  0
    2.5958   -2.5031    0.0000 H   0  0
    3.4642   -1.0046    0.0000 H   0  0
   -0.8698   -3.4996    0.0000 H   0  0
    0.8621   -3.5023    0.0000 H   0  0
   -3.4651   -1.0010    0.0000 H   0  0
   -2.5985   -2.5004    0.0000 H   0  0
   -3.4646   -2.0008    0.0000 H   0  0
  1  2  2  0
  1  6  1  0
  1  7  1  0
  2  3  1  0
  3  4  2  0
  4  5  1  0
  5  6  2  0
  5  9  1  0
  6  8  1  0
  2 10  1  0
  3 11  1  0
  4 12  1  0
  7 13  1  0
  7 14  1  0
  8 15  1  0
  8 16  1  0
  9 17  1  0
  9 18  1  0
  9 19  1  0
V    1 0
V    2 1
V    3 2
V    4 3
V    5 4
V    6 5
V    7 6
V    8 7
V    9 8
M  END
> <DSSTox_RID>
66553

> <DSSTox_CID>
7494

> <DSSTox_CID_Parent>
7494

> <DSSTox_Generic_SID>
27494

> <DSSTox_FileID>
578_TXCST2_v1a

> <STRUCTURE_Formula>
C7H10N2

> <STRUCTURE_MolecularWeight>
122.1677

> <STRUCTURE_ChemicalType>
defined organic

> <STRUCTURE_TestedForm_DefinedOrganic>
parent

> <STRUCTURE_Shown>
tested chemical

> <TestSubstance_ChemicalName>
3-Methylbenzene-1,2-diamine

> <TestSubstance_CASRN>
2687-25-4

> <TestSubstance_Description>
single chemical compound

> <STRUCTURE_ChemicalName_IUPAC>
3-methylbenzene-1,2-diamine

> <STRUCTURE_SMILES>
NC1=CC=CC(C)=C1N

> <STRUCTURE_Parent_SMILES>
NC1=CC=CC(C)=C1N

> <STRUCTURE_InChIS>
InChI=1S/C7H10N2/c1-5-3-2-4-6(8)7(5)9/h2-4H,8-9H2,1H3

> <STRUCTURE_InChIKey>
AXNUJYHFQHQZBE-UHFFFAOYSA-N

> <Substance_modify_yyyymmdd>
20080429

> <Coord_Metals>
0

> <Index>
578

> <Canonical_Smiles>
Cc1cccc(N)c1N

> <Molecular_Weight>
122.1677

> <Frequency>
1

$$$$

  SciTegic          2D

 49 51  0  0  0  0            999 V2000
    4.9397   -1.2009    0.0000 C   0  0
    4.2991   -2.5581    0.0000 O   0  0
    4.0896    0.0290    0.0000 C   0  0
    6.4347   -1.0783    0.0000 C   0  0
    7.0761    0.2776    0.0000 C   0  0
    4.7275    1.3885    0.0000 C   0  0
    6.2225    1.5110    0.0000 C   0  0
    1.7138    1.2033    0.0000 N   0  0
    2.5889    0.0182    0.0000 N   0  0
    1.7138   -1.2033    0.0000 N   0  0
    0.2917   -0.7475    0.0000 C   0  0
    0.2917    0.7475    0.0000 C   0  0
   -1.0028    1.5132    0.0000 C   0  0
   -2.3155    0.7475    0.0000 C   0  0
   -2.3155   -0.7475    0.0000 C   0  0
   -1.0028   -1.5132    0.0000 C   0  0
    6.3615    3.0054    0.0000 C   0  0
    7.7248    3.6331    0.0000 C   0  0
    7.8638    5.1274    0.0000 C   0  0
    9.2271    5.7551    0.0000 C   0  0
    5.1366    3.8726    0.0000 C   0  0
    7.6085    2.1191    0.0000 C   0  0
    6.6389    5.9946    0.0000 C   0  0
    9.1141    4.2457    0.0000 C   0  0
    4.8683   -3.3803    0.0000 H   0  0
    7.0037   -1.9006    0.0000 H   0  0
    8.0727    0.3593    0.0000 H   0  0
    4.1571    2.2099    0.0000 H   0  0
   -0.9997    2.5132    0.0000 H   0  0
   -3.1826    1.2456    0.0000 H   0  0
   -3.1826   -1.2456    0.0000 H   0  0
   -0.9997   -2.5132    0.0000 H   0  0
    8.5409    3.0553    0.0000 H   0  0
    7.6326    2.6373    0.0000 H   0  0
    9.3197    6.7508    0.0000 H   0  0
   10.0432    5.1773    0.0000 H   0  0
   10.1356    6.1729    0.0000 H   0  0
    5.2283    4.8684    0.0000 H   0  0
    4.2283    3.4544    0.0000 H   0  0
    4.3202    4.4500    0.0000 H   0  0
    7.5150    1.1235    0.0000 H   0  0
    8.4239    1.5401    0.0000 H   0  0
    8.5177    2.5356    0.0000 H   0  0
    6.7306    6.9904    0.0000 H   0  0
    5.7306    5.5764    0.0000 H   0  0
    5.8225    6.5720    0.0000 H   0  0
   10.0221    4.6648    0.0000 H   0  0
    9.0234    3.2499    0.0000 H   0  0
    9.9311    3.6691    0.0000 H   0  0
  1  2  1  0
  1  3  2  0
  1  4  1  0
  3  6  1  0
  3  9  1  0
  4  5  2  0
  5  7  1  0
  6  7  2  0
  7 17  1  0
  8  9  1  0
  8 12  2  0
  9 10  1  0
 10 11  2  0
 11 12  1  0
 11 16  1  0
 12 13  1  0
 13 14  2  0
 14 15  1  0
 15 16  2  0
 17 18  1  0
 17 21  1  0
 17 22  1  0
 18 19  1  0
 19 20  1  0
 19 23  1  0
 19 24  1  0
  2 25  1  0
  4 26  1  0
  5 27  1  0
  6 28  1  0
 13 29  1  0
 14 30  1  0
 15 31  1  0
 16 32  1  0
 18 33  1  0
 18 34  1  0
 20 35  1  0
 20 36  1  0
 20 37  1  0
 21 38  1  0
 21 39  1  0
 21 40  1  0
 22 41  1  0
 22 42  1  0
 22 43  1  0
 23 44  1  0
 23 45  1  0
 23 46  1  0
 24 47  1  0
 24 48  1  0
 24 49  1  0
V    1 0
V    2 1
V    3 2
V    4 3
V    5 4
V    6 5
V    7 6
V    8 7
V    9 8
V   10 9
V   11 10
V   12 11
V   13 12
V   14 13
V   15 14
V   16 15
V   17 16
V   18 17
V   19 18
V   20 19
V   21 20
V   22 21
V   23 22
V   24 23
M  END
> <DSSTox_RID>
61707

> <DSSTox_CID>
7522

> <DSSTox_CID_Parent>
7522

> <DSSTox_Generic_SID>
27522

> <DSSTox_FileID>
579_TXCST2_v1a

> <STRUCTURE_Formula>
C20H25N3O

> <STRUCTURE_MolecularWeight>
323.432

> <STRUCTURE_ChemicalType>
defined organic

> <STRUCTURE_TestedForm_DefinedOrganic>
parent

> <STRUCTURE_Shown>
tested chemical

> <TestSubstance_ChemicalName>
Octrizole

> <TestSubstance_CASRN>
3147-75-9

> <TestSubstance_Description>
single chemical compound

> <STRUCTURE_ChemicalName_IUPAC>
2-(2H-benzotriazol-2-yl)-4-(1,1,3,3-tetramethylbutyl)phenol

> <STRUCTURE_SMILES>
OC1=C(N2N=C(C=CC=C3)C3=N2)C=C(C(C)(C)CC(C)(C)C)C=C1

> <STRUCTURE_Parent_SMILES>
OC1=C(N2N=C(C=CC=C3)C3=N2)C=C(C(C)(C)CC(C)(C)C)C=C1

> <STRUCTURE_InChIS>
InChI=1S/C20H25N3O/c1-19(2,3)13-20(4,5)14-10-11-18(24)17(12-14)23-21-15-8-6-7-9-16(15)22-23/h6-12,24H,13H2,1-5H3

> <STRUCTURE_InChIKey>
IYAZLDLPUNDVAG-UHFFFAOYSA-N

> <Substance_modify_yyyymmdd>
20080429

> <Coord_Metals>
0

> <Index>
579

> <Canonical_Smiles>
CC(C)(C)CC(C)(C)c1ccc(O)c(c1)n2nc3ccccc3n2

> <Molecular_Weight>
323.432

> <Frequency>
1

$$$$

  SciTegic          2D

 30 30  0  0  0  0            999 V2000
    2.5095    1.4489    0.0000 C   0  0
    1.4489    2.5096    0.0000 C   0  0
    0.0000    2.8978    0.0000 C   0  0
   -1.4489    2.5095    0.0000 C   0  0
   -2.5096    1.4489    0.0000 C   0  0
   -2.8978    0.0000    0.0000 C   0  0
   -2.5095   -1.4489    0.0000 C   0  0
   -1.4489   -2.5096    0.0000 C   0  0
    0.0000   -2.8978    0.0000 C   0  0
    1.4489   -2.5095    0.0000 C   0  0
    2.5096   -1.4489    0.0000 C   0  0
    2.8978    0.0000    0.0000 C   0  0
    3.3756    1.9489    0.0000 H   0  0
    1.9489    3.3756    0.0000 H   0  0
   -0.8889    3.3559    0.0000 H   0  0
    0.8889    3.3559    0.0000 H   0  0
   -0.9907    1.6207    0.0000 H   0  0
   -2.4478    2.4619    0.0000 H   0  0
   -3.3756    1.9489    0.0000 H   0  0
   -3.8978    0.0000    0.0000 H   0  0
   -2.4619   -2.4478    0.0000 H   0  0
   -3.3508   -0.9082    0.0000 H   0  0
   -0.9082   -1.6683    0.0000 H   0  0
   -0.9082   -3.3508    0.0000 H   0  0
    0.0000   -3.8978    0.0000 H   0  0
    1.9489   -3.3756    0.0000 H   0  0
    3.3508   -0.9082    0.0000 H   0  0
    2.4619   -2.4477    0.0000 H   0  0
    1.8989    0.0477    0.0000 H   0  0
    3.3559    0.8889    0.0000 H   0  0
  1  2  2  0
  1 12  1  0
  2  3  1  0
  3  4  1  0
  5  4  1  0
  5  6  2  0
  6  7  1  0
  7  8  1  0
  9  8  1  0
  9 10  2  0
 10 11  1  0
 11 12  1  0
  1 13  1  0
  2 14  1  0
  3 15  1  0
  3 16  1  0
  4 17  1  0
  4 18  1  0
  5 19  1  0
  6 20  1  0
  7 21  1  0
  7 22  1  0
  8 23  1  0
  8 24  1  0
  9 25  1  0
 10 26  1  0
 11 27  1  0
 11 28  1  0
 12 29  1  0
 12 30  1  0
V    1 0
V    2 1
V    3 2
V    4 3
V    5 4
V    6 5
V    7 6
V    8 7
V    9 8
V   10 9
V   11 10
V   12 11
M  END
> <DSSTox_RID>
65903

> <DSSTox_CID>
7581

> <DSSTox_CID_Parent>
7581

> <DSSTox_Generic_SID>
27581

> <DSSTox_FileID>
580_TXCST2_v1a

> <STRUCTURE_Formula>
C12H18

> <STRUCTURE_MolecularWeight>
162.2713

> <STRUCTURE_ChemicalType>
defined organic

> <STRUCTURE_TestedForm_DefinedOrganic>
parent

> <STRUCTURE_Shown>
representative isomer in mixture

> <TestSubstance_ChemicalName>
1,5,9-Cyclododecatriene

> <TestSubstance_CASRN>
4904-61-4

> <TestSubstance_Description>
mixture or formulation

> <ChemicalNote>
mixture of Z,E isomers; structure shown (1E,5E,9E)-; stereochem

> <Source_ChemicalNote>
tested chemical was a mixture of Z,E isomers

> <STRUCTURE_ChemicalName_IUPAC>
(1E,5E,9E)-cyclododeca-1,5,9-triene

> <STRUCTURE_SMILES>
C1=C/CC/C=C/CC/C=C/CC\1

> <STRUCTURE_Parent_SMILES>
C1=C/CC/C=C/CC/C=C/CC\1

> <STRUCTURE_InChIS>
InChI=1S/C12H18/c1-2-4-6-8-10-12-11-9-7-5-3-1/h1-2,7-10H,3-6,11-12H2/b2-1+,9-7+,10-8+

> <STRUCTURE_InChIKey>
ZOLLIQAKMYWTBR-FFWAUJBHSA-N

> <Substance_modify_yyyymmdd>
20080429

> <Coord_Metals>
0

> <Index>
580

> <Canonical_Smiles>
C1CC=CCCC=CCCC=C1

> <Molecular_Weight>
162.27131

> <Frequency>
1

$$$$

  SciTegic          2D

 15 15  0  0  0  0            999 V2000
    1.2990   -0.7500    0.0000 C   0  0
    1.2990    0.7500    0.0000 C   0  0
    0.0000    1.5000    0.0000 C   0  0
   -1.2990    0.7500    0.0000 C   0  0
   -1.2990   -0.7500    0.0000 C   0  0
    0.0000   -1.5000    0.0000 C   0  0
    2.3383   -1.3500    0.0000 Cl  0  0
   -2.5988    1.5004    0.0000 C   0  0
   -2.5996    2.7004    0.0000 Cl  0  0
   -3.6378    0.9001    0.0000 Cl  0  0
   -3.6383    2.0999    0.0000 Cl  0  0
    2.1651    1.2500    0.0000 H   0  0
    0.0000    2.5000    0.0000 H   0  0
   -2.1651   -1.2500    0.0000 H   0  0
    0.0000   -2.5000    0.0000 H   0  0
  1  2  2  0
  1  6  1  0
  1  7  1  0
  2  3  1  0
  3  4  2  0
  4  5  1  0
  4  8  1  0
  5  6  2  0
  8  9  1  0
  8 10  1  0
  8 11  1  0
  2 12  1  0
  3 13  1  0
  5 14  1  0
  6 15  1  0
V    1 0
V    2 1
V    3 2
V    4 3
V    5 4
V    6 5
V    7 6
V    8 7
V    9 8
V   10 9
V   11 10
M  END
> <DSSTox_RID>
65530

> <DSSTox_CID>
7593

> <DSSTox_CID_Parent>
7593

> <DSSTox_Generic_SID>
27593

> <DSSTox_FileID>
581_TXCST2_v1a

> <STRUCTURE_Formula>
C7H4Cl4

> <STRUCTURE_MolecularWeight>
229.9187

> <STRUCTURE_ChemicalType>
defined organic

> <STRUCTURE_TestedForm_DefinedOrganic>
parent

> <STRUCTURE_Shown>
tested chemical

> <TestSubstance_ChemicalName>
4-Chlorobenzotrichloride

> <TestSubstance_CASRN>
5216-25-1

> <TestSubstance_Description>
single chemical compound

> <STRUCTURE_ChemicalName_IUPAC>
1-chloro-4-(trichloromethyl)benzene

> <STRUCTURE_SMILES>
ClC1=CC=C(C(Cl)(Cl)Cl)C=C1

> <STRUCTURE_Parent_SMILES>
ClC1=CC=C(C(Cl)(Cl)Cl)C=C1

> <STRUCTURE_InChIS>
InChI=1S/C7H4Cl4/c8-6-3-1-5(2-4-6)7(9,10)11/h1-4H

> <STRUCTURE_InChIKey>
LVZPKYYPPLUECL-UHFFFAOYSA-N

> <Substance_modify_yyyymmdd>
20080429

> <Coord_Metals>
0

> <Index>
581

> <Canonical_Smiles>
Clc1ccc(cc1)C(Cl)(Cl)Cl

> <Molecular_Weight>
229.91866

> <Frequency>
1

$$$$

  SciTegic          2D

 31 31  0  0  0  0            999 V2000
    1.2990   -0.7500    0.0000 N   0  0
    1.2990    0.7500    0.0000 C   0  0
    0.0000    1.5000    0.0000 N   0  0
   -1.2990    0.7500    0.0000 C   0  0
   -1.2990   -0.7500    0.0000 N   0  0
    0.0000   -1.5000    0.0000 C   0  0
    2.5972    1.5031    0.0000 N   0  0
   -2.6003    1.4977    0.0000 N   0  0
    0.0000   -2.7000    0.0000 Cl  0  0
    2.5951    3.0039    0.0000 C   0  0
    3.8933    3.7570    0.0000 C   0  0
    1.2941    3.7520    0.0000 C   0  0
    3.9200    2.2388    0.0000 C   0  0
   -3.8990    0.7455    0.0000 C   0  0
   -5.2003    1.4932    0.0000 C   0  0
    3.4641    1.0046    0.0000 H   0  0
   -2.6021    2.4977    0.0000 H   0  0
    3.8919    4.7570    0.0000 H   0  0
    4.7585    4.2584    0.0000 H   0  0
    4.7602    3.2585    0.0000 H   0  0
    0.4286    3.2511    0.0000 H   0  0
    0.4274    4.2509    0.0000 H   0  0
    1.2927    4.7520    0.0000 H   0  0
    3.9205    1.2388    0.0000 H   0  0
    4.7862    1.7391    0.0000 H   0  0
    4.7859    2.7389    0.0000 H   0  0
   -3.0322    0.2468    0.0000 H   0  0
   -3.8973   -0.2545    0.0000 H   0  0
   -6.0656    0.9920    0.0000 H   0  0
   -6.0671    1.9918    0.0000 H   0  0
   -5.2021    2.4932    0.0000 H   0  0
  1  2  2  0
  1  6  1  0
  2  3  1  0
  2  7  1  0
  3  4  2  0
  4  5  1  0
  4  8  1  0
  5  6  2  0
  6  9  1  0
  7 10  1  0
  8 14  1  0
 10 11  1  0
 10 12  1  0
 10 13  1  0
 14 15  1  0
  7 16  1  0
  8 17  1  0
 11 18  1  0
 11 19  1  0
 11 20  1  0
 12 21  1  0
 12 22  1  0
 12 23  1  0
 13 24  1  0
 13 25  1  0
 13 26  1  0
 14 27  1  0
 14 28  1  0
 15 29  1  0
 15 30  1  0
 15 31  1  0
V    1 0
V    2 1
V    3 2
V    4 3
V    5 4
V    6 5
V    7 6
V    8 7
V    9 8
V   10 9
V   11 10
V   12 11
V   13 12
V   14 13
V   15 14
M  END
> <DSSTox_RID>
65834

> <DSSTox_CID>
7608

> <DSSTox_CID_Parent>
7608

> <DSSTox_Generic_SID>
27608

> <DSSTox_FileID>
582_TXCST2_v1a

> <STRUCTURE_Formula>
C9H16ClN5

> <STRUCTURE_MolecularWeight>
229.7098

> <STRUCTURE_ChemicalType>
defined organic

> <STRUCTURE_TestedForm_DefinedOrganic>
parent

> <STRUCTURE_Shown>
tested chemical

> <TestSubstance_ChemicalName>
Terbuthylazin

> <TestSubstance_CASRN>
5915-41-3

> <TestSubstance_Description>
single chemical compound

> <STRUCTURE_ChemicalName_IUPAC>
N-tert-butyl-6-chloro-N'-ethyl-1,3,5-triazine-2,4-diamine

> <STRUCTURE_SMILES>
ClC1=NC(NCC)=NC(NC(C)(C)C)=N1

> <STRUCTURE_Parent_SMILES>
ClC1=NC(NCC)=NC(NC(C)(C)C)=N1

> <STRUCTURE_InChIS>
InChI=1S/C9H16ClN5/c1-5-11-7-12-6(10)13-8(14-7)15-9(2,3)4/h5H2,1-4H3,(H2,11,12,13,14,15)

> <STRUCTURE_InChIKey>
FZXISNSWEXTPMF-UHFFFAOYSA-N

> <Substance_modify_yyyymmdd>
20080429

> <Coord_Metals>
0

> <Index>
582

> <Canonical_Smiles>
CCNc1nc(Cl)nc(NC(C)(C)C)n1

> <Molecular_Weight>
229.70983

> <Frequency>
1

$$$$

  SciTegic          2D

 66 66  0  0  0  0            999 V2000
    1.2990   -0.7500    0.0000 C   0  0
    1.2990    0.7500    0.0000 C   0  0
    0.0000    1.5000    0.0000 C   0  0
   -1.2990    0.7500    0.0000 C   0  0
   -1.2990   -0.7500    0.0000 C   0  0
    0.0000   -1.5000    0.0000 C   0  0
    2.5973   -1.5031    0.0000 C   0  0
    3.6375   -0.9049    0.0000 O   0  0
    2.5951   -3.0039    0.0000 O   0  0
   -2.6003    1.4977    0.0000 C   0  0
   -2.6024    2.6977    0.0000 O   0  0
   -3.8990    0.7455    0.0000 O   0  0
    3.8933   -3.7570    0.0000 C   0  0
    3.3780   -5.1666    0.0000 C   0  0
    4.3404   -6.3183    0.0000 C   0  0
    3.8250   -7.7278    0.0000 C   0  0
    4.7874   -8.8795    0.0000 C   0  0
    4.2721  -10.2891    0.0000 C   0  0
    4.8857   -4.9063    0.0000 C   0  0
    5.8469   -6.0589    0.0000 C   0  0
   -5.2003    1.4932    0.0000 C   0  0
   -6.1634    0.3421    0.0000 C   0  0
   -7.6419    0.5997    0.0000 C   0  0
   -8.6050   -0.5514    0.0000 C   0  0
  -10.0836   -0.2938    0.0000 C   0  0
  -11.0466   -1.4449    0.0000 C   0  0
   -6.6919    1.7779    0.0000 C   0  0
   -8.1707    2.0341    0.0000 C   0  0
    2.1651    1.2500    0.0000 H   0  0
    0.0000    2.5000    0.0000 H   0  0
   -2.1651   -1.2500    0.0000 H   0  0
    0.0000   -2.5000    0.0000 H   0  0
    4.7602   -3.2585    0.0000 H   0  0
    3.8952   -2.7570    0.0000 H   0  0
    2.3929   -5.3385    0.0000 H   0  0
    4.6842   -5.3792    0.0000 H   0  0
    5.3255   -6.1463    0.0000 H   0  0
    3.1835   -6.9608    0.0000 H   0  0
    2.8399   -7.8998    0.0000 H   0  0
    5.1312   -7.9405    0.0000 H   0  0
    5.7725   -8.7076    0.0000 H   0  0
    4.9133  -11.0565    0.0000 H   0  0
    3.9283  -11.2281    0.0000 H   0  0
    3.2870  -10.4610    0.0000 H   0  0
    5.2308   -3.9678    0.0000 H   0  0
    4.2455   -4.1381    0.0000 H   0  0
    6.8324   -5.8889    0.0000 H   0  0
    5.5018   -6.9975    0.0000 H   0  0
    6.4870   -6.8272    0.0000 H   0  0
   -5.2021    2.4932    0.0000 H   0  0
   -4.3353    1.9948    0.0000 H   0  0
   -5.8197   -0.5970    0.0000 H   0  0
   -7.0006    1.3670    0.0000 H   0  0
   -7.9856    1.5388    0.0000 H   0  0
   -7.6199   -0.7235    0.0000 H   0  0
   -8.2614   -1.4905    0.0000 H   0  0
   -9.4422    0.4734    0.0000 H   0  0
  -10.4272    0.6453    0.0000 H   0  0
  -12.0318   -1.2733    0.0000 H   0  0
  -11.6880   -2.2122    0.0000 H   0  0
  -10.7030   -2.3840    0.0000 H   0  0
   -6.0516    2.5461    0.0000 H   0  0
   -5.7065    1.6077    0.0000 H   0  0
   -8.5161    2.9725    0.0000 H   0  0
   -8.8109    1.2659    0.0000 H   0  0
   -9.1561    2.2043    0.0000 H   0  0
  1  2  2  0
  1  6  1  0
  1  7  1  0
  2  3  1  0
  3  4  2  0
  4  5  1  0
  4 10  1  0
  5  6  2  0
  7  8  2  0
  7  9  1  0
  9 13  1  0
 10 11  2  0
 10 12  1  0
 12 21  1  0
 13 14  1  0
 14 15  1  0
 14 19  1  0
 15 16  1  0
 16 17  1  0
 17 18  1  0
 19 20  1  0
 21 22  1  0
 22 23  1  0
 22 27  1  0
 23 24  1  0
 24 25  1  0
 25 26  1  0
 27 28  1  0
  2 29  1  0
  3 30  1  0
  5 31  1  0
  6 32  1  0
 13 33  1  0
 13 34  1  0
 14 35  1  0
 15 36  1  0
 15 37  1  0
 16 38  1  0
 16 39  1  0
 17 40  1  0
 17 41  1  0
 18 42  1  0
 18 43  1  0
 18 44  1  0
 19 45  1  0
 19 46  1  0
 20 47  1  0
 20 48  1  0
 20 49  1  0
 21 50  1  0
 21 51  1  0
 22 52  1  0
 23 53  1  0
 23 54  1  0
 24 55  1  0
 24 56  1  0
 25 57  1  0
 25 58  1  0
 26 59  1  0
 26 60  1  0
 26 61  1  0
 27 62  1  0
 27 63  1  0
 28 64  1  0
 28 65  1  0
 28 66  1  0
V    1 0
V    2 1
V    3 2
V    4 3
V    5 4
V    6 5
V    7 6
V    8 7
V    9 8
V   10 9
V   11 10
V   12 11
V   13 12
V   14 13
V   15 14
V   16 15
V   17 16
V   18 17
V   19 18
V   20 19
V   21 20
V   22 21
V   23 22
V   24 23
V   25 24
V   26 25
V   27 26
V   28 27
M  END
> <DSSTox_RID>
65833

> <DSSTox_CID>
7625

> <DSSTox_CID_Parent>
7625

> <DSSTox_Generic_SID>
27625

> <DSSTox_FileID>
583_TXCST2_v1a

> <STRUCTURE_Formula>
C24H38O4

> <STRUCTURE_MolecularWeight>
390.5561

> <STRUCTURE_ChemicalType>
defined organic

> <STRUCTURE_TestedForm_DefinedOrganic>
parent

> <STRUCTURE_Shown>
tested chemical

> <TestSubstance_ChemicalName>
1,4-Benzenedicarboxylic acid, bis(2-ethylhexyl) ester

> <TestSubstance_CASRN>
6422-86-2

> <TestSubstance_Description>
single chemical compound

> <Source_ChemicalNote>
tested chemical contained 0.013% water

> <STRUCTURE_ChemicalName_IUPAC>
bis(2-ethylhexyl) terephthalate

> <STRUCTURE_SMILES>
O=C(OCC(CC)CCCC)C1=CC=C(C(OCC(CC)CCCC)=O)C=C1

> <STRUCTURE_Parent_SMILES>
O=C(OCC(CC)CCCC)C1=CC=C(C(OCC(CC)CCCC)=O)C=C1

> <STRUCTURE_InChIS>
InChI=1S/C24H38O4/c1-5-9-11-19(7-3)17-27-23(25)21-13-15-22(16-14-21)24(26)28-18-20(8-4)12-10-6-2/h13-16,19-20H,5-12,17-18H2,1-4H3

> <STRUCTURE_InChIKey>
RWPICVVBGZBXNA-UHFFFAOYSA-N

> <Substance_modify_yyyymmdd>
20080429

> <Coord_Metals>
0

> <Index>
583

> <Canonical_Smiles>
CCCCC(CC)COC(=O)c1ccc(cc1)C(=O)OCC(CC)CCCC

> <Molecular_Weight>
390.55612

> <Frequency>
1

$$$$

  SciTegic          2D

 50 49  0  0  0  0            999 V2000
    3.9000    0.7500    0.0000 C   0  0
    2.8611    0.1493    0.0000 O   0  0
    5.2000    0.0000    0.0000 O   0  0
    3.8985    2.2508    0.0000 C   0  0
    2.5986    3.0008    0.0000 C   0  0
    5.1978    3.0020    0.0000 C   0  0
   11.0927    2.4200    0.0000 C   0  0
   11.7350    1.6535    0.0000 O   0  0
    9.6146    2.1598    0.0000 O   0  0
   11.6073    3.8298    0.0000 C   0  0
   13.0855    4.0899    0.0000 C   0  0
   12.5879    2.6553    0.0000 C   0  0
    7.7999    0.0000    0.0000 C   0  0
    9.0999    0.7500    0.0000 C   0  0
    6.5000    0.7500    0.0000 C   0  0
   10.3991   -0.0012    0.0000 C   0  0
    9.6949   -1.3804    0.0000 C   0  0
   11.9458   -0.0790    0.0000 C   0  0
    7.7999   -1.5007    0.0000 C   0  0
    7.8028    1.5300    0.0000 C   0  0
    3.0328    1.7503    0.0000 H   0  0
    2.5976    4.0008    0.0000 H   0  0
    1.7328    2.5003    0.0000 H   0  0
    1.7321    3.5001    0.0000 H   0  0
    5.1978    4.0020    0.0000 H   0  0
    6.0639    2.5023    0.0000 H   0  0
    6.0637    3.5022    0.0000 H   0  0
   10.9650    4.5962    0.0000 H   0  0
   13.4284    5.0293    0.0000 H   0  0
   14.0704    4.2628    0.0000 H   0  0
   13.7278    3.3235    0.0000 H   0  0
   12.2440    1.7163    0.0000 H   0  0
   13.5730    2.8268    0.0000 H   0  0
   13.2291    1.8880    0.0000 H   0  0
    8.2342    1.2505    0.0000 H   0  0
    5.6340    1.2501    0.0000 H   0  0
    6.5000    1.7500    0.0000 H   0  0
   11.2645    0.5000    0.0000 H   0  0
    8.6949   -1.3813    0.0000 H   0  0
    9.2067   -2.2531    0.0000 H   0  0
   10.2174   -2.2330    0.0000 H   0  0
   12.4455    0.7872    0.0000 H   0  0
   12.9457   -0.0914    0.0000 H   0  0
   12.4240   -0.9573    0.0000 H   0  0
    6.9342   -2.0013    0.0000 H   0  0
    8.6661   -2.0005    0.0000 H   0  0
    7.8004   -2.5007    0.0000 H   0  0
    8.6695    2.0289    0.0000 H   0  0
    7.8042    2.5300    0.0000 H   0  0
    6.9376    2.0313    0.0000 H   0  0
  1  2  2  0
  1  3  1  0
  1  4  1  0
  3 15  1  0
  4  5  1  0
  4  6  1  0
  7  8  2  0
  7  9  1  0
  7 10  1  0
  9 14  1  0
 10 11  1  0
 10 12  1  0
 13 15  1  0
 13 14  1  0
 13 19  1  0
 13 20  1  0
 14 16  1  0
 16 17  1  0
 16 18  1  0
  4 21  1  0
  5 22  1  0
  5 23  1  0
  5 24  1  0
  6 25  1  0
  6 26  1  0
  6 27  1  0
 10 28  1  0
 11 29  1  0
 11 30  1  0
 11 31  1  0
 12 32  1  0
 12 33  1  0
 12 34  1  0
 14 35  1  0
 15 36  1  0
 15 37  1  0
 16 38  1  0
 17 39  1  0
 17 40  1  0
 17 41  1  0
 18 42  1  0
 18 43  1  0
 18 44  1  0
 19 45  1  0
 19 46  1  0
 19 47  1  0
 20 48  1  0
 20 49  1  0
 20 50  1  0
V    1 0
V    2 1
V    3 2
V    4 3
V    5 4
V    6 5
V    7 6
V    8 7
V    9 8
V   10 9
V   11 10
V   12 11
V   13 12
V   14 13
V   15 14
V   16 15
V   17 16
V   18 17
V   19 18
V   20 19
M  END
> <DSSTox_RID>
51895

> <DSSTox_CID>
7635

> <DSSTox_CID_Parent>
7635

> <DSSTox_Generic_SID>
27635

> <DSSTox_FileID>
584_TXCST2_v1a

> <STRUCTURE_Formula>
C16H30O4

> <STRUCTURE_MolecularWeight>
286.407

> <STRUCTURE_ChemicalType>
defined organic

> <STRUCTURE_TestedForm_DefinedOrganic>
parent

> <STRUCTURE_Shown>
tested chemical

> <TestSubstance_ChemicalName>
2,2,4-Trimethyl-1,3-pentanediol diisobutyrate

> <TestSubstance_CASRN>
6846-50-0

> <TestSubstance_Description>
single chemical compound

> <STRUCTURE_ChemicalName_IUPAC>
2,2,4-trimethylpentane-1,3-diyl bis(2-methylpropanoate)

> <STRUCTURE_SMILES>
O=C(C(C)C)OCC(C)(C)C(C(C)C)OC(C(C)C)=O

> <STRUCTURE_Parent_SMILES>
O=C(C(C)C)OCC(C)(C)C(C(C)C)OC(C(C)C)=O

> <STRUCTURE_InChIS>
InChI=1S/C16H30O4/c1-10(2)13(20-15(18)12(5)6)16(7,8)9-19-14(17)11(3)4/h10-13H,9H2,1-8H3

> <STRUCTURE_InChIKey>
OMVSWZDEEGIJJI-UHFFFAOYSA-N

> <Substance_modify_yyyymmdd>
20080429

> <Coord_Metals>
0

> <Index>
584

> <Canonical_Smiles>
CC(C)C(OC(=O)C(C)C)C(C)(C)COC(=O)C(C)C

> <Molecular_Weight>
286.407

> <Frequency>
1

$$$$

  SciTegic          2D

 15 14  0  0  0  0            999 V2000
    2.6000    0.0000    0.0000 C   0  0
    3.9000    0.7500    0.0000 C   0  0
    5.2000    0.0000    0.0000 C   0  0
    6.5000    0.7500    0.0000 C   0  0
    2.6000   -1.2000    0.0000 O   0  0
    1.3000    0.7500    0.0000 O   0  0
    6.5000    1.9500    0.0000 O   0  0
    7.7999    0.0000    0.0000 O   0  0
    3.9000    2.2507    0.0000 O   0  0
    3.0340    1.2501    0.0000 H   0  0
    5.2000   -1.0000    0.0000 H   0  0
    6.0659   -0.5001    0.0000 H   0  0
    0.4338    0.2503    0.0000 H   0  0
    8.6661    0.4997    0.0000 H   0  0
    4.7657    2.7513    0.0000 H   0  0
  1  2  1  0
  1  6  1  0
  1  5  2  0
  2  3  1  0
  2  9  1  0
  3  4  1  0
  4  8  1  0
  4  7  2  0
  2 10  1  0
  3 11  1  0
  3 12  1  0
  6 13  1  0
  8 14  1  0
  9 15  1  0
V    1 0
V    2 1
V    3 2
V    4 3
V    5 4
V    6 5
V    7 6
V    8 7
V    9 8
M  END
> <DSSTox_RID>
66720

> <DSSTox_CID>
7640

> <DSSTox_CID_Parent>
7640

> <DSSTox_Generic_SID>
27640

> <DSSTox_FileID>
585_TXCST2_v1a

> <STRUCTURE_Formula>
C4H6O5

> <STRUCTURE_MolecularWeight>
134.0874

> <STRUCTURE_ChemicalType>
defined organic

> <STRUCTURE_TestedForm_DefinedOrganic>
parent

> <STRUCTURE_Shown>
tested chemical

> <TestSubstance_ChemicalName>
2-Hydroxybutanedioic acid

> <TestSubstance_CASRN>
6915-15-7

> <TestSubstance_Description>
single chemical compound

> <STRUCTURE_ChemicalName_IUPAC>
malic acid

> <STRUCTURE_SMILES>
O=C(O)C(O)CC(O)=O

> <STRUCTURE_Parent_SMILES>
O=C(O)C(O)CC(O)=O

> <STRUCTURE_InChIS>
InChI=1S/C4H6O5/c5-2(4(8)9)1-3(6)7/h2,5H,1H2,(H,6,7)(H,8,9)

> <STRUCTURE_InChIKey>
BJEPYKJPYRNKOW-UHFFFAOYSA-N

> <Substance_modify_yyyymmdd>
20080429

> <Coord_Metals>
0

> <Index>
585

> <Canonical_Smiles>
OC(CC(=O)O)C(=O)O

> <Molecular_Weight>
134.08743

> <Frequency>
1

$$$$

  SciTegic          2D

 23 22  0  0  0  0            999 V2000
    3.9000    0.7500    0.0000 C   0  0
    2.6000    0.0000    0.0000 C   0  0
    1.3000    0.7500    0.0000 C   0  0
    3.9000    2.2507    0.0000 O   0  0
    6.5000    0.7500    0.0000 C   0  0
    7.7999    0.0000    0.0000 C   0  0
    9.0999    0.7500    0.0000 C   0  0
    6.5000    2.2507    0.0000 O   0  0
    5.2000    0.0000    0.0000 O   0  0
    4.7659    1.2501    0.0000 H   0  0
    1.7340   -0.5001    0.0000 H   0  0
    2.6000   -1.0000    0.0000 H   0  0
    0.4338    0.2503    0.0000 H   0  0
    0.4340    1.2501    0.0000 H   0  0
    1.3000    1.7500    0.0000 H   0  0
    4.7657    2.7513    0.0000 H   0  0
    5.6340    1.2501    0.0000 H   0  0
    7.7999   -1.0000    0.0000 H   0  0
    6.9340   -0.5001    0.0000 H   0  0
    9.9661    0.2503    0.0000 H   0  0
    9.0999    1.7500    0.0000 H   0  0
    9.9659    1.2501    0.0000 H   0  0
    7.3657    2.7513    0.0000 H   0  0
  1  2  1  0
  1  4  1  0
  1  9  1  0
  2  3  1  0
  5  6  1  0
  5  8  1  0
  5  9  1  0
  6  7  1  0
  1 10  1  0
  2 11  1  0
  2 12  1  0
  3 13  1  0
  3 14  1  0
  3 15  1  0
  4 16  1  0
  5 17  1  0
  6 18  1  0
  6 19  1  0
  7 20  1  0
  7 21  1  0
  7 22  1  0
  8 23  1  0
V    1 0
V    2 1
V    3 2
V    4 3
V    5 4
V    6 5
V    7 6
V    8 7
V    9 8
M  END
> <DSSTox_RID>
61689

> <DSSTox_CID>
5186

> <DSSTox_CID_Parent>
5186

> <DSSTox_Generic_SID>
27856

> <DSSTox_FileID>
586_TXCST2_v1a

> <STRUCTURE_Formula>
C6H14O3

> <STRUCTURE_MolecularWeight>
134.1736

> <STRUCTURE_ChemicalType>
defined organic

> <STRUCTURE_TestedForm_DefinedOrganic>
parent

> <STRUCTURE_Shown>
representative isomer in mixture

> <TestSubstance_ChemicalName>
Dipropylene glycol

> <TestSubstance_CASRN>
25265-71-8

> <TestSubstance_Description>
mixture or formulation

> <ChemicalNote>
mixture of 1,1'-; 2,2'- and  3,3'-oxydipropan-1-ol; structure shown 1,1'-

> <STRUCTURE_ChemicalName_IUPAC>
1,1'-oxydipropan-1-ol

> <STRUCTURE_SMILES>
OC(OC(O)CC)CC

> <STRUCTURE_Parent_SMILES>
CC(OC)COC(C)CO

> <STRUCTURE_InChIS>
InChI=1S/C6H14O3/c1-3-5(7)9-6(8)4-2/h5-8H,3-4H2,1-2H3

> <STRUCTURE_InChIKey>
QYSXYAURTRCDJU-UHFFFAOYSA-N

> <Substance_modify_yyyymmdd>
20080429

> <Coord_Metals>
0

> <Index>
586

> <Canonical_Smiles>
CCC(O)OC(O)CC

> <Molecular_Weight>
134.17355

> <Frequency>
1

$$$$

  SciTegic          2D

 47 48  0  0  0  0            999 V2000
    2.5972    1.5031    0.0000 C   0  0
    3.6375    0.9049    0.0000 O   0  0
    2.5951    3.0039    0.0000 O   0  0
    1.2990   -0.7500    0.0000 C   0  0
    1.2990    0.7500    0.0000 C   0  0
    0.0000    1.5000    0.0000 C   0  0
   -1.2990    0.7500    0.0000 C   0  0
   -1.2990   -0.7500    0.0000 C   0  0
    0.0000   -1.5000    0.0000 C   0  0
    3.8933    3.7570    0.0000 C   0  0
    5.1894    6.0109    0.0000 O   0  0
    3.8912    5.2578    0.0000 C   0  0
    5.1872    7.5118    0.0000 C   0  0
    6.4833    9.7657    0.0000 O   0  0
    7.7815   10.5188    0.0000 C   0  0
    8.8217    9.9206    0.0000 O   0  0
    7.7793   12.0196    0.0000 C   0  0
    9.0757   12.7742    0.0000 C   0  0
    9.0705   14.2742    0.0000 C   0  0
    7.7689   15.0197    0.0000 C   0  0
    6.4725   14.2652    0.0000 C   0  0
    6.4777   12.7652    0.0000 C   0  0
    6.4854    8.2649    0.0000 C   0  0
    5.1605    9.0300    0.0000 C   0  0
    2.5656    4.5172    0.0000 C   0  0
    2.1651   -1.2500    0.0000 H   0  0
    0.0000    2.5000    0.0000 H   0  0
   -2.1651    1.2500    0.0000 H   0  0
   -2.1651   -1.2500    0.0000 H   0  0
    0.0000   -2.5000    0.0000 H   0  0
    4.7602    3.2585    0.0000 H   0  0
    3.8892    6.2578    0.0000 H   0  0
    3.0243    5.7563    0.0000 H   0  0
    4.3220    7.0104    0.0000 H   0  0
    4.3203    8.0102    0.0000 H   0  0
    9.9435   12.2772    0.0000 H   0  0
    9.9348   14.7772    0.0000 H   0  0
    7.7654   16.0197    0.0000 H   0  0
    5.6047   14.7622    0.0000 H   0  0
    5.6134   12.2622    0.0000 H   0  0
    7.3523    7.7664    0.0000 H   0  0
    5.1600   10.0300    0.0000 H   0  0
    4.2946    8.5298    0.0000 H   0  0
    4.2943    9.5297    0.0000 H   0  0
    1.7010    4.0146    0.0000 H   0  0
    2.5622    5.5172    0.0000 H   0  0
    1.6980    5.0145    0.0000 H   0  0
  1  3  1  0
  1  2  2  0
  1  5  1  0
  3 10  1  0
  4  5  2  0
  4  9  1  0
  5  6  1  0
  6  7  2  0
  7  8  1  0
  8  9  2  0
 10 12  1  0
 10 25  1  0
 11 12  1  0
 11 13  1  0
 13 23  1  0
 14 15  1  0
 14 23  1  0
 15 16  2  0
 15 17  1  0
 17 18  2  0
 17 22  1  0
 18 19  1  0
 19 20  2  0
 20 21  1  0
 21 22  2  0
 23 24  1  0
  4 26  1  0
  6 27  1  0
  7 28  1  0
  8 29  1  0
  9 30  1  0
 10 31  1  0
 12 32  1  0
 12 33  1  0
 13 34  1  0
 13 35  1  0
 18 36  1  0
 19 37  1  0
 20 38  1  0
 21 39  1  0
 22 40  1  0
 23 41  1  0
 24 42  1  0
 24 43  1  0
 24 44  1  0
 25 45  1  0
 25 46  1  0
 25 47  1  0
V    1 0
V    2 1
V    3 2
V    4 3
V    5 4
V    6 5
V    7 6
V    8 7
V    9 8
V   10 9
V   11 10
V   12 11
V   13 12
V   14 13
V   15 14
V   16 15
V   17 16
V   18 17
V   19 18
V   20 19
V   21 20
V   22 21
V   23 22
V   24 23
V   25 24
M  END
> <DSSTox_RID>
66653

> <DSSTox_CID>
7921

> <DSSTox_CID_Parent>
7921

> <DSSTox_Generic_SID>
27921

> <DSSTox_FileID>
587_TXCST2_v1a

> <STRUCTURE_Formula>
C20H22O5

> <STRUCTURE_MolecularWeight>
342.3857

> <STRUCTURE_ChemicalType>
defined organic

> <STRUCTURE_TestedForm_DefinedOrganic>
parent

> <STRUCTURE_Shown>
tested chemical

> <TestSubstance_ChemicalName>
Dipropylene glycol dibenzoate

> <TestSubstance_CASRN>
27138-31-4

> <TestSubstance_Description>
single chemical compound

> <STRUCTURE_ChemicalName_IUPAC>
oxydipropane-1,2-diyl dibenzoate

> <STRUCTURE_SMILES>
O=C(C1=CC=CC=C1)OC(C)COCC(C)OC(C2=CC=CC=C2)=O

> <STRUCTURE_Parent_SMILES>
O=C(C1=CC=CC=C1)OC(C)COCC(C)OC(C2=CC=CC=C2)=O

> <STRUCTURE_InChIS>
InChI=1S/C20H22O5/c1-15(24-19(21)17-9-5-3-6-10-17)13-23-14-16(2)25-20(22)18-11-7-4-8-12-18/h3-12,15-16H,13-14H2,1-2H3

> <STRUCTURE_InChIKey>
IZYUWBATGXUSIK-UHFFFAOYSA-N

> <Substance_modify_yyyymmdd>
20080923

> <Coord_Metals>
0

> <Index>
587

> <Canonical_Smiles>
CC(COCC(C)OC(=O)c1ccccc1)OC(=O)c2ccccc2

> <Molecular_Weight>
342.38568

> <Frequency>
1

$$$$

  SciTegic          2D

 80 79  0  0  0  0            999 V2000
   14.2999    0.7500    0.0000 C   0  0
   15.5999    0.0000    0.0000 C   0  0
   16.8999    0.7500    0.0000 C   0  0
   18.1999    0.0000    0.0000 C   0  0
   19.4998    0.7500    0.0000 C   0  0
   20.7998    0.0000    0.0000 C   0  0
   14.2999    1.9500    0.0000 O   0  0
   12.9999    0.0000    0.0000 O   0  0
   20.7998   -1.2000    0.0000 O   0  0
   22.0998    0.7500    0.0000 O   0  0
   11.6999    0.7500    0.0000 C   0  0
   10.3999    0.0000    0.0000 C   0  0
   23.3998    0.0000    0.0000 C   0  0
   24.6998    0.7500    0.0000 C   0  0
    9.0999    0.7500    0.0000 C   0  0
    7.7999    0.0000    0.0000 C   0  0
    6.5000    0.7500    0.0000 C   0  0
    5.2000    0.0000    0.0000 C   0  0
   25.9998    0.0000    0.0000 C   0  0
   27.2998    0.7500    0.0000 C   0  0
   28.5998    0.0000    0.0000 C   0  0
   29.8998    0.7500    0.0000 C   0  0
   31.1998    0.0000    0.0000 C   0  0
   32.4998    0.7500    0.0000 C   0  0
    3.9000    0.7500    0.0000 C   0  0
    2.6000    0.0000    0.0000 C   0  0
    1.3000    0.7500    0.0000 C   0  0
    2.5971    1.5300    0.0000 C   0  0
   33.7997    0.0000    0.0000 C   0  0
   32.4997    2.2507    0.0000 C   0  0
   15.5999   -1.0000    0.0000 H   0  0
   14.7339   -0.5001    0.0000 H   0  0
   16.8999    1.7500    0.0000 H   0  0
   16.0339    1.2501    0.0000 H   0  0
   18.1999   -1.0000    0.0000 H   0  0
   17.3339   -0.5001    0.0000 H   0  0
   19.4998    1.7500    0.0000 H   0  0
   20.3658    1.2501    0.0000 H   0  0
   11.6999    1.7500    0.0000 H   0  0
   12.5659    1.2501    0.0000 H   0  0
   10.3999   -1.0000    0.0000 H   0  0
    9.5340   -0.5001    0.0000 H   0  0
   23.3998   -1.0000    0.0000 H   0  0
   22.5339   -0.5001    0.0000 H   0  0
   24.6998    1.7500    0.0000 H   0  0
   23.8339    1.2501    0.0000 H   0  0
    9.0999    1.7500    0.0000 H   0  0
    8.2340    1.2501    0.0000 H   0  0
    7.7999   -1.0000    0.0000 H   0  0
    6.9340   -0.5001    0.0000 H   0  0
    6.5000    1.7500    0.0000 H   0  0
    5.6340    1.2501    0.0000 H   0  0
    5.2000   -1.0000    0.0000 H   0  0
    4.3340   -0.5001    0.0000 H   0  0
   25.9998   -1.0000    0.0000 H   0  0
   25.1339   -0.5001    0.0000 H   0  0
   27.2998    1.7500    0.0000 H   0  0
   26.4338    1.2501    0.0000 H   0  0
   28.5998   -1.0000    0.0000 H   0  0
   27.7338   -0.5001    0.0000 H   0  0
   29.8998    1.7500    0.0000 H   0  0
   29.0338    1.2501    0.0000 H   0  0
   31.1998   -1.0000    0.0000 H   0  0
   30.3338   -0.5001    0.0000 H   0  0
   32.4997   -0.2500    0.0000 H   0  0
    3.0340    1.2501    0.0000 H   0  0
    3.9000    1.7500    0.0000 H   0  0
    2.6000   -1.0000    0.0000 H   0  0
    0.4338    0.2503    0.0000 H   0  0
    1.3000    1.7500    0.0000 H   0  0
    0.4340    1.2501    0.0000 H   0  0
    1.7305    2.0289    0.0000 H   0  0
    2.5957    2.5300    0.0000 H   0  0
    3.4624    2.0313    0.0000 H   0  0
   34.6659    0.4997    0.0000 H   0  0
   33.7997   -1.0000    0.0000 H   0  0
   34.6657   -0.5001    0.0000 H   0  0
   33.3655    2.7513    0.0000 H   0  0
   31.6336    2.7505    0.0000 H   0  0
   32.4993    3.2507    0.0000 H   0  0
  1  2  1  0
  1  8  1  0
  1  7  2  0
  2  3  1  0
  3  4  1  0
  4  5  1  0
  5  6  1  0
  6 10  1  0
  6  9  2  0
  8 11  1  0
 10 13  1  0
 11 12  1  0
 12 15  1  0
 13 14  1  0
 14 19  1  0
 15 16  1  0
 16 17  1  0
 17 18  1  0
 18 25  1  0
 19 20  1  0
 20 21  1  0
 21 22  1  0
 22 23  1  0
 23 24  1  0
 24 29  1  0
 24 30  1  0
 25 26  1  0
 26 27  1  0
 26 28  1  0
  2 31  1  0
  2 32  1  0
  3 33  1  0
  3 34  1  0
  4 35  1  0
  4 36  1  0
  5 37  1  0
  5 38  1  0
 11 39  1  0
 11 40  1  0
 12 41  1  0
 12 42  1  0
 13 43  1  0
 13 44  1  0
 14 45  1  0
 14 46  1  0
 15 47  1  0
 15 48  1  0
 16 49  1  0
 16 50  1  0
 17 51  1  0
 17 52  1  0
 18 53  1  0
 18 54  1  0
 19 55  1  0
 19 56  1  0
 20 57  1  0
 20 58  1  0
 21 59  1  0
 21 60  1  0
 22 61  1  0
 22 62  1  0
 23 63  1  0
 23 64  1  0
 24 65  1  0
 25 66  1  0
 25 67  1  0
 26 68  1  0
 27 69  1  0
 27 70  1  0
 27 71  1  0
 28 72  1  0
 28 73  1  0
 28 74  1  0
 29 75  1  0
 29 76  1  0
 29 77  1  0
 30 78  1  0
 30 79  1  0
 30 80  1  0
V    1 0
V    2 1
V    3 2
V    4 3
V    5 4
V    6 5
V    7 6
V    8 7
V    9 8
V   10 9
V   11 10
V   12 11
V   13 12
V   14 13
V   15 14
V   16 15
V   17 16
V   18 17
V   19 18
V   20 19
V   21 20
V   22 21
V   23 22
V   24 23
V   25 24
V   26 25
V   27 26
V   28 27
V   29 28
V   30 29
M  END
> <DSSTox_RID>
66064

> <DSSTox_CID>
7924

> <DSSTox_CID_Parent>
7924

> <DSSTox_Generic_SID>
27924

> <DSSTox_FileID>
589_TXCST2_v1a

> <STRUCTURE_Formula>
C26H50O4

> <STRUCTURE_MolecularWeight>
426.6728

> <STRUCTURE_ChemicalType>
defined organic

> <STRUCTURE_TestedForm_DefinedOrganic>
parent

> <STRUCTURE_Shown>
representative isomer in mixture

> <TestSubstance_ChemicalName>
Diisodecyl hexadioate

> <TestSubstance_CASRN>
27178-16-1

> <TestSubstance_Description>
mixture or formulation

> <ChemicalNote>
mixture of isodecyl isomers; structure shown 8-methylnonyl

> <Source_ChemicalNote>
tested chemical was a mixture of isomers

> <STRUCTURE_ChemicalName_IUPAC>
bis(8-methylnonyl) adipate

> <STRUCTURE_SMILES>
O=C(OCCCCCCCC(C)C)CCCCC(OCCCCCCCC(C)C)=O

> <STRUCTURE_Parent_SMILES>
O=C(OCCCCCCCC(C)C)CCCCC(OCCCCCCCC(C)C)=O

> <STRUCTURE_InChIS>
InChI=1S/C26H50O4/c1-23(2)17-11-7-5-9-15-21-29-25(27)19-13-14-20-26(28)30-22-16-10-6-8-12-18-24(3)4/h23-24H,5-22H2,1-4H3

> <STRUCTURE_InChIKey>
YKGYQYOQRGPFTO-UHFFFAOYSA-N

> <Substance_modify_yyyymmdd>
20080429

> <Coord_Metals>
0

> <Index>
589

> <Canonical_Smiles>
CC(C)CCCCCCCOC(=O)CCCCC(=O)OCCCCCCCC(C)C

> <Molecular_Weight>
426.6728

> <Frequency>
1

$$$$

  SciTegic          2D

 33 32  0  0  0  0            999 V2000
    3.9000    0.7500    0.0000 C   0  0
    2.6000    0.0000    0.0000 C   0  0
    1.3000    0.7500    0.0000 C   0  0
    3.9000    1.9500    0.0000 O   0  0
    5.2000    0.0000    0.0000 O   0  0
    6.5000    0.7500    0.0000 C   0  0
    7.7999    0.0000    0.0000 C   0  0
    9.0999    0.7500    0.0000 C   0  0
   10.3999    0.0000    0.0000 C   0  0
   11.6999    0.7500    0.0000 C   0  0
   12.9999    0.0000    0.0000 C   0  0
   14.2999    0.7500    0.0000 C   0  0
   13.0028    1.5300    0.0000 C   0  0
    2.6000   -1.0000    0.0000 H   0  0
    0.4338    0.2503    0.0000 H   0  0
    1.3000    1.7500    0.0000 H   0  0
    6.5000    1.7500    0.0000 H   0  0
    5.6340    1.2501    0.0000 H   0  0
    7.7999   -1.0000    0.0000 H   0  0
    6.9340   -0.5001    0.0000 H   0  0
    9.0999    1.7500    0.0000 H   0  0
    8.2340    1.2501    0.0000 H   0  0
   10.3999   -1.0000    0.0000 H   0  0
    9.5340   -0.5001    0.0000 H   0  0
   11.6999    1.7500    0.0000 H   0  0
   10.8340    1.2501    0.0000 H   0  0
   12.9999   -1.0000    0.0000 H   0  0
   15.1661    0.2503    0.0000 H   0  0
   15.1658    1.2501    0.0000 H   0  0
   14.2999    1.7500    0.0000 H   0  0
   13.8694    2.0289    0.0000 H   0  0
   12.1375    2.0313    0.0000 H   0  0
   13.0042    2.5300    0.0000 H   0  0
  1  2  1  0
  1  5  1  0
  1  4  2  0
  2  3  2  0
  5  6  1  0
  6  7  1  0
  7  8  1  0
  8  9  1  0
  9 10  1  0
 10 11  1  0
 11 12  1  0
 11 13  1  0
  2 14  1  0
  3 15  1  0
  3 16  1  0
  6 17  1  0
  6 18  1  0
  7 19  1  0
  7 20  1  0
  8 21  1  0
  8 22  1  0
  9 23  1  0
  9 24  1  0
 10 25  1  0
 10 26  1  0
 11 27  1  0
 12 28  1  0
 12 29  1  0
 12 30  1  0
 13 31  1  0
 13 32  1  0
 13 33  1  0
V    1 0
V    2 1
V    3 2
V    4 3
V    5 4
V    6 5
V    7 6
V    8 7
V    9 8
V   10 9
V   11 10
V   12 11
V   13 12
M  END
> <DSSTox_RID>
65854

> <DSSTox_CID>
7955

> <DSSTox_CID_Parent>
7955

> <DSSTox_Generic_SID>
27955

> <DSSTox_FileID>
591_TXCST2_v1a

> <STRUCTURE_Formula>
C11H20O2

> <STRUCTURE_MolecularWeight>
184.2753

> <STRUCTURE_ChemicalType>
defined organic

> <STRUCTURE_TestedForm_DefinedOrganic>
parent

> <STRUCTURE_Shown>
representative isomer in mixture

> <TestSubstance_ChemicalName>
Isooctyl acrylate

> <TestSubstance_CASRN>
29590-42-9

> <TestSubstance_Description>
mixture or formulation

> <ChemicalNote>
mixture of isooctyl isomers; structure shown 6-methylheptyl

> <Source_ChemicalNote>
tested chemical contained 0.03% water

> <STRUCTURE_ChemicalName_IUPAC>
6-methylheptyl acrylate

> <STRUCTURE_SMILES>
O=C(OCCCCCC(C)C)C=C

> <STRUCTURE_Parent_SMILES>
O=C(OCCCCCC(C)C)C=C

> <STRUCTURE_InChIS>
InChI=1S/C11H20O2/c1-4-11(12)13-9-7-5-6-8-10(2)3/h4,10H,1,5-9H2,2-3H3

> <STRUCTURE_InChIKey>
DXPPIEDUBFUSEZ-UHFFFAOYSA-N

> <Substance_modify_yyyymmdd>
20080429

> <Coord_Metals>
0

> <Index>
591

> <Canonical_Smiles>
CC(C)CCCCCOC(=O)C=C

> <Molecular_Weight>
184.27529

> <Frequency>
1

$$$$

  SciTegic          2D

 74 73  0  0  0  0            999 V2000
   12.9999    0.0000    0.0000 C   0  0
   14.2999    0.7500    0.0000 C   0  0
   15.5999    0.0000    0.0000 C   0  0
   16.8999    0.7500    0.0000 C   0  0
   18.1999    0.0000    0.0000 C   0  0
   19.4998    0.7500    0.0000 C   0  0
   12.9999   -1.2000    0.0000 O   0  0
   11.6999    0.7500    0.0000 O   0  0
   19.4998    1.9500    0.0000 O   0  0
   20.7998    0.0000    0.0000 O   0  0
   10.3999    0.0000    0.0000 C   0  0
    9.0999    0.7500    0.0000 C   0  0
    7.7999    0.0000    0.0000 C   0  0
    6.5000    0.7500    0.0000 C   0  0
    5.2000    0.0000    0.0000 C   0  0
    3.9000    0.7500    0.0000 C   0  0
    2.6000    0.0000    0.0000 C   0  0
    1.3000    0.7500    0.0000 C   0  0
   22.0998    0.7500    0.0000 C   0  0
   23.3998    0.0000    0.0000 C   0  0
   24.6998    0.7500    0.0000 C   0  0
   25.9998    0.0000    0.0000 C   0  0
   27.2998    0.7500    0.0000 C   0  0
   28.5998    0.0000    0.0000 C   0  0
   29.8998    0.7500    0.0000 C   0  0
   31.1998    0.0000    0.0000 C   0  0
    2.6000   -1.5007    0.0000 C   0  0
   29.8998    2.2507    0.0000 C   0  0
   14.2999    1.7500    0.0000 H   0  0
   13.4339    1.2501    0.0000 H   0  0
   15.5999   -1.0000    0.0000 H   0  0
   14.7339   -0.5001    0.0000 H   0  0
   16.8999    1.7500    0.0000 H   0  0
   16.0339    1.2501    0.0000 H   0  0
   18.1999   -1.0000    0.0000 H   0  0
   19.0658   -0.5001    0.0000 H   0  0
   10.3999   -1.0000    0.0000 H   0  0
   11.2659   -0.5001    0.0000 H   0  0
    9.0999    1.7500    0.0000 H   0  0
    8.2340    1.2501    0.0000 H   0  0
    7.7999   -1.0000    0.0000 H   0  0
    6.9340   -0.5001    0.0000 H   0  0
    6.5000    1.7500    0.0000 H   0  0
    5.6340    1.2501    0.0000 H   0  0
    5.2000   -1.0000    0.0000 H   0  0
    4.3340   -0.5001    0.0000 H   0  0
    3.9000    1.7500    0.0000 H   0  0
    3.0340    1.2501    0.0000 H   0  0
    2.6000    1.0000    0.0000 H   0  0
    0.4338    0.2503    0.0000 H   0  0
    0.4340    1.2501    0.0000 H   0  0
    1.3000    1.7500    0.0000 H   0  0
   21.2339    1.2501    0.0000 H   0  0
   22.0998    1.7500    0.0000 H   0  0
   22.5339   -0.5001    0.0000 H   0  0
   23.3998   -1.0000    0.0000 H   0  0
   23.8339    1.2501    0.0000 H   0  0
   24.6998    1.7500    0.0000 H   0  0
   25.1339   -0.5001    0.0000 H   0  0
   25.9998   -1.0000    0.0000 H   0  0
   26.4338    1.2501    0.0000 H   0  0
   27.2998    1.7500    0.0000 H   0  0
   27.7338   -0.5001    0.0000 H   0  0
   28.5998   -1.0000    0.0000 H   0  0
   29.8998   -0.2500    0.0000 H   0  0
   32.0659    0.4997    0.0000 H   0  0
   31.1998   -1.0000    0.0000 H   0  0
   32.0657   -0.5001    0.0000 H   0  0
    1.7343   -2.0013    0.0000 H   0  0
    3.4662   -2.0005    0.0000 H   0  0
    2.6005   -2.5007    0.0000 H   0  0
   30.7655    2.7513    0.0000 H   0  0
   29.8993    3.2507    0.0000 H   0  0
   29.0336    2.7505    0.0000 H   0  0
  1  2  1  0
  1  8  1  0
  1  7  2  0
  2  3  1  0
  3  4  1  0
  4  5  1  0
  5  6  1  0
  6 10  1  0
  6  9  2  0
  8 11  1  0
 10 19  1  0
 11 12  1  0
 12 13  1  0
 13 14  1  0
 14 15  1  0
 15 16  1  0
 16 17  1  0
 17 18  1  0
 17 27  1  0
 19 20  1  0
 20 21  1  0
 21 22  1  0
 22 23  1  0
 23 24  1  0
 24 25  1  0
 25 26  1  0
 25 28  1  0
  2 29  1  0
  2 30  1  0
  3 31  1  0
  3 32  1  0
  4 33  1  0
  4 34  1  0
  5 35  1  0
  5 36  1  0
 11 37  1  0
 11 38  1  0
 12 39  1  0
 12 40  1  0
 13 41  1  0
 13 42  1  0
 14 43  1  0
 14 44  1  0
 15 45  1  0
 15 46  1  0
 16 47  1  0
 16 48  1  0
 17 49  1  0
 18 50  1  0
 18 51  1  0
 18 52  1  0
 19 53  1  0
 19 54  1  0
 20 55  1  0
 20 56  1  0
 21 57  1  0
 21 58  1  0
 22 59  1  0
 22 60  1  0
 23 61  1  0
 23 62  1  0
 24 63  1  0
 24 64  1  0
 25 65  1  0
 26 66  1  0
 26 67  1  0
 26 68  1  0
 27 69  1  0
 27 70  1  0
 27 71  1  0
 28 72  1  0
 28 73  1  0
 28 74  1  0
V    1 0
V    2 1
V    3 2
V    4 3
V    5 4
V    6 5
V    7 6
V    8 7
V    9 8
V   10 9
V   11 10
V   12 11
V   13 12
V   14 13
V   15 14
V   16 15
V   17 16
V   18 17
V   19 18
V   20 19
V   21 20
V   22 21
V   23 22
V   24 23
V   25 24
V   26 25
V   27 26
V   28 27
M  END
> <DSSTox_RID>
66754

> <DSSTox_CID>
7982

> <DSSTox_CID_Parent>
7982

> <DSSTox_Generic_SID>
27982

> <DSSTox_FileID>
592_TXCST2_v1a

> <STRUCTURE_Formula>
C24H46O4

> <STRUCTURE_MolecularWeight>
398.6196

> <STRUCTURE_ChemicalType>
defined organic

> <STRUCTURE_TestedForm_DefinedOrganic>
parent

> <STRUCTURE_Shown>
representative isomer in mixture

> <TestSubstance_ChemicalName>
Hexanedioic acid, diisononyl ester

> <TestSubstance_CASRN>
33703-08-1

> <TestSubstance_Description>
mixture or formulation

> <ChemicalNote>
mixture of isononyl isomers; structure shown 7-methyloctyl

> <Source_ChemicalNote>
tested chemical was a mixture of isomers

> <STRUCTURE_ChemicalName_IUPAC>
bis(7-methyloctyl) adipate

> <STRUCTURE_SMILES>
O=C(OCCCCCCC(C)C)CCCCC(OCCCCCCC(C)C)=O

> <STRUCTURE_Parent_SMILES>
O=C(OCCCCCCC(C)C)CCCCC(OCCCCCCC(C)C)=O

> <STRUCTURE_InChIS>
InChI=1S/C24H46O4/c1-21(2)15-9-5-7-13-19-27-23(25)17-11-12-18-24(26)28-20-14-8-6-10-16-22(3)4/h21-22H,5-20H2,1-4H3

> <STRUCTURE_InChIKey>
AYWLCKHHUFBVGJ-UHFFFAOYSA-N

> <Substance_modify_yyyymmdd>
20080429

> <Coord_Metals>
0

> <Index>
592

> <Canonical_Smiles>
CC(C)CCCCCCOC(=O)CCCCC(=O)OCCCCCCC(C)C

> <Molecular_Weight>
398.61964

> <Frequency>
1

$$$$

  SciTegic          2D

 26 25  0  0  0  0            999 V2000
    3.9000    0.7500    0.0000 C   0  0
    2.6000    0.0000    0.0000 C   0  0
    1.3000    0.7500    0.0000 C   0  0
    3.9000    2.2507    0.0000 O   0  0
    5.2000    0.0000    0.0000 O   0  0
    6.5000    0.7500    0.0000 C   0  0
    7.7999    0.0000    0.0000 C   0  0
    9.0999    0.7500    0.0000 C   0  0
   10.3999    0.0000    0.0000 O   0  0
   11.6999    0.7500    0.0000 C   0  0
    4.7659    1.2501    0.0000 H   0  0
    2.6000   -1.0000    0.0000 H   0  0
    1.7340   -0.5001    0.0000 H   0  0
    0.4338    0.2503    0.0000 H   0  0
    1.3000    1.7500    0.0000 H   0  0
    0.4340    1.2501    0.0000 H   0  0
    4.7657    2.7513    0.0000 H   0  0
    6.5000    1.7500    0.0000 H   0  0
    5.6340    1.2501    0.0000 H   0  0
    7.7999   -1.0000    0.0000 H   0  0
    6.9340   -0.5001    0.0000 H   0  0
    9.0999    1.7500    0.0000 H   0  0
    9.9659    1.2501    0.0000 H   0  0
   12.5661    0.2503    0.0000 H   0  0
   11.6999    1.7500    0.0000 H   0  0
   12.5659    1.2501    0.0000 H   0  0
  1  2  1  0
  1  4  1  0
  1  5  1  0
  2  3  1  0
  5  6  1  0
  6  7  1  0
  7  8  1  0
  8  9  1  0
  9 10  1  0
  1 11  1  0
  2 12  1  0
  2 13  1  0
  3 14  1  0
  3 15  1  0
  3 16  1  0
  4 17  1  0
  6 18  1  0
  6 19  1  0
  7 20  1  0
  7 21  1  0
  8 22  1  0
  8 23  1  0
 10 24  1  0
 10 25  1  0
 10 26  1  0
V    1 0
V    2 1
V    3 2
V    4 3
V    5 4
V    6 5
V    7 6
V    8 7
V    9 8
V   10 9
M  END
> <DSSTox_RID>
59493

> <DSSTox_CID>
7983

> <DSSTox_CID_Parent>
7983

> <DSSTox_Generic_SID>
27983

> <DSSTox_FileID>
593_TXCST2_v1a

> <STRUCTURE_Formula>
C7H16O3

> <STRUCTURE_MolecularWeight>
148.2001

> <STRUCTURE_ChemicalType>
defined organic

> <STRUCTURE_TestedForm_DefinedOrganic>
parent

> <STRUCTURE_Shown>
representative isomer in mixture

> <TestSubstance_ChemicalName>
Propanol, 1(or 2)-(2-methoxymethylethoxy)-

> <TestSubstance_CASRN>
34590-94-8

> <TestSubstance_Description>
mixture or formulation

> <ChemicalNote>
mixture of 1- and 2-(3-methoxypropoxy)propan-1-ol; structure shown 1-(3-methoxypropoxy)propan-1-ol

> <STRUCTURE_ChemicalName_IUPAC>
1-(3-methoxypropoxy)propan-1-ol

> <STRUCTURE_SMILES>
OC(OCCCOC)CC

> <STRUCTURE_Parent_SMILES>
OC(OCCCOC)CC

> <STRUCTURE_InChIS>
InChI=1S/C7H16O3/c1-3-7(8)10-6-4-5-9-2/h7-8H,3-6H2,1-2H3

> <STRUCTURE_InChIKey>
SHRGCOIDGUJGJI-UHFFFAOYSA-N

> <Substance_modify_yyyymmdd>
20080429

> <Coord_Metals>
0

> <Index>
593

> <Canonical_Smiles>
CCC(O)OCCCOC

> <Molecular_Weight>
148.20013

> <Frequency>
1

$$$$

  SciTegic          2D

 51 50  0  0  0  0            999 V2000
   19.4998    0.7500    0.0000 C   0  0
   18.1999    0.0000    0.0000 C   0  0
   16.8999    0.7500    0.0000 C   0  0
   15.5999    0.0000    0.0000 C   0  0
   14.2999    0.7500    0.0000 C   0  0
   12.9999    0.0000    0.0000 C   0  0
   11.6999    0.7500    0.0000 C   0  0
   10.3999    0.0000    0.0000 C   0  0
    9.0999    0.7500    0.0000 C   0  0
    7.7999    0.0000    0.0000 C   0  0
    6.5000    0.7500    0.0000 C   0  0
    5.2000    0.0000    0.0000 C   0  0
    3.9000    0.7500    0.0000 C   0  0
    2.6000    0.0000    0.0000 C   0  0
    1.3000    0.7500    0.0000 O   0  0
   20.7998    0.0000    0.0000 C   0  0
   22.0998    0.7500    0.0000 C   0  0
   19.4998    1.7500    0.0000 H   0  0
   18.6339    1.2501    0.0000 H   0  0
   18.1999   -1.0000    0.0000 H   0  0
   17.3339   -0.5001    0.0000 H   0  0
   16.8999    1.7500    0.0000 H   0  0
   16.0339    1.2501    0.0000 H   0  0
   15.5999   -1.0000    0.0000 H   0  0
   14.7339   -0.5001    0.0000 H   0  0
   14.2999    1.7500    0.0000 H   0  0
   13.4339    1.2501    0.0000 H   0  0
   12.9999   -1.0000    0.0000 H   0  0
   12.1340   -0.5001    0.0000 H   0  0
   11.6999    1.7500    0.0000 H   0  0
   10.8340    1.2501    0.0000 H   0  0
   10.3999   -1.0000    0.0000 H   0  0
    9.5340   -0.5001    0.0000 H   0  0
    9.0999    1.7500    0.0000 H   0  0
    8.2340    1.2501    0.0000 H   0  0
    7.7999   -1.0000    0.0000 H   0  0
    6.9340   -0.5001    0.0000 H   0  0
    6.5000    1.7500    0.0000 H   0  0
    5.6340    1.2501    0.0000 H   0  0
    5.2000   -1.0000    0.0000 H   0  0
    4.3340   -0.5001    0.0000 H   0  0
    3.9000    1.7500    0.0000 H   0  0
    3.0340    1.2501    0.0000 H   0  0
    2.6000   -1.0000    0.0000 H   0  0
    1.7340   -0.5001    0.0000 H   0  0
    0.4338    0.2503    0.0000 H   0  0
   20.7998   -1.0000    0.0000 H   0  0
   19.9339   -0.5001    0.0000 H   0  0
   22.9660    0.2503    0.0000 H   0  0
   22.0998    1.7500    0.0000 H   0  0
   22.9658    1.2501    0.0000 H   0  0
  1  2  1  0
  1 16  1  0
  2  3  1  0
  3  4  1  0
  4  5  1  0
  5  6  1  0
  6  7  1  0
  7  8  1  0
  8  9  1  0
  9 10  1  0
 10 11  1  0
 11 12  1  0
 12 13  1  0
 13 14  1  0
 14 15  1  0
 16 17  1  0
  1 18  1  0
  1 19  1  0
  2 20  1  0
  2 21  1  0
  3 22  1  0
  3 23  1  0
  4 24  1  0
  4 25  1  0
  5 26  1  0
  5 27  1  0
  6 28  1  0
  6 29  1  0
  7 30  1  0
  7 31  1  0
  8 32  1  0
  8 33  1  0
  9 34  1  0
  9 35  1  0
 10 36  1  0
 10 37  1  0
 11 38  1  0
 11 39  1  0
 12 40  1  0
 12 41  1  0
 13 42  1  0
 13 43  1  0
 14 44  1  0
 14 45  1  0
 15 46  1  0
 16 47  1  0
 16 48  1  0
 17 49  1  0
 17 50  1  0
 17 51  1  0
V    1 0
V    2 1
V    3 2
V    4 3
V    5 4
V    6 5
V    7 6
V    8 7
V    9 8
V   10 9
V   11 10
V   12 11
V   13 12
V   14 13
V   15 14
V   16 15
V   17 16
M  END
> <DSSTox_RID>
66983

> <DSSTox_CID>
7991

> <DSSTox_CID_Parent>
7991

> <DSSTox_Generic_SID>
27991

> <DSSTox_FileID>
594_TXCST2_v1a

> <STRUCTURE_Formula>
C16H34O

> <STRUCTURE_MolecularWeight>
242.4406

> <STRUCTURE_ChemicalType>
defined organic

> <STRUCTURE_TestedForm_DefinedOrganic>
parent

> <STRUCTURE_Shown>
tested chemical

> <TestSubstance_ChemicalName>
1-Hexadecanol

> <TestSubstance_CASRN>
36653-82-4

> <TestSubstance_Description>
single chemical compound

> <STRUCTURE_ChemicalName_IUPAC>
hexadecan-1-ol

> <STRUCTURE_SMILES>
OCCCCCCCCCCCCCCCC

> <STRUCTURE_Parent_SMILES>
OCCCCCCCCCCCCCCCC

> <STRUCTURE_InChIS>
InChI=1S/C16H34O/c1-2-3-4-5-6-7-8-9-10-11-12-13-14-15-16-17/h17H,2-16H2,1H3

> <STRUCTURE_InChIKey>
BXWNKGSJHAJOGX-UHFFFAOYSA-N

> <Substance_modify_yyyymmdd>
20080429

> <Coord_Metals>
0

> <Index>
594

> <Canonical_Smiles>
CCCCCCCCCCCCCCCCO

> <Molecular_Weight>
242.44055

> <Frequency>
1

$$$$

  SciTegic          2D

102102  0  0  0  0            999 V2000
    1.2990   -0.7500    0.0000 C   0  0
    1.2990    0.7500    0.0000 C   0  0
    0.0000    1.5000    0.0000 C   0  0
   -1.2990    0.7500    0.0000 C   0  0
   -1.2990   -0.7500    0.0000 C   0  0
    0.0000   -1.5000    0.0000 C   0  0
    2.5973   -1.5031    0.0000 C   0  0
    3.6375   -0.9049    0.0000 O   0  0
    2.5951   -3.0039    0.0000 O   0  0
   -0.0031   -3.0008    0.0000 C   0  0
    1.0351   -3.6026    0.0000 O   0  0
   -1.3039   -3.7494    0.0000 O   0  0
   -2.6003    1.4977    0.0000 C   0  0
   -2.6024    2.6977    0.0000 O   0  0
   -3.8990    0.7455    0.0000 O   0  0
    3.8933   -3.7570    0.0000 C   0  0
    3.8912   -5.2578    0.0000 C   0  0
    5.1894   -6.0109    0.0000 C   0  0
    5.1873   -7.5117    0.0000 C   0  0
    6.4855   -8.2648    0.0000 C   0  0
    6.4833   -9.7656    0.0000 C   0  0
    7.7815  -10.5187    0.0000 C   0  0
    7.7794  -12.0195    0.0000 C   0  0
   -1.3070   -5.2502    0.0000 C   0  0
   -2.6078   -5.9988    0.0000 C   0  0
   -2.6109   -7.4996    0.0000 C   0  0
   -3.9117   -8.2482    0.0000 C   0  0
   -3.9148   -9.7490    0.0000 C   0  0
   -5.2156  -10.4976    0.0000 C   0  0
   -5.2187  -11.9984    0.0000 C   0  0
   -6.5195  -12.7469    0.0000 C   0  0
   -5.2003    1.4932    0.0000 C   0  0
   -6.4990    0.7409    0.0000 C   0  0
   -7.8003    1.4887    0.0000 C   0  0
   -9.0990    0.7364    0.0000 C   0  0
  -10.4003    1.4841    0.0000 C   0  0
  -11.6990    0.7318    0.0000 C   0  0
  -13.0003    1.4796    0.0000 C   0  0
  -14.2989    0.7273    0.0000 C   0  0
  -13.0004   -0.0504    0.0000 C   0  0
   -6.5438  -11.2336    0.0000 C   0  0
    6.4567  -11.2839    0.0000 C   0  0
    2.1651    1.2500    0.0000 H   0  0
    0.0000    2.5000    0.0000 H   0  0
   -2.1651   -1.2500    0.0000 H   0  0
    4.7602   -3.2585    0.0000 H   0  0
    3.8952   -2.7570    0.0000 H   0  0
    3.0243   -5.7563    0.0000 H   0  0
    3.0260   -4.7564    0.0000 H   0  0
    6.0563   -5.5124    0.0000 H   0  0
    5.1913   -5.0109    0.0000 H   0  0
    4.3204   -8.0102    0.0000 H   0  0
    4.3220   -7.0104    0.0000 H   0  0
    7.3524   -7.7663    0.0000 H   0  0
    6.4874   -7.2648    0.0000 H   0  0
    5.6164  -10.2641    0.0000 H   0  0
    5.6181   -9.2643    0.0000 H   0  0
    8.6484  -10.0202    0.0000 H   0  0
    8.6444  -12.5213    0.0000 H   0  0
    7.7775  -13.0195    0.0000 H   0  0
    6.9125  -12.5180    0.0000 H   0  0
   -0.4418   -5.7517    0.0000 H   0  0
   -0.4400   -4.7519    0.0000 H   0  0
   -3.4730   -5.4973    0.0000 H   0  0
   -2.6062   -4.9988    0.0000 H   0  0
   -1.7457   -8.0011    0.0000 H   0  0
   -1.7439   -7.0012    0.0000 H   0  0
   -4.7769   -7.7467    0.0000 H   0  0
   -3.9101   -7.2482    0.0000 H   0  0
   -3.0496  -10.2505    0.0000 H   0  0
   -3.0478   -9.2506    0.0000 H   0  0
   -6.0808   -9.9960    0.0000 H   0  0
   -5.2140   -9.4976    0.0000 H   0  0
   -4.3535  -12.4999    0.0000 H   0  0
   -6.5216  -13.7469    0.0000 H   0  0
   -7.3865  -13.2453    0.0000 H   0  0
   -7.3847  -12.2454    0.0000 H   0  0
   -5.2021    2.4932    0.0000 H   0  0
   -4.3353    1.9948    0.0000 H   0  0
   -6.4973   -0.2591    0.0000 H   0  0
   -5.6322    0.2423    0.0000 H   0  0
   -7.8020    2.4887    0.0000 H   0  0
   -6.9352    1.9903    0.0000 H   0  0
   -9.0972   -0.2636    0.0000 H   0  0
   -8.2322    0.2378    0.0000 H   0  0
  -10.4020    2.4841    0.0000 H   0  0
   -9.5352    1.9858    0.0000 H   0  0
  -11.6972   -0.2682    0.0000 H   0  0
  -10.8321    0.2332    0.0000 H   0  0
  -13.0020    2.4796    0.0000 H   0  0
  -15.1660    1.2255    0.0000 H   0  0
  -15.1640    0.2257    0.0000 H   0  0
  -14.2972   -0.2727    0.0000 H   0  0
  -13.8662   -0.5508    0.0000 H   0  0
  -12.1343   -0.5502    0.0000 H   0  0
  -13.0001   -1.0504    0.0000 H   0  0
   -7.4100  -11.7332    0.0000 H   0  0
   -6.5436  -10.2336    0.0000 H   0  0
   -7.4096  -10.7333    0.0000 H   0  0
    6.4562  -12.2839    0.0000 H   0  0
    5.5907  -10.7837    0.0000 H   0  0
    5.5905  -11.7836    0.0000 H   0  0
  1  2  2  0
  1  6  1  0
  1  7  1  0
  2  3  1  0
  3  4  2  0
  4  5  1  0
  4 13  1  0
  5  6  2  0
  6 10  1  0
  7  8  2  0
  7  9  1  0
  9 16  1  0
 10 11  2  0
 10 12  1  0
 12 24  1  0
 13 14  2  0
 13 15  1  0
 15 32  1  0
 16 17  1  0
 17 18  1  0
 18 19  1  0
 19 20  1  0
 20 21  1  0
 21 22  1  0
 22 23  1  0
 22 42  1  0
 24 25  1  0
 25 26  1  0
 26 27  1  0
 27 28  1  0
 28 29  1  0
 29 30  1  0
 30 31  1  0
 30 41  1  0
 32 33  1  0
 33 34  1  0
 34 35  1  0
 35 36  1  0
 36 37  1  0
 37 38  1  0
 38 39  1  0
 38 40  1  0
  2 43  1  0
  3 44  1  0
  5 45  1  0
 16 46  1  0
 16 47  1  0
 17 48  1  0
 17 49  1  0
 18 50  1  0
 18 51  1  0
 19 52  1  0
 19 53  1  0
 20 54  1  0
 20 55  1  0
 21 56  1  0
 21 57  1  0
 22 58  1  0
 23 59  1  0
 23 60  1  0
 23 61  1  0
 24 62  1  0
 24 63  1  0
 25 64  1  0
 25 65  1  0
 26 66  1  0
 26 67  1  0
 27 68  1  0
 27 69  1  0
 28 70  1  0
 28 71  1  0
 29 72  1  0
 29 73  1  0
 30 74  1  0
 31 75  1  0
 31 76  1  0
 31 77  1  0
 32 78  1  0
 32 79  1  0
 33 80  1  0
 33 81  1  0
 34 82  1  0
 34 83  1  0
 35 84  1  0
 35 85  1  0
 36 86  1  0
 36 87  1  0
 37 88  1  0
 37 89  1  0
 38 90  1  0
 39 91  1  0
 39 92  1  0
 39 93  1  0
 40 94  1  0
 40 95  1  0
 40 96  1  0
 41 97  1  0
 41 98  1  0
 41 99  1  0
 42100  1  0
 42101  1  0
 42102  1  0
V    1 0
V    2 1
V    3 2
V    4 3
V    5 4
V    6 5
V    7 6
V    8 7
V    9 8
V   10 9
V   11 10
V   12 11
V   13 12
V   14 13
V   15 14
V   16 15
V   17 16
V   18 17
V   19 18
V   20 19
V   21 20
V   22 21
V   23 22
V   24 23
V   25 24
V   26 25
V   27 26
V   28 27
V   29 28
V   30 29
V   31 30
V   32 31
V   33 32
V   34 33
V   35 34
V   36 35
V   37 36
V   38 37
V   39 38
V   40 39
V   41 40
V   42 41
M  END
> <DSSTox_RID>
62415

> <DSSTox_CID>
8033

> <DSSTox_CID_Parent>
8033

> <DSSTox_Generic_SID>
28033

> <DSSTox_FileID>
595_TXCST2_v1a

> <STRUCTURE_Formula>
C36H60O6

> <STRUCTURE_MolecularWeight>
588.858

> <STRUCTURE_ChemicalType>
defined organic

> <STRUCTURE_TestedForm_DefinedOrganic>
parent

> <STRUCTURE_Shown>
representative isomer in mixture

> <TestSubstance_ChemicalName>
Triisononyl trimellitate

> <TestSubstance_CASRN>
53894-23-8

> <TestSubstance_Description>
mixture or formulation

> <ChemicalNote>
mixture of isononyl isomers; structure shown 7-methyloctyl

> <STRUCTURE_ChemicalName_IUPAC>
tris(7-methyloctyl) benzene-1,2,4-tricarboxylate

> <STRUCTURE_SMILES>
O=C(OCCCCCCC(C)C)C1=CC=C(C(OCCCCCCC(C)C)=O)C=C1C(OCCCCCCC(C)C)=O

> <STRUCTURE_Parent_SMILES>
O=C(OCCCCCCC(C)C)C1=CC=C(C(OCCCCCCC(C)C)=O)C=C1C(OCCCCCCC(C)C)=O

> <STRUCTURE_InChIS>
InChI=1S/C36H60O6/c1-28(2)19-13-7-10-16-24-40-34(37)31-22-23-32(35(38)41-25-17-11-8-14-20-29(3)4)33(27-31)36(39)42-26-18-12-9-15-21-30(5)6/h22-23,27-30H,7-21,24-26H2,1-6H3

> <STRUCTURE_InChIKey>
YPDXSCXISVYHOB-UHFFFAOYSA-N

> <Substance_modify_yyyymmdd>
20080429

> <Coord_Metals>
0

> <Index>
595

> <Canonical_Smiles>
CC(C)CCCCCCOC(=O)c1ccc(C(=O)OCCCCCCC(C)C)c(c1)C(=O)OCCCCCCC(C)C

> <Molecular_Weight>
588.85799

> <Frequency>
1

$$$$

  SciTegic          2D

 24 23  0  0  0  0            999 V2000
    6.5000    2.2500    0.0000 C   0  0
    6.5000    3.4500    0.0000 O   0  0
    5.2000    1.5000    0.0000 O   0  0
    7.7999    1.5000    0.0000 N   0  0
    9.0999    2.2500    0.0000 C   0  0
   10.3999    1.5000    0.0000 C   0  0
   11.6999    2.2500    0.0000 C   0  0
   12.9999    1.5000    0.0000 C   0  0
    3.9000    2.2500    0.0000 C   0  0
    2.6000    1.5000    0.0000 C   0  0
    1.3000    0.7500    0.0000 C   0  0
    0.2606    0.1503    0.0000 I   0  0
    7.7999    0.5000    0.0000 H   0  0
    9.0999    3.2500    0.0000 H   0  0
    8.2340    2.7501    0.0000 H   0  0
   10.3999    0.5000    0.0000 H   0  0
    9.5340    0.9999    0.0000 H   0  0
   11.6999    3.2500    0.0000 H   0  0
   10.8340    2.7501    0.0000 H   0  0
   13.8661    1.9997    0.0000 H   0  0
   12.9999    0.5000    0.0000 H   0  0
   13.8658    0.9999    0.0000 H   0  0
    3.9000    3.2500    0.0000 H   0  0
    3.0340    2.7501    0.0000 H   0  0
  1  2  2  0
  1  3  1  0
  1  4  1  0
  3  9  1  0
  4  5  1  0
  5  6  1  0
  6  7  1  0
  7  8  1  0
  9 10  1  0
 10 11  3  0
 11 12  1  0
  4 13  1  0
  5 14  1  0
  5 15  1  0
  6 16  1  0
  6 17  1  0
  7 18  1  0
  7 19  1  0
  8 20  1  0
  8 21  1  0
  8 22  1  0
  9 23  1  0
  9 24  1  0
V    1 0
V    2 1
V    3 2
V    4 3
V    5 4
V    6 5
V    7 6
V    8 7
V    9 8
V   10 9
V   11 10
V   12 11
M  END
> <DSSTox_RID>
66885

> <DSSTox_CID>
8038

> <DSSTox_CID_Parent>
8038

> <DSSTox_Generic_SID>
28038

> <DSSTox_FileID>
596_TXCST2_v1a

> <STRUCTURE_Formula>
C8H12INO2

> <STRUCTURE_MolecularWeight>
281.0909

> <STRUCTURE_ChemicalType>
defined organic

> <STRUCTURE_TestedForm_DefinedOrganic>
parent

> <STRUCTURE_Shown>
tested chemical

> <TestSubstance_ChemicalName>
3-Iodo-2-propynyl-N-butylcarbamate

> <TestSubstance_CASRN>
55406-53-6

> <TestSubstance_Description>
single chemical compound

> <STRUCTURE_ChemicalName_IUPAC>
3-iodoprop-2-yn-1-yl butylcarbamate

> <STRUCTURE_SMILES>
O=C(NCCCC)OCC#CI

> <STRUCTURE_Parent_SMILES>
O=C(NCCCC)OCC#CI

> <STRUCTURE_InChIS>
InChI=1S/C8H12INO2/c1-2-3-6-10-8(11)12-7-4-5-9/h2-3,6-7H2,1H3,(H,10,11)

> <STRUCTURE_InChIKey>
WYVVKGNFXHOCQV-UHFFFAOYSA-N

> <Substance_modify_yyyymmdd>
20080429

> <Coord_Metals>
0

> <Index>
596

> <Canonical_Smiles>
CCCCNC(=O)OCC#CI

> <Molecular_Weight>
281.09085

> <Frequency>
1

$$$$

  SciTegic          2D

 78 78  0  0  0  0            999 V2000
    1.2990   -0.7500    0.0000 C   0  0
    1.2990    0.7500    0.0000 C   0  0
    2.5973   -1.5031    0.0000 C   0  0
    2.5972    1.5031    0.0000 C   0  0
    3.6375   -0.9049    0.0000 O   0  0
    3.6375    0.9049    0.0000 O   0  0
    2.5951   -3.0039    0.0000 O   0  0
    2.5951    3.0039    0.0000 O   0  0
    0.0000   -1.5000    0.0000 C   0  0
    0.0000    1.5000    0.0000 C   0  0
   -1.2990   -0.7500    0.0000 C   0  0
   -1.2990    0.7500    0.0000 C   0  0
    3.8933    3.7570    0.0000 C   0  0
    3.8912    5.2578    0.0000 C   0  0
    5.1894    6.0109    0.0000 C   0  0
    5.1872    7.5118    0.0000 C   0  0
    6.4854    8.2649    0.0000 C   0  0
    6.4833    9.7657    0.0000 C   0  0
    7.7815   10.5188    0.0000 C   0  0
    3.8933   -3.7570    0.0000 C   0  0
    3.8912   -5.2578    0.0000 C   0  0
    5.1894   -6.0109    0.0000 C   0  0
    5.1873   -7.5117    0.0000 C   0  0
    6.4855   -8.2648    0.0000 C   0  0
    6.4833   -9.7656    0.0000 C   0  0
    7.7815  -10.5187    0.0000 C   0  0
    7.7793   12.0196    0.0000 C   0  0
    7.7794  -12.0195    0.0000 C   0  0
    9.0775   12.7727    0.0000 C   0  0
    9.0776  -12.7726    0.0000 C   0  0
    9.1071  -11.2593    0.0000 C   0  0
    9.1071   11.2594    0.0000 C   0  0
    0.0000   -2.5000    0.0000 H   0  0
    0.0000    2.5000    0.0000 H   0  0
   -2.1651   -1.2500    0.0000 H   0  0
   -2.1651    1.2500    0.0000 H   0  0
    4.7602    3.2585    0.0000 H   0  0
    3.8952    2.7570    0.0000 H   0  0
    3.0243    5.7563    0.0000 H   0  0
    3.0259    4.7565    0.0000 H   0  0
    6.0563    5.5125    0.0000 H   0  0
    5.1913    5.0109    0.0000 H   0  0
    4.3203    8.0102    0.0000 H   0  0
    4.3220    7.0104    0.0000 H   0  0
    7.3523    7.7664    0.0000 H   0  0
    6.4873    7.2649    0.0000 H   0  0
    5.6164   10.2642    0.0000 H   0  0
    5.6180    9.2643    0.0000 H   0  0
    8.6484   10.0203    0.0000 H   0  0
    7.7834    9.5188    0.0000 H   0  0
    4.7602   -3.2585    0.0000 H   0  0
    3.8952   -2.7570    0.0000 H   0  0
    3.0243   -5.7563    0.0000 H   0  0
    3.0260   -4.7564    0.0000 H   0  0
    6.0563   -5.5124    0.0000 H   0  0
    5.1913   -5.0109    0.0000 H   0  0
    4.3204   -8.0102    0.0000 H   0  0
    4.3220   -7.0104    0.0000 H   0  0
    7.3524   -7.7663    0.0000 H   0  0
    6.4874   -7.2648    0.0000 H   0  0
    5.6164  -10.2641    0.0000 H   0  0
    5.6181   -9.2643    0.0000 H   0  0
    8.6484  -10.0202    0.0000 H   0  0
    7.7834   -9.5187    0.0000 H   0  0
    6.9124   12.5181    0.0000 H   0  0
    6.9125  -12.5180    0.0000 H   0  0
    9.0761   13.7727    0.0000 H   0  0
    9.9427   13.2741    0.0000 H   0  0
    9.9444   12.2742    0.0000 H   0  0
    9.0762  -13.7726    0.0000 H   0  0
    9.9428  -13.2740    0.0000 H   0  0
    9.9445  -12.2741    0.0000 H   0  0
    9.9717  -11.7619    0.0000 H   0  0
    9.9747  -10.7621    0.0000 H   0  0
    9.1104  -10.2593    0.0000 H   0  0
    9.9716   11.7620    0.0000 H   0  0
    9.9747   10.7622    0.0000 H   0  0
    9.1104   10.2594    0.0000 H   0  0
  1  2  2  0
  1  3  1  0
  1  9  1  0
  2  4  1  0
  2 10  1  0
  3  5  2  0
  3  7  1  0
  4  6  2  0
  4  8  1  0
  7 20  1  0
  8 13  1  0
  9 11  2  0
 10 12  2  0
 11 12  1  0
 13 14  1  0
 14 15  1  0
 15 16  1  0
 16 17  1  0
 17 18  1  0
 18 19  1  0
 19 27  1  0
 20 21  1  0
 21 22  1  0
 22 23  1  0
 23 24  1  0
 24 25  1  0
 25 26  1  0
 26 28  1  0
 27 29  1  0
 27 32  1  0
 28 30  1  0
 28 31  1  0
  9 33  1  0
 10 34  1  0
 11 35  1  0
 12 36  1  0
 13 37  1  0
 13 38  1  0
 14 39  1  0
 14 40  1  0
 15 41  1  0
 15 42  1  0
 16 43  1  0
 16 44  1  0
 17 45  1  0
 17 46  1  0
 18 47  1  0
 18 48  1  0
 19 49  1  0
 19 50  1  0
 20 51  1  0
 20 52  1  0
 21 53  1  0
 21 54  1  0
 22 55  1  0
 22 56  1  0
 23 57  1  0
 23 58  1  0
 24 59  1  0
 24 60  1  0
 25 61  1  0
 25 62  1  0
 26 63  1  0
 26 64  1  0
 27 65  1  0
 28 66  1  0
 29 67  1  0
 29 68  1  0
 29 69  1  0
 30 70  1  0
 30 71  1  0
 30 72  1  0
 31 73  1  0
 31 74  1  0
 31 75  1  0
 32 76  1  0
 32 77  1  0
 32 78  1  0
V    1 0
V    2 1
V    3 2
V    4 3
V    5 4
V    6 5
V    7 6
V    8 7
V    9 8
V   10 9
V   11 10
V   12 11
V   13 12
V   14 13
V   15 14
V   16 15
V   17 16
V   18 17
V   19 18
V   20 19
V   21 20
V   22 21
V   23 22
V   24 23
V   25 24
V   26 25
V   27 26
V   28 27
V   29 28
V   30 29
V   31 30
V   32 31
M  END
> <DSSTox_RID>
66780

> <DSSTox_CID>
8666

> <DSSTox_CID_Parent>
8666

> <DSSTox_Generic_SID>
28666

> <DSSTox_FileID>
597_TXCST2_v1a

> <STRUCTURE_Formula>
C28H46O4

> <STRUCTURE_MolecularWeight>
446.6624

> <STRUCTURE_ChemicalType>
defined organic

> <STRUCTURE_TestedForm_DefinedOrganic>
parent

> <STRUCTURE_Shown>
representative component in mixture

> <TestSubstance_ChemicalName>
Diisodecyl phthalate

> <TestSubstance_CASRN>
68515-49-1

> <TestSubstance_Description>
mixture or formulation

> <ChemicalNote>
mixture of di alkyl phthalates; structure shown bis(8-methylnonyl) phthalate

> <STRUCTURE_ChemicalName_IUPAC>
bis(8-methylnonyl) phthalate

> <STRUCTURE_SMILES>
O=C(OCCCCCCCC(C)C)C(C=CC=C1)=C1C(OCCCCCCCC(C)C)=O

> <STRUCTURE_Parent_SMILES>
O=C(OCCCCCCCC(C)C)C(C=CC=C1)=C1C(OCCCCCCCC(C)C)=O

> <STRUCTURE_InChIS>
InChI=1S/C28H46O4/c1-23(2)17-11-7-5-9-15-21-31-27(29)25-19-13-14-20-26(25)28(30)32-22-16-10-6-8-12-18-24(3)4/h13-14,19-20,23-24H,5-12,15-18,21-22H2,1-4H3

> <STRUCTURE_InChIKey>
ZVFDTKUVRCTHQE-UHFFFAOYSA-N

> <Substance_modify_yyyymmdd>
20080429

> <Coord_Metals>
0

> <Index>
597

> <Canonical_Smiles>
CC(C)CCCCCCCOC(=O)c1ccccc1C(=O)OCCCCCCCC(C)C

> <Molecular_Weight>
446.66244

> <Frequency>
1

$$$$

  SciTegic          2D

 40 40  0  0  0  0            999 V2000
    1.2990   -0.7500    0.0000 C   0  0
    2.5973   -1.5031    0.0000 O   0  0
    1.2990    0.7500    0.0000 C   0  0
    0.0000   -1.5000    0.0000 C   0  0
   -1.2990   -0.7500    0.0000 C   0  0
    0.0000    1.5000    0.0000 C   0  0
   -1.2990    0.7500    0.0000 C   0  0
   -2.5988    1.5004    0.0000 C   0  0
   -3.8990    0.7508    0.0000 C   0  0
   -5.1988    1.5012    0.0000 C   0  0
   -6.4990    0.7516    0.0000 C   0  0
   -7.7988    1.5020    0.0000 C   0  0
   -9.0990    0.7524    0.0000 C   0  0
  -10.3987    1.5028    0.0000 C   0  0
  -11.6990    0.7532    0.0000 C   0  0
  -10.3983    3.0036    0.0000 C   0  0
    2.5958   -2.5031    0.0000 H   0  0
    2.1651    1.2500    0.0000 H   0  0
    0.0000   -2.5000    0.0000 H   0  0
   -2.1651   -1.2500    0.0000 H   0  0
    0.0000    2.5000    0.0000 H   0  0
   -1.7327    2.0003    0.0000 H   0  0
   -2.5985    2.5004    0.0000 H   0  0
   -3.0332    0.2504    0.0000 H   0  0
   -3.8993   -0.2492    0.0000 H   0  0
   -4.3327    2.0011    0.0000 H   0  0
   -5.1985    2.5012    0.0000 H   0  0
   -5.6332    0.2512    0.0000 H   0  0
   -6.4993   -0.2484    0.0000 H   0  0
   -6.9327    2.0019    0.0000 H   0  0
   -7.7984    2.5020    0.0000 H   0  0
   -8.2332    0.2520    0.0000 H   0  0
   -9.0993   -0.2476    0.0000 H   0  0
  -10.3991    0.5028    0.0000 H   0  0
  -12.5650    1.2532    0.0000 H   0  0
  -11.6993   -0.2468    0.0000 H   0  0
  -12.5651    0.2534    0.0000 H   0  0
  -11.2638    3.5044    0.0000 H   0  0
   -9.5319    3.5030    0.0000 H   0  0
  -10.3975    4.0036    0.0000 H   0  0
  1  2  1  0
  1  3  2  0
  1  4  1  0
  3  6  1  0
  4  5  2  0
  5  7  1  0
  6  7  2  0
  7  8  1  0
  8  9  1  0
  9 10  1  0
 10 11  1  0
 11 12  1  0
 12 13  1  0
 13 14  1  0
 14 15  1  0
 14 16  1  0
  2 17  1  0
  3 18  1  0
  4 19  1  0
  5 20  1  0
  6 21  1  0
  8 22  1  0
  8 23  1  0
  9 24  1  0
  9 25  1  0
 10 26  1  0
 10 27  1  0
 11 28  1  0
 11 29  1  0
 12 30  1  0
 12 31  1  0
 13 32  1  0
 13 33  1  0
 14 34  1  0
 15 35  1  0
 15 36  1  0
 15 37  1  0
 16 38  1  0
 16 39  1  0
 16 40  1  0
V    1 0
V    2 1
V    3 2
V    4 3
V    5 4
V    6 5
V    7 6
V    8 7
V    9 8
V   10 9
V   11 10
V   12 11
V   13 12
V   14 13
V   15 14
V   16 15
M  END
> <DSSTox_RID>
59898

> <DSSTox_CID>
9055

> <DSSTox_CID_Parent>
9055

> <DSSTox_Generic_SID>
29055

> <DSSTox_FileID>
598_TXCST2_v1a

> <STRUCTURE_Formula>
C15H24O

> <STRUCTURE_MolecularWeight>
220.3505

> <STRUCTURE_ChemicalType>
defined organic

> <STRUCTURE_TestedForm_DefinedOrganic>
parent

> <STRUCTURE_Shown>
representative isomer in mixture

> <TestSubstance_ChemicalName>
4-Nonylphenol, branched

> <TestSubstance_CASRN>
84852-15-3

> <TestSubstance_Description>
mixture or formulation

> <ChemicalNote>
mixture of nonyl isomers; structure shown 7-methyloctyl

> <STRUCTURE_ChemicalName_IUPAC>
4-(7-methyloctyl)phenol

> <STRUCTURE_SMILES>
OC1=CC=C(CCCCCCC(C)C)C=C1

> <STRUCTURE_Parent_SMILES>
OC1=CC=C(CCCCCCC(C)C)C=C1

> <STRUCTURE_InChIS>
InChI=1S/C15H24O/c1-13(2)7-5-3-4-6-8-14-9-11-15(16)12-10-14/h9-13,16H,3-8H2,1-2H3

> <STRUCTURE_InChIKey>
JSFITYFUKSFPBZ-UHFFFAOYSA-N

> <Substance_modify_yyyymmdd>
20080429

> <Coord_Metals>
0

> <Index>
598

> <Canonical_Smiles>
CC(C)CCCCCCc1ccc(O)cc1

> <Molecular_Weight>
220.35045

> <Frequency>
1

$$$$

  SciTegic          2D

 17 16  0  0  0  0            999 V2000
    3.9000    0.7500    0.0000 C   0  0
    5.2000    0.0000    0.0000 C   0  0
    6.5000    0.7500    0.0000 C   0  0
    3.9000    1.9500    0.0000 O   0  0
    2.6000    0.0000    0.0000 O   0  0
    6.5000    1.9500    0.0000 O   0  0
    7.7999    0.0000    0.0000 O   0  0
    1.3000    0.7500    0.0000 C   0  0
    9.0999    0.7500    0.0000 C   0  0
    5.2000   -1.0000    0.0000 H   0  0
    4.3340   -0.5001    0.0000 H   0  0
    0.4338    0.2503    0.0000 H   0  0
    1.3000    1.7500    0.0000 H   0  0
    0.4340    1.2501    0.0000 H   0  0
    9.9661    0.2503    0.0000 H   0  0
    9.0999    1.7500    0.0000 H   0  0
    9.9659    1.2501    0.0000 H   0  0
  1  2  1  0
  1  5  1  0
  1  4  2  0
  2  3  1  0
  3  7  1  0
  3  6  2  0
  5  8  1  0
  7  9  1  0
  2 10  1  0
  2 11  1  0
  8 12  1  0
  8 13  1  0
  8 14  1  0
  9 15  1  0
  9 16  1  0
  9 17  1  0
V    1 0
V    2 1
V    3 2
V    4 3
V    5 4
V    6 5
V    7 6
V    8 7
V    9 8
M  END
> <DSSTox_RID>
65451

> <DSSTox_CID>
9145

> <DSSTox_CID_Parent>
9145

> <DSSTox_Generic_SID>
29145

> <DSSTox_FileID>
599_TXCST2_v1a

> <STRUCTURE_Formula>
C5H8O4

> <STRUCTURE_MolecularWeight>
132.1146

> <STRUCTURE_ChemicalType>
defined organic

> <STRUCTURE_TestedForm_DefinedOrganic>
parent

> <STRUCTURE_Shown>
tested chemical

> <TestSubstance_ChemicalName>
Dimethyl malonate

> <TestSubstance_CASRN>
108-59-8

> <TestSubstance_Description>
single chemical compound

> <STRUCTURE_ChemicalName_IUPAC>
dimethyl malonate

> <STRUCTURE_SMILES>
O=C(OC)CC(OC)=O

> <STRUCTURE_Parent_SMILES>
O=C(OC)CC(OC)=O

> <STRUCTURE_InChIS>
InChI=1S/C5H8O4/c1-8-4(6)3-5(7)9-2/h3H2,1-2H3

> <STRUCTURE_InChIKey>
BEPAFCGSDWSTEL-UHFFFAOYSA-N

> <Substance_modify_yyyymmdd>
20080429

> <Coord_Metals>
0

> <Index>
599

> <Canonical_Smiles>
COC(=O)CC(=O)OC

> <Molecular_Weight>
132.11461

> <Frequency>
1

$$$$

  SciTegic          2D

 14 14  0  0  0  0            999 V2000
    1.2990   -0.7500    0.0000 N   0  0
    1.2990    0.7500    0.0000 C   0  0
    0.0000   -1.5000    0.0000 C   0  0
   -1.2990   -0.7500    0.0000 C   0  0
    0.0000    1.5000    0.0000 C   0  0
   -1.2990    0.7500    0.0000 C   0  0
    0.0031   -3.0008    0.0000 C   0  0
   -1.0351   -3.6026    0.0000 O   0  0
    1.3039   -3.7494    0.0000 O   0  0
   -2.3383   -1.3500    0.0000 Cl  0  0
    2.3383    1.3500    0.0000 Cl  0  0
    0.0000    2.5000    0.0000 H   0  0
   -2.1651    1.2500    0.0000 H   0  0
    1.3060   -4.7494    0.0000 H   0  0
  1  2  2  0
  1  3  1  0
  2  5  1  0
  2 11  1  0
  3  4  2  0
  3  7  1  0
  4  6  1  0
  4 10  1  0
  5  6  2  0
  7  8  2  0
  7  9  1  0
  5 12  1  0
  6 13  1  0
  9 14  1  0
V    1 0
V    2 1
V    3 2
V    4 3
V    5 4
V    6 5
V    7 6
V    8 7
V    9 8
V   10 9
V   11 10
M  END
> <DSSTox_RID>
65790
65277

> <DSSTox_CID>
9221
12582

> <DSSTox_CID_Parent>
9221
9221

> <DSSTox_Generic_SID>
29221
34265

> <DSSTox_FileID>
600_TXCST2_v1a
709_TXCST2_v1a

> <STRUCTURE_Formula>
C6H3Cl2NO2
C8H10Cl2N2O3

> <STRUCTURE_MolecularWeight>
191.9995
253.0826

> <STRUCTURE_ChemicalType>
defined organic
defined organic

> <STRUCTURE_TestedForm_DefinedOrganic>
parent
complex ethanolamine (C2H7NO)

> <STRUCTURE_Shown>
tested chemical
tested chemical

> <TestSubstance_ChemicalName>
Clopyralid
Clopyralid-olamine

> <TestSubstance_CASRN>
1702-17-6
57754-85-5

> <TestSubstance_Description>
single chemical compound
single chemical compound

> <Source_ChemicalNote>
tested chemical contained 0.08% water (0.01 moles H2O)

> <STRUCTURE_ChemicalName_IUPAC>
3,6-dichloropyridine-2-carboxylic acid
3,6-dichloropyridine-2-carboxylic acid - 2-aminoethanol (1:1)

> <STRUCTURE_SMILES>
O=C(O)C1=C(Cl)C=CC(Cl)=N1
O=C(O)C1=C(Cl)C=CC(Cl)=N1.OCCN

> <STRUCTURE_Parent_SMILES>
O=C(O)C1=C(Cl)C=CC(Cl)=N1
O=C(O)C1=C(Cl)C=CC(Cl)=N1

> <STRUCTURE_InChIS>
InChI=1S/C6H3Cl2NO2/c7-3-1-2-4(8)9-5(3)6(10)11/h1-2H,(H,10,11)
InChI=1S/C6H3Cl2NO2.C2H7NO/c7-3-1-2-4(8)9-5(3)6(10)11;3-1-2-4/h1-2H,(H,10,11);4H,1-3H2

> <STRUCTURE_InChIKey>
HUBANNPOLNYSAD-UHFFFAOYSA-N
NQQBTWVFKDDVIB-UHFFFAOYSA-N

> <Substance_modify_yyyymmdd>
20080429
20080429

> <Coord_Metals>
0
0

> <Index>
600
709

> <Canonical_Smiles>
OC(=O)c1nc(Cl)ccc1Cl

> <Molecular_Weight>
191.99951
191.99951

> <ChemicalNote>
parent [1702-17-6]

> <Frequency>
2

$$$$

  SciTegic          2D

 51 53  0  0  0  0            999 V2000
    2.3472    1.8519    0.0000 C   0  0
    3.8258    2.1094    0.0000 O   0  0
    1.3830    3.0009    0.0000 C   0  0
    1.8342    0.4423    0.0000 C   0  0
    0.3570    0.1818    0.0000 C   0  0
   -0.0942    2.7405    0.0000 C   0  0
   -0.6072    1.3309    0.0000 C   0  0
    0.8697    4.4112    0.0000 C   0  0
    1.8347    5.5606    0.0000 C   0  0
    2.3757    4.1416    0.0000 C   0  0
   -0.6082    4.6728    0.0000 C   0  0
   -1.9077    3.9236    0.0000 C   0  0
   -0.6072    6.1728    0.0000 C   0  0
   -3.2063    4.6744    0.0000 C   0  0
   -1.9058    6.9236    0.0000 C   0  0
   -3.2053    6.1744    0.0000 C   0  0
   -1.5719    0.1812    0.0000 C   0  0
   -3.0498    0.4423    0.0000 C   0  0
   -2.0914    1.6203    0.0000 C   0  0
   -1.0595   -1.2294    0.0000 C   0  0
    0.2391   -1.9803    0.0000 C   0  0
   -2.3590   -1.9786    0.0000 C   0  0
    0.2381   -3.4803    0.0000 C   0  0
   -2.3600   -3.4786    0.0000 C   0  0
   -1.0614   -4.2294    0.0000 C   0  0
    4.4675    1.3425    0.0000 H   0  0
    2.4770   -0.3237    0.0000 H   0  0
    0.0149   -0.7578    0.0000 H   0  0
   -0.7370    3.5065    0.0000 H   0  0
    1.4936    6.5006    0.0000 H   0  0
    2.8194    5.3863    0.0000 H   0  0
    2.4781    6.3261    0.0000 H   0  0
    2.7158    3.2012    0.0000 H   0  0
    3.0203    4.9062    0.0000 H   0  0
    3.3601    3.9658    0.0000 H   0  0
   -1.9083    2.9236    0.0000 H   0  0
    0.2591    6.6722    0.0000 H   0  0
   -4.0726    4.1750    0.0000 H   0  0
   -1.9052    7.9236    0.0000 H   0  0
   -4.0710    6.6750    0.0000 H   0  0
   -3.6933   -0.3232    0.0000 H   0  0
   -3.3912    1.3822    0.0000 H   0  0
   -4.0345    0.6167    0.0000 H   0  0
   -1.4471    2.3850    0.0000 H   0  0
   -3.0758    1.7962    0.0000 H   0  0
   -2.4314    2.5607    0.0000 H   0  0
    1.1054   -1.4808    0.0000 H   0  0
   -3.2247   -1.4781    0.0000 H   0  0
    1.1038   -3.9808    0.0000 H   0  0
   -3.2263   -3.9781    0.0000 H   0  0
   -1.0620   -5.2294    0.0000 H   0  0
  1  2  1  0
  1  3  2  0
  1  4  1  0
  3  6  1  0
  3  8  1  0
  4  5  2  0
  5  7  1  0
  6  7  2  0
  7 17  1  0
  8  9  1  0
  8 10  1  0
  8 11  1  0
 11 12  2  0
 11 13  1  0
 12 14  1  0
 13 15  2  0
 14 16  2  0
 15 16  1  0
 17 18  1  0
 17 19  1  0
 17 20  1  0
 20 21  2  0
 20 22  1  0
 21 23  1  0
 22 24  2  0
 23 25  2  0
 24 25  1  0
  2 26  1  0
  4 27  1  0
  5 28  1  0
  6 29  1  0
  9 30  1  0
  9 31  1  0
  9 32  1  0
 10 33  1  0
 10 34  1  0
 10 35  1  0
 12 36  1  0
 13 37  1  0
 14 38  1  0
 15 39  1  0
 16 40  1  0
 18 41  1  0
 18 42  1  0
 18 43  1  0
 19 44  1  0
 19 45  1  0
 19 46  1  0
 21 47  1  0
 22 48  1  0
 23 49  1  0
 24 50  1  0
 25 51  1  0
V    1 0
V    2 1
V    3 2
V    4 3
V    5 4
V    6 5
V    7 6
V    8 7
V    9 8
V   10 9
V   11 10
V   12 11
V   13 12
V   14 13
V   15 14
V   16 15
V   17 16
V   18 17
V   19 18
V   20 19
V   21 20
V   22 21
V   23 22
V   24 23
V   25 24
M  END
> <DSSTox_RID>
65802

> <DSSTox_CID>
9241

> <DSSTox_CID_Parent>
9241

> <DSSTox_Generic_SID>
29241

> <DSSTox_FileID>
601_TXCST2_v1a

> <STRUCTURE_Formula>
C24H26O

> <STRUCTURE_MolecularWeight>
330.4626

> <STRUCTURE_ChemicalType>
defined organic

> <STRUCTURE_TestedForm_DefinedOrganic>
parent

> <STRUCTURE_Shown>
tested chemical

> <TestSubstance_ChemicalName>
2,4-Bis(1-methyl-1-phenylethyl)phenol

> <TestSubstance_CASRN>
2772-45-4

> <TestSubstance_Description>
single chemical compound

> <STRUCTURE_ChemicalName_IUPAC>
2,4-bis(1-methyl-1-phenylethyl)phenol

> <STRUCTURE_SMILES>
OC1=C(C(C2=CC=CC=C2)(C)C)C=C(C(C3=CC=CC=C3)(C)C)C=C1

> <STRUCTURE_Parent_SMILES>
OC1=C(C(C2=CC=CC=C2)(C)C)C=C(C(C3=CC=CC=C3)(C)C)C=C1

> <STRUCTURE_InChIS>
InChI=1S/C24H26O/c1-23(2,18-11-7-5-8-12-18)20-15-16-22(25)21(17-20)24(3,4)19-13-9-6-10-14-19/h5-17,25H,1-4H3

> <STRUCTURE_InChIKey>
FMUYQRFTLHAARI-UHFFFAOYSA-N

> <Substance_modify_yyyymmdd>
20080429

> <Coord_Metals>
0

> <Index>
601

> <Canonical_Smiles>
CC(C)(c1ccccc1)c2ccc(O)c(c2)C(C)(C)c3ccccc3

> <Molecular_Weight>
330.46264

> <Frequency>
1

$$$$

  SciTegic          2D

 23 24  0  0  0  0            999 V2000
   -0.2419    0.7054    0.0000 N   0  0
    0.9876    1.5922    0.0000 C   0  0
    2.1968    0.6852    0.0000 O   0  0
    0.2217   -0.7054    0.0000 C   0  0
    1.7333   -0.7256    0.0000 C   0  0
   -1.7333    0.7457    0.0000 C   0  0
   -2.1968   -0.7054    0.0000 O   0  0
   -0.9876   -1.5720    0.0000 C   0  0
    1.2290    0.4109    0.0000 C   0  0
    2.6978    0.1026    0.0000 C   0  0
    0.1189    2.0877    0.0000 H   0  0
    1.8652    2.0715    0.0000 H   0  0
    1.3057   -1.6295    0.0000 H   0  0
    2.7271   -0.6149    0.0000 H   0  0
   -1.3040    1.6489    0.0000 H   0  0
   -2.7275    0.6386    0.0000 H   0  0
   -0.1139   -2.0586    0.0000 H   0  0
   -1.8612   -2.0587    0.0000 H   0  0
    0.9178    1.3612    0.0000 H   0  0
    1.8963    1.1556    0.0000 H   0  0
    3.3655    0.8471    0.0000 H   0  0
    3.0090   -0.8477    0.0000 H   0  0
    3.6764   -0.1032    0.0000 H   0  0
  1  2  1  0
  1  4  1  0
  1  6  1  0
  2  3  1  0
  3  5  1  0
  4  5  1  0
  4  8  1  0
  4  9  1  0
  6  7  1  0
  7  8  1  0
  9 10  1  0
  2 11  1  0
  2 12  1  0
  5 13  1  0
  5 14  1  0
  6 15  1  0
  6 16  1  0
  8 17  1  0
  8 18  1  0
  9 19  1  0
  9 20  1  0
 10 21  1  0
 10 22  1  0
 10 23  1  0
V    1 0
V    2 1
V    3 2
V    4 3
V    5 4
V    6 5
V    7 6
V    8 7
V    9 8
V   10 9
M  END
> <DSSTox_RID>
59479

> <DSSTox_CID>
9289

> <DSSTox_CID_Parent>
9289

> <DSSTox_Generic_SID>
29289

> <DSSTox_FileID>
602_TXCST2_v1a

> <STRUCTURE_Formula>
C7H13NO2

> <STRUCTURE_MolecularWeight>
143.1836

> <STRUCTURE_ChemicalType>
defined organic

> <STRUCTURE_TestedForm_DefinedOrganic>
parent

> <STRUCTURE_Shown>
tested chemical

> <TestSubstance_ChemicalName>
Oxazolidine E

> <TestSubstance_CASRN>
7747-35-5

> <TestSubstance_Description>
single chemical compound

> <Source_ChemicalNote>
tested chemical contained 0.6% water (0.05 moles H2O)

> <STRUCTURE_ChemicalName_IUPAC>
7a-ethyldihydro-1H-[1,3]oxazolo[3,4-c][1,3]oxazole

> <STRUCTURE_SMILES>
CCC12N(COC2)COC1

> <STRUCTURE_Parent_SMILES>
CCC12N(COC2)COC1

> <STRUCTURE_InChIS>
InChI=1S/C7H13NO2/c1-2-7-3-9-5-8(7)6-10-4-7/h2-6H2,1H3

> <STRUCTURE_InChIKey>
ZRCMGIXRGFOXNT-UHFFFAOYSA-N

> <Substance_modify_yyyymmdd>
20080429

> <Coord_Metals>
0

> <Index>
602

> <Canonical_Smiles>
CCC12COCN1COC2

> <Molecular_Weight>
143.18361

> <Frequency>
1

$$$$

  SciTegic          2D

 36 35  0  0  0  0            999 V2000
    2.6000    0.0000    0.0000 O   0  0
    1.3000    0.7500    0.0000 C   0  0
    6.5000    0.7500    0.0000 O   0  0
    5.2000    0.0000    0.0000 C   0  0
    3.9000    0.7500    0.0000 C   0  0
    3.9000    2.2507    0.0000 C   0  0
   11.6999    0.7500    0.0000 C   0  0
   12.9999    0.0000    0.0000 C   0  0
   10.3999    0.0000    0.0000 O   0  0
    9.0999    0.7500    0.0000 C   0  0
    7.7999    0.0000    0.0000 C   0  0
    7.7999   -1.5007    0.0000 C   0  0
   14.2999    0.7500    0.0000 O   0  0
   11.6971   -0.7800    0.0000 C   0  0
    0.4338    0.2503    0.0000 H   0  0
    0.4340    1.2501    0.0000 H   0  0
    1.3000    1.7500    0.0000 H   0  0
    6.0659   -0.5001    0.0000 H   0  0
    5.2000   -1.0000    0.0000 H   0  0
    3.9000   -0.2500    0.0000 H   0  0
    4.7657    2.7513    0.0000 H   0  0
    3.0338    2.7505    0.0000 H   0  0
    3.8995    3.2507    0.0000 H   0  0
   11.6999    1.7500    0.0000 H   0  0
   13.8658   -0.5001    0.0000 H   0  0
   12.9999   -1.0000    0.0000 H   0  0
    9.9659    1.2501    0.0000 H   0  0
    9.0999    1.7500    0.0000 H   0  0
    7.7999    1.0000    0.0000 H   0  0
    6.9342   -2.0013    0.0000 H   0  0
    8.6661   -2.0005    0.0000 H   0  0
    7.8004   -2.5007    0.0000 H   0  0
   15.1661    0.2503    0.0000 H   0  0
   10.8304   -1.2789    0.0000 H   0  0
   11.6956   -1.7800    0.0000 H   0  0
   12.5623   -1.2813    0.0000 H   0  0
  1  2  1  0
  1  5  1  0
  3  4  1  0
  3 11  1  0
  4  5  1  0
  5  6  1  0
  7  8  1  0
  7  9  1  0
  7 14  1  0
  8 13  1  0
  9 10  1  0
 10 11  1  0
 11 12  1  0
  2 15  1  0
  2 16  1  0
  2 17  1  0
  4 18  1  0
  4 19  1  0
  5 20  1  0
  6 21  1  0
  6 22  1  0
  6 23  1  0
  7 24  1  0
  8 25  1  0
  8 26  1  0
 10 27  1  0
 10 28  1  0
 11 29  1  0
 12 30  1  0
 12 31  1  0
 12 32  1  0
 13 33  1  0
 14 34  1  0
 14 35  1  0
 14 36  1  0
V    1 0
V    2 1
V    3 2
V    4 3
V    5 4
V    6 5
V    7 6
V    8 7
V    9 8
V   10 9
V   11 10
V   12 11
V   13 12
V   14 13
M  END
> <DSSTox_RID>
60071

> <DSSTox_CID>
9329

> <DSSTox_CID_Parent>
9329

> <DSSTox_Generic_SID>
29329

> <DSSTox_FileID>
603_TXCST2_v1a

> <STRUCTURE_Formula>
C10H22O4

> <STRUCTURE_MolecularWeight>
206.2793

> <STRUCTURE_ChemicalType>
defined organic

> <STRUCTURE_TestedForm_DefinedOrganic>
parent

> <STRUCTURE_Shown>
representative component in mixture

> <TestSubstance_ChemicalName>
Tripropylene glycol monomethyl ether

> <TestSubstance_CASRN>
25498-49-1

> <TestSubstance_Description>
mixture or formulation

> <ChemicalNote>
mixture of tripropylene glycol methyl ethers; structure shown 2-[2-(2-methoxypropoxy)propoxy]propan-1-ol

> <Source_ChemicalNote>
tested chemical was a mixture of isomers

> <STRUCTURE_ChemicalName_IUPAC>
2-[2-(2-methoxypropoxy)propoxy]propan-1-ol

> <STRUCTURE_SMILES>
OCC(C)OCC(OCC(OC)C)C

> <STRUCTURE_Parent_SMILES>
OCC(C)OCC(OCC(OC)C)C

> <STRUCTURE_InChIS>
InChI=1S/C10H22O4/c1-8(5-11)13-7-10(3)14-6-9(2)12-4/h8-11H,5-7H2,1-4H3

> <STRUCTURE_InChIKey>
WAEVWDZKMBQDEJ-UHFFFAOYSA-N

> <Substance_modify_yyyymmdd>
20080429

> <Coord_Metals>
0

> <Index>
603

> <Canonical_Smiles>
COC(C)COC(C)COC(C)CO

> <Molecular_Weight>
206.27927

> <Frequency>
1

$$$$

  SciTegic          2D

 13 12  0  0  0  0            999 V2000
    3.9000    0.7500    0.0000 C   0  0
    2.6000    0.0000    0.0000 C   0  0
    1.3000    0.7500    0.0000 C   0  0
    3.9000    1.9500    0.0000 O   0  0
    5.2000    0.0000    0.0000 N   0  0
    2.5969   -1.5008    0.0000 C   0  0
    0.4338    0.2503    0.0000 H   0  0
    1.3000    1.7500    0.0000 H   0  0
    6.0661    0.4997    0.0000 H   0  0
    5.2000   -1.0000    0.0000 H   0  0
    1.7302   -1.9996    0.0000 H   0  0
    3.4620   -2.0023    0.0000 H   0  0
    2.5953   -2.5008    0.0000 H   0  0
  1  2  1  0
  1  5  1  0
  1  4  2  0
  2  3  2  0
  2  6  1  0
  3  7  1  0
  3  8  1  0
  5  9  1  0
  5 10  1  0
  6 11  1  0
  6 12  1  0
  6 13  1  0
V    1 0
V    2 1
V    3 2
V    4 3
V    5 4
V    6 5
M  END
> <DSSTox_RID>
61165

> <DSSTox_CID>
9600

> <DSSTox_CID_Parent>
9600

> <DSSTox_Generic_SID>
29600

> <DSSTox_FileID>
604_TXCST2_v1a

> <STRUCTURE_Formula>
C4H7NO

> <STRUCTURE_MolecularWeight>
85.1045

> <STRUCTURE_ChemicalType>
defined organic

> <STRUCTURE_TestedForm_DefinedOrganic>
parent

> <STRUCTURE_Shown>
tested chemical

> <TestSubstance_ChemicalName>
Methacrylamide

> <TestSubstance_CASRN>
79-39-0

> <TestSubstance_Description>
single chemical compound

> <STRUCTURE_ChemicalName_IUPAC>
methacrylamide

> <STRUCTURE_SMILES>
O=C(N)C(C)=C

> <STRUCTURE_Parent_SMILES>
O=C(N)C(C)=C

> <STRUCTURE_InChIS>
InChI=1S/C4H7NO/c1-3(2)4(5)6/h1H2,2H3,(H2,5,6)

> <STRUCTURE_InChIKey>
FQPSGWSUVKBHSU-UHFFFAOYSA-N

> <Substance_modify_yyyymmdd>
20080429

> <Coord_Metals>
0

> <Index>
604

> <Canonical_Smiles>
CC(=C)C(=O)N

> <Molecular_Weight>
85.10448

> <Frequency>
1

$$$$

  SciTegic          2D

 42 45  0  0  0  0            999 V2000
    2.5988   -1.5004    0.0000 C   0  0
    3.8990   -0.7508    0.0000 C   0  0
    1.2990   -0.7500    0.0000 N   0  0
    2.5983   -3.0012    0.0000 C   0  0
    2.5993    0.0003    0.0000 C   0  0
    3.9000    0.7492    0.0000 C   0  0
    5.1976   -1.5016    0.0000 C   0  0
   -0.0523   -1.3711    0.0000 C   0  0
    1.1613    0.7308    0.0000 C   0  0
    1.2990   -3.7508    0.0000 C   0  0
    3.8971   -3.7516    0.0000 C   0  0
    3.8985    0.7499    0.0000 C   0  0
    1.3005    0.7508    0.0000 C   0  0
    5.1995    1.4984    0.0000 C   0  0
    6.4971   -0.7525    0.0000 C   0  0
   -1.0560   -0.2564    0.0000 C   0  0
   -0.3060    1.0427    0.0000 N   0  0
    1.2986   -5.2508    0.0000 C   0  0
    3.8967   -5.2516    0.0000 C   0  0
    3.8990    2.2499    0.0000 C   0  0
    1.3009    2.2508    0.0000 C   0  0
    6.4980    0.7475    0.0000 C   0  0
    2.5974   -6.0012    0.0000 C   0  0
    2.6002    3.0003    0.0000 C   0  0
    4.9376    0.1496    0.0000 Cl  0  0
    3.0343    1.2497    0.0000 H   0  0
    5.1970   -2.5016    0.0000 H   0  0
   -0.2543   -2.3505    0.0000 H   0  0
    1.9084    1.3955    0.0000 H   0  0
    0.4332   -3.2505    0.0000 H   0  0
    4.7633   -3.2518    0.0000 H   0  0
    0.4343    0.2510    0.0000 H   0  0
    5.2001    2.4984    0.0000 H   0  0
    7.3628   -1.2530    0.0000 H   0  0
   -2.0505   -0.3609    0.0000 H   0  0
    0.4324   -5.7505    0.0000 H   0  0
    4.7625   -5.7518    0.0000 H   0  0
    4.7652    2.7497    0.0000 H   0  0
    0.4351    2.7510    0.0000 H   0  0
    7.3644    1.2470    0.0000 H   0  0
    2.5971   -7.0012    0.0000 H   0  0
    2.6005    4.0003    0.0000 H   0  0
  1  2  1  0
  1  3  1  0
  1  4  1  0
  1  5  1  0
  2  6  2  0
  2  7  1  0
  3  8  1  0
  3  9  1  0
  4 10  2  0
  4 11  1  0
  5 12  2  0
  5 13  1  0
  6 14  1  0
  7 15  2  0
  8 16  2  0
  9 17  2  0
 10 18  1  0
 11 19  2  0
 12 20  1  0
 12 25  1  0
 13 21  2  0
 14 22  2  0
 15 22  1  0
 16 17  1  0
 18 23  2  0
 19 23  1  0
 20 24  2  0
 21 24  1  0
  6 26  1  0
  7 27  1  0
  8 28  1  0
  9 29  1  0
 10 30  1  0
 11 31  1  0
 13 32  1  0
 14 33  1  0
 15 34  1  0
 16 35  1  0
 18 36  1  0
 19 37  1  0
 20 38  1  0
 21 39  1  0
 22 40  1  0
 23 41  1  0
 24 42  1  0
V    1 0
V    2 1
V    3 2
V    4 3
V    5 4
V    6 5
V    7 6
V    8 7
V    9 8
V   10 9
V   11 10
V   12 11
V   13 12
V   14 13
V   15 14
V   16 15
V   17 16
V   18 17
V   19 18
V   20 19
V   21 20
V   22 21
V   23 22
V   24 23
V   25 24
M  END
> <DSSTox_RID>
60940

> <DSSTox_CID>
9871

> <DSSTox_CID_Parent>
9871

> <DSSTox_Generic_SID>
29871

> <DSSTox_FileID>
605_TXCST2_v1a

> <STRUCTURE_Formula>
C22H17ClN2

> <STRUCTURE_MolecularWeight>
344.8368

> <STRUCTURE_ChemicalType>
defined organic

> <STRUCTURE_TestedForm_DefinedOrganic>
parent

> <STRUCTURE_Shown>
tested chemical

> <TestSubstance_ChemicalName>
Clotrimazole

> <TestSubstance_CASRN>
23593-75-1

> <TestSubstance_Description>
single chemical compound

> <STRUCTURE_ChemicalName_IUPAC>
1-[(2-chlorophenyl)(diphenyl)methyl]-1H-imidazole

> <STRUCTURE_SMILES>
ClC4=C(C=CC=C4)C(N2C=CN=C2)(C3=CC=CC=C3)C1=CC=CC=C1

> <STRUCTURE_Parent_SMILES>
ClC4=C(C=CC=C4)C(N2C=CN=C2)(C3=CC=CC=C3)C1=CC=CC=C1

> <STRUCTURE_InChIS>
InChI=1S/C22H17ClN2/c23-21-14-8-7-13-20(21)22(25-16-15-24-17-25,18-9-3-1-4-10-18)19-11-5-2-6-12-19/h1-17H

> <STRUCTURE_InChIKey>
VNFPBHJOKIVQEB-UHFFFAOYSA-N

> <Substance_modify_yyyymmdd>
20080429

> <Coord_Metals>
0

> <Index>
605

> <Canonical_Smiles>
Clc1ccccc1C(c2ccccc2)(c3ccccc3)n4ccnc4

> <Molecular_Weight>
344.83678

> <Frequency>
1

$$$$

  SciTegic          2D

 46 47  0  0  0  0            999 V2000
    3.8788   -9.7587    0.0000 C   0  0
    3.8809   -8.2579    0.0000 C   0  0
    2.5973   -1.5031    0.0000 C   0  0
    2.5826   -7.5048    0.0000 O   0  0
    5.1770  -10.5117    0.0000 O   0  0
    1.2990   -0.7500    0.0000 C   0  0
    2.5951   -3.0039    0.0000 C   0  0
    3.0119  -10.2572    0.0000 O   0  0
    3.6375   -0.9049    0.0000 O   0  0
    1.2935   -3.7495    0.0000 C   0  0
    1.2990    0.7500    0.0000 C   0  0
    3.8915   -3.7585    0.0000 C   0  0
    0.0000   -1.5000    0.0000 C   0  0
    2.5847   -6.0040    0.0000 C   0  0
   -1.2990    0.7500    0.0000 C   0  0
    1.2883   -5.2495    0.0000 C   0  0
    3.8864   -5.2585    0.0000 C   0  0
    0.0000    1.5000    0.0000 C   0  0
   -1.2990   -0.7500    0.0000 C   0  0
   -2.3383    1.3500    0.0000 Cl  0  0
    2.5531   -9.0181    0.0000 C   0  0
    5.1818   -7.5097    0.0000 C   0  0
    5.1749  -12.0126    0.0000 C   0  0
    6.4731  -12.7656    0.0000 C   0  0
    6.4998  -11.2474    0.0000 C   0  0
    0.4292   -3.2465    0.0000 H   0  0
    2.1651    1.2500    0.0000 H   0  0
    4.7593   -3.2615    0.0000 H   0  0
    0.0000   -2.5000    0.0000 H   0  0
    0.4205   -5.7465    0.0000 H   0  0
    4.7506   -5.7615    0.0000 H   0  0
    0.0000    2.5000    0.0000 H   0  0
   -2.1651   -1.2500    0.0000 H   0  0
    1.6886   -8.5155    0.0000 H   0  0
    2.5499  -10.0181    0.0000 H   0  0
    1.6856   -9.5154    0.0000 H   0  0
    5.1842   -6.5097    0.0000 H   0  0
    6.0468   -8.0115    0.0000 H   0  0
    6.0489   -7.0116    0.0000 H   0  0
    4.3080  -12.5111    0.0000 H   0  0
    6.4717  -13.7656    0.0000 H   0  0
    7.3384  -13.2670    0.0000 H   0  0
    7.3400  -12.2671    0.0000 H   0  0
    6.5002  -10.2474    0.0000 H   0  0
    7.3659  -10.7476    0.0000 H   0  0
    7.3657  -11.7475    0.0000 H   0  0
  1  2  1  0
  1  5  1  0
  1  8  2  0
  2  4  1  0
  2 21  1  0
  2 22  1  0
  3  7  1  0
  3  6  1  0
  3  9  2  0
  4 14  1  0
  5 23  1  0
  6 11  2  0
  6 13  1  0
  7 12  1  0
  7 10  2  0
 10 16  1  0
 11 18  1  0
 12 17  2  0
 13 19  2  0
 14 16  2  0
 14 17  1  0
 15 19  1  0
 15 20  1  0
 15 18  2  0
 23 24  1  0
 23 25  1  0
 10 26  1  0
 11 27  1  0
 12 28  1  0
 13 29  1  0
 16 30  1  0
 17 31  1  0
 18 32  1  0
 19 33  1  0
 21 34  1  0
 21 35  1  0
 21 36  1  0
 22 37  1  0
 22 38  1  0
 22 39  1  0
 23 40  1  0
 24 41  1  0
 24 42  1  0
 24 43  1  0
 25 44  1  0
 25 45  1  0
 25 46  1  0
V    1 0
V    2 1
V    3 2
V    4 3
V    5 4
V    6 5
V    7 6
V    8 7
V    9 8
V   10 9
V   11 10
V   12 11
V   13 12
V   14 13
V   15 14
V   16 15
V   17 16
V   18 17
V   19 18
V   20 19
V   21 20
V   22 21
V   23 22
V   24 23
V   25 24
M  END
> <DSSTox_RID>
60852

> <DSSTox_CID>
9874

> <DSSTox_CID_Parent>
9874

> <DSSTox_Generic_SID>
29874

> <DSSTox_FileID>
606_TXCST2_v1a

> <STRUCTURE_Formula>
C20H21ClO4

> <STRUCTURE_MolecularWeight>
360.8313

> <STRUCTURE_ChemicalType>
defined organic

> <STRUCTURE_TestedForm_DefinedOrganic>
parent

> <STRUCTURE_Shown>
tested chemical

> <TestSubstance_ChemicalName>
Fenofibrate

> <TestSubstance_CASRN>
49562-28-9

> <TestSubstance_Description>
single chemical compound

> <STRUCTURE_ChemicalName_IUPAC>
isopropyl 2-[4-(4-chlorobenzoyl)phenoxy]-2-methylpropanoate

> <STRUCTURE_SMILES>
O=C(OC(C)C)C(C)(C)OC2=CC=C(C=C2)C(C1=CC=C(Cl)C=C1)=O

> <STRUCTURE_Parent_SMILES>
O=C(OC(C)C)C(C)(C)OC2=CC=C(C=C2)C(C1=CC=C(Cl)C=C1)=O

> <STRUCTURE_InChIS>
InChI=1S/C20H21ClO4/c1-13(2)24-19(23)20(3,4)25-17-11-7-15(8-12-17)18(22)14-5-9-16(21)10-6-14/h5-13H,1-4H3

> <STRUCTURE_InChIKey>
YMTINGFKWWXKFG-UHFFFAOYSA-N

> <Substance_modify_yyyymmdd>
20080429

> <Coord_Metals>
0

> <Index>
606

> <Canonical_Smiles>
CC(C)OC(=O)C(C)(C)Oc1ccc(cc1)C(=O)c2ccc(Cl)cc2

> <Molecular_Weight>
360.83134

> <Frequency>
1

$$$$

  SciTegic          2D

 64 68  0  0  0  0            999 V2000
    3.2888   -2.0842    0.0000 C   0  0
    2.3259   -0.9324    0.0000 C   0  0
    4.3034   -3.1389    0.0000 O   0  0
    5.0827  -13.7404    0.0000 N   0  0
    3.8859   -0.7481    0.0000 O   0  0
    4.8777  -10.7473    0.0000 N   0  0
    2.8390    0.4771    0.0000 C   0  0
    1.9861   -4.3343    0.0000 N   0  0
    1.0891   -6.5671    0.0000 N   0  0
    4.6699  -15.1833    0.0000 C   0  0
    3.2865   -3.5850    0.0000 C   0  0
    0.8487   -1.1929    0.0000 C   0  0
    2.3619   -5.7733    0.0000 C   0  0
    1.8748    1.6262    0.0000 C   0  0
    4.7728   -9.2502    0.0000 C   0  0
    5.6290   -2.4369    0.0000 C   0  0
   -0.0591   -5.6019    0.0000 C   0  0
    3.7355  -13.0809    0.0000 C   0  0
    6.3275  -12.9034    0.0000 C   0  0
    6.2250  -11.4069    0.0000 C   0  0
    3.6330  -11.5844    0.0000 C   0  0
    0.5040   -4.2116    0.0000 C   0  0
    3.5056  -15.4740    0.0000 O   0  0
    5.3710   -0.9593    0.0000 C   0  0
    6.0163   -8.4112    0.0000 C   0  0
    3.4245   -8.5929    0.0000 C   0  0
    0.3976    1.3657    0.0000 C   0  0
    4.0207    0.6855    0.0000 Cl  0  0
    4.4612   -4.7601    0.0000 O   0  0
   -0.1155   -0.0439    0.0000 C   0  0
    4.5631   -6.2575    0.0000 C   0  0
    5.7065   -3.9224    0.0000 C   0  0
    3.3197   -7.0965    0.0000 C   0  0
    5.9114   -6.9149    0.0000 C   0  0
   -0.3738    2.2849    0.0000 Cl  0  0
    5.7124  -16.2630    0.0000 C   0  0
    3.2855   -4.5850    0.0000 H   0  0
    4.1520   -4.0861    0.0000 H   0  0
    0.5067   -2.1326    0.0000 H   0  0
    3.2910   -6.1432    0.0000 H   0  0
    2.2168    2.5659    0.0000 H   0  0
    6.4500   -1.8660    0.0000 H   0  0
   -1.0296   -5.8430    0.0000 H   0  0
    2.8479  -12.6202    0.0000 H   0  0
    3.8272  -14.0767    0.0000 H   0  0
    7.1439  -12.3260    0.0000 H   0  0
    6.3723  -13.9024    0.0000 H   0  0
    5.3822  -11.9451    0.0000 H   0  0
    6.1333  -10.4111    0.0000 H   0  0
    4.5413  -12.0027    0.0000 H   0  0
    3.5881  -10.5854    0.0000 H   0  0
   -0.0201   -3.3599    0.0000 H   0  0
    6.3371   -1.2173    0.0000 H   0  0
    5.0827   -0.0017    0.0000 H   0  0
    6.9151   -8.8495    0.0000 H   0  0
    2.5956   -9.1522    0.0000 H   0  0
   -1.1003   -0.2175    0.0000 H   0  0
    5.7749   -4.9201    0.0000 H   0  0
    6.6046   -4.3622    0.0000 H   0  0
    2.4208   -6.6583    0.0000 H   0  0
    6.7404   -6.3556    0.0000 H   0  0
    5.4374  -17.2244    0.0000 H   0  0
    6.4074  -16.9820    0.0000 H   0  0
    6.6827  -16.0208    0.0000 H   0  0
  1  2  1  0
  1  3  1  0
  1  5  1  0
  1 11  1  0
  2  7  1  0
  2 12  2  0
  3 16  1  0
  4 18  1  0
  4 10  1  0
  4 19  1  0
  5 24  1  0
  6 15  1  0
  6 20  1  0
  6 21  1  0
  7 14  2  0
  7 28  1  0
  8 11  1  0
  8 13  1  0
  8 22  1  0
  9 13  2  0
  9 17  1  0
 10 23  2  0
 10 36  1  0
 12 30  1  0
 14 27  1  0
 15 25  1  0
 15 26  2  0
 16 32  1  0
 16 24  1  0
 17 22  2  0
 18 21  1  0
 19 20  1  0
 25 34  2  0
 26 33  1  0
 27 30  2  0
 27 35  1  0
 29 32  1  0
 29 31  1  0
 31 33  2  0
 31 34  1  0
 11 37  1  0
 11 38  1  0
 12 39  1  0
 13 40  1  0
 14 41  1  0
 16 42  1  0
 17 43  1  0
 18 44  1  0
 18 45  1  0
 19 46  1  0
 19 47  1  0
 20 48  1  0
 20 49  1  0
 21 50  1  0
 21 51  1  0
 22 52  1  0
 24 53  1  0
 24 54  1  0
 25 55  1  0
 26 56  1  0
 30 57  1  0
 32 58  1  0
 32 59  1  0
 33 60  1  0
 34 61  1  0
 36 62  1  0
 36 63  1  0
 36 64  1  0
V    1 0
V    2 1
V    3 2
V    4 3
V    5 4
V    6 5
V    7 6
V    8 7
V    9 8
V   10 9
V   11 10
V   12 11
V   13 12
V   14 13
V   15 14
V   16 15
V   17 16
V   18 17
V   19 18
V   20 19
V   21 20
V   22 21
V   23 22
V   24 23
V   25 24
V   26 25
V   27 26
V   28 27
V   29 28
V   30 29
V   31 30
V   32 31
V   33 32
V   34 33
V   35 34
V   36 35
M  END
> <DSSTox_RID>
61717

> <DSSTox_CID>
9879

> <DSSTox_CID_Parent>
9879

> <DSSTox_Generic_SID>
29879

> <DSSTox_FileID>
607_TXCST2_v1a

> <STRUCTURE_Formula>
C26H28Cl2N4O4

> <STRUCTURE_MolecularWeight>
531.4309

> <STRUCTURE_ChemicalType>
defined organic

> <STRUCTURE_TestedForm_DefinedOrganic>
parent

> <STRUCTURE_Shown>
tested chemical

> <TestSubstance_ChemicalName>
Ketoconazole

> <TestSubstance_CASRN>
65277-42-1

> <TestSubstance_Description>
single chemical compound

> <ChemicalNote>
stereochem

> <STRUCTURE_ChemicalName_IUPAC>
1-acetyl-4-(4-{[(2R,4S)-2-(2,4-dichlorophenyl)-2-(1H-imidazol-1-ylmethyl)-1,3-dioxolan-4-yl]methoxy}phenyl)piperazine

> <STRUCTURE_SMILES>
O=C(C)N(CC4)CCN4C(C=C5)=CC=C5OC[C@]2([H])O[C@@](OC2)(CN3C=NC=C3)[C@@]1=CC=C(Cl)C=C1Cl

> <STRUCTURE_Parent_SMILES>
O=C(C)N(CC4)CCN4C(C=C5)=CC=C5OC[C@]2([H])O[C@@](OC2)(CN3C=NC=C3)[C@@]1=CC=C(Cl)C=C1Cl

> <STRUCTURE_InChIS>
InChI=1S/C26H28Cl2N4O4/c1-19(33)31-10-12-32(13-11-31)21-3-5-22(6-4-21)34-15-23-16-35-26(36-23,17-30-9-8-29-18-30)24-7-2-20(27)14-25(24)28/h2-9,14,18,23H,10-13,15-17H2,1H3/t23-,26-/m0/s1

> <STRUCTURE_InChIKey>
XMAYWYJOQHXEEK-OZXSUGGESA-N

> <Substance_modify_yyyymmdd>
20080429

> <Coord_Metals>
0

> <Index>
607

> <Canonical_Smiles>
CC(=O)N1CCN(CC1)c2ccc(OCC3COC(Cn4ccnc4)(O3)c5ccc(Cl)cc5Cl)cc2

> <Molecular_Weight>
531.43091

> <Frequency>
1

$$$$

  SciTegic          2D

 33 32  0  0  0  0            999 V2000
   12.9999    0.0000    0.0000 C   0  0
   11.6999    0.7500    0.0000 C   0  0
   10.3999    0.0000    0.0000 C   0  0
    9.0999    0.7500    0.0000 C   0  0
    7.7999    0.0000    0.0000 C   0  0
    6.5000    0.7500    0.0000 C   0  0
    5.2000    0.0000    0.0000 C   0  0
    3.9000    0.7500    0.0000 C   0  0
    2.6000    0.0000    0.0000 C   0  0
    1.3000    0.7500    0.0000 C   0  0
   14.2999    0.7500    0.0000 O   0  0
   10.3999   -1.2000    0.0000 F   0  0
    9.3608   -0.6002    0.0000 F   0  0
    9.0999    1.9500    0.0000 F   0  0
    8.0608    1.3502    0.0000 F   0  0
    7.7999   -1.2000    0.0000 F   0  0
    6.7608   -0.6002    0.0000 F   0  0
    6.5000    1.9500    0.0000 F   0  0
    5.4608    1.3502    0.0000 F   0  0
    5.2000   -1.2000    0.0000 F   0  0
    4.1608   -0.6002    0.0000 F   0  0
    3.9000    1.9500    0.0000 F   0  0
    2.8608    1.3502    0.0000 F   0  0
    2.6000   -1.2000    0.0000 F   0  0
    1.5608   -0.6002    0.0000 F   0  0
    0.2606    0.1503    0.0000 F   0  0
    1.3000    1.9500    0.0000 F   0  0
    0.2609    1.3502    0.0000 F   0  0
   12.9999   -1.0000    0.0000 H   0  0
   13.8658   -0.5001    0.0000 H   0  0
   11.6999    1.7500    0.0000 H   0  0
   10.8340    1.2501    0.0000 H   0  0
   15.1661    0.2503    0.0000 H   0  0
  1  2  1  0
  1 11  1  0
  2  3  1  0
  3  4  1  0
  3 12  1  0
  3 13  1  0
  4  5  1  0
  4 14  1  0
  4 15  1  0
  5  6  1  0
  5 16  1  0
  5 17  1  0
  6  7  1  0
  6 18  1  0
  6 19  1  0
  7  8  1  0
  7 20  1  0
  7 21  1  0
  8  9  1  0
  8 22  1  0
  8 23  1  0
  9 10  1  0
  9 24  1  0
  9 25  1  0
 10 26  1  0
 10 27  1  0
 10 28  1  0
  1 29  1  0
  1 30  1  0
  2 31  1  0
  2 32  1  0
 11 33  1  0
V    1 0
V    2 1
V    3 2
V    4 3
V    5 4
V    6 5
V    7 6
V    8 7
V    9 8
V   10 9
V   11 10
V   12 11
V   13 12
V   14 13
V   15 14
V   16 15
V   17 16
V   18 17
V   19 18
V   20 19
V   21 20
V   22 21
V   23 22
V   24 23
V   25 24
V   26 25
V   27 26
V   28 27
M  END
> <DSSTox_RID>
65496

> <DSSTox_CID>
9904

> <DSSTox_CID_Parent>
9904

> <DSSTox_Generic_SID>
29904

> <DSSTox_FileID>
608_TXCST2_v1a

> <STRUCTURE_Formula>
C10H5F17O

> <STRUCTURE_MolecularWeight>
464.119

> <STRUCTURE_ChemicalType>
defined organic

> <STRUCTURE_TestedForm_DefinedOrganic>
parent

> <STRUCTURE_Shown>
tested chemical

> <TestSubstance_ChemicalName>
1,1,2,2-Tetrahydroperfluoro-1-decanol

> <TestSubstance_CASRN>
678-39-7

> <TestSubstance_Description>
single chemical compound

> <STRUCTURE_ChemicalName_IUPAC>
3,3,4,4,5,5,6,6,7,7,8,8,9,9,10,10,10-heptadecafluorodecan-1-ol

> <STRUCTURE_SMILES>
OCCC(F)(F)C(F)(F)C(F)(F)C(F)(F)C(F)(F)C(F)(F)C(F)(F)C(F)(F)F

> <STRUCTURE_Parent_SMILES>
OCCC(F)(F)C(F)(F)C(F)(F)C(F)(F)C(F)(F)C(F)(F)C(F)(F)C(F)(F)F

> <STRUCTURE_InChIS>
InChI=1S/C10H5F17O/c11-3(12,1-2-28)4(13,14)5(15,16)6(17,18)7(19,20)8(21,22)9(23,24)10(25,26)27/h28H,1-2H2

> <STRUCTURE_InChIKey>
JJUBFBTUBACDHW-UHFFFAOYSA-N

> <Substance_modify_yyyymmdd>
20080429

> <Coord_Metals>
0

> <Index>
608

> <Canonical_Smiles>
OCCC(F)(F)C(F)(F)C(F)(F)C(F)(F)C(F)(F)C(F)(F)C(F)(F)C(F)(F)F

> <Molecular_Weight>
464.11895

> <Frequency>
1

$$$$

  SciTegic          2D

126132  0  0  0  0            999 V2000
   -3.9900   -3.8500    0.0000 C   0  0
   -2.6500   -3.0700    0.0000 O   0  0
   -3.9900   -5.3800    0.0000 C   0  0
   -1.3300   -3.8500    0.0000 C   0  0
   -2.6500   -6.1500    0.0000 C   0  0
   -1.3300   -5.3800    0.0000 C   0  0
   -5.3300   -3.0700    0.0000 O   0  0
   -5.3300   -1.5300    0.0000 C   0  0
   -2.7256    0.0102    0.0000 C   0  0
   -3.9900   -0.7600    0.0000 C   0  0
   -6.6700   -0.7600    0.0000 C   0  0
   -6.6700    0.7600    0.0000 C   0  0
   -3.9900    0.7600    0.0000 O   0  0
   -5.3300    1.5300    0.0000 C   0  0
   -1.3596   -2.3702    0.0000 C   0  0
   -1.3910   -0.6763    0.0000 O   0  0
   -0.0953   -1.5615    0.0000 O   0  0
   -3.9522    6.8600    0.0000 C   0  0
   -2.6520    7.6097    0.0000 O   0  0
   -3.9900    5.3800    0.0000 C   0  0
   -5.3300    3.0700    0.0000 O   0  0
   -3.9900    3.8400    0.0000 C   0  0
    1.3200   -3.8500    0.0000 O   0  0
    0.0000   -6.1500    0.0000 O   0  0
    1.3200   -5.3800    0.0000 C   0  0
    2.6600   -3.0700    0.0000 C   0  0
    3.9900   -3.8500    0.0000 C   0  0
    2.6600   -6.1500    0.0000 C   0  0
    3.9900   -5.3800    0.0000 C   0  0
    0.0599   -3.1065    0.0000 O   0  0
    1.3612   -2.3587    0.0000 C   0  0
    5.2599    6.1043    0.0000 O   0  0
    2.7234   -1.5110    0.0000 O   0  0
   -2.6500    6.1500    0.0000 O   0  0
    3.9611    6.8563    0.0000 C   0  0
   -1.3300    5.3800    0.0000 C   0  0
   -2.6500    3.0700    0.0000 C   0  0
   -1.3300    3.8400    0.0000 C   0  0
    2.6600    6.1500    0.0000 C   0  0
    0.0000    6.1500    0.0000 O   0  0
    1.3200    5.3800    0.0000 C   0  0
    3.9900    5.3800    0.0000 O   0  0
    2.7256   -0.0102    0.0000 C   0  0
    3.9900    0.7600    0.0000 C   0  0
    3.9900   -0.7600    0.0000 O   0  0
    5.3300   -1.5300    0.0000 C   0  0
    5.3300   -3.0700    0.0000 O   0  0
    5.3300    1.5300    0.0000 C   0  0
    6.6700   -0.7600    0.0000 C   0  0
    6.6700    0.7600    0.0000 C   0  0
    3.9900    3.8400    0.0000 C   0  0
    5.3300    3.0700    0.0000 O   0  0
    1.3200    3.8400    0.0000 C   0  0
    2.6600    3.0700    0.0000 C   0  0
   -3.9522   -6.8600    0.0000 O   0  0
   -7.9344    0.0102    0.0000 O   0  0
   -7.9344   -0.0102    0.0000 O   0  0
   -3.9476   -6.8628    0.0000 O   0  0
   -1.3478    2.3656    0.0000 O   0  0
   -1.3634    2.3601    0.0000 O   0  0
    1.3578    2.3600    0.0000 O   0  0
    1.3612    2.3595    0.0000 O   0  0
    7.9344   -0.0102    0.0000 O   0  0
    7.9344    0.0102    0.0000 O   0  0
    3.9544   -6.8600    0.0000 O   0  0
    3.9611   -6.8563    0.0000 O   0  0
   -3.9900   -2.8500    0.0000 H   0  0
   -4.8441   -4.8599    0.0000 H   0  0
   -0.4794   -4.3757    0.0000 H   0  0
   -1.7705   -6.6259    0.0000 H   0  0
   -0.4637   -4.8805    0.0000 H   0  0
   -6.1955   -2.0309    0.0000 H   0  0
   -2.7738    1.0090    0.0000 H   0  0
   -1.8847    0.5514    0.0000 H   0  0
   -4.0154   -1.7597    0.0000 H   0  0
   -6.6446   -1.7597    0.0000 H   0  0
   -6.6446    1.7597    0.0000 H   0  0
   -6.1955    2.0309    0.0000 H   0  0
   -1.4049   -1.3712    0.0000 H   0  0
   -2.2473   -1.9098    0.0000 H   0  0
   -0.5499   -0.1355    0.0000 H   0  0
   -0.1402   -0.5625    0.0000 H   0  0
   -4.8177    7.3608    0.0000 H   0  0
   -3.9514    7.8600    0.0000 H   0  0
   -2.6507    8.6097    0.0000 H   0  0
   -4.8441    4.8599    0.0000 H   0  0
   -4.8555    4.3409    0.0000 H   0  0
    0.4529   -4.8819    0.0000 H   0  0
    3.5386   -2.5924    0.0000 H   0  0
    3.9916   -2.8500    0.0000 H   0  0
    1.7827   -6.6300    0.0000 H   0  0
    4.8432   -4.8584    0.0000 H   0  0
   -0.8054   -2.6052    0.0000 H   0  0
    0.4962   -1.8571    0.0000 H   0  0
    1.3630   -1.3587    0.0000 H   0  0
    6.1269    6.6027    0.0000 H   0  0
    1.8570   -2.0103    0.0000 H   0  0
    3.9626    7.8563    0.0000 H   0  0
    4.8278    7.3551    0.0000 H   0  0
   -1.3284    6.3800    0.0000 H   0  0
   -3.5264    2.5884    0.0000 H   0  0
   -0.4778    4.3631    0.0000 H   0  0
    1.7827    6.6300    0.0000 H   0  0
    1.3233    6.3800    0.0000 H   0  0
    1.8601    0.4908    0.0000 H   0  0
    1.8589   -0.5091    0.0000 H   0  0
    4.0154    1.7597    0.0000 H   0  0
    4.4645   -2.0309    0.0000 H   0  0
    4.4645    2.0309    0.0000 H   0  0
    6.6446   -1.7597    0.0000 H   0  0
    6.6446    1.7597    0.0000 H   0  0
    4.8555    4.3409    0.0000 H   0  0
    0.4659    4.3601    0.0000 H   0  0
    3.5388    2.5928    0.0000 H   0  0
   -3.0858   -7.3595    0.0000 H   0  0
   -7.9358    1.0102    0.0000 H   0  0
   -7.9358   -1.0102    0.0000 H   0  0
   -4.8155   -6.3660    0.0000 H   0  0
   -0.4832    2.8681    0.0000 H   0  0
   -2.2281    1.8578    0.0000 H   0  0
    2.2242    1.8605    0.0000 H   0  0
    0.4942    2.8578    0.0000 H   0  0
    7.9358   -1.0102    0.0000 H   0  0
    7.9358    1.0102    0.0000 H   0  0
    3.0888   -7.3608    0.0000 H   0  0
    4.8265   -6.3552    0.0000 H   0  0
  1  3  1  0
  1  7  1  0
  1  2  1  0
  2  4  1  0
  3  5  1  0
  3 55  1  0
  4 15  1  0
  4  6  1  0
  5  6  1  0
  5 58  1  0
  6 24  1  0
  8  7  1  0
  8 11  1  0
  8 10  1  0
 10  9  1  0
  9 16  1  0
 10 13  1  0
 11 12  1  0
 11 56  1  0
 12 14  1  0
 12 57  1  0
 13 14  1  0
 14 21  1  0
 15 17  1  0
 20 18  1  0
 18 19  1  0
 20 34  1  0
 20 22  1  0
 22 21  1  0
 22 37  1  0
 23 25  1  0
 23 26  1  0
 25 24  1  0
 25 28  1  0
 26 31  1  0
 26 27  1  0
 27 29  1  0
 27 47  1  0
 28 29  1  0
 28 66  1  0
 29 65  1  0
 30 31  1  0
 32 35  1  0
 33 43  1  0
 34 36  1  0
 39 35  1  0
 36 38  1  0
 36 40  1  0
 37 38  1  0
 37 59  1  0
 38 60  1  0
 39 41  1  0
 39 42  1  0
 41 40  1  0
 41 53  1  0
 42 51  1  0
 44 43  1  0
 44 45  1  0
 44 48  1  0
 45 46  1  0
 46 47  1  0
 46 49  1  0
 48 50  1  0
 48 52  1  0
 49 50  1  0
 49 64  1  0
 50 63  1  0
 51 52  1  0
 51 54  1  0
 53 54  1  0
 53 61  1  0
 54 62  1  0
  1 67  1  0
  3 68  1  0
  4 69  1  0
  5 70  1  0
  6 71  1  0
  8 72  1  0
  9 73  1  0
  9 74  1  0
 10 75  1  0
 11 76  1  0
 12 77  1  0
 14 78  1  0
 15 79  1  0
 15 80  1  0
 16 81  1  0
 17 82  1  0
 18 83  1  0
 18 84  1  0
 19 85  1  0
 20 86  1  0
 22 87  1  0
 25 88  1  0
 26 89  1  0
 27 90  1  0
 28 91  1  0
 29 92  1  0
 30 93  1  0
 31 94  1  0
 31 95  1  0
 32 96  1  0
 33 97  1  0
 35 98  1  0
 35 99  1  0
 36100  1  0
 37101  1  0
 38102  1  0
 39103  1  0
 41104  1  0
 43105  1  0
 43106  1  0
 44107  1  0
 46108  1  0
 48109  1  0
 49110  1  0
 50111  1  0
 51112  1  0
 53113  1  0
 54114  1  0
 55115  1  0
 56116  1  0
 57117  1  0
 58118  1  0
 59119  1  0
 60120  1  0
 61121  1  0
 62122  1  0
 63123  1  0
 64124  1  0
 65125  1  0
 66126  1  0
V    1 0
V    2 1
V    3 2
V    4 3
V    5 4
V    6 5
V    7 6
V    8 7
V    9 8
V   10 9
V   11 10
V   12 11
V   13 12
V   14 13
V   15 14
V   16 15
V   17 16
V   18 17
V   19 18
V   20 19
V   21 20
V   22 21
V   23 22
V   24 23
V   25 24
V   26 25
V   27 26
V   28 27
V   29 28
V   30 29
V   31 30
V   32 31
V   33 32
V   34 33
V   35 34
V   36 35
V   37 36
V   38 37
V   39 38
V   40 39
V   41 40
V   42 41
V   43 42
V   44 43
V   45 44
V   46 45
V   47 46
V   48 47
V   49 48
V   50 49
V   51 50
V   52 51
V   53 52
V   54 53
V   55 54
V   56 55
V   57 56
V   58 57
V   59 58
V   60 59
V   61 60
V   62 61
V   63 62
V   64 63
V   65 64
V   66 65
M  END
> <DSSTox_RID>
65560

> <DSSTox_CID>
10698

> <DSSTox_CID_Parent>
10698

> <DSSTox_Generic_SID>
30698

> <DSSTox_FileID>
609_TXCST2_v1a

> <STRUCTURE_Formula>
C36H60O30

> <STRUCTURE_MolecularWeight>
972.8436

> <STRUCTURE_ChemicalType>
defined organic

> <STRUCTURE_TestedForm_DefinedOrganic>
parent

> <STRUCTURE_Shown>
tested chemical

> <TestSubstance_ChemicalName>
alpha-Cyclodextrin

> <TestSubstance_CASRN>
10016-20-3

> <TestSubstance_Description>
single chemical compound

> <ChemicalNote>
stereochem; 6 membered sugar ring molecule

> <Source_ChemicalNote>
tested chemical contained 7.34% water (4.28 moles H2O)

> <STRUCTURE_ChemicalName_IUPAC>
alpha-Cyclodextrin

> <STRUCTURE_SMILES>
OC[C@@H]2[C@H]([C@H](O)[C@@H](O)[C@@H](O[C@@H]4[C@H](O[C@H](O[C@@H]([C@H](O)[C@H]7O)[C@H](O[C@@H]7O[C@@H]6[C@H](O[C@@H]([C@H](O)[C@H]6O)O5)CO)CO)[C@H](O)[C@H]4O)CO)O2)O[C@@H]1[C@H](O)[C@@H](O)[C@H](O[
C@H]3O[C@@H]([C@@H]5[C@H](O)[C@H]3O)CO)[C@@H](CO)O1

> <STRUCTURE_Parent_SMILES>
OC[C@@H]2[C@H]([C@H](O)[C@@H](O)[C@@H](O[C@@H]4[C@H](O[C@H](O[C@@H]([C@H](O)[C@H]7O)[C@H](O[C@@H]7O[C@@H]6[C@H](O[C@@H]([C@H](O)[C@H]6O)O5)CO)CO)[C@H](O)[C@H]4O)CO)O2)O[C@@H]1[C@H](O)[C@@H](O)[C@H](O[
C@H]3O[C@@H]([C@@H]5[C@H](O)[C@H]3O)CO)[C@@H](CO)O1

> <STRUCTURE_InChIS>
InChI=1S/C36H60O30/c37-1-7-25-13(43)19(49)31(55-7)62-26-8(2-38)57-33(21(51)15(26)45)64-28-10(4-40)59-35(23(53)17(28)47)66-30-12(6-42)60-36(24(54)18(30)48)65-29-11(5-41)58-34(22(52)16(29)46)63-27-9(3-3
9)56-32(61-25)20(50)14(27)44/h7-54H,1-6H2/t7-,8-,9-,10-,11-,12-,13-,14-,15-,16-,17-,18-,19-,20-,21-,22-,23-,24-,25-,26-,27-,28-,29-,30-,31-,32-,33-,34-,35-,36-/m1/s1

> <STRUCTURE_InChIKey>
HFHDHCJBZVLPGP-RWMJIURBSA-N

> <Substance_modify_yyyymmdd>
20080429

> <Coord_Metals>
0

> <Index>
609

> <Canonical_Smiles>
OCC1OC2OC3C(O)C(O)C(OC3CO)OC4C(O)C(O)C(OC4CO)OC5C(O)C(O)C(OC5CO)OC6C(O)C(O)C(OC6CO)OC7C(O)C(O)C(OC7CO)OC1C(O)C2O

> <Molecular_Weight>
972.84359

> <Frequency>
1

$$$$

  SciTegic          2D

 48 48  0  0  0  0            999 V2000
    1.2990   -0.7500    0.0000 C   0  0
    1.2990    0.7500    0.0000 C   0  0
    2.5973   -1.5031    0.0000 C   0  0
    2.5972    1.5031    0.0000 C   0  0
    3.6375   -0.9049    0.0000 O   0  0
    3.6375    0.9049    0.0000 O   0  0
    2.5951   -3.0039    0.0000 O   0  0
    2.5951    3.0039    0.0000 O   0  0
    0.0000   -1.5000    0.0000 C   0  0
    0.0000    1.5000    0.0000 C   0  0
   -1.2990   -0.7500    0.0000 C   0  0
   -1.2990    0.7500    0.0000 C   0  0
    3.8933   -3.7570    0.0000 C   0  0
    3.8912   -5.2578    0.0000 C   0  0
    5.1894   -6.0109    0.0000 C   0  0
    5.1873   -7.5117    0.0000 C   0  0
    6.4855   -8.2648    0.0000 C   0  0
    3.8933    3.7570    0.0000 C   0  0
    3.8912    5.2578    0.0000 C   0  0
    5.1894    6.0109    0.0000 C   0  0
    5.1872    7.5118    0.0000 C   0  0
    6.4854    8.2649    0.0000 C   0  0
    0.0000   -2.5000    0.0000 H   0  0
    0.0000    2.5000    0.0000 H   0  0
   -2.1651   -1.2500    0.0000 H   0  0
   -2.1651    1.2500    0.0000 H   0  0
    3.8952   -2.7570    0.0000 H   0  0
    4.7602   -3.2585    0.0000 H   0  0
    3.0260   -4.7564    0.0000 H   0  0
    3.0243   -5.7563    0.0000 H   0  0
    5.1913   -5.0109    0.0000 H   0  0
    6.0563   -5.5124    0.0000 H   0  0
    4.3220   -7.0104    0.0000 H   0  0
    4.3204   -8.0102    0.0000 H   0  0
    6.4840   -9.2648    0.0000 H   0  0
    7.3507   -8.7662    0.0000 H   0  0
    7.3524   -7.7663    0.0000 H   0  0
    3.8952    2.7570    0.0000 H   0  0
    4.7602    3.2585    0.0000 H   0  0
    3.0259    4.7565    0.0000 H   0  0
    3.0243    5.7563    0.0000 H   0  0
    5.1913    5.0109    0.0000 H   0  0
    6.0563    5.5125    0.0000 H   0  0
    4.3220    7.0104    0.0000 H   0  0
    4.3203    8.0102    0.0000 H   0  0
    6.4840    9.2649    0.0000 H   0  0
    7.3506    8.7662    0.0000 H   0  0
    7.3523    7.7664    0.0000 H   0  0
  1  2  2  0
  1  3  1  0
  1  9  1  0
  2  4  1  0
  2 10  1  0
  3  5  2  0
  3  7  1  0
  4  6  2  0
  4  8  1  0
  7 13  1  0
  8 18  1  0
  9 11  2  0
 10 12  2  0
 11 12  1  0
 13 14  1  0
 14 15  1  0
 15 16  1  0
 16 17  1  0
 18 19  1  0
 19 20  1  0
 20 21  1  0
 21 22  1  0
  9 23  1  0
 10 24  1  0
 11 25  1  0
 12 26  1  0
 13 27  1  0
 13 28  1  0
 14 29  1  0
 14 30  1  0
 15 31  1  0
 15 32  1  0
 16 33  1  0
 16 34  1  0
 17 35  1  0
 17 36  1  0
 17 37  1  0
 18 38  1  0
 18 39  1  0
 19 40  1  0
 19 41  1  0
 20 42  1  0
 20 43  1  0
 21 44  1  0
 21 45  1  0
 22 46  1  0
 22 47  1  0
 22 48  1  0
V    1 0
V    2 1
V    3 2
V    4 3
V    5 4
V    6 5
V    7 6
V    8 7
V    9 8
V   10 9
V   11 10
V   12 11
V   13 12
V   14 13
V   15 14
V   16 15
V   17 16
V   18 17
V   19 18
V   20 19
V   21 20
V   22 21
M  END
> <DSSTox_RID>
65329

> <DSSTox_CID>
11131

> <DSSTox_CID_Parent>
11131

> <DSSTox_Generic_SID>
31131

> <DSSTox_FileID>
610_TXCST2_v1a

> <STRUCTURE_Formula>
C18H26O4

> <STRUCTURE_MolecularWeight>
306.3966

> <STRUCTURE_ChemicalType>
defined organic

> <STRUCTURE_TestedForm_DefinedOrganic>
parent

> <STRUCTURE_Shown>
tested chemical

> <TestSubstance_ChemicalName>
Dipentyl phthalate (Di-n-pentylphthalate)

> <TestSubstance_CASRN>
131-18-0

> <TestSubstance_Description>
single chemical compound

> <STRUCTURE_ChemicalName_IUPAC>
dipentyl phthalate

> <STRUCTURE_SMILES>
O=C(OCCCCC)C(C=CC=C1)=C1C(OCCCCC)=O

> <STRUCTURE_Parent_SMILES>
O=C(OCCCCC)C(C=CC=C1)=C1C(OCCCCC)=O

> <STRUCTURE_InChIS>
InChI=1S/C18H26O4/c1-3-5-9-13-21-17(19)15-11-7-8-12-16(15)18(20)22-14-10-6-4-2/h7-8,11-12H,3-6,9-10,13-14H2,1-2H3

> <STRUCTURE_InChIKey>
IPKKHRVROFYTEK-UHFFFAOYSA-N

> <Substance_modify_yyyymmdd>
20080429

> <Coord_Metals>
0

> <Index>
610

> <Canonical_Smiles>
CCCCCOC(=O)c1ccccc1C(=O)OCCCCC

> <Molecular_Weight>
306.39664

> <Frequency>
1

$$$$

  SciTegic          2D

 26 28  0  0  0  0            999 V2000
   -0.8205    0.0000    0.0000 C   0  0
   -0.8205   -1.5498    0.0000 N   0  3
   -2.1332    0.6928    0.0000 C   0  0
   -2.1332   -2.2973    0.0000 C   0  0
   -3.4277    0.0000    0.0000 C   0  0
   -3.4277   -1.5498    0.0000 C   0  0
    1.7503    0.0000    0.0000 N   0  3
    1.7503   -1.5498    0.0000 C   0  0
    0.4558    0.6928    0.0000 C   0  0
    0.4558   -2.2973    0.0000 C   0  0
    3.0631    2.1879    0.0000 C   0  0
    3.0631    0.6928    0.0000 C   0  0
    1.7503    2.9537    0.0000 C   0  0
    0.4558    2.1879    0.0000 C   0  0
   -2.1361    1.6928    0.0000 H   0  0
   -2.1362   -3.2973    0.0000 H   0  0
   -4.2856    0.5139    0.0000 H   0  0
   -4.2937   -2.0497    0.0000 H   0  0
    1.7267   -2.5495    0.0000 H   0  0
    2.6043   -1.0295    0.0000 H   0  0
    0.4356   -1.2975    0.0000 H   0  0
   -0.4231   -2.7743    0.0000 H   0  0
    3.9302    2.6860    0.0000 H   0  0
    3.9194    0.1765    0.0000 H   0  0
    1.7473    3.9537    0.0000 H   0  0
   -0.4128    2.6833    0.0000 H   0  0
  1  3  1  0
  1  9  1  0
  1  2  2  0
  2  4  1  0
  2 10  1  0
  3  5  2  0
  4  6  2  0
  5  6  1  0
  7  8  1  0
  7 12  1  0
  7  9  2  0
  8 10  1  0
  9 14  1  0
 11 12  2  0
 11 13  1  0
 13 14  2  0
  3 15  1  0
  4 16  1  0
  5 17  1  0
  6 18  1  0
  8 19  1  0
  8 20  1  0
 10 21  1  0
 10 22  1  0
 11 23  1  0
 12 24  1  0
 13 25  1  0
 14 26  1  0
M  CHG  2   2   1   7   1
V    1 0
V    2 1
V    3 2
V    4 3
V    5 4
V    6 5
V    7 6
V    8 7
V    9 8
V   10 9
V   11 10
V   12 11
V   13 12
V   14 13
M  END
> <DSSTox_RID>
67050

> <DSSTox_CID>
11248

> <DSSTox_Generic_SID>
31248

> <DSSTox_FileID>
611_TXCST2_v1a

> <STRUCTURE_Formula>
C12H14Br2N2O

> <STRUCTURE_MolecularWeight>
362.0604

> <STRUCTURE_ChemicalType>
defined organic

> <STRUCTURE_TestedForm_DefinedOrganic>
salt 2Br complex H2O

> <STRUCTURE_Shown>
tested chemical

> <TestSubstance_ChemicalName>
Diquat Dibromide monohydrate

> <TestSubstance_CASRN>
6385-62-2

> <TestSubstance_Description>
single chemical compound

> <ChemicalNote>
ammonium; parent [2764-72-9]

> <STRUCTURE_ChemicalName_IUPAC>
6,7-dihydrodipyrido[1,2-a:2',1'-c]pyrazinediium dibromide hydrate

> <STRUCTURE_SMILES>
C1(C3=[N+](C=CC=C3)CC2)=[N+]2C=CC=C1.[Br-].[Br-].O

> <STRUCTURE_Parent_SMILES>
C1(C3=[N+](C=CC=C3)CC2)=[N+]2C=CC=C1

> <STRUCTURE_InChIS>
InChI=1S/C12H12N2.2BrH.H2O/c1-3-7-13-9-10-14-8-4-2-6-12(14)11(13)5-1;;;/h1-8H,9-10H2;2*1H;1H2/q+2;;;/p-2

> <STRUCTURE_InChIKey>
KLJOSQAQZMLLMB-UHFFFAOYSA-L

> <Substance_modify_yyyymmdd>
20080429

> <Coord_Metals>
0

> <Index>
611

> <Canonical_Smiles>
C1C[n+]2ccccc2c3cccc[n+]13

> <Molecular_Weight>
184.23707

> <Frequency>
1

$$$$

  SciTegic          2D

 32 31  0  0  0  0            999 V2000
   12.9999    0.0000    0.0000 C   0  0
   11.6999    0.7500    0.0000 C   0  0
   10.3999    0.0000    0.0000 C   0  0
    9.0999    0.7500    0.0000 C   0  0
    7.7999    0.0000    0.0000 C   0  0
    6.5000    0.7500    0.0000 C   0  0
    5.2000    0.0000    0.0000 C   0  0
    3.9000    0.7500    0.0000 C   0  0
    2.6000    0.0000    0.0000 C   0  0
    1.3000    0.7500    0.0000 C   0  0
   12.9999   -1.2000    0.0000 O   0  0
   14.2999    0.7500    0.0000 O   0  0
   12.7390    1.3502    0.0000 F   0  0
   11.6999    1.9500    0.0000 F   0  0
    9.3608   -0.6002    0.0000 F   0  0
   10.3999   -1.2000    0.0000 F   0  0
    8.0608    1.3502    0.0000 F   0  0
    9.0999    1.9500    0.0000 F   0  0
    6.7608   -0.6002    0.0000 F   0  0
    7.7999   -1.2000    0.0000 F   0  0
    5.4608    1.3502    0.0000 F   0  0
    6.5000    1.9500    0.0000 F   0  0
    4.1608   -0.6002    0.0000 F   0  0
    5.2000   -1.2000    0.0000 F   0  0
    2.8608    1.3502    0.0000 F   0  0
    3.9000    1.9500    0.0000 F   0  0
    1.5608   -0.6002    0.0000 F   0  0
    2.6000   -1.2000    0.0000 F   0  0
    0.2606    0.1503    0.0000 F   0  0
    0.2609    1.3502    0.0000 F   0  0
    1.3000    1.9500    0.0000 F   0  0
   15.1661    0.2503    0.0000 H   0  0
  1  2  1  0
  1 12  1  0
  1 11  2  0
  2  3  1  0
  2 13  1  0
  2 14  1  0
  3  4  1  0
  3 15  1  0
  3 16  1  0
  4  5  1  0
  4 17  1  0
  4 18  1  0
  5  6  1  0
  5 19  1  0
  5 20  1  0
  6  7  1  0
  6 21  1  0
  6 22  1  0
  7  8  1  0
  7 23  1  0
  7 24  1  0
  8  9  1  0
  8 25  1  0
  8 26  1  0
  9 10  1  0
  9 27  1  0
  9 28  1  0
 10 29  1  0
 10 30  1  0
 10 31  1  0
 12 32  1  0
V    1 0
V    2 1
V    3 2
V    4 3
V    5 4
V    6 5
V    7 6
V    8 7
V    9 8
V   10 9
V   11 10
V   12 11
V   13 12
V   14 13
V   15 14
V   16 15
V   17 16
V   18 17
V   19 18
V   20 19
V   21 20
V   22 21
V   23 22
V   24 23
V   25 24
V   26 25
V   27 26
V   28 27
V   29 28
V   30 29
V   31 30
M  END
> <DSSTox_RID>
60914

> <DSSTox_CID>
11860

> <DSSTox_CID_Parent>
11860

> <DSSTox_Generic_SID>
31860

> <DSSTox_FileID>
612_TXCST2_v1a

> <STRUCTURE_Formula>
C10HF19O2

> <STRUCTURE_MolecularWeight>
514.0834

> <STRUCTURE_ChemicalType>
defined organic

> <STRUCTURE_TestedForm_DefinedOrganic>
parent

> <STRUCTURE_Shown>
tested chemical

> <TestSubstance_ChemicalName>
Perfluorodecanoic acid

> <TestSubstance_CASRN>
335-76-2

> <TestSubstance_Description>
single chemical compound

> <STRUCTURE_ChemicalName_IUPAC>
nonadecafluorodecanoic acid

> <STRUCTURE_SMILES>
O=C(O)C(F)(F)C(F)(F)C(F)(F)C(F)(F)C(F)(F)C(F)(F)C(F)(F)C(F)(F)C(F)(F)F

> <STRUCTURE_Parent_SMILES>
O=C(O)C(F)(F)C(F)(F)C(F)(F)C(F)(F)C(F)(F)C(F)(F)C(F)(F)C(F)(F)C(F)(F)F

> <STRUCTURE_InChIS>
InChI=1S/C10HF19O2/c11-2(12,1(30)31)3(13,14)4(15,16)5(17,18)6(19,20)7(21,22)8(23,24)9(25,26)10(27,28)29/h(H,30,31)

> <STRUCTURE_InChIKey>
PCIUEQPBYFRTEM-UHFFFAOYSA-N

> <Substance_modify_yyyymmdd>
20080429

> <Coord_Metals>
0

> <Index>
612

> <Canonical_Smiles>
OC(=O)C(F)(F)C(F)(F)C(F)(F)C(F)(F)C(F)(F)C(F)(F)C(F)(F)C(F)(F)C(F)(F)F

> <Molecular_Weight>
514.0834

> <Frequency>
1

$$$$

  SciTegic          2D

 20 19  0  0  0  0            999 V2000
    7.7999    0.0000    0.0000 C   0  0
    6.5000    0.7500    0.0000 C   0  0
    5.2000    0.0000    0.0000 C   0  0
    3.9000    0.7500    0.0000 C   0  0
    2.6000    0.0000    0.0000 C   0  0
    1.3000    0.7500    0.0000 C   0  0
    0.2606    0.1503    0.0000 F   0  0
    7.7999   -1.2000    0.0000 O   0  0
    9.0999    0.7500    0.0000 O   0  0
    7.5391    1.3502    0.0000 F   0  0
    6.5000    1.9500    0.0000 F   0  0
    4.1608   -0.6002    0.0000 F   0  0
    5.2000   -1.2000    0.0000 F   0  0
    2.8608    1.3502    0.0000 F   0  0
    3.9000    1.9500    0.0000 F   0  0
    1.5608   -0.6002    0.0000 F   0  0
    2.6000   -1.2000    0.0000 F   0  0
    0.2609    1.3502    0.0000 F   0  0
    1.3000    1.9500    0.0000 F   0  0
    9.9661    0.2503    0.0000 H   0  0
  1  2  1  0
  1  9  1  0
  1  8  2  0
  2  3  1  0
  2 10  1  0
  2 11  1  0
  3  4  1  0
  3 12  1  0
  3 13  1  0
  4  5  1  0
  4 14  1  0
  4 15  1  0
  5  6  1  0
  5 16  1  0
  5 17  1  0
  6  7  1  0
  6 18  1  0
  6 19  1  0
  9 20  1  0
V    1 0
V    2 1
V    3 2
V    4 3
V    5 4
V    6 5
V    7 6
V    8 7
V    9 8
V   10 9
V   11 10
V   12 11
V   13 12
V   14 13
V   15 14
V   16 15
V   17 16
V   18 17
V   19 18
M  END
> <DSSTox_RID>
60932

> <DSSTox_CID>
11862

> <DSSTox_CID_Parent>
11862

> <DSSTox_Generic_SID>
31862

> <DSSTox_FileID>
613_TXCST2_v1a

> <STRUCTURE_Formula>
C6HF11O2

> <STRUCTURE_MolecularWeight>
314.0534

> <STRUCTURE_ChemicalType>
defined organic

> <STRUCTURE_TestedForm_DefinedOrganic>
parent

> <STRUCTURE_Shown>
tested chemical

> <TestSubstance_ChemicalName>
Perfluorohexanoic acid

> <TestSubstance_CASRN>
307-24-4

> <TestSubstance_Description>
single chemical compound

> <STRUCTURE_ChemicalName_IUPAC>
undecafluorohexanoic acid

> <STRUCTURE_SMILES>
FC(F)(F)C(F)(F)C(F)(F)C(F)(F)C(F)(F)C(O)=O

> <STRUCTURE_Parent_SMILES>
FC(F)(F)C(F)(F)C(F)(F)C(F)(F)C(F)(F)C(O)=O

> <STRUCTURE_InChIS>
InChI=1S/C6HF11O2/c7-2(8,1(18)19)3(9,10)4(11,12)5(13,14)6(15,16)17/h(H,18,19)

> <STRUCTURE_InChIKey>
PXUULQAPEKKVAH-UHFFFAOYSA-N

> <Substance_modify_yyyymmdd>
20080429

> <Coord_Metals>
0

> <Index>
613

> <Canonical_Smiles>
OC(=O)C(F)(F)C(F)(F)C(F)(F)C(F)(F)C(F)(F)F

> <Molecular_Weight>
314.05337

> <Frequency>
1

$$$$

  SciTegic          2D

 29 28  0  0  0  0            999 V2000
   11.6999    0.7500    0.0000 C   0  0
   10.3999    0.0000    0.0000 C   0  0
    9.0999    0.7500    0.0000 C   0  0
    7.7999    0.0000    0.0000 C   0  0
    6.5000    0.7500    0.0000 C   0  0
    5.2000    0.0000    0.0000 C   0  0
    3.9000    0.7500    0.0000 C   0  0
    2.6000    0.0000    0.0000 C   0  0
    1.3000    0.7500    0.0000 C   0  0
   11.6999    1.9500    0.0000 O   0  0
   12.9999    0.0000    0.0000 O   0  0
   11.4391   -0.6002    0.0000 F   0  0
   10.3999   -1.2000    0.0000 F   0  0
    8.0608    1.3502    0.0000 F   0  0
    9.0999    1.9500    0.0000 F   0  0
    6.7608   -0.6002    0.0000 F   0  0
    7.7999   -1.2000    0.0000 F   0  0
    5.4608    1.3502    0.0000 F   0  0
    6.5000    1.9500    0.0000 F   0  0
    4.1608   -0.6002    0.0000 F   0  0
    5.2000   -1.2000    0.0000 F   0  0
    2.8608    1.3502    0.0000 F   0  0
    3.9000    1.9500    0.0000 F   0  0
    1.5608   -0.6002    0.0000 F   0  0
    2.6000   -1.2000    0.0000 F   0  0
    0.2606    0.1503    0.0000 F   0  0
    0.2609    1.3502    0.0000 F   0  0
    1.3000    1.9500    0.0000 F   0  0
   13.8661    0.4997    0.0000 H   0  0
  1  2  1  0
  1 11  1  0
  1 10  2  0
  2  3  1  0
  2 12  1  0
  2 13  1  0
  3  4  1  0
  3 14  1  0
  3 15  1  0
  4  5  1  0
  4 16  1  0
  4 17  1  0
  5  6  1  0
  5 18  1  0
  5 19  1  0
  6  7  1  0
  6 20  1  0
  6 21  1  0
  7  8  1  0
  7 22  1  0
  7 23  1  0
  8  9  1  0
  8 24  1  0
  8 25  1  0
  9 26  1  0
  9 27  1  0
  9 28  1  0
 11 29  1  0
V    1 0
V    2 1
V    3 2
V    4 3
V    5 4
V    6 5
V    7 6
V    8 7
V    9 8
V   10 9
V   11 10
V   12 11
V   13 12
V   14 13
V   15 14
V   16 15
V   17 16
V   18 17
V   19 18
V   20 19
V   21 20
V   22 21
V   23 22
V   24 23
V   25 24
V   26 25
V   27 26
V   28 27
M  END
> <DSSTox_RID>
65273

> <DSSTox_CID>
11863

> <DSSTox_CID_Parent>
11863

> <DSSTox_Generic_SID>
31863

> <DSSTox_FileID>
614_TXCST2_v1a

> <STRUCTURE_Formula>
C9HF17O2

> <STRUCTURE_MolecularWeight>
464.0759

> <STRUCTURE_ChemicalType>
defined organic

> <STRUCTURE_TestedForm_DefinedOrganic>
parent

> <STRUCTURE_Shown>
tested chemical

> <TestSubstance_ChemicalName>
Perfluorononanoic acid

> <TestSubstance_CASRN>
375-95-1

> <TestSubstance_Description>
single chemical compound

> <STRUCTURE_ChemicalName_IUPAC>
heptadecafluorononanoic acid

> <STRUCTURE_SMILES>
O=C(O)C(F)(F)C(F)(F)C(F)(F)C(F)(F)C(F)(F)C(F)(F)C(F)(F)C(F)(F)F

> <STRUCTURE_Parent_SMILES>
O=C(O)C(F)(F)C(F)(F)C(F)(F)C(F)(F)C(F)(F)C(F)(F)C(F)(F)C(F)(F)F

> <STRUCTURE_InChIS>
InChI=1S/C9HF17O2/c10-2(11,1(27)28)3(12,13)4(14,15)5(16,17)6(18,19)7(20,21)8(22,23)9(24,25)26/h(H,27,28)

> <STRUCTURE_InChIKey>
UZUFPBIDKMEQEQ-UHFFFAOYSA-N

> <Substance_modify_yyyymmdd>
20080429

> <Coord_Metals>
0

> <Index>
614

> <Canonical_Smiles>
OC(=O)C(F)(F)C(F)(F)C(F)(F)C(F)(F)C(F)(F)C(F)(F)C(F)(F)C(F)(F)F

> <Molecular_Weight>
464.07589

> <Frequency>
1

$$$$

  SciTegic          2D

 30 29  0  0  0  0            999 V2000
   10.3999    0.0000    0.0000 C   0  0
    9.0999    0.7500    0.0000 C   0  0
    7.7999    0.0000    0.0000 C   0  0
    6.5000    0.7500    0.0000 C   0  0
    5.2000    0.0000    0.0000 C   0  0
    3.9000    0.7500    0.0000 C   0  0
    2.6000    0.0000    0.0000 C   0  0
    1.3000    0.7500    0.0000 C   0  0
   11.6999    0.7500    0.0000 S   0  0
   11.6999    1.9500    0.0000 O   0  0
   12.9999    0.0000    0.0000 O   0  0
   12.7390    1.3502    0.0000 O   0  0
   10.3999   -1.2000    0.0000 F   0  0
    9.3608   -0.6002    0.0000 F   0  0
    9.0999    1.9500    0.0000 F   0  0
    8.0608    1.3502    0.0000 F   0  0
    7.7999   -1.2000    0.0000 F   0  0
    6.7608   -0.6002    0.0000 F   0  0
    6.5000    1.9500    0.0000 F   0  0
    5.4608    1.3502    0.0000 F   0  0
    5.2000   -1.2000    0.0000 F   0  0
    4.1608   -0.6002    0.0000 F   0  0
    3.9000    1.9500    0.0000 F   0  0
    2.8608    1.3502    0.0000 F   0  0
    2.6000   -1.2000    0.0000 F   0  0
    1.5608   -0.6002    0.0000 F   0  0
    0.2606    0.1503    0.0000 F   0  0
    1.3000    1.9500    0.0000 F   0  0
    0.2609    1.3502    0.0000 F   0  0
   13.8661    0.4997    0.0000 H   0  0
  1  2  1  0
  1  9  1  0
  1 13  1  0
  1 14  1  0
  2  3  1  0
  2 15  1  0
  2 16  1  0
  3  4  1  0
  3 17  1  0
  3 18  1  0
  4  5  1  0
  4 19  1  0
  4 20  1  0
  5  6  1  0
  5 21  1  0
  5 22  1  0
  6  7  1  0
  6 23  1  0
  6 24  1  0
  7  8  1  0
  7 25  1  0
  7 26  1  0
  8 27  1  0
  8 28  1  0
  8 29  1  0
  9 10  2  0
  9 11  1  0
  9 12  2  0
 11 30  1  0
V    1 0
V    2 1
V    3 2
V    4 3
V    5 4
V    6 5
V    7 6
V    8 7
V    9 8
V   10 9
V   11 10
V   12 11
V   13 12
V   14 13
V   15 14
V   16 15
V   17 16
V   18 17
V   19 18
V   20 19
V   21 20
V   22 21
V   23 22
V   24 23
V   25 24
V   26 25
V   27 26
V   28 27
V   29 28
M  END
> <DSSTox_RID>
62419
65759

> <DSSTox_CID>
11864
17706

> <DSSTox_CID_Parent>
11864
11864

> <DSSTox_Generic_SID>
31864
37706

> <DSSTox_FileID>
615_TXCST2_v1a
777_TXCST2_v1a

> <STRUCTURE_Formula>
C8HF17O3S
C8F17KO3S

> <STRUCTURE_MolecularWeight>
500.1296
538.22

> <STRUCTURE_ChemicalType>
defined organic
defined organic

> <STRUCTURE_TestedForm_DefinedOrganic>
parent
salt K

> <STRUCTURE_Shown>
tested chemical
tested chemical

> <TestSubstance_ChemicalName>
Perfluorooctane sulfonic acid
Potassium perfluorooctanesulfonate

> <TestSubstance_CASRN>
1763-23-1
2795-39-3

> <TestSubstance_Description>
single chemical compound
single chemical compound

> <STRUCTURE_ChemicalName_IUPAC>
1,1,2,2,3,3,4,4,5,5,6,6,7,7,8,8,8-heptadecafluorooctane-1-sulfonic acid
potassium 1,1,2,2,3,3,4,4,5,5,6,6,7,7,8,8,8-heptadecafluorooctane-1-sulfonate

> <STRUCTURE_SMILES>
O=S(C(F)(F)C(F)(F)C(F)(F)C(F)(F)C(F)(F)C(F)(F)C(F)(F)C(F)(F)F)(O)=O
O=S(C(F)(F)C(F)(F)C(F)(F)C(F)(F)C(F)(F)C(F)(F)C(F)(F)C(F)(F)F)([O-])=O.[K+]

> <STRUCTURE_Parent_SMILES>
O=S(C(F)(F)C(F)(F)C(F)(F)C(F)(F)C(F)(F)C(F)(F)C(F)(F)C(F)(F)F)(O)=O
O=S(C(F)(F)C(F)(F)C(F)(F)C(F)(F)C(F)(F)C(F)(F)C(F)(F)C(F)(F)F)(O)=O

> <STRUCTURE_InChIS>
InChI=1S/C8HF17O3S/c9-1(10,3(13,14)5(17,18)7(21,22)23)2(11,12)4(15,16)6(19,20)8(24,25)29(26,27)28/h(H,26,27,28)
InChI=1S/C8HF17O3S.K/c9-1(10,3(13,14)5(17,18)7(21,22)23)2(11,12)4(15,16)6(19,20)8(24,25)29(26,27)28;/h(H,26,27,28);/q;+1/p-1

> <STRUCTURE_InChIKey>
YFSUTJLHUFNCNZ-UHFFFAOYSA-N
WFRUBUQWJYMMRQ-UHFFFAOYSA-M

> <Substance_modify_yyyymmdd>
20080429
20080429

> <Coord_Metals>
0
0

> <Index>
615
777

> <Canonical_Smiles>
OS(=O)(=O)C(F)(F)C(F)(F)C(F)(F)C(F)(F)C(F)(F)C(F)(F)C(F)(F)C(F)(F)F

> <Molecular_Weight>
500.12959
500.12959

> <ChemicalNote>
parent [1763-23-1]

> <Frequency>
2

$$$$

  SciTegic          2D

 26 25  0  0  0  0            999 V2000
   10.3999    0.0000    0.0000 C   0  0
    9.0999    0.7500    0.0000 C   0  0
    7.7999    0.0000    0.0000 C   0  0
    6.5000    0.7500    0.0000 C   0  0
    5.2000    0.0000    0.0000 C   0  0
    3.9000    0.7500    0.0000 C   0  0
    2.6000    0.0000    0.0000 C   0  0
    1.3000    0.7500    0.0000 C   0  0
   10.3999   -1.2000    0.0000 O   0  0
   11.6999    0.7500    0.0000 O   0  0
   10.1391    1.3502    0.0000 F   0  0
    9.0999    1.9500    0.0000 F   0  0
    6.7608   -0.6002    0.0000 F   0  0
    7.7999   -1.2000    0.0000 F   0  0
    5.4608    1.3502    0.0000 F   0  0
    6.5000    1.9500    0.0000 F   0  0
    4.1608   -0.6002    0.0000 F   0  0
    5.2000   -1.2000    0.0000 F   0  0
    2.8608    1.3502    0.0000 F   0  0
    3.9000    1.9500    0.0000 F   0  0
    1.5608   -0.6002    0.0000 F   0  0
    2.6000   -1.2000    0.0000 F   0  0
    0.2606    0.1503    0.0000 F   0  0
    0.2609    1.3502    0.0000 F   0  0
    1.3000    1.9500    0.0000 F   0  0
   12.5661    0.2503    0.0000 H   0  0
  1  2  1  0
  1 10  1  0
  1  9  2  0
  2  3  1  0
  2 11  1  0
  2 12  1  0
  3  4  1  0
  3 13  1  0
  3 14  1  0
  4  5  1  0
  4 15  1  0
  4 16  1  0
  5  6  1  0
  5 17  1  0
  5 18  1  0
  6  7  1  0
  6 19  1  0
  6 20  1  0
  7  8  1  0
  7 21  1  0
  7 22  1  0
  8 23  1  0
  8 24  1  0
  8 25  1  0
 10 26  1  0
V    1 0
V    2 1
V    3 2
V    4 3
V    5 4
V    6 5
V    7 6
V    8 7
V    9 8
V   10 9
V   11 10
V   12 11
V   13 12
V   14 13
V   15 14
V   16 15
V   17 16
V   18 17
V   19 18
V   20 19
V   21 20
V   22 21
V   23 22
V   24 23
V   25 24
M  END
> <DSSTox_RID>
65953
60934

> <DSSTox_CID>
11865
17708

> <DSSTox_CID_Parent>
11865
11865

> <DSSTox_Generic_SID>
31865
37708

> <DSSTox_FileID>
616_TXCST2_v1a
779_TXCST2_v1a

> <STRUCTURE_Formula>
C8HF15O2
C8H4F15NO2

> <STRUCTURE_MolecularWeight>
414.0684
431.0989

> <STRUCTURE_ChemicalType>
defined organic
defined organic

> <STRUCTURE_TestedForm_DefinedOrganic>
parent
salt NH4

> <STRUCTURE_Shown>
tested chemical
tested chemical

> <TestSubstance_ChemicalName>
Perfluorooctanoic acid
Ammonium perfluorooctanoate

> <TestSubstance_CASRN>
335-67-1
3825-26-1

> <TestSubstance_Description>
single chemical compound
single chemical compound

> <Source_ChemicalNote>
tested chemical contained 0.18% water (0.04 moles H2O)
tested chemical contained 0.05% water (0.01 moles H2O)

> <STRUCTURE_ChemicalName_IUPAC>
pentadecafluorooctanoic acid
ammonium pentadecafluorooctanoate

> <STRUCTURE_SMILES>
O=C(O)C(F)(F)C(F)(F)C(F)(F)C(F)(F)C(F)(F)C(F)(F)C(F)(F)F
O=C([O-])C(F)(F)C(F)(F)C(F)(F)C(F)(F)C(F)(F)C(F)(F)C(F)(F)F.[NH4+]

> <STRUCTURE_Parent_SMILES>
O=C(O)C(F)(F)C(F)(F)C(F)(F)C(F)(F)C(F)(F)C(F)(F)C(F)(F)F
O=C(O)C(F)(F)C(F)(F)C(F)(F)C(F)(F)C(F)(F)C(F)(F)C(F)(F)F

> <STRUCTURE_InChIS>
InChI=1S/C8HF15O2/c9-2(10,1(24)25)3(11,12)4(13,14)5(15,16)6(17,18)7(19,20)8(21,22)23/h(H,24,25)
InChI=1S/C8HF15O2.H3N/c9-2(10,1(24)25)3(11,12)4(13,14)5(15,16)6(17,18)7(19,20)8(21,22)23;/h(H,24,25);1H3

> <STRUCTURE_InChIKey>
SNGREZUHAYWORS-UHFFFAOYSA-N
YOALFLHFSFEMLP-UHFFFAOYSA-N

> <Substance_modify_yyyymmdd>
20080429
20080429

> <Coord_Metals>
0
0

> <Index>
616
779

> <Canonical_Smiles>
OC(=O)C(F)(F)C(F)(F)C(F)(F)C(F)(F)C(F)(F)C(F)(F)C(F)(F)F

> <Molecular_Weight>
414.06838
414.06838

> <ChemicalNote>
parent [335-67-1]

> <Frequency>
2

$$$$

  SciTegic          2D

 30 30  0  0  0  0            999 V2000
    1.2990   -0.7500    0.0000 C   0  0
    2.5972    1.5031    0.0000 N   0  0
    2.5988   -1.5004    0.0000 C   0  0
    1.2990    0.7500    0.0000 C   0  0
   -3.8990   -0.7455    0.0000 C   0  0
   -2.6003   -1.4978    0.0000 N   0  0
    0.0000   -1.5000    0.0000 C   0  0
    0.0000    1.5000    0.0000 C   0  0
    2.5955    2.7031    0.0000 O   0  0
    3.6375    0.9049    0.0000 O   0  0
   -1.2990   -0.7500    0.0000 C   0  0
   -3.8969    0.4545    0.0000 O   0  0
    3.6384   -0.9011    0.0000 F   0  0
    2.5984   -2.7004    0.0000 F   0  0
    3.6377   -2.1009    0.0000 F   0  0
   -5.2003   -1.4932    0.0000 C   0  0
   -1.2990    0.7500    0.0000 C   0  0
   -6.4990   -0.7410    0.0000 C   0  0
   -5.2029   -2.9940    0.0000 C   0  0
   -2.6021   -2.4978    0.0000 H   0  0
    0.0000   -2.5000    0.0000 H   0  0
    0.0000    2.5000    0.0000 H   0  0
   -5.1986   -0.4932    0.0000 H   0  0
   -2.1651    1.2500    0.0000 H   0  0
   -7.3660   -1.2392    0.0000 H   0  0
   -6.4973    0.2590    0.0000 H   0  0
   -7.3641   -0.2393    0.0000 H   0  0
   -6.0695   -3.4930    0.0000 H   0  0
   -5.2042   -3.9940    0.0000 H   0  0
   -4.3376   -3.4952    0.0000 H   0  0
  1  3  1  0
  1  4  2  0
  1  7  1  0
  2  4  1  0
  2  9  2  0
  2 10  2  0
  3 13  1  0
  3 14  1  0
  3 15  1  0
  4  8  1  0
  5  6  1  0
  5 12  2  0
  5 16  1  0
  6 11  1  0
  7 11  2  0
  8 17  2  0
 11 17  1  0
 16 18  1  0
 16 19  1  0
  6 20  1  0
  7 21  1  0
  8 22  1  0
 16 23  1  0
 17 24  1  0
 18 25  1  0
 18 26  1  0
 18 27  1  0
 19 28  1  0
 19 29  1  0
 19 30  1  0
V    1 0
V    2 1
V    3 2
V    4 3
V    5 4
V    6 5
V    7 6
V    8 7
V    9 8
V   10 9
V   11 10
V   12 11
V   13 12
V   14 13
V   15 14
V   16 15
V   17 16
V   18 17
V   19 18
M  END
> <DSSTox_RID>
66525

> <DSSTox_CID>
11121

> <DSSTox_CID_Parent>
11121

> <DSSTox_Generic_SID>
32004

> <DSSTox_FileID>
617_TXCST2_v1a

> <STRUCTURE_Formula>
C11H11F3N2O3

> <STRUCTURE_MolecularWeight>
276.2118

> <STRUCTURE_ChemicalType>
defined organic

> <STRUCTURE_TestedForm_DefinedOrganic>
parent

> <STRUCTURE_Shown>
tested chemical

> <TestSubstance_ChemicalName>
Flutamide

> <TestSubstance_CASRN>
13311-84-7

> <TestSubstance_Description>
single chemical compound

> <STRUCTURE_ChemicalName_IUPAC>
2-methyl-N-[4-nitro-3-(trifluoromethyl)phenyl]propanamide

> <STRUCTURE_SMILES>
[O-][N+](C(C=C1)=C(C=C1NC(C(C)C)=O)C(F)(F)F)=O

> <STRUCTURE_Parent_SMILES>
[O-][N+](C(C=C1)=C(C=C1NC(C(C)C)=O)C(F)(F)F)=O

> <STRUCTURE_InChIS>
InChI=1S/C11H11F3N2O3/c1-6(2)10(17)15-7-3-4-9(16(18)19)8(5-7)11(12,13)14/h3-6H,1-2H3,(H,15,17)

> <STRUCTURE_InChIKey>
MKXKFYHWDHIYRV-UHFFFAOYSA-N

> <Substance_modify_yyyymmdd>
20080429

> <Coord_Metals>
0

> <Index>
617

> <Canonical_Smiles>
CC(C)C(=O)Nc1ccc(c(c1)C(F)(F)F)N(=O)=O

> <Molecular_Weight>
276.21184

> <Frequency>
1

$$$$

  SciTegic          2D

 43 44  0  0  0  0            999 V2000
    3.3862    0.6603    0.0000 C   0  0
    4.6855   -0.0909    0.0000 C   0  0
    5.1988   -1.5012    0.0000 C   0  0
    5.1983   -3.0020    0.0000 C   0  0
    4.3565   -4.3018    0.0000 C   0  0
    3.8746   -2.2677    0.0000 O   0  0
    3.3862    2.1611    0.0000 C   0  0
    4.6852    2.9112    0.0000 C   0  0
    2.0871    2.9111    0.0000 C   0  0
    4.6852    4.4112    0.0000 C   0  0
    2.0871    4.4111    0.0000 C   0  0
    3.3862    5.1611    0.0000 C   0  0
    3.3862    6.3611    0.0000 Cl  0  0
    4.3571   -1.7018    0.0000 C   0  0
    6.4983   -3.7528    0.0000 C   0  0
    6.4990   -0.7516    0.0000 C   0  0
    7.7988   -1.5020    0.0000 N   0  0
    7.9365   -2.9829    0.0000 N   0  0
    9.4038   -3.2947    0.0000 C   0  0
   10.1538   -1.9957    0.0000 N   0  0
    9.1501   -0.8810    0.0000 C   0  0
    2.5202    1.1605    0.0000 H   0  0
    2.5200    0.1606    0.0000 H   0  0
    4.3439    0.8489    0.0000 H   0  0
    5.3285    0.6749    0.0000 H   0  0
    4.8560   -5.1681    0.0000 H   0  0
    3.3568   -4.2759    0.0000 H   0  0
    3.8451   -5.1611    0.0000 H   0  0
    3.8751   -3.2677    0.0000 H   0  0
    5.5512    2.4112    0.0000 H   0  0
    1.2211    2.4111    0.0000 H   0  0
    5.5512    4.9112    0.0000 H   0  0
    1.2211    4.9111    0.0000 H   0  0
    4.8571   -0.8357    0.0000 H   0  0
    3.3575   -1.7271    0.0000 H   0  0
    3.8462   -0.8422    0.0000 H   0  0
    6.4988   -4.7528    0.0000 H   0  0
    7.3643   -3.2527    0.0000 H   0  0
    7.3645   -4.2525    0.0000 H   0  0
    6.4993    0.2484    0.0000 H   0  0
    7.3651   -0.2518    0.0000 H   0  0
    9.8105   -4.2083    0.0000 H   0  0
    9.3521    0.0984    0.0000 H   0  0
  1  2  1  0
  1  7  1  0
  2  3  1  0
  3  4  1  0
  3  6  1  0
  3 16  1  0
  4  5  1  0
  4 14  1  0
  4 15  1  0
  7  8  2  0
  7  9  1  0
  8 10  1  0
  9 11  2  0
 10 12  2  0
 11 12  1  0
 12 13  1  0
 16 17  1  0
 17 18  1  0
 17 21  1  0
 18 19  2  0
 19 20  1  0
 20 21  2  0
  1 22  1  0
  1 23  1  0
  2 24  1  0
  2 25  1  0
  5 26  1  0
  5 27  1  0
  5 28  1  0
  6 29  1  0
  8 30  1  0
  9 31  1  0
 10 32  1  0
 11 33  1  0
 14 34  1  0
 14 35  1  0
 14 36  1  0
 15 37  1  0
 15 38  1  0
 15 39  1  0
 16 40  1  0
 16 41  1  0
 19 42  1  0
 21 43  1  0
V    1 0
V    2 1
V    3 2
V    4 3
V    5 4
V    6 5
V    7 6
V    8 7
V    9 8
V   10 9
V   11 10
V   12 11
V   13 12
V   14 13
V   15 14
V   16 15
V   17 16
V   18 17
V   19 18
V   20 19
V   21 20
M  END
> <DSSTox_RID>
62284

> <DSSTox_CID>
12113

> <DSSTox_CID_Parent>
12113

> <DSSTox_Generic_SID>
32113

> <DSSTox_FileID>
618_TXCST2_v1a

> <STRUCTURE_Formula>
C16H22ClN3O

> <STRUCTURE_MolecularWeight>
307.8184

> <STRUCTURE_ChemicalType>
defined organic

> <STRUCTURE_TestedForm_DefinedOrganic>
parent

> <STRUCTURE_Shown>
tested chemical

> <TestSubstance_ChemicalName>
Tebuconazole

> <TestSubstance_CASRN>
107534-96-3

> <TestSubstance_Description>
single chemical compound

> <ChemicalNote>
mixture of (R,S) isomers; structure shown without stereochem

> <STRUCTURE_ChemicalName_IUPAC>
1-(4-chlorophenyl)-4,4-dimethyl-3-(1H-1,2,4-triazol-1-ylmethyl)pentan-3-ol

> <STRUCTURE_SMILES>
OC(C(C)(C)C)(CN2N=CN=C2)CCC1=CC=C(Cl)C=C1

> <STRUCTURE_Parent_SMILES>
ClC1=CC=C(CCC(C(C)(C)C)(CN2N=CN=C2)O)C=C1

> <STRUCTURE_InChIS>
InChI=1S/C16H22ClN3O/c1-15(2,3)16(21,10-20-12-18-11-19-20)9-8-13-4-6-14(17)7-5-13/h4-7,11-12,21H,8-10H2,1-3H3

> <STRUCTURE_InChIKey>
PXMNMQRDXWABCY-UHFFFAOYSA-N

> <Substance_modify_yyyymmdd>
20080429

> <Coord_Metals>
0

> <Index>
618

> <Canonical_Smiles>
CC(C)(C)C(O)(CCc1ccc(Cl)cc1)Cn2cncn2

> <Molecular_Weight>
307.81838

> <Frequency>
1

$$$$

  SciTegic          2D

 29 30  0  0  0  0            999 V2000
    1.7138    1.2033    0.0000 O   0  0
    2.5889    0.0182    0.0000 C   0  0
    1.7138   -1.2033    0.0000 O   0  0
    0.2917   -0.7475    0.0000 C   0  0
    0.2917    0.7475    0.0000 C   0  0
   -1.0028    1.5132    0.0000 C   0  0
   -2.3155    0.7475    0.0000 C   0  0
   -2.3155   -0.7475    0.0000 C   0  0
   -1.0028   -1.5132    0.0000 C   0  0
   -0.9971    3.0138    0.0000 O   0  0
    3.3214   -1.2765    0.0000 C   0  0
    3.3030    1.3236    0.0000 C   0  0
   -2.2935    3.7700    0.0000 C   0  0
   -3.3352    3.1743    0.0000 O   0  0
   -2.2878    5.2708    0.0000 N   0  0
   -3.5842    6.0270    0.0000 C   0  0
   -3.1826    1.2456    0.0000 H   0  0
   -3.1826   -1.2456    0.0000 H   0  0
   -0.9997   -2.5132    0.0000 H   0  0
    2.8280   -2.1463    0.0000 H   0  0
    3.8278   -2.1387    0.0000 H   0  0
    4.3214   -1.2692    0.0000 H   0  0
    4.3030    1.3315    0.0000 H   0  0
    3.7963    2.1934    0.0000 H   0  0
    2.7964    2.1858    0.0000 H   0  0
   -1.4197    5.7672    0.0000 H   0  0
   -3.5804    7.0269    0.0000 H   0  0
   -4.4523    5.5305    0.0000 H   0  0
   -4.4482    6.5304    0.0000 H   0  0
  1  2  1  0
  1  5  1  0
  2  3  1  0
  2 11  1  0
  2 12  1  0
  3  4  1  0
  4  5  2  0
  4  9  1  0
  5  6  1  0
  6  7  2  0
  6 10  1  0
  7  8  1  0
  8  9  2  0
 10 13  1  0
 13 14  2  0
 13 15  1  0
 15 16  1  0
  7 17  1  0
  8 18  1  0
  9 19  1  0
 11 20  1  0
 11 21  1  0
 11 22  1  0
 12 23  1  0
 12 24  1  0
 12 25  1  0
 15 26  1  0
 16 27  1  0
 16 28  1  0
 16 29  1  0
V    1 0
V    2 1
V    3 2
V    4 3
V    5 4
V    6 5
V    7 6
V    8 7
V    9 8
V   10 9
V   11 10
V   12 11
V   13 12
V   14 13
V   15 14
V   16 15
M  END
> <DSSTox_RID>
62348

> <DSSTox_CID>
12327

> <DSSTox_CID_Parent>
12327

> <DSSTox_Generic_SID>
32327

> <DSSTox_FileID>
619_TXCST2_v1a

> <STRUCTURE_Formula>
C11H13NO4

> <STRUCTURE_MolecularWeight>
223.2252

> <STRUCTURE_ChemicalType>
defined organic

> <STRUCTURE_TestedForm_DefinedOrganic>
parent

> <STRUCTURE_Shown>
tested chemical

> <TestSubstance_ChemicalName>
Bendiocarb

> <TestSubstance_CASRN>
22781-23-3

> <TestSubstance_Description>
single chemical compound

> <Source_ChemicalNote>
tested chemical contained 0.17% water (0.02 moles H2O)

> <STRUCTURE_ChemicalName_IUPAC>
2,2-dimethyl-1,3-benzodioxol-4-yl methylcarbamate

> <STRUCTURE_SMILES>
O=C(NC)OC1=CC=CC2=C1OC(C)(C)O2

> <STRUCTURE_Parent_SMILES>
O=C(NC)OC1=CC=CC2=C1OC(C)(C)O2

> <STRUCTURE_InChIS>
InChI=1S/C11H13NO4/c1-11(2)15-8-6-4-5-7(9(8)16-11)14-10(13)12-3/h4-6H,1-3H3,(H,12,13)

> <STRUCTURE_InChIKey>
XEGGRYVFLWGFHI-UHFFFAOYSA-N

> <Substance_modify_yyyymmdd>
20080429

> <Coord_Metals>
0

> <Index>
619

> <Canonical_Smiles>
CNC(=O)Oc1cccc2OC(C)(C)Oc12

> <Molecular_Weight>
223.22521

> <Frequency>
1

$$$$

  SciTegic          2D

 47 47  0  0  0  0            999 V2000
    9.0990   -0.7525    0.0000 P   0  0
   10.3987   -1.5029    0.0000 O   0  0
    9.0995    0.7483    0.0000 O   0  0
    7.7988   -1.5020    0.0000 S   0  0
    9.0986   -1.9525    0.0000 S   0  0
    7.8004    1.4999    0.0000 C   0  0
    7.8009    3.0008    0.0000 C   0  0
    6.5003    0.7504    0.0000 C   0  0
   11.6990   -0.7533    0.0000 C   0  0
   12.9987   -1.5037    0.0000 C   0  0
   11.6994    0.7475    0.0000 C   0  0
    7.7969   -3.0029    0.0000 C   0  0
    6.4966   -3.7525    0.0000 C   0  0
    6.4947   -5.2533    0.0000 N   0  0
    5.1945   -6.0029    0.0000 S   0  0
    4.1558   -5.4019    0.0000 O   0  0
    5.1954   -4.8029    0.0000 O   0  0
    5.1926   -7.5037    0.0000 C   0  0
    6.4907   -8.2553    0.0000 C   0  0
    3.8926   -8.2521    0.0000 C   0  0
    6.4888   -9.7553    0.0000 C   0  0
    3.8907   -9.7520    0.0000 C   0  0
    5.1888  -10.5037    0.0000 C   0  0
    8.6668    1.9994    0.0000 H   0  0
    6.9353    3.5016    0.0000 H   0  0
    7.8017    4.0008    0.0000 H   0  0
    8.6672    3.5002    0.0000 H   0  0
    6.4990   -0.2496    0.0000 H   0  0
    5.6337    0.2513    0.0000 H   0  0
    5.6347    1.2512    0.0000 H   0  0
   11.6986   -1.7533    0.0000 H   0  0
   13.8651   -1.0042    0.0000 H   0  0
   12.9984   -2.5037    0.0000 H   0  0
   13.8645   -2.0041    0.0000 H   0  0
   10.8339    1.2483    0.0000 H   0  0
   11.7002    1.7475    0.0000 H   0  0
   12.5658    1.2469    0.0000 H   0  0
    8.6624   -3.5037    0.0000 H   0  0
    8.6634   -2.5038    0.0000 H   0  0
    5.6311   -3.2516    0.0000 H   0  0
    5.6300   -4.2515    0.0000 H   0  0
    7.3603   -5.7541    0.0000 H   0  0
    7.3573   -7.7564    0.0000 H   0  0
    3.0272   -7.7510    0.0000 H   0  0
    7.3542  -10.2564    0.0000 H   0  0
    3.0240  -10.2510    0.0000 H   0  0
    5.1875  -11.5037    0.0000 H   0  0
  1  2  1  0
  1  3  1  0
  1  5  2  0
  1  4  1  0
  2  9  1  0
  3  6  1  0
  4 12  1  0
  6  7  1  0
  6  8  1  0
  9 10  1  0
  9 11  1  0
 12 13  1  0
 13 14  1  0
 14 15  1  0
 15 16  2  0
 15 17  2  0
 15 18  1  0
 18 19  2  0
 18 20  1  0
 19 21  1  0
 20 22  2  0
 21 23  2  0
 22 23  1  0
  6 24  1  0
  7 25  1  0
  7 26  1  0
  7 27  1  0
  8 28  1  0
  8 29  1  0
  8 30  1  0
  9 31  1  0
 10 32  1  0
 10 33  1  0
 10 34  1  0
 11 35  1  0
 11 36  1  0
 11 37  1  0
 12 38  1  0
 12 39  1  0
 13 40  1  0
 13 41  1  0
 14 42  1  0
 19 43  1  0
 20 44  1  0
 21 45  1  0
 22 46  1  0
 23 47  1  0
V    1 0
V    2 1
V    3 2
V    4 3
V    5 4
V    6 5
V    7 6
V    8 7
V    9 8
V   10 9
V   11 10
V   12 11
V   13 12
V   14 13
V   15 14
V   16 15
V   17 16
V   18 17
V   19 18
V   20 19
V   21 20
V   22 21
V   23 22
M  END
> <DSSTox_RID>
62282

> <DSSTox_CID>
12329

> <DSSTox_CID_Parent>
12329

> <DSSTox_Generic_SID>
32329

> <DSSTox_FileID>
620_TXCST2_v1a

> <STRUCTURE_Formula>
C14H24NO4PS3

> <STRUCTURE_MolecularWeight>
397.5134

> <STRUCTURE_ChemicalType>
defined organic

> <STRUCTURE_TestedForm_DefinedOrganic>
parent

> <STRUCTURE_Shown>
tested chemical

> <TestSubstance_ChemicalName>
Bensulide

> <TestSubstance_CASRN>
741-58-2

> <TestSubstance_Description>
single chemical compound

> <STRUCTURE_ChemicalName_IUPAC>
O,O-diisopropyl S-{2-[(phenylsulfonyl)amino]ethyl} dithiophosphate

> <STRUCTURE_SMILES>
S(=O)(=O)(C1=CC=CC=C1)NCCSP(=S)(OC(C)C)OC(C)C

> <STRUCTURE_Parent_SMILES>
S(=O)(=O)(C1=CC=CC=C1)NCCSP(=S)(OC(C)C)OC(C)C

> <STRUCTURE_InChIS>
InChI=1S/C14H24NO4PS3/c1-12(2)18-20(21,19-13(3)4)22-11-10-15-23(16,17)14-8-6-5-7-9-14/h5-9,12-13,15H,10-11H2,1-4H3

> <STRUCTURE_InChIKey>
RRNIZKPFKNDSRS-UHFFFAOYSA-N

> <Substance_modify_yyyymmdd>
20080429

> <Coord_Metals>
0

> <Index>
620

> <Canonical_Smiles>
CC(C)OP(=S)(OC(C)C)SCCNS(=O)(=O)c1ccccc1

> <Molecular_Weight>
397.51342

> <Frequency>
1

$$$$

  SciTegic          2D

 42 42  0  0  0  0            999 V2000
    1.2990   -0.7500    0.0000 C   0  0
    0.0000    1.5000    0.0000 C   0  0
    1.2990    0.7500    0.0000 C   0  0
   -0.0031    3.0008    0.0000 N   0  0
    2.2614   -1.9017    0.0000 N   0  0
   -1.2990    0.7500    0.0000 C   0  0
    0.0000   -1.5000    0.0000 C   0  0
   -1.2990   -0.7500    0.0000 C   0  0
    2.2614    1.9017    0.0000 N   0  0
   -1.0432    3.5993    0.0000 O   0  0
    1.8494   -3.0287    0.0000 O   0  0
   -2.2637   -1.8997    0.0000 C   0  0
    1.0351    3.6026    0.0000 O   0  0
    3.4435   -1.6954    0.0000 O   0  0
    3.7401    1.6451    0.0000 C   0  0
   -3.7419   -1.6400    0.0000 C   0  0
   -1.7500   -3.3098    0.0000 C   0  0
   -2.7848   -0.4612    0.0000 C   0  0
    4.7024    2.7968    0.0000 C   0  0
    4.2567    0.2361    0.0000 C   0  0
    6.1812    2.5401    0.0000 C   0  0
   -2.1651    1.2500    0.0000 H   0  0
    0.0000   -2.5000    0.0000 H   0  0
    1.9171    2.8406    0.0000 H   0  0
    3.3958    2.5839    0.0000 H   0  0
   -4.3847   -2.4061    0.0000 H   0  0
   -4.0843   -0.7005    0.0000 H   0  0
   -4.7268   -1.4665    0.0000 H   0  0
   -2.3921   -4.0764    0.0000 H   0  0
   -0.7651   -3.4828    0.0000 H   0  0
   -1.4072   -4.2492    0.0000 H   0  0
   -2.1413    0.3042    0.0000 H   0  0
   -3.1258    0.4789    0.0000 H   0  0
   -3.7694   -0.2863    0.0000 H   0  0
    3.7172    2.9682    0.0000 H   0  0
    4.3582    3.7356    0.0000 H   0  0
    3.6163   -0.5319    0.0000 H   0  0
    4.6014   -0.7027    0.0000 H   0  0
    5.2420    0.0651    0.0000 H   0  0
    6.8224    3.3075    0.0000 H   0  0
    7.1664    2.3687    0.0000 H   0  0
    6.5254    1.6013    0.0000 H   0  0
  1  3  2  0
  1  5  1  0
  1  7  1  0
  2  3  1  0
  2  4  1  0
  2  6  2  0
  3  9  1  0
  4 10  2  0
  4 13  2  0
  5 11  2  0
  5 14  2  0
  6  8  1  0
  7  8  2  0
  8 12  1  0
  9 15  1  0
 12 16  1  0
 12 17  1  0
 12 18  1  0
 15 19  1  0
 15 20  1  0
 19 21  1  0
  6 22  1  0
  7 23  1  0
  9 24  1  0
 15 25  1  0
 16 26  1  0
 16 27  1  0
 16 28  1  0
 17 29  1  0
 17 30  1  0
 17 31  1  0
 18 32  1  0
 18 33  1  0
 18 34  1  0
 19 35  1  0
 19 36  1  0
 20 37  1  0
 20 38  1  0
 20 39  1  0
 21 40  1  0
 21 41  1  0
 21 42  1  0
V    1 0
V    2 1
V    3 2
V    4 3
V    5 4
V    6 5
V    7 6
V    8 7
V    9 8
V   10 9
V   11 10
V   12 11
V   13 12
V   14 13
V   15 14
V   16 15
V   17 16
V   18 17
V   19 18
V   20 19
V   21 20
M  END
> <DSSTox_RID>
62303

> <DSSTox_CID>
12337

> <DSSTox_CID_Parent>
12337

> <DSSTox_Generic_SID>
32337

> <DSSTox_FileID>
621_TXCST2_v1a

> <STRUCTURE_Formula>
C14H21N3O4

> <STRUCTURE_MolecularWeight>
295.3342

> <STRUCTURE_ChemicalType>
defined organic

> <STRUCTURE_TestedForm_DefinedOrganic>
parent

> <STRUCTURE_Shown>
tested chemical

> <TestSubstance_ChemicalName>
Butralin

> <TestSubstance_CASRN>
33629-47-9

> <TestSubstance_Description>
single chemical compound

> <STRUCTURE_ChemicalName_IUPAC>
N-sec-butyl-4-tert-butyl-2,6-dinitroaniline

> <STRUCTURE_SMILES>
[O-][N+](C1=CC(C(C)(C)C)=CC([N+]([O-])=O)=C1NC(C)CC)=O

> <STRUCTURE_Parent_SMILES>
[O-][N+](C1=CC(C(C)(C)C)=CC([N+]([O-])=O)=C1NC(C)CC)=O

> <STRUCTURE_InChIS>
InChI=1S/C14H21N3O4/c1-6-9(2)15-13-11(16(18)19)7-10(14(3,4)5)8-12(13)17(20)21/h7-9,15H,6H2,1-5H3

> <STRUCTURE_InChIKey>
SPNQRCTZKIBOAX-UHFFFAOYSA-N

> <Substance_modify_yyyymmdd>
20080429

> <Coord_Metals>
0

> <Index>
621

> <Canonical_Smiles>
CCC(C)Nc1c(cc(cc1N(=O)=O)C(C)(C)C)N(=O)=O

> <Molecular_Weight>
295.33424

> <Frequency>
1

$$$$

  SciTegic          2D

 26 25  0  0  0  0            999 V2000
    5.2000   -1.2000    0.0000 S   0  0
    5.2000    0.0000    0.0000 P   0  0
    6.5000    0.7500    0.0000 O   0  0
    6.5239   -0.7669    0.0000 O   0  0
    3.9000    0.7500    0.0000 O   0  0
    6.5014    2.2508    0.0000 C   0  0
    7.8014    3.0008    0.0000 C   0  0
    6.5226   -2.2677    0.0000 C   0  0
    7.8213   -3.0200    0.0000 C   0  0
    2.6000    0.0000    0.0000 C   0  0
    1.3000    0.7500    0.0000 C   0  0
    2.6000   -1.2000    0.0000 Cl  0  0
    0.2606    0.1503    0.0000 Cl  0  0
    0.2609    1.3502    0.0000 Cl  0  0
    1.3000    1.9500    0.0000 Cl  0  0
    5.6350    1.7515    0.0000 H   0  0
    5.6357    2.7514    0.0000 H   0  0
    7.8023    4.0008    0.0000 H   0  0
    8.6678    3.5001    0.0000 H   0  0
    8.6671    2.5003    0.0000 H   0  0
    5.6561   -2.7667    0.0000 H   0  0
    5.6571   -1.7668    0.0000 H   0  0
    7.8205   -4.0200    0.0000 H   0  0
    8.6879   -2.5210    0.0000 H   0  0
    8.6868   -3.5208    0.0000 H   0  0
    3.4659   -0.5001    0.0000 H   0  0
  1  2  2  0
  2  3  1  0
  2  4  1  0
  2  5  1  0
  3  6  1  0
  4  8  1  0
  5 10  1  0
  6  7  1  0
  8  9  1  0
 10 11  1  0
 10 12  1  0
 11 13  1  0
 11 14  1  0
 11 15  1  0
  6 16  1  0
  6 17  1  0
  7 18  1  0
  7 19  1  0
  7 20  1  0
  8 21  1  0
  8 22  1  0
  9 23  1  0
  9 24  1  0
  9 25  1  0
 10 26  1  0
V    1 0
V    2 1
V    3 2
V    4 3
V    5 4
V    6 5
V    7 6
V    8 7
V    9 8
V   10 9
V   11 10
V   12 11
V   13 12
V   14 13
V   15 14
M  END
> <DSSTox_RID>
62345

> <DSSTox_CID>
12344

> <DSSTox_CID_Parent>
12344

> <DSSTox_Generic_SID>
32344

> <DSSTox_FileID>
622_TXCST2_v1a

> <STRUCTURE_Formula>
C6H11Cl4O3PS

> <STRUCTURE_MolecularWeight>
336.0005

> <STRUCTURE_ChemicalType>
defined organic

> <STRUCTURE_TestedForm_DefinedOrganic>
parent

> <STRUCTURE_Shown>
tested chemical

> <TestSubstance_ChemicalName>
Chlorethoxyfos

> <TestSubstance_CASRN>
54593-83-8

> <TestSubstance_Description>
single chemical compound

> <ChemicalNote>
mixture of (R,S) isomers; structure shown without stereochem

> <STRUCTURE_ChemicalName_IUPAC>
O,O-diethyl O-(1,2,2,2-tetrachloroethyl) thiophosphate

> <STRUCTURE_SMILES>
P(OC(C(Cl)(Cl)Cl)Cl)(=S)(OCC)OCC

> <STRUCTURE_Parent_SMILES>
P(OC(C(Cl)(Cl)Cl)Cl)(=S)(OCC)OCC

> <STRUCTURE_InChIS>
InChI=1S/C6H11Cl4O3PS/c1-3-11-14(15,12-4-2)13-5(7)6(8,9)10/h5H,3-4H2,1-2H3

> <STRUCTURE_InChIKey>
XFDJMIHUAHSGKG-UHFFFAOYSA-N

> <Substance_modify_yyyymmdd>
20080429

> <Coord_Metals>
0

> <Index>
622

> <Canonical_Smiles>
CCOP(=S)(OCC)OC(Cl)C(Cl)(Cl)Cl

> <Molecular_Weight>
336.0005

> <Frequency>
1

$$$$

  SciTegic          2D

 23 23  0  0  0  0            999 V2000
    1.2990   -0.7500    0.0000 C   0  0
    1.2990    0.7500    0.0000 N   0  0
    3.8990   -0.7455    0.0000 P   0  0
    2.6003   -1.4977    0.0000 O   0  0
    0.0000    1.5000    0.0000 C   0  0
    0.0000   -1.5000    0.0000 C   0  0
   -1.2990   -0.7500    0.0000 C   0  0
   -1.2990    0.7500    0.0000 C   0  0
    3.8969    0.4545    0.0000 S   0  0
    5.2003   -1.4932    0.0000 O   0  0
    2.5738    0.0191    0.0000 O   0  0
    0.0000    2.7000    0.0000 Cl  0  0
    0.0000   -2.7000    0.0000 Cl  0  0
   -2.3383    1.3500    0.0000 Cl  0  0
    6.4990   -0.7409    0.0000 C   0  0
    2.5724    1.5199    0.0000 C   0  0
   -2.1651   -1.2500    0.0000 H   0  0
    7.3661   -1.2392    0.0000 H   0  0
    6.4973    0.2591    0.0000 H   0  0
    7.3641   -0.2393    0.0000 H   0  0
    1.7062    2.0196    0.0000 H   0  0
    3.4381    2.0204    0.0000 H   0  0
    2.5719    2.5199    0.0000 H   0  0
  1  2  2  0
  1  4  1  0
  1  6  1  0
  2  5  1  0
  3  4  1  0
  3  9  2  0
  3 10  1  0
  3 11  1  0
  5 12  1  0
  5  8  2  0
  6  7  2  0
  6 13  1  0
  7  8  1  0
  8 14  1  0
 10 15  1  0
 11 16  1  0
  7 17  1  0
 15 18  1  0
 15 19  1  0
 15 20  1  0
 16 21  1  0
 16 22  1  0
 16 23  1  0
V    1 0
V    2 1
V    3 2
V    4 3
V    5 4
V    6 5
V    7 6
V    8 7
V    9 8
V   10 9
V   11 10
V   12 11
V   13 12
V   14 13
V   15 14
V   16 15
M  END
> <DSSTox_RID>
65452

> <DSSTox_CID>
12352

> <DSSTox_CID_Parent>
12352

> <DSSTox_Generic_SID>
32352

> <DSSTox_FileID>
623_TXCST2_v1a

> <STRUCTURE_Formula>
C7H7Cl3NO3PS

> <STRUCTURE_MolecularWeight>
322.5331

> <STRUCTURE_ChemicalType>
defined organic

> <STRUCTURE_TestedForm_DefinedOrganic>
parent

> <STRUCTURE_Shown>
tested chemical

> <TestSubstance_ChemicalName>
Chlorpyrifos-methyl

> <TestSubstance_CASRN>
5598-13-0

> <TestSubstance_Description>
single chemical compound

> <Source_ChemicalNote>
tested chemical contained 0.04% water (0.01 moles H2O)

> <STRUCTURE_ChemicalName_IUPAC>
O,O-dimethyl O-(3,5,6-trichloropyridin-2-yl) thiophosphate

> <STRUCTURE_SMILES>
S=P(OC)(OC)OC1=NC(Cl)=C(Cl)C=C1Cl

> <STRUCTURE_Parent_SMILES>
S=P(OC)(OC)OC1=NC(Cl)=C(Cl)C=C1Cl

> <STRUCTURE_InChIS>
InChI=1S/C7H7Cl3NO3PS/c1-12-15(16,13-2)14-7-5(9)3-4(8)6(10)11-7/h3H,1-2H3

> <STRUCTURE_InChIKey>
HRBKVYFZANMGRE-UHFFFAOYSA-N

> <Substance_modify_yyyymmdd>
20080429

> <Coord_Metals>
0

> <Index>
623

> <Canonical_Smiles>
COP(=S)(OC)Oc1nc(Cl)c(Cl)cc1Cl

> <Molecular_Weight>
322.53314

> <Frequency>
1

$$$$

  SciTegic          2D

 37 38  0  0  0  0            999 V2000
    3.8933   -3.7570    0.0000 C   0  0
    2.5951   -3.0039    0.0000 C   0  0
    3.9200   -2.2388    0.0000 C   0  0
    4.7602   -3.2585    0.0000 O   0  0
    3.8912   -5.2578    0.0000 O   0  0
    2.5973   -1.5031    0.0000 O   0  0
    1.2990   -0.7500    0.0000 C   0  0
    1.2990    0.7500    0.0000 C   0  0
    0.0000   -1.5000    0.0000 C   0  0
    0.0000    1.5000    0.0000 C   0  0
   -1.2990   -0.7500    0.0000 C   0  0
   -1.2990    0.7500    0.0000 C   0  0
   -2.6003    1.4977    0.0000 O   0  0
   -3.8939   -0.7546    0.0000 N   0  0
   -5.1903   -1.5091    0.0000 C   0  0
   -3.8990    0.7455    0.0000 C   0  0
   -5.2007    1.4909    0.0000 C   0  0
   -6.4920   -0.7636    0.0000 C   0  0
   -6.4972    0.7364    0.0000 C   0  0
   -7.5291   -1.3672    0.0000 Cl  0  0
   -5.2049    2.6909    0.0000 F   0  0
    5.1894   -6.0109    0.0000 C   0  0
    5.1873   -7.5117    0.0000 C   0  0
    5.1851   -9.0125    0.0000 C   0  0
    1.7282   -3.5024    0.0000 H   0  0
    3.9205   -1.2388    0.0000 H   0  0
    4.7862   -1.7390    0.0000 H   0  0
    4.7860   -2.7389    0.0000 H   0  0
    2.1651    1.2500    0.0000 H   0  0
    0.0000   -2.5000    0.0000 H   0  0
    0.0000    2.5000    0.0000 H   0  0
   -2.1651   -1.2500    0.0000 H   0  0
   -5.1869   -2.5091    0.0000 H   0  0
   -7.3649    1.2334    0.0000 H   0  0
    6.0563   -5.5124    0.0000 H   0  0
    5.1913   -5.0109    0.0000 H   0  0
    5.1837  -10.0125    0.0000 H   0  0
  1  2  1  0
  1  5  1  0
  1  4  2  0
  2  3  1  0
  2  6  1  0
  5 22  1  0
  6  7  1  0
  7  8  2  0
  7  9  1  0
  8 10  1  0
  9 11  2  0
 10 12  2  0
 11 12  1  0
 12 13  1  0
 13 16  1  0
 14 15  1  0
 14 16  2  0
 15 18  2  0
 16 17  1  0
 17 19  2  0
 17 21  1  0
 18 19  1  0
 18 20  1  0
 22 23  1  0
 23 24  3  0
  2 25  1  0
  3 26  1  0
  3 27  1  0
  3 28  1  0
  8 29  1  0
  9 30  1  0
 10 31  1  0
 11 32  1  0
 15 33  1  0
 19 34  1  0
 22 35  1  0
 22 36  1  0
 24 37  1  0
V    1 0
V    2 1
V    3 2
V    4 3
V    5 4
V    6 5
V    7 6
V    8 7
V    9 8
V   10 9
V   11 10
V   12 11
V   13 12
V   14 13
V   15 14
V   16 15
V   17 16
V   18 17
V   19 18
V   20 19
V   21 20
V   22 21
V   23 22
V   24 23
M  END
> <DSSTox_RID>
65303

> <DSSTox_CID>
12354

> <DSSTox_CID_Parent>
12354

> <DSSTox_Generic_SID>
32354

> <DSSTox_FileID>
624_TXCST2_v1a

> <STRUCTURE_Formula>
C17H13ClFNO4

> <STRUCTURE_MolecularWeight>
349.7408

> <STRUCTURE_ChemicalType>
defined organic

> <STRUCTURE_TestedForm_DefinedOrganic>
parent

> <STRUCTURE_Shown>
tested chemical

> <TestSubstance_ChemicalName>
Clodinafop-propargyl

> <TestSubstance_CASRN>
105512-06-9

> <TestSubstance_Description>
single chemical compound

> <ChemicalNote>
stereochem, commonly used pesticide formulations 95% (2R); 5% (2S), structure shown (2R); CASRN for (2R) [105512-06-9]; CASRN for a mixture of stereoisomers [105511-96-4]

> <Source_ChemicalNote>
tested chemical contained 0.4% water (0.08 moles H2O)

> <STRUCTURE_ChemicalName_IUPAC>
prop-2-yn-1-yl (2R)-2-{4-[(5-chloro-3-fluoropyridin-2-yl)oxy]phenoxy}propanoate

> <STRUCTURE_SMILES>
O=C(OCC#C)[C@H](OC1=CC=C(OC2=NC=C(Cl)C=C2F)C=C1)C

> <STRUCTURE_Parent_SMILES>
O=C(OCC#C)[C@H](OC1=CC=C(OC2=NC=C(Cl)C=C2F)C=C1)C

> <STRUCTURE_InChIS>
InChI=1S/C17H13ClFNO4/c1-3-8-22-17(21)11(2)23-13-4-6-14(7-5-13)24-16-15(19)9-12(18)10-20-16/h1,4-7,9-11H,8H2,2H3/t11-/m1/s1

> <STRUCTURE_InChIKey>
JBDHZKLJNAIJNC-LLVKDONJSA-N

> <Substance_modify_yyyymmdd>
20080429

> <Coord_Metals>
0

> <Index>
624

> <Canonical_Smiles>
CC(Oc1ccc(Oc2ncc(Cl)cc2F)cc1)C(=O)OCC#C

> <Molecular_Weight>
349.74082

> <Frequency>
1

$$$$

  SciTegic          2D

 30 31  0  0  0  0            999 V2000
    3.8990   -0.7508    0.0000 N   0  0
    5.2499   -1.3728    0.0000 C   0  0
    6.2543   -0.2587    0.0000 C   0  0
    4.0377    0.7299    0.0000 O   0  0
    2.5988   -1.5004    0.0000 C   0  0
    1.2990   -0.7500    0.0000 C   0  0
    5.5052    1.0408    0.0000 C   0  0
    5.4917   -2.5481    0.0000 O   0  0
    1.2990    0.7500    0.0000 C   0  0
    2.3383    1.3500    0.0000 Cl  0  0
    7.1101    0.9580    0.0000 C   0  0
    6.8370   -1.6277    0.0000 C   0  0
    0.0000   -1.5000    0.0000 C   0  0
    0.0000    1.5000    0.0000 C   0  0
   -1.2990   -0.7500    0.0000 C   0  0
   -1.2990    0.7500    0.0000 C   0  0
    2.5985   -2.5004    0.0000 H   0  0
    3.4646   -2.0008    0.0000 H   0  0
    6.5012    1.1298    0.0000 H   0  0
    4.9059    1.8414    0.0000 H   0  0
    6.7043    1.8720    0.0000 H   0  0
    7.6986    1.7665    0.0000 H   0  0
    8.1045    0.8528    0.0000 H   0  0
    7.8314   -1.7336    0.0000 H   0  0
    7.2427   -2.5417    0.0000 H   0  0
    6.2484   -2.4361    0.0000 H   0  0
    0.0000   -2.5000    0.0000 H   0  0
    0.0000    2.5000    0.0000 H   0  0
   -2.1651   -1.2500    0.0000 H   0  0
   -2.1651    1.2500    0.0000 H   0  0
  1  2  1  0
  1  4  1  0
  1  5  1  0
  2  3  1  0
  2  8  2  0
  3 11  1  0
  3 12  1  0
  3  7  1  0
  4  7  1  0
  5  6  1  0
  6  9  2  0
  6 13  1  0
  9 10  1  0
  9 14  1  0
 13 15  2  0
 14 16  2  0
 15 16  1  0
  5 17  1  0
  5 18  1  0
  7 19  1  0
  7 20  1  0
 11 21  1  0
 11 22  1  0
 11 23  1  0
 12 24  1  0
 12 25  1  0
 12 26  1  0
 13 27  1  0
 14 28  1  0
 15 29  1  0
 16 30  1  0
V    1 0
V    2 1
V    3 2
V    4 3
V    5 4
V    6 5
V    7 6
V    8 7
V    9 8
V   10 9
V   11 10
V   12 11
V   13 12
V   14 13
V   15 14
V   16 15
M  END
> <DSSTox_RID>
62337

> <DSSTox_CID>
12355

> <DSSTox_CID_Parent>
12355

> <DSSTox_Generic_SID>
32355

> <DSSTox_FileID>
625_TXCST2_v1a

> <STRUCTURE_Formula>
C12H14ClNO2

> <STRUCTURE_MolecularWeight>
239.6981

> <STRUCTURE_ChemicalType>
defined organic

> <STRUCTURE_TestedForm_DefinedOrganic>
parent

> <STRUCTURE_Shown>
tested chemical

> <TestSubstance_ChemicalName>
Clomazone

> <TestSubstance_CASRN>
81777-89-1

> <TestSubstance_Description>
single chemical compound

> <STRUCTURE_ChemicalName_IUPAC>
2-(2-chlorobenzyl)-4,4-dimethylisoxazolidin-3-one

> <STRUCTURE_SMILES>
O=C1N(CC(C=CC=C2)=C2Cl)OCC(C)1C

> <STRUCTURE_Parent_SMILES>
O=C1N(CC(C=CC=C2)=C2Cl)OCC(C)1C

> <STRUCTURE_InChIS>
InChI=1S/C12H14ClNO2/c1-12(2)8-16-14(11(12)15)7-9-5-3-4-6-10(9)13/h3-6H,7-8H2,1-2H3

> <STRUCTURE_InChIKey>
KIEDNEWSYUYDSN-UHFFFAOYSA-N

> <Substance_modify_yyyymmdd>
20080429

> <Coord_Metals>
0

> <Index>
625

> <Canonical_Smiles>
CC1(C)CON(Cc2ccccc2Cl)C1=O

> <Molecular_Weight>
239.69805

> <Frequency>
1

$$$$

  SciTegic          2D

 35 35  0  0  0  0            999 V2000
    0.8068   -3.3033    0.0000 C   0  0
   -0.1781   -3.1298    0.0000 O   0  0
    1.7710   -2.1532    0.0000 N   0  0
    1.3198   -4.7137    0.0000 S   0  0
    1.2990   -0.7500    0.0000 C   0  0
    1.2990    0.7500    0.0000 C   0  0
    0.0000    1.5000    0.0000 C   0  0
   -1.2990    0.7500    0.0000 C   0  0
   -1.2990   -0.7500    0.0000 C   0  0
    0.0000   -1.5000    0.0000 C   0  0
    3.2485   -2.4167    0.0000 C   0  0
    4.2162   -1.2695    0.0000 C   0  0
    0.3556   -5.8638    0.0000 C   0  0
    0.8686   -7.2743    0.0000 C   0  0
    2.1526   -0.2289    0.0000 H   0  0
    0.4215    0.2706    0.0000 H   0  0
    1.2755    1.7497    0.0000 H   0  0
    0.8776    1.9794    0.0000 H   0  0
   -0.8775    1.9795    0.0000 H   0  0
   -0.4451    0.2297    0.0000 H   0  0
   -2.1531    0.2298    0.0000 H   0  0
   -2.1530   -0.2297    0.0000 H   0  0
   -1.2755   -1.7497    0.0000 H   0  0
    0.0236   -0.5003    0.0000 H   0  0
    0.8775   -1.9795    0.0000 H   0  0
    2.6041   -3.1814    0.0000 H   0  0
    3.5884   -3.3572    0.0000 H   0  0
    5.2006   -1.4450    0.0000 H   0  0
    4.8606   -0.5048    0.0000 H   0  0
    3.8763   -0.3290    0.0000 H   0  0
   -0.6293   -5.6903    0.0000 H   0  0
    0.0133   -4.9242    0.0000 H   0  0
    0.2261   -8.0406    0.0000 H   0  0
    1.8534   -7.4478    0.0000 H   0  0
    1.2109   -8.2139    0.0000 H   0  0
  1  2  2  0
  1  4  1  0
  1  3  1  0
  3  5  1  0
  3 11  1  0
  4 13  1  0
  5  6  1  0
  5 10  1  0
  6  7  1  0
  7  8  1  0
  8  9  1  0
  9 10  1  0
 11 12  1  0
 13 14  1  0
  5 15  1  0
  6 16  1  0
  6 17  1  0
  7 18  1  0
  7 19  1  0
  8 20  1  0
  8 21  1  0
  9 22  1  0
  9 23  1  0
 10 24  1  0
 10 25  1  0
 11 26  1  0
 11 27  1  0
 12 28  1  0
 12 29  1  0
 12 30  1  0
 13 31  1  0
 13 32  1  0
 14 33  1  0
 14 34  1  0
 14 35  1  0
V    1 0
V    2 1
V    3 2
V    4 3
V    5 4
V    6 5
V    7 6
V    8 7
V    9 8
V   10 9
V   11 10
V   12 11
V   13 12
V   14 13
M  END
> <DSSTox_RID>
65453

> <DSSTox_CID>
12356

> <DSSTox_CID_Parent>
12356

> <DSSTox_Generic_SID>
32356

> <DSSTox_FileID>
626_TXCST2_v1a

> <STRUCTURE_Formula>
C11H21NOS

> <STRUCTURE_MolecularWeight>
215.3555

> <STRUCTURE_ChemicalType>
defined organic

> <STRUCTURE_TestedForm_DefinedOrganic>
parent

> <STRUCTURE_Shown>
tested chemical

> <TestSubstance_ChemicalName>
Cycloate

> <TestSubstance_CASRN>
1134-23-2

> <TestSubstance_Description>
single chemical compound

> <STRUCTURE_ChemicalName_IUPAC>
S-ethyl cyclohexyl(ethyl)thiocarbamate

> <STRUCTURE_SMILES>
O=C(N(CC)C1CCCCC1)SCC

> <STRUCTURE_Parent_SMILES>
O=C(N(CC)C1CCCCC1)SCC

> <STRUCTURE_InChIS>
InChI=1S/C11H21NOS/c1-3-12(11(13)14-4-2)10-8-6-5-7-9-10/h10H,3-9H2,1-2H3

> <STRUCTURE_InChIKey>
DFCAFRGABIXSDS-UHFFFAOYSA-N

> <Substance_modify_yyyymmdd>
20080429

> <Coord_Metals>
0

> <Index>
626

> <Canonical_Smiles>
CCSC(=O)N(CC)C1CCCCC1

> <Molecular_Weight>
215.35553

> <Frequency>
1

$$$$

  SciTegic          2D

 24 23  0  0  0  0            999 V2000
    5.2000    0.0000    0.0000 C   0  0
    6.5000    0.7500    0.0000 C   0  0
    3.9000    0.7500    0.0000 N   0  0
    5.2000   -1.5008    0.0000 C   0  0
    7.7999    0.0000    0.0000 N   0  0
    6.5000    1.9500    0.0000 O   0  0
    2.6000    0.0000    0.0000 O   0  0
    5.2000   -2.7008    0.0000 N   0  0
    9.0999    0.7500    0.0000 C   0  0
    1.3000    0.7500    0.0000 C   0  0
   10.3999    0.0000    0.0000 N   0  0
    9.0999    1.9500    0.0000 O   0  0
   11.6999    0.7500    0.0000 C   0  0
   12.9999    0.0000    0.0000 C   0  0
    7.7999   -1.0000    0.0000 H   0  0
    0.4338    0.2503    0.0000 H   0  0
    1.3000    1.7500    0.0000 H   0  0
    0.4340    1.2501    0.0000 H   0  0
   10.3999   -1.0000    0.0000 H   0  0
   10.8340    1.2501    0.0000 H   0  0
   11.6999    1.7500    0.0000 H   0  0
   13.8661    0.4997    0.0000 H   0  0
   13.8658   -0.5001    0.0000 H   0  0
   12.9999   -1.0000    0.0000 H   0  0
  1  2  1  0
  1  3  2  0
  1  4  1  0
  2  5  1  0
  2  6  2  0
  3  7  1  0
  4  8  3  0
  5  9  1  0
  7 10  1  0
  9 11  1  0
  9 12  2  0
 11 13  1  0
 13 14  1  0
  5 15  1  0
 10 16  1  0
 10 17  1  0
 10 18  1  0
 11 19  1  0
 13 20  1  0
 13 21  1  0
 14 22  1  0
 14 23  1  0
 14 24  1  0
V    1 0
V    2 1
V    3 2
V    4 3
V    5 4
V    6 5
V    7 6
V    8 7
V    9 8
V   10 9
V   11 10
V   12 11
V   13 12
V   14 13
M  END
> <DSSTox_RID>
62371

> <DSSTox_CID>
12358

> <DSSTox_CID_Parent>
12358

> <DSSTox_Generic_SID>
32358

> <DSSTox_FileID>
627_TXCST2_v1a

> <STRUCTURE_Formula>
C7H10N4O3

> <STRUCTURE_MolecularWeight>
198.1793

> <STRUCTURE_ChemicalType>
defined organic

> <STRUCTURE_TestedForm_DefinedOrganic>
parent

> <STRUCTURE_Shown>
tested chemical

> <TestSubstance_ChemicalName>
Cymoxanil

> <TestSubstance_CASRN>
57966-95-7

> <TestSubstance_Description>
single chemical compound

> <STRUCTURE_ChemicalName_IUPAC>
(2E)-2-cyano-N-(ethylcarbamoyl)-2-(methoxyimino)acetamide

> <STRUCTURE_SMILES>
O=C(NC(NCC)=O)/C(C#N)=N/OC

> <STRUCTURE_Parent_SMILES>
O=C(NC(NCC)=O)/C(C#N)=N/OC

> <STRUCTURE_InChIS>
InChI=1S/C7H10N4O3/c1-3-9-7(13)10-6(12)5(4-8)11-14-2/h3H2,1-2H3,(H2,9,10,12,13)/b11-5+

> <STRUCTURE_InChIKey>
XERJKGMBORTKEO-VZUCSPMQSA-N

> <Substance_modify_yyyymmdd>
20080429

> <Coord_Metals>
0

> <Index>
627

> <Canonical_Smiles>
CCNC(=O)NC(=O)C(=NOC)C#N

> <Molecular_Weight>
198.17929

> <Frequency>
1

$$$$

  SciTegic          2D

 32 34  0  0  0  0            999 V2000
    1.2990   -0.7500    0.0000 C   0  0
    2.5989   -1.5003    0.0000 C   0  0
    1.2990    0.7500    0.0000 N   0  0
    0.0000   -1.5000    0.0000 C   0  0
    1.8502   -2.6671    0.0000 C   0  0
    3.3502   -2.6655    0.0000 C   0  0
    0.0000    1.5000    0.0000 C   0  0
   -1.2990   -0.7500    0.0000 C   0  0
   -0.0031    3.0008    0.0000 N   0  0
   -1.2990    0.7500    0.0000 N   0  0
   -2.5988   -1.5004    0.0000 C   0  0
   -1.3039    3.7494    0.0000 C   0  0
   -1.3092    5.2494    0.0000 C   0  0
   -2.6005    2.9949    0.0000 C   0  0
   -2.6108    5.9949    0.0000 C   0  0
   -3.9021    3.7404    0.0000 C   0  0
   -3.9073    5.2404    0.0000 C   0  0
    3.4639   -0.9985    0.0000 H   0  0
    0.0000   -2.5000    0.0000 H   0  0
    0.9892   -2.1585    0.0000 H   0  0
    1.8142   -3.6665    0.0000 H   0  0
    4.2100   -2.1549    0.0000 H   0  0
    3.3884   -3.6647    0.0000 H   0  0
    0.8620    3.5023    0.0000 H   0  0
   -2.5994   -2.5004    0.0000 H   0  0
   -3.4647   -1.0002    0.0000 H   0  0
   -3.4650   -2.0000    0.0000 H   0  0
   -0.4449    5.7524    0.0000 H   0  0
   -2.5970    1.9949    0.0000 H   0  0
   -2.6143    6.9949    0.0000 H   0  0
   -4.7664    3.2374    0.0000 H   0  0
   -4.7750    5.7374    0.0000 H   0  0
  1  2  1  0
  1  3  2  0
  1  4  1  0
  2  5  1  0
  2  6  1  0
  3  7  1  0
  4  8  2  0
  5  6  1  0
  7  9  1  0
  7 10  2  0
  8 11  1  0
  8 10  1  0
  9 12  1  0
 12 13  2  0
 12 14  1  0
 13 15  1  0
 14 16  2  0
 15 17  2  0
 16 17  1  0
  2 18  1  0
  4 19  1  0
  5 20  1  0
  5 21  1  0
  6 22  1  0
  6 23  1  0
  9 24  1  0
 11 25  1  0
 11 26  1  0
 11 27  1  0
 13 28  1  0
 14 29  1  0
 15 30  1  0
 16 31  1  0
 17 32  1  0
V    1 0
V    2 1
V    3 2
V    4 3
V    5 4
V    6 5
V    7 6
V    8 7
V    9 8
V   10 9
V   11 10
V   12 11
V   13 12
V   14 13
V   15 14
V   16 15
V   17 16
M  END
> <DSSTox_RID>
59517

> <DSSTox_CID>
12359

> <DSSTox_CID_Parent>
12359

> <DSSTox_Generic_SID>
32359

> <DSSTox_FileID>
628_TXCST2_v1a

> <STRUCTURE_Formula>
C14H15N3

> <STRUCTURE_MolecularWeight>
225.289

> <STRUCTURE_ChemicalType>
defined organic

> <STRUCTURE_TestedForm_DefinedOrganic>
parent

> <STRUCTURE_Shown>
tested chemical

> <TestSubstance_ChemicalName>
Cyprodinil

> <TestSubstance_CASRN>
121552-61-2

> <TestSubstance_Description>
single chemical compound

> <STRUCTURE_ChemicalName_IUPAC>
4-cyclopropyl-6-methyl-N-phenylpyrimidin-2-amine

> <STRUCTURE_SMILES>
CC1=NC(NC3=CC=CC=C3)=NC(C2CC2)=C1

> <STRUCTURE_Parent_SMILES>
CC1=NC(NC3=CC=CC=C3)=NC(C2CC2)=C1

> <STRUCTURE_InChIS>
InChI=1S/C14H15N3/c1-10-9-13(11-7-8-11)17-14(15-10)16-12-5-3-2-4-6-12/h2-6,9,11H,7-8H2,1H3,(H,15,16,17)

> <STRUCTURE_InChIKey>
HAORKNGNJCEJBX-UHFFFAOYSA-N

> <Substance_modify_yyyymmdd>
20080429

> <Coord_Metals>
0

> <Index>
628

> <Canonical_Smiles>
Cc1cc(nc(Nc2ccccc2)n1)C3CC3

> <Molecular_Weight>
225.28899

> <Frequency>
1

$$$$

  SciTegic          2D

 10  9  0  0  0  0            999 V2000
    1.3000    0.7500    0.0000 C   0  0
    0.2606    0.1503    0.0000 N   0  0
    2.6000    1.5000    0.0000 C   0  0
    2.6000    2.7000    0.0000 Br  0  0
    1.5608    2.1002    0.0000 Br  0  0
    3.9000    0.7500    0.0000 C   0  0
    3.9000   -0.4500    0.0000 O   0  0
    5.2000    1.5000    0.0000 N   0  0
    6.0661    1.0003    0.0000 H   0  0
    5.2000    2.5000    0.0000 H   0  0
  1  2  3  0
  1  3  1  0
  3  4  1  0
  3  5  1  0
  3  6  1  0
  6  7  2  0
  6  8  1  0
  8  9  1  0
  8 10  1  0
V    1 0
V    2 1
V    3 2
V    4 3
V    5 4
V    6 5
V    7 6
V    8 7
M  END
> <DSSTox_RID>
62423

> <DSSTox_CID>
12361

> <DSSTox_CID_Parent>
12361

> <DSSTox_Generic_SID>
32361

> <DSSTox_FileID>
629_TXCST2_v1a

> <STRUCTURE_Formula>
C3H2Br2N2O

> <STRUCTURE_MolecularWeight>
241.8688

> <STRUCTURE_ChemicalType>
defined organic

> <STRUCTURE_TestedForm_DefinedOrganic>
parent

> <STRUCTURE_Shown>
tested chemical

> <TestSubstance_ChemicalName>
2,2-Dibromo-3-nitrilopropionamide

> <TestSubstance_CASRN>
10222-01-2

> <TestSubstance_Description>
single chemical compound

> <STRUCTURE_ChemicalName_IUPAC>
2,2-dibromo-2-cyanoacetamide

> <STRUCTURE_SMILES>
N#CC(Br)(C(N)=O)Br

> <STRUCTURE_Parent_SMILES>
N#CC(Br)(C(N)=O)Br

> <STRUCTURE_InChIS>
InChI=1S/C3H2Br2N2O/c4-3(5,1-6)2(7)8/h(H2,7,8)

> <STRUCTURE_InChIKey>
UUIVKBHZENILKB-UHFFFAOYSA-N

> <Substance_modify_yyyymmdd>
20080429

> <Coord_Metals>
0

> <Index>
629

> <Canonical_Smiles>
NC(=O)C(Br)(Br)C#N

> <Molecular_Weight>
241.86877

> <Frequency>
1

$$$$

  SciTegic          2D

 13 13  0  0  0  0            999 V2000
    1.2990   -0.7500    0.0000 C   0  0
    2.5988   -1.5004    0.0000 C   0  0
    3.6380   -2.1004    0.0000 N   0  0
    1.2990    0.7500    0.0000 C   0  0
    0.0000   -1.5000    0.0000 C   0  0
    0.0000   -2.7000    0.0000 Cl  0  0
    2.3383    1.3500    0.0000 Cl  0  0
   -1.2990    0.7500    0.0000 C   0  0
   -1.2990   -0.7500    0.0000 C   0  0
    0.0000    1.5000    0.0000 C   0  0
   -2.1651    1.2500    0.0000 H   0  0
   -2.1651   -1.2500    0.0000 H   0  0
    0.0000    2.5000    0.0000 H   0  0
  1  2  1  0
  1  4  1  0
  1  5  2  0
  2  3  3  0
  4  7  1  0
  4 10  2  0
  5  6  1  0
  5  9  1  0
  8  9  2  0
  8 10  1  0
  8 11  1  0
  9 12  1  0
 10 13  1  0
V    1 0
V    2 1
V    3 2
V    4 3
V    5 4
V    6 5
V    7 6
V    8 7
V    9 8
V   10 9
M  END
> <DSSTox_RID>
62374

> <DSSTox_CID>
12365

> <DSSTox_CID_Parent>
12365

> <DSSTox_Generic_SID>
32365

> <DSSTox_FileID>
630_TXCST2_v1a

> <STRUCTURE_Formula>
C7H3Cl2N

> <STRUCTURE_MolecularWeight>
172.0114

> <STRUCTURE_ChemicalType>
defined organic

> <STRUCTURE_TestedForm_DefinedOrganic>
parent

> <STRUCTURE_Shown>
tested chemical

> <TestSubstance_ChemicalName>
Dichlobenil

> <TestSubstance_CASRN>
1194-65-6

> <TestSubstance_Description>
single chemical compound

> <STRUCTURE_ChemicalName_IUPAC>
2,6-dichlorobenzonitrile

> <STRUCTURE_SMILES>
N#CC(C(Cl)=CC=C1)=C1Cl

> <STRUCTURE_Parent_SMILES>
N#CC(C(Cl)=CC=C1)=C1Cl

> <STRUCTURE_InChIS>
InChI=1S/C7H3Cl2N/c8-6-2-1-3-7(9)5(6)4-10/h1-3H

> <STRUCTURE_InChIKey>
YOYAIZYFCNQIRF-UHFFFAOYSA-N

> <Substance_modify_yyyymmdd>
20080429

> <Coord_Metals>
0

> <Index>
630

> <Canonical_Smiles>
Clc1cccc(Cl)c1C#N

> <Molecular_Weight>
172.01141

> <Frequency>
1

$$$$

  SciTegic          2D

 44 47  0  0  0  0            999 V2000
    3.8951   -3.7545    0.0000 C   0  0
    3.8952   -5.2558    0.0000 C   0  0
    2.5955   -3.0038    0.0000 C   0  0
    1.2951   -3.7531    0.0000 N   0  0
    3.9969   -2.2946    0.0000 O   0  0
   -1.0603   -4.2447    0.0000 N   0  0
    5.2103   -4.3965    0.0000 O   0  0
    5.1930   -6.0080    0.0000 C   0  0
    1.1561   -5.2338    0.0000 N   0  0
   -0.3114   -5.5444    0.0000 C   0  0
   -0.0556   -3.1308    0.0000 C   0  0
    5.1904   -7.5080    0.0000 C   0  0
    2.5949   -6.0035    0.0000 C   0  0
    3.8900   -8.2558    0.0000 C   0  0
    3.8843   -9.7566    0.0000 O   0  0
    6.2140   -3.2819    0.0000 C   0  0
    6.2332   -5.4098    0.0000 Cl  0  0
    5.4641   -1.9828    0.0000 C   0  0
    2.5923   -7.5035    0.0000 C   0  0
    2.5822  -10.5029    0.0000 C   0  0
   -0.0237  -11.9894    0.0000 C   0  0
   -1.0661  -12.5840    0.0000 Cl  0  0
    2.5743  -12.0029    0.0000 C   0  0
    1.2870   -9.7462    0.0000 C   0  0
    1.2714  -12.7461    0.0000 C   0  0
   -0.0159  -10.4894    0.0000 C   0  0
    4.5708   -0.7935    0.0000 C   0  0
    1.7299   -2.5032    0.0000 H   0  0
    2.5961   -2.0038    0.0000 H   0  0
   -0.7190   -6.4576    0.0000 H   0  0
   -0.2569   -2.1513    0.0000 H   0  0
    6.0555   -8.0095    0.0000 H   0  0
    1.7297   -5.5020    0.0000 H   0  0
    6.7897   -2.4642    0.0000 H   0  0
    6.6071   -4.2014    0.0000 H   0  0
    6.4602   -1.8941    0.0000 H   0  0
    1.7254   -8.0020    0.0000 H   0  0
    3.4377  -12.5074    0.0000 H   0  0
    1.2922   -8.7462    0.0000 H   0  0
    1.2662  -13.7461    0.0000 H   0  0
   -0.8793   -9.9849    0.0000 H   0  0
    3.5762   -0.8975    0.0000 H   0  0
    3.9832    0.0157    0.0000 H   0  0
    4.9776    0.1200    0.0000 H   0  0
  1  2  1  0
  1  3  1  0
  1  5  1  0
  1  7  1  0
  2  8  2  0
  2 13  1  0
  3  4  1  0
  4  9  1  0
  4 11  1  0
  5 18  1  0
  6 11  2  0
  6 10  1  0
  7 16  1  0
  8 12  1  0
  8 17  1  0
  9 10  2  0
 12 14  2  0
 13 19  2  0
 14 19  1  0
 14 15  1  0
 15 20  1  0
 16 18  1  0
 18 27  1  0
 20 23  1  0
 20 24  2  0
 21 25  1  0
 21 22  1  0
 21 26  2  0
 23 25  2  0
 24 26  1  0
  3 28  1  0
  3 29  1  0
 10 30  1  0
 11 31  1  0
 12 32  1  0
 13 33  1  0
 16 34  1  0
 16 35  1  0
 18 36  1  0
 19 37  1  0
 23 38  1  0
 24 39  1  0
 25 40  1  0
 26 41  1  0
 27 42  1  0
 27 43  1  0
 27 44  1  0
V    1 0
V    2 1
V    3 2
V    4 3
V    5 4
V    6 5
V    7 6
V    8 7
V    9 8
V   10 9
V   11 10
V   12 11
V   13 12
V   14 13
V   15 14
V   16 15
V   17 16
V   18 17
V   19 18
V   20 19
V   21 20
V   22 21
V   23 22
V   24 23
V   25 24
V   26 25
V   27 26
M  END
> <DSSTox_RID>
65270

> <DSSTox_CID>
12372

> <DSSTox_CID_Parent>
12372

> <DSSTox_Generic_SID>
32372

> <DSSTox_FileID>
631_TXCST2_v1a

> <STRUCTURE_Formula>
C19H17Cl2N3O3

> <STRUCTURE_MolecularWeight>
406.2626

> <STRUCTURE_ChemicalType>
defined organic

> <STRUCTURE_TestedForm_DefinedOrganic>
parent

> <STRUCTURE_Shown>
tested chemical

> <TestSubstance_ChemicalName>
Difenoconazole

> <TestSubstance_CASRN>
119446-68-3

> <TestSubstance_Description>
single chemical compound

> <ChemicalNote>
mixture of stereoisomers [(2S,4R)/(2R,4S)]/[2R,4R/2S,4S)] (cis/trans) approx. 0.7 to1.5; structure shown without stereochem

> <Source_ChemicalNote>
tested chemical was a mixture of stereoisomers [(2S,4R)/(2R,4S)]/[2R,4R/2S,4S)] (cis/trans) approx. 0.7 to1.5

> <STRUCTURE_ChemicalName_IUPAC>
1-({2-[2-chloro-4-(4-chlorophenoxy)phenyl]-4-methyl-1,3-dioxolan-2-yl}methyl)-1H-1,2,4-triazole

> <STRUCTURE_SMILES>
ClC(C=C(OC4=CC=C(Cl)C=C4)C=C3)=C3C2(OC(C)CO2)CN1N=CN=C1

> <STRUCTURE_Parent_SMILES>
ClC(C=C(OC4=CC=C(Cl)C=C4)C=C3)=C3C2(OC(C)CO2)CN1N=CN=C1

> <STRUCTURE_InChIS>
InChI=1S/C19H17Cl2N3O3/c1-13-9-25-19(27-13,10-24-12-22-11-23-24)17-7-6-16(8-18(17)21)26-15-4-2-14(20)3-5-15/h2-8,11-13H,9-10H2,1H3

> <STRUCTURE_InChIKey>
BQYJATMQXGBDHF-UHFFFAOYSA-N

> <Substance_modify_yyyymmdd>
20080429

> <Coord_Metals>
0

> <Index>
631

> <Canonical_Smiles>
CC1COC(Cn2cncn2)(O1)c3ccc(Oc4ccc(Cl)cc4)cc3Cl

> <Molecular_Weight>
406.26258

> <Frequency>
1

$$$$

  SciTegic          2D

 35 35  0  0  0  0            999 V2000
   -2.6978    2.7886    0.0000 C   0  0
   -1.8022    3.5873    0.0000 O   0  0
   -3.8757    3.7186    0.0000 C   0  0
   -2.3923    1.3192    0.0000 N   0  0
   -4.9909    3.2754    0.0000 Cl  0  0
    0.7500   -1.0323    0.0000 S   0  0
    1.2135    0.3943    0.0000 C   0  0
   -0.7500   -1.0323    0.0000 C   0  0
   -1.2135    0.3943    0.0000 C   0  0
    0.0000    1.2760    0.0000 C   0  0
   -1.6306   -2.2444    0.0000 C   0  0
    0.0000    2.7742    0.0000 C   0  0
   -3.7853    0.7607    0.0000 C   0  0
   -4.9661    1.6872    0.0000 C   0  0
   -6.3591    1.1287    0.0000 O   0  0
   -7.5399    2.0552    0.0000 C   0  0
   -3.9977   -0.7249    0.0000 C   0  0
   -4.6603    4.3386    0.0000 H   0  0
   -3.7312    4.7081    0.0000 H   0  0
    2.1646    0.7033    0.0000 H   0  0
   -1.2245   -3.1582    0.0000 H   0  0
   -2.6251   -2.1396    0.0000 H   0  0
   -2.2188   -3.0531    0.0000 H   0  0
    0.8657    3.2748    0.0000 H   0  0
   -0.8662    3.2739    0.0000 H   0  0
   -0.0005    3.7742    0.0000 H   0  0
   -3.6438    1.7506    0.0000 H   0  0
   -4.8245    2.6771    0.0000 H   0  0
   -5.7525    2.3048    0.0000 H   0  0
   -8.4681    1.6831    0.0000 H   0  0
   -7.3983    3.0451    0.0000 H   0  0
   -8.3263    2.6728    0.0000 H   0  0
   -3.2116   -1.3430    0.0000 H   0  0
   -4.9259   -1.0970    0.0000 H   0  0
   -4.1397   -1.7148    0.0000 H   0  0
  1  2  2  0
  1  4  1  0
  1  3  1  0
  3  5  1  0
  4  9  1  0
  4 13  1  0
  6  7  1  0
  6  8  1  0
  7 10  2  0
  8  9  2  0
  8 11  1  0
  9 10  1  0
 10 12  1  0
 13 14  1  0
 13 17  1  0
 14 15  1  0
 15 16  1  0
  3 18  1  0
  3 19  1  0
  7 20  1  0
 11 21  1  0
 11 22  1  0
 11 23  1  0
 12 24  1  0
 12 25  1  0
 12 26  1  0
 13 27  1  0
 14 28  1  0
 14 29  1  0
 16 30  1  0
 16 31  1  0
 16 32  1  0
 17 33  1  0
 17 34  1  0
 17 35  1  0
V    1 0
V    2 1
V    3 2
V    4 3
V    5 4
V    6 5
V    7 6
V    8 7
V    9 8
V   10 9
V   11 10
V   12 11
V   13 12
V   14 13
V   15 14
V   16 15
V   17 16
M  END
> <DSSTox_RID>
65317

> <DSSTox_CID>
12376

> <DSSTox_CID_Parent>
12376

> <DSSTox_Generic_SID>
32376

> <DSSTox_FileID>
632_TXCST2_v1a

> <STRUCTURE_Formula>
C12H18ClNO2S

> <STRUCTURE_MolecularWeight>
275.7948

> <STRUCTURE_ChemicalType>
defined organic

> <STRUCTURE_TestedForm_DefinedOrganic>
parent

> <STRUCTURE_Shown>
tested chemical

> <TestSubstance_ChemicalName>
Dimethenamid

> <TestSubstance_CASRN>
87674-68-8

> <TestSubstance_Description>
single chemical compound

> <ChemicalNote>
mixture of (R,S) isomers; structure shown without stereochem

> <STRUCTURE_ChemicalName_IUPAC>
2-chloro-N-(2,4-dimethyl-3-thienyl)-N-(2-methoxy-1-methylethyl)acetamide

> <STRUCTURE_SMILES>
O=C(CCl)N(C(C)COC)C1=C(C)SC=C1C

> <STRUCTURE_Parent_SMILES>
O=C(CCl)N(C(C)COC)C1=C(C)SC=C1C

> <STRUCTURE_InChIS>
InChI=1S/C12H18ClNO2S/c1-8-7-17-10(3)12(8)14(11(15)5-13)9(2)6-16-4/h7,9H,5-6H2,1-4H3

> <STRUCTURE_InChIKey>
JLYFCTQDENRSOL-UHFFFAOYSA-N

> <Substance_modify_yyyymmdd>
20080429

> <Coord_Metals>
0

> <Index>
632

> <Canonical_Smiles>
COCC(C)N(C(=O)CCl)c1c(C)csc1C

> <Molecular_Weight>
275.79482

> <Frequency>
1

$$$$

  SciTegic          2D

 41 41  0  0  0  0            999 V2000
    1.2990   -0.7500    0.0000 N   0  0
    1.2990    0.7500    0.0000 C   0  0
    0.0000   -1.5000    0.0000 C   0  0
   -1.2990   -0.7500    0.0000 C   0  0
    0.0000    1.5000    0.0000 C   0  0
   -1.2990    0.7500    0.0000 C   0  0
   -2.7776   -1.0076    0.0000 C   0  0
   -3.5468   -0.0865    0.0000 O   0  0
   -2.7816   -2.5084    0.0000 S   0  0
   -0.0031    3.0008    0.0000 C   0  0
    1.0351    3.6026    0.0000 O   0  0
   -1.3039    3.7494    0.0000 S   0  0
    0.0000   -3.0008    0.0000 C   0  0
    1.0389   -3.6015    0.0000 F   0  0
   -1.0394   -3.6005    0.0000 F   0  0
   -2.5988    1.5004    0.0000 C   0  0
   -4.0770    1.2407    0.0000 C   0  0
   -4.5921   -0.1689    0.0000 C   0  0
   -5.0406    2.3913    0.0000 C   0  0
    2.5988    1.5004    0.0000 C   0  0
    3.6384    0.9011    0.0000 F   0  0
    2.5984    2.7004    0.0000 F   0  0
    3.6377    2.1009    0.0000 F   0  0
   -4.0829   -3.2562    0.0000 C   0  0
   -1.3070    5.2502    0.0000 C   0  0
   -0.0005   -4.0008    0.0000 H   0  0
   -1.7327    2.0003    0.0000 H   0  0
   -2.5985    2.5004    0.0000 H   0  0
   -3.4349    0.4741    0.0000 H   0  0
   -5.5770   -0.3420    0.0000 H   0  0
   -3.9500   -0.9356    0.0000 H   0  0
   -4.9348   -1.1084    0.0000 H   0  0
   -4.6982    3.3309    0.0000 H   0  0
   -6.0255    2.2182    0.0000 H   0  0
   -5.6830    3.1576    0.0000 H   0  0
   -4.0856   -4.2561    0.0000 H   0  0
   -4.9502   -3.7540    0.0000 H   0  0
   -4.9478   -2.7541    0.0000 H   0  0
   -2.1738    5.7490    0.0000 H   0  0
   -1.3086    6.2502    0.0000 H   0  0
   -0.4419    5.7517    0.0000 H   0  0
  1  2  2  0
  1  3  1  0
  2  5  1  0
  2 20  1  0
  3  4  2  0
  3 13  1  0
  4  6  1  0
  4  7  1  0
  5  6  2  0
  5 10  1  0
  6 16  1  0
  7  8  2  0
  7  9  1  0
  9 24  1  0
 10 11  2  0
 10 12  1  0
 12 25  1  0
 13 14  1  0
 13 15  1  0
 16 17  1  0
 17 18  1  0
 17 19  1  0
 20 21  1  0
 20 22  1  0
 20 23  1  0
 13 26  1  0
 16 27  1  0
 16 28  1  0
 17 29  1  0
 18 30  1  0
 18 31  1  0
 18 32  1  0
 19 33  1  0
 19 34  1  0
 19 35  1  0
 24 36  1  0
 24 37  1  0
 24 38  1  0
 25 39  1  0
 25 40  1  0
 25 41  1  0
V    1 0
V    2 1
V    3 2
V    4 3
V    5 4
V    6 5
V    7 6
V    8 7
V    9 8
V   10 9
V   11 10
V   12 11
V   13 12
V   14 13
V   15 14
V   16 15
V   17 16
V   18 17
V   19 18
V   20 19
V   21 20
V   22 21
V   23 22
V   24 23
V   25 24
M  END
> <DSSTox_RID>
62398

> <DSSTox_CID>
12379

> <DSSTox_CID_Parent>
12379

> <DSSTox_Generic_SID>
32379

> <DSSTox_FileID>
633_TXCST2_v1a

> <STRUCTURE_Formula>
C15H16F5NO2S2

> <STRUCTURE_MolecularWeight>
401.4151

> <STRUCTURE_ChemicalType>
defined organic

> <STRUCTURE_TestedForm_DefinedOrganic>
parent

> <STRUCTURE_Shown>
tested chemical

> <TestSubstance_ChemicalName>
Dithiopyr

> <TestSubstance_CASRN>
97886-45-8

> <TestSubstance_Description>
single chemical compound

> <STRUCTURE_ChemicalName_IUPAC>
S3,S5-dimethyl 2-(difluoromethyl)-4-isobutyl-6-(trifluoromethyl)pyridine-3,5-dicarbothioate

> <STRUCTURE_SMILES>
O=C(SC)C1=C(C(F)F)N=C(C(F)(F)F)C(C(SC)=O)=C1CC(C)C

> <STRUCTURE_Parent_SMILES>
O=C(SC)C1=C(C(F)F)N=C(C(F)(F)F)C(C(SC)=O)=C1CC(C)C

> <STRUCTURE_InChIS>
InChI=1S/C15H16F5NO2S2/c1-6(2)5-7-8(13(22)24-3)10(12(16)17)21-11(15(18,19)20)9(7)14(23)25-4/h6,12H,5H2,1-4H3

> <STRUCTURE_InChIKey>
YUBJPYNSGLJZPQ-UHFFFAOYSA-N

> <Substance_modify_yyyymmdd>
20080429

> <Coord_Metals>
0

> <Index>
633

> <Canonical_Smiles>
CSC(=O)c1c(CC(C)C)c(C(=O)SC)c(nc1C(F)F)C(F)(F)F

> <Molecular_Weight>
401.41505

> <Frequency>
1

$$$$

  SciTegic          2D

 37 37  0  0  0  0            999 V2000
    1.2990   -0.7500    0.0000 C   0  0
    0.0000    1.5000    0.0000 C   0  0
    1.2990    0.7500    0.0000 C   0  0
   -0.0031    3.0008    0.0000 N   0  0
    2.5973   -1.5031    0.0000 N   0  0
    2.5972    1.5031    0.0000 N   0  0
   -2.5988   -1.5004    0.0000 C   0  0
   -1.2990   -0.7500    0.0000 C   0  0
   -1.2990    0.7500    0.0000 C   0  0
    0.0000   -1.5000    0.0000 C   0  0
    1.0345    3.6036    0.0000 O   0  0
    2.5956   -2.7031    0.0000 O   0  0
    2.0819    2.9127    0.0000 C   0  0
   -1.0438    3.5984    0.0000 O   0  0
    3.4642   -1.0046    0.0000 O   0  0
    2.5923    4.3241    0.0000 C   0  0
   -2.5995   -2.7004    0.0000 F   0  0
   -3.6378   -0.9001    0.0000 F   0  0
   -3.6383   -2.0999    0.0000 F   0  0
    1.6260    5.4724    0.0000 C   0  0
    3.8968    0.7523    0.0000 C   0  0
    4.0693    4.5903    0.0000 C   0  0
    5.1972    1.5015    0.0000 C   0  0
   -2.1651    1.2500    0.0000 H   0  0
    0.0000   -2.5000    0.0000 H   0  0
    1.0968    3.0846    0.0000 H   0  0
    1.4403    2.1456    0.0000 H   0  0
    1.9660    6.4128    0.0000 H   0  0
    0.6415    5.2970    0.0000 H   0  0
    3.0305    0.2527    0.0000 H   0  0
    3.8961   -0.2477    0.0000 H   0  0
    4.4084    5.5311    0.0000 H   0  0
    5.0536    4.7672    0.0000 H   0  0
    4.7148    3.8265    0.0000 H   0  0
    6.0631    1.0012    0.0000 H   0  0
    5.1979    2.5015    0.0000 H   0  0
    6.0635    2.0011    0.0000 H   0  0
  1  3  2  0
  1  5  1  0
  1 10  1  0
  2  3  1  0
  2  4  1  0
  2  9  2  0
  3  6  1  0
  4 11  2  0
  4 14  2  0
  5 12  2  0
  5 15  2  0
  6 13  1  0
  6 21  1  0
  7  8  1  0
  7 17  1  0
  7 18  1  0
  7 19  1  0
  8 10  2  0
  8  9  1  0
 13 16  1  0
 16 20  2  0
 16 22  1  0
 21 23  1  0
  9 24  1  0
 10 25  1  0
 13 26  1  0
 13 27  1  0
 20 28  1  0
 20 29  1  0
 21 30  1  0
 21 31  1  0
 22 32  1  0
 22 33  1  0
 22 34  1  0
 23 35  1  0
 23 36  1  0
 23 37  1  0
V    1 0
V    2 1
V    3 2
V    4 3
V    5 4
V    6 5
V    7 6
V    8 7
V    9 8
V   10 9
V   11 10
V   12 11
V   13 12
V   14 13
V   15 14
V   16 15
V   17 16
V   18 17
V   19 18
V   20 19
V   21 20
V   22 21
V   23 22
M  END
> <DSSTox_RID>
62289

> <DSSTox_CID>
12386

> <DSSTox_CID_Parent>
12386

> <DSSTox_Generic_SID>
32386

> <DSSTox_FileID>
634_TXCST2_v1a

> <STRUCTURE_Formula>
C13H14F3N3O4

> <STRUCTURE_MolecularWeight>
333.2632

> <STRUCTURE_ChemicalType>
defined organic

> <STRUCTURE_TestedForm_DefinedOrganic>
parent

> <STRUCTURE_Shown>
tested chemical

> <TestSubstance_ChemicalName>
Ethalfluralin

> <TestSubstance_CASRN>
55283-68-6

> <TestSubstance_Description>
single chemical compound

> <STRUCTURE_ChemicalName_IUPAC>
N-ethyl-N-(2-methylprop-2-en-1-yl)-2,6-dinitro-4-(trifluoromethyl)aniline

> <STRUCTURE_SMILES>
[O-][N+](C1=CC(C(F)(F)F)=CC([N+]([O-])=O)=C1N(CC)CC(C)=C)=O

> <STRUCTURE_Parent_SMILES>
[O-][N+](C1=CC(C(F)(F)F)=CC([N+]([O-])=O)=C1N(CC)CC(C)=C)=O

> <STRUCTURE_InChIS>
InChI=1S/C13H14F3N3O4/c1-4-17(7-8(2)3)12-10(18(20)21)5-9(13(14,15)16)6-11(12)19(22)23/h5-6H,2,4,7H2,1,3H3

> <STRUCTURE_InChIKey>
PTFJIKYUEPWBMS-UHFFFAOYSA-N

> <Substance_modify_yyyymmdd>
20080429

> <Coord_Metals>
0

> <Index>
634

> <Canonical_Smiles>
CCN(CC(=C)C)c1c(cc(cc1N(=O)=O)C(F)(F)F)N(=O)=O

> <Molecular_Weight>
333.26316

> <Frequency>
1

$$$$

  SciTegic          2D

 34 36  0  0  0  0            999 V2000
    3.4468   -1.4695    0.0000 C   0  0
    2.1471   -2.2199    0.0000 C   0  0
    3.4478    0.0313    0.0000 C   0  0
    4.7463   -2.2203    0.0000 C   0  0
    1.1829   -1.0709    0.0000 C   0  0
    3.9006    2.5896    0.0000 N   0  0
    5.8897    0.9184    0.0000 N   0  0
    5.3776    2.3282    0.0000 C   0  0
    6.0456   -1.4707    0.0000 C   0  0
    4.7458   -3.7203    0.0000 C   0  0
    2.1235   -0.7016    0.0000 O   0  0
    4.9248   -0.2301    0.0000 C   0  0
    2.9356    1.4412    0.0000 C   0  0
    7.3439   -3.7211    0.0000 C   0  0
    1.5933    0.0568    0.0000 Cl  0  0
    6.0446   -4.4707    0.0000 C   0  0
    7.3444   -2.2211    0.0000 C   0  0
    8.3829   -4.3214    0.0000 Cl  0  0
    1.6341   -3.6295    0.0000 C   0  0
   -0.2943   -1.3313    0.0000 C   0  0
    0.1568   -3.8899    0.0000 C   0  0
   -0.8073   -2.7409    0.0000 C   0  0
    6.0209    3.0939    0.0000 H   0  0
    6.0459   -0.4707    0.0000 H   0  0
    3.8796   -4.2200    0.0000 H   0  0
    2.1251    0.2984    0.0000 H   0  0
    5.2663   -1.1700    0.0000 H   0  0
    1.9509    1.6154    0.0000 H   0  0
    6.0443   -5.4707    0.0000 H   0  0
    8.2106   -1.7214    0.0000 H   0  0
    2.2768   -4.3955    0.0000 H   0  0
   -0.9371   -0.5653    0.0000 H   0  0
   -0.1852   -4.8296    0.0000 H   0  0
   -1.7921   -2.9145    0.0000 H   0  0
  1  2  1  0
  1  3  1  0
  1  4  1  0
  1 11  1  0
  2  5  1  0
  2 19  2  0
  3 12  2  0
  3 13  1  0
  4  9  2  0
  4 10  1  0
  5 15  1  0
  5 20  2  0
  6 13  2  0
  6  8  1  0
  7 12  1  0
  7  8  2  0
  9 17  1  0
 10 16  2  0
 14 16  1  0
 14 18  1  0
 14 17  2  0
 19 21  1  0
 20 22  1  0
 21 22  2  0
  8 23  1  0
  9 24  1  0
 10 25  1  0
 11 26  1  0
 12 27  1  0
 13 28  1  0
 16 29  1  0
 17 30  1  0
 19 31  1  0
 20 32  1  0
 21 33  1  0
 22 34  1  0
V    1 0
V    2 1
V    3 2
V    4 3
V    5 4
V    6 5
V    7 6
V    8 7
V    9 8
V   10 9
V   11 10
V   12 11
V   13 12
V   14 13
V   15 14
V   16 15
V   17 16
V   18 17
V   19 18
V   20 19
V   21 20
V   22 21
M  END
> <DSSTox_RID>
62372

> <DSSTox_CID>
12390

> <DSSTox_CID_Parent>
12390

> <DSSTox_Generic_SID>
32390

> <DSSTox_FileID>
635_TXCST2_v1a

> <STRUCTURE_Formula>
C17H12Cl2N2O

> <STRUCTURE_MolecularWeight>
331.196

> <STRUCTURE_ChemicalType>
defined organic

> <STRUCTURE_TestedForm_DefinedOrganic>
parent

> <STRUCTURE_Shown>
tested chemical

> <TestSubstance_ChemicalName>
Fenarimol

> <TestSubstance_CASRN>
60168-88-9

> <TestSubstance_Description>
single chemical compound

> <ChemicalNote>
mixture of (R,S) isomers; structure shown without stereochem

> <Source_ChemicalNote>
tested chemical contained 0.0851% water (0.02 moles H2O)

> <STRUCTURE_ChemicalName_IUPAC>
(2-chlorophenyl)(4-chlorophenyl)pyrimidin-5-ylmethanol

> <STRUCTURE_SMILES>
OC(C2=CN=CN=C2)(C3=CC=C(Cl)C=C3)C1=CC=CC=C1Cl

> <STRUCTURE_Parent_SMILES>
OC(C2=CN=CN=C2)(C3=CC=C(Cl)C=C3)C1=CC=CC=C1Cl

> <STRUCTURE_InChIS>
InChI=1S/C17H12Cl2N2O/c18-14-7-5-12(6-8-14)17(22,13-9-20-11-21-10-13)15-3-1-2-4-16(15)19/h1-11,22H

> <STRUCTURE_InChIKey>
NHOWDZOIZKMVAI-UHFFFAOYSA-N

> <Substance_modify_yyyymmdd>
20080429

> <Coord_Metals>
0

> <Index>
635

> <Canonical_Smiles>
OC(c1ccc(Cl)cc1)(c2cncnc2)c3ccccc3Cl

> <Molecular_Weight>
331.19598

> <Frequency>
1

$$$$

  SciTegic          2D

 41 43  0  0  0  0            999 V2000
    6.9677    7.8794    0.0000 C   0  0
    6.2393    6.5672    0.0000 C   0  0
    7.7691    6.5897    0.0000 C   0  0
    7.9676    7.8960    0.0000 O   0  0
    6.1963    9.1669    0.0000 O   0  0
    7.0107    5.2798    0.0000 O   0  0
    6.2823    3.9676    0.0000 C   0  0
    7.0514    2.6798    0.0000 C   0  0
    4.7825    3.9454    0.0000 C   0  0
    6.3207    1.3698    0.0000 C   0  0
    4.0518    2.6354    0.0000 C   0  0
    4.8208    1.3475    0.0000 C   0  0
    4.0872    0.0382    0.0000 O   0  0
    1.7138   -1.2033    0.0000 N   0  0
    2.5889    0.0182    0.0000 C   0  0
    1.7138    1.2033    0.0000 O   0  0
    0.2917   -0.7475    0.0000 C   0  0
    0.2917    0.7475    0.0000 C   0  0
   -1.0028    1.5132    0.0000 C   0  0
   -2.3155    0.7475    0.0000 C   0  0
   -2.3155   -0.7475    0.0000 C   0  0
   -1.0028   -1.5132    0.0000 C   0  0
   -3.3560    1.3452    0.0000 Cl  0  0
    6.9247   10.4791    0.0000 C   0  0
    6.1534   11.7665    0.0000 C   0  0
    5.2395    6.5507    0.0000 H   0  0
    8.2823    5.7314    0.0000 H   0  0
    8.7690    6.6048    0.0000 H   0  0
    8.2561    7.4631    0.0000 H   0  0
    8.0513    2.6946    0.0000 H   0  0
    4.2697    4.8039    0.0000 H   0  0
    6.8335    0.5113    0.0000 H   0  0
    3.0519    2.6207    0.0000 H   0  0
   -0.9997    2.5132    0.0000 H   0  0
   -3.1826   -1.2456    0.0000 H   0  0
   -0.9997   -2.5132    0.0000 H   0  0
    7.9246   10.4956    0.0000 H   0  0
    7.4391    9.6215    0.0000 H   0  0
    6.6387   12.6408    0.0000 H   0  0
    5.1535   11.7499    0.0000 H   0  0
    5.6390   12.6240    0.0000 H   0  0
  1  2  1  0
  1  5  1  0
  1  4  2  0
  2  3  1  0
  2  6  1  0
  5 24  1  0
  6  7  1  0
  7  8  2  0
  7  9  1  0
  8 10  1  0
  9 11  2  0
 10 12  2  0
 11 12  1  0
 12 13  1  0
 13 15  1  0
 14 15  2  0
 14 17  1  0
 15 16  1  0
 16 18  1  0
 17 18  2  0
 17 22  1  0
 18 19  1  0
 19 20  2  0
 20 21  1  0
 20 23  1  0
 21 22  2  0
 24 25  1  0
  2 26  1  0
  3 27  1  0
  3 28  1  0
  3 29  1  0
  8 30  1  0
  9 31  1  0
 10 32  1  0
 11 33  1  0
 19 34  1  0
 21 35  1  0
 22 36  1  0
 24 37  1  0
 24 38  1  0
 25 39  1  0
 25 40  1  0
 25 41  1  0
V    1 0
V    2 1
V    3 2
V    4 3
V    5 4
V    6 5
V    7 6
V    8 7
V    9 8
V   10 9
V   11 10
V   12 11
V   13 12
V   14 13
V   15 14
V   16 15
V   17 16
V   18 17
V   19 18
V   20 19
V   21 20
V   22 21
V   23 22
V   24 23
V   25 24
M  END
> <DSSTox_RID>
65454

> <DSSTox_CID>
12392

> <DSSTox_CID_Parent>
12392

> <DSSTox_Generic_SID>
32392

> <DSSTox_FileID>
636_TXCST2_v1a

> <STRUCTURE_Formula>
C18H16ClNO5

> <STRUCTURE_MolecularWeight>
361.7763

> <STRUCTURE_ChemicalType>
defined organic

> <STRUCTURE_TestedForm_DefinedOrganic>
parent

> <STRUCTURE_Shown>
tested chemical

> <TestSubstance_ChemicalName>
Fenoxaprop-ethyl

> <TestSubstance_CASRN>
66441-23-4

> <TestSubstance_Description>
single chemical compound

> <ChemicalNote>
mixture of (2R,S) isomers; structure shown without stereochem

> <STRUCTURE_ChemicalName_IUPAC>
ethyl 2-{4-[(6-chloro-1,3-benzoxazol-2-yl)oxy]phenoxy}propanoate

> <STRUCTURE_SMILES>
O=C(OCC)C(OC1=CC=C(OC2=NC3=C(C=C(Cl)C=C3)O2)C=C1)C

> <STRUCTURE_Parent_SMILES>
O=C(OCC)C(OC1=CC=C(OC2=NC3=C(C=C(Cl)C=C3)O2)C=C1)C

> <STRUCTURE_InChIS>
InChI=1S/C18H16ClNO5/c1-3-22-17(21)11(2)23-13-5-7-14(8-6-13)24-18-20-15-9-4-12(19)10-16(15)25-18/h4-11H,3H2,1-2H3

> <STRUCTURE_InChIKey>
PQKBPHSEKWERTG-UHFFFAOYSA-N

> <Substance_modify_yyyymmdd>
20080429

> <Coord_Metals>
0

> <Index>
636

> <Canonical_Smiles>
CCOC(=O)C(C)Oc1ccc(Oc2oc3cc(Cl)ccc3n2)cc1

> <Molecular_Weight>
361.77634

> <Frequency>
1

$$$$

  SciTegic          2D

 41 42  0  0  0  0            999 V2000
    5.1894   -6.0109    0.0000 C   0  0
    6.2297   -5.4127    0.0000 O   0  0
    5.1873   -7.5117    0.0000 O   0  0
    3.8912   -5.2578    0.0000 N   0  0
    3.8933   -3.7570    0.0000 C   0  0
    2.5951   -3.0039    0.0000 C   0  0
    2.5973   -1.5031    0.0000 O   0  0
    1.2990   -0.7500    0.0000 C   0  0
    1.2990    0.7500    0.0000 C   0  0
    0.0000   -1.5000    0.0000 C   0  0
    0.0000    1.5000    0.0000 C   0  0
   -1.2990   -0.7500    0.0000 C   0  0
   -1.2990    0.7500    0.0000 C   0  0
   -2.6003    1.4977    0.0000 O   0  0
   -3.8990    0.7455    0.0000 C   0  0
   -5.2007    1.4909    0.0000 C   0  0
   -3.8939   -0.7546    0.0000 C   0  0
   -6.4972    0.7364    0.0000 C   0  0
   -5.1903   -1.5091    0.0000 C   0  0
   -6.4920   -0.7636    0.0000 C   0  0
    6.4855   -8.2648    0.0000 C   0  0
    6.4833   -9.7656    0.0000 C   0  0
    3.0243   -5.7563    0.0000 H   0  0
    4.7602   -3.2585    0.0000 H   0  0
    4.7586   -4.2584    0.0000 H   0  0
    1.7282   -3.5024    0.0000 H   0  0
    1.7299   -2.5025    0.0000 H   0  0
    2.1651    1.2500    0.0000 H   0  0
    0.0000   -2.5000    0.0000 H   0  0
    0.0000    2.5000    0.0000 H   0  0
   -2.1651   -1.2500    0.0000 H   0  0
   -5.2042    2.4909    0.0000 H   0  0
   -3.0262   -1.2516    0.0000 H   0  0
   -7.3649    1.2334    0.0000 H   0  0
   -5.1869   -2.5091    0.0000 H   0  0
   -7.3563   -1.2666    0.0000 H   0  0
    7.3524   -7.7663    0.0000 H   0  0
    6.4874   -7.2648    0.0000 H   0  0
    7.3483  -10.2674    0.0000 H   0  0
    5.6164  -10.2641    0.0000 H   0  0
    6.4814  -10.7656    0.0000 H   0  0
  1  2  2  0
  1  3  1  0
  1  4  1  0
  3 21  1  0
  4  5  1  0
  5  6  1  0
  6  7  1  0
  7  8  1  0
  8  9  2  0
  8 10  1  0
  9 11  1  0
 10 12  2  0
 11 13  2  0
 12 13  1  0
 13 14  1  0
 14 15  1  0
 15 16  2  0
 15 17  1  0
 16 18  1  0
 17 19  2  0
 18 20  2  0
 19 20  1  0
 21 22  1  0
  4 23  1  0
  5 24  1  0
  5 25  1  0
  6 26  1  0
  6 27  1  0
  9 28  1  0
 10 29  1  0
 11 30  1  0
 12 31  1  0
 16 32  1  0
 17 33  1  0
 18 34  1  0
 19 35  1  0
 20 36  1  0
 21 37  1  0
 21 38  1  0
 22 39  1  0
 22 40  1  0
 22 41  1  0
V    1 0
V    2 1
V    3 2
V    4 3
V    5 4
V    6 5
V    7 6
V    8 7
V    9 8
V   10 9
V   11 10
V   12 11
V   13 12
V   14 13
V   15 14
V   16 15
V   17 16
V   18 17
V   19 18
V   20 19
V   21 20
V   22 21
M  END
> <DSSTox_RID>
65351

> <DSSTox_CID>
12393

> <DSSTox_CID_Parent>
12393

> <DSSTox_Generic_SID>
32393

> <DSSTox_FileID>
637_TXCST2_v1a

> <STRUCTURE_Formula>
C17H19NO4

> <STRUCTURE_MolecularWeight>
301.3371

> <STRUCTURE_ChemicalType>
defined organic

> <STRUCTURE_TestedForm_DefinedOrganic>
parent

> <STRUCTURE_Shown>
tested chemical

> <TestSubstance_ChemicalName>
Fenoxycarb

> <TestSubstance_CASRN>
72490-01-8

> <TestSubstance_Description>
single chemical compound

> <STRUCTURE_ChemicalName_IUPAC>
ethyl [2-(4-phenoxyphenoxy)ethyl]carbamate

> <STRUCTURE_SMILES>
O=C(NCCOC1=CC=C(OC2=CC=CC=C2)C=C1)OCC

> <STRUCTURE_Parent_SMILES>
O=C(OCC)NCCOC2=CC=C(C=C2)OC1=CC=CC=C1

> <STRUCTURE_InChIS>
InChI=1S/C17H19NO4/c1-2-20-17(19)18-12-13-21-14-8-10-16(11-9-14)22-15-6-4-3-5-7-15/h3-11H,2,12-13H2,1H3,(H,18,19)

> <STRUCTURE_InChIKey>
HJUFTIJOISQSKQ-UHFFFAOYSA-N

> <Substance_modify_yyyymmdd>
20080429

> <Coord_Metals>
0

> <Index>
637

> <Canonical_Smiles>
CCOC(=O)NCCOc1ccc(Oc2ccccc2)cc1

> <Molecular_Weight>
301.33706

> <Frequency>
1

$$$$

  SciTegic          2D

 24 26  0  0  0  0            999 V2000
    0.2917    0.7475    0.0000 C   0  0
   -1.0028    1.5132    0.0000 C   0  0
    0.2917   -0.7475    0.0000 C   0  0
    1.7138    1.2033    0.0000 O   0  0
   -0.9982    3.0140    0.0000 C   0  0
   -2.3155    0.7475    0.0000 C   0  0
    1.7138   -1.2033    0.0000 O   0  0
   -1.0028   -1.5132    0.0000 C   0  0
    2.5889    0.0182    0.0000 C   0  0
   -2.2026    3.8859    0.0000 C   0  0
    0.2243    3.8612    0.0000 C   0  0
   -2.3155   -0.7475    0.0000 C   0  0
    3.1809   -1.0256    0.0000 F   0  0
    3.1659    1.0704    0.0000 F   0  0
   -1.7246    5.3077    0.0000 C   0  0
   -3.6286    3.4264    0.0000 C   0  0
   -0.2247    5.2924    0.0000 N   0  0
   -4.7708    3.0583    0.0000 N   0  0
   -3.1826    1.2456    0.0000 H   0  0
   -0.9997   -2.5132    0.0000 H   0  0
    1.1702    3.5368    0.0000 H   0  0
   -3.1826   -1.2456    0.0000 H   0  0
   -2.3041    6.1226    0.0000 H   0  0
    0.3713    6.0954    0.0000 H   0  0
  1  2  2  0
  1  3  1  0
  1  4  1  0
  2  5  1  0
  2  6  1  0
  3  7  1  0
  3  8  2  0
  4  9  1  0
  5 10  1  0
  5 11  2  0
  6 12  2  0
  7  9  1  0
  8 12  1  0
  9 13  1  0
  9 14  1  0
 10 15  2  0
 10 16  1  0
 11 17  1  0
 15 17  1  0
 16 18  3  0
  6 19  1  0
  8 20  1  0
 11 21  1  0
 12 22  1  0
 15 23  1  0
 17 24  1  0
V    1 0
V    2 1
V    3 2
V    4 3
V    5 4
V    6 5
V    7 6
V    8 7
V    9 8
V   10 9
V   11 10
V   12 11
V   13 12
V   14 13
V   15 14
V   16 15
V   17 16
V   18 17
M  END
> <DSSTox_RID>
62290

> <DSSTox_CID>
12398

> <DSSTox_CID_Parent>
12398

> <DSSTox_Generic_SID>
32398

> <DSSTox_FileID>
638_TXCST2_v1a

> <STRUCTURE_Formula>
C12H6F2N2O2

> <STRUCTURE_MolecularWeight>
248.185

> <STRUCTURE_ChemicalType>
defined organic

> <STRUCTURE_TestedForm_DefinedOrganic>
parent

> <STRUCTURE_Shown>
tested chemical

> <TestSubstance_ChemicalName>
Fludioxonil

> <TestSubstance_CASRN>
131341-86-1

> <TestSubstance_Description>
single chemical compound

> <STRUCTURE_ChemicalName_IUPAC>
4-(2,2-difluoro-1,3-benzodioxol-4-yl)-1H-pyrrole-3-carbonitrile

> <STRUCTURE_SMILES>
FC3(F)OC(C(O3)=CC=C2)=C2C1=CNC=C1C#N

> <STRUCTURE_Parent_SMILES>
FC3(F)OC(C(O3)=CC=C2)=C2C1=CNC=C1C#N

> <STRUCTURE_InChIS>
InChI=1S/C12H6F2N2O2/c13-12(14)17-10-3-1-2-8(11(10)18-12)9-6-16-5-7(9)4-15/h1-3,5-6,16H

> <STRUCTURE_InChIKey>
MUJOIMFVNIBMKC-UHFFFAOYSA-N

> <Substance_modify_yyyymmdd>
20080429

> <Coord_Metals>
0

> <Index>
638

> <Canonical_Smiles>
FC1(F)Oc2cccc(c2O1)c3c[nH]cc3C#N

> <Molecular_Weight>
248.18504

> <Frequency>
1

$$$$

  SciTegic          2D

 31 31  0  0  0  0            999 V2000
    2.5951   -3.0039    0.0000 C   0  0
    3.8933   -3.7570    0.0000 N   0  0
    2.5973   -1.5031    0.0000 N   0  0
    3.8912   -5.2578    0.0000 C   0  0
    5.1929   -3.0062    0.0000 C   0  0
    1.2990   -0.7500    0.0000 C   0  0
    1.2990    0.7500    0.0000 C   0  0
    0.0000   -1.5000    0.0000 C   0  0
    0.0000    1.5000    0.0000 C   0  0
   -1.2990   -0.7500    0.0000 C   0  0
   -1.2990    0.7500    0.0000 C   0  0
   -0.0031    3.0008    0.0000 O   0  0
   -1.3039    3.7494    0.0000 C   0  0
   -2.3421    3.1476    0.0000 O   0  0
   -1.3070    5.2502    0.0000 N   0  0
   -2.6078    5.9988    0.0000 C   0  0
    1.7282   -3.5024    0.0000 H   0  0
    4.7562   -5.7596    0.0000 H   0  0
    3.0243   -5.7563    0.0000 H   0  0
    3.8893   -6.2578    0.0000 H   0  0
    5.1932   -2.0062    0.0000 H   0  0
    6.0589   -3.5062    0.0000 H   0  0
    6.0590   -2.5063    0.0000 H   0  0
    2.1651    1.2500    0.0000 H   0  0
    0.0000   -2.5000    0.0000 H   0  0
   -2.1651   -1.2500    0.0000 H   0  0
   -2.1651    1.2500    0.0000 H   0  0
   -0.4419    5.7517    0.0000 H   0  0
   -2.6099    6.9988    0.0000 H   0  0
   -3.4730    5.4972    0.0000 H   0  0
   -3.4748    6.4971    0.0000 H   0  0
  1  2  1  0
  1  3  2  0
  2  4  1  0
  2  5  1  0
  3  6  1  0
  6  7  2  0
  6  8  1  0
  7  9  1  0
  8 10  2  0
  9 11  2  0
  9 12  1  0
 10 11  1  0
 12 13  1  0
 13 14  2  0
 13 15  1  0
 15 16  1  0
  1 17  1  0
  4 18  1  0
  4 19  1  0
  4 20  1  0
  5 21  1  0
  5 22  1  0
  5 23  1  0
  7 24  1  0
  8 25  1  0
 10 26  1  0
 11 27  1  0
 15 28  1  0
 16 29  1  0
 16 30  1  0
 16 31  1  0
V    1 0
V    2 1
V    3 2
V    4 3
V    5 4
V    6 5
V    7 6
V    8 7
V    9 8
V   10 9
V   11 10
V   12 11
V   13 12
V   14 13
V   15 14
V   16 15
M  END
> <DSSTox_RID>
62379

> <DSSTox_CID>
12405

> <DSSTox_CID_Parent>
21990

> <DSSTox_Generic_SID>
32405

> <DSSTox_FileID>
639_TXCST2_v1a

> <STRUCTURE_Formula>
C11H16ClN3O2

> <STRUCTURE_MolecularWeight>
257.7166

> <STRUCTURE_ChemicalType>
defined organic

> <STRUCTURE_TestedForm_DefinedOrganic>
complex HCl

> <STRUCTURE_Shown>
tested chemical

> <TestSubstance_ChemicalName>
Formetanate hydrochloride

> <TestSubstance_CASRN>
23422-53-9

> <TestSubstance_Description>
single chemical compound

> <ChemicalNote>
parent [22259-30-9]

> <Source_ChemicalNote>
tested chemical contained 0.74% water (0.11 moles H2O)

> <STRUCTURE_ChemicalName_IUPAC>
3-{[(E)-(dimethylamino)methylidene]amino}phenyl methylcarbamate hydrochloride

> <STRUCTURE_SMILES>
O=C(NC)OC1=CC=CC(/N=C/N(C)C)=C1.Cl

> <STRUCTURE_Parent_SMILES>
O=C(NC)OC1=CC=CC(/N=C/N(C)C)=C1

> <STRUCTURE_InChIS>
InChI=1S/C11H15N3O2.ClH/c1-12-11(15)16-10-6-4-5-9(7-10)13-8-14(2)3;/h4-8H,1-3H3,(H,12,15);1H/b13-8+;

> <STRUCTURE_InChIKey>
MYPKGPZHHQEODQ-FNXZNAJJSA-N

> <Substance_modify_yyyymmdd>
20081229

> <Coord_Metals>
0

> <Index>
639

> <Canonical_Smiles>
CNC(=O)Oc1cccc(c1)N=CN(C)C

> <Molecular_Weight>
221.25569

> <Frequency>
1

$$$$

  SciTegic          2D

 36 37  0  0  0  0            999 V2000
    1.2990   -0.7500    0.0000 C   0  0
    1.2990    0.7500    0.0000 C   0  0
    0.0000    1.5000    0.0000 C   0  0
   -1.2990    0.7500    0.0000 C   0  0
   -1.2990   -0.7500    0.0000 C   0  0
    0.0000   -1.5000    0.0000 C   0  0
    2.3383   -1.3500    0.0000 O   0  0
    0.0000    2.7000    0.0000 O   0  0
    1.7710    2.1532    0.0000 C   0  0
    0.9552    3.0333    0.0000 O   0  0
    3.2342    2.4869    0.0000 C   0  0
    4.2559    1.3885    0.0000 C   0  0
    3.6748    3.9208    0.0000 C   0  0
    5.7179    1.7241    0.0000 C   0  0
    5.1368    4.2563    0.0000 C   0  0
    6.1583    3.1579    0.0000 C   0  0
    7.6211    3.4936    0.0000 S   0  0
    7.9731    4.6408    0.0000 O   0  0
    6.8038    4.3722    0.0000 O   0  0
    8.6440    2.3953    0.0000 C   0  0
    3.8182   -0.0471    0.0000 N   0  0
    4.6368   -0.9246    0.0000 O   0  0
    2.6491   -0.3176    0.0000 O   0  0
    2.1526    0.2289    0.0000 H   0  0
   -2.1530    0.2297    0.0000 H   0  0
   -1.2756    1.7497    0.0000 H   0  0
   -0.4215   -0.2706    0.0000 H   0  0
   -1.2755   -1.7497    0.0000 H   0  0
   -0.8776   -1.9794    0.0000 H   0  0
    0.8775   -1.9795    0.0000 H   0  0
    2.9938    4.6531    0.0000 H   0  0
    6.3989    0.9918    0.0000 H   0  0
    5.4304    5.2122    0.0000 H   0  0
    9.6186    2.6190    0.0000 H   0  0
    8.3506    1.4393    0.0000 H   0  0
    9.3251    1.6632    0.0000 H   0  0
  1  2  1  0
  1  6  1  0
  1  7  2  0
  2  3  1  0
  2  9  1  0
  3  4  1  0
  3  8  2  0
  4  5  1  0
  5  6  1  0
  9 10  2  0
  9 11  1  0
 11 12  2  0
 11 13  1  0
 12 14  1  0
 12 21  1  0
 13 15  2  0
 14 16  2  0
 15 16  1  0
 16 17  1  0
 17 18  2  0
 17 19  2  0
 17 20  1  0
 21 22  2  0
 21 23  2  0
  2 24  1  0
  4 25  1  0
  4 26  1  0
  5 27  1  0
  5 28  1  0
  6 29  1  0
  6 30  1  0
 13 31  1  0
 14 32  1  0
 15 33  1  0
 20 34  1  0
 20 35  1  0
 20 36  1  0
V    1 0
V    2 1
V    3 2
V    4 3
V    5 4
V    6 5
V    7 6
V    8 7
V    9 8
V   10 9
V   11 10
V   12 11
V   13 12
V   14 13
V   15 14
V   16 15
V   17 16
V   18 17
V   19 18
V   20 19
V   21 20
V   22 21
V   23 22
M  END
> <DSSTox_RID>
62354

> <DSSTox_CID>
12424

> <DSSTox_CID_Parent>
12424

> <DSSTox_Generic_SID>
32424

> <DSSTox_FileID>
640_TXCST2_v1a

> <STRUCTURE_Formula>
C14H13NO7S

> <STRUCTURE_MolecularWeight>
339.3205

> <STRUCTURE_ChemicalType>
defined organic

> <STRUCTURE_TestedForm_DefinedOrganic>
parent

> <STRUCTURE_Shown>
tested chemical

> <TestSubstance_ChemicalName>
Mesotrione

> <TestSubstance_CASRN>
104206-82-8

> <TestSubstance_Description>
single chemical compound

> <ChemicalNote>
tautomers

> <STRUCTURE_ChemicalName_IUPAC>
2-[4-(methylsulfonyl)-2-nitrobenzoyl]cyclohexane-1,3-dione

> <STRUCTURE_SMILES>
O=C1C(C(C2=C([N+]([O-])=O)C=C(S(=O)(C)=O)C=C2)=O)C(CCC1)=O

> <STRUCTURE_Parent_SMILES>
O=C1C(C(C2=C([N+]([O-])=O)C=C(S(=O)(C)=O)C=C2)=O)C(CCC1)=O

> <STRUCTURE_InChIS>
InChI=1S/C14H13NO7S/c1-23(21,22)8-5-6-9(10(7-8)15(19)20)14(18)13-11(16)3-2-4-12(13)17/h5-7,13H,2-4H2,1H3

> <STRUCTURE_InChIKey>
KPUREKXXPHOJQT-UHFFFAOYSA-N

> <Substance_modify_yyyymmdd>
20080429

> <Coord_Metals>
0

> <Index>
640

> <Canonical_Smiles>
CS(=O)(=O)c1ccc(C(=O)C2C(=O)CCCC2=O)c(c1)N(=O)=O

> <Molecular_Weight>
339.32052

> <Frequency>
1

$$$$

  SciTegic          2D

 27 28  0  0  0  0            999 V2000
   -1.8512   -5.2880    0.0000 N   0  0
   -2.5997   -3.0012    0.0000 N   0  0
   -1.3867   -3.8617    0.0000 C   0  0
   -3.3512   -5.2871    0.0000 C   0  0
   -3.8138   -3.8602    0.0000 C   0  0
    0.0358   -3.3917    0.0000 N   0  0
   -2.5988   -1.5004    0.0000 C   0  0
   -6.4957   -0.7451    0.0000 N   0  0
   -6.4938    0.7549    0.0000 C   0  0
   -5.1976   -1.4967    0.0000 C   0  0
   -3.8976   -0.7484    0.0000 C   0  0
   -5.1938    1.5033    0.0000 C   0  0
   -3.8957    0.7516    0.0000 C   0  0
   -7.5322    1.3562    0.0000 Cl  0  0
    1.1568   -4.3896    0.0000 N   0  0
    2.2962   -4.0130    0.0000 O   0  0
    0.9136   -5.5647    0.0000 O   0  0
   -4.3439   -5.1670    0.0000 H   0  0
   -2.9315   -6.1948    0.0000 H   0  0
   -4.5516   -4.5352    0.0000 H   0  0
   -4.0012   -2.8779    0.0000 H   0  0
    0.2384   -2.4124    0.0000 H   0  0
   -1.7323   -1.0012    0.0000 H   0  0
   -1.7332   -2.0011    0.0000 H   0  0
   -5.1988   -2.4967    0.0000 H   0  0
   -5.1925    2.5033    0.0000 H   0  0
   -3.0290    1.2505    0.0000 H   0  0
  1  3  2  0
  1  4  1  0
  2  3  1  0
  2  5  1  0
  2  7  1  0
  3  6  1  0
  4  5  1  0
  6 15  1  0
  7 11  1  0
  8  9  2  0
  8 10  1  0
  9 12  1  0
  9 14  1  0
 10 11  2  0
 11 13  1  0
 12 13  2  0
 15 16  2  0
 15 17  2  0
  4 18  1  0
  4 19  1  0
  5 20  1  0
  5 21  1  0
  6 22  1  0
  7 23  1  0
  7 24  1  0
 10 25  1  0
 12 26  1  0
 13 27  1  0
V    1 0
V    2 1
V    3 2
V    4 3
V    5 4
V    6 5
V    7 6
V    8 7
V    9 8
V   10 9
V   11 10
V   12 11
V   13 12
V   14 13
V   15 14
V   16 15
V   17 16
M  END
> <DSSTox_RID>
61694

> <DSSTox_CID>
12442

> <DSSTox_CID_Parent>
12442

> <DSSTox_Generic_SID>
32442

> <DSSTox_FileID>
641_TXCST2_v1a

> <STRUCTURE_Formula>
C9H10ClN5O2

> <STRUCTURE_MolecularWeight>
255.661

> <STRUCTURE_ChemicalType>
defined organic

> <STRUCTURE_TestedForm_DefinedOrganic>
parent

> <STRUCTURE_Shown>
tested chemical

> <TestSubstance_ChemicalName>
Imidacloprid

> <TestSubstance_CASRN>
138261-41-3

> <TestSubstance_Description>
single chemical compound

> <ChemicalNote>
tautomers; alternate CASRN [105827-78-9]

> <Source_ChemicalNote>
tested chemical contained 0.06% water (0.01 moles H2O)

> <STRUCTURE_ChemicalName_IUPAC>
(2E)-1-[(6-chloropyridin-3-yl)methyl]-N-nitroimidazolidin-2-imine

> <STRUCTURE_SMILES>
ClC(C=C2)=NC=C2CN1/C(NCC1)=N/[N+]([O-])=O

> <STRUCTURE_Parent_SMILES>
ClC(C=C2)=NC=C2CN1/C(NCC1)=N/[N+]([O-])=O

> <STRUCTURE_InChIS>
InChI=1S/C9H10ClN5O2/c10-8-2-1-7(5-12-8)6-14-4-3-11-9(14)13-15(16)17/h1-2,5H,3-4,6H2,(H,11,13)

> <STRUCTURE_InChIKey>
YWTYJOPNNQFBPC-UHFFFAOYSA-N

> <Substance_modify_yyyymmdd>
20080429

> <Coord_Metals>
0

> <Index>
641

> <Canonical_Smiles>
Clc1ccc(CN2CCN=C2NN(=O)=O)cn1

> <Molecular_Weight>
255.66099

> <Frequency>
1

$$$$

  SciTegic          2D

 30 29  0  0  0  0            999 V2000
    7.7999    0.0000    0.0000 P   0  0
    6.5000    0.7500    0.0000 S   0  0
    7.7999   -1.2000    0.0000 S   0  0
    5.2000    0.0000    0.0000 C   0  0
    9.0999    0.7500    0.0000 O   0  0
    6.4760   -0.7669    0.0000 O   0  0
    3.9000    0.7500    0.0000 S   0  0
    2.6000    0.0000    0.0000 C   0  0
    6.4773   -2.2677    0.0000 C   0  0
   10.3999    0.0000    0.0000 C   0  0
    1.3000    0.7500    0.0000 C   0  0
   11.6999    0.7500    0.0000 C   0  0
    5.1786   -3.0200    0.0000 C   0  0
    5.2000   -1.0000    0.0000 H   0  0
    4.3340   -0.5001    0.0000 H   0  0
    2.6000   -1.0000    0.0000 H   0  0
    3.4659   -0.5001    0.0000 H   0  0
    7.3428   -1.7668    0.0000 H   0  0
    7.3438   -2.7667    0.0000 H   0  0
   10.3999   -1.0000    0.0000 H   0  0
    9.5340   -0.5001    0.0000 H   0  0
    0.4338    0.2503    0.0000 H   0  0
    1.3000    1.7500    0.0000 H   0  0
    0.4340    1.2501    0.0000 H   0  0
   12.5661    0.2503    0.0000 H   0  0
   11.6999    1.7500    0.0000 H   0  0
   12.5659    1.2501    0.0000 H   0  0
    5.1794   -4.0200    0.0000 H   0  0
    4.3120   -2.5210    0.0000 H   0  0
    4.3131   -3.5208    0.0000 H   0  0
  1  2  1  0
  1  3  2  0
  1  5  1  0
  1  6  1  0
  2  4  1  0
  4  7  1  0
  5 10  1  0
  6  9  1  0
  7  8  1  0
  8 11  1  0
  9 13  1  0
 10 12  1  0
  4 14  1  0
  4 15  1  0
  8 16  1  0
  8 17  1  0
  9 18  1  0
  9 19  1  0
 10 20  1  0
 10 21  1  0
 11 22  1  0
 11 23  1  0
 11 24  1  0
 12 25  1  0
 12 26  1  0
 12 27  1  0
 13 28  1  0
 13 29  1  0
 13 30  1  0
V    1 0
V    2 1
V    3 2
V    4 3
V    5 4
V    6 5
V    7 6
V    8 7
V    9 8
V   10 9
V   11 10
V   12 11
V   13 12
M  END
> <DSSTox_RID>
62292

> <DSSTox_CID>
12459

> <DSSTox_CID_Parent>
12459

> <DSSTox_Generic_SID>
32459

> <DSSTox_FileID>
642_TXCST2_v1a

> <STRUCTURE_Formula>
C7H17O2PS3

> <STRUCTURE_MolecularWeight>
260.3774

> <STRUCTURE_ChemicalType>
defined organic

> <STRUCTURE_TestedForm_DefinedOrganic>
parent

> <STRUCTURE_Shown>
tested chemical

> <TestSubstance_ChemicalName>
Phorate

> <TestSubstance_CASRN>
298-02-2

> <TestSubstance_Description>
single chemical compound

> <STRUCTURE_ChemicalName_IUPAC>
O,O-diethyl S-[(ethylthio)methyl] dithiophosphate

> <STRUCTURE_SMILES>
S=P(OCC)(OCC)SCSCC

> <STRUCTURE_Parent_SMILES>
S=P(OCC)(OCC)SCSCC

> <STRUCTURE_InChIS>
InChI=1S/C7H17O2PS3/c1-4-8-10(11,9-5-2)13-7-12-6-3/h4-7H2,1-3H3

> <STRUCTURE_InChIKey>
BULVZWIRKLYCBC-UHFFFAOYSA-N

> <Substance_modify_yyyymmdd>
20080429

> <Coord_Metals>
0

> <Index>
642

> <Canonical_Smiles>
CCOP(=S)(OCC)SCSCC

> <Molecular_Weight>
260.37744

> <Frequency>
1

$$$$

  SciTegic          2D

 33 33  0  0  0  0            999 V2000
    1.2990   -0.7500    0.0000 C   0  0
    0.0000   -1.5000    0.0000 C   0  0
   -1.2990   -0.7500    0.0000 C   0  0
   -1.2990    0.7500    0.0000 C   0  0
    0.0000    1.5000    0.0000 C   0  0
    1.2990    0.7500    0.0000 C   0  0
   -2.5973    1.5031    0.0000 O   0  0
   -2.5951    3.0039    0.0000 P   0  0
   -3.8933    3.7570    0.0000 S   0  0
   -1.5549    3.6021    0.0000 O   0  0
   -3.9229    2.2437    0.0000 O   0  0
   -2.3383   -1.3500    0.0000 Cl  0  0
    2.3383   -1.3500    0.0000 Br  0  0
   -3.8912    5.2578    0.0000 C   0  0
   -5.2203    2.9980    0.0000 C   0  0
   -5.1894    6.0109    0.0000 C   0  0
   -5.1873    7.5117    0.0000 C   0  0
   -6.5228    2.2523    0.0000 C   0  0
    0.0000   -2.5000    0.0000 H   0  0
    0.0000    2.5000    0.0000 H   0  0
    2.1651    1.2500    0.0000 H   0  0
   -3.0243    5.7563    0.0000 H   0  0
   -3.0260    4.7564    0.0000 H   0  0
   -5.2170    3.9980    0.0000 H   0  0
   -4.3527    3.4953    0.0000 H   0  0
   -6.0563    5.5124    0.0000 H   0  0
   -5.1913    5.0109    0.0000 H   0  0
   -6.0523    8.0135    0.0000 H   0  0
   -4.3204    8.0102    0.0000 H   0  0
   -5.1854    8.5117    0.0000 H   0  0
   -7.3873    2.7549    0.0000 H   0  0
   -6.5262    1.2523    0.0000 H   0  0
   -7.3904    1.7551    0.0000 H   0  0
  1 13  1  0
  1  6  1  0
  1  2  2  0
  2  3  1  0
  3 12  1  0
  3  4  2  0
  4  5  1  0
  4  7  1  0
  5  6  2  0
  7  8  1  0
  8  9  1  0
  8 10  2  0
  8 11  1  0
  9 14  1  0
 11 15  1  0
 14 16  1  0
 15 18  1  0
 16 17  1  0
  2 19  1  0
  5 20  1  0
  6 21  1  0
 14 22  1  0
 14 23  1  0
 15 24  1  0
 15 25  1  0
 16 26  1  0
 16 27  1  0
 17 28  1  0
 17 29  1  0
 17 30  1  0
 18 31  1  0
 18 32  1  0
 18 33  1  0
V    1 0
V    2 1
V    3 2
V    4 3
V    5 4
V    6 5
V    7 6
V    8 7
V    9 8
V   10 9
V   11 10
V   12 11
V   13 12
V   14 13
V   15 14
V   16 15
V   17 16
V   18 17
M  END
> <DSSTox_RID>
65279

> <DSSTox_CID>
12464

> <DSSTox_CID_Parent>
12464

> <DSSTox_Generic_SID>
32464

> <DSSTox_FileID>
643_TXCST2_v1a

> <STRUCTURE_Formula>
C11H15BrClO3PS

> <STRUCTURE_MolecularWeight>
373.6308

> <STRUCTURE_ChemicalType>
defined organic

> <STRUCTURE_TestedForm_DefinedOrganic>
parent

> <STRUCTURE_Shown>
tested chemical

> <TestSubstance_ChemicalName>
Profenofos

> <TestSubstance_CASRN>
41198-08-7

> <TestSubstance_Description>
single chemical compound

> <STRUCTURE_ChemicalName_IUPAC>
O-(4-bromo-2-chlorophenyl) O-ethyl S-propyl thiophosphate

> <STRUCTURE_SMILES>
O=P(SCCC)(OCC)OC(C=C1)=C(Cl)C=C1Br

> <STRUCTURE_Parent_SMILES>
O=P(SCCC)(OCC)OC(C=C1)=C(Cl)C=C1Br

> <STRUCTURE_InChIS>
InChI=1S/C11H15BrClO3PS/c1-3-7-18-17(14,15-4-2)16-11-6-5-9(12)8-10(11)13/h5-6,8H,3-4,7H2,1-2H3

> <STRUCTURE_InChIKey>
QYMMJNLHFKGANY-UHFFFAOYSA-N

> <Substance_modify_yyyymmdd>
20080429

> <Coord_Metals>
0

> <Index>
643

> <Canonical_Smiles>
CCCSP(=O)(OCC)Oc1ccc(Br)cc1Cl

> <Molecular_Weight>
373.63076

> <Frequency>
1

$$$$

  SciTegic          2D

 37 36  0  0  0  0            999 V2000
   10.3999    0.0000    0.0000 P   0  0
    6.5000    0.7500    0.0000 C   0  0
    5.2000    0.0000    0.0000 C   0  0
    7.7999    0.0000    0.0000 C   0  0
    9.0999    0.7500    0.0000 O   0  0
   11.4388    0.6007    0.0000 S   0  0
   10.4013   -1.5008    0.0000 N   0  0
    5.2000   -1.2000    0.0000 O   0  0
    3.9000    0.7500    0.0000 O   0  0
   10.4011    1.5300    0.0000 O   0  0
    7.8030   -1.5008    0.0000 C   0  0
    2.6000    0.0000    0.0000 C   0  0
   11.7013   -2.2508    0.0000 C   0  0
   11.7010    2.2801    0.0000 C   0  0
    1.3000    0.7500    0.0000 C   0  0
    2.6000   -1.5007    0.0000 C   0  0
   11.7028   -3.7516    0.0000 C   0  0
    6.5000    1.7500    0.0000 H   0  0
    9.5356   -2.0014    0.0000 H   0  0
    8.6698   -1.9996    0.0000 H   0  0
    7.8046   -2.5008    0.0000 H   0  0
    6.9379   -2.0023    0.0000 H   0  0
    2.6000    1.0000    0.0000 H   0  0
   11.7009   -1.2508    0.0000 H   0  0
   12.5670   -1.7503    0.0000 H   0  0
   11.7018    3.2801    0.0000 H   0  0
   12.5674    2.7796    0.0000 H   0  0
   12.5668    1.7797    0.0000 H   0  0
    0.4338    0.2503    0.0000 H   0  0
    1.3000    1.7500    0.0000 H   0  0
    0.4340    1.2501    0.0000 H   0  0
    1.7343   -2.0013    0.0000 H   0  0
    3.4662   -2.0005    0.0000 H   0  0
    2.6005   -2.5007    0.0000 H   0  0
   12.5689   -4.2514    0.0000 H   0  0
   10.8371   -4.2522    0.0000 H   0  0
   11.7032   -4.7516    0.0000 H   0  0
  1  5  1  0
  1  6  2  0
  1  7  1  0
  1 10  1  0
  2  4  2  0
  2  3  1  0
  3  8  2  0
  3  9  1  0
  4  5  1  0
  4 11  1  0
  7 13  1  0
  9 12  1  0
 10 14  1  0
 12 15  1  0
 12 16  1  0
 13 17  1  0
  2 18  1  0
  7 19  1  0
 11 20  1  0
 11 21  1  0
 11 22  1  0
 12 23  1  0
 13 24  1  0
 13 25  1  0
 14 26  1  0
 14 27  1  0
 14 28  1  0
 15 29  1  0
 15 30  1  0
 15 31  1  0
 16 32  1  0
 16 33  1  0
 16 34  1  0
 17 35  1  0
 17 36  1  0
 17 37  1  0
V    1 0
V    2 1
V    3 2
V    4 3
V    5 4
V    6 5
V    7 6
V    8 7
V    9 8
V   10 9
V   11 10
V   12 11
V   13 12
V   14 13
V   15 14
V   16 15
V   17 16
M  END
> <DSSTox_RID>
62279

> <DSSTox_CID>
12470

> <DSSTox_CID_Parent>
12470

> <DSSTox_Generic_SID>
32470

> <DSSTox_FileID>
644_TXCST2_v1a

> <STRUCTURE_Formula>
C10H20NO4PS

> <STRUCTURE_MolecularWeight>
281.3089

> <STRUCTURE_ChemicalType>
defined organic

> <STRUCTURE_TestedForm_DefinedOrganic>
parent

> <STRUCTURE_Shown>
tested chemical

> <TestSubstance_ChemicalName>
Propetamphos

> <TestSubstance_CASRN>
31218-83-4

> <TestSubstance_Description>
single chemical compound

> <ChemicalNote>
stereochem

> <STRUCTURE_ChemicalName_IUPAC>
isopropyl (2E)-3-{[(ethylamino)(methoxy)phosphorothioyl]oxy}but-2-enoate

> <STRUCTURE_SMILES>
S=P(NCC)(OC)O/C(C)=C([H])/C(OC(C)C)=O

> <STRUCTURE_Parent_SMILES>
S=P(NCC)(OC)O/C(C)=C([H])/C(OC(C)C)=O

> <STRUCTURE_InChIS>
InChI=1S/C10H20NO4PS/c1-6-11-16(17,13-5)15-9(4)7-10(12)14-8(2)3/h7-8H,6H2,1-5H3,(H,11,17)/b9-7+

> <STRUCTURE_InChIKey>
BZNDWPRGXNILMS-VQHVLOKHSA-N

> <Substance_modify_yyyymmdd>
20080429

> <Coord_Metals>
0

> <Index>
644

> <Canonical_Smiles>
CCNP(=S)(OC)OC(=CC(=O)OC(C)C)C

> <Molecular_Weight>
281.30886

> <Frequency>
1

$$$$

  SciTegic          2D

 43 43  0  0  0  0            999 V2000
    2.5951   -3.0039    0.0000 P   0  0
    2.5903   -4.5339    0.0000 O   0  0
    2.5973   -1.5031    0.0000 O   0  0
    3.8933   -3.7570    0.0000 O   0  0
    1.2990   -0.7500    0.0000 C   0  0
    1.5548   -3.6021    0.0000 S   0  0
    0.0000   -1.5000    0.0000 C   0  0
   -1.2990   -0.7500    0.0000 N   0  0
   -1.2990    0.7500    0.0000 C   0  0
    0.0000    1.5000    0.0000 N   0  0
    1.2990    0.7500    0.0000 C   0  0
   -2.2638    1.8997    0.0000 C   0  0
    5.1951   -3.0101    0.0000 C   0  0
    1.2886   -5.2810    0.0000 C   0  0
    6.4933   -3.7632    0.0000 C   0  0
    5.1987   -1.5093    0.0000 C   0  0
    1.2838   -6.7818    0.0000 C   0  0
   -3.7419    1.6400    0.0000 C   0  0
   -1.7500    3.3098    0.0000 C   0  0
   -2.7848    0.4612    0.0000 C   0  0
    0.0000   -2.5000    0.0000 H   0  0
    2.1651    1.2500    0.0000 H   0  0
    5.1927   -4.0101    0.0000 H   0  0
    0.4240   -4.7785    0.0000 H   0  0
    1.2913   -4.2810    0.0000 H   0  0
    7.3607   -3.2655    0.0000 H   0  0
    6.4909   -4.7632    0.0000 H   0  0
    7.3581   -4.2654    0.0000 H   0  0
    4.3341   -1.0067    0.0000 H   0  0
    6.0660   -1.0117    0.0000 H   0  0
    5.2015   -0.5093    0.0000 H   0  0
    0.4165   -7.2796    0.0000 H   0  0
    2.1484   -7.2843    0.0000 H   0  0
    1.2811   -7.7818    0.0000 H   0  0
   -4.3847    2.4060    0.0000 H   0  0
   -4.0843    0.7004    0.0000 H   0  0
   -4.7268    1.4665    0.0000 H   0  0
   -2.3921    4.0764    0.0000 H   0  0
   -0.7651    3.4828    0.0000 H   0  0
   -1.4073    4.2492    0.0000 H   0  0
   -2.1413   -0.3042    0.0000 H   0  0
   -3.1258   -0.4789    0.0000 H   0  0
   -3.7694    0.2863    0.0000 H   0  0
  1  4  1  0
  1  6  2  0
  1  2  1  0
  1  3  1  0
  2 14  1  0
  3  5  1  0
  4 13  1  0
  5 11  1  0
  5  7  2  0
  7  8  1  0
  8  9  2  0
  9 10  1  0
  9 12  1  0
 10 11  2  0
 12 18  1  0
 12 19  1  0
 12 20  1  0
 13 15  1  0
 13 16  1  0
 14 17  1  0
  7 21  1  0
 11 22  1  0
 13 23  1  0
 14 24  1  0
 14 25  1  0
 15 26  1  0
 15 27  1  0
 15 28  1  0
 16 29  1  0
 16 30  1  0
 16 31  1  0
 17 32  1  0
 17 33  1  0
 17 34  1  0
 18 35  1  0
 18 36  1  0
 18 37  1  0
 19 38  1  0
 19 39  1  0
 19 40  1  0
 20 41  1  0
 20 42  1  0
 20 43  1  0
V    1 0
V    2 1
V    3 2
V    4 3
V    5 4
V    6 5
V    7 6
V    8 7
V    9 8
V   10 9
V   11 10
V   12 11
V   13 12
V   14 13
V   15 14
V   16 15
V   17 16
V   18 17
V   19 18
V   20 19
M  END
> <DSSTox_RID>
62307

> <DSSTox_CID>
12482

> <DSSTox_CID_Parent>
12482

> <DSSTox_Generic_SID>
32482

> <DSSTox_FileID>
645_TXCST2_v1a

> <STRUCTURE_Formula>
C13H23N2O3PS

> <STRUCTURE_MolecularWeight>
318.3721

> <STRUCTURE_ChemicalType>
defined organic

> <STRUCTURE_TestedForm_DefinedOrganic>
parent

> <STRUCTURE_Shown>
tested chemical

> <TestSubstance_ChemicalName>
Tebupirimfos

> <TestSubstance_CASRN>
96182-53-5

> <TestSubstance_Description>
single chemical compound

> <STRUCTURE_ChemicalName_IUPAC>
O-(2-tert-butylpyrimidin-5-yl) O-ethyl O-isopropyl thiophosphate

> <STRUCTURE_SMILES>
S=P(OCC)(OC1=CN=C(C(C)(C)C)N=C1)OC(C)C

> <STRUCTURE_Parent_SMILES>
S=P(OCC)(OC1=CN=C(C(C)(C)C)N=C1)OC(C)C

> <STRUCTURE_InChIS>
InChI=1S/C13H23N2O3PS/c1-7-16-19(20,17-10(2)3)18-11-8-14-12(15-9-11)13(4,5)6/h8-10H,7H2,1-6H3

> <STRUCTURE_InChIKey>
AWYOMXWDGWUJHS-UHFFFAOYSA-N

> <Substance_modify_yyyymmdd>
20080429

> <Coord_Metals>
0

> <Index>
645

> <Canonical_Smiles>
CCOP(=S)(OC(C)C)Oc1cnc(nc1)C(C)(C)C

> <Molecular_Weight>
318.37208

> <Frequency>
1

$$$$

  SciTegic          2D

 43 44  0  0  0  0            999 V2000
    1.2990   -0.7500    0.0000 N   0  0
    1.2990    0.7500    0.0000 C   0  0
    0.0000   -1.5000    0.0000 C   0  0
   -1.2990   -0.7500    0.0000 C   0  0
    0.0000    1.5000    0.0000 C   0  0
   -1.2990    0.7500    0.0000 C   0  0
   -2.7776   -1.0076    0.0000 C   0  0
   -3.5468   -0.0865    0.0000 O   0  0
   -2.7816   -2.5084    0.0000 O   0  0
    0.0000   -3.0008    0.0000 C   0  0
    1.0389   -3.6015    0.0000 F   0  0
   -1.0394   -3.6005    0.0000 F   0  0
    1.2121    3.8625    0.0000 N   0  0
   -1.2149    3.8587    0.0000 S   0  0
    0.0000    3.0008    0.0000 C   0  0
    0.7463    5.2884    0.0000 C   0  0
   -0.7537    5.2860    0.0000 C   0  0
   -2.5988    1.5004    0.0000 C   0  0
   -4.0770    1.2407    0.0000 C   0  0
   -4.5921   -0.1689    0.0000 C   0  0
   -5.0406    2.3913    0.0000 C   0  0
    2.5988    1.5004    0.0000 C   0  0
    3.6384    0.9011    0.0000 F   0  0
    2.5984    2.7004    0.0000 F   0  0
    3.6377    2.1009    0.0000 F   0  0
   -4.0829   -3.2562    0.0000 C   0  0
   -0.0005   -4.0008    0.0000 H   0  0
    0.3245    6.1950    0.0000 H   0  0
    1.7394    5.1707    0.0000 H   0  0
   -0.3347    6.1940    0.0000 H   0  0
   -1.7463    5.1651    0.0000 H   0  0
   -1.7327    2.0003    0.0000 H   0  0
   -2.5985    2.5004    0.0000 H   0  0
   -3.4349    0.4741    0.0000 H   0  0
   -5.5770   -0.3420    0.0000 H   0  0
   -3.9500   -0.9356    0.0000 H   0  0
   -4.9348   -1.1084    0.0000 H   0  0
   -4.6982    3.3309    0.0000 H   0  0
   -6.0255    2.2182    0.0000 H   0  0
   -5.6830    3.1576    0.0000 H   0  0
   -4.0856   -4.2561    0.0000 H   0  0
   -4.9502   -3.7540    0.0000 H   0  0
   -4.9478   -2.7541    0.0000 H   0  0
  1  2  1  0
  1  3  2  0
  2  5  2  0
  2 22  1  0
  3  4  1  0
  3 10  1  0
  4  6  2  0
  4  7  1  0
  5  6  1  0
  5 15  1  0
  6 18  1  0
  7  8  2  0
  7  9  1  0
  9 26  1  0
 10 11  1  0
 10 12  1  0
 13 15  2  0
 13 16  1  0
 14 15  1  0
 14 17  1  0
 16 17  1  0
 18 19  1  0
 19 20  1  0
 19 21  1  0
 22 23  1  0
 22 24  1  0
 22 25  1  0
 10 27  1  0
 16 28  1  0
 16 29  1  0
 17 30  1  0
 17 31  1  0
 18 32  1  0
 18 33  1  0
 19 34  1  0
 20 35  1  0
 20 36  1  0
 20 37  1  0
 21 38  1  0
 21 39  1  0
 21 40  1  0
 26 41  1  0
 26 42  1  0
 26 43  1  0
V    1 0
V    2 1
V    3 2
V    4 3
V    5 4
V    6 5
V    7 6
V    8 7
V    9 8
V   10 9
V   11 10
V   12 11
V   13 12
V   14 13
V   15 14
V   16 15
V   17 16
V   18 17
V   19 18
V   20 19
V   21 20
V   22 21
V   23 22
V   24 23
V   25 24
V   26 25
M  END
> <DSSTox_RID>
62400

> <DSSTox_CID>
12488

> <DSSTox_CID_Parent>
12488

> <DSSTox_Generic_SID>
32488

> <DSSTox_FileID>
646_TXCST2_v1a

> <STRUCTURE_Formula>
C16H17F5N2O2S

> <STRUCTURE_MolecularWeight>
396.3754

> <STRUCTURE_ChemicalType>
defined organic

> <STRUCTURE_TestedForm_DefinedOrganic>
parent

> <STRUCTURE_Shown>
tested chemical

> <TestSubstance_ChemicalName>
Thiazopyr

> <TestSubstance_CASRN>
117718-60-2

> <TestSubstance_Description>
single chemical compound

> <STRUCTURE_ChemicalName_IUPAC>
methyl 2-(difluoromethyl)-5-(4,5-dihydro-1,3-thiazol-2-yl)-4-isobutyl-6-(trifluoromethyl)nicotinate

> <STRUCTURE_SMILES>
O=C(OC)C1=C(CC(C)C)C(C2=NCCS2)=C(C(F)(F)F)N=C1C(F)F

> <STRUCTURE_Parent_SMILES>
O=C(OC)C1=C(CC(C)C)C(C2=NCCS2)=C(C(F)(F)F)N=C1C(F)F

> <STRUCTURE_InChIS>
InChI=1S/C16H17F5N2O2S/c1-7(2)6-8-9(15(24)25-3)11(13(17)18)23-12(16(19,20)21)10(8)14-22-4-5-26-14/h7,13H,4-6H2,1-3H3

> <STRUCTURE_InChIKey>
YIJZJEYQBAAWRJ-UHFFFAOYSA-N

> <Substance_modify_yyyymmdd>
20080429

> <Coord_Metals>
0

> <Index>
646

> <Canonical_Smiles>
COC(=O)c1c(CC(C)C)c(C2=NCCS2)c(nc1C(F)F)C(F)(F)F

> <Molecular_Weight>
396.37539

> <Frequency>
1

$$$$

  SciTegic          2D

 38 39  0  0  0  0            999 V2000
    2.5951   -3.0039    0.0000 C   0  0
    2.5987   -1.5032    0.0000 C   0  0
    1.3005   -0.7501    0.0000 C   0  0
    1.3026    0.7507    0.0000 C   0  0
    3.9005   -0.7563    0.0000 O   0  0
    1.2934   -3.7508    0.0000 O   0  0
    1.2884   -5.2516    0.0000 C   0  0
   -0.0116   -6.0000    0.0000 C   0  0
    2.5865   -6.0033    0.0000 C   0  0
   -0.0135   -7.5000    0.0000 C   0  0
    2.5846   -7.5033    0.0000 C   0  0
    1.2846   -8.2516    0.0000 C   0  0
    1.2831   -9.4516    0.0000 Cl  0  0
    2.6254    0.0151    0.0000 C   0  0
   -0.0005   -1.4982    0.0000 C   0  0
    3.8933   -3.7570    0.0000 N   0  0
    4.0281   -5.2381    0.0000 N   0  0
    5.4946   -5.5530    0.0000 C   0  0
    6.2473   -4.2555    0.0000 N   0  0
    5.2459   -3.1387    0.0000 C   0  0
    2.5927   -4.0039    0.0000 H   0  0
    2.6011   -0.5032    0.0000 H   0  0
    0.4376    1.2525    0.0000 H   0  0
    1.3045    1.7507    0.0000 H   0  0
    2.1695    1.2492    0.0000 H   0  0
    4.7654   -1.2580    0.0000 H   0  0
   -0.8770   -5.4989    0.0000 H   0  0
    3.4531   -5.5044    0.0000 H   0  0
   -0.8802   -7.9989    0.0000 H   0  0
    3.4499   -8.0044    0.0000 H   0  0
    2.6258    1.0151    0.0000 H   0  0
    3.4913   -0.4851    0.0000 H   0  0
    3.4916    0.5148    0.0000 H   0  0
   -0.8660   -0.9972    0.0000 H   0  0
   -0.0019   -2.4982    0.0000 H   0  0
   -0.8672   -1.9971    0.0000 H   0  0
    5.8995   -6.4673    0.0000 H   0  0
    5.4500   -2.1597    0.0000 H   0  0
  1  2  1  0
  1  6  1  0
  1 16  1  0
  2  3  1  0
  2  5  1  0
  3  4  1  0
  3 14  1  0
  3 15  1  0
  6  7  1  0
  7  8  2  0
  7  9  1  0
  8 10  1  0
  9 11  2  0
 10 12  2  0
 11 12  1  0
 12 13  1  0
 16 17  1  0
 16 20  1  0
 17 18  2  0
 18 19  1  0
 19 20  2  0
  1 21  1  0
  2 22  1  0
  4 23  1  0
  4 24  1  0
  4 25  1  0
  5 26  1  0
  8 27  1  0
  9 28  1  0
 10 29  1  0
 11 30  1  0
 14 31  1  0
 14 32  1  0
 14 33  1  0
 15 34  1  0
 15 35  1  0
 15 36  1  0
 18 37  1  0
 20 38  1  0
V    1 0
V    2 1
V    3 2
V    4 3
V    5 4
V    6 5
V    7 6
V    8 7
V    9 8
V   10 9
V   11 10
V   12 11
V   13 12
V   14 13
V   15 14
V   16 15
V   17 16
V   18 17
V   19 18
V   20 19
M  END
> <DSSTox_RID>
65291

> <DSSTox_CID>
12493

> <DSSTox_CID_Parent>
12493

> <DSSTox_Generic_SID>
32493

> <DSSTox_FileID>
647_TXCST2_v1a

> <STRUCTURE_Formula>
C14H18ClN3O2

> <STRUCTURE_MolecularWeight>
295.7646

> <STRUCTURE_ChemicalType>
defined organic

> <STRUCTURE_TestedForm_DefinedOrganic>
parent

> <STRUCTURE_Shown>
tested chemical

> <TestSubstance_ChemicalName>
Triadimenol

> <TestSubstance_CASRN>
55219-65-3

> <TestSubstance_Description>
single chemical compound

> <ChemicalNote>
mixture of A (1S,2S), B (1S,2R) isomers (7:3); structure shown without stereochem

> <Source_ChemicalNote>
tested chemical was a mixture of the diastereoisomers A and B

> <STRUCTURE_ChemicalName_IUPAC>
1-(4-chlorophenoxy)-3,3-dimethyl-1-(1H-1,2,4-triazol-1-yl)butan-2-ol

> <STRUCTURE_SMILES>
OC(C(C)(C)C)C(N2N=CN=C2)OC1=CC=C(Cl)C=C1

> <STRUCTURE_Parent_SMILES>
OC(C(C)(C)C)C(N2N=CN=C2)OC1=CC=C(Cl)C=C1

> <STRUCTURE_InChIS>
InChI=1S/C14H18ClN3O2/c1-14(2,3)12(19)13(18-9-16-8-17-18)20-11-6-4-10(15)5-7-11/h4-9,12-13,19H,1-3H3

> <STRUCTURE_InChIKey>
BAZVSMNPJJMILC-UHFFFAOYSA-N

> <Substance_modify_yyyymmdd>
20080429

> <Coord_Metals>
0

> <Index>
647

> <Canonical_Smiles>
CC(C)(C)C(O)C(Oc1ccc(Cl)cc1)n2cncn2

> <Molecular_Weight>
295.76462

> <Frequency>
1

$$$$

  SciTegic          2D

 18 18  0  0  0  0            999 V2000
    1.2990   -0.7500    0.0000 N   0  0
    1.2990    0.7500    0.0000 C   0  0
    0.0000   -1.5000    0.0000 C   0  0
   -1.2990    0.7500    0.0000 C   0  0
    0.0000    1.5000    0.0000 C   0  0
   -1.2990   -0.7500    0.0000 C   0  0
    2.6003    1.4978    0.0000 O   0  0
    5.2003    1.4932    0.0000 C   0  0
    5.2024    2.6932    0.0000 O   0  0
    0.0000   -2.7000    0.0000 Cl  0  0
    3.8990    0.7455    0.0000 C   0  0
   -2.3383   -1.3500    0.0000 Cl  0  0
    0.0000    2.7000    0.0000 Cl  0  0
    6.4990    0.7410    0.0000 O   0  0
   -2.1651    1.2500    0.0000 H   0  0
    3.0322    0.2469    0.0000 H   0  0
    3.8973   -0.2545    0.0000 H   0  0
    7.3660    1.2392    0.0000 H   0  0
  1  2  1  0
  1  3  2  0
  2  5  2  0
  2  7  1  0
  3  6  1  0
  3 10  1  0
  4  6  2  0
  4  5  1  0
  5 13  1  0
  6 12  1  0
  7 11  1  0
  8 11  1  0
  8  9  2  0
  8 14  1  0
  4 15  1  0
 11 16  1  0
 11 17  1  0
 14 18  1  0
V    1 0
V    2 1
V    3 2
V    4 3
V    5 4
V    6 5
V    7 6
V    8 7
V    9 8
V   10 9
V   11 10
V   12 11
V   13 12
V   14 13
M  END
> <DSSTox_RID>
62413

> <DSSTox_CID>
12497

> <DSSTox_CID_Parent>
12497

> <DSSTox_Generic_SID>
32497

> <DSSTox_FileID>
648_TXCST2_v1a

> <STRUCTURE_Formula>
C7H4Cl3NO3

> <STRUCTURE_MolecularWeight>
256.4706

> <STRUCTURE_ChemicalType>
defined organic

> <STRUCTURE_TestedForm_DefinedOrganic>
parent

> <STRUCTURE_Shown>
tested chemical

> <TestSubstance_ChemicalName>
Triclopyr

> <TestSubstance_CASRN>
55335-06-3

> <TestSubstance_Description>
single chemical compound

> <Source_ChemicalNote>
tested chemical contained 0.05% water (0.01 moles H2O)

> <STRUCTURE_ChemicalName_IUPAC>
[(3,5,6-trichloropyridin-2-yl)oxy]acetic acid

> <STRUCTURE_SMILES>
O=C(O)COC1=C(Cl)C=C(Cl)C(Cl)=N1

> <STRUCTURE_Parent_SMILES>
O=C(O)COC1=C(Cl)C=C(Cl)C(Cl)=N1

> <STRUCTURE_InChIS>
InChI=1S/C7H4Cl3NO3/c8-3-1-4(9)7(11-6(3)10)14-2-5(12)13/h1H,2H2,(H,12,13)

> <STRUCTURE_InChIKey>
REEQLXCGVXDJSQ-UHFFFAOYSA-N

> <Substance_modify_yyyymmdd>
20080429

> <Coord_Metals>
0

> <Index>
648

> <Canonical_Smiles>
OC(=O)COc1nc(Cl)c(Cl)cc1Cl

> <Molecular_Weight>
256.47055

> <Frequency>
1

$$$$

  SciTegic          2D

 24 25  0  0  0  0            999 V2000
    2.5973   -1.5031    0.0000 O   0  0
    1.2990   -0.7500    0.0000 C   0  0
    2.5951   -3.0039    0.0000 C   0  0
    1.2990    0.7500    0.0000 C   0  0
    3.8915   -3.7585    0.0000 C   0  0
    0.0000    1.5000    0.0000 C   0  0
    3.8864   -5.2585    0.0000 C   0  0
    0.0000   -1.5000    0.0000 C   0  0
    1.2935   -3.7495    0.0000 C   0  0
    2.5847   -6.0040    0.0000 C   0  0
   -1.2990    0.7500    0.0000 C   0  0
    2.3383    1.3500    0.0000 Cl  0  0
    5.1954   -3.0153    0.0000 O   0  0
   -1.2990   -0.7500    0.0000 C   0  0
    1.2883   -5.2495    0.0000 C   0  0
   -2.3383    1.3500    0.0000 Cl  0  0
    2.5806   -7.2040    0.0000 Cl  0  0
    0.0000    2.5000    0.0000 H   0  0
    4.7506   -5.7615    0.0000 H   0  0
    0.0000   -2.5000    0.0000 H   0  0
    0.4292   -3.2465    0.0000 H   0  0
    6.0590   -3.5195    0.0000 H   0  0
   -2.1651   -1.2500    0.0000 H   0  0
    0.4205   -5.7465    0.0000 H   0  0
  1  2  1  0
  1  3  1  0
  2  4  1  0
  2  8  2  0
  3  5  2  0
  3  9  1  0
  4  6  2  0
  4 12  1  0
  5  7  1  0
  5 13  1  0
  6 11  1  0
  7 10  2  0
  8 14  1  0
  9 15  2  0
 10 15  1  0
 10 17  1  0
 11 14  2  0
 11 16  1  0
  6 18  1  0
  7 19  1  0
  8 20  1  0
  9 21  1  0
 13 22  1  0
 14 23  1  0
 15 24  1  0
V    1 0
V    2 1
V    3 2
V    4 3
V    5 4
V    6 5
V    7 6
V    8 7
V    9 8
V   10 9
V   11 10
V   12 11
V   13 12
V   14 13
V   15 14
V   16 15
V   17 16
M  END
> <DSSTox_RID>
62299

> <DSSTox_CID>
12498

> <DSSTox_CID_Parent>
12498

> <DSSTox_Generic_SID>
32498

> <DSSTox_FileID>
649_TXCST2_v1a

> <STRUCTURE_Formula>
C12H7Cl3O2

> <STRUCTURE_MolecularWeight>
289.5418

> <STRUCTURE_ChemicalType>
defined organic

> <STRUCTURE_TestedForm_DefinedOrganic>
parent

> <STRUCTURE_Shown>
tested chemical

> <TestSubstance_ChemicalName>
Triclosan

> <TestSubstance_CASRN>
3380-34-5

> <TestSubstance_Description>
single chemical compound

> <STRUCTURE_ChemicalName_IUPAC>
5-chloro-2-(2,4-dichlorophenoxy)phenol

> <STRUCTURE_SMILES>
Clc2cc(Cl)ccc2Oc1ccc(Cl)cc1O

> <STRUCTURE_Parent_SMILES>
Clc2cc(Cl)ccc2Oc1ccc(Cl)cc1O

> <STRUCTURE_InChIS>
InChI=1S/C12H7Cl3O2/c13-7-1-3-11(9(15)5-7)17-12-4-2-8(14)6-10(12)16/h1-6,16H

> <STRUCTURE_InChIKey>
XEFQLINVKFYRCS-UHFFFAOYSA-N

> <Substance_modify_yyyymmdd>
20080429

> <Coord_Metals>
0

> <Index>
649

> <Canonical_Smiles>
Oc1cc(Cl)ccc1Oc2ccc(Cl)cc2Cl

> <Molecular_Weight>
289.54178

> <Frequency>
1

$$$$

  SciTegic          2D

 38 39  0  0  0  0            999 V2000
    6.2460   -4.2620    0.0000 N   0  0
    3.8934   -3.7569    0.0000 N   0  0
    5.2478   -3.1425    0.0000 C   0  0
    5.4897   -5.5574    0.0000 C   0  0
    4.0240   -5.2384    0.0000 C   0  0
    2.5951   -3.0039    0.0000 C   0  0
    1.2926   -3.7495    0.0000 C   0  0
    2.5973   -1.5030    0.0000 N   0  0
    1.2990   -0.7500    0.0000 C   0  0
    1.2990    0.7500    0.0000 C   0  0
    0.0000   -1.5000    0.0000 C   0  0
    0.0000    1.5000    0.0000 C   0  0
   -1.2990   -0.7500    0.0000 C   0  0
   -1.2990    0.7500    0.0000 C   0  0
   -2.3383    1.3500    0.0000 Cl  0  0
    2.5988    1.5004    0.0000 C   0  0
    3.6384    0.9011    0.0000 F   0  0
    2.5984    2.7004    0.0000 F   0  0
    3.6377    2.1009    0.0000 F   0  0
    1.2860   -5.2503    0.0000 O   0  0
   -0.0165   -5.9958    0.0000 C   0  0
   -0.0231   -7.4966    0.0000 C   0  0
   -1.3256   -8.2422    0.0000 C   0  0
    5.4546   -2.1641    0.0000 H   0  0
    5.8920   -6.4729    0.0000 H   0  0
    3.2737   -5.8995    0.0000 H   0  0
    0.4245   -4.2458    0.0000 H   0  0
    0.4286   -3.2460    0.0000 H   0  0
    0.0000   -2.5000    0.0000 H   0  0
    0.0000    2.5000    0.0000 H   0  0
   -2.1651   -1.2500    0.0000 H   0  0
   -0.0126   -4.9958    0.0000 H   0  0
   -0.8805   -5.4923    0.0000 H   0  0
    0.8450   -7.0003    0.0000 H   0  0
    0.8409   -8.0002    0.0000 H   0  0
   -1.3300   -9.2422    0.0000 H   0  0
   -2.1938   -8.7385    0.0000 H   0  0
   -2.1896   -7.7387    0.0000 H   0  0
  1  3  2  0
  1  4  1  0
  2  3  1  0
  2  5  1  0
  2  6  1  0
  4  5  2  0
  6  7  1  0
  6  8  2  0
  7 20  1  0
  8  9  1  0
  9 10  2  0
  9 11  1  0
 10 12  1  0
 10 16  1  0
 11 13  2  0
 12 14  2  0
 13 14  1  0
 14 15  1  0
 16 17  1  0
 16 18  1  0
 16 19  1  0
 20 21  1  0
 21 22  1  0
 22 23  1  0
  3 24  1  0
  4 25  1  0
  5 26  1  0
  7 27  1  0
  7 28  1  0
 11 29  1  0
 12 30  1  0
 13 31  1  0
 21 32  1  0
 21 33  1  0
 22 34  1  0
 22 35  1  0
 23 36  1  0
 23 37  1  0
 23 38  1  0
V    1 0
V    2 1
V    3 2
V    4 3
V    5 4
V    6 5
V    7 6
V    8 7
V    9 8
V   10 9
V   11 10
V   12 11
V   13 12
V   14 13
V   15 14
V   16 15
V   17 16
V   18 17
V   19 18
V   20 19
V   21 20
V   22 21
V   23 22
M  END
> <DSSTox_RID>
59443

> <DSSTox_CID>
12500

> <DSSTox_CID_Parent>
12500

> <DSSTox_Generic_SID>
32500

> <DSSTox_FileID>
650_TXCST2_v1a

> <STRUCTURE_Formula>
C15H15ClF3N3O

> <STRUCTURE_MolecularWeight>
345.7473

> <STRUCTURE_ChemicalType>
defined organic

> <STRUCTURE_TestedForm_DefinedOrganic>
parent

> <STRUCTURE_Shown>
tested chemical

> <TestSubstance_ChemicalName>
Triflumizole

> <TestSubstance_CASRN>
68694-11-1

> <TestSubstance_Description>
single chemical compound

> <Source_ChemicalNote>
tested chemical contained 0.07% water (0.01 moles H2O)

> <STRUCTURE_ChemicalName_IUPAC>
4-chloro-N-[(1E)-1-(1H-imidazol-1-yl)-2-propoxyethylidene]-2-(trifluoromethyl)aniline

> <STRUCTURE_SMILES>
ClC2=CC(C(F)(F)F)=C(C=C2)/N=C(COCCC)/N1C=NC=C1

> <STRUCTURE_Parent_SMILES>
ClC2=CC(C(F)(F)F)=C(C=C2)/N=C(COCCC)/N1C=NC=C1

> <STRUCTURE_InChIS>
InChI=1S/C15H15ClF3N3O/c1-2-7-23-9-14(22-6-5-20-10-22)21-13-4-3-11(16)8-12(13)15(17,18)19/h3-6,8,10H,2,7,9H2,1H3/b21-14+

> <STRUCTURE_InChIKey>
HSMVPDGQOIQYSR-KGENOOAVSA-N

> <Substance_modify_yyyymmdd>
20080429

> <Coord_Metals>
0

> <Index>
650

> <Canonical_Smiles>
CCCOCC(=Nc1ccc(Cl)cc1C(F)(F)F)n2ccnc2

> <Molecular_Weight>
345.7473

> <Frequency>
1

$$$$

  SciTegic          2D

 16 16  0  0  0  0            999 V2000
    1.2990   -0.7500    0.0000 C   0  0
    1.2990    0.7500    0.0000 C   0  0
    0.0000    1.5000    0.0000 C   0  0
   -1.2990    0.7500    0.0000 C   0  0
   -1.2990   -0.7500    0.0000 C   0  0
    0.0000   -1.5000    0.0000 C   0  0
    2.5973   -1.5031    0.0000 C   0  0
    2.5956   -2.7031    0.0000 O   0  0
   -0.0031   -3.0008    0.0000 C   0  0
   -1.0432   -3.5994    0.0000 O   0  0
    2.1651    1.2500    0.0000 H   0  0
    0.0000    2.5000    0.0000 H   0  0
   -2.1651    1.2500    0.0000 H   0  0
   -2.1651   -1.2500    0.0000 H   0  0
    3.4642   -1.0046    0.0000 H   0  0
    0.8621   -3.5023    0.0000 H   0  0
  1  2  2  0
  1  6  1  0
  1  7  1  0
  2  3  1  0
  3  4  2  0
  4  5  1  0
  5  6  2  0
  6  9  1  0
  7  8  2  0
  9 10  2  0
  2 11  1  0
  3 12  1  0
  4 13  1  0
  5 14  1  0
  7 15  1  0
  9 16  1  0
V    1 0
V    2 1
V    3 2
V    4 3
V    5 4
V    6 5
V    7 6
V    8 7
V    9 8
V   10 9
M  END
> <DSSTox_RID>
65272

> <DSSTox_CID>
12514

> <DSSTox_CID_Parent>
12514

> <DSSTox_Generic_SID>
32514

> <DSSTox_FileID>
651_TXCST2_v1a

> <STRUCTURE_Formula>
C8H6O2

> <STRUCTURE_MolecularWeight>
134.132

> <STRUCTURE_ChemicalType>
defined organic

> <STRUCTURE_TestedForm_DefinedOrganic>
parent

> <STRUCTURE_Shown>
tested chemical

> <TestSubstance_ChemicalName>
1,2-Benzenedicarboxaldehyde

> <TestSubstance_CASRN>
643-79-8

> <TestSubstance_Description>
single chemical compound

> <STRUCTURE_ChemicalName_IUPAC>
phthalaldehyde

> <STRUCTURE_SMILES>
O=CC1=CC=CC=C1C=O

> <STRUCTURE_Parent_SMILES>
O=CC1=CC=CC=C1C=O

> <STRUCTURE_InChIS>
InChI=1S/C8H6O2/c9-5-7-3-1-2-4-8(7)6-10/h1-6H

> <STRUCTURE_InChIKey>
ZWLUXSQADUDCSB-UHFFFAOYSA-N

> <Substance_modify_yyyymmdd>
20080429

> <Coord_Metals>
0

> <Index>
651

> <Canonical_Smiles>
O=Cc1ccccc1C=O

> <Molecular_Weight>
134.13203

> <Frequency>
1

$$$$

  SciTegic          2D

 19 20  0  0  0  0            999 V2000
    0.0446   -3.6095    0.0000 O   0  0
   -0.9971   -3.0138    0.0000 C   0  0
   -1.0028   -1.5132    0.0000 C   0  0
    0.2917   -0.7475    0.0000 C   0  0
    0.2917    0.7475    0.0000 C   0  0
   -1.0028    1.5132    0.0000 C   0  0
   -2.3155    0.7475    0.0000 C   0  0
   -2.3155   -0.7475    0.0000 C   0  0
    1.7138    1.2033    0.0000 N   0  0
    2.5889    0.0182    0.0000 N   0  0
    1.7138   -1.2033    0.0000 S   0  0
   -2.2935   -3.7700    0.0000 S   0  0
   -2.2878   -5.2708    0.0000 C   0  0
   -0.9997    2.5132    0.0000 H   0  0
   -3.1826    1.2456    0.0000 H   0  0
   -3.1826   -1.2456    0.0000 H   0  0
   -3.1516   -5.7746    0.0000 H   0  0
   -2.2835   -6.2708    0.0000 H   0  0
   -1.4197   -5.7672    0.0000 H   0  0
  1  2  2  0
  2  3  1  0
  2 12  1  0
  3  4  1  0
  3  8  2  0
  4  5  2  0
  4 11  1  0
  5  6  1  0
  5  9  1  0
  6  7  2  0
  7  8  1  0
  9 10  2  0
 10 11  1  0
 12 13  1  0
  6 14  1  0
  7 15  1  0
  8 16  1  0
 13 17  1  0
 13 18  1  0
 13 19  1  0
V    1 0
V    2 1
V    3 2
V    4 3
V    5 4
V    6 5
V    7 6
V    8 7
V    9 8
V   10 9
V   11 10
V   12 11
V   13 12
M  END
> <DSSTox_RID>
62384

> <DSSTox_CID>
12519

> <DSSTox_CID_Parent>
12519

> <DSSTox_Generic_SID>
32519

> <DSSTox_FileID>
652_TXCST2_v1a

> <STRUCTURE_Formula>
C8H6N2OS2

> <STRUCTURE_MolecularWeight>
210.276

> <STRUCTURE_ChemicalType>
defined organic

> <STRUCTURE_TestedForm_DefinedOrganic>
parent

> <STRUCTURE_Shown>
tested chemical

> <TestSubstance_ChemicalName>
Acibenzolar-S-methyl

> <TestSubstance_CASRN>
135158-54-2

> <TestSubstance_Description>
single chemical compound

> <STRUCTURE_ChemicalName_IUPAC>
S-methyl 1,2,3-benzothiadiazole-7-carbothioate

> <STRUCTURE_SMILES>
O=C(SC)C1=CC=CC2=C1SN=N2

> <STRUCTURE_Parent_SMILES>
O=C(SC)C1=CC=CC2=C1SN=N2

> <STRUCTURE_InChIS>
InChI=1S/C8H6N2OS2/c1-12-8(11)5-3-2-4-6-7(5)13-10-9-6/h2-4H,1H3

> <STRUCTURE_InChIKey>
UELITFHSCLAHKR-UHFFFAOYSA-N

> <Substance_modify_yyyymmdd>
20080429

> <Coord_Metals>
0

> <Index>
652

> <Canonical_Smiles>
CSC(=O)c1cccc2nnsc12

> <Molecular_Weight>
210.27603

> <Frequency>
1

$$$$

  SciTegic          2D

 47 49  0  0  0  0            999 V2000
    3.6380   -2.1004    0.0000 N   0  0
    2.5988   -1.5004    0.0000 C   0  0
    1.2990   -0.7500    0.0000 C   0  0
    1.2990    0.7500    0.0000 C   0  0
    0.0000    1.5000    0.0000 C   0  0
   -1.2990    0.7500    0.0000 C   0  0
   -1.2990   -0.7500    0.0000 C   0  0
    0.0000   -1.5000    0.0000 C   0  0
    2.5972    1.5031    0.0000 O   0  0
    2.5951    3.0039    0.0000 C   0  0
    3.8915    3.7585    0.0000 C   0  0
    3.8863    5.2585    0.0000 C   0  0
    2.5847    6.0040    0.0000 N   0  0
    1.2883    5.2495    0.0000 C   0  0
    1.2934    3.7495    0.0000 N   0  0
    5.1819    6.0161    0.0000 O   0  0
    5.1746    7.5169    0.0000 C   0  0
    6.4684    8.2760    0.0000 C   0  0
    6.4580    9.7759    0.0000 C   0  0
    5.1538   10.5169    0.0000 C   0  0
    3.8600    9.7579    0.0000 C   0  0
    3.8704    8.2580    0.0000 C   0  0
    7.7748    7.5373    0.0000 C   0  0
    9.0683    8.2986    0.0000 C   0  0
   10.3747    7.5599    0.0000 O   0  0
   11.6681    8.3212    0.0000 C   0  0
    7.7910    6.0366    0.0000 C   0  0
    6.7581    5.4257    0.0000 O   0  0
    9.0983    5.2993    0.0000 O   0  0
    9.1144    3.7986    0.0000 C   0  0
    0.0000    2.5000    0.0000 H   0  0
   -2.1651    1.2500    0.0000 H   0  0
   -2.1651   -1.2500    0.0000 H   0  0
    0.0000   -2.5000    0.0000 H   0  0
    4.7593    3.2615    0.0000 H   0  0
    0.4205    5.7465    0.0000 H   0  0
    7.3205   10.2819    0.0000 H   0  0
    5.1469   11.5169    0.0000 H   0  0
    2.9905   10.2519    0.0000 H   0  0
    3.0078    7.7520    0.0000 H   0  0
    9.0596    9.2985    0.0000 H   0  0
   12.5386    7.8290    0.0000 H   0  0
   12.5297    8.8289    0.0000 H   0  0
   11.6594    9.3212    0.0000 H   0  0
    9.9855    3.3074    0.0000 H   0  0
    9.1247    2.7987    0.0000 H   0  0
    8.2537    3.2896    0.0000 H   0  0
  1  2  3  0
  2  3  1  0
  3  4  1  0
  3  8  2  0
  4  5  2  0
  4  9  1  0
  5  6  1  0
  6  7  2  0
  7  8  1  0
  9 10  1  0
 10 11  1  0
 10 15  2  0
 11 12  2  0
 12 13  1  0
 12 16  1  0
 13 14  2  0
 14 15  1  0
 16 17  1  0
 17 18  1  0
 17 22  2  0
 18 19  2  0
 18 23  1  0
 19 20  1  0
 20 21  2  0
 21 22  1  0
 23 24  2  0
 23 27  1  0
 24 25  1  0
 25 26  1  0
 27 28  2  0
 27 29  1  0
 29 30  1  0
  5 31  1  0
  6 32  1  0
  7 33  1  0
  8 34  1  0
 11 35  1  0
 14 36  1  0
 19 37  1  0
 20 38  1  0
 21 39  1  0
 22 40  1  0
 24 41  1  0
 26 42  1  0
 26 43  1  0
 26 44  1  0
 30 45  1  0
 30 46  1  0
 30 47  1  0
V    1 0
V    2 1
V    3 2
V    4 3
V    5 4
V    6 5
V    7 6
V    8 7
V    9 8
V   10 9
V   11 10
V   12 11
V   13 12
V   14 13
V   15 14
V   16 15
V   17 16
V   18 17
V   19 18
V   20 19
V   21 20
V   22 21
V   23 22
V   24 23
V   25 24
V   26 25
V   27 26
V   28 27
V   29 28
V   30 29
M  END
> <DSSTox_RID>
60777

> <DSSTox_CID>
12520

> <DSSTox_CID_Parent>
12520

> <DSSTox_Generic_SID>
32520

> <DSSTox_FileID>
653_TXCST2_v1a

> <STRUCTURE_Formula>
C22H17N3O5

> <STRUCTURE_MolecularWeight>
403.3875

> <STRUCTURE_ChemicalType>
defined organic

> <STRUCTURE_TestedForm_DefinedOrganic>
parent

> <STRUCTURE_Shown>
tested chemical

> <TestSubstance_ChemicalName>
Azoxystrobin

> <TestSubstance_CASRN>
131860-33-8

> <TestSubstance_Description>
single chemical compound

> <ChemicalNote>
stereochem

> <Source_ChemicalNote>
tested chemical contained 0.1% water (0.02 moles H2O)

> <STRUCTURE_ChemicalName_IUPAC>
methyl (2E)-2-(2-{[6-(2-cyanophenoxy)pyrimidin-4-yl]oxy}phenyl)-3-methoxyacrylate

> <STRUCTURE_SMILES>
N#CC1=CC=CC=C1OC2=NC=NC(OC3=CC=CC=C3/C(C(OC)=O)=C\OC)=C2

> <STRUCTURE_Parent_SMILES>
N#CC1=CC=CC=C1OC2=NC=NC(OC3=CC=CC=C3/C(C(OC)=O)=C\OC)=C2

> <STRUCTURE_InChIS>
InChI=1S/C22H17N3O5/c1-27-13-17(22(26)28-2)16-8-4-6-10-19(16)30-21-11-20(24-14-25-21)29-18-9-5-3-7-15(18)12-23/h3-11,13-14H,1-2H3/b17-13+

> <STRUCTURE_InChIKey>
WFDXOXNFNRHQEC-GHRIWEEISA-N

> <Substance_modify_yyyymmdd>
20080429

> <Coord_Metals>
0

> <Index>
653

> <Canonical_Smiles>
COC=C(C(=O)OC)c1ccccc1Oc2cc(Oc3ccccc3C#N)ncn2

> <Molecular_Weight>
403.38748

> <Frequency>
1

$$$$

  SciTegic          2D

 15 16  0  0  0  0            999 V2000
    2.5889    0.0182    0.0000 N   0  0
    1.7138    1.2033    0.0000 S   0  0
    0.2917   -0.7475    0.0000 C   0  0
    0.2917    0.7475    0.0000 C   0  0
    1.7138   -1.2033    0.0000 C   0  0
   -1.0028    1.5132    0.0000 C   0  0
   -2.3155    0.7475    0.0000 C   0  0
   -2.3155   -0.7475    0.0000 C   0  0
   -1.0028   -1.5132    0.0000 C   0  0
    2.0907   -2.3426    0.0000 O   0  0
    3.5889    0.0254    0.0000 H   0  0
   -0.9997    2.5132    0.0000 H   0  0
   -3.1826    1.2456    0.0000 H   0  0
   -3.1826   -1.2456    0.0000 H   0  0
   -0.9997   -2.5132    0.0000 H   0  0
  1  2  1  0
  1  5  1  0
  2  4  1  0
  3  4  2  0
  3  5  1  0
  3  9  1  0
  4  6  1  0
  5 10  2  0
  6  7  2  0
  7  8  1  0
  8  9  2  0
  1 11  1  0
  6 12  1  0
  7 13  1  0
  8 14  1  0
  9 15  1  0
V    1 0
V    2 1
V    3 2
V    4 3
V    5 4
V    6 5
V    7 6
V    8 7
V    9 8
V   10 9
M  END
> <DSSTox_RID>
62311

> <DSSTox_CID>
12523

> <DSSTox_CID_Parent>
12523

> <DSSTox_Generic_SID>
32523

> <DSSTox_FileID>
654_TXCST2_v1a

> <STRUCTURE_Formula>
C7H5NOS

> <STRUCTURE_MolecularWeight>
151.1857

> <STRUCTURE_ChemicalType>
defined organic

> <STRUCTURE_TestedForm_DefinedOrganic>
parent

> <STRUCTURE_Shown>
tested chemical

> <TestSubstance_ChemicalName>
1,2-Benzisothiazolin-3-one

> <TestSubstance_CASRN>
2634-33-5

> <TestSubstance_Description>
single chemical compound

> <ChemicalNote>
tautomers

> <STRUCTURE_ChemicalName_IUPAC>
1,2-benzisothiazol-3(2H)-one

> <STRUCTURE_SMILES>
O=C1NSC2=C1C=CC=C2

> <STRUCTURE_Parent_SMILES>
O=C1NSC2=C1C=CC=C2

> <STRUCTURE_InChIS>
InChI=1S/C7H5NOS/c9-7-5-3-1-2-4-6(5)10-8-7/h1-4H,(H,8,9)

> <STRUCTURE_InChIKey>
DMSMPAJRVJJAGA-UHFFFAOYSA-N

> <Substance_modify_yyyymmdd>
20080429

> <Coord_Metals>
0

> <Index>
654

> <Canonical_Smiles>
O=C1NSc2ccccc12

> <Molecular_Weight>
151.18569

> <Frequency>
1

$$$$

  SciTegic          2D

 42 43  0  0  0  0            999 V2000
   -2.6078    5.9988    0.0000 O   0  0
   -1.3070    5.2502    0.0000 C   0  0
   -1.3039    3.7494    0.0000 N   0  0
   -0.0031    3.0008    0.0000 N   0  0
    1.2990   -0.7500    0.0000 C   0  0
    1.2990    0.7500    0.0000 C   0  0
    0.0000   -1.5000    0.0000 C   0  0
    0.0000    1.5000    0.0000 C   0  0
   -1.2990   -0.7500    0.0000 C   0  0
   -1.2990    0.7500    0.0000 C   0  0
    2.5987   -1.5004    0.0000 C   0  0
    3.8991   -0.7525    0.0000 C   0  0
    2.5965   -3.0004    0.0000 C   0  0
    5.1969   -1.5045    0.0000 C   0  0
    3.8943   -3.7525    0.0000 C   0  0
    5.1945   -3.0045    0.0000 C   0  0
   -2.6003    1.4977    0.0000 O   0  0
   -3.8990    0.7455    0.0000 C   0  0
   -0.2688    5.8520    0.0000 O   0  0
   -2.6109    7.4996    0.0000 C   0  0
   -3.9118    8.2481    0.0000 C   0  0
   -3.9332    6.7298    0.0000 C   0  0
   -2.1691    3.2479    0.0000 H   0  0
    0.8620    3.5023    0.0000 H   0  0
    2.1651    1.2500    0.0000 H   0  0
    0.0000   -2.5000    0.0000 H   0  0
   -2.1651   -1.2500    0.0000 H   0  0
    3.9007    0.2475    0.0000 H   0  0
    1.7297   -3.4991    0.0000 H   0  0
    6.0637   -1.0059    0.0000 H   0  0
    3.8927   -4.7525    0.0000 H   0  0
    6.0598   -3.5059    0.0000 H   0  0
   -4.7661    1.2437    0.0000 H   0  0
   -3.8973   -0.2545    0.0000 H   0  0
   -4.7641    0.2438    0.0000 H   0  0
   -1.7458    8.0011    0.0000 H   0  0
   -3.9138    9.2481    0.0000 H   0  0
   -4.7787    8.7465    0.0000 H   0  0
   -4.7769    7.7466    0.0000 H   0  0
   -3.9301    5.7298    0.0000 H   0  0
   -4.7976    6.2271    0.0000 H   0  0
   -4.8008    7.2270    0.0000 H   0  0
  1  2  1  0
  1 20  1  0
  2  3  1  0
  2 19  2  0
  3  4  1  0
  4  8  1  0
  5 11  1  0
  5  6  2  0
  5  7  1  0
  6  8  1  0
  7  9  2  0
  8 10  2  0
  9 10  1  0
 10 17  1  0
 11 12  2  0
 11 13  1  0
 12 14  1  0
 13 15  2  0
 14 16  2  0
 15 16  1  0
 17 18  1  0
 20 21  1  0
 20 22  1  0
  3 23  1  0
  4 24  1  0
  6 25  1  0
  7 26  1  0
  9 27  1  0
 12 28  1  0
 13 29  1  0
 14 30  1  0
 15 31  1  0
 16 32  1  0
 18 33  1  0
 18 34  1  0
 18 35  1  0
 20 36  1  0
 21 37  1  0
 21 38  1  0
 21 39  1  0
 22 40  1  0
 22 41  1  0
 22 42  1  0
V    1 0
V    2 1
V    3 2
V    4 3
V    5 4
V    6 5
V    7 6
V    8 7
V    9 8
V   10 9
V   11 10
V   12 11
V   13 12
V   14 13
V   15 14
V   16 15
V   17 16
V   18 17
V   19 18
V   20 19
V   21 20
V   22 21
M  END
> <DSSTox_RID>
65316

> <DSSTox_CID>
12525

> <DSSTox_CID_Parent>
12525

> <DSSTox_Generic_SID>
32525

> <DSSTox_FileID>
655_TXCST2_v1a

> <STRUCTURE_Formula>
C17H20N2O3

> <STRUCTURE_MolecularWeight>
300.3523

> <STRUCTURE_ChemicalType>
defined organic

> <STRUCTURE_TestedForm_DefinedOrganic>
parent

> <STRUCTURE_Shown>
tested chemical

> <TestSubstance_ChemicalName>
Bifenazate

> <TestSubstance_CASRN>
149877-41-8

> <TestSubstance_Description>
single chemical compound

> <STRUCTURE_ChemicalName_IUPAC>
isopropyl 2-(4-methoxybiphenyl-3-yl)hydrazinecarboxylate

> <STRUCTURE_SMILES>
O=C(NNC1=C(OC)C=CC(C2=CC=CC=C2)=C1)OC(C)C

> <STRUCTURE_Parent_SMILES>
O=C(NNC1=C(OC)C=CC(C2=CC=CC=C2)=C1)OC(C)C

> <STRUCTURE_InChIS>
InChI=1S/C17H20N2O3/c1-12(2)22-17(20)19-18-15-11-14(9-10-16(15)21-3)13-7-5-4-6-8-13/h4-12,18H,1-3H3,(H,19,20)

> <STRUCTURE_InChIKey>
VHLKTXFWDRXILV-UHFFFAOYSA-N

> <Substance_modify_yyyymmdd>
20080429

> <Coord_Metals>
0

> <Index>
655

> <Canonical_Smiles>
COc1ccc(cc1NNC(=O)OC(C)C)c2ccccc2

> <Molecular_Weight>
300.3523

> <Frequency>
1

$$$$

  SciTegic          2D

 40 41  0  0  0  0            999 V2000
    2.5987   -1.5004    0.0000 N   0  0
    1.2990   -0.7500    0.0000 C   0  0
    3.9511   -0.8815    0.0000 C   0  0
    2.7343   -2.9815    0.0000 N   0  0
    1.2990    0.7500    0.0000 C   0  0
    0.0000   -1.5000    0.0000 C   0  0
    4.9531   -1.9978    0.0000 N   0  0
    4.1955    0.2934    0.0000 O   0  0
    4.2010   -3.2956    0.0000 C   0  0
    0.0000    1.5000    0.0000 C   0  0
   -1.2990   -0.7500    0.0000 C   0  0
    0.0000   -2.7000    0.0000 F   0  0
    6.4433   -1.8435    0.0000 C   0  0
    4.8082   -4.6653    0.0000 C   0  0
   -1.2990    0.7500    0.0000 C   0  0
    0.0000    3.0008    0.0000 C   0  0
    6.9339   -0.7484    0.0000 F   0  0
    7.1468   -2.8157    0.0000 F   0  0
   -2.3383    1.3500    0.0000 Cl  0  0
    1.2993    3.7521    0.0000 C   0  0
    1.2992    5.2529    0.0000 C   0  0
    2.3387    3.1524    0.0000 Cl  0  0
    2.5985    6.0041    0.0000 O   0  0
    0.2598    5.8526    0.0000 O   0  0
    2.5985    7.5050    0.0000 C   0  0
    3.8978    8.2562    0.0000 C   0  0
    2.1651    1.2500    0.0000 H   0  0
   -2.1651   -1.2500    0.0000 H   0  0
    7.4381   -1.7411    0.0000 H   0  0
    4.2197   -5.4738    0.0000 H   0  0
    5.8026   -4.7711    0.0000 H   0  0
    5.2139   -5.5793    0.0000 H   0  0
   -0.8662    3.5005    0.0000 H   0  0
   -0.8660    2.5007    0.0000 H   0  0
    2.1652    4.2522    0.0000 H   0  0
    1.7326    7.0048    0.0000 H   0  0
    1.7323    8.0047    0.0000 H   0  0
    3.8978    9.2562    0.0000 H   0  0
    4.7637    8.7563    0.0000 H   0  0
    4.7640    7.7565    0.0000 H   0  0
  1  2  1  0
  1  3  1  0
  1  4  1  0
  2  5  2  0
  2  6  1  0
  3  7  1  0
  3  8  2  0
  4  9  2  0
  5 10  1  0
  6 11  2  0
  6 12  1  0
  7 13  1  0
  7  9  1  0
  9 14  1  0
 10 15  2  0
 10 16  1  0
 11 15  1  0
 13 17  1  0
 13 18  1  0
 15 19  1  0
 16 20  1  0
 20 21  1  0
 20 22  1  0
 21 23  1  0
 21 24  2  0
 23 25  1  0
 25 26  1  0
  5 27  1  0
 11 28  1  0
 13 29  1  0
 14 30  1  0
 14 31  1  0
 14 32  1  0
 16 33  1  0
 16 34  1  0
 20 35  1  0
 25 36  1  0
 25 37  1  0
 26 38  1  0
 26 39  1  0
 26 40  1  0
V    1 0
V    2 1
V    3 2
V    4 3
V    5 4
V    6 5
V    7 6
V    8 7
V    9 8
V   10 9
V   11 10
V   12 11
V   13 12
V   14 13
V   15 14
V   16 15
V   17 16
V   18 17
V   19 18
V   20 19
V   21 20
V   22 21
V   23 22
V   24 23
V   25 24
V   26 25
M  END
> <DSSTox_RID>
66349

> <DSSTox_CID>
12532

> <DSSTox_CID_Parent>
12532

> <DSSTox_Generic_SID>
32532

> <DSSTox_FileID>
656_TXCST2_v1a

> <STRUCTURE_Formula>
C15H14Cl2F3N3O3

> <STRUCTURE_MolecularWeight>
412.1912

> <STRUCTURE_ChemicalType>
defined organic

> <STRUCTURE_TestedForm_DefinedOrganic>
parent

> <STRUCTURE_Shown>
tested chemical

> <TestSubstance_ChemicalName>
Carfentrazone-ethyl

> <TestSubstance_CASRN>
128639-02-1

> <TestSubstance_Description>
single chemical compound

> <STRUCTURE_ChemicalName_IUPAC>
ethyl 2-chloro-3-{2-chloro-5-[4-(difluoromethyl)-3-methyl-5-oxo-4,5-dihydro-1H-1,2,4-triazol-1-yl]-4-fluorophenyl}propanoate

> <STRUCTURE_SMILES>
O=C2N(N=C(C)N2C(F)F)C1=CC(CC(Cl)C(OCC)=O)=C(Cl)C=C1F

> <STRUCTURE_Parent_SMILES>
O=C2N(N=C(C)N2C(F)F)C1=CC(CC(Cl)C(OCC)=O)=C(Cl)C=C1F

> <STRUCTURE_InChIS>
InChI=1S/C15H14Cl2F3N3O3/c1-3-26-13(24)10(17)4-8-5-12(11(18)6-9(8)16)23-15(25)22(14(19)20)7(2)21-23/h5-6,10,14H,3-4H2,1-2H3

> <STRUCTURE_InChIKey>
MLKCGVHIFJBRCD-UHFFFAOYSA-N

> <Substance_modify_yyyymmdd>
20080429

> <Coord_Metals>
0

> <Index>
656

> <Canonical_Smiles>
CCOC(=O)C(Cl)Cc1cc(N2N=C(C)N(C(F)F)C2=O)c(F)cc1Cl

> <Molecular_Weight>
412.19116

> <Frequency>
1

$$$$

  SciTegic          2D

 71 70  0  0  0  0            999 V2000
   14.2999    2.2507    0.0000 C   0  0
   14.2999    0.7500    0.0000 N   0  3
   12.9999    0.0000    0.0000 C   0  0
   12.9985   -1.5008    0.0000 C   0  0
   11.6985   -2.2508    0.0000 C   0  0
   11.6971   -3.7516    0.0000 C   0  0
   10.3971   -4.5016    0.0000 C   0  0
   10.3956   -6.0025    0.0000 C   0  0
    9.0956   -6.7525    0.0000 C   0  0
    9.0942   -8.2533    0.0000 C   0  0
    7.7942   -9.0033    0.0000 C   0  0
    7.7928  -10.5041    0.0000 C   0  0
   15.5999    0.0000    0.0000 C   0  0
   16.8999    0.7500    0.0000 C   0  0
   18.1999    0.0000    0.0000 C   0  0
   19.4998    0.7500    0.0000 C   0  0
   20.7998    0.0000    0.0000 C   0  0
   22.0998    0.7500    0.0000 C   0  0
   23.3998    0.0000    0.0000 C   0  0
   24.6998    0.7500    0.0000 C   0  0
   25.9998    0.0000    0.0000 C   0  0
   27.2998    0.7500    0.0000 C   0  0
   12.9731    1.5119    0.0000 C   0  0
   15.1656    2.7513    0.0000 H   0  0
   13.4337    2.7505    0.0000 H   0  0
   14.2994    3.2507    0.0000 H   0  0
   12.1342    0.5005    0.0000 H   0  0
   12.1335   -0.4993    0.0000 H   0  0
   13.8642   -2.0014    0.0000 H   0  0
   12.9980   -2.5008    0.0000 H   0  0
   10.8328   -1.7503    0.0000 H   0  0
   10.8321   -2.7501    0.0000 H   0  0
   12.5628   -4.2522    0.0000 H   0  0
   11.6966   -4.7516    0.0000 H   0  0
    9.5314   -4.0011    0.0000 H   0  0
    9.5306   -5.0010    0.0000 H   0  0
   11.2613   -6.5030    0.0000 H   0  0
   10.3952   -7.0025    0.0000 H   0  0
    8.2299   -6.2519    0.0000 H   0  0
    8.2292   -7.2518    0.0000 H   0  0
    9.9599   -8.7538    0.0000 H   0  0
    9.0937   -9.2533    0.0000 H   0  0
    6.9285   -8.5027    0.0000 H   0  0
    6.9278   -9.5026    0.0000 H   0  0
    6.9266  -11.0038    0.0000 H   0  0
    8.6585  -11.0047    0.0000 H   0  0
    7.7923  -11.5041    0.0000 H   0  0
   15.5999   -1.0000    0.0000 H   0  0
   14.7339   -0.5001    0.0000 H   0  0
   16.8999    1.7500    0.0000 H   0  0
   16.0339    1.2501    0.0000 H   0  0
   18.1999   -1.0000    0.0000 H   0  0
   17.3339   -0.5001    0.0000 H   0  0
   19.4998    1.7500    0.0000 H   0  0
   18.6339    1.2501    0.0000 H   0  0
   20.7998   -1.0000    0.0000 H   0  0
   19.9339   -0.5001    0.0000 H   0  0
   22.0998    1.7500    0.0000 H   0  0
   21.2339    1.2501    0.0000 H   0  0
   23.3998   -1.0000    0.0000 H   0  0
   22.5339   -0.5001    0.0000 H   0  0
   24.6998    1.7500    0.0000 H   0  0
   23.8339    1.2501    0.0000 H   0  0
   25.9998   -1.0000    0.0000 H   0  0
   25.1339   -0.5001    0.0000 H   0  0
   28.1660    0.2503    0.0000 H   0  0
   27.2998    1.7500    0.0000 H   0  0
   28.1657    1.2501    0.0000 H   0  0
   12.1080    1.0104    0.0000 H   0  0
   12.9711    2.5119    0.0000 H   0  0
   12.1062    2.0103    0.0000 H   0  0
  1  2  1  0
  2  3  1  0
  2 13  1  0
  2 23  1  0
  3  4  1  0
  4  5  1  0
  5  6  1  0
  6  7  1  0
  7  8  1  0
  8  9  1  0
  9 10  1  0
 10 11  1  0
 11 12  1  0
 13 14  1  0
 14 15  1  0
 15 16  1  0
 16 17  1  0
 17 18  1  0
 18 19  1  0
 19 20  1  0
 20 21  1  0
 21 22  1  0
  1 24  1  0
  1 25  1  0
  1 26  1  0
  3 27  1  0
  3 28  1  0
  4 29  1  0
  4 30  1  0
  5 31  1  0
  5 32  1  0
  6 33  1  0
  6 34  1  0
  7 35  1  0
  7 36  1  0
  8 37  1  0
  8 38  1  0
  9 39  1  0
  9 40  1  0
 10 41  1  0
 10 42  1  0
 11 43  1  0
 11 44  1  0
 12 45  1  0
 12 46  1  0
 12 47  1  0
 13 48  1  0
 13 49  1  0
 14 50  1  0
 14 51  1  0
 15 52  1  0
 15 53  1  0
 16 54  1  0
 16 55  1  0
 17 56  1  0
 17 57  1  0
 18 58  1  0
 18 59  1  0
 19 60  1  0
 19 61  1  0
 20 62  1  0
 20 63  1  0
 21 64  1  0
 21 65  1  0
 22 66  1  0
 22 67  1  0
 22 68  1  0
 23 69  1  0
 23 70  1  0
 23 71  1  0
M  CHG  1   2   1
V    1 0
V    2 1
V    3 2
V    4 3
V    5 4
V    6 5
V    7 6
V    8 7
V    9 8
V   10 9
V   11 10
V   12 11
V   13 12
V   14 13
V   15 14
V   16 15
V   17 16
V   18 17
V   19 18
V   20 19
V   21 20
V   22 21
V   23 22
M  END
> <DSSTox_RID>
62414

> <DSSTox_CID>
12537

> <DSSTox_Generic_SID>
32537

> <DSSTox_FileID>
657_TXCST2_v1a

> <STRUCTURE_Formula>
C22H48ClN

> <STRUCTURE_MolecularWeight>
362.0762

> <STRUCTURE_ChemicalType>
defined organic

> <STRUCTURE_TestedForm_DefinedOrganic>
salt Cl

> <STRUCTURE_Shown>
tested chemical

> <TestSubstance_ChemicalName>
Didecyl dimethyl ammonium chloride

> <TestSubstance_CASRN>
7173-51-5

> <TestSubstance_Description>
single chemical compound

> <ChemicalNote>
parent [20256-56-8]

> <STRUCTURE_ChemicalName_IUPAC>
N-decyl-N,N-dimethyldecan-1-aminium chloride

> <STRUCTURE_SMILES>
C[N+](CCCCCCCCCC)(C)CCCCCCCCCC.[Cl-]

> <STRUCTURE_Parent_SMILES>
C[N+](CCCCCCCCCC)(C)CCCCCCCCCC

> <STRUCTURE_InChIS>
InChI=1S/C22H48N.ClH/c1-5-7-9-11-13-15-17-19-21-23(3,4)22-20-18-16-14-12-10-8-6-2;/h5-22H2,1-4H3;1H/q+1;/p-1

> <STRUCTURE_InChIKey>
RUPBZQFQVRMKDG-UHFFFAOYSA-M

> <Substance_modify_yyyymmdd>
20080429

> <Coord_Metals>
0

> <Index>
657

> <Canonical_Smiles>
CCCCCCCCCC[N+](C)(C)CCCCCCCCCC

> <Molecular_Weight>
326.62322

> <Frequency>
1

$$$$

  SciTegic          2D

 35 35  0  0  0  0            999 V2000
    3.6375   -0.9049    0.0000 O   0  0
    2.5973   -1.5031    0.0000 C   0  0
    1.2990   -0.7500    0.0000 C   0  0
    1.2990    0.7500    0.0000 C   0  0
    0.0000    1.5000    0.0000 N   0  0
   -1.2990    0.7500    0.0000 C   0  0
   -1.2990   -0.7500    0.0000 C   0  0
    0.0000   -1.5000    0.0000 C   0  0
   -2.5973    1.5031    0.0000 C   0  0
   -3.6375    0.9049    0.0000 O   0  0
   -2.5951    3.0039    0.0000 O   0  0
   -3.8933    3.7570    0.0000 C   0  0
   -3.8912    5.2578    0.0000 C   0  0
   -5.1894    6.0109    0.0000 C   0  0
    2.5951   -3.0039    0.0000 O   0  0
    3.8933   -3.7570    0.0000 C   0  0
    3.8912   -5.2578    0.0000 C   0  0
    5.1894   -6.0109    0.0000 C   0  0
    2.1651    1.2500    0.0000 H   0  0
   -2.1651   -1.2500    0.0000 H   0  0
    0.0000   -2.5000    0.0000 H   0  0
   -3.8952    2.7570    0.0000 H   0  0
   -4.7602    3.2585    0.0000 H   0  0
   -3.0260    4.7564    0.0000 H   0  0
   -3.0243    5.7563    0.0000 H   0  0
   -5.1880    7.0109    0.0000 H   0  0
   -6.0547    6.5123    0.0000 H   0  0
   -6.0563    5.5124    0.0000 H   0  0
    3.8952   -2.7570    0.0000 H   0  0
    4.7602   -3.2585    0.0000 H   0  0
    3.0260   -4.7564    0.0000 H   0  0
    3.0243   -5.7563    0.0000 H   0  0
    5.1880   -7.0109    0.0000 H   0  0
    6.0546   -6.5123    0.0000 H   0  0
    6.0563   -5.5124    0.0000 H   0  0
  1  2  2  0
  2  3  1  0
  2 15  1  0
  3  4  1  0
  3  8  2  0
  4  5  2  0
  5  6  1  0
  6  7  2  0
  6  9  1  0
  7  8  1  0
  9 10  2  0
  9 11  1  0
 11 12  1  0
 12 13  1  0
 13 14  1  0
 15 16  1  0
 16 17  1  0
 17 18  1  0
  4 19  1  0
  7 20  1  0
  8 21  1  0
 12 22  1  0
 12 23  1  0
 13 24  1  0
 13 25  1  0
 14 26  1  0
 14 27  1  0
 14 28  1  0
 16 29  1  0
 16 30  1  0
 17 31  1  0
 17 32  1  0
 18 33  1  0
 18 34  1  0
 18 35  1  0
V    1 0
V    2 1
V    3 2
V    4 3
V    5 4
V    6 5
V    7 6
V    8 7
V    9 8
V   10 9
V   11 10
V   12 11
V   13 12
V   14 13
V   15 14
V   16 15
V   17 16
V   18 17
M  END
> <DSSTox_RID>
65457

> <DSSTox_CID>
12544

> <DSSTox_CID_Parent>
12544

> <DSSTox_Generic_SID>
32544

> <DSSTox_FileID>
658_TXCST2_v1a

> <STRUCTURE_Formula>
C13H17NO4

> <STRUCTURE_MolecularWeight>
251.2784

> <STRUCTURE_ChemicalType>
defined organic

> <STRUCTURE_TestedForm_DefinedOrganic>
parent

> <STRUCTURE_Shown>
tested chemical

> <TestSubstance_ChemicalName>
Diisopropyl pyridine-2,5-dicarboxylate

> <TestSubstance_CASRN>
136-45-8

> <TestSubstance_Description>
single chemical compound

> <STRUCTURE_ChemicalName_IUPAC>
dipropyl pyridine-2,5-dicarboxylate

> <STRUCTURE_SMILES>
O=C(OCCC)C1=CC=C(C(OCCC)=O)N=C1

> <STRUCTURE_Parent_SMILES>
O=C(OCCC)C1=CC=C(C(OCCC)=O)N=C1

> <STRUCTURE_InChIS>
InChI=1S/C13H17NO4/c1-3-7-17-12(15)10-5-6-11(14-9-10)13(16)18-8-4-2/h5-6,9H,3-4,7-8H2,1-2H3

> <STRUCTURE_InChIKey>
IITCWRFYJWUUPC-UHFFFAOYSA-N

> <Substance_modify_yyyymmdd>
20080429

> <Coord_Metals>
0

> <Index>
658

> <Canonical_Smiles>
CCCOC(=O)c1ccc(nc1)C(=O)OCCC

> <Molecular_Weight>
251.27837

> <Frequency>
1

$$$$

  SciTegic          2D

 17 17  0  0  0  0            999 V2000
    2.8242   -2.1197    0.0000 Cl  0  0
    1.6307   -2.2444    0.0000 C   0  0
    0.7500   -1.0323    0.0000 C   0  0
    1.2135    0.3943    0.0000 N   0  0
    0.0000    1.2760    0.0000 S   0  0
   -1.2135    0.3943    0.0000 C   0  0
   -0.7500   -1.0323    0.0000 N   0  0
   -2.6394    0.8543    0.0000 O   0  0
   -3.7533   -0.1515    0.0000 C   0  0
   -5.1816    0.3093    0.0000 C   0  0
    1.1422   -3.3405    0.0000 Cl  0  0
    2.3355   -3.2155    0.0000 Cl  0  0
   -3.5437   -1.1293    0.0000 H   0  0
   -2.8017   -0.4590    0.0000 H   0  0
   -5.9238   -0.3609    0.0000 H   0  0
   -5.3913    1.2870    0.0000 H   0  0
   -6.1332    0.6168    0.0000 H   0  0
  1  2  1  0
  2  3  1  0
  2 11  1  0
  2 12  1  0
  3  4  2  0
  3  7  1  0
  4  5  1  0
  5  6  1  0
  6  7  2  0
  6  8  1  0
  8  9  1  0
  9 10  1  0
  9 13  1  0
  9 14  1  0
 10 15  1  0
 10 16  1  0
 10 17  1  0
V    1 0
V    2 1
V    3 2
V    4 3
V    5 4
V    6 5
V    7 6
V    8 7
V    9 8
V   10 9
V   11 10
V   12 11
M  END
> <DSSTox_RID>
65268

> <DSSTox_CID>
12547

> <DSSTox_CID_Parent>
12547

> <DSSTox_Generic_SID>
32547

> <DSSTox_FileID>
659_TXCST2_v1a

> <STRUCTURE_Formula>
C5H5Cl3N2OS

> <STRUCTURE_MolecularWeight>
247.53

> <STRUCTURE_ChemicalType>
defined organic

> <STRUCTURE_TestedForm_DefinedOrganic>
parent

> <STRUCTURE_Shown>
tested chemical

> <TestSubstance_ChemicalName>
Etridiazole

> <TestSubstance_CASRN>
2593-15-9

> <TestSubstance_Description>
single chemical compound

> <STRUCTURE_ChemicalName_IUPAC>
5-ethoxy-3-(trichloromethyl)-1,2,4-thiadiazole

> <STRUCTURE_SMILES>
ClC(Cl)(Cl)C1=NSC(OCC)=N1

> <STRUCTURE_Parent_SMILES>
ClC(Cl)(Cl)C1=NSC(OCC)=N1

> <STRUCTURE_InChIS>
InChI=1S/C5H5Cl3N2OS/c1-2-11-4-9-3(10-12-4)5(6,7)8/h2H2,1H3

> <STRUCTURE_InChIKey>
KQTVWCSONPJJPE-UHFFFAOYSA-N

> <Substance_modify_yyyymmdd>
20080429

> <Coord_Metals>
0

> <Index>
659

> <Canonical_Smiles>
CCOc1nc(ns1)C(Cl)(Cl)Cl

> <Molecular_Weight>
247.52999

> <Frequency>
1

$$$$

  SciTegic          2D

 41 43  0  0  0  0            999 V2000
    3.8230    4.0494    0.0000 Cl  0  0
    2.6412    4.2577    0.0000 C   0  0
    1.6771    3.1087    0.0000 C   0  0
    0.1999    3.3691    0.0000 C   0  0
   -0.3132    4.7787    0.0000 C   0  0
    0.6510    5.9277    0.0000 C   0  0
    2.1282    5.6673    0.0000 C   0  0
   -1.7912    5.0393    0.0000 C   0  0
   -2.7566    3.8902    0.0000 C   0  0
   -4.2347    4.1508    0.0000 C   0  0
   -5.1990    3.0008    0.0000 C   0  0
   -5.1985    1.5008    0.0000 C   0  0
   -6.4973    0.7504    0.0000 C   0  0
   -7.7966    1.5000    0.0000 C   0  0
   -7.7970    3.0000    0.0000 C   0  0
   -6.4982    3.7504    0.0000 C   0  0
   -3.7103    2.7135    0.0000 C   0  0
   -3.2990    1.5862    0.0000 N   0  0
   -4.7489    5.5608    0.0000 C   0  0
   -6.2269    5.8214    0.0000 N   0  0
   -7.2843    4.7756    0.0000 N   0  0
   -8.6087    5.4798    0.0000 C   0  0
   -8.3483    6.9570    0.0000 N   0  0
   -6.8629    7.1658    0.0000 C   0  0
    2.0191    2.1690    0.0000 H   0  0
   -0.4429    2.6031    0.0000 H   0  0
    0.3090    6.8674    0.0000 H   0  0
    2.7710    6.4333    0.0000 H   0  0
   -2.1329    5.9791    0.0000 H   0  0
   -1.1483    5.8052    0.0000 H   0  0
   -2.4149    2.9504    0.0000 H   0  0
   -1.7719    3.7161    0.0000 H   0  0
   -4.3323    1.0011    0.0000 H   0  0
   -6.4970   -0.2496    0.0000 H   0  0
   -8.6624    0.9997    0.0000 H   0  0
   -8.6632    3.4997    0.0000 H   0  0
   -6.4986    4.7504    0.0000 H   0  0
   -4.1063    6.3270    0.0000 H   0  0
   -5.0911    6.5004    0.0000 H   0  0
   -9.5075    5.0414    0.0000 H   0  0
   -6.3881    8.0459    0.0000 H   0  0
  1  2  1  0
  2  3  1  0
  2  7  2  0
  3  4  2  0
  4  5  1  0
  5  6  2  0
  5  8  1  0
  6  7  1  0
  8  9  1  0
  9 10  1  0
 10 11  1  0
 10 17  1  0
 10 19  1  0
 11 12  1  0
 11 16  2  0
 12 13  2  0
 13 14  1  0
 14 15  2  0
 15 16  1  0
 17 18  3  0
 19 20  1  0
 20 21  1  0
 20 24  1  0
 21 22  2  0
 22 23  1  0
 23 24  2  0
  3 25  1  0
  4 26  1  0
  6 27  1  0
  7 28  1  0
  8 29  1  0
  8 30  1  0
  9 31  1  0
  9 32  1  0
 12 33  1  0
 13 34  1  0
 14 35  1  0
 15 36  1  0
 16 37  1  0
 19 38  1  0
 19 39  1  0
 22 40  1  0
 24 41  1  0
V    1 0
V    2 1
V    3 2
V    4 3
V    5 4
V    6 5
V    7 6
V    8 7
V    9 8
V   10 9
V   11 10
V   12 11
V   13 12
V   14 13
V   15 14
V   16 15
V   17 16
V   18 17
V   19 18
V   20 19
V   21 20
V   22 21
V   23 22
V   24 23
M  END
> <DSSTox_RID>
62362

> <DSSTox_CID>
12548

> <DSSTox_CID_Parent>
12548

> <DSSTox_Generic_SID>
32548

> <DSSTox_FileID>
660_TXCST2_v1a

> <STRUCTURE_Formula>
C19H17ClN4

> <STRUCTURE_MolecularWeight>
336.8181

> <STRUCTURE_ChemicalType>
defined organic

> <STRUCTURE_TestedForm_DefinedOrganic>
parent

> <STRUCTURE_Shown>
tested chemical

> <TestSubstance_ChemicalName>
Fenbuconazole

> <TestSubstance_CASRN>
114369-43-6

> <TestSubstance_Description>
single chemical compound

> <STRUCTURE_ChemicalName_IUPAC>
4-(4-chlorophenyl)-2-phenyl-2-(1H-1,2,4-triazol-1-ylmethyl)butanenitrile

> <STRUCTURE_SMILES>
ClC1=CC=C(CCC(C#N)(CN3N=CN=C3)C2=CC=CC=C2)C=C1

> <STRUCTURE_Parent_SMILES>
ClC1=CC=C(CCC(C#N)(CN3N=CN=C3)C2=CC=CC=C2)C=C1

> <STRUCTURE_InChIS>
InChI=1S/C19H17ClN4/c20-18-8-6-16(7-9-18)10-11-19(12-21,13-24-15-22-14-23-24)17-4-2-1-3-5-17/h1-9,14-15H,10-11,13H2

> <STRUCTURE_InChIKey>
RQDJADAKIFFEKQ-UHFFFAOYSA-N

> <Substance_modify_yyyymmdd>
20080429

> <Coord_Metals>
0

> <Index>
660

> <Canonical_Smiles>
Clc1ccc(CCC(Cn2cncn2)(C#N)c3ccccc3)cc1

> <Molecular_Weight>
336.81808

> <Frequency>
1

$$$$

  SciTegic          2D

 36 37  0  0  0  0            999 V2000
    1.2990   -0.7500    0.0000 C   0  0
    1.2990    0.7500    0.0000 C   0  0
    0.0000    1.5000    0.0000 C   0  0
   -1.2990    0.7500    0.0000 C   0  0
   -1.2990   -0.7500    0.0000 C   0  0
    0.0000   -1.5000    0.0000 C   0  0
    2.7502   -0.4571    0.0000 C   0  0
    3.5215   -1.3764    0.0000 O   0  0
    3.2641    0.9530    0.0000 N   0  0
    4.7421    1.2139    0.0000 C   0  0
    5.2578    2.6225    0.0000 C   0  0
    5.7043    0.0631    0.0000 C   0  0
    6.7355    2.8803    0.0000 C   0  0
    7.1820    0.3209    0.0000 C   0  0
    7.6975    1.7295    0.0000 C   0  0
    4.4881    3.5432    0.0000 Cl  0  0
    7.1479    4.0072    0.0000 Cl  0  0
    9.1766    1.9844    0.0000 O   0  0
    1.2628   -2.2303    0.0000 C   0  0
    2.1530    0.2297    0.0000 H   0  0
    1.2755    1.7497    0.0000 H   0  0
    0.8776    1.9794    0.0000 H   0  0
   -0.8775    1.9795    0.0000 H   0  0
   -1.2755    1.7497    0.0000 H   0  0
   -2.1531    0.2298    0.0000 H   0  0
   -2.1530   -0.2297    0.0000 H   0  0
   -1.2755   -1.7497    0.0000 H   0  0
   -0.8776   -1.9794    0.0000 H   0  0
    0.8775   -1.9795    0.0000 H   0  0
    2.6214    1.7191    0.0000 H   0  0
    5.3606   -0.8760    0.0000 H   0  0
    7.8233   -0.4463    0.0000 H   0  0
    9.8169    1.2162    0.0000 H   0  0
    2.1284   -2.7310    0.0000 H   0  0
    1.2622   -3.2303    0.0000 H   0  0
    0.3965   -2.7300    0.0000 H   0  0
  1  2  1  0
  1  6  1  0
  1  7  1  0
  1 19  1  0
  2  3  1  0
  3  4  1  0
  4  5  1  0
  5  6  1  0
  7  8  2  0
  7  9  1  0
  9 10  1  0
 10 11  2  0
 10 12  1  0
 11 13  1  0
 11 16  1  0
 12 14  2  0
 13 15  2  0
 13 17  1  0
 14 15  1  0
 15 18  1  0
  2 20  1  0
  2 21  1  0
  3 22  1  0
  3 23  1  0
  4 24  1  0
  4 25  1  0
  5 26  1  0
  5 27  1  0
  6 28  1  0
  6 29  1  0
  9 30  1  0
 12 31  1  0
 14 32  1  0
 18 33  1  0
 19 34  1  0
 19 35  1  0
 19 36  1  0
V    1 0
V    2 1
V    3 2
V    4 3
V    5 4
V    6 5
V    7 6
V    8 7
V    9 8
V   10 9
V   11 10
V   12 11
V   13 12
V   14 13
V   15 14
V   16 15
V   17 16
V   18 17
V   19 18
M  END
> <DSSTox_RID>
65458

> <DSSTox_CID>
12549

> <DSSTox_CID_Parent>
12549

> <DSSTox_Generic_SID>
32549

> <DSSTox_FileID>
661_TXCST2_v1a

> <STRUCTURE_Formula>
C14H17Cl2NO2

> <STRUCTURE_MolecularWeight>
302.1963

> <STRUCTURE_ChemicalType>
defined organic

> <STRUCTURE_TestedForm_DefinedOrganic>
parent

> <STRUCTURE_Shown>
tested chemical

> <TestSubstance_ChemicalName>
Fenhexamid

> <TestSubstance_CASRN>
126833-17-8

> <TestSubstance_Description>
single chemical compound

> <STRUCTURE_ChemicalName_IUPAC>
N-(2,3-dichloro-4-hydroxyphenyl)-1-methylcyclohexanecarboxamide

> <STRUCTURE_SMILES>
O=C(NC2=C(Cl)C(Cl)=C(O)C=C2)C1(C)CCCCC1

> <STRUCTURE_Parent_SMILES>
O=C(NC2=C(Cl)C(Cl)=C(O)C=C2)C1(C)CCCCC1

> <STRUCTURE_InChIS>
InChI=1S/C14H17Cl2NO2/c1-14(7-3-2-4-8-14)13(19)17-9-5-6-10(18)12(16)11(9)15/h5-6,18H,2-4,7-8H2,1H3,(H,17,19)

> <STRUCTURE_InChIKey>
VDLGAVXLJYLFDH-UHFFFAOYSA-N

> <Substance_modify_yyyymmdd>
20080429

> <Coord_Metals>
0

> <Index>
661

> <Canonical_Smiles>
CC1(CCCCC1)C(=O)Nc2ccc(O)c(Cl)c2Cl

> <Molecular_Weight>
302.19628

> <Frequency>
1

$$$$

  SciTegic          2D

 58 60  0  0  0  0            999 V2000
    7.4212   -9.1597    0.0000 C   0  0
    6.8090   -7.7923    0.0000 N   0  0
    5.3411   -7.4834    0.0000 C   0  0
    5.2002   -6.0029    0.0000 C   0  0
    6.5503   -5.3791    0.0000 C   0  0
    7.5563   -6.4917    0.0000 N   0  0
    6.8476   -3.9107    0.0000 C   0  0
    3.9005   -5.2525    0.0000 C   0  0
    3.8995   -3.7516    0.0000 N   0  0
    2.5997   -3.0012    0.0000 O   0  0
    2.5988   -1.5004    0.0000 C   0  0
    1.2990   -0.7500    0.0000 C   0  0
    1.2990    0.7500    0.0000 C   0  0
    0.0000    1.5000    0.0000 C   0  0
   -1.2990    0.7500    0.0000 C   0  0
   -1.2990   -0.7500    0.0000 C   0  0
    0.0000   -1.5000    0.0000 C   0  0
   -2.6003    1.4977    0.0000 C   0  0
   -2.6024    2.6977    0.0000 O   0  0
   -3.8990    0.7455    0.0000 O   0  0
   -5.2003    1.4932    0.0000 C   0  0
   -6.4990    0.7409    0.0000 C   0  0
   -5.1948   -0.0368    0.0000 C   0  0
   -5.2029    2.9939    0.0000 C   0  0
    3.9478   -8.0340    0.0000 O   0  0
    3.7266   -9.5184    0.0000 C   0  0
    2.3323  -10.0716    0.0000 C   0  0
    2.1142  -11.5557    0.0000 C   0  0
    3.2904  -12.4866    0.0000 C   0  0
    4.6847  -11.9334    0.0000 C   0  0
    4.9028  -10.4494    0.0000 C   0  0
    6.8356   -9.9703    0.0000 H   0  0
    8.4160   -9.2619    0.0000 H   0  0
    7.8302  -10.0723    0.0000 H   0  0
    6.0983   -3.2483    0.0000 H   0  0
    7.7957   -3.5927    0.0000 H   0  0
    7.0464   -2.9306    0.0000 H   0  0
    3.0346   -5.7527    0.0000 H   0  0
    3.4651   -2.0000    0.0000 H   0  0
    3.4647   -1.0001    0.0000 H   0  0
    2.1651    1.2500    0.0000 H   0  0
    0.0000    2.5000    0.0000 H   0  0
   -2.1651   -1.2500    0.0000 H   0  0
    0.0000   -2.5000    0.0000 H   0  0
   -7.3661    1.2391    0.0000 H   0  0
   -7.3641    0.2393    0.0000 H   0  0
   -6.4973   -0.2591    0.0000 H   0  0
   -4.3273   -0.5341    0.0000 H   0  0
   -6.0592   -0.5396    0.0000 H   0  0
   -5.1916   -1.0368    0.0000 H   0  0
   -6.0695    3.4930    0.0000 H   0  0
   -4.3376    3.4952    0.0000 H   0  0
   -5.2042    3.9939    0.0000 H   0  0
    1.5481   -9.4511    0.0000 H   0  0
    1.1847  -11.9245    0.0000 H   0  0
    3.1450  -13.4760    0.0000 H   0  0
    5.4688  -12.5540    0.0000 H   0  0
    5.8323  -10.0806    0.0000 H   0  0
  1  2  1  0
  2  3  1  0
  2  6  1  0
  3  4  2  0
  3 25  1  0
  4  5  1  0
  8  4  1  0
  5  6  2  0
  5  7  1  0
  8  9  2  0
  9 10  1  0
 10 11  1  0
 11 12  1  0
 12 13  1  0
 12 17  2  0
 13 14  2  0
 14 15  1  0
 15 16  2  0
 15 18  1  0
 16 17  1  0
 18 19  2  0
 18 20  1  0
 20 21  1  0
 21 22  1  0
 21 23  1  0
 21 24  1  0
 25 26  1  0
 26 27  1  0
 26 31  2  0
 27 28  2  0
 28 29  1  0
 29 30  2  0
 30 31  1  0
  1 32  1  0
  1 33  1  0
  1 34  1  0
  7 35  1  0
  7 36  1  0
  7 37  1  0
  8 38  1  0
 11 39  1  0
 11 40  1  0
 13 41  1  0
 14 42  1  0
 16 43  1  0
 17 44  1  0
 22 45  1  0
 22 46  1  0
 22 47  1  0
 23 48  1  0
 23 49  1  0
 23 50  1  0
 24 51  1  0
 24 52  1  0
 24 53  1  0
 27 54  1  0
 28 55  1  0
 29 56  1  0
 30 57  1  0
 31 58  1  0
V    1 0
V    2 1
V    3 2
V    4 3
V    5 4
V    6 5
V    7 6
V    8 7
V    9 8
V   10 9
V   11 10
V   12 11
V   13 12
V   14 13
V   15 14
V   16 15
V   17 16
V   18 17
V   19 18
V   20 19
V   21 20
V   22 21
V   23 22
V   24 23
V   25 24
V   26 25
V   27 26
V   28 27
V   29 28
V   30 29
V   31 30
M  END
> <DSSTox_RID>
62370

> <DSSTox_CID>
12550

> <DSSTox_CID_Parent>
12550

> <DSSTox_Generic_SID>
32550

> <DSSTox_FileID>
662_TXCST2_v1a

> <STRUCTURE_Formula>
C24H27N3O4

> <STRUCTURE_MolecularWeight>
421.4889

> <STRUCTURE_ChemicalType>
defined organic

> <STRUCTURE_TestedForm_DefinedOrganic>
parent

> <STRUCTURE_Shown>
representative isomer in mixture

> <TestSubstance_ChemicalName>
Fenpyroximate (Z,E)

> <TestSubstance_CASRN>
111812-58-9

> <TestSubstance_Description>
mixture or formulation

> <ChemicalNote>
stereochem

> <STRUCTURE_ChemicalName_IUPAC>
tert-butyl 4-[({[(1E)-(1,3-dimethyl-5-phenoxy-1H-pyrazol-4-yl)methylene]amino}oxy)methyl]benzoate

> <STRUCTURE_SMILES>
O=C(OC(C)(C)C)C2=CC=C(C=C2)CO/N=C/C(C(C)=N1)=C(OC3=CC=CC=C3)N1C

> <STRUCTURE_Parent_SMILES>
O=C(OC(C)(C)C)C2=CC=C(C=C2)CO/N=C/C(C(C)=N1)=C(OC3=CC=CC=C3)N1C

> <STRUCTURE_InChIS>
InChI=1S/C24H27N3O4/c1-17-21(22(27(5)26-17)30-20-9-7-6-8-10-20)15-25-29-16-18-11-13-19(14-12-18)23(28)31-24(2,3)4/h6-15H,16H2,1-5H3/b25-15+

> <STRUCTURE_InChIKey>
YYJNOYZRYGDPNH-MFKUBSTISA-N

> <Substance_modify_yyyymmdd>
20080429

> <Coord_Metals>
0

> <Index>
662

> <Canonical_Smiles>
Cc1nn(C)c(Oc2ccccc2)c1C=NOCc3ccc(cc3)C(=O)OC(C)(C)C

> <Molecular_Weight>
421.48888

> <Frequency>
1

$$$$

  SciTegic          2D

 33 34  0  0  0  0            999 V2000
    1.2990   -0.7500    0.0000 N   0  0
    1.2990    0.7500    0.0000 C   0  0
    0.0000   -1.5000    0.0000 C   0  0
   -1.2990   -0.7500    0.0000 C   0  0
    0.0000    1.5000    0.0000 C   0  0
   -1.2990    0.7500    0.0000 C   0  0
   -0.5104   -2.9114    0.0000 N   0  0
   -2.3383   -1.3500    0.0000 Cl  0  0
    0.4559   -4.0597    0.0000 C   0  0
   -0.0521   -5.4711    0.0000 C   0  0
    1.9323   -3.7942    0.0000 C   0  0
    0.9160   -6.6168    0.0000 C   0  0
    2.9005   -4.9399    0.0000 C   0  0
    2.3923   -6.3512    0.0000 C   0  0
    0.5095   -7.7458    0.0000 Cl  0  0
   -1.5287   -5.7399    0.0000 N   0  0
   -1.9336   -6.8695    0.0000 O   0  0
   -2.3048   -4.8247    0.0000 O   0  0
    2.4437   -2.3832    0.0000 N   0  0
    3.6251   -2.1724    0.0000 O   0  0
    1.6708   -1.4652    0.0000 O   0  0
    3.3610   -7.4976    0.0000 C   0  0
    2.9552   -8.6269    0.0000 F   0  0
    4.5420   -7.2847    0.0000 F   0  0
    4.1360   -8.4138    0.0000 F   0  0
    0.0000    3.0008    0.0000 C   0  0
    1.0388    3.6015    0.0000 F   0  0
   -1.0394    3.6005    0.0000 F   0  0
   -0.0006    4.2008    0.0000 F   0  0
    2.1651    1.2500    0.0000 H   0  0
   -2.1651    1.2500    0.0000 H   0  0
   -1.4949   -3.0867    0.0000 H   0  0
    3.8847   -4.7628    0.0000 H   0  0
  1  2  2  0
  1  3  1  0
  2  5  1  0
  3  4  2  0
  3  7  1  0
  4  6  1  0
  4  8  1  0
  5  6  2  0
  5 26  1  0
  7  9  1  0
  9 10  2  0
  9 11  1  0
 10 12  1  0
 10 16  1  0
 11 13  2  0
 11 19  1  0
 12 14  2  0
 12 15  1  0
 13 14  1  0
 14 22  1  0
 16 17  2  0
 16 18  2  0
 19 20  2  0
 19 21  2  0
 22 23  1  0
 22 24  1  0
 22 25  1  0
 26 27  1  0
 26 28  1  0
 26 29  1  0
  2 30  1  0
  6 31  1  0
  7 32  1  0
 13 33  1  0
V    1 0
V    2 1
V    3 2
V    4 3
V    5 4
V    6 5
V    7 6
V    8 7
V    9 8
V   10 9
V   11 10
V   12 11
V   13 12
V   14 13
V   15 14
V   16 15
V   17 16
V   18 17
V   19 18
V   20 19
V   21 20
V   22 21
V   23 22
V   24 23
V   25 24
V   26 25
V   27 26
V   28 27
V   29 28
M  END
> <DSSTox_RID>
62365

> <DSSTox_CID>
12551

> <DSSTox_CID_Parent>
12551

> <DSSTox_Generic_SID>
32551

> <DSSTox_FileID>
663_TXCST2_v1a

> <STRUCTURE_Formula>
C13H4Cl2F6N4O4

> <STRUCTURE_MolecularWeight>
465.0917

> <STRUCTURE_ChemicalType>
defined organic

> <STRUCTURE_TestedForm_DefinedOrganic>
parent

> <STRUCTURE_Shown>
tested chemical

> <TestSubstance_ChemicalName>
Fluazinam

> <TestSubstance_CASRN>
79622-59-6

> <TestSubstance_Description>
single chemical compound

> <Source_ChemicalNote>
tested chemical contained 0.01% water

> <STRUCTURE_ChemicalName_IUPAC>
3-chloro-N-[3-chloro-2,6-dinitro-4-(trifluoromethyl)phenyl]-5-(trifluoromethyl)pyridin-2-amine

> <STRUCTURE_SMILES>
ClC1=C(NC2=C([N+]([O-])=O)C(Cl)=C(C(F)(F)F)C=C2[N+]([O-])=O)N=CC(C(F)(F)F)=C1

> <STRUCTURE_Parent_SMILES>
ClC1=C(NC2=C([N+]([O-])=O)C(Cl)=C(C(F)(F)F)C=C2[N+]([O-])=O)N=CC(C(F)(F)F)=C1

> <STRUCTURE_InChIS>
InChI=1S/C13H4Cl2F6N4O4/c14-6-1-4(12(16,17)18)3-22-11(6)23-9-7(24(26)27)2-5(13(19,20)21)8(15)10(9)25(28)29/h1-3H,(H,22,23)

> <STRUCTURE_InChIKey>
UZCGKGPEKUCDTF-UHFFFAOYSA-N

> <Substance_modify_yyyymmdd>
20080429

> <Coord_Metals>
0

> <Index>
663

> <Canonical_Smiles>
FC(F)(F)c1cnc(Nc2c(cc(c(Cl)c2N(=O)=O)C(F)(F)F)N(=O)=O)c(Cl)c1

> <Molecular_Weight>
465.09167

> <Frequency>
1

$$$$

  SciTegic          2D

 37 38  0  0  0  0            999 V2000
    1.2990   -0.7500    0.0000 C   0  0
    2.5973   -1.5031    0.0000 N   0  0
    1.2990    0.7500    0.0000 C   0  0
    0.0000   -1.5000    0.0000 C   0  0
    2.5951   -3.0039    0.0000 C   0  0
    3.8982   -0.7550    0.0000 C   0  0
    0.0000    1.5000    0.0000 C   0  0
   -1.2990   -0.7500    0.0000 C   0  0
    3.8933   -3.7570    0.0000 C   0  0
    1.5548   -3.6021    0.0000 O   0  0
    3.1957    0.6251    0.0000 C   0  0
    5.4450   -0.6790    0.0000 C   0  0
   -1.2990    0.7500    0.0000 C   0  0
    3.8912   -5.2578    0.0000 O   0  0
   -2.3383    1.3500    0.0000 F   0  0
    5.1894   -6.0109    0.0000 C   0  0
    5.3273   -7.4917    0.0000 S   0  0
    6.5408   -5.3899    0.0000 N   0  0
    6.7945   -7.8036    0.0000 C   0  0
    7.5445   -6.5046    0.0000 N   0  0
    7.4039   -9.1723    0.0000 C   0  0
    6.6991  -10.1436    0.0000 F   0  0
    8.5973   -9.2974    0.0000 F   0  0
    7.8925  -10.2684    0.0000 F   0  0
    2.1651    1.2500    0.0000 H   0  0
    0.0000   -2.5000    0.0000 H   0  0
    4.7633   -1.2566    0.0000 H   0  0
    0.0000    2.5000    0.0000 H   0  0
   -2.1651   -1.2500    0.0000 H   0  0
    4.7586   -4.2584    0.0000 H   0  0
    4.7602   -3.2585    0.0000 H   0  0
    2.1957    0.6272    0.0000 H   0  0
    2.7086    1.4984    0.0000 H   0  0
    3.7193    1.4771    0.0000 H   0  0
    5.9436   -1.5458    0.0000 H   0  0
    6.4449   -0.6679    0.0000 H   0  0
    5.9242    0.1986    0.0000 H   0  0
  1  2  1  0
  1  3  1  0
  1  4  2  0
  2  5  1  0
  2  6  1  0
  3  7  2  0
  4  8  1  0
  5  9  1  0
  5 10  2  0
  6 11  1  0
  6 12  1  0
  7 13  1  0
  8 13  2  0
  9 14  1  0
 13 15  1  0
 14 16  1  0
 16 17  1  0
 16 18  2  0
 17 19  1  0
 18 20  1  0
 19 21  1  0
 19 20  2  0
 21 22  1  0
 21 23  1  0
 21 24  1  0
  3 25  1  0
  4 26  1  0
  6 27  1  0
  7 28  1  0
  8 29  1  0
  9 30  1  0
  9 31  1  0
 11 32  1  0
 11 33  1  0
 11 34  1  0
 12 35  1  0
 12 36  1  0
 12 37  1  0
V    1 0
V    2 1
V    3 2
V    4 3
V    5 4
V    6 5
V    7 6
V    8 7
V    9 8
V   10 9
V   11 10
V   12 11
V   13 12
V   14 13
V   15 14
V   16 15
V   17 16
V   18 17
V   19 18
V   20 19
V   21 20
V   22 21
V   23 22
V   24 23
M  END
> <DSSTox_RID>
62392

> <DSSTox_CID>
12552

> <DSSTox_CID_Parent>
12552

> <DSSTox_Generic_SID>
32552

> <DSSTox_FileID>
664_TXCST2_v1a

> <STRUCTURE_Formula>
C14H13F4N3O2S

> <STRUCTURE_MolecularWeight>
363.3305

> <STRUCTURE_ChemicalType>
defined organic

> <STRUCTURE_TestedForm_DefinedOrganic>
parent

> <STRUCTURE_Shown>
tested chemical

> <TestSubstance_ChemicalName>
Flufenacet

> <TestSubstance_CASRN>
142459-58-3

> <TestSubstance_Description>
single chemical compound

> <STRUCTURE_ChemicalName_IUPAC>
N-(4-fluorophenyl)-N-isopropyl-2-{[5-(trifluoromethyl)-1,3,4-thiadiazol-2-yl]oxy}acetamide

> <STRUCTURE_SMILES>
O=C(COC2=NN=C(C(F)(F)F)S2)N(C(C)C)C1=CC=C(F)C=C1

> <STRUCTURE_Parent_SMILES>
O=C(COC2=NN=C(C(F)(F)F)S2)N(C(C)C)C1=CC=C(F)C=C1

> <STRUCTURE_InChIS>
InChI=1S/C14H13F4N3O2S/c1-8(2)21(10-5-3-9(15)4-6-10)11(22)7-23-13-20-19-12(24-13)14(16,17)18/h3-6,8H,7H2,1-2H3

> <STRUCTURE_InChIKey>
IANUJLZYFUDJIH-UHFFFAOYSA-N

> <Substance_modify_yyyymmdd>
20080429

> <Coord_Metals>
0

> <Index>
664

> <Canonical_Smiles>
CC(C)N(C(=O)COc1nnc(s1)C(F)(F)F)c2ccc(F)cc2

> <Molecular_Weight>
363.33053

> <Frequency>
1

$$$$

  SciTegic          2D

 40 41  0  0  0  0            999 V2000
    1.2990   -0.7500    0.0000 C   0  0
    1.2990    0.7500    0.0000 C   0  0
    0.0000    1.5000    0.0000 C   0  0
   -1.2990    0.7500    0.0000 C   0  0
   -1.2990   -0.7500    0.0000 C   0  0
    0.0000   -1.5000    0.0000 C   0  0
    2.5988   -1.5004    0.0000 C   0  0
    2.5997   -3.0012    0.0000 N   0  0
    0.0000   -2.7000    0.0000 Cl  0  0
    3.8995   -3.7516    0.0000 C   0  0
    3.9026   -5.2517    0.0000 C   0  0
    5.1971   -2.9990    0.0000 C   0  0
    5.2032   -5.9990    0.0000 C   0  0
    6.4977   -3.7464    0.0000 C   0  0
    6.5007   -5.2464    0.0000 C   0  0
    2.4257   -5.5184    0.0000 N   0  0
    2.0192   -6.6475    0.0000 O   0  0
    1.7800   -4.7548    0.0000 O   0  0
    5.1972   -1.4982    0.0000 N   0  0
    6.2361   -0.8976    0.0000 O   0  0
    4.1578   -0.8985    0.0000 O   0  0
    7.8020   -5.9941    0.0000 C   0  0
    7.8052   -7.1941    0.0000 F   0  0
    8.8398   -5.3917    0.0000 F   0  0
    8.8427   -6.5915    0.0000 F   0  0
    1.1223   -3.2654    0.0000 C   0  0
    0.6115   -4.6766    0.0000 C   0  0
    2.3383    1.3500    0.0000 F   0  0
    0.0000    2.5000    0.0000 H   0  0
   -2.1651    1.2500    0.0000 H   0  0
   -2.1651   -1.2500    0.0000 H   0  0
    3.4651   -2.0000    0.0000 H   0  0
    3.4647   -1.0001    0.0000 H   0  0
    5.2053   -6.9990    0.0000 H   0  0
    7.3627   -3.2446    0.0000 H   0  0
    1.4623   -2.3249    0.0000 H   0  0
    0.4780   -2.5006    0.0000 H   0  0
   -0.3729   -4.8526    0.0000 H   0  0
    0.2715   -5.6170    0.0000 H   0  0
    1.2558   -5.4413    0.0000 H   0  0
  1  2  1  0
  1  6  2  0
  1  7  1  0
  2  3  2  0
  2 28  1  0
  3  4  1  0
  4  5  2  0
  5  6  1  0
  6  9  1  0
  7  8  1  0
  8 10  1  0
  8 26  1  0
 10 11  2  0
 10 12  1  0
 11 13  1  0
 11 16  1  0
 12 14  2  0
 12 19  1  0
 13 15  2  0
 14 15  1  0
 15 22  1  0
 16 17  2  0
 16 18  2  0
 19 20  2  0
 19 21  2  0
 22 23  1  0
 22 24  1  0
 22 25  1  0
 26 27  1  0
  3 29  1  0
  4 30  1  0
  5 31  1  0
  7 32  1  0
  7 33  1  0
 13 34  1  0
 14 35  1  0
 26 36  1  0
 26 37  1  0
 27 38  1  0
 27 39  1  0
 27 40  1  0
V    1 0
V    2 1
V    3 2
V    4 3
V    5 4
V    6 5
V    7 6
V    8 7
V    9 8
V   10 9
V   11 10
V   12 11
V   13 12
V   14 13
V   15 14
V   16 15
V   17 16
V   18 17
V   19 18
V   20 19
V   21 20
V   22 21
V   23 22
V   24 23
V   25 24
V   26 25
V   27 26
V   28 27
M  END
> <DSSTox_RID>
62304

> <DSSTox_CID>
12553

> <DSSTox_CID_Parent>
12553

> <DSSTox_Generic_SID>
32553

> <DSSTox_FileID>
665_TXCST2_v1a

> <STRUCTURE_Formula>
C16H12ClF4N3O4

> <STRUCTURE_MolecularWeight>
421.7308

> <STRUCTURE_ChemicalType>
defined organic

> <STRUCTURE_TestedForm_DefinedOrganic>
parent

> <STRUCTURE_Shown>
tested chemical

> <TestSubstance_ChemicalName>
Flumetralin

> <TestSubstance_CASRN>
62924-70-3

> <TestSubstance_Description>
single chemical compound

> <STRUCTURE_ChemicalName_IUPAC>
N-(2-chloro-6-fluorobenzyl)-N-ethyl-2,6-dinitro-4-(trifluoromethyl)aniline

> <STRUCTURE_SMILES>
ClC1=C(CN(CC)C2=C([N+]([O-])=O)C=C(C(F)(F)F)C=C2[N+]([O-])=O)C(F)=CC=C1

> <STRUCTURE_Parent_SMILES>
ClC1=C(CN(CC)C2=C([N+]([O-])=O)C=C(C(F)(F)F)C=C2[N+]([O-])=O)C(F)=CC=C1

> <STRUCTURE_InChIS>
InChI=1S/C16H12ClF4N3O4/c1-2-22(8-10-11(17)4-3-5-12(10)18)15-13(23(25)26)6-9(16(19,20)21)7-14(15)24(27)28/h3-7H,2,8H2,1H3

> <STRUCTURE_InChIKey>
PWNAWOCHVWERAR-UHFFFAOYSA-N

> <Substance_modify_yyyymmdd>
20080429

> <Coord_Metals>
0

> <Index>
665

> <Canonical_Smiles>
CCN(Cc1c(F)cccc1Cl)c2c(cc(cc2N(=O)=O)C(F)(F)F)N(=O)=O

> <Molecular_Weight>
421.73079

> <Frequency>
1

$$$$

  SciTegic          2D

 52 54  0  0  0  0            999 V2000
    2.5889    0.0182    0.0000 N   0  0
    4.0896    0.0290    0.0000 C   0  0
    1.7138    1.2033    0.0000 C   0  0
    1.7138   -1.2033    0.0000 C   0  0
    4.9397   -1.2009    0.0000 C   0  0
    4.7275    1.3885    0.0000 C   0  0
    0.2917    0.7475    0.0000 C   0  0
    2.0825    2.3453    0.0000 O   0  0
    0.2917   -0.7475    0.0000 C   0  0
    2.0907   -2.3426    0.0000 O   0  0
    6.4347   -1.0783    0.0000 C   0  0
    6.2225    1.5110    0.0000 C   0  0
    4.0430    2.3742    0.0000 F   0  0
   -1.0028    1.5132    0.0000 C   0  0
   -1.0028   -1.5132    0.0000 C   0  0
    7.0761    0.2776    0.0000 C   0  0
    7.2913   -2.3107    0.0000 O   0  0
   -2.3155    0.7475    0.0000 C   0  0
   -2.3155   -0.7475    0.0000 C   0  0
    8.2720    0.3756    0.0000 Cl  0  0
    8.7869   -2.1860    0.0000 C   0  0
    9.6435   -3.4184    0.0000 C   0  0
   11.1391   -3.2936    0.0000 O   0  0
    9.1323   -4.5040    0.0000 O   0  0
   11.9957   -4.5260    0.0000 C   0  0
   13.4914   -4.4013    0.0000 C   0  0
   14.3480   -5.6336    0.0000 C   0  0
   15.8436   -5.5089    0.0000 C   0  0
   16.7002   -6.7413    0.0000 C   0  0
    4.5118   -2.1047    0.0000 H   0  0
    6.6501    2.4150    0.0000 H   0  0
   -1.8786    1.9959    0.0000 H   0  0
   -0.1241    1.9907    0.0000 H   0  0
   -1.8786   -1.9959    0.0000 H   0  0
   -0.1241   -1.9907    0.0000 H   0  0
   -3.1682    0.2251    0.0000 H   0  0
   -1.4603    0.2291    0.0000 H   0  0
   -3.1682   -0.2251    0.0000 H   0  0
   -2.2940   -1.7473    0.0000 H   0  0
    8.2165   -1.3646    0.0000 H   0  0
    9.2129   -1.2813    0.0000 H   0  0
   10.9992   -4.6096    0.0000 H   0  0
   11.5697   -5.4307    0.0000 H   0  0
   12.9210   -3.5799    0.0000 H   0  0
   13.9174   -3.4966    0.0000 H   0  0
   13.3515   -5.7172    0.0000 H   0  0
   13.9220   -6.5384    0.0000 H   0  0
   15.2733   -4.6875    0.0000 H   0  0
   16.2696   -4.6042    0.0000 H   0  0
   17.6968   -6.6582    0.0000 H   0  0
   17.2706   -7.5627    0.0000 H   0  0
   16.2742   -7.6460    0.0000 H   0  0
  1  2  1  0
  1  3  1  0
  1  4  1  0
  2  5  2  0
  2  6  1  0
  3  7  1  0
  3  8  2  0
  4  9  1  0
  4 10  2  0
  5 11  1  0
  6 12  2  0
  6 13  1  0
  7 14  1  0
  7  9  2  0
  9 15  1  0
 11 16  2  0
 11 17  1  0
 12 16  1  0
 14 18  1  0
 15 19  1  0
 16 20  1  0
 17 21  1  0
 18 19  1  0
 21 22  1  0
 22 23  1  0
 22 24  2  0
 23 25  1  0
 25 26  1  0
 26 27  1  0
 27 28  1  0
 28 29  1  0
  5 30  1  0
 12 31  1  0
 14 32  1  0
 14 33  1  0
 15 34  1  0
 15 35  1  0
 18 36  1  0
 18 37  1  0
 19 38  1  0
 19 39  1  0
 21 40  1  0
 21 41  1  0
 25 42  1  0
 25 43  1  0
 26 44  1  0
 26 45  1  0
 27 46  1  0
 27 47  1  0
 28 48  1  0
 28 49  1  0
 29 50  1  0
 29 51  1  0
 29 52  1  0
V    1 0
V    2 1
V    3 2
V    4 3
V    5 4
V    6 5
V    7 6
V    8 7
V    9 8
V   10 9
V   11 10
V   12 11
V   13 12
V   14 13
V   15 14
V   16 15
V   17 16
V   18 17
V   19 18
V   20 19
V   21 20
V   22 21
V   23 22
V   24 23
V   25 24
V   26 25
V   27 26
V   28 27
V   29 28
M  END
> <DSSTox_RID>
65320

> <DSSTox_CID>
12554

> <DSSTox_CID_Parent>
12554

> <DSSTox_Generic_SID>
32554

> <DSSTox_FileID>
666_TXCST2_v1a

> <STRUCTURE_Formula>
C21H23ClFNO5

> <STRUCTURE_MolecularWeight>
423.8624

> <STRUCTURE_ChemicalType>
defined organic

> <STRUCTURE_TestedForm_DefinedOrganic>
parent

> <STRUCTURE_Shown>
tested chemical

> <TestSubstance_ChemicalName>
Flumiclorac-pentyl

> <TestSubstance_CASRN>
87546-18-7

> <TestSubstance_Description>
single chemical compound

> <STRUCTURE_ChemicalName_IUPAC>
pentyl [2-chloro-5-(1,3-dioxo-1,3,4,5,6,7-hexahydro-2H-isoindol-2-yl)-4-fluorophenoxy]acetate

> <STRUCTURE_SMILES>
O=C(C3=C2CCCC3)N(C2=O)C1=CC(OCC(OCCCCC)=O)=C(Cl)C=C1F

> <STRUCTURE_Parent_SMILES>
O=C(C3=C2CCCC3)N(C2=O)C1=CC(OCC(OCCCCC)=O)=C(Cl)C=C1F

> <STRUCTURE_InChIS>
InChI=1S/C21H23ClFNO5/c1-2-3-6-9-28-19(25)12-29-18-11-17(16(23)10-15(18)22)24-20(26)13-7-4-5-8-14(13)21(24)27/h10-11H,2-9,12H2,1H3

> <STRUCTURE_InChIKey>
IRECWLYBCAZIJM-UHFFFAOYSA-N

> <Substance_modify_yyyymmdd>
20080429

> <Coord_Metals>
0

> <Index>
666

> <Canonical_Smiles>
CCCCCOC(=O)COc1cc(N2C(=O)C3=C(CCCC3)C2=O)c(F)cc1Cl

> <Molecular_Weight>
423.86242

> <Frequency>
1

$$$$

  SciTegic          2D

 41 44  0  0  0  0            999 V2000
   -3.6486    1.3517    0.0000 F   0  0
   -2.6111    0.7486    0.0000 C   0  0
   -2.6111   -0.7486    0.0000 C   0  0
   -1.2964   -1.4973    0.0000 C   0  0
    0.0000   -0.7486    0.0000 C   0  0
    0.0000    0.7486    0.0000 C   0  0
   -1.2964    1.4973    0.0000 C   0  0
    1.2964    1.4973    0.0000 O   0  0
    2.5929    0.7486    0.0000 C   0  0
    2.5929   -0.7486    0.0000 C   0  0
    3.6321   -1.3486    0.0000 O   0  0
    1.2964   -1.4973    0.0000 N   0  0
    1.2964   -2.9981    0.0000 C   0  0
   -0.0028   -3.7494    0.0000 C   0  0
   -1.3021   -4.5006    0.0000 C   0  0
   -3.9086   -1.5029    0.0000 N   0  0
   -4.0541   -2.9848    0.0000 C   0  0
   -3.1622   -3.7876    0.0000 O   0  0
   -5.5168   -3.2858    0.0000 C   0  0
   -6.2507   -1.9833    0.0000 C   0  0
   -5.2355   -0.8881    0.0000 C   0  0
   -5.4677    0.2892    0.0000 O   0  0
   -7.7544   -1.9516    0.0000 C   0  0
   -8.5221   -3.2631    0.0000 C   0  0
   -7.7882   -4.5656    0.0000 C   0  0
   -6.2687   -4.5884    0.0000 C   0  0
   -1.2934   -2.4973    0.0000 H   0  0
   -1.2934    2.4973    0.0000 H   0  0
    3.4468    0.2283    0.0000 H   0  0
    2.5694    1.7484    0.0000 H   0  0
    2.1626   -3.4979    0.0000 H   0  0
    1.2969   -3.9981    0.0000 H   0  0
   -2.1678   -5.0012    0.0000 H   0  0
   -8.7543   -1.9610    0.0000 H   0  0
   -7.2232   -1.1043    0.0000 H   0  0
   -9.0086   -4.1368    0.0000 H   0  0
   -8.9943   -2.3816    0.0000 H   0  0
   -7.2787   -5.4261    0.0000 H   0  0
   -8.7876   -4.5292    0.0000 H   0  0
   -6.7948   -5.4388    0.0000 H   0  0
   -5.2688   -4.5729    0.0000 H   0  0
  1  2  1  0
  2  3  1  0
  2  7  2  0
  3  4  2  0
  3 16  1  0
  4  5  1  0
  5  6  2  0
  5 12  1  0
  6  7  1  0
  6  8  1  0
  8  9  1  0
  9 10  1  0
 10 11  2  0
 10 12  1  0
 12 13  1  0
 13 14  1  0
 14 15  3  0
 16 17  1  0
 16 21  1  0
 17 18  2  0
 17 19  1  0
 19 20  2  0
 19 26  1  0
 20 21  1  0
 20 23  1  0
 21 22  2  0
 23 24  1  0
 24 25  1  0
 25 26  1  0
  4 27  1  0
  7 28  1  0
  9 29  1  0
  9 30  1  0
 13 31  1  0
 13 32  1  0
 15 33  1  0
 23 34  1  0
 23 35  1  0
 24 36  1  0
 24 37  1  0
 25 38  1  0
 25 39  1  0
 26 40  1  0
 26 41  1  0
V    1 0
V    2 1
V    3 2
V    4 3
V    5 4
V    6 5
V    7 6
V    8 7
V    9 8
V   10 9
V   11 10
V   12 11
V   13 12
V   14 13
V   15 14
V   16 15
V   17 16
V   18 17
V   19 18
V   20 19
V   21 20
V   22 21
V   23 22
V   24 23
V   25 24
V   26 25
M  END
> <DSSTox_RID>
65459

> <DSSTox_CID>
12555

> <DSSTox_CID_Parent>
12555

> <DSSTox_Generic_SID>
32555

> <DSSTox_FileID>
667_TXCST2_v1a

> <STRUCTURE_Formula>
C19H15FN2O4

> <STRUCTURE_MolecularWeight>
354.3318

> <STRUCTURE_ChemicalType>
defined organic

> <STRUCTURE_TestedForm_DefinedOrganic>
parent

> <STRUCTURE_Shown>
tested chemical

> <TestSubstance_ChemicalName>
Flumioxazin

> <TestSubstance_CASRN>
103361-09-7

> <TestSubstance_Description>
single chemical compound

> <STRUCTURE_ChemicalName_IUPAC>
2-(7-fluoro-3-oxo-4-prop-2-yn-1-yl-3,4-dihydro-2H-1,4-benzoxazin-6-yl)-4,5,6,7-tetrahydro-1H-isoindole-1,3(2H)-dione

> <STRUCTURE_SMILES>
FC1=CC(OCC2=O)=C(N2CC#C)C=C1N3C(C4=C(CCCC4)C3=O)=O

> <STRUCTURE_Parent_SMILES>
FC1=CC(OCC2=O)=C(N2CC#C)C=C1N3C(C4=C(CCCC4)C3=O)=O

> <STRUCTURE_InChIS>
InChI=1S/C19H15FN2O4/c1-2-7-21-15-9-14(13(20)8-16(15)26-10-17(21)23)22-18(24)11-5-3-4-6-12(11)19(22)25/h1,8-9H,3-7,10H2

> <STRUCTURE_InChIKey>
FOUWCSDKDDHKQP-UHFFFAOYSA-N

> <Substance_modify_yyyymmdd>
20080429

> <Coord_Metals>
0

> <Index>
667

> <Canonical_Smiles>
Fc1cc2OCC(=O)N(CC#C)c2cc1N3C(=O)C4=C(CCCC4)C3=O

> <Molecular_Weight>
354.3318

> <Frequency>
1

$$$$

  SciTegic          2D

 40 42  0  0  0  0            999 V2000
    5.5448   -8.6243    0.0000 C   0  0
    6.7199   -8.8671    0.0000 O   0  0
    4.5473   -9.7458    0.0000 O   0  0
    5.0732   -7.1995    0.0000 C   0  0
    6.0706   -6.0781    0.0000 S   0  0
    5.5991   -4.6533    0.0000 C   0  0
    6.5944   -3.5310    0.0000 C   0  0
    4.1295   -4.3524    0.0000 C   0  0
    6.1201   -2.1080    0.0000 C   0  0
    3.6552   -2.9294    0.0000 C   0  0
    4.6506   -1.8071    0.0000 C   0  0
    7.7700   -3.7717    0.0000 Cl  0  0
    4.2712   -0.6687    0.0000 F   0  0
    2.1855   -2.6254    0.0000 N   0  0
    0.2917   -0.7475    0.0000 N   0  0
    0.2917    0.7475    0.0000 N   0  0
   -1.0028    1.5132    0.0000 C   0  0
   -1.0028   -1.5132    0.0000 C   0  0
   -2.3155    0.7475    0.0000 C   0  0
   -2.3155   -0.7475    0.0000 C   0  0
    2.5889    0.0182    0.0000 S   0  0
    1.7138   -1.2033    0.0000 C   0  0
    1.7138    1.2033    0.0000 C   0  0
    2.0825    2.3453    0.0000 O   0  0
    5.0189  -11.1706    0.0000 C   0  0
    4.7585   -6.2503    0.0000 H   0  0
    4.0939   -6.9973    0.0000 H   0  0
    3.4660   -5.1006    0.0000 H   0  0
    6.7836   -1.3598    0.0000 H   0  0
   -1.8786    1.9959    0.0000 H   0  0
   -0.1241    1.9907    0.0000 H   0  0
   -1.8786   -1.9959    0.0000 H   0  0
   -0.1241   -1.9907    0.0000 H   0  0
   -3.1682    0.2251    0.0000 H   0  0
   -2.2940    1.7473    0.0000 H   0  0
   -3.1682   -0.2251    0.0000 H   0  0
   -2.2940   -1.7473    0.0000 H   0  0
    4.3543  -11.9178    0.0000 H   0  0
    5.3335  -12.1198    0.0000 H   0  0
    5.9982  -11.3728    0.0000 H   0  0
  1  2  2  0
  1  3  1  0
  1  4  1  0
  3 25  1  0
  4  5  1  0
  5  6  1  0
  6  7  2  0
  6  8  1  0
  7  9  1  0
  7 12  1  0
  8 10  2  0
  9 11  2  0
 10 11  1  0
 14 10  1  0
 11 13  1  0
 14 22  2  0
 15 16  1  0
 15 18  1  0
 15 22  1  0
 16 17  1  0
 16 23  1  0
 17 19  1  0
 18 20  1  0
 19 20  1  0
 21 22  1  0
 21 23  1  0
 23 24  2  0
  4 26  1  0
  4 27  1  0
  8 28  1  0
  9 29  1  0
 17 30  1  0
 17 31  1  0
 18 32  1  0
 18 33  1  0
 19 34  1  0
 19 35  1  0
 20 36  1  0
 20 37  1  0
 25 38  1  0
 25 39  1  0
 25 40  1  0
V    1 0
V    2 1
V    3 2
V    4 3
V    5 4
V    6 5
V    7 6
V    8 7
V    9 8
V   10 9
V   11 10
V   12 11
V   13 12
V   14 13
V   15 14
V   16 15
V   17 16
V   18 17
V   19 18
V   20 19
V   21 20
V   22 21
V   23 22
V   24 23
V   25 24
M  END
> <DSSTox_RID>
65284

> <DSSTox_CID>
12556

> <DSSTox_CID_Parent>
12556

> <DSSTox_Generic_SID>
32556

> <DSSTox_FileID>
668_TXCST2_v1a

> <STRUCTURE_Formula>
C15H15ClFN3O3S2

> <STRUCTURE_MolecularWeight>
403.8793

> <STRUCTURE_ChemicalType>
defined organic

> <STRUCTURE_TestedForm_DefinedOrganic>
parent

> <STRUCTURE_Shown>
tested chemical

> <TestSubstance_ChemicalName>
Fluthiacet-methyl

> <TestSubstance_CASRN>
117337-19-6

> <TestSubstance_Description>
single chemical compound

> <STRUCTURE_ChemicalName_IUPAC>
methyl [(2-chloro-4-fluoro-5-{[(1Z)-3-oxotetrahydro[1,3,4]thiadiazolo[3,4-a]pyridazin-1-ylidene]amino}phenyl)thio]acetate

> <STRUCTURE_SMILES>
O=C(CSC1=C(Cl)C=C(F)C(/N=C(SC3=O)/N2N3CCCC2)=C1)OC

> <STRUCTURE_Parent_SMILES>
O=C(CSC1=C(Cl)C=C(F)C(/N=C(SC3=O)/N2N3CCCC2)=C1)OC

> <STRUCTURE_InChIS>
InChI=1S/C15H15ClFN3O3S2/c1-23-13(21)8-24-12-7-11(10(17)6-9(12)16)18-14-19-4-2-3-5-20(19)15(22)25-14/h6-7H,2-5,8H2,1H3/b18-14-

> <STRUCTURE_InChIKey>
ZCNQYNHDVRPZIH-JXAWBTAJSA-N

> <Substance_modify_yyyymmdd>
20080429

> <Coord_Metals>
0

> <Index>
668

> <Canonical_Smiles>
COC(=O)CSc1cc(N=C2SC(=O)N3CCCCN23)c(F)cc1Cl

> <Molecular_Weight>
403.8793

> <Frequency>
1

$$$$

  SciTegic          2D

 45 47  0  0  0  0            999 V2000
    3.2979    0.6813    0.0000 O   0  0
    2.3100    0.0000    0.0000 C   0  0
    0.8400    0.0700    0.0000 C   0  0
    0.3800   -0.8300    0.0000 C   0  0
   -1.0500    0.0000    0.0000 C   0  0
   -0.7400    2.2000    0.0000 C   0  0
   -0.5200    0.8600    0.0000 C   0  0
   -2.1300    0.2400    0.0000 C   0  0
   -2.6500   -0.7400    0.0000 C   0  0
    1.2900   -1.8600    0.0000 C   0  0
    1.1180   -3.0476    0.0000 O   0  0
    2.4400   -1.2900    0.0000 N   0  0
    3.7895   -1.9405    0.0000 C   0  0
    5.0307   -1.0967    0.0000 C   0  0
    4.9216    0.4001    0.0000 C   0  0
    6.1628    1.2439    0.0000 C   0  0
    6.0536    2.7407    0.0000 C   0  0
    7.2948    3.5844    0.0000 C   0  0
    6.3817   -1.7502    0.0000 C   0  0
    6.4923   -3.2469    0.0000 C   0  0
    1.3303    0.9416    0.0000 H   0  0
   -0.1050   -1.7045    0.0000 H   0  0
   -1.5163   -0.8846    0.0000 H   0  0
   -1.5675    2.7614    0.0000 H   0  0
    0.0977    2.7461    0.0000 H   0  0
    0.3048    1.4254    0.0000 H   0  0
   -3.0738    0.5707    0.0000 H   0  0
   -3.4199   -1.3781    0.0000 H   0  0
    2.9628   -2.5031    0.0000 H   0  0
    3.8632   -2.9378    0.0000 H   0  0
    4.1305   -0.6613    0.0000 H   0  0
    4.0213    0.8355    0.0000 H   0  0
    4.0943   -0.1617    0.0000 H   0  0
    7.0630    0.8084    0.0000 H   0  0
    6.2360    0.2465    0.0000 H   0  0
    5.1534    3.1761    0.0000 H   0  0
    5.2263    2.1789    0.0000 H   0  0
    7.2221    4.5818    0.0000 H   0  0
    8.1950    3.1490    0.0000 H   0  0
    8.1221    4.1462    0.0000 H   0  0
    7.2088   -1.1880    0.0000 H   0  0
    7.2822   -2.1851    0.0000 H   0  0
    7.3926   -3.6823    0.0000 H   0  0
    5.6653   -3.8091    0.0000 H   0  0
    6.5655   -4.2442    0.0000 H   0  0
  1  2  2  0
  2  3  1  0
  2 12  1  0
  3  4  1  0
  3  7  1  0
  4  5  1  0
  4 10  1  0
  5  6  1  0
  5  9  1  0
  6  7  1  0
  7  8  1  0
  8  9  2  0
 10 11  2  0
 10 12  1  0
 12 13  1  0
 13 14  1  0
 14 15  1  0
 14 19  1  0
 15 16  1  0
 16 17  1  0
 17 18  1  0
 19 20  1  0
  3 21  1  0
  4 22  1  0
  5 23  1  0
  6 24  1  0
  6 25  1  0
  7 26  1  0
  8 27  1  0
  9 28  1  0
 13 29  1  0
 13 30  1  0
 14 31  1  0
 15 32  1  0
 15 33  1  0
 16 34  1  0
 16 35  1  0
 17 36  1  0
 17 37  1  0
 18 38  1  0
 18 39  1  0
 18 40  1  0
 19 41  1  0
 19 42  1  0
 20 43  1  0
 20 44  1  0
 20 45  1  0
V    1 0
V    2 1
V    3 2
V    4 3
V    5 4
V    6 5
V    7 6
V    8 7
V    9 8
V   10 9
V   11 10
V   12 11
V   13 12
V   14 13
V   15 14
V   16 15
V   17 16
V   18 17
V   19 18
V   20 19
M  END
> <DSSTox_RID>
62353

> <DSSTox_CID>
12562

> <DSSTox_CID_Parent>
12562

> <DSSTox_Generic_SID>
32562

> <DSSTox_FileID>
669_TXCST2_v1a

> <STRUCTURE_Formula>
C17H25NO2

> <STRUCTURE_MolecularWeight>
275.3859

> <STRUCTURE_ChemicalType>
defined organic

> <STRUCTURE_TestedForm_DefinedOrganic>
parent

> <STRUCTURE_Shown>
tested chemical

> <TestSubstance_ChemicalName>
MGK-264

> <TestSubstance_CASRN>
113-48-4

> <TestSubstance_Description>
single chemical compound

> <ChemicalNote>
stereochem

> <STRUCTURE_ChemicalName_IUPAC>
2-(2-ethylhexyl)-3a,4,7,7a-tetrahydro-1H-4,7-methanoisoindole-1,3(2H)-dione

> <STRUCTURE_SMILES>
O=C(N3CC(CC)CCCC)C1C(C3=O)C2CC1C=C2

> <STRUCTURE_Parent_SMILES>
O=C(N3CC(CC)CCCC)C1C(C3=O)C2CC1C=C2

> <STRUCTURE_InChIS>
InChI=1S/C17H25NO2/c1-3-5-6-11(4-2)10-18-16(19)14-12-7-8-13(9-12)15(14)17(18)20/h7-8,11-15H,3-6,9-10H2,1-2H3

> <STRUCTURE_InChIKey>
WLLGXSLBOPFWQV-UHFFFAOYSA-N

> <Substance_modify_yyyymmdd>
20080429

> <Coord_Metals>
0

> <Index>
669

> <Canonical_Smiles>
CCCCC(CC)CN1C(=O)C2C3CC(C=C3)C2C1=O

> <Molecular_Weight>
275.3859

> <Frequency>
1

$$$$

  SciTegic          2D

 35 35  0  0  0  0            999 V2000
    1.2990   -0.7500    0.0000 N   0  0
    1.2990    0.7500    0.0000 C   0  0
    0.0000   -1.5000    0.0000 C   0  0
    2.6003    1.4978    0.0000 O   0  0
    3.8990    0.7455    0.0000 C   0  0
   -1.2990   -0.7500    0.0000 N   0  0
    0.0000    1.5000    0.0000 C   0  0
   -1.2990    0.7500    0.0000 C   0  0
   -0.0031   -3.0008    0.0000 N   0  0
    5.2003    1.4932    0.0000 N   0  0
    3.8969   -0.4545    0.0000 O   0  0
    0.0000    3.0008    0.0000 C   0  0
   -2.5988    1.5004    0.0000 C   0  0
   -1.3039   -3.7494    0.0000 C   0  0
    1.2969   -3.7508    0.0000 C   0  0
    6.4990    0.7410    0.0000 C   0  0
    5.1998    2.9941    0.0000 C   0  0
    0.8657    3.5014    0.0000 H   0  0
   -0.8662    3.5005    0.0000 H   0  0
   -0.0005    4.0008    0.0000 H   0  0
   -3.4651    1.0009    0.0000 H   0  0
   -2.5985    2.5004    0.0000 H   0  0
   -3.4646    2.0008    0.0000 H   0  0
   -1.3060   -4.7494    0.0000 H   0  0
   -2.1709   -4.2478    0.0000 H   0  0
   -2.1691   -3.2479    0.0000 H   0  0
    2.1631   -3.2511    0.0000 H   0  0
    2.1629   -4.2510    0.0000 H   0  0
    1.2969   -4.7508    0.0000 H   0  0
    7.3660    1.2392    0.0000 H   0  0
    6.4973   -0.2590    0.0000 H   0  0
    7.3641    0.2394    0.0000 H   0  0
    4.3340    3.4944    0.0000 H   0  0
    6.0658    3.4941    0.0000 H   0  0
    5.2000    3.9941    0.0000 H   0  0
  1  2  1  0
  1  3  2  0
  2  4  1  0
  2  7  2  0
  3  6  1  0
  3  9  1  0
  4  5  1  0
  5 10  1  0
  5 11  2  0
  6  8  2  0
  7 12  1  0
  7  8  1  0
  8 13  1  0
  9 14  1  0
  9 15  1  0
 10 16  1  0
 10 17  1  0
 12 18  1  0
 12 19  1  0
 12 20  1  0
 13 21  1  0
 13 22  1  0
 13 23  1  0
 14 24  1  0
 14 25  1  0
 14 26  1  0
 15 27  1  0
 15 28  1  0
 15 29  1  0
 16 30  1  0
 16 31  1  0
 16 32  1  0
 17 33  1  0
 17 34  1  0
 17 35  1  0
V    1 0
V    2 1
V    3 2
V    4 3
V    5 4
V    6 5
V    7 6
V    8 7
V    9 8
V   10 9
V   11 10
V   12 11
V   13 12
V   14 13
V   15 14
V   16 15
V   17 16
M  END
> <DSSTox_RID>
65460

> <DSSTox_CID>
12569

> <DSSTox_CID_Parent>
12569

> <DSSTox_Generic_SID>
32569

> <DSSTox_FileID>
670_TXCST2_v1a

> <STRUCTURE_Formula>
C11H18N4O2

> <STRUCTURE_MolecularWeight>
238.2862

> <STRUCTURE_ChemicalType>
defined organic

> <STRUCTURE_TestedForm_DefinedOrganic>
parent

> <STRUCTURE_Shown>
tested chemical

> <TestSubstance_ChemicalName>
Pirimicarb

> <TestSubstance_CASRN>
23103-98-2

> <TestSubstance_Description>
single chemical compound

> <STRUCTURE_ChemicalName_IUPAC>
2-(dimethylamino)-5,6-dimethylpyrimidin-4-yl dimethylcarbamate

> <STRUCTURE_SMILES>
O=C(N(C)C)OC(N=C(N(C)C)N=C1C)=C1C

> <STRUCTURE_Parent_SMILES>
O=C(N(C)C)OC(N=C(N(C)C)N=C1C)=C1C

> <STRUCTURE_InChIS>
InChI=1S/C11H18N4O2/c1-7-8(2)12-10(14(3)4)13-9(7)17-11(16)15(5)6/h1-6H3

> <STRUCTURE_InChIKey>
YFGYUFNIOHWBOB-UHFFFAOYSA-N

> <Substance_modify_yyyymmdd>
20080429

> <Coord_Metals>
0

> <Index>
670

> <Canonical_Smiles>
CN(C)C(=O)Oc1nc(nc(C)c1C)N(C)C

> <Molecular_Weight>
238.28621

> <Frequency>
1

$$$$

  SciTegic          2D

 46 47  0  0  0  0            999 V2000
    4.6346   -1.8339    0.0000 C   0  0
    4.3800   -0.4712    0.0000 C   0  0
    5.7691   -1.0372    0.0000 C   0  0
    3.6269   -2.9460    0.0000 C   0  0
    2.4540   -2.6925    0.0000 O   0  0
    4.0853   -4.3751    0.0000 O   0  0
    2.8851   -0.6953    0.0000 C   0  0
    4.8995    0.9487    0.0000 C   0  0
    7.1303   -0.3800    0.0000 C   0  0
    8.3614   -1.2384    0.0000 C   0  0
    9.7207   -0.6023    0.0000 C   0  0
    8.2299   -2.7335    0.0000 C   0  0
    3.1040   -5.4931    0.0000 C   0  0
    4.5433   -5.9155    0.0000 C   0  0
    4.5863   -7.4149    0.0000 C   0  0
    3.1736   -7.9191    0.0000 C   0  0
    2.2575   -6.7314    0.0000 C   0  0
    5.7297   -5.0005    0.0000 C   0  0
    2.8357   -9.0706    0.0000 O   0  0
    5.8232   -8.2604    0.0000 C   0  0
    5.7101   -9.7570    0.0000 C   0  0
    5.5970  -11.2536    0.0000 C   0  0
    5.2480   -2.6236    0.0000 H   0  0
    6.3730   -1.8343    0.0000 H   0  0
    2.5298   -1.6301    0.0000 H   0  0
    1.8980   -0.8551    0.0000 H   0  0
    2.2530    0.0796    0.0000 H   0  0
    4.2679    1.7240    0.0000 H   0  0
    5.2549    1.8834    0.0000 H   0  0
    5.8866    1.1084    0.0000 H   0  0
    7.2158    0.6164    0.0000 H   0  0
   10.5410   -1.1743    0.0000 H   0  0
   10.6263   -0.1781    0.0000 H   0  0
    9.8062    0.3940    0.0000 H   0  0
    7.3237   -3.1563    0.0000 H   0  0
    8.1428   -3.7297    0.0000 H   0  0
    9.0490   -3.3071    0.0000 H   0  0
    2.1176   -5.3289    0.0000 H   0  0
    1.7457   -5.8723    0.0000 H   0  0
    1.7957   -7.6183    0.0000 H   0  0
    5.5973   -4.0093    0.0000 H   0  0
    6.6544   -5.3812    0.0000 H   0  0
    6.5218   -4.3901    0.0000 H   0  0
    6.7246   -7.8274    0.0000 H   0  0
    6.6490   -8.8244    0.0000 H   0  0
    5.5217  -12.2507    0.0000 H   0  0
  1  2  1  0
  1  3  1  0
  1  4  1  0
  2  3  1  0
  2  7  1  0
  2  8  1  0
  3  9  1  0
  4  5  2  0
  4  6  1  0
 13  6  1  0
  9 10  2  0
 10 11  1  0
 10 12  1  0
 13 14  1  0
 13 17  1  0
 14 15  2  0
 14 18  1  0
 15 16  1  0
 15 20  1  0
 16 17  1  0
 16 19  2  0
 20 21  1  0
 21 22  3  0
  1 23  1  0
  3 24  1  0
  7 25  1  0
  7 26  1  0
  7 27  1  0
  8 28  1  0
  8 29  1  0
  8 30  1  0
  9 31  1  0
 11 32  1  0
 11 33  1  0
 11 34  1  0
 12 35  1  0
 12 36  1  0
 12 37  1  0
 13 38  1  0
 17 39  1  0
 17 40  1  0
 18 41  1  0
 18 42  1  0
 18 43  1  0
 20 44  1  0
 20 45  1  0
 22 46  1  0
V    1 0
V    2 1
V    3 2
V    4 3
V    5 4
V    6 5
V    7 6
V    8 7
V    9 8
V   10 9
V   11 10
V   12 11
V   13 12
V   14 13
V   15 14
V   16 15
V   17 16
V   18 17
V   19 18
V   20 19
V   21 20
V   22 21
M  END
> <DSSTox_RID>
65355

> <DSSTox_CID>
12572

> <DSSTox_CID_Parent>
12572

> <DSSTox_Generic_SID>
32572

> <DSSTox_FileID>
671_TXCST2_v1a

> <STRUCTURE_Formula>
C19H24O3

> <STRUCTURE_MolecularWeight>
300.3921

> <STRUCTURE_ChemicalType>
defined organic

> <STRUCTURE_TestedForm_DefinedOrganic>
parent

> <STRUCTURE_Shown>
representative isomer in mixture

> <TestSubstance_ChemicalName>
Prallethrin

> <TestSubstance_CASRN>
23031-36-9

> <TestSubstance_Description>
mixture or formulation

> <ChemicalNote>
mixture of 8 isomers; primarily (1R,trans,S) and (1R,cis,S) in approx 4:1; structure shown (1R,trans,S); stereochem; tautomers

> <Source_ChemicalNote>
tested chemical contained 0.3% water (0.05 moles H2O)

> <STRUCTURE_ChemicalName_IUPAC>
(1R)-2-methyl-4-oxo-3-prop-2-yn-1-ylcyclopent-2-en-1-yl (1S,3S)-2,2-dimethyl-3-(2-methylprop-1-en-1-yl)cyclopropanecarboxylate

> <STRUCTURE_SMILES>
O=[C@](O[C@H](C2)C(C)=C(CC#C)C2=O)[C@@H]1C(C)(C)[C@H]1/C=C(C)/C

> <STRUCTURE_Parent_SMILES>
O=[C@](O[C@H](C2)C(C)=C(CC#C)C2=O)[C@@H]1C(C)(C)[C@H]1/C=C(C)/C

> <STRUCTURE_InChIS>
InChI=1S/C19H24O3/c1-7-8-13-12(4)16(10-15(13)20)22-18(21)17-14(9-11(2)3)19(17,5)6/h1,9,14,16-17H,8,10H2,2-6H3/t14-,16+,17+/m0/s1

> <STRUCTURE_InChIKey>
SMKRKQBMYOFFMU-USXIJHARSA-N

> <Substance_modify_yyyymmdd>
20080429

> <Coord_Metals>
0

> <Index>
671

> <Canonical_Smiles>
CC(=CC1C(C(=O)OC2CC(=O)C(=C2C)CC#C)C1(C)C)C

> <Molecular_Weight>
300.39206

> <Frequency>
1

$$$$

  SciTegic          2D

 49 50  0  0  0  0            999 V2000
    1.2990   -0.7500    0.0000 N   0  0
    1.2990    0.7500    0.0000 N   0  0
    0.0000    1.5000    0.0000 C   0  0
    0.0000   -1.5000    0.0000 C   0  0
   -1.2990    0.7500    0.0000 C   0  0
   -1.2990   -0.7500    0.0000 C   0  0
    0.0000    2.7000    0.0000 O   0  0
   -2.3383    1.3500    0.0000 Cl  0  0
    2.2637    1.8997    0.0000 C   0  0
    3.7419    1.6400    0.0000 C   0  0
    1.7500    3.3098    0.0000 C   0  0
    2.7848    0.4612    0.0000 C   0  0
   -2.6003   -1.4978    0.0000 S   0  0
   -3.8990   -0.7455    0.0000 C   0  0
   -5.2003   -1.4932    0.0000 C   0  0
   -5.2034   -2.9932    0.0000 C   0  0
   -6.4978   -0.7406    0.0000 C   0  0
   -6.5040   -3.7406    0.0000 C   0  0
   -7.7984   -1.4879    0.0000 C   0  0
   -7.8015   -2.9879    0.0000 C   0  0
   -9.2800   -3.2455    0.0000 C   0  0
   -9.7971   -4.6544    0.0000 C   0  0
  -10.2420   -2.0935    0.0000 C   0  0
   -8.2972   -4.4180    0.0000 C   0  0
    0.0000   -2.5000    0.0000 H   0  0
    4.3847    2.4061    0.0000 H   0  0
    4.0843    0.7005    0.0000 H   0  0
    4.7268    1.4666    0.0000 H   0  0
    2.3920    4.0764    0.0000 H   0  0
    0.7651    3.4828    0.0000 H   0  0
    1.4072    4.2492    0.0000 H   0  0
    2.1413   -0.3042    0.0000 H   0  0
    3.1258   -0.4789    0.0000 H   0  0
    3.7694    0.2863    0.0000 H   0  0
   -3.8973    0.2545    0.0000 H   0  0
   -3.0322   -0.2469    0.0000 H   0  0
   -4.3384   -3.4950    0.0000 H   0  0
   -6.4958    0.2594    0.0000 H   0  0
   -6.5060   -4.7406    0.0000 H   0  0
   -8.6634   -0.9861    0.0000 H   0  0
  -10.7823   -4.8260    0.0000 H   0  0
   -9.1562   -5.4220    0.0000 H   0  0
  -10.1412   -5.5933    0.0000 H   0  0
  -11.2273   -2.2642    0.0000 H   0  0
   -9.8974   -1.1548    0.0000 H   0  0
  -10.8826   -1.3257    0.0000 H   0  0
   -7.3122   -4.2454    0.0000 H   0  0
   -7.6551   -5.1846    0.0000 H   0  0
   -8.6400   -5.3574    0.0000 H   0  0
  1  2  1  0
  1  4  2  0
  2  3  1  0
  2  9  1  0
  3  5  1  0
  3  7  2  0
  4  6  1  0
  5  6  2  0
  5  8  1  0
  6 13  1  0
  9 10  1  0
  9 11  1  0
  9 12  1  0
 13 14  1  0
 14 15  1  0
 15 16  2  0
 15 17  1  0
 16 18  1  0
 17 19  2  0
 18 20  2  0
 19 20  1  0
 20 21  1  0
 21 22  1  0
 21 23  1  0
 21 24  1  0
  4 25  1  0
 10 26  1  0
 10 27  1  0
 10 28  1  0
 11 29  1  0
 11 30  1  0
 11 31  1  0
 12 32  1  0
 12 33  1  0
 12 34  1  0
 14 35  1  0
 14 36  1  0
 16 37  1  0
 17 38  1  0
 18 39  1  0
 19 40  1  0
 22 41  1  0
 22 42  1  0
 22 43  1  0
 23 44  1  0
 23 45  1  0
 23 46  1  0
 24 47  1  0
 24 48  1  0
 24 49  1  0
V    1 0
V    2 1
V    3 2
V    4 3
V    5 4
V    6 5
V    7 6
V    8 7
V    9 8
V   10 9
V   11 10
V   12 11
V   13 12
V   14 13
V   15 14
V   16 15
V   17 16
V   18 17
V   19 18
V   20 19
V   21 20
V   22 21
V   23 22
V   24 23
M  END
> <DSSTox_RID>
62317

> <DSSTox_CID>
12573

> <DSSTox_CID_Parent>
12573

> <DSSTox_Generic_SID>
32573

> <DSSTox_FileID>
672_TXCST2_v1a

> <STRUCTURE_Formula>
C19H25ClN2OS

> <STRUCTURE_MolecularWeight>
364.9326

> <STRUCTURE_ChemicalType>
defined organic

> <STRUCTURE_TestedForm_DefinedOrganic>
parent

> <STRUCTURE_Shown>
tested chemical

> <TestSubstance_ChemicalName>
Pyridaben

> <TestSubstance_CASRN>
96489-71-3

> <TestSubstance_Description>
single chemical compound

> <STRUCTURE_ChemicalName_IUPAC>
2-tert-butyl-5-[(4-tert-butylbenzyl)thio]-4-chloropyridazin-3(2H)-one

> <STRUCTURE_SMILES>
O=C1N(C(C)(C)C)N=CC(SCC2=CC=C(C(C)(C)C)C=C2)=C1Cl

> <STRUCTURE_Parent_SMILES>
O=C1N(C(C)(C)C)N=CC(SCC2=CC=C(C(C)(C)C)C=C2)=C1Cl

> <STRUCTURE_InChIS>
InChI=1S/C19H25ClN2OS/c1-18(2,3)14-9-7-13(8-10-14)12-24-15-11-21-22(19(4,5)6)17(23)16(15)20/h7-11H,12H2,1-6H3

> <STRUCTURE_InChIKey>
DWFZBUWUXWZWKD-UHFFFAOYSA-N

> <Substance_modify_yyyymmdd>
20080429

> <Coord_Metals>
0

> <Index>
672

> <Canonical_Smiles>
CC(C)(C)N1N=CC(=C(Cl)C1=O)SCc2ccc(cc2)C(C)(C)C

> <Molecular_Weight>
364.9326

> <Frequency>
1

$$$$

  SciTegic          2D

 41 42  0  0  0  0            999 V2000
    6.4990   -0.7516    0.0000 C   0  0
    5.7495    0.4146    0.0000 C   0  0
    7.2495    0.4139    0.0000 C   0  0
    5.9848   -2.1616    0.0000 C   0  0
    4.8028   -2.3689    0.0000 O   0  0
    6.9481   -3.3125    0.0000 O   0  0
    8.2626    1.5357    0.0000 C   0  0
    9.7265    1.2046    0.0000 C   0  0
   10.7459    2.3061    0.0000 C   0  0
   10.0821    0.0585    0.0000 Cl  0  0
   11.9163    2.0413    0.0000 F   0  0
   11.5605    3.1872    0.0000 F   0  0
   10.3903    3.4522    0.0000 F   0  0
    4.4494   -0.3565    0.0000 C   0  0
    5.6956    1.9255    0.0000 C   0  0
    6.4338   -4.7225    0.0000 C   0  0
    7.3971   -5.8735    0.0000 C   0  0
    8.8746   -5.6149    0.0000 C   0  0
    6.8823   -7.2823    0.0000 C   0  0
    9.8374   -6.7651    0.0000 C   0  0
    7.8450   -8.4326    0.0000 C   0  0
    9.3226   -8.1740    0.0000 C   0  0
    9.2865   -4.4877    0.0000 F   0  0
   11.0194   -6.5583    0.0000 F   0  0
    7.4332   -9.5597    0.0000 F   0  0
    5.7003   -7.4892    0.0000 F   0  0
   10.2858   -9.3250    0.0000 C   0  0
    7.3649   -1.2519    0.0000 H   0  0
    8.1093   -0.0968    0.0000 H   0  0
    7.9663    2.4908    0.0000 H   0  0
    4.4726   -1.3562    0.0000 H   0  0
    3.5953   -0.8766    0.0000 H   0  0
    3.5719    0.1230    0.0000 H   0  0
    4.8183    2.4056    0.0000 H   0  0
    5.6725    2.9253    0.0000 H   0  0
    6.5498    2.4455    0.0000 H   0  0
    5.4489   -4.8952    0.0000 H   0  0
    5.7917   -3.9560    0.0000 H   0  0
   11.2709   -9.1532    0.0000 H   0  0
    9.9423  -10.2641    0.0000 H   0  0
   10.9273  -10.0921    0.0000 H   0  0
  1  2  1  0
  1  3  1  0
  1  4  1  0
  2  3  1  0
  2 14  1  0
  2 15  1  0
  7  3  1  0
  4  5  2  0
  4  6  1  0
  6 16  1  0
  7  8  2  0
  8  9  1  0
  8 10  1  0
  9 11  1  0
  9 12  1  0
  9 13  1  0
 16 17  1  0
 17 18  2  0
 17 19  1  0
 18 20  1  0
 18 23  1  0
 19 21  2  0
 19 26  1  0
 20 22  2  0
 20 24  1  0
 21 22  1  0
 21 25  1  0
 22 27  1  0
  1 28  1  0
  3 29  1  0
  7 30  1  0
 14 31  1  0
 14 32  1  0
 14 33  1  0
 15 34  1  0
 15 35  1  0
 15 36  1  0
 16 37  1  0
 16 38  1  0
 27 39  1  0
 27 40  1  0
 27 41  1  0
V    1 0
V    2 1
V    3 2
V    4 3
V    5 4
V    6 5
V    7 6
V    8 7
V    9 8
V   10 9
V   11 10
V   12 11
V   13 12
V   14 13
V   15 14
V   16 15
V   17 16
V   18 17
V   19 18
V   20 19
V   21 20
V   22 21
V   23 22
V   24 23
V   25 24
V   26 25
V   27 26
M  END
> <DSSTox_RID>
62300

> <DSSTox_CID>
12577

> <DSSTox_CID_Parent>
12577

> <DSSTox_Generic_SID>
32577

> <DSSTox_FileID>
673_TXCST2_v1a

> <STRUCTURE_Formula>
C17H14ClF7O2

> <STRUCTURE_MolecularWeight>
418.7337

> <STRUCTURE_ChemicalType>
defined organic

> <STRUCTURE_TestedForm_DefinedOrganic>
parent

> <STRUCTURE_Shown>
tested chemical

> <TestSubstance_ChemicalName>
Tefluthrin

> <TestSubstance_CASRN>
79538-32-2

> <TestSubstance_Description>
single chemical compound

> <ChemicalNote>
mixture of (R,S) isomers; structure shown without stereochem

> <Source_ChemicalNote>
tested chemical was a mixture of isomers

> <STRUCTURE_ChemicalName_IUPAC>
2,3,5,6-tetrafluoro-4-methylbenzyl 3-[(1Z)-2-chloro-3,3,3-trifluoroprop-1-en-1-yl]-2,2-dimethylcyclopropanecarboxylate

> <STRUCTURE_SMILES>
O=C(OCC2=C(F)C(F)=C(C)C(F)=C2F)C1C(C)(C)C1/C=C(Cl)/C(F)(F)F

> <STRUCTURE_Parent_SMILES>
O=C(OCC2=C(F)C(F)=C(C)C(F)=C2F)C1C(C)(C)C1/C=C(Cl)/C(F)(F)F

> <STRUCTURE_InChIS>
InChI=1S/C17H14ClF7O2/c1-6-11(19)13(21)7(14(22)12(6)20)5-27-15(26)10-8(16(10,2)3)4-9(18)17(23,24)25/h4,8,10H,5H2,1-3H3/b9-4-

> <STRUCTURE_InChIKey>
ZFHGXWPMULPQSE-WTKPLQERSA-N

> <Substance_modify_yyyymmdd>
20080429

> <Coord_Metals>
0

> <Index>
673

> <Canonical_Smiles>
Cc1c(F)c(F)c(COC(=O)C2C(C=C(Cl)C(F)(F)F)C2(C)C)c(F)c1F

> <Molecular_Weight>
418.73368

> <Frequency>
1

$$$$

  SciTegic          2D

 39 38  0  0  0  0            999 V2000
   11.6968    2.2508    0.0000 C   0  0
   11.6999    0.7500    0.0000 N   0  0
   10.3999    0.0000    0.0000 S   0  0
    9.0999    0.7500    0.0000 N   0  0
    7.7999    0.0000    0.0000 C   0  0
    7.7999   -1.2000    0.0000 O   0  0
    6.5000    0.7500    0.0000 O   0  0
    5.2000    0.0000    0.0000 N   0  0
    3.9000    0.7500    0.0000 C   0  0
    2.6000    0.0000    0.0000 S   0  0
    1.3000    0.7500    0.0000 C   0  0
    3.8969    2.2508    0.0000 C   0  0
    9.1030    2.2508    0.0000 C   0  0
   12.9999    0.0000    0.0000 C   0  0
   12.9999   -1.2000    0.0000 O   0  0
   14.2999    0.7500    0.0000 O   0  0
   15.5999    0.0000    0.0000 N   0  0
   16.8999    0.7500    0.0000 C   0  0
   18.1999    0.0000    0.0000 S   0  0
   19.4998    0.7500    0.0000 C   0  0
   16.9030    2.2508    0.0000 C   0  0
   10.8301    2.7496    0.0000 H   0  0
   12.5620    2.7523    0.0000 H   0  0
   11.6952    3.2508    0.0000 H   0  0
    0.4338    0.2503    0.0000 H   0  0
    1.3000    1.7500    0.0000 H   0  0
    0.4340    1.2501    0.0000 H   0  0
    3.0301    2.7496    0.0000 H   0  0
    4.7620    2.7523    0.0000 H   0  0
    3.8953    3.2508    0.0000 H   0  0
    9.9698    2.7496    0.0000 H   0  0
    8.2379    2.7523    0.0000 H   0  0
    9.1046    3.2508    0.0000 H   0  0
   20.3660    0.2503    0.0000 H   0  0
   19.4998    1.7500    0.0000 H   0  0
   20.3658    1.2501    0.0000 H   0  0
   17.7697    2.7496    0.0000 H   0  0
   16.9045    3.2508    0.0000 H   0  0
   16.0378    2.7523    0.0000 H   0  0
  1  2  1  0
  2  3  1  0
  2 14  1  0
  3  4  1  0
  4  5  1  0
  4 13  1  0
  5  6  2  0
  5  7  1  0
  8  7  1  0
  8  9  2  0
  9 10  1  0
  9 12  1  0
 10 11  1  0
 14 15  2  0
 14 16  1  0
 17 16  1  0
 17 18  2  0
 18 19  1  0
 18 21  1  0
 19 20  1  0
  1 22  1  0
  1 23  1  0
  1 24  1  0
 11 25  1  0
 11 26  1  0
 11 27  1  0
 12 28  1  0
 12 29  1  0
 12 30  1  0
 13 31  1  0
 13 32  1  0
 13 33  1  0
 20 34  1  0
 20 35  1  0
 20 36  1  0
 21 37  1  0
 21 38  1  0
 21 39  1  0
V    1 0
V    2 1
V    3 2
V    4 3
V    5 4
V    6 5
V    7 6
V    8 7
V    9 8
V   10 9
V   11 10
V   12 11
V   13 12
V   14 13
V   15 14
V   16 15
V   17 16
V   18 17
V   19 18
V   20 19
V   21 20
M  END
> <DSSTox_RID>
62364

> <DSSTox_CID>
12578

> <DSSTox_CID_Parent>
12578

> <DSSTox_Generic_SID>
32578

> <DSSTox_FileID>
674_TXCST2_v1a

> <STRUCTURE_Formula>
C10H18N4O4S3

> <STRUCTURE_MolecularWeight>
354.4693

> <STRUCTURE_ChemicalType>
defined organic

> <STRUCTURE_TestedForm_DefinedOrganic>
parent

> <STRUCTURE_Shown>
tested chemical

> <TestSubstance_ChemicalName>
Thiodicarb

> <TestSubstance_CASRN>
59669-26-0

> <TestSubstance_Description>
single chemical compound

> <STRUCTURE_ChemicalName_IUPAC>
dimethyl N,N'-(thiobis((methylimino)carbonyloxy))bis(thioimidoacetate)

> <STRUCTURE_SMILES>
O=C(O/N=C(C)/SC)N(C)SN(C(O/N=C(C)/SC)=O)C

> <STRUCTURE_Parent_SMILES>
O=C(O/N=C(C)/SC)N(C)SN(C(O/N=C(C)/SC)=O)C

> <STRUCTURE_InChIS>
InChI=1S/C10H18N4O4S3/c1-7(19-5)11-17-9(15)13(3)21-14(4)10(16)18-12-8(2)20-6/h1-6H3/b11-7+,12-8+

> <STRUCTURE_InChIKey>
XDOTVMNBCQVZKG-MKICQXMISA-N

> <Substance_modify_yyyymmdd>
20080429

> <Coord_Metals>
0

> <Index>
674

> <Canonical_Smiles>
CSC(=NOC(=O)N(C)SN(C)C(=O)ON=C(C)SC)C

> <Molecular_Weight>
354.46932

> <Frequency>
1

$$$$

  SciTegic          2D

 48 49  0  0  0  0            999 V2000
    2.5951   -3.0039    0.0000 C   0  0
    1.5548   -3.6021    0.0000 O   0  0
    3.8933   -3.7570    0.0000 O   0  0
    2.5973   -1.5031    0.0000 C   0  0
    3.8999   -0.7576    0.0000 N   0  0
    5.1972   -1.5121    0.0000 O   0  0
    6.4998   -0.7667    0.0000 C   0  0
    1.2990   -0.7500    0.0000 C   0  0
    1.2990    0.7500    0.0000 C   0  0
    0.0000   -1.5000    0.0000 C   0  0
    0.0000    1.5000    0.0000 C   0  0
   -1.2990   -0.7500    0.0000 C   0  0
   -1.2990    0.7500    0.0000 C   0  0
    2.5988    1.5004    0.0000 C   0  0
    2.5997    3.0013    0.0000 O   0  0
    3.8995    3.7517    0.0000 N   0  0
    3.9004    5.2525    0.0000 C   0  0
    2.5993    6.0006    0.0000 C   0  0
    5.2002    6.0029    0.0000 C   0  0
    5.2033    7.5029    0.0000 C   0  0
    6.4978    5.2503    0.0000 C   0  0
    6.5039    8.2503    0.0000 C   0  0
    7.7983    5.9977    0.0000 C   0  0
    7.8014    7.4977    0.0000 C   0  0
    6.5069    9.7511    0.0000 C   0  0
    5.4693   10.3539    0.0000 F   0  0
    7.5475   10.3487    0.0000 F   0  0
    6.5099   10.9511    0.0000 F   0  0
    3.8912   -5.2578    0.0000 C   0  0
    7.3643   -1.2694    0.0000 H   0  0
    7.3675   -0.2695    0.0000 H   0  0
    6.5033    0.2333    0.0000 H   0  0
    0.0000   -2.5000    0.0000 H   0  0
    0.0000    2.5000    0.0000 H   0  0
   -2.1651   -1.2500    0.0000 H   0  0
   -2.1651    1.2500    0.0000 H   0  0
    3.4650    2.0000    0.0000 H   0  0
    3.4647    1.0002    0.0000 H   0  0
    1.7339    5.4997    0.0000 H   0  0
    1.7327    6.4995    0.0000 H   0  0
    2.5979    7.0006    0.0000 H   0  0
    4.3383    8.0047    0.0000 H   0  0
    6.4958    4.2503    0.0000 H   0  0
    8.6633    5.4959    0.0000 H   0  0
    8.6684    7.9959    0.0000 H   0  0
    4.7562   -5.7596    0.0000 H   0  0
    3.0243   -5.7563    0.0000 H   0  0
    3.8893   -6.2578    0.0000 H   0  0
  1  2  2  0
  1  3  1  0
  1  4  1  0
  3 29  1  0
  4  5  2  0
  4  8  1  0
  5  6  1  0
  6  7  1  0
  8  9  2  0
  8 10  1  0
  9 11  1  0
  9 14  1  0
 10 12  2  0
 11 13  2  0
 12 13  1  0
 14 15  1  0
 16 15  1  0
 16 17  2  0
 17 18  1  0
 17 19  1  0
 19 20  2  0
 19 21  1  0
 20 22  1  0
 21 23  2  0
 22 24  2  0
 22 25  1  0
 23 24  1  0
 25 26  1  0
 25 27  1  0
 25 28  1  0
  7 30  1  0
  7 31  1  0
  7 32  1  0
 10 33  1  0
 11 34  1  0
 12 35  1  0
 13 36  1  0
 14 37  1  0
 14 38  1  0
 18 39  1  0
 18 40  1  0
 18 41  1  0
 20 42  1  0
 21 43  1  0
 23 44  1  0
 24 45  1  0
 29 46  1  0
 29 47  1  0
 29 48  1  0
V    1 0
V    2 1
V    3 2
V    4 3
V    5 4
V    6 5
V    7 6
V    8 7
V    9 8
V   10 9
V   11 10
V   12 11
V   13 12
V   14 13
V   15 14
V   16 15
V   17 16
V   18 17
V   19 18
V   20 19
V   21 20
V   22 21
V   23 22
V   24 23
V   25 24
V   26 25
V   27 26
V   28 27
V   29 28
M  END
> <DSSTox_RID>
65328

> <DSSTox_CID>
12580

> <DSSTox_CID_Parent>
12580

> <DSSTox_Generic_SID>
32580

> <DSSTox_FileID>
675_TXCST2_v1a

> <STRUCTURE_Formula>
C20H19F3N2O4

> <STRUCTURE_MolecularWeight>
408.3711

> <STRUCTURE_ChemicalType>
defined organic

> <STRUCTURE_TestedForm_DefinedOrganic>
parent

> <STRUCTURE_Shown>
tested chemical

> <TestSubstance_ChemicalName>
Trifloxystrobin

> <TestSubstance_CASRN>
141517-21-7

> <TestSubstance_Description>
single chemical compound

> <ChemicalNote>
stereochem

> <STRUCTURE_ChemicalName_IUPAC>
methyl (2E)-(methoxyimino)(2-{[({(1E)-1-[3-(trifluoromethyl)phenyl]ethylidene}amino)oxy]methyl}phenyl)acetate

> <STRUCTURE_SMILES>
O=C(/C(C1=C(CO\N=C(C2=CC(C(F)(F)F)=CC=C2)/C)C=CC=C1)=N/OC)OC

> <STRUCTURE_Parent_SMILES>
O=C(/C(C1=C(CO\N=C(C2=CC(C(F)(F)F)=CC=C2)/C)C=CC=C1)=N/OC)OC

> <STRUCTURE_InChIS>
InChI=1S/C20H19F3N2O4/c1-13(14-8-6-9-16(11-14)20(21,22)23)24-29-12-15-7-4-5-10-17(15)18(25-28-3)19(26)27-2/h4-11H,12H2,1-3H3/b24-13+,25-18+

> <STRUCTURE_InChIKey>
ONCZDRURRATYFI-TVJDWZFNSA-N

> <Substance_modify_yyyymmdd>
20080429

> <Coord_Metals>
0

> <Index>
675

> <Canonical_Smiles>
CON=C(C(=O)OC)c1ccccc1CON=C(C)c2cccc(c2)C(F)(F)F

> <Molecular_Weight>
408.37106

> <Frequency>
1

$$$$

  SciTegic          2D

 36 36  0  0  0  0            999 V2000
    2.5973   -1.5031    0.0000 C   0  0
    2.5944   -2.7031    0.0000 O   0  0
    1.2990   -0.7500    0.0000 C   0  0
    1.2990    0.7500    0.0000 C   0  0
    0.0000   -1.5000    0.0000 C   0  0
    0.0000    1.5000    0.0000 C   0  0
   -1.2990   -0.7500    0.0000 C   0  0
   -1.2990    0.7500    0.0000 C   0  0
    3.8990   -0.7562    0.0000 N   0  0
    0.0000    2.7000    0.0000 Cl  0  0
   -2.3383   -1.3500    0.0000 Cl  0  0
    4.8614   -1.9078    0.0000 C   0  0
    6.3401   -1.6512    0.0000 C   0  0
    7.3024   -2.8029    0.0000 C   0  0
    8.4848   -2.5977    0.0000 Cl  0  0
    5.3907   -0.4724    0.0000 C   0  0
    6.8697   -0.2172    0.0000 C   0  0
    4.3447   -3.3169    0.0000 C   0  0
    6.6843   -0.7123    0.0000 O   0  0
   -2.5988    1.5004    0.0000 C   0  0
    2.1651    1.2500    0.0000 H   0  0
    0.0000   -2.5000    0.0000 H   0  0
    3.9014    0.2438    0.0000 H   0  0
    7.9433   -3.5705    0.0000 H   0  0
    6.9582   -3.7418    0.0000 H   0  0
    4.4052   -0.6420    0.0000 H   0  0
    4.7510    0.2962    0.0000 H   0  0
    7.2157    0.7211    0.0000 H   0  0
    7.8552   -0.0476    0.0000 H   0  0
    7.5094   -0.9857    0.0000 H   0  0
    4.9852   -4.0848    0.0000 H   0  0
    3.3595   -3.4879    0.0000 H   0  0
    4.0000   -4.2556    0.0000 H   0  0
   -2.5994    2.5004    0.0000 H   0  0
   -3.4647    1.0001    0.0000 H   0  0
   -3.4651    2.0000    0.0000 H   0  0
  1  2  2  0
  1  3  1  0
  1  9  1  0
  3  4  2  0
  3  5  1  0
  4  6  1  0
  5  7  2  0
  6  8  2  0
  6 10  1  0
  7  8  1  0
  7 11  1  0
  8 20  1  0
  9 12  1  0
 12 13  1  0
 12 16  1  0
 12 18  1  0
 13 14  1  0
 13 19  2  0
 14 15  1  0
 16 17  1  0
  4 21  1  0
  5 22  1  0
  9 23  1  0
 14 24  1  0
 14 25  1  0
 16 26  1  0
 16 27  1  0
 17 28  1  0
 17 29  1  0
 17 30  1  0
 18 31  1  0
 18 32  1  0
 18 33  1  0
 20 34  1  0
 20 35  1  0
 20 36  1  0
V    1 0
V    2 1
V    3 2
V    4 3
V    5 4
V    6 5
V    7 6
V    8 7
V    9 8
V   10 9
V   11 10
V   12 11
V   13 12
V   14 13
V   15 14
V   16 15
V   17 16
V   18 17
V   19 18
V   20 19
M  END
> <DSSTox_RID>
65319

> <DSSTox_CID>
12581

> <DSSTox_CID_Parent>
12581

> <DSSTox_Generic_SID>
32581

> <DSSTox_FileID>
676_TXCST2_v1a

> <STRUCTURE_Formula>
C14H16Cl3NO2

> <STRUCTURE_MolecularWeight>
336.6413

> <STRUCTURE_ChemicalType>
defined organic

> <STRUCTURE_TestedForm_DefinedOrganic>
parent

> <STRUCTURE_Shown>
tested chemical

> <TestSubstance_ChemicalName>
Zoxamide

> <TestSubstance_CASRN>
156052-68-5

> <TestSubstance_Description>
single chemical compound

> <STRUCTURE_ChemicalName_IUPAC>
3,5-dichloro-N-(3-chloro-1-ethyl-1-methyl-2-oxopropyl)-4-methylbenzamide

> <STRUCTURE_SMILES>
O=C(NC(CC)(C)C(CCl)=O)C1=CC(Cl)=C(C)C(Cl)=C1

> <STRUCTURE_Parent_SMILES>
O=C(NC(CC)(C)C(CCl)=O)C1=CC(Cl)=C(C)C(Cl)=C1

> <STRUCTURE_InChIS>
InChI=1S/C14H16Cl3NO2/c1-4-14(3,12(19)7-15)18-13(20)9-5-10(16)8(2)11(17)6-9/h5-6H,4,7H2,1-3H3,(H,18,20)

> <STRUCTURE_InChIKey>
SOUGWDPPRBKJEX-UHFFFAOYSA-N

> <Substance_modify_yyyymmdd>
20080429

> <Coord_Metals>
0

> <Index>
676

> <Canonical_Smiles>
CCC(C)(NC(=O)c1cc(Cl)c(C)c(Cl)c1)C(=O)CCl

> <Molecular_Weight>
336.64134

> <Frequency>
1

$$$$

  SciTegic          2D

 26 27  0  0  0  0            999 V2000
    1.5548   -3.6021    0.0000 O   0  0
    2.5951   -3.0039    0.0000 C   0  0
    3.8933   -3.7570    0.0000 C   0  0
    5.2779   -3.8262    0.0000 C   0  0
    4.5303   -2.5258    0.0000 C   0  0
    3.8907   -5.2582    0.0000 C   0  0
    4.9291   -5.8597    0.0000 O   0  0
    2.5901   -6.0072    0.0000 O   0  0
    2.5973   -1.5031    0.0000 N   0  0
    1.2990   -0.7500    0.0000 C   0  0
    1.2990    0.7500    0.0000 C   0  0
    0.0000    1.5000    0.0000 C   0  0
   -1.2990    0.7500    0.0000 C   0  0
   -1.2990   -0.7500    0.0000 C   0  0
    0.0000   -1.5000    0.0000 C   0  0
   -2.3383    1.3500    0.0000 Cl  0  0
    2.3383    1.3500    0.0000 Cl  0  0
    5.2648   -4.8261    0.0000 H   0  0
    6.1627   -3.3604    0.0000 H   0  0
    3.6597   -2.0338    0.0000 H   0  0
    5.3782   -1.9955    0.0000 H   0  0
    2.5884   -7.0072    0.0000 H   0  0
    3.4642   -1.0046    0.0000 H   0  0
    0.0000    2.5000    0.0000 H   0  0
   -2.1651   -1.2500    0.0000 H   0  0
    0.0000   -2.5000    0.0000 H   0  0
  1  2  2  0
  2  3  1  0
  2  9  1  0
  3  4  1  0
  3  5  1  0
  3  6  1  0
  4  5  1  0
  6  7  2  0
  6  8  1  0
  9 10  1  0
 10 11  2  0
 10 15  1  0
 11 12  1  0
 11 17  1  0
 12 13  2  0
 13 14  1  0
 13 16  1  0
 14 15  2  0
  4 18  1  0
  4 19  1  0
  5 20  1  0
  5 21  1  0
  8 22  1  0
  9 23  1  0
 12 24  1  0
 14 25  1  0
 15 26  1  0
V    1 0
V    2 1
V    3 2
V    4 3
V    5 4
V    6 5
V    7 6
V    8 7
V    9 8
V   10 9
V   11 10
V   12 11
V   13 12
V   14 13
V   15 14
V   16 15
V   17 16
M  END
> <DSSTox_RID>
65312

> <DSSTox_CID>
12600

> <DSSTox_CID_Parent>
12600

> <DSSTox_Generic_SID>
32600

> <DSSTox_FileID>
677_TXCST2_v1a

> <STRUCTURE_Formula>
C11H9Cl2NO3

> <STRUCTURE_MolecularWeight>
274.1001

> <STRUCTURE_ChemicalType>
defined organic

> <STRUCTURE_TestedForm_DefinedOrganic>
parent

> <STRUCTURE_Shown>
tested chemical

> <TestSubstance_ChemicalName>
Cyclanilide

> <TestSubstance_CASRN>
113136-77-9

> <TestSubstance_Description>
single chemical compound

> <STRUCTURE_ChemicalName_IUPAC>
1-[(2,4-dichlorophenyl)carbamoyl]cyclopropanecarboxylic acid

> <STRUCTURE_SMILES>
O=C(NC2=CC=C(Cl)C=C2Cl)C1(C(O)=O)CC1

> <STRUCTURE_Parent_SMILES>
O=C(NC2=CC=C(Cl)C=C2Cl)C1(C(O)=O)CC1

> <STRUCTURE_InChIS>
InChI=1S/C11H9Cl2NO3/c12-6-1-2-8(7(13)5-6)14-9(15)11(3-4-11)10(16)17/h1-2,5H,3-4H2,(H,14,15)(H,16,17)

> <STRUCTURE_InChIKey>
GLWWLNJJJCTFMZ-UHFFFAOYSA-N

> <Substance_modify_yyyymmdd>
20080429

> <Coord_Metals>
0

> <Index>
677

> <Canonical_Smiles>
OC(=O)C1(CC1)C(=O)Nc2ccc(Cl)cc2Cl

> <Molecular_Weight>
274.10006

> <Frequency>
1

$$$$

  SciTegic          2D

 38 40  0  0  0  0            999 V2000
   -3.8887    9.4511    0.0000 Cl  0  0
   -3.8902    8.2511    0.0000 C   0  0
   -5.1902    7.5027    0.0000 C   0  0
   -5.1921    6.0027    0.0000 C   0  0
   -3.8940    5.2511    0.0000 C   0  0
   -2.5940    5.9995    0.0000 C   0  0
   -2.5921    7.4995    0.0000 C   0  0
   -4.4091    3.8415    0.0000 C   0  0
   -2.9024    4.1074    0.0000 O   0  0
   -3.4454    2.6909    0.0000 C   0  0
   -1.9670    2.9492    0.0000 N   0  0
   -0.9112    1.9017    0.0000 C   0  0
    0.4143    2.6038    0.0000 N   0  0
    0.1561    4.0814    0.0000 C   0  0
   -1.3289    4.2926    0.0000 N   0  0
   -5.7100    3.0932    0.0000 C   0  0
   -7.0090    3.8448    0.0000 C   0  0
   -7.6446    2.6129    0.0000 C   0  0
   -8.3936    3.9125    0.0000 C   0  0
   -5.7119    1.5924    0.0000 C   0  0
   -6.0556    8.0038    0.0000 H   0  0
   -6.0587    5.5038    0.0000 H   0  0
   -1.7286    5.4984    0.0000 H   0  0
   -1.7254    7.9984    0.0000 H   0  0
   -2.5599    5.0470    0.0000 H   0  0
   -2.8037    1.9239    0.0000 H   0  0
   -3.7886    1.7516    0.0000 H   0  0
   -1.0579    0.9125    0.0000 H   0  0
    0.8519    4.7997    0.0000 H   0  0
   -4.8447    2.5919    0.0000 H   0  0
   -7.0084    4.8448    0.0000 H   0  0
   -6.7735    2.1219    0.0000 H   0  0
   -8.4919    2.0817    0.0000 H   0  0
   -8.3817    4.9124    0.0000 H   0  0
   -9.2780    3.4457    0.0000 H   0  0
   -6.5782    1.0930    0.0000 H   0  0
   -5.7127    0.5924    0.0000 H   0  0
   -4.8463    1.0916    0.0000 H   0  0
  1  2  1  0
  2  3  1  0
  2  7  2  0
  3  4  2  0
  4  5  1  0
  5  6  2  0
  5  8  1  0
  6  7  1  0
  8  9  1  0
  8 10  1  0
  8 16  1  0
 10 11  1  0
 11 12  1  0
 11 15  1  0
 12 13  2  0
 13 14  1  0
 14 15  2  0
 16 17  1  0
 16 20  1  0
 17 18  1  0
 17 19  1  0
 18 19  1  0
  3 21  1  0
  4 22  1  0
  6 23  1  0
  7 24  1  0
  9 25  1  0
 10 26  1  0
 10 27  1  0
 12 28  1  0
 14 29  1  0
 16 30  1  0
 17 31  1  0
 18 32  1  0
 18 33  1  0
 19 34  1  0
 19 35  1  0
 20 36  1  0
 20 37  1  0
 20 38  1  0
V    1 0
V    2 1
V    3 2
V    4 3
V    5 4
V    6 5
V    7 6
V    8 7
V    9 8
V   10 9
V   11 10
V   12 11
V   13 12
V   14 13
V   15 14
V   16 15
V   17 16
V   18 17
V   19 18
V   20 19
M  END
> <DSSTox_RID>
62331

> <DSSTox_CID>
12601

> <DSSTox_CID_Parent>
12601

> <DSSTox_Generic_SID>
32601

> <DSSTox_FileID>
678_TXCST2_v1a

> <STRUCTURE_Formula>
C15H18ClN3O

> <STRUCTURE_MolecularWeight>
291.7759

> <STRUCTURE_ChemicalType>
defined organic

> <STRUCTURE_TestedForm_DefinedOrganic>
parent

> <STRUCTURE_Shown>
tested chemical

> <TestSubstance_ChemicalName>
Cyproconazole

> <TestSubstance_CASRN>
94361-06-5

> <TestSubstance_Description>
single chemical compound

> <ChemicalNote>
mixture of stereoisomers, (2RS,3RS;2RS,3SR) approx 1:1; structure shown without stereochem

> <Source_ChemicalNote>
tested chemical was a mixture of isomers

> <STRUCTURE_ChemicalName_IUPAC>
2-(4-chlorophenyl)-3-cyclopropyl-1-(1H-1,2,4-triazol-1-yl)butan-2-ol

> <STRUCTURE_SMILES>
ClC1=CC=C(C(CN2C=NC=N2)(C(C)C3CC3)O)C=C1

> <STRUCTURE_Parent_SMILES>
ClC1=CC=C(C(CN2C=NC=N2)(C(C)C3CC3)O)C=C1

> <STRUCTURE_InChIS>
InChI=1S/C15H18ClN3O/c1-11(12-2-3-12)15(20,8-19-10-17-9-18-19)13-4-6-14(16)7-5-13/h4-7,9-12,20H,2-3,8H2,1H3

> <STRUCTURE_InChIKey>
UFNOUKDBUJZYDE-UHFFFAOYSA-N

> <Substance_modify_yyyymmdd>
20080429

> <Coord_Metals>
0

> <Index>
678

> <Canonical_Smiles>
CC(C1CC1)C(O)(Cn2cncn2)c3ccc(Cl)cc3

> <Molecular_Weight>
291.77592

> <Frequency>
1

$$$$

  SciTegic          2D

 36 37  0  0  0  0            999 V2000
    2.3383   -1.3500    0.0000 Cl  0  0
    1.2990   -0.7500    0.0000 C   0  0
    1.2990    0.7500    0.0000 C   0  0
    0.0000    1.5000    0.0000 C   0  0
   -1.2990    0.7500    0.0000 C   0  0
   -1.2990   -0.7500    0.0000 C   0  0
    0.0000   -1.5000    0.0000 C   0  0
   -2.3383   -1.3500    0.0000 Cl  0  0
    2.5972    1.5031    0.0000 O   0  0
    2.5951    3.0039    0.0000 C   0  0
    3.8915    3.7585    0.0000 C   0  0
    3.8863    5.2585    0.0000 C   0  0
    2.5847    6.0040    0.0000 C   0  0
    1.2883    5.2495    0.0000 C   0  0
    1.2934    3.7495    0.0000 C   0  0
    2.5764    7.5048    0.0000 O   0  0
    1.2730    8.2489    0.0000 C   0  0
    1.2647    9.7497    0.0000 C   0  0
    2.3008   10.3551    0.0000 O   0  0
   -0.0387   10.4937    0.0000 O   0  0
   -0.0470   11.9945    0.0000 C   0  0
   -0.0228    7.4917    0.0000 C   0  0
    0.0000    2.5000    0.0000 H   0  0
   -2.1651    1.2500    0.0000 H   0  0
    0.0000   -2.5000    0.0000 H   0  0
    4.7593    3.2615    0.0000 H   0  0
    4.7506    5.7615    0.0000 H   0  0
    0.4205    5.7465    0.0000 H   0  0
    0.4291    3.2465    0.0000 H   0  0
    2.1364    8.7534    0.0000 H   0  0
   -0.9154   12.4903    0.0000 H   0  0
   -0.0520   12.9945    0.0000 H   0  0
    0.8164   12.4990    0.0000 H   0  0
   -0.0182    6.4917    0.0000 H   0  0
   -0.8864    6.9876    0.0000 H   0  0
   -0.8912    7.9875    0.0000 H   0  0
  1  2  1  0
  2  3  1  0
  2  7  2  0
  3  4  2  0
  3  9  1  0
  4  5  1  0
  5  6  2  0
  6  7  1  0
  6  8  1  0
  9 10  1  0
 10 11  1  0
 10 15  2  0
 11 12  2  0
 12 13  1  0
 13 14  2  0
 13 16  1  0
 14 15  1  0
 16 17  1  0
 17 18  1  0
 17 22  1  0
 18 19  2  0
 18 20  1  0
 20 21  1  0
  4 23  1  0
  5 24  1  0
  7 25  1  0
 11 26  1  0
 12 27  1  0
 14 28  1  0
 15 29  1  0
 17 30  1  0
 21 31  1  0
 21 32  1  0
 21 33  1  0
 22 34  1  0
 22 35  1  0
 22 36  1  0
V    1 0
V    2 1
V    3 2
V    4 3
V    5 4
V    6 5
V    7 6
V    8 7
V    9 8
V   10 9
V   11 10
V   12 11
V   13 12
V   14 13
V   15 14
V   16 15
V   17 16
V   18 17
V   19 18
V   20 19
V   21 20
V   22 21
M  END
> <DSSTox_RID>
61723

> <DSSTox_CID>
12605

> <DSSTox_CID_Parent>
12605

> <DSSTox_Generic_SID>
32605

> <DSSTox_FileID>
679_TXCST2_v1a

> <STRUCTURE_Formula>
C16H14Cl2O4

> <STRUCTURE_MolecularWeight>
341.186

> <STRUCTURE_ChemicalType>
defined organic

> <STRUCTURE_TestedForm_DefinedOrganic>
parent

> <STRUCTURE_Shown>
tested chemical

> <TestSubstance_ChemicalName>
Diclofop-methyl

> <TestSubstance_CASRN>
51338-27-3

> <TestSubstance_Description>
single chemical compound

> <STRUCTURE_ChemicalName_IUPAC>
methyl 2-[4-(2,4-dichlorophenoxy)phenoxy]propanoate

> <STRUCTURE_SMILES>
ClC1=CC(Cl)=CC=C1OC2=CC=C(OC(C)C(OC)=O)C=C2

> <STRUCTURE_Parent_SMILES>
ClC1=CC(Cl)=CC=C1OC2=CC=C(OC(C)C(OC)=O)C=C2

> <STRUCTURE_InChIS>
InChI=1S/C16H14Cl2O4/c1-10(16(19)20-2)21-12-4-6-13(7-5-12)22-15-8-3-11(17)9-14(15)18/h3-10H,1-2H3

> <STRUCTURE_InChIKey>
BACHBFVBHLGWSL-UHFFFAOYSA-N

> <Substance_modify_yyyymmdd>
20080429

> <Coord_Metals>
0

> <Index>
679

> <Canonical_Smiles>
COC(=O)C(C)Oc1ccc(Oc2ccc(Cl)cc2Cl)cc1

> <Molecular_Weight>
341.18596

> <Frequency>
1

$$$$

  SciTegic          2D

 56 58  0  0  0  0            999 V2000
    1.2990   -0.7500    0.0000 C   0  0
    1.2990    0.7500    0.0000 C   0  0
    0.0000    1.5000    0.0000 C   0  0
   -1.2990    0.7500    0.0000 C   0  0
   -1.2990   -0.7500    0.0000 C   0  0
    0.0000   -1.5000    0.0000 C   0  0
    2.5988   -1.5004    0.0000 C   0  0
    3.8990   -0.7508    0.0000 O   0  0
    5.1988   -1.5012    0.0000 C   0  0
    6.4990   -0.7516    0.0000 C   0  0
    7.7980   -1.5032    0.0000 C   0  0
    6.5009    0.7492    0.0000 C   0  0
    5.2028    1.5008    0.0000 C   0  0
    7.8009    1.4975    0.0000 C   0  0
    5.2047    3.0008    0.0000 C   0  0
    7.8028    2.9975    0.0000 C   0  0
    6.5047    3.7492    0.0000 C   0  0
    6.5097    5.2500    0.0000 O   0  0
    7.8115    5.9969    0.0000 C   0  0
    7.8165    7.4977    0.0000 C   0  0
    6.4997   -2.2816    0.0000 C   0  0
   -2.5972   -1.5031    0.0000 O   0  0
   -2.5951   -3.0039    0.0000 C   0  0
   -3.8915   -3.7585    0.0000 C   0  0
   -1.2935   -3.7495    0.0000 C   0  0
   -3.8863   -5.2585    0.0000 C   0  0
   -1.2883   -5.2495    0.0000 C   0  0
   -2.5847   -6.0040    0.0000 C   0  0
    2.1651    1.2500    0.0000 H   0  0
    0.0000    2.5000    0.0000 H   0  0
   -2.1651    1.2500    0.0000 H   0  0
    0.0000   -2.5000    0.0000 H   0  0
    2.5985   -2.5004    0.0000 H   0  0
    3.4646   -2.0008    0.0000 H   0  0
    5.1985   -2.5012    0.0000 H   0  0
    4.3327   -2.0011    0.0000 H   0  0
    7.7977   -2.5032    0.0000 H   0  0
    8.6643   -1.0038    0.0000 H   0  0
    8.6638   -2.0037    0.0000 H   0  0
    4.3362    1.0019    0.0000 H   0  0
    8.6663    0.9964    0.0000 H   0  0
    4.3393    3.5019    0.0000 H   0  0
    8.6694    3.4964    0.0000 H   0  0
    8.6760    5.4943    0.0000 H   0  0
    7.8086    4.9969    0.0000 H   0  0
    8.6838    7.9954    0.0000 H   0  0
    6.9519    8.0003    0.0000 H   0  0
    7.8193    8.4977    0.0000 H   0  0
    7.3657   -2.7817    0.0000 H   0  0
    5.6338   -2.7818    0.0000 H   0  0
    6.4997   -3.2816    0.0000 H   0  0
   -4.7593   -3.2615    0.0000 H   0  0
   -0.4292   -3.2465    0.0000 H   0  0
   -4.7506   -5.7615    0.0000 H   0  0
   -0.4205   -5.7465    0.0000 H   0  0
   -2.5812   -7.0040    0.0000 H   0  0
  1  2  1  0
  1  6  2  0
  1  7  1  0
  2  3  2  0
  3  4  1  0
  4  5  2  0
  5  6  1  0
  5 22  1  0
  7  8  1  0
  8  9  1  0
  9 10  1  0
 10 11  1  0
 10 12  1  0
 10 21  1  0
 12 13  2  0
 12 14  1  0
 13 15  1  0
 14 16  2  0
 15 17  2  0
 16 17  1  0
 17 18  1  0
 18 19  1  0
 19 20  1  0
 22 23  1  0
 23 24  2  0
 23 25  1  0
 24 26  1  0
 25 27  2  0
 26 28  2  0
 27 28  1  0
  2 29  1  0
  3 30  1  0
  4 31  1  0
  6 32  1  0
  7 33  1  0
  7 34  1  0
  9 35  1  0
  9 36  1  0
 11 37  1  0
 11 38  1  0
 11 39  1  0
 13 40  1  0
 14 41  1  0
 15 42  1  0
 16 43  1  0
 19 44  1  0
 19 45  1  0
 20 46  1  0
 20 47  1  0
 20 48  1  0
 21 49  1  0
 21 50  1  0
 21 51  1  0
 24 52  1  0
 25 53  1  0
 26 54  1  0
 27 55  1  0
 28 56  1  0
V    1 0
V    2 1
V    3 2
V    4 3
V    5 4
V    6 5
V    7 6
V    8 7
V    9 8
V   10 9
V   11 10
V   12 11
V   13 12
V   14 13
V   15 14
V   16 15
V   17 16
V   18 17
V   19 18
V   20 19
V   21 20
V   22 21
V   23 22
V   24 23
V   25 24
V   26 25
V   27 26
V   28 27
M  END
> <DSSTox_RID>
65340

> <DSSTox_CID>
12610

> <DSSTox_CID_Parent>
12610

> <DSSTox_Generic_SID>
32610

> <DSSTox_FileID>
680_TXCST2_v1a

> <STRUCTURE_Formula>
C25H28O3

> <STRUCTURE_MolecularWeight>
376.488

> <STRUCTURE_ChemicalType>
defined organic

> <STRUCTURE_TestedForm_DefinedOrganic>
parent

> <STRUCTURE_Shown>
tested chemical

> <TestSubstance_ChemicalName>
Etofenprox

> <TestSubstance_CASRN>
80844-07-1

> <TestSubstance_Description>
single chemical compound

> <STRUCTURE_ChemicalName_IUPAC>
1-{[2-(4-ethoxyphenyl)-2-methylpropoxy]methyl}-3-phenoxybenzene

> <STRUCTURE_SMILES>
CC(C2=CC=C(OCC)C=C2)(C)COCC1=CC(OC3=CC=CC=C3)=CC=C1

> <STRUCTURE_Parent_SMILES>
CC(C2=CC=C(OCC)C=C2)(C)COCC1=CC(OC3=CC=CC=C3)=CC=C1

> <STRUCTURE_InChIS>
InChI=1S/C25H28O3/c1-4-27-22-15-13-21(14-16-22)25(2,3)19-26-18-20-9-8-12-24(17-20)28-23-10-6-5-7-11-23/h5-17H,4,18-19H2,1-3H3

> <STRUCTURE_InChIKey>
YREQHYQNNWYQCJ-UHFFFAOYSA-N

> <Substance_modify_yyyymmdd>
20080429

> <Coord_Metals>
0

> <Index>
680

> <Canonical_Smiles>
CCOc1ccc(cc1)C(C)(C)COCc2cccc(Oc3ccccc3)c2

> <Molecular_Weight>
376.48802

> <Frequency>
1

$$$$

  SciTegic          2D

 32 31  0  0  0  0            999 V2000
    6.5000    0.7500    0.0000 P   0  0
    6.5000    1.9500    0.0000 O   0  0
    5.2000    0.0000    0.0000 S   0  0
    7.7999    0.0000    0.0000 S   0  0
    5.1760    1.5169    0.0000 O   0  0
    5.1985   -1.5008    0.0000 C   0  0
    9.0999    0.7500    0.0000 C   0  0
    5.1773    3.0177    0.0000 C   0  0
    3.8985   -2.2508    0.0000 C   0  0
   10.3999    0.0000    0.0000 C   0  0
    3.8786    3.7700    0.0000 C   0  0
    3.8971   -3.7516    0.0000 C   0  0
   11.6999    0.7500    0.0000 C   0  0
    6.0642   -2.0014    0.0000 H   0  0
    6.0650   -1.0015    0.0000 H   0  0
    9.0999    1.7500    0.0000 H   0  0
    8.2340    1.2501    0.0000 H   0  0
    6.0428    2.5168    0.0000 H   0  0
    6.0439    3.5167    0.0000 H   0  0
    3.0328   -1.7503    0.0000 H   0  0
    3.0321   -2.7501    0.0000 H   0  0
   10.3999   -1.0000    0.0000 H   0  0
    9.5340   -0.5001    0.0000 H   0  0
    3.8794    4.7700    0.0000 H   0  0
    3.0131    4.2708    0.0000 H   0  0
    3.0120    3.2710    0.0000 H   0  0
    3.0309   -4.2514    0.0000 H   0  0
    4.7628   -4.2522    0.0000 H   0  0
    3.8966   -4.7516    0.0000 H   0  0
   12.5661    0.2503    0.0000 H   0  0
   11.6999    1.7500    0.0000 H   0  0
   12.5659    1.2501    0.0000 H   0  0
  1  2  2  0
  1  3  1  0
  1  4  1  0
  1  5  1  0
  3  6  1  0
  4  7  1  0
  5  8  1  0
  6  9  1  0
  7 10  1  0
  8 11  1  0
  9 12  1  0
 10 13  1  0
  6 14  1  0
  6 15  1  0
  7 16  1  0
  7 17  1  0
  8 18  1  0
  8 19  1  0
  9 20  1  0
  9 21  1  0
 10 22  1  0
 10 23  1  0
 11 24  1  0
 11 25  1  0
 11 26  1  0
 12 27  1  0
 12 28  1  0
 12 29  1  0
 13 30  1  0
 13 31  1  0
 13 32  1  0
V    1 0
V    2 1
V    3 2
V    4 3
V    5 4
V    6 5
V    7 6
V    8 7
V    9 8
V   10 9
V   11 10
V   12 11
V   13 12
M  END
> <DSSTox_RID>
65461

> <DSSTox_CID>
12611

> <DSSTox_CID_Parent>
12611

> <DSSTox_Generic_SID>
32611

> <DSSTox_FileID>
681_TXCST2_v1a

> <STRUCTURE_Formula>
C8H19O2PS2

> <STRUCTURE_MolecularWeight>
242.339

> <STRUCTURE_ChemicalType>
defined organic

> <STRUCTURE_TestedForm_DefinedOrganic>
parent

> <STRUCTURE_Shown>
tested chemical

> <TestSubstance_ChemicalName>
Ethoprophos

> <TestSubstance_CASRN>
13194-48-4

> <TestSubstance_Description>
single chemical compound

> <Source_ChemicalNote>
tested chemical contained 0.104% water (0.01 moles H2O)

> <STRUCTURE_ChemicalName_IUPAC>
O-ethyl S,S-dipropyl dithiophosphate

> <STRUCTURE_SMILES>
O=P(SCCC)(OCC)SCCC

> <STRUCTURE_Parent_SMILES>
O=P(SCCC)(OCC)SCCC

> <STRUCTURE_InChIS>
InChI=1S/C8H19O2PS2/c1-4-7-12-11(9,10-6-3)13-8-5-2/h4-8H2,1-3H3

> <STRUCTURE_InChIKey>
VJYFKVYYMZPMAB-UHFFFAOYSA-N

> <Substance_modify_yyyymmdd>
20080429

> <Coord_Metals>
0

> <Index>
681

> <Canonical_Smiles>
CCCSP(=O)(OCC)SCCC

> <Molecular_Weight>
242.33902

> <Frequency>
1

$$$$

  SciTegic          2D

 29 29  0  0  0  0            999 V2000
    3.6337   -3.6051    0.0000 S   0  0
    2.5951   -3.0039    0.0000 P   0  0
    2.5973   -1.5031    0.0000 O   0  0
    1.2990   -0.7500    0.0000 C   0  0
    1.2990    0.7500    0.0000 C   0  0
    0.0000    1.5000    0.0000 C   0  0
   -1.2990    0.7500    0.0000 C   0  0
   -1.2990   -0.7500    0.0000 C   0  0
    0.0000   -1.5000    0.0000 C   0  0
   -2.6003    1.4977    0.0000 N   0  0
   -3.6387    0.8962    0.0000 O   0  0
   -2.6024    2.6977    0.0000 O   0  0
    0.0000    3.0008    0.0000 C   0  0
    1.2948   -3.7533    0.0000 O   0  0
    1.2926   -5.2541    0.0000 C   0  0
    3.9220   -2.2423    0.0000 O   0  0
    5.2203   -2.9952    0.0000 C   0  0
    2.1651    1.2500    0.0000 H   0  0
   -2.1651   -1.2500    0.0000 H   0  0
    0.0000   -2.5000    0.0000 H   0  0
    0.8657    3.5014    0.0000 H   0  0
   -0.8662    3.5005    0.0000 H   0  0
   -0.0005    4.0008    0.0000 H   0  0
    0.4262   -5.7534    0.0000 H   0  0
    2.1581   -5.7551    0.0000 H   0  0
    1.2917   -6.2541    0.0000 H   0  0
    6.0876   -2.4974    0.0000 H   0  0
    5.2181   -3.9952    0.0000 H   0  0
    6.0852   -3.4972    0.0000 H   0  0
  1  2  2  0
  2  3  1  0
  2 14  1  0
  2 16  1  0
  3  4  1  0
  4  5  1  0
  4  9  2  0
  5  6  2  0
  6  7  1  0
  6 13  1  0
  7  8  2  0
  7 10  1  0
  8  9  1  0
 10 11  2  0
 10 12  2  0
 14 15  1  0
 16 17  1  0
  5 18  1  0
  8 19  1  0
  9 20  1  0
 13 21  1  0
 13 22  1  0
 13 23  1  0
 15 24  1  0
 15 25  1  0
 15 26  1  0
 17 27  1  0
 17 28  1  0
 17 29  1  0
V    1 0
V    2 1
V    3 2
V    4 3
V    5 4
V    6 5
V    7 6
V    8 7
V    9 8
V   10 9
V   11 10
V   12 11
V   13 12
V   14 13
V   15 14
V   16 15
V   17 16
M  END
> <DSSTox_RID>
62305

> <DSSTox_CID>
12613

> <DSSTox_CID_Parent>
12613

> <DSSTox_Generic_SID>
32613

> <DSSTox_FileID>
682_TXCST2_v1a

> <STRUCTURE_Formula>
C9H12NO5PS

> <STRUCTURE_MolecularWeight>
277.234

> <STRUCTURE_ChemicalType>
defined organic

> <STRUCTURE_TestedForm_DefinedOrganic>
parent

> <STRUCTURE_Shown>
tested chemical

> <TestSubstance_ChemicalName>
Fenitrothion

> <TestSubstance_CASRN>
122-14-5

> <TestSubstance_Description>
single chemical compound

> <STRUCTURE_ChemicalName_IUPAC>
O,O-dimethyl O-(3-methyl-4-nitrophenyl) thiophosphate

> <STRUCTURE_SMILES>
S=P(OC)(OC)OC1=CC=C([N+]([O-])=O)C(C)=C1

> <STRUCTURE_Parent_SMILES>
S=P(OC)(OC)OC1=CC=C([N+]([O-])=O)C(C)=C1

> <STRUCTURE_InChIS>
InChI=1S/C9H12NO5PS/c1-7-6-8(4-5-9(7)10(11)12)15-16(17,13-2)14-3/h4-6H,1-3H3

> <STRUCTURE_InChIKey>
ZNOLGFHPUIJIMJ-UHFFFAOYSA-N

> <Substance_modify_yyyymmdd>
20080429

> <Coord_Metals>
0

> <Index>
682

> <Canonical_Smiles>
COP(=S)(OC)Oc1ccc(c(C)c1)N(=O)=O

> <Molecular_Weight>
277.23404

> <Frequency>
1

$$$$

  SciTegic          2D

 31 33  0  0  0  0            999 V2000
    6.5354   -3.5745    0.0000 F   0  0
    7.1214   -2.5273    0.0000 C   0  0
    6.3539   -1.2384    0.0000 C   0  0
    7.0865    0.0706    0.0000 C   0  0
    8.5864    0.0907    0.0000 C   0  0
    9.3537   -1.1981    0.0000 C   0  0
    8.6212   -2.5071    0.0000 C   0  0
    6.4726    1.1017    0.0000 F   0  0
    4.8532   -1.2555    0.0000 N   0  0
    4.0872    0.0351    0.0000 S   0  0
    4.6750    1.0813    0.0000 O   0  0
    5.2871    0.0494    0.0000 O   0  0
    2.5889    0.0182    0.0000 C   0  0
    1.7138    1.2033    0.0000 N   0  0
    0.2917    0.7475    0.0000 N   0  0
   -1.0028    1.5132    0.0000 C   0  0
   -2.3155    0.7475    0.0000 C   0  0
   -2.3155   -0.7475    0.0000 C   0  0
   -1.0028   -1.5132    0.0000 N   0  0
    0.2917   -0.7475    0.0000 C   0  0
    1.7138   -1.2033    0.0000 N   0  0
   -3.6202   -1.4892    0.0000 C   0  0
    9.0747    0.9634    0.0000 H   0  0
   10.3536   -1.1847    0.0000 H   0  0
    9.1328   -3.3664    0.0000 H   0  0
    4.3634   -2.1273    0.0000 H   0  0
   -0.9997    2.5132    0.0000 H   0  0
   -3.1826    1.2456    0.0000 H   0  0
   -4.4831   -0.9839    0.0000 H   0  0
   -3.6266   -2.4892    0.0000 H   0  0
   -4.4893   -1.9837    0.0000 H   0  0
  1  2  1  0
  2  3  1  0
  2  7  2  0
  3  4  2  0
  3  9  1  0
  4  5  1  0
  4  8  1  0
  5  6  2  0
  6  7  1  0
  9 10  1  0
 10 11  2  0
 10 12  2  0
 10 13  1  0
 13 14  2  0
 13 21  1  0
 14 15  1  0
 15 16  1  0
 15 20  1  0
 16 17  2  0
 17 18  1  0
 18 19  2  0
 18 22  1  0
 19 20  1  0
 20 21  2  0
  5 23  1  0
  6 24  1  0
  7 25  1  0
  9 26  1  0
 16 27  1  0
 17 28  1  0
 22 29  1  0
 22 30  1  0
 22 31  1  0
V    1 0
V    2 1
V    3 2
V    4 3
V    5 4
V    6 5
V    7 6
V    8 7
V    9 8
V   10 9
V   11 10
V   12 11
V   13 12
V   14 13
V   15 14
V   16 15
V   17 16
V   18 17
V   19 18
V   20 19
V   21 20
V   22 21
M  END
> <DSSTox_RID>
61725

> <DSSTox_CID>
12615

> <DSSTox_CID_Parent>
12615

> <DSSTox_Generic_SID>
32615

> <DSSTox_FileID>
683_TXCST2_v1a

> <STRUCTURE_Formula>
C12H9F2N5O2S

> <STRUCTURE_MolecularWeight>
325.294

> <STRUCTURE_ChemicalType>
defined organic

> <STRUCTURE_TestedForm_DefinedOrganic>
parent

> <STRUCTURE_Shown>
tested chemical

> <TestSubstance_ChemicalName>
Flumetsulam

> <TestSubstance_CASRN>
98967-40-9

> <TestSubstance_Description>
single chemical compound

> <ChemicalNote>
tautomers

> <STRUCTURE_ChemicalName_IUPAC>
N-(2,6-difluorophenyl)-5-methyl[1,2,4]triazolo[1,5-a]pyrimidine-2-sulfonamide

> <STRUCTURE_SMILES>
FC1=CC=CC(F)=C1NS(=O)(C3=NN2C=CC(C)=NC2=N3)=O

> <STRUCTURE_Parent_SMILES>
FC1=CC=CC(F)=C1NS(=O)(C3=NN2C=CC(C)=NC2=N3)=O

> <STRUCTURE_InChIS>
InChI=1S/C12H9F2N5O2S/c1-7-5-6-19-11(15-7)16-12(17-19)22(20,21)18-10-8(13)3-2-4-9(10)14/h2-6,18H,1H3

> <STRUCTURE_InChIKey>
RXCPQSJAVKGONC-UHFFFAOYSA-N

> <Substance_modify_yyyymmdd>
20080429

> <Coord_Metals>
0

> <Index>
683

> <Canonical_Smiles>
Cc1ccn2nc(nc2n1)S(=O)(=O)Nc3c(F)cccc3F

> <Molecular_Weight>
325.29396

> <Frequency>
1

$$$$

  SciTegic          2D

 37 38  0  0  0  0            999 V2000
    2.3383   -1.3500    0.0000 Cl  0  0
    1.2990   -0.7500    0.0000 C   0  0
    1.2990    0.7500    0.0000 C   0  0
    0.0000    1.5000    0.0000 C   0  0
   -1.2990    0.7500    0.0000 C   0  0
   -1.2990   -0.7500    0.0000 C   0  0
    0.0000   -1.5000    0.0000 C   0  0
   -0.0031   -3.0008    0.0000 O   0  0
   -1.3039   -3.7494    0.0000 C   0  0
   -2.3421   -3.1476    0.0000 F   0  0
   -1.3020   -2.5494    0.0000 F   0  0
   -1.3070   -5.2502    0.0000 C   0  0
   -2.3471   -5.8487    0.0000 F   0  0
   -0.2688   -5.8520    0.0000 F   0  0
   -2.3383   -1.3500    0.0000 Cl  0  0
   -0.0031    3.0008    0.0000 N   0  0
   -1.3039    3.7494    0.0000 C   0  0
   -2.3421    3.1476    0.0000 O   0  0
   -1.3070    5.2502    0.0000 N   0  0
   -2.6078    5.9988    0.0000 C   0  0
   -3.6460    5.3969    0.0000 O   0  0
   -2.6109    7.4996    0.0000 C   0  0
   -3.9100    8.2496    0.0000 C   0  0
   -3.9100    9.7496    0.0000 C   0  0
   -2.6110   10.4997    0.0000 C   0  0
   -1.3119    9.7497    0.0000 C   0  0
   -1.3119    8.2497    0.0000 C   0  0
   -0.2726    7.6498    0.0000 F   0  0
   -4.9492    7.6496    0.0000 F   0  0
    2.1651    1.2500    0.0000 H   0  0
   -2.1651    1.2500    0.0000 H   0  0
   -1.3086   -6.2502    0.0000 H   0  0
    0.8620    3.5023    0.0000 H   0  0
   -0.4419    5.7517    0.0000 H   0  0
   -4.7761   10.2496    0.0000 H   0  0
   -2.6110   11.4997    0.0000 H   0  0
   -0.4459   10.2497    0.0000 H   0  0
  1  2  1  0
  2  3  2  0
  2  7  1  0
  3  4  1  0
  4  5  2  0
  4 16  1  0
  5  6  1  0
  6  7  2  0
  6 15  1  0
  7  8  1  0
  8  9  1  0
  9 10  1  0
  9 11  1  0
  9 12  1  0
 12 13  1  0
 12 14  1  0
 16 17  1  0
 17 18  2  0
 17 19  1  0
 19 20  1  0
 20 21  2  0
 20 22  1  0
 22 23  2  0
 22 27  1  0
 23 24  1  0
 23 29  1  0
 24 25  2  0
 25 26  1  0
 26 27  2  0
 27 28  1  0
  3 30  1  0
  5 31  1  0
 12 32  1  0
 16 33  1  0
 19 34  1  0
 24 35  1  0
 25 36  1  0
 26 37  1  0
V    1 0
V    2 1
V    3 2
V    4 3
V    5 4
V    6 5
V    7 6
V    8 7
V    9 8
V   10 9
V   11 10
V   12 11
V   13 12
V   14 13
V   15 14
V   16 15
V   17 16
V   18 17
V   19 18
V   20 19
V   21 20
V   22 21
V   23 22
V   24 23
V   25 24
V   26 25
V   27 26
V   28 27
V   29 28
M  END
> <DSSTox_RID>
65324

> <DSSTox_CID>
12620

> <DSSTox_CID_Parent>
12620

> <DSSTox_Generic_SID>
32620

> <DSSTox_FileID>
684_TXCST2_v1a

> <STRUCTURE_Formula>
C16H8Cl2F6N2O3

> <STRUCTURE_MolecularWeight>
461.1427

> <STRUCTURE_ChemicalType>
defined organic

> <STRUCTURE_TestedForm_DefinedOrganic>
parent

> <STRUCTURE_Shown>
tested chemical

> <TestSubstance_ChemicalName>
Hexaflumuron

> <TestSubstance_CASRN>
86479-06-3

> <TestSubstance_Description>
single chemical compound

> <STRUCTURE_ChemicalName_IUPAC>
N-{[3,5-dichloro-4-(1,1,2,2-tetrafluoroethoxy)phenyl]carbamoyl}-2,6-difluorobenzamide

> <STRUCTURE_SMILES>
ClC1=C(OC(F)(C(F)F)F)C(Cl)=CC(NC(NC(C2=C(F)C=CC=C2F)=O)=O)=C1

> <STRUCTURE_Parent_SMILES>
ClC1=C(OC(F)(C(F)F)F)C(Cl)=CC(NC(NC(C2=C(F)C=CC=C2F)=O)=O)=C1

> <STRUCTURE_InChIS>
InChI=1S/C16H8Cl2F6N2O3/c17-7-4-6(5-8(18)12(7)29-16(23,24)14(21)22)25-15(28)26-13(27)11-9(19)2-1-3-10(11)20/h1-5,14H,(H2,25,26,27,28)

> <STRUCTURE_InChIKey>
RGNPBRKPHBKNKX-UHFFFAOYSA-N

> <Substance_modify_yyyymmdd>
20080429

> <Coord_Metals>
0

> <Index>
684

> <Canonical_Smiles>
FC(F)C(F)(F)Oc1c(Cl)cc(NC(=O)NC(=O)c2c(F)cccc2F)cc1Cl

> <Molecular_Weight>
461.14273

> <Frequency>
1

$$$$

  SciTegic          2D

 55 56  0  0  0  0            999 V2000
    0.8383   -5.6922    0.0000 C   0  0
    0.4252   -6.8188    0.0000 O   0  0
   -0.1240   -4.5405    0.0000 C   0  0
   -1.6023   -4.7949    0.0000 C   0  0
    0.3948   -3.1331    0.0000 C   0  0
   -2.5617   -3.6418    0.0000 C   0  0
   -0.5646   -1.9800    0.0000 C   0  0
   -2.0429   -2.2344    0.0000 C   0  0
   -4.0414   -3.8933    0.0000 O   0  0
   -4.9997   -2.7383    0.0000 C   0  0
   -2.1214   -6.2031    0.0000 C   0  0
    2.3170   -5.4355    0.0000 N   0  0
    3.2794   -6.5872    0.0000 N   0  0
    4.5812   -5.8403    0.0000 C   0  0
    5.6186   -6.4434    0.0000 O   0  0
    4.5861   -4.3395    0.0000 C   0  0
    3.6282   -3.1852    0.0000 C   0  0
    6.0648   -4.0869    0.0000 C   0  0
    4.1488   -1.7784    0.0000 C   0  0
    6.5854   -2.6801    0.0000 C   0  0
    5.6274   -1.5259    0.0000 C   0  0
    3.1902   -0.6236    0.0000 C   0  0
    8.0648   -2.4274    0.0000 C   0  0
    3.7893   -7.9987    0.0000 C   0  0
    3.4397   -9.5073    0.0000 C   0  0
    2.5561   -7.0620    0.0000 C   0  0
    5.2672   -8.2626    0.0000 C   0  0
    1.3803   -2.9635    0.0000 H   0  0
   -0.2188   -1.0418    0.0000 H   0  0
   -2.6825   -1.4657    0.0000 H   0  0
   -5.9855   -2.9059    0.0000 H   0  0
   -4.6522   -1.8006    0.0000 H   0  0
   -5.6378   -1.9684    0.0000 H   0  0
   -1.4823   -6.9722    0.0000 H   0  0
   -3.1070   -6.3723    0.0000 H   0  0
   -2.4678   -7.1412    0.0000 H   0  0
    2.6613   -4.4967    0.0000 H   0  0
    2.6425   -3.3535    0.0000 H   0  0
    6.7035   -4.8563    0.0000 H   0  0
    5.9744   -0.5880    0.0000 H   0  0
    2.2044   -0.7913    0.0000 H   0  0
    3.5376    0.3142    0.0000 H   0  0
    2.5519    0.1462    0.0000 H   0  0
    8.7039   -3.1965    0.0000 H   0  0
    8.4115   -1.4894    0.0000 H   0  0
    9.0504   -2.2586    0.0000 H   0  0
    4.2041  -10.1521    0.0000 H   0  0
    3.2510  -10.4893    0.0000 H   0  0
    2.4908   -9.8229    0.0000 H   0  0
    2.7317   -6.0776    0.0000 H   0  0
    1.7833   -6.4274    0.0000 H   0  0
    1.6246   -7.4258    0.0000 H   0  0
    5.6077   -9.2029    0.0000 H   0  0
    5.9114   -7.4978    0.0000 H   0  0
    6.2517   -8.4380    0.0000 H   0  0
  1  2  2  0
  1  3  1  0
  1 12  1  0
  3  4  2  0
  3  5  1  0
  4  6  1  0
  4 11  1  0
  5  7  2  0
  6  8  2  0
  6  9  1  0
  7  8  1  0
  9 10  1  0
 12 13  1  0
 13 14  1  0
 13 24  1  0
 14 15  2  0
 14 16  1  0
 16 17  2  0
 16 18  1  0
 17 19  1  0
 18 20  2  0
 19 21  2  0
 19 22  1  0
 20 21  1  0
 20 23  1  0
 24 25  1  0
 24 26  1  0
 24 27  1  0
  5 28  1  0
  7 29  1  0
  8 30  1  0
 10 31  1  0
 10 32  1  0
 10 33  1  0
 11 34  1  0
 11 35  1  0
 11 36  1  0
 12 37  1  0
 17 38  1  0
 18 39  1  0
 21 40  1  0
 22 41  1  0
 22 42  1  0
 22 43  1  0
 23 44  1  0
 23 45  1  0
 23 46  1  0
 25 47  1  0
 25 48  1  0
 25 49  1  0
 26 50  1  0
 26 51  1  0
 26 52  1  0
 27 53  1  0
 27 54  1  0
 27 55  1  0
V    1 0
V    2 1
V    3 2
V    4 3
V    5 4
V    6 5
V    7 6
V    8 7
V    9 8
V   10 9
V   11 10
V   12 11
V   13 12
V   14 13
V   15 14
V   16 15
V   17 16
V   18 17
V   19 18
V   20 19
V   21 20
V   22 21
V   23 22
V   24 23
V   25 24
V   26 25
V   27 26
M  END
> <DSSTox_RID>
65462

> <DSSTox_CID>
12628

> <DSSTox_CID_Parent>
12628

> <DSSTox_Generic_SID>
32628

> <DSSTox_FileID>
685_TXCST2_v1a

> <STRUCTURE_Formula>
C22H28N2O3

> <STRUCTURE_MolecularWeight>
368.4693

> <STRUCTURE_ChemicalType>
defined organic

> <STRUCTURE_TestedForm_DefinedOrganic>
parent

> <STRUCTURE_Shown>
tested chemical

> <TestSubstance_ChemicalName>
Methoxyfenozide

> <TestSubstance_CASRN>
161050-58-4

> <TestSubstance_Description>
single chemical compound

> <STRUCTURE_ChemicalName_IUPAC>
N'-tert-butyl-N'-(3,5-dimethylbenzoyl)-3-methoxy-2-methylbenzohydrazide

> <STRUCTURE_SMILES>
O=C(NN(C(C)(C)C)C(C2=CC(C)=CC(C)=C2)=O)C1=C(C)C(OC)=CC=C1

> <STRUCTURE_Parent_SMILES>
O=C(NN(C(C)(C)C)C(C2=CC(C)=CC(C)=C2)=O)C1=C(C)C(OC)=CC=C1

> <STRUCTURE_InChIS>
InChI=1S/C22H28N2O3/c1-14-11-15(2)13-17(12-14)21(26)24(22(4,5)6)23-20(25)18-9-8-10-19(27-7)16(18)3/h8-13H,1-7H3,(H,23,25)

> <STRUCTURE_InChIKey>
QCAWEPFNJXQPAN-UHFFFAOYSA-N

> <Substance_modify_yyyymmdd>
20080429

> <Coord_Metals>
0

> <Index>
685

> <Canonical_Smiles>
COc1cccc(C(=O)NN(C(=O)c2cc(C)cc(C)c2)C(C)(C)C)c1C

> <Molecular_Weight>
368.46932

> <Frequency>
1

$$$$

  SciTegic          2D

 27 28  0  0  0  0            999 V2000
    2.3383   -1.3500    0.0000 O   0  0
    1.2990   -0.7500    0.0000 C   0  0
    1.2990    0.7500    0.0000 N   0  0
    0.0000    1.5000    0.0000 N   0  0
   -1.2990    0.7500    0.0000 C   0  0
   -2.5988    1.5004    0.0000 C   0  0
   -1.2990   -0.7500    0.0000 C   0  0
    0.0000   -1.5000    0.0000 N   0  0
    0.0031   -3.0008    0.0000 N   0  0
    1.3039   -3.7494    0.0000 C   0  0
    1.3070   -5.2502    0.0000 C   0  0
    2.6060   -6.0003    0.0000 C   0  0
    2.6061   -7.5003    0.0000 N   0  0
    1.3071   -8.2503    0.0000 C   0  0
    0.0080   -7.5003    0.0000 C   0  0
    0.0080   -6.0003    0.0000 C   0  0
    2.1651    1.2500    0.0000 H   0  0
   -2.5994    2.5004    0.0000 H   0  0
   -3.4647    1.0001    0.0000 H   0  0
   -3.4651    2.0000    0.0000 H   0  0
   -2.1530   -0.2297    0.0000 H   0  0
   -1.2755   -1.7497    0.0000 H   0  0
    2.1691   -3.2479    0.0000 H   0  0
    3.4721   -5.5003    0.0000 H   0  0
    1.3071   -9.2503    0.0000 H   0  0
   -0.8580   -8.0004    0.0000 H   0  0
   -0.8581   -5.5004    0.0000 H   0  0
  1  2  2  0
  2  3  1  0
  2  8  1  0
  3  4  1  0
  4  5  2  0
  5  6  1  0
  5  7  1  0
  7  8  1  0
  9  8  1  0
  9 10  2  0
 10 11  1  0
 11 12  1  0
 11 16  2  0
 12 13  2  0
 13 14  1  0
 14 15  2  0
 15 16  1  0
  3 17  1  0
  6 18  1  0
  6 19  1  0
  6 20  1  0
  7 21  1  0
  7 22  1  0
 10 23  1  0
 12 24  1  0
 14 25  1  0
 15 26  1  0
 16 27  1  0
V    1 0
V    2 1
V    3 2
V    4 3
V    5 4
V    6 5
V    7 6
V    8 7
V    9 8
V   10 9
V   11 10
V   12 11
V   13 12
V   14 13
V   15 14
V   16 15
M  END
> <DSSTox_RID>
62395

> <DSSTox_CID>
12637

> <DSSTox_CID_Parent>
12637

> <DSSTox_Generic_SID>
32637

> <DSSTox_FileID>
686_TXCST2_v1a

> <STRUCTURE_Formula>
C10H11N5O

> <STRUCTURE_MolecularWeight>
217.2272

> <STRUCTURE_ChemicalType>
defined organic

> <STRUCTURE_TestedForm_DefinedOrganic>
parent

> <STRUCTURE_Shown>
tested chemical

> <TestSubstance_ChemicalName>
Pymetrozine

> <TestSubstance_CASRN>
123312-89-0

> <TestSubstance_Description>
single chemical compound

> <ChemicalNote>
stereochem

> <STRUCTURE_ChemicalName_IUPAC>
6-methyl-4-{[(1E)-pyridin-3-ylmethylene]amino}-4,5-dihydro-1,2,4-triazin-3(2H)-one

> <STRUCTURE_SMILES>
O=C1NN=C(CN1/N=C/C2=CC=CN=C2)C

> <STRUCTURE_Parent_SMILES>
O=C1NN=C(CN1/N=C/C2=CC=CN=C2)C

> <STRUCTURE_InChIS>
InChI=1S/C10H11N5O/c1-8-7-15(10(16)14-13-8)12-6-9-3-2-4-11-5-9/h2-6H,7H2,1H3,(H,14,16)/b12-6+

> <STRUCTURE_InChIKey>
QHMTXANCGGJZRX-WUXMJOGZSA-N

> <Substance_modify_yyyymmdd>
20080429

> <Coord_Metals>
0

> <Index>
686

> <Canonical_Smiles>
CC1=NNC(=O)N(C1)N=Cc2cccnc2

> <Molecular_Weight>
217.22723

> <Frequency>
1

$$$$

  SciTegic          2D

 45 47  0  0  0  0            999 V2000
    3.8958   -3.7556    0.0000 C   0  0
    2.5968   -3.0039    0.0000 O   0  0
    2.5973   -1.5031    0.0000 N   0  0
    1.2990   -0.7500    0.0000 C   0  0
    1.2990    0.7500    0.0000 C   0  0
    0.0000    1.5000    0.0000 C   0  0
   -1.2990    0.7500    0.0000 C   0  0
   -1.2990   -0.7500    0.0000 C   0  0
    0.0000   -1.5000    0.0000 C   0  0
    0.0000   -3.0008    0.0000 C   0  0
    1.2993   -3.7521    0.0000 O   0  0
    1.2993   -5.2529    0.0000 C   0  0
    0.0840   -6.1102    0.0000 N   0  0
    0.5446   -7.5378    0.0000 N   0  0
    2.0446   -7.5408    0.0000 C   0  0
    2.5110   -6.1152    0.0000 C   0  0
   -0.3400   -8.7501    0.0000 C   0  0
   -1.8343   -8.7022    0.0000 C   0  0
   -2.6248   -9.9770    0.0000 C   0  0
   -1.9160  -11.2990    0.0000 C   0  0
   -0.4167  -11.3461    0.0000 C   0  0
    0.3738  -10.0713    0.0000 C   0  0
   -2.5484  -12.3188    0.0000 Cl  0  0
    3.8990   -0.7562    0.0000 C   0  0
    3.9019    0.4438    0.0000 O   0  0
    5.1972   -1.5092    0.0000 O   0  0
    6.4990   -0.7623    0.0000 C   0  0
    3.8955   -4.7556    0.0000 H   0  0
    4.7622   -3.2561    0.0000 H   0  0
    4.7616   -4.2560    0.0000 H   0  0
    2.1651    1.2500    0.0000 H   0  0
    0.0000    2.5000    0.0000 H   0  0
   -2.1651    1.2500    0.0000 H   0  0
   -2.1651   -1.2500    0.0000 H   0  0
   -0.8662   -3.5006    0.0000 H   0  0
   -0.0005   -4.0008    0.0000 H   0  0
    2.6307   -8.3510    0.0000 H   0  0
    3.4609   -5.8025    0.0000 H   0  0
   -2.3065   -7.8207    0.0000 H   0  0
   -3.6243   -9.9455    0.0000 H   0  0
    0.0558  -12.2275    0.0000 H   0  0
    1.3733  -10.1012    0.0000 H   0  0
    7.3640   -1.2641    0.0000 H   0  0
    6.5014    0.2377    0.0000 H   0  0
    7.3661   -0.2642    0.0000 H   0  0
  1  2  1  0
  2  3  1  0
  3  4  1  0
  3 24  1  0
  4  5  1  0
  4  9  2  0
  5  6  2  0
  6  7  1  0
  7  8  2  0
  8  9  1  0
  9 10  1  0
 10 11  1  0
 11 12  1  0
 12 13  2  0
 12 16  1  0
 13 14  1  0
 14 15  1  0
 14 17  1  0
 15 16  2  0
 17 18  1  0
 17 22  2  0
 18 19  2  0
 19 20  1  0
 20 21  2  0
 20 23  1  0
 21 22  1  0
 24 25  2  0
 24 26  1  0
 26 27  1  0
  1 28  1  0
  1 29  1  0
  1 30  1  0
  5 31  1  0
  6 32  1  0
  7 33  1  0
  8 34  1  0
 10 35  1  0
 10 36  1  0
 15 37  1  0
 16 38  1  0
 18 39  1  0
 19 40  1  0
 21 41  1  0
 22 42  1  0
 27 43  1  0
 27 44  1  0
 27 45  1  0
V    1 0
V    2 1
V    3 2
V    4 3
V    5 4
V    6 5
V    7 6
V    8 7
V    9 8
V   10 9
V   11 10
V   12 11
V   13 12
V   14 13
V   15 14
V   16 15
V   17 16
V   18 17
V   19 18
V   20 19
V   21 20
V   22 21
V   23 22
V   24 23
V   25 24
V   26 25
V   27 26
M  END
> <DSSTox_RID>
65463

> <DSSTox_CID>
12638

> <DSSTox_CID_Parent>
12638

> <DSSTox_Generic_SID>
32638

> <DSSTox_FileID>
687_TXCST2_v1a

> <STRUCTURE_Formula>
C19H18ClN3O4

> <STRUCTURE_MolecularWeight>
387.8169

> <STRUCTURE_ChemicalType>
defined organic

> <STRUCTURE_TestedForm_DefinedOrganic>
parent

> <STRUCTURE_Shown>
tested chemical

> <TestSubstance_ChemicalName>
Pyraclostrobin

> <TestSubstance_CASRN>
175013-18-0

> <TestSubstance_Description>
single chemical compound

> <Source_ChemicalNote>
tested chemical contained 0.0272% water (0.01 moles H2O)

> <STRUCTURE_ChemicalName_IUPAC>
methyl [2-({[1-(4-chlorophenyl)-1H-pyrazol-3-yl]oxy}methyl)phenyl]methoxycarbamate

> <STRUCTURE_SMILES>
ClC3=CC=C(C=C3)N(C=C2)N=C2OCC1=C(C=CC=C1)N(C(OC)=O)OC

> <STRUCTURE_Parent_SMILES>
ClC3=CC=C(C=C3)N(C=C2)N=C2OCC1=C(C=CC=C1)N(C(OC)=O)OC

> <STRUCTURE_InChIS>
InChI=1S/C19H18ClN3O4/c1-25-19(24)23(26-2)17-6-4-3-5-14(17)13-27-18-11-12-22(21-18)16-9-7-15(20)8-10-16/h3-12H,13H2,1-2H3

> <STRUCTURE_InChIKey>
HZRSNVGNWUDEFX-UHFFFAOYSA-N

> <Substance_modify_yyyymmdd>
20080429

> <Coord_Metals>
0

> <Index>
687

> <Canonical_Smiles>
CON(C(=O)OC)c1ccccc1COc2ccn(n2)c3ccc(Cl)cc3

> <Molecular_Weight>
387.81692

> <Frequency>
1

$$$$

  SciTegic          2D

 43 45  0  0  0  0            999 V2000
    1.2990   -0.7500    0.0000 C   0  0
    2.5973   -1.5031    0.0000 O   0  0
    1.2990    0.7500    0.0000 C   0  0
    0.0000   -1.5000    0.0000 C   0  0
    2.5951   -3.0039    0.0000 C   0  0
    0.0000    1.5000    0.0000 C   0  0
   -1.2990   -0.7500    0.0000 C   0  0
    3.8915   -3.7585    0.0000 C   0  0
    1.2935   -3.7495    0.0000 C   0  0
   -1.2990    0.7500    0.0000 C   0  0
    3.8864   -5.2585    0.0000 C   0  0
    1.2883   -5.2495    0.0000 C   0  0
   -2.6003    1.4977    0.0000 O   0  0
    2.5847   -6.0040    0.0000 C   0  0
   -3.8990    0.7455    0.0000 C   0  0
   -5.2003    1.4932    0.0000 C   0  0
   -6.4990    0.7409    0.0000 O   0  0
   -5.2029    2.9939    0.0000 C   0  0
   -7.8003    1.4887    0.0000 C   0  0
   -9.0994    0.7387    0.0000 C   0  0
   -7.8004    2.9887    0.0000 N   0  0
  -10.3984    1.4886    0.0000 C   0  0
   -9.0995    3.7387    0.0000 C   0  0
  -10.3985    2.9886    0.0000 C   0  0
    2.1651    1.2500    0.0000 H   0  0
    0.0000   -2.5000    0.0000 H   0  0
    0.0000    2.5000    0.0000 H   0  0
   -2.1651   -1.2500    0.0000 H   0  0
    4.7593   -3.2615    0.0000 H   0  0
    0.4292   -3.2465    0.0000 H   0  0
    4.7506   -5.7615    0.0000 H   0  0
    0.4205   -5.7465    0.0000 H   0  0
    2.5813   -7.0040    0.0000 H   0  0
   -3.0322    0.2468    0.0000 H   0  0
   -3.8973   -0.2545    0.0000 H   0  0
   -5.1986    0.4932    0.0000 H   0  0
   -6.0695    3.4930    0.0000 H   0  0
   -4.3376    3.4952    0.0000 H   0  0
   -5.2042    3.9939    0.0000 H   0  0
   -9.0994   -0.2613    0.0000 H   0  0
  -11.2645    0.9886    0.0000 H   0  0
   -9.0995    4.7387    0.0000 H   0  0
  -11.2645    3.4886    0.0000 H   0  0
  1  2  1  0
  1  3  1  0
  1  4  2  0
  2  5  1  0
  3  6  2  0
  4  7  1  0
  5  8  2  0
  5  9  1  0
  6 10  1  0
  7 10  2  0
  8 11  1  0
  9 12  2  0
 10 13  1  0
 11 14  2  0
 12 14  1  0
 13 15  1  0
 15 16  1  0
 16 17  1  0
 16 18  1  0
 17 19  1  0
 19 20  1  0
 19 21  2  0
 20 22  2  0
 21 23  1  0
 22 24  1  0
 23 24  2  0
  3 25  1  0
  4 26  1  0
  6 27  1  0
  7 28  1  0
  8 29  1  0
  9 30  1  0
 11 31  1  0
 12 32  1  0
 14 33  1  0
 15 34  1  0
 15 35  1  0
 16 36  1  0
 18 37  1  0
 18 38  1  0
 18 39  1  0
 20 40  1  0
 22 41  1  0
 23 42  1  0
 24 43  1  0
V    1 0
V    2 1
V    3 2
V    4 3
V    5 4
V    6 5
V    7 6
V    8 7
V    9 8
V   10 9
V   11 10
V   12 11
V   13 12
V   14 13
V   15 14
V   16 15
V   17 16
V   18 17
V   19 18
V   20 19
V   21 20
V   22 21
V   23 22
V   24 23
M  END
> <DSSTox_RID>
62341

> <DSSTox_CID>
12640

> <DSSTox_CID_Parent>
12640

> <DSSTox_Generic_SID>
32640

> <DSSTox_FileID>
688_TXCST2_v1a

> <STRUCTURE_Formula>
C20H19NO3

> <STRUCTURE_MolecularWeight>
321.3698

> <STRUCTURE_ChemicalType>
defined organic

> <STRUCTURE_TestedForm_DefinedOrganic>
parent

> <STRUCTURE_Shown>
tested chemical

> <TestSubstance_ChemicalName>
Pyriproxifen

> <TestSubstance_CASRN>
95737-68-1

> <TestSubstance_Description>
single chemical compound

> <Source_ChemicalNote>
tested chemical contained 0.055% water (0.01 moles H2O)

> <STRUCTURE_ChemicalName_IUPAC>
2-[1-methyl-2-(4-phenoxyphenoxy)ethoxy]pyridine

> <STRUCTURE_SMILES>
CC(OC3=NC=CC=C3)COC2=CC=C(C=C2)OC1=CC=CC=C1

> <STRUCTURE_Parent_SMILES>
CC(OC3=NC=CC=C3)COC2=CC=C(C=C2)OC1=CC=CC=C1

> <STRUCTURE_InChIS>
InChI=1S/C20H19NO3/c1-16(23-20-9-5-6-14-21-20)15-22-17-10-12-19(13-11-17)24-18-7-3-2-4-8-18/h2-14,16H,15H2,1H3

> <STRUCTURE_InChIKey>
NHDHVHZZCFYRSB-UHFFFAOYSA-N

> <Substance_modify_yyyymmdd>
20080429

> <Coord_Metals>
0

> <Index>
688

> <Canonical_Smiles>
CC(COc1ccc(Oc2ccccc2)cc1)Oc3ccccn3

> <Molecular_Weight>
321.36976

> <Frequency>
1

$$$$

  SciTegic          2D

 20 21  0  0  0  0            999 V2000
   -3.6486    1.3517    0.0000 Cl  0  0
   -2.6111    0.7486    0.0000 C   0  0
   -1.2964    1.4973    0.0000 C   0  0
    0.0000    0.7486    0.0000 C   0  0
    0.0000   -0.7486    0.0000 C   0  0
   -1.2964   -1.4973    0.0000 C   0  0
   -2.6111   -0.7486    0.0000 C   0  0
    1.2964   -1.4973    0.0000 C   0  0
    2.5929   -0.7486    0.0000 C   0  0
    2.5929    0.7486    0.0000 C   0  0
    1.2964    1.4973    0.0000 N   0  0
    3.6321   -1.3486    0.0000 Cl  0  0
   -1.2907    2.9981    0.0000 C   0  0
   -0.2489    3.5938    0.0000 O   0  0
   -2.5870    3.7544    0.0000 O   0  0
   -1.2934   -2.4973    0.0000 H   0  0
   -3.4756   -1.2512    0.0000 H   0  0
    1.2964   -2.4973    0.0000 H   0  0
    3.4589    1.2486    0.0000 H   0  0
   -2.5831    4.7544    0.0000 H   0  0
  1  2  1  0
  2  3  2  0
  2  7  1  0
  3  4  1  0
  3 13  1  0
  4  5  1  0
  4 11  2  0
  5  6  1  0
  5  8  2  0
  6  7  2  0
  8  9  1  0
  9 10  2  0
  9 12  1  0
 10 11  1  0
 13 14  2  0
 13 15  1  0
  6 16  1  0
  7 17  1  0
  8 18  1  0
 10 19  1  0
 15 20  1  0
V    1 0
V    2 1
V    3 2
V    4 3
V    5 4
V    6 5
V    7 6
V    8 7
V    9 8
V   10 9
V   11 10
V   12 11
V   13 12
V   14 13
V   15 14
M  END
> <DSSTox_RID>
65313

> <DSSTox_CID>
12641

> <DSSTox_CID_Parent>
12641

> <DSSTox_Generic_SID>
32641

> <DSSTox_FileID>
689_TXCST2_v1a

> <STRUCTURE_Formula>
C10H5Cl2NO2

> <STRUCTURE_MolecularWeight>
242.0582

> <STRUCTURE_ChemicalType>
defined organic

> <STRUCTURE_TestedForm_DefinedOrganic>
parent

> <STRUCTURE_Shown>
tested chemical

> <TestSubstance_ChemicalName>
Quinclorac

> <TestSubstance_CASRN>
84087-01-4

> <TestSubstance_Description>
single chemical compound

> <Source_ChemicalNote>
tested chemical contained 0.024% water

> <STRUCTURE_ChemicalName_IUPAC>
3,7-dichloroquinoline-8-carboxylic acid

> <STRUCTURE_SMILES>
ClC2=C(C(O)=O)C1=NC=C(Cl)C=C1C=C2

> <STRUCTURE_Parent_SMILES>
ClC2=C(C(O)=O)C1=NC=C(Cl)C=C1C=C2

> <STRUCTURE_InChIS>
InChI=1S/C10H5Cl2NO2/c11-6-3-5-1-2-7(12)8(10(14)15)9(5)13-4-6/h1-4H,(H,14,15)

> <STRUCTURE_InChIKey>
FFSSWMQPCJRCRV-UHFFFAOYSA-N

> <Substance_modify_yyyymmdd>
20080429

> <Coord_Metals>
0

> <Index>
689

> <Canonical_Smiles>
OC(=O)c1c(Cl)ccc2cc(Cl)cnc12

> <Molecular_Weight>
242.05819

> <Frequency>
1

$$$$

  SciTegic          2D

 33 34  0  0  0  0            999 V2000
    3.8933   -3.7570    0.0000 C   0  0
    2.5951   -3.0039    0.0000 S   0  0
    1.5548   -3.6021    0.0000 O   0  0
    1.5568   -2.4023    0.0000 O   0  0
    2.5973   -1.5031    0.0000 N   0  0
    1.2990   -0.7500    0.0000 C   0  0
    1.2990    0.7500    0.0000 C   0  0
    0.0000   -1.5000    0.0000 C   0  0
    0.0000    1.5000    0.0000 C   0  0
   -1.2990   -0.7500    0.0000 C   0  0
   -1.2990    0.7500    0.0000 C   0  0
    2.3383    1.3500    0.0000 Cl  0  0
   -2.3383    1.3500    0.0000 Cl  0  0
   -2.5987   -1.5004    0.0000 N   0  0
   -2.7343   -2.9815    0.0000 N   0  0
   -4.2010   -3.2957    0.0000 C   0  0
   -4.9530   -1.9978    0.0000 N   0  0
   -3.9511   -0.8815    0.0000 C   0  0
   -6.4433   -1.8436    0.0000 C   0  0
   -7.1477   -2.8151    0.0000 F   0  0
   -6.9328   -0.7479    0.0000 F   0  0
   -4.8082   -4.6653    0.0000 C   0  0
   -4.1955    0.2933    0.0000 O   0  0
    3.8919   -4.7570    0.0000 H   0  0
    4.7602   -3.2585    0.0000 H   0  0
    4.7586   -4.2584    0.0000 H   0  0
    3.4642   -1.0046    0.0000 H   0  0
    0.0000   -2.5000    0.0000 H   0  0
    0.0000    2.5000    0.0000 H   0  0
   -7.4380   -1.7402    0.0000 H   0  0
   -4.2196   -5.4738    0.0000 H   0  0
   -5.8026   -4.7711    0.0000 H   0  0
   -5.2139   -5.5793    0.0000 H   0  0
  1  2  1  0
  2  3  2  0
  2  5  1  0
  2  4  2  0
  5  6  1  0
  6  7  2  0
  6  8  1  0
  7  9  1  0
  7 12  1  0
  8 10  2  0
  9 11  2  0
 10 11  1  0
 10 14  1  0
 11 13  1  0
 14 15  1  0
 14 18  1  0
 15 16  2  0
 16 17  1  0
 16 22  1  0
 17 18  1  0
 17 19  1  0
 18 23  2  0
 19 20  1  0
 19 21  1  0
  1 24  1  0
  1 25  1  0
  1 26  1  0
  5 27  1  0
  8 28  1  0
  9 29  1  0
 19 30  1  0
 22 31  1  0
 22 32  1  0
 22 33  1  0
V    1 0
V    2 1
V    3 2
V    4 3
V    5 4
V    6 5
V    7 6
V    8 7
V    9 8
V   10 9
V   11 10
V   12 11
V   13 12
V   14 13
V   15 14
V   16 15
V   17 16
V   18 17
V   19 18
V   20 19
V   21 20
V   22 21
V   23 22
M  END
> <DSSTox_RID>
61700

> <DSSTox_CID>
12645

> <DSSTox_CID_Parent>
12645

> <DSSTox_Generic_SID>
32645

> <DSSTox_FileID>
690_TXCST2_v1a

> <STRUCTURE_Formula>
C11H10Cl2F2N4O3S

> <STRUCTURE_MolecularWeight>
387.1899

> <STRUCTURE_ChemicalType>
defined organic

> <STRUCTURE_TestedForm_DefinedOrganic>
parent

> <STRUCTURE_Shown>
tested chemical

> <TestSubstance_ChemicalName>
Sulfentrazone

> <TestSubstance_CASRN>
122836-35-5

> <TestSubstance_Description>
single chemical compound

> <STRUCTURE_ChemicalName_IUPAC>
N-{2,4-dichloro-5-[4-(difluoromethyl)-3-methyl-5-oxo-4,5-dihydro-1H-1,2,4-triazol-1-yl]phenyl}methanesulfonamide

> <STRUCTURE_SMILES>
O=S(NC1=C(Cl)C=C(Cl)C(N2N=C(C)N(C(F)F)C2=O)=C1)(C)=O

> <STRUCTURE_Parent_SMILES>
O=S(NC1=C(Cl)C=C(Cl)C(N2N=C(C)N(C(F)F)C2=O)=C1)(C)=O

> <STRUCTURE_InChIS>
InChI=1S/C11H10Cl2F2N4O3S/c1-5-16-19(11(20)18(5)10(14)15)9-4-8(17-23(2,21)22)6(12)3-7(9)13/h3-4,10,17H,1-2H3

> <STRUCTURE_InChIKey>
OORLZFUTLGXMEF-UHFFFAOYSA-N

> <Substance_modify_yyyymmdd>
20080429

> <Coord_Metals>
0

> <Index>
690

> <Canonical_Smiles>
CC1=NN(C(=O)N1C(F)F)c2cc(NS(=O)(=O)C)c(Cl)cc2Cl

> <Molecular_Weight>
387.1899

> <Frequency>
1

$$$$

  SciTegic          2D

 37 36  0  0  0  0            999 V2000
   10.3999    0.0000    0.0000 C   0  0
    9.0999    0.7500    0.0000 C   0  0
    7.7999    0.0000    0.0000 C   0  0
    6.5000    0.7500    0.0000 C   0  0
    5.2000    0.0000    0.0000 C   0  0
    3.9000    0.7500    0.0000 C   0  0
    2.6000    0.0000    0.0000 C   0  0
    1.3000    0.7500    0.0000 C   0  0
   11.6999    0.7500    0.0000 S   0  0
   11.6999    1.9500    0.0000 O   0  0
   12.7390    1.3502    0.0000 O   0  0
   12.9999    0.0000    0.0000 N   0  0
   14.2999    0.7500    0.0000 C   0  0
   15.5999    0.0000    0.0000 C   0  0
   10.3999   -1.2000    0.0000 F   0  0
    9.3608   -0.6002    0.0000 F   0  0
    9.0999    1.9500    0.0000 F   0  0
    8.0608    1.3502    0.0000 F   0  0
    7.7999   -1.2000    0.0000 F   0  0
    6.7608   -0.6002    0.0000 F   0  0
    6.5000    1.9500    0.0000 F   0  0
    5.4608    1.3502    0.0000 F   0  0
    5.2000   -1.2000    0.0000 F   0  0
    4.1608   -0.6002    0.0000 F   0  0
    3.9000    1.9500    0.0000 F   0  0
    2.8608    1.3502    0.0000 F   0  0
    2.6000   -1.2000    0.0000 F   0  0
    1.5608   -0.6002    0.0000 F   0  0
    0.2606    0.1503    0.0000 F   0  0
    1.3000    1.9500    0.0000 F   0  0
    0.2609    1.3502    0.0000 F   0  0
   12.9999   -1.0000    0.0000 H   0  0
   13.4339    1.2501    0.0000 H   0  0
   14.2999    1.7500    0.0000 H   0  0
   16.4661    0.4997    0.0000 H   0  0
   16.4658   -0.5001    0.0000 H   0  0
   15.5999   -1.0000    0.0000 H   0  0
  1  2  1  0
  1  9  1  0
  1 15  1  0
  1 16  1  0
  2  3  1  0
  2 17  1  0
  2 18  1  0
  3  4  1  0
  3 19  1  0
  3 20  1  0
  4  5  1  0
  4 21  1  0
  4 22  1  0
  5  6  1  0
  5 23  1  0
  5 24  1  0
  6  7  1  0
  6 25  1  0
  6 26  1  0
  7  8  1  0
  7 27  1  0
  7 28  1  0
  8 29  1  0
  8 30  1  0
  8 31  1  0
  9 10  2  0
  9 12  1  0
  9 11  2  0
 12 13  1  0
 13 14  1  0
 12 32  1  0
 13 33  1  0
 13 34  1  0
 14 35  1  0
 14 36  1  0
 14 37  1  0
V    1 0
V    2 1
V    3 2
V    4 3
V    5 4
V    6 5
V    7 6
V    8 7
V    9 8
V   10 9
V   11 10
V   12 11
V   13 12
V   14 13
V   15 14
V   16 15
V   17 16
V   18 17
V   19 18
V   20 19
V   21 20
V   22 21
V   23 22
V   24 23
V   25 24
V   26 25
V   27 26
V   28 27
V   29 28
V   30 29
V   31 30
M  END
> <DSSTox_RID>
66415

> <DSSTox_CID>
12646

> <DSSTox_CID_Parent>
12646

> <DSSTox_Generic_SID>
32646

> <DSSTox_FileID>
691_TXCST2_v1a

> <STRUCTURE_Formula>
C10H6F17NO2S

> <STRUCTURE_MolecularWeight>
527.198

> <STRUCTURE_ChemicalType>
defined organic

> <STRUCTURE_TestedForm_DefinedOrganic>
parent

> <STRUCTURE_Shown>
tested chemical

> <TestSubstance_ChemicalName>
Sulfluramid

> <TestSubstance_CASRN>
4151-50-2

> <TestSubstance_Description>
single chemical compound

> <Source_ChemicalNote>
tested chemical contained 0.4% water (0.12 moles H2O)

> <STRUCTURE_ChemicalName_IUPAC>
N-ethyl-1,1,2,2,3,3,4,4,5,5,6,6,7,7,8,8,8-heptadecafluorooctane-1-sulfonamide

> <STRUCTURE_SMILES>
O=S(C(F)(F)C(F)(F)C(F)(F)C(F)(F)C(F)(F)C(F)(F)C(F)(F)C(F)(F)F)(NCC)=O

> <STRUCTURE_Parent_SMILES>
O=S(C(F)(F)C(F)(F)C(F)(F)C(F)(F)C(F)(F)C(F)(F)C(F)(F)C(F)(F)F)(NCC)=O

> <STRUCTURE_InChIS>
InChI=1S/C10H6F17NO2S/c1-2-28-31(29,30)10(26,27)8(21,22)6(17,18)4(13,14)3(11,12)5(15,16)7(19,20)9(23,24)25/h28H,2H2,1H3

> <STRUCTURE_InChIKey>
CCEKAJIANROZEO-UHFFFAOYSA-N

> <Substance_modify_yyyymmdd>
20080429

> <Coord_Metals>
0

> <Index>
691

> <Canonical_Smiles>
CCNS(=O)(=O)C(F)(F)C(F)(F)C(F)(F)C(F)(F)C(F)(F)C(F)(F)C(F)(F)C(F)(F)F

> <Molecular_Weight>
527.19799

> <Frequency>
1

$$$$

  SciTegic          2D

 20 21  0  0  0  0            999 V2000
    6.3215    1.3677    0.0000 S   0  0
    7.0552    2.6770    0.0000 C   0  0
    7.6418    3.7238    0.0000 N   0  0
    4.8208    1.3475    0.0000 C   0  0
    4.0872    0.0382    0.0000 S   0  0
    1.7138   -1.2033    0.0000 N   0  0
    1.7138    1.2033    0.0000 S   0  0
    2.5889    0.0182    0.0000 C   0  0
    0.2917   -0.7475    0.0000 C   0  0
    0.2917    0.7475    0.0000 C   0  0
   -1.0028    1.5132    0.0000 C   0  0
   -2.3155    0.7475    0.0000 C   0  0
   -2.3155   -0.7475    0.0000 C   0  0
   -1.0028   -1.5132    0.0000 C   0  0
    4.3095    2.2069    0.0000 H   0  0
    5.3093    2.2201    0.0000 H   0  0
   -0.9997    2.5132    0.0000 H   0  0
   -3.1826    1.2456    0.0000 H   0  0
   -3.1826   -1.2456    0.0000 H   0  0
   -0.9997   -2.5132    0.0000 H   0  0
  1  2  1  0
  1  4  1  0
  2  3  3  0
  4  5  1  0
  5  8  1  0
  6  8  2  0
  6  9  1  0
  7  8  1  0
  7 10  1  0
  9 10  1  0
  9 14  2  0
 10 11  2  0
 11 12  1  0
 12 13  2  0
 13 14  1  0
  4 15  1  0
  4 16  1  0
 11 17  1  0
 12 18  1  0
 13 19  1  0
 14 20  1  0
V    1 0
V    2 1
V    3 2
V    4 3
V    5 4
V    6 5
V    7 6
V    8 7
V    9 8
V   10 9
V   11 10
V   12 11
V   13 12
V   14 13
M  END
> <DSSTox_RID>
62375

> <DSSTox_CID>
12647

> <DSSTox_CID_Parent>
12647

> <DSSTox_Generic_SID>
32647

> <DSSTox_FileID>
692_TXCST2_v1a

> <STRUCTURE_Formula>
C9H6N2S3

> <STRUCTURE_MolecularWeight>
238.3523

> <STRUCTURE_ChemicalType>
defined organic

> <STRUCTURE_TestedForm_DefinedOrganic>
parent

> <STRUCTURE_Shown>
tested chemical

> <TestSubstance_ChemicalName>
2-(Thiocyanomethylthio)benzothiazole

> <TestSubstance_CASRN>
21564-17-0

> <TestSubstance_Description>
single chemical compound

> <STRUCTURE_ChemicalName_IUPAC>
(1,3-benzothiazol-2-ylthio)methyl thiocyanate

> <STRUCTURE_SMILES>
N#CSCSC2=NC1=CC=CC=C1S2

> <STRUCTURE_Parent_SMILES>
N#CSCSC2=NC1=CC=CC=C1S2

> <STRUCTURE_InChIS>
InChI=1S/C9H6N2S3/c10-5-12-6-13-9-11-7-3-1-2-4-8(7)14-9/h1-4H,6H2

> <STRUCTURE_InChIKey>
TUBQDCKAWGHZPF-UHFFFAOYSA-N

> <Substance_modify_yyyymmdd>
20080429

> <Coord_Metals>
0

> <Index>
692

> <Canonical_Smiles>
N#CSCSc1nc2ccccc2s1

> <Molecular_Weight>
238.35233

> <Frequency>
1

$$$$

  SciTegic          2D

 49 51  0  0  0  0            999 V2000
   11.0155   -0.5823    0.0000 N   0  0
    5.8214    3.2889    0.0000 C   0  0
    7.1122    4.0530    0.0000 C   0  0
   10.4251   -1.9320    0.0000 C   0  0
   12.5108   -0.7313    0.0000 C   0  0
    7.0607    2.6677    0.0000 C   0  0
   11.5296   -2.9370    0.0000 C   0  0
   12.8253   -2.1912    0.0000 C   0  0
   10.2534    0.7078    0.0000 C   0  0
    7.3372    1.1926    0.0000 C   0  0
    6.8870    5.5477    0.0000 C   0  0
    8.7526    0.6936    0.0000 O   0  0
    9.2515   -2.1822    0.0000 O   0  0
   13.3101    0.1637    0.0000 O   0  0
    8.0712    6.4698    0.0000 C   0  0
    6.4261    0.4117    0.0000 O   0  0
    5.0960    1.9627    0.0000 C   0  0
    5.0047    4.5612    0.0000 C   0  0
   14.1347   -2.9310    0.0000 C   0  0
   11.5118   -4.4409    0.0000 C   0  0
    7.8657    7.9565    0.0000 C   0  0
    9.4605    5.9020    0.0000 C   0  0
   12.8303   -5.1965    0.0000 C   0  0
   14.1260   -4.4507    0.0000 C   0  0
    8.1122    4.0520    0.0000 H   0  0
    8.0607    2.6788    0.0000 H   0  0
   10.7449    1.5787    0.0000 H   0  0
    9.7451    1.5689    0.0000 H   0  0
    5.9606    5.9241    0.0000 H   0  0
    5.6257    1.1145    0.0000 H   0  0
    4.6264    1.0799    0.0000 H   0  0
    4.0966    1.9278    0.0000 H   0  0
    4.0052    4.5269    0.0000 H   0  0
    4.4751    5.4095    0.0000 H   0  0
    5.4744    5.4440    0.0000 H   0  0
   14.9899   -3.4492    0.0000 H   0  0
   14.1101   -1.9313    0.0000 H   0  0
   11.5304   -5.4407    0.0000 H   0  0
   10.6596   -3.9176    0.0000 H   0  0
    8.6547    8.5708    0.0000 H   0  0
    7.7283    8.9470    0.0000 H   0  0
    6.9392    8.3329    0.0000 H   0  0
    9.5963    4.9113    0.0000 H   0  0
   10.3863    5.5241    0.0000 H   0  0
   10.2507    6.5147    0.0000 H   0  0
   13.7085   -5.6749    0.0000 H   0  0
   12.8530   -4.1968    0.0000 H   0  0
   14.0987   -5.4503    0.0000 H   0  0
   14.9817   -3.9333    0.0000 H   0  0
  1  4  1  0
  1  5  1  0
  1  9  1  0
  2  6  1  0
  2 17  1  0
  2 18  1  0
  2  3  1  0
  3  6  1  0
  3 11  1  0
  4  7  1  0
  4 13  2  0
  5  8  1  0
  5 14  2  0
  6 10  1  0
  7 20  1  0
  7  8  2  0
  8 19  1  0
  9 12  1  0
 10 12  1  0
 10 16  2  0
 11 15  2  0
 15 21  1  0
 15 22  1  0
 19 24  1  0
 20 23  1  0
 23 24  1  0
  3 25  1  0
  6 26  1  0
  9 27  1  0
  9 28  1  0
 11 29  1  0
 17 30  1  0
 17 31  1  0
 17 32  1  0
 18 33  1  0
 18 34  1  0
 18 35  1  0
 19 36  1  0
 19 37  1  0
 20 38  1  0
 20 39  1  0
 21 40  1  0
 21 41  1  0
 21 42  1  0
 22 43  1  0
 22 44  1  0
 22 45  1  0
 23 46  1  0
 23 47  1  0
 24 48  1  0
 24 49  1  0
V    1 0
V    2 1
V    3 2
V    4 3
V    5 4
V    6 5
V    7 6
V    8 7
V    9 8
V   10 9
V   11 10
V   12 11
V   13 12
V   14 13
V   15 14
V   16 15
V   17 16
V   18 17
V   19 18
V   20 19
V   21 20
V   22 21
V   23 22
V   24 23
M  END
> <DSSTox_RID>
62338

> <DSSTox_CID>
12649

> <DSSTox_CID_Parent>
12649

> <DSSTox_Generic_SID>
32649

> <DSSTox_FileID>
693_TXCST2_v1a

> <STRUCTURE_Formula>
C19H25NO4

> <STRUCTURE_MolecularWeight>
331.4061

> <STRUCTURE_ChemicalType>
defined organic

> <STRUCTURE_TestedForm_DefinedOrganic>
parent

> <STRUCTURE_Shown>
representative isomer in mixture

> <TestSubstance_ChemicalName>
Tetramethrin

> <TestSubstance_CASRN>
7696-12-0

> <TestSubstance_Description>
mixture or formulation

> <ChemicalNote>
mixture of four stereoisomers: [1R,trans]; [1R,cis], [1S,trans]; and [1S,cis]; approx ratio 4:1:4:1; structure shown 1R,trans; stereochem

> <Source_ChemicalNote>
tested chemical was a mixture of four stereoisomers: [1R,trans]; [1R,cis], [1S,trans]; and [1S,cis]; approx ratio 4:1:4:1

> <STRUCTURE_ChemicalName_IUPAC>
(1,3-dioxo-1,3,4,5,6,7-hexahydro-2H-isoindol-2-yl)methyl (1R,3R)-2,2-dimethyl-3-(2-methylprop-1-en-1-yl)cyclopropanecarboxylate

> <STRUCTURE_SMILES>
O=C(C2=C1CCCC2)N(CO[C@@]([C@H]3C([C@@H]3\C=C(C)/C)(C)C)=O)C1=O

> <STRUCTURE_Parent_SMILES>
O=C(C2=C1CCCC2)N(CO[C@@]([C@H]3C([C@@H]3\C=C(C)/C)(C)C)=O)C1=O

> <STRUCTURE_InChIS>
InChI=1S/C19H25NO4/c1-11(2)9-14-15(19(14,3)4)18(23)24-10-20-16(21)12-7-5-6-8-13(12)17(20)22/h9,14-15H,5-8,10H2,1-4H3/t14-,15+/m1/s1

> <STRUCTURE_InChIKey>
CXBMCYHAMVGWJQ-CABCVRRESA-N

> <Substance_modify_yyyymmdd>
20080429

> <Coord_Metals>
0

> <Index>
693

> <Canonical_Smiles>
CC(=CC1C(C(=O)OCN2C(=O)C3=C(CCCC3)C2=O)C1(C)C)C

> <Molecular_Weight>
331.4061

> <Frequency>
1

$$$$

  SciTegic          2D

 23 24  0  0  0  0            999 V2000
    2.6747   -6.1134    0.0000 S   0  0
    3.1332   -7.5416    0.0000 N   0  0
    4.6332   -7.5468    0.0000 N   0  0
    5.1017   -6.1218    0.0000 C   0  0
    3.8912   -5.2578    0.0000 C   0  0
    3.8933   -3.7570    0.0000 N   0  0
    2.5951   -3.0039    0.0000 C   0  0
    1.5548   -3.6021    0.0000 O   0  0
    2.5973   -1.5031    0.0000 N   0  0
    1.2990   -0.7500    0.0000 C   0  0
    1.2990    0.7500    0.0000 C   0  0
    0.0000   -1.5000    0.0000 C   0  0
    0.0000    1.5000    0.0000 C   0  0
   -1.2990   -0.7500    0.0000 C   0  0
   -1.2990    0.7500    0.0000 C   0  0
    6.0520   -5.8105    0.0000 H   0  0
    4.7602   -3.2585    0.0000 H   0  0
    3.4642   -1.0046    0.0000 H   0  0
    2.1651    1.2500    0.0000 H   0  0
    0.0000   -2.5000    0.0000 H   0  0
    0.0000    2.5000    0.0000 H   0  0
   -2.1651   -1.2500    0.0000 H   0  0
   -2.1651    1.2500    0.0000 H   0  0
  1  2  1  0
  1  5  1  0
  2  3  2  0
  3  4  1  0
  4  5  2  0
  5  6  1  0
  6  7  1  0
  7  8  2  0
  7  9  1  0
  9 10  1  0
 10 11  2  0
 10 12  1  0
 11 13  1  0
 12 14  2  0
 13 15  2  0
 14 15  1  0
  4 16  1  0
  6 17  1  0
  9 18  1  0
 11 19  1  0
 12 20  1  0
 13 21  1  0
 14 22  1  0
 15 23  1  0
V    1 0
V    2 1
V    3 2
V    4 3
V    5 4
V    6 5
V    7 6
V    8 7
V    9 8
V   10 9
V   11 10
V   12 11
V   13 12
V   14 13
V   15 14
M  END
> <DSSTox_RID>
65276

> <DSSTox_CID>
12651

> <DSSTox_CID_Parent>
12651

> <DSSTox_Generic_SID>
32651

> <DSSTox_FileID>
694_TXCST2_v1a

> <STRUCTURE_Formula>
C9H8N4OS

> <STRUCTURE_MolecularWeight>
220.251

> <STRUCTURE_ChemicalType>
defined organic

> <STRUCTURE_TestedForm_DefinedOrganic>
parent

> <STRUCTURE_Shown>
tested chemical

> <TestSubstance_ChemicalName>
Thidiazuron

> <TestSubstance_CASRN>
51707-55-2

> <TestSubstance_Description>
single chemical compound

> <Source_ChemicalNote>
tested chemical contained 0.05% water (0.01 moles H2O)

> <STRUCTURE_ChemicalName_IUPAC>
1-phenyl-3-(1,2,3-thiadiazol-5-yl)urea

> <STRUCTURE_SMILES>
O=C(NC2=CC=CC=C2)NC1=CN=NS1

> <STRUCTURE_Parent_SMILES>
O=C(NC2=CC=CC=C2)NC1=CN=NS1

> <STRUCTURE_InChIS>
InChI=1S/C9H8N4OS/c14-9(12-8-6-10-13-15-8)11-7-4-2-1-3-5-7/h1-6H,(H2,11,12,14)

> <STRUCTURE_InChIKey>
HFCYZXMHUIHAQI-UHFFFAOYSA-N

> <Substance_modify_yyyymmdd>
20080429

> <Coord_Metals>
0

> <Index>
694

> <Canonical_Smiles>
O=C(Nc1ccccc1)Nc2cnns2

> <Molecular_Weight>
220.25101

> <Frequency>
1

$$$$

  SciTegic          2D

 42 44  0  0  0  0            999 V2000
    3.8056   -3.8679    0.0000 C   0  0
    3.3372   -5.2929    0.0000 C   0  0
    1.8372   -5.2877    0.0000 C   0  0
    1.3786   -3.8595    0.0000 C   0  0
    2.5951   -3.0039    0.0000 C   0  0
    4.8982   -4.8779    0.0000 O   0  0
    2.5973   -1.5031    0.0000 C   0  0
    1.2990   -0.7500    0.0000 C   0  0
    1.2990    0.7500    0.0000 C   0  0
    0.0000   -1.5000    0.0000 C   0  0
    0.0000    1.5000    0.0000 C   0  0
   -1.2990   -0.7500    0.0000 C   0  0
   -1.2990    0.7500    0.0000 C   0  0
   -2.3383    1.3500    0.0000 Cl  0  0
    4.8144   -5.1189    0.0000 C   0  0
    2.7058   -6.6402    0.0000 C   0  0
    4.0890   -2.4069    0.0000 C   0  0
    5.5149   -1.9386    0.0000 N   0  0
    6.7104   -2.8232    0.0000 N   0  0
    7.9211   -1.9377    0.0000 C   0  0
    7.4530   -0.5126    0.0000 N   0  0
    5.9530   -0.5174    0.0000 C   0  0
    2.2544   -6.1965    0.0000 H   0  0
    0.8447   -5.1650    0.0000 H   0  0
    0.6389   -4.5324    0.0000 H   0  0
    1.1940   -2.8767    0.0000 H   0  0
    4.6931   -5.8566    0.0000 H   0  0
    3.4642   -1.0046    0.0000 H   0  0
    2.1651    1.2500    0.0000 H   0  0
    0.0000   -2.5000    0.0000 H   0  0
    0.0000    2.5000    0.0000 H   0  0
   -2.1651   -1.2500    0.0000 H   0  0
    5.2247   -4.2069    0.0000 H   0  0
    5.8093   -5.0181    0.0000 H   0  0
    5.3993   -5.9300    0.0000 H   0  0
    3.2902   -7.4517    0.0000 H   0  0
    2.2954   -7.5521    0.0000 H   0  0
    1.7109   -6.7408    0.0000 H   0  0
    4.2940   -1.4282    0.0000 H   0  0
    3.3440   -1.7399    0.0000 H   0  0
    8.8731   -2.2437    0.0000 H   0  0
    5.3578    0.2862    0.0000 H   0  0
  1  2  1  0
  1  5  1  0
  1  6  1  0
  1 17  1  0
  2  3  1  0
  2 15  1  0
  2 16  1  0
  3  4  1  0
  4  5  1  0
  5  7  2  0
  7  8  1  0
  8  9  2  0
  8 10  1  0
  9 11  1  0
 10 12  2  0
 11 13  2  0
 12 13  1  0
 13 14  1  0
 17 18  1  0
 18 19  1  0
 18 22  1  0
 19 20  2  0
 20 21  1  0
 21 22  2  0
  3 23  1  0
  3 24  1  0
  4 25  1  0
  4 26  1  0
  6 27  1  0
  7 28  1  0
  9 29  1  0
 10 30  1  0
 11 31  1  0
 12 32  1  0
 15 33  1  0
 15 34  1  0
 15 35  1  0
 16 36  1  0
 16 37  1  0
 16 38  1  0
 17 39  1  0
 17 40  1  0
 20 41  1  0
 22 42  1  0
V    1 0
V    2 1
V    3 2
V    4 3
V    5 4
V    6 5
V    7 6
V    8 7
V    9 8
V   10 9
V   11 10
V   12 11
V   13 12
V   14 13
V   15 14
V   16 15
V   17 16
V   18 17
V   19 18
V   20 19
V   21 20
V   22 21
M  END
> <DSSTox_RID>
62336

> <DSSTox_CID>
12655

> <DSSTox_CID_Parent>
12655

> <DSSTox_Generic_SID>
32655

> <DSSTox_FileID>
695_TXCST2_v1a

> <STRUCTURE_Formula>
C17H20ClN3O

> <STRUCTURE_MolecularWeight>
317.8132

> <STRUCTURE_ChemicalType>
defined organic

> <STRUCTURE_TestedForm_DefinedOrganic>
parent

> <STRUCTURE_Shown>
tested chemical

> <TestSubstance_ChemicalName>
Triticonazole

> <TestSubstance_CASRN>
131983-72-7

> <TestSubstance_Description>
single chemical compound

> <ChemicalNote>
stereochem

> <Source_ChemicalNote>
tested chemical contained 2.3% water (0.42 moles H2O)

> <STRUCTURE_ChemicalName_IUPAC>
(5E)-5-(4-chlorobenzylidene)-2,2-dimethyl-1-(1H-1,2,4-triazol-1-ylmethyl)cyclopentanol

> <STRUCTURE_SMILES>
OC1(CN3N=CN=C3)C(C)(C)CC\C1=C/C2=CC=C(Cl)C=C2

> <STRUCTURE_Parent_SMILES>
OC1(CN3N=CN=C3)C(C)(C)CC\C1=C/C2=CC=C(Cl)C=C2

> <STRUCTURE_InChIS>
InChI=1S/C17H20ClN3O/c1-16(2)8-7-14(9-13-3-5-15(18)6-4-13)17(16,22)10-21-12-19-11-20-21/h3-6,9,11-12,22H,7-8,10H2,1-2H3/b14-9+

> <STRUCTURE_InChIKey>
PPDBOQMNKNNODG-NTEUORMPSA-N

> <Substance_modify_yyyymmdd>
20080429

> <Coord_Metals>
0

> <Index>
695

> <Canonical_Smiles>
CC1(C)CCC(=Cc2ccc(Cl)cc2)C1(O)Cn3cncn3

> <Molecular_Weight>
317.8132

> <Frequency>
1

$$$$

  SciTegic          2D

 52 54  0  0  0  0            999 V2000
    1.2990   -0.7500    0.0000 C   0  0
    2.5988   -1.5004    0.0000 C   0  0
    1.2990    0.7500    0.0000 C   0  0
    0.0000   -1.5000    0.0000 C   0  0
    3.8990   -0.7508    0.0000 C   0  0
    2.5983   -3.0012    0.0000 C   0  0
    0.0000    1.5000    0.0000 C   0  0
   -1.2990   -0.7500    0.0000 C   0  0
    5.1988   -1.5012    0.0000 O   0  0
    3.8994    0.4492    0.0000 O   0  0
    1.0517   -3.0796    0.0000 C   0  0
    3.3031   -4.3801    0.0000 C   0  0
   -1.2990    0.7500    0.0000 C   0  0
    6.4990   -0.7516    0.0000 C   0  0
   -2.3383    1.3500    0.0000 Cl  0  0
    7.7988   -1.5020    0.0000 C   0  0
    6.4995    0.7491    0.0000 C   0  0
    7.7988   -3.0021    0.0000 C   0  0
    9.0978   -0.7520    0.0000 C   0  0
    6.4999    1.9491    0.0000 N   0  0
    9.0978   -3.7520    0.0000 C   0  0
   10.3968   -1.5020    0.0000 C   0  0
    9.1009   -5.2529    0.0000 O   0  0
   10.3968   -3.0020    0.0000 C   0  0
   10.4017   -6.0014    0.0000 C   0  0
   10.4070   -7.5015    0.0000 C   0  0
   11.6982   -5.2470    0.0000 C   0  0
   11.7086   -8.2470    0.0000 C   0  0
   12.9999   -5.9925    0.0000 C   0  0
   13.0051   -7.4925    0.0000 C   0  0
    2.5991   -0.5004    0.0000 H   0  0
    2.1651    1.2500    0.0000 H   0  0
    0.0000   -2.5000    0.0000 H   0  0
    3.4643   -3.5013    0.0000 H   0  0
    0.0000    2.5000    0.0000 H   0  0
   -2.1651   -1.2500    0.0000 H   0  0
    0.5516   -2.2136    0.0000 H   0  0
    0.0518   -3.0923    0.0000 H   0  0
    0.5739   -3.9580    0.0000 H   0  0
    4.3031   -4.3806    0.0000 H   0  0
    3.7916   -5.2526    0.0000 H   0  0
    2.7809   -5.2329    0.0000 H   0  0
    5.6332   -0.2512    0.0000 H   0  0
    6.9327   -3.5021    0.0000 H   0  0
    9.0978    0.2480    0.0000 H   0  0
   11.2629   -1.0020    0.0000 H   0  0
   11.2629   -3.5020    0.0000 H   0  0
    9.5427   -8.0045    0.0000 H   0  0
   11.6948   -4.2470    0.0000 H   0  0
   11.7121   -9.2469    0.0000 H   0  0
   13.8642   -5.4895    0.0000 H   0  0
   13.8728   -7.9895    0.0000 H   0  0
  1  2  1  0
  1  3  2  0
  1  4  1  0
  2  5  1  0
  2  6  1  0
  3  7  1  0
  4  8  2  0
  5  9  1  0
  5 10  2  0
  6 11  1  0
  6 12  1  0
  7 13  2  0
  8 13  1  0
  9 14  1  0
 13 15  1  0
 14 16  1  0
 14 17  1  0
 16 18  1  0
 16 19  2  0
 17 20  3  0
 18 21  2  0
 19 22  1  0
 21 23  1  0
 21 24  1  0
 22 24  2  0
 23 25  1  0
 25 26  2  0
 25 27  1  0
 26 28  1  0
 27 29  2  0
 28 30  2  0
 29 30  1  0
  2 31  1  0
  3 32  1  0
  4 33  1  0
  6 34  1  0
  7 35  1  0
  8 36  1  0
 11 37  1  0
 11 38  1  0
 11 39  1  0
 12 40  1  0
 12 41  1  0
 12 42  1  0
 14 43  1  0
 18 44  1  0
 19 45  1  0
 22 46  1  0
 24 47  1  0
 26 48  1  0
 27 49  1  0
 28 50  1  0
 29 51  1  0
 30 52  1  0
V    1 0
V    2 1
V    3 2
V    4 3
V    5 4
V    6 5
V    7 6
V    8 7
V    9 8
V   10 9
V   11 10
V   12 11
V   13 12
V   14 13
V   15 14
V   16 15
V   17 16
V   18 17
V   19 18
V   20 19
V   21 20
V   22 21
V   23 22
V   24 23
V   25 24
V   26 25
V   27 26
V   28 27
V   29 28
V   30 29
M  END
> <DSSTox_RID>
62308

> <DSSTox_CID>
12667

> <DSSTox_CID_Parent>
12667

> <DSSTox_Generic_SID>
32667

> <DSSTox_FileID>
696_TXCST2_v1a

> <STRUCTURE_Formula>
C25H22ClNO3

> <STRUCTURE_MolecularWeight>
419.9001

> <STRUCTURE_ChemicalType>
defined organic

> <STRUCTURE_TestedForm_DefinedOrganic>
parent

> <STRUCTURE_Shown>
tested chemical

> <TestSubstance_ChemicalName>
Esfenvalerate

> <TestSubstance_CASRN>
66230-04-4

> <TestSubstance_Description>
single chemical compound

> <ChemicalNote>
stereochem

> <Source_ChemicalNote>
tested chemical contained 0.09% water (0.02 moles H2O)

> <STRUCTURE_ChemicalName_IUPAC>
(S)-cyano(3-phenoxyphenyl)methyl (2S)-2-(4-chlorophenyl)-3-methylbutanoate

> <STRUCTURE_SMILES>
O=C(O[C@H](C#N)C2=CC=CC(OC3=CC=CC=C3)=C2)[C@@H]([C@H](C)C)C1=CC=C(Cl)C=C1

> <STRUCTURE_Parent_SMILES>
O=C(O[C@H](C#N)C2=CC=CC(OC3=CC=CC=C3)=C2)[C@@H]([C@H](C)C)C1=CC=C(Cl)C=C1

> <STRUCTURE_InChIS>
InChI=1S/C25H22ClNO3/c1-17(2)24(18-11-13-20(26)14-12-18)25(28)30-23(16-27)19-7-6-10-22(15-19)29-21-8-4-3-5-9-21/h3-15,17,23-24H,1-2H3/t23-,24+/m1/s1

> <STRUCTURE_InChIKey>
NYPJDWWKZLNGGM-RPWUZVMVSA-N

> <Substance_modify_yyyymmdd>
20080429

> <Coord_Metals>
0

> <Index>
696

> <Canonical_Smiles>
CC(C)C(C(=O)OC(C#N)c1cccc(Oc2ccccc2)c1)c3ccc(Cl)cc3

> <Molecular_Weight>
419.90008

> <Frequency>
1

$$$$

  SciTegic          2D

 32 33  0  0  0  0            999 V2000
    1.2990   -0.7500    0.0000 C   0  0
    1.2990    0.7500    0.0000 C   0  0
    0.0000   -1.5000    0.0000 C   0  0
    2.5973   -1.5031    0.0000 C   0  0
    2.5972    1.5031    0.0000 S   0  0
    0.0000    1.5000    0.0000 C   0  0
   -1.2990   -0.7500    0.0000 C   0  0
    0.0000   -2.7000    0.0000 Cl  0  0
    2.5951   -3.0039    0.0000 O   0  0
    3.6375   -0.9049    0.0000 O   0  0
    2.5951    3.0039    0.0000 C   0  0
   -1.2990    0.7500    0.0000 C   0  0
    3.8915    3.7585    0.0000 N   0  0
    1.2934    3.7495    0.0000 N   0  0
    3.8863    5.2585    0.0000 C   0  0
    1.2883    5.2495    0.0000 C   0  0
    2.5847    6.0040    0.0000 C   0  0
    5.1850    6.0108    0.0000 O   0  0
   -0.0156    5.9927    0.0000 O   0  0
    6.4863    5.2630    0.0000 C   0  0
   -1.3117    5.2360    0.0000 C   0  0
    0.0000    2.5000    0.0000 H   0  0
   -2.1651   -1.2500    0.0000 H   0  0
    3.4601   -3.5057    0.0000 H   0  0
   -2.1651    1.2500    0.0000 H   0  0
    2.5812    7.0040    0.0000 H   0  0
    7.3516    5.7642    0.0000 H   0  0
    6.4880    4.2630    0.0000 H   0  0
    7.3531    4.7644    0.0000 H   0  0
   -2.1805    5.7312    0.0000 H   0  0
   -1.3065    4.2360    0.0000 H   0  0
   -2.1750    4.7313    0.0000 H   0  0
  1  2  2  0
  1  3  1  0
  1  4  1  0
  2  5  1  0
  2  6  1  0
  3  7  2  0
  3  8  1  0
  4  9  1  0
  4 10  2  0
  5 11  1  0
  6 12  2  0
  7 12  1  0
 11 13  2  0
 11 14  1  0
 13 15  1  0
 14 16  2  0
 15 17  2  0
 15 18  1  0
 16 19  1  0
 16 17  1  0
 18 20  1  0
 19 21  1  0
  6 22  1  0
  7 23  1  0
  9 24  1  0
 12 25  1  0
 17 26  1  0
 20 27  1  0
 20 28  1  0
 20 29  1  0
 21 30  1  0
 21 31  1  0
 21 32  1  0
V    1 0
V    2 1
V    3 2
V    4 3
V    5 4
V    6 5
V    7 6
V    8 7
V    9 8
V   10 9
V   11 10
V   12 11
V   13 12
V   14 13
V   15 14
V   16 15
V   17 16
V   18 17
V   19 18
V   20 19
V   21 20
M  END
> <DSSTox_RID>
65352

> <DSSTox_CID>
12673

> <DSSTox_CID_Parent>
17703

> <DSSTox_Generic_SID>
32673

> <DSSTox_FileID>
697_TXCST2_v1a

> <STRUCTURE_Formula>
C13H10ClN2NaO4S

> <STRUCTURE_MolecularWeight>
348.7373

> <STRUCTURE_ChemicalType>
defined organic

> <STRUCTURE_TestedForm_DefinedOrganic>
salt Na

> <STRUCTURE_Shown>
tested chemical

> <TestSubstance_ChemicalName>
Pyrithiobac-sodium

> <TestSubstance_CASRN>
123343-16-8

> <TestSubstance_Description>
single chemical compound

> <ChemicalNote>
parent [123342-93-8]

> <STRUCTURE_ChemicalName_IUPAC>
sodium 2-chloro-6-[(4,6-dimethoxypyrimidin-2-yl)thio]benzoate

> <STRUCTURE_SMILES>
ClC1=CC=CC(SC2=NC(OC)=CC(OC)=N2)=C1C([O-])=O.[Na+]

> <STRUCTURE_Parent_SMILES>
ClC1=CC=CC(SC2=NC(OC)=CC(OC)=N2)=C1C(O)=O

> <STRUCTURE_InChIS>
InChI=1S/C13H11ClN2O4S.Na/c1-19-9-6-10(20-2)16-13(15-9)21-8-5-3-4-7(14)11(8)12(17)18;/h3-6H,1-2H3,(H,17,18);/q;+1/p-1

> <STRUCTURE_InChIKey>
CNILNQMBAHKMFS-UHFFFAOYSA-M

> <Substance_modify_yyyymmdd>
20080429

> <Coord_Metals>
0

> <Index>
697

> <Canonical_Smiles>
COc1cc(OC)nc(Sc2cccc(Cl)c2C(=O)O)n1

> <Molecular_Weight>
326.75544

> <Frequency>
1

$$$$

  SciTegic          2D

 27 26  0  0  0  0            999 V2000
    9.0999    0.7500    0.0000 C   0  0
    7.7999    0.0000    0.0000 C   0  0
    6.5000    0.7500    0.0000 C   0  0
    6.4969    2.2508    0.0000 C   0  0
    9.0999    1.9500    0.0000 O   0  0
   10.3999    0.0000    0.0000 O   0  0
    5.2000    0.0000    0.0000 O   0  0
    5.1985   -1.5008    0.0000 P   0  0
    4.1585   -2.0995    0.0000 O   0  0
    6.4971   -2.2533    0.0000 O   0  0
    6.4957   -3.7541    0.0000 C   0  0
    3.8734   -0.7360    0.0000 O   0  0
    2.5733   -1.4859    0.0000 C   0  0
   11.6999    0.7500    0.0000 C   0  0
    7.7999   -1.0000    0.0000 H   0  0
    5.6301    2.7496    0.0000 H   0  0
    7.3620    2.7523    0.0000 H   0  0
    6.4953    3.2508    0.0000 H   0  0
    7.3609   -4.2555    0.0000 H   0  0
    5.6290   -4.2530    0.0000 H   0  0
    6.4942   -4.7541    0.0000 H   0  0
    1.7072   -0.9860    0.0000 H   0  0
    2.5732   -2.4859    0.0000 H   0  0
    1.7073   -1.9859    0.0000 H   0  0
   12.5661    0.2503    0.0000 H   0  0
   11.6999    1.7500    0.0000 H   0  0
   12.5659    1.2501    0.0000 H   0  0
  2  1  1  0
  1  6  1  0
  1  5  2  0
  2  3  2  0
  3  4  1  0
  3  7  1  0
  6 14  1  0
  7  8  1  0
  8  9  2  0
  8 10  1  0
  8 12  1  0
 10 11  1  0
 12 13  1  0
  2 15  1  0
  4 16  1  0
  4 17  1  0
  4 18  1  0
 11 19  1  0
 11 20  1  0
 11 21  1  0
 13 22  1  0
 13 23  1  0
 13 24  1  0
 14 25  1  0
 14 26  1  0
 14 27  1  0
V    1 0
V    2 1
V    3 2
V    4 3
V    5 4
V    6 5
V    7 6
V    8 7
V    9 8
V   10 9
V   11 10
V   12 11
V   13 12
V   14 13
M  END
> <DSSTox_RID>
62312

> <DSSTox_CID>
12683

> <DSSTox_CID_Parent>
12683

> <DSSTox_Generic_SID>
32683

> <DSSTox_FileID>
698_TXCST2_v1a

> <STRUCTURE_Formula>
C7H13O6P

> <STRUCTURE_MolecularWeight>
224.1483

> <STRUCTURE_ChemicalType>
defined organic

> <STRUCTURE_TestedForm_DefinedOrganic>
parent

> <STRUCTURE_Shown>
representative isomer in mixture

> <TestSubstance_ChemicalName>
Mevinphos

> <TestSubstance_CASRN>
7786-34-7

> <TestSubstance_Description>
mixture or formulation

> <ChemicalNote>
mixture of Z,E isomers structure shown E, stereochem

> <Source_ChemicalNote>
tested chemical was a mixture of isomers

> <STRUCTURE_ChemicalName_IUPAC>
methyl (2E)-3-[(dimethoxyphosphoryl)oxy]but-2-enoate

> <STRUCTURE_SMILES>
O=C(OC)\C=C(OP(OC)(OC)=O)/C

> <STRUCTURE_Parent_SMILES>
O=C(OC)\C=C(OP(OC)(OC)=O)/C

> <STRUCTURE_InChIS>
InChI=1S/C7H13O6P/c1-6(5-7(8)10-2)13-14(9,11-3)12-4/h5H,1-4H3/b6-5+

> <STRUCTURE_InChIKey>
GEPDYQSQVLXLEU-AATRIKPKSA-N

> <Substance_modify_yyyymmdd>
20080429

> <Coord_Metals>
0

> <Index>
698

> <Canonical_Smiles>
COC(=O)C=C(C)OP(=O)(OC)OC

> <Molecular_Weight>
224.14828

> <Frequency>
1

$$$$

  SciTegic          2D

 53 56  0  0  0  0            999 V2000
   -2.5344   -2.8596    0.0000 C   0  0
   -3.7743   -3.5699    0.0000 C   0  0
   -5.0037   -1.4240    0.0000 N   0  0
   -5.0226   -2.8283    0.0000 N   0  0
   -6.3030   -0.6710    0.0000 C   0  0
   -6.3013    0.8299    0.0000 N   0  0
   -2.5428   -1.4076    0.0000 O   0  0
   -2.5540   -5.7000    0.0000 C   0  0
   -1.3043   -3.5695    0.0000 C   0  0
   -1.3141   -4.9896    0.0000 C   0  0
   -4.9990    1.5758    0.0000 C   0  0
   -3.8350   -2.1101    0.0000 C   0  0
   -3.7638   -0.7137    0.0000 C   0  0
  -11.4985    5.3318    0.0000 C   0  0
   -7.5998    1.5825    0.0000 C   0  0
   -2.5547   -7.1361    0.0000 C   0  0
   -7.3431   -1.2695    0.0000 O   0  0
   -0.0749   -5.7154    0.0000 C   0  0
  -11.4988    3.8310    0.0000 O   0  0
   -4.9952    2.7758    0.0000 O   0  0
   -3.8358   -0.9101    0.0000 O   0  0
   -7.6017    3.0825    0.0000 C   0  0
   -8.8981    0.8310    0.0000 C   0  0
  -12.5372    5.9328    0.0000 F   0  0
  -10.4589    5.9312    0.0000 F   0  0
  -11.4976    6.5318    0.0000 F   0  0
   -0.0665   -7.1674    0.0000 C   0  0
   -3.7014    0.8218    0.0000 O   0  0
  -10.1997    3.0794    0.0000 C   0  0
   -1.3064   -7.8777    0.0000 C   0  0
   -5.1346   -2.8609    0.0000 O   0  0
   -8.9016    3.8310    0.0000 C   0  0
  -10.1980    1.5794    0.0000 C   0  0
    0.9735   -7.7661    0.0000 Cl  0  0
   -2.3990    1.5677    0.0000 C   0  0
   -5.1351   -4.3617    0.0000 C   0  0
   -1.3243   -2.5697    0.0000 H   0  0
   -0.4519   -4.0923    0.0000 H   0  0
   -4.6424   -0.2361    0.0000 H   0  0
   -2.8869   -0.2330    0.0000 H   0  0
   -3.4239   -7.6304    0.0000 H   0  0
    0.7912   -5.2156    0.0000 H   0  0
   -6.7362    3.5835    0.0000 H   0  0
   -8.8969   -0.1690    0.0000 H   0  0
   -1.3143   -8.8777    0.0000 H   0  0
   -8.9028    4.8310    0.0000 H   0  0
  -11.0634    1.0784    0.0000 H   0  0
   -1.5344    1.0653    0.0000 H   0  0
   -1.5315    2.0651    0.0000 H   0  0
   -2.3959    2.5677    0.0000 H   0  0
   -6.0010   -4.8620    0.0000 H   0  0
   -5.1349   -5.3617    0.0000 H   0  0
   -4.2691   -4.8617    0.0000 H   0  0
  1  2  1  0
  1  7  1  0
  1  9  1  0
  1 12  1  0
  2  4  2  0
  2  8  1  0
  3  4  1  0
  3  5  1  0
  3 13  1  0
  5  6  1  0
  5 17  2  0
  6 11  1  0
  6 15  1  0
  7 13  1  0
  8 16  1  0
  8 10  2  0
  9 10  1  0
 10 18  1  0
 11 20  2  0
 11 28  1  0
 12 21  2  0
 12 31  1  0
 14 19  1  0
 14 24  1  0
 14 25  1  0
 14 26  1  0
 15 22  2  0
 15 23  1  0
 16 30  2  0
 18 27  2  0
 19 29  1  0
 22 32  1  0
 23 33  2  0
 27 34  1  0
 27 30  1  0
 28 35  1  0
 29 33  1  0
 29 32  2  0
 31 36  1  0
  9 37  1  0
  9 38  1  0
 13 39  1  0
 13 40  1  0
 16 41  1  0
 18 42  1  0
 22 43  1  0
 23 44  1  0
 30 45  1  0
 32 46  1  0
 33 47  1  0
 35 48  1  0
 35 49  1  0
 35 50  1  0
 36 51  1  0
 36 52  1  0
 36 53  1  0
V    1 0
V    2 1
V    3 2
V    4 3
V    5 4
V    6 5
V    7 6
V    8 7
V    9 8
V   10 9
V   11 10
V   12 11
V   13 12
V   14 13
V   15 14
V   16 15
V   17 16
V   18 17
V   19 18
V   20 19
V   21 20
V   22 21
V   23 22
V   24 23
V   25 24
V   26 25
V   27 26
V   28 27
V   29 28
V   30 29
V   31 30
V   32 31
V   33 32
V   34 33
V   35 34
V   36 35
M  END
> <DSSTox_RID>
65872

> <DSSTox_CID>
12690

> <DSSTox_CID_Parent>
12690

> <DSSTox_Generic_SID>
32690

> <DSSTox_FileID>
699_TXCST2_v1a

> <STRUCTURE_Formula>
C22H17ClF3N3O7

> <STRUCTURE_MolecularWeight>
527.8345

> <STRUCTURE_ChemicalType>
defined organic

> <STRUCTURE_TestedForm_DefinedOrganic>
parent

> <STRUCTURE_Shown>
tested chemical

> <TestSubstance_ChemicalName>
Indoxacarb

> <TestSubstance_CASRN>
173584-44-6

> <TestSubstance_Description>
single chemical compound

> <ChemicalNote>
stereochem

> <STRUCTURE_ChemicalName_IUPAC>
methyl (4aS)-7-chloro-2-{(methoxycarbonyl)[4-(trifluoromethoxy)phenyl]carbamoyl}-2,5-dihydroindeno[1,2-e][1,3,4]oxadiazine-4a(3H)-carboxylate

> <STRUCTURE_SMILES>
O=C(N(C(C=C4)=CC=C4OC(F)(F)F)C(OC)=O)N1N=C(C(C=CC(Cl)=C3)=C3C2)[C@@]2([C@](OC)=O)OC1

> <STRUCTURE_Parent_SMILES>
O=C(N(C(C=C4)=CC=C4OC(F)(F)F)C(OC)=O)N1N=C(C(C=CC(Cl)=C3)=C3C2)[C@@]2([C@](OC)=O)OC1

> <STRUCTURE_InChIS>
InChI=1S/C22H17ClF3N3O7/c1-33-18(30)21-10-12-9-13(23)3-8-16(12)17(21)27-28(11-35-21)19(31)29(20(32)34-2)14-4-6-15(7-5-14)36-22(24,25)26/h3-9H,10-11H2,1-2H3/t21-/m0/s1

> <STRUCTURE_InChIKey>
VBCVPMMZEGZULK-NRFANRHFSA-N

> <Substance_modify_yyyymmdd>
20080429

> <Coord_Metals>
0

> <Index>
699

> <Canonical_Smiles>
COC(=O)N(C(=O)N1COC2(Cc3cc(Cl)ccc3C2=N1)C(=O)OC)c4ccc(OC(F)(F)F)cc4

> <Molecular_Weight>
527.83448

> <Frequency>
1

$$$$

  SciTegic          2D

 10 10  0  0  0  0            999 V2000
    0.7500   -1.0323    0.0000 N   0  0
    1.2135    0.3943    0.0000 N   0  0
    0.0000    1.2760    0.0000 C   0  0
   -1.2135    0.3943    0.0000 N   0  0
   -0.7500   -1.0323    0.0000 C   0  0
   -2.6394    0.8543    0.0000 N   0  0
    0.0000    2.2760    0.0000 H   0  0
   -1.3378   -1.8413    0.0000 H   0  0
   -3.3816    0.1841    0.0000 H   0  0
   -2.8490    1.8321    0.0000 H   0  0
  1  2  1  0
  1  5  2  0
  2  3  2  0
  3  4  1  0
  4  5  1  0
  4  6  1  0
  3  7  1  0
  5  8  1  0
  6  9  1  0
  6 10  1  0
V    1 0
V    2 1
V    3 2
V    4 3
V    5 4
V    6 5
M  END
> <DSSTox_RID>
60948

> <DSSTox_CID>
13058

> <DSSTox_CID_Parent>
13058

> <DSSTox_Generic_SID>
33058

> <DSSTox_FileID>
700_TXCST2_v1a

> <STRUCTURE_Formula>
C2H4N4

> <STRUCTURE_MolecularWeight>
84.08

> <STRUCTURE_ChemicalType>
defined organic

> <STRUCTURE_TestedForm_DefinedOrganic>
parent

> <STRUCTURE_Shown>
tested chemical

> <TestSubstance_ChemicalName>
4-Amino-1,2,4-triazole

> <TestSubstance_CASRN>
584-13-4

> <TestSubstance_Description>
single chemical compound

> <STRUCTURE_ChemicalName_IUPAC>
4H-1,2,4-triazol-4-amine

> <STRUCTURE_SMILES>
NN1C=NN=C1

> <STRUCTURE_Parent_SMILES>
NN1C=NN=C1

> <STRUCTURE_InChIS>
InChI=1S/C2H4N4/c3-6-1-4-5-2-6/h1-2H,3H2

> <STRUCTURE_InChIKey>
FMCUPJKTGNBGEC-UHFFFAOYSA-N

> <Substance_modify_yyyymmdd>
20080429

> <Coord_Metals>
0

> <Index>
700

> <Canonical_Smiles>
Nn1cnnc1

> <Molecular_Weight>
84.07996

> <Frequency>
1

$$$$

  SciTegic          2D

 49 51  0  0  0  0            999 V2000
    1.2990   -0.7500    0.0000 C   0  0
    2.2619   -1.9018    0.0000 C   0  0
    1.2990    0.7500    0.0000 C   0  0
    0.0000   -1.5000    0.0000 C   0  0
    2.7362   -0.5003    0.0000 C   0  0
    3.1831   -3.0596    0.0000 C   0  0
    1.7465   -3.3113    0.0000 O   0  0
    0.0000    1.5000    0.0000 C   0  0
   -1.2990   -0.7500    0.0000 C   0  0
    4.2139   -0.2422    0.0000 C   0  0
    4.6608   -2.8016    0.0000 C   0  0
   -1.2990    0.7500    0.0000 C   0  0
    5.1761   -1.3929    0.0000 N   0  0
   -2.3383    1.3500    0.0000 Cl  0  0
    6.6546   -1.1348    0.0000 C   0  0
    7.1711    0.2744    0.0000 C   0  0
    8.6496    0.5325    0.0000 C   0  0
    9.1662    1.9417    0.0000 C   0  0
   10.6446    2.1998    0.0000 C   0  0
    8.3966    2.8624    0.0000 O   0  0
   11.1629    3.6074    0.0000 C   0  0
   11.6046    1.0472    0.0000 C   0  0
   12.6411    3.8625    0.0000 C   0  0
   13.0828    1.3022    0.0000 C   0  0
   13.6010    2.7098    0.0000 C   0  0
   14.7836    2.9138    0.0000 F   0  0
    2.1651    1.2500    0.0000 H   0  0
    0.0000   -2.5000    0.0000 H   0  0
    3.4040   -1.2446    0.0000 H   0  0
    3.0894    0.4353    0.0000 H   0  0
    3.5591   -2.1330    0.0000 H   0  0
    3.8325   -3.8201    0.0000 H   0  0
    2.3876   -4.0787    0.0000 H   0  0
    0.0000    2.5000    0.0000 H   0  0
   -2.1651   -1.2500    0.0000 H   0  0
    3.5544    0.5095    0.0000 H   0  0
    5.2027   -0.0934    0.0000 H   0  0
    4.2951   -3.7323    0.0000 H   0  0
    5.6415   -2.6065    0.0000 H   0  0
    6.3109   -2.0738    0.0000 H   0  0
    7.2959   -1.9021    0.0000 H   0  0
    6.1860    0.1028    0.0000 H   0  0
    6.5299    1.0417    0.0000 H   0  0
    9.6348    0.7041    0.0000 H   0  0
    9.2909   -0.2348    0.0000 H   0  0
   10.5230    4.3759    0.0000 H   0  0
   11.2592    0.1088    0.0000 H   0  0
   12.9866    4.8009    0.0000 H   0  0
   13.7227    0.5338    0.0000 H   0  0
  1  2  1  0
  1  3  2  0
  1  4  1  0
  2  5  1  0
  2  6  1  0
  2  7  1  0
  3  8  1  0
  4  9  2  0
  5 10  1  0
  6 11  1  0
  8 12  2  0
  9 12  1  0
 10 13  1  0
 11 13  1  0
 12 14  1  0
 13 15  1  0
 15 16  1  0
 16 17  1  0
 17 18  1  0
 18 19  1  0
 18 20  2  0
 19 21  1  0
 19 22  2  0
 21 23  2  0
 22 24  1  0
 23 25  1  0
 24 25  2  0
 25 26  1  0
  3 27  1  0
  4 28  1  0
  5 29  1  0
  5 30  1  0
  6 31  1  0
  6 32  1  0
  7 33  1  0
  8 34  1  0
  9 35  1  0
 10 36  1  0
 10 37  1  0
 11 38  1  0
 11 39  1  0
 15 40  1  0
 15 41  1  0
 16 42  1  0
 16 43  1  0
 17 44  1  0
 17 45  1  0
 21 46  1  0
 22 47  1  0
 23 48  1  0
 24 49  1  0
V    1 0
V    2 1
V    3 2
V    4 3
V    5 4
V    6 5
V    7 6
V    8 7
V    9 8
V   10 9
V   11 10
V   12 11
V   13 12
V   14 13
V   15 14
V   16 15
V   17 16
V   18 17
V   19 18
V   20 19
V   21 20
V   22 21
V   23 22
V   24 23
V   25 24
V   26 25
M  END
> <DSSTox_RID>
66085

> <DSSTox_CID>
14150

> <DSSTox_CID_Parent>
14150

> <DSSTox_Generic_SID>
34150

> <DSSTox_FileID>
701_TXCST2_v1a

> <STRUCTURE_Formula>
C21H23ClFNO2

> <STRUCTURE_MolecularWeight>
375.8642

> <STRUCTURE_ChemicalType>
defined organic

> <STRUCTURE_TestedForm_DefinedOrganic>
parent

> <STRUCTURE_Shown>
tested chemical

> <TestSubstance_ChemicalName>
Haloperidol

> <TestSubstance_CASRN>
52-86-8

> <TestSubstance_Description>
single chemical compound

> <STRUCTURE_ChemicalName_IUPAC>
4-[4-(4-chlorophenyl)-4-hydroxypiperidin-1-yl]-1-(4-fluorophenyl)butan-1-one

> <STRUCTURE_SMILES>
OC2(CCN(CCCC(C3=CC=C(F)C=C3)=O)CC2)C1=CC=C(Cl)C=C1

> <STRUCTURE_Parent_SMILES>
OC2(CCN(CCCC(C3=CC=C(F)C=C3)=O)CC2)C1=CC=C(Cl)C=C1

> <STRUCTURE_InChIS>
InChI=1S/C21H23ClFNO2/c22-18-7-5-17(6-8-18)21(26)11-14-24(15-12-21)13-1-2-20(25)16-3-9-19(23)10-4-16/h3-10,26H,1-2,11-15H2

> <STRUCTURE_InChIKey>
LNEPOXFFQSENCJ-UHFFFAOYSA-N

> <Substance_modify_yyyymmdd>
20080429

> <Coord_Metals>
0

> <Index>
701

> <Canonical_Smiles>
OC1(CCN(CCCC(=O)c2ccc(F)cc2)CC1)c3ccc(Cl)cc3

> <Molecular_Weight>
375.86422

> <Frequency>
1

$$$$

  SciTegic          2D

 41 41  0  0  0  0            999 V2000
    1.2990   -0.7500    0.0000 C   0  0
    1.2990    0.7500    0.0000 C   0  0
    0.0000   -1.5000    0.0000 C   0  0
    0.0000    1.5000    0.0000 C   0  0
   -1.2990   -0.7500    0.0000 C   0  0
   -1.2990    0.7500    0.0000 C   0  0
   -0.0031   -3.0008    0.0000 N   0  0
    2.5972    1.5031    0.0000 N   0  0
   -1.3039   -3.7494    0.0000 C   0  0
    1.2969   -3.7508    0.0000 C   0  0
   -1.3070   -5.2502    0.0000 C   0  0
   -2.6078   -5.9988    0.0000 C   0  0
    1.2983   -5.2517    0.0000 C   0  0
    2.5983   -6.0017    0.0000 C   0  0
    0.0000    3.0008    0.0000 C   0  0
    1.0388    3.6015    0.0000 F   0  0
   -1.0394    3.6005    0.0000 F   0  0
   -0.0006    4.2008    0.0000 F   0  0
    2.5973   -1.5031    0.0000 N   0  0
    2.5956   -2.7031    0.0000 O   0  0
    3.6375   -0.9049    0.0000 O   0  0
   -2.6003   -1.4978    0.0000 N   0  0
   -3.6387   -0.8963    0.0000 O   0  0
   -2.6024   -2.6978    0.0000 O   0  0
   -2.1651    1.2500    0.0000 H   0  0
    2.5958    2.5031    0.0000 H   0  0
    3.4641    1.0046    0.0000 H   0  0
   -1.3023   -2.7494    0.0000 H   0  0
   -2.1691   -3.2479    0.0000 H   0  0
    1.2964   -2.7508    0.0000 H   0  0
    2.1626   -3.2503    0.0000 H   0  0
   -0.4400   -4.7519    0.0000 H   0  0
   -0.4418   -5.7517    0.0000 H   0  0
   -2.6099   -6.9988    0.0000 H   0  0
   -3.4748   -6.4971    0.0000 H   0  0
   -3.4730   -5.4973    0.0000 H   0  0
    0.4319   -4.7523    0.0000 H   0  0
    0.4326   -5.7522    0.0000 H   0  0
    2.5993   -7.0017    0.0000 H   0  0
    3.4648   -6.5010    0.0000 H   0  0
    3.4640   -5.5011    0.0000 H   0  0
  1  2  1  0
  1  3  2  0
  1 19  1  0
  2  4  2  0
  2  8  1  0
  3  5  1  0
  3  7  1  0
  4  6  1  0
  4 15  1  0
  5  6  2  0
  5 22  1  0
  7  9  1  0
  7 10  1  0
  9 11  1  0
 10 13  1  0
 11 12  1  0
 13 14  1  0
 15 16  1  0
 15 17  1  0
 15 18  1  0
 19 20  2  0
 19 21  2  0
 22 23  2  0
 22 24  2  0
  6 25  1  0
  8 26  1  0
  8 27  1  0
  9 28  1  0
  9 29  1  0
 10 30  1  0
 10 31  1  0
 11 32  1  0
 11 33  1  0
 12 34  1  0
 12 35  1  0
 12 36  1  0
 13 37  1  0
 13 38  1  0
 14 39  1  0
 14 40  1  0
 14 41  1  0
V    1 0
V    2 1
V    3 2
V    4 3
V    5 4
V    6 5
V    7 6
V    8 7
V    9 8
V   10 9
V   11 10
V   12 11
V   13 12
V   14 13
V   15 14
V   16 15
V   17 16
V   18 17
V   19 18
V   20 19
V   21 20
V   22 21
V   23 22
V   24 23
M  END
> <DSSTox_RID>
62351

> <DSSTox_CID>
14210

> <DSSTox_CID_Parent>
14210

> <DSSTox_Generic_SID>
34210

> <DSSTox_FileID>
703_TXCST2_v1a

> <STRUCTURE_Formula>
C13H17F3N4O4

> <STRUCTURE_MolecularWeight>
350.2937

> <STRUCTURE_ChemicalType>
defined organic

> <STRUCTURE_TestedForm_DefinedOrganic>
parent

> <STRUCTURE_Shown>
tested chemical

> <TestSubstance_ChemicalName>
Prodiamine

> <TestSubstance_CASRN>
29091-21-2

> <TestSubstance_Description>
single chemical compound

> <STRUCTURE_ChemicalName_IUPAC>
2,6-dinitro-N,N-dipropyl-4-(trifluoromethyl)benzene-1,3-diamine

> <STRUCTURE_SMILES>
NC1=C(C(F)(F)F)C=C([N+]([O-])=O)C(N(CCC)CCC)=C1[N+]([O-])=O

> <STRUCTURE_Parent_SMILES>
NC1=C(C(F)(F)F)C=C([N+]([O-])=O)C(N(CCC)CCC)=C1[N+]([O-])=O

> <STRUCTURE_InChIS>
InChI=1S/C13H17F3N4O4/c1-3-5-18(6-4-2)11-9(19(21)22)7-8(13(14,15)16)10(17)12(11)20(23)24/h7H,3-6,17H2,1-2H3

> <STRUCTURE_InChIKey>
RSVPPPHXAASNOL-UHFFFAOYSA-N

> <Substance_modify_yyyymmdd>
20080429

> <Coord_Metals>
0

> <Index>
703

> <Canonical_Smiles>
CCCN(CCC)c1c(cc(c(N)c1N(=O)=O)C(F)(F)F)N(=O)=O

> <Molecular_Weight>
350.29368

> <Frequency>
1

$$$$

  SciTegic          2D

 56 57  0  0  0  0            999 V2000
   -1.8930   -3.3688    0.0000 N   0  0
   -1.4391   -1.9383    0.0000 C   0  0
   -0.8574   -0.4287    0.0000 O   0  0
    0.0186   -1.6401    0.0000 C   0  0
    1.4351   -1.1556    0.0000 C   0  0
    1.4351    0.3168    0.0000 O   0  0
    0.0186    0.7828    0.0000 C   0  0
    1.3979    1.3979    0.0000 C   0  0
    1.5656    2.8889    0.0000 C   0  0
    0.3168    3.8022    0.0000 C   0  0
   -1.0251    3.1871    0.0000 C   0  0
   -1.1742    1.6588    0.0000 C   0  0
    1.6816    4.3771    0.0000 C   0  0
    1.9049    5.8612    0.0000 C   0  0
    2.8555    3.4421    0.0000 C   0  0
    0.4866    5.3326    0.0000 C   0  0
   -0.8831   -4.4790    0.0000 C   0  0
   -1.3386   -5.9090    0.0000 C   0  0
   -3.3587   -3.6919    0.0000 C   0  0
   -3.8126   -5.1224    0.0000 C   0  0
   -5.2783   -5.4455    0.0000 C   0  0
   -2.4158   -2.1531    0.0000 H   0  0
   -2.1136   -1.2000    0.0000 H   0  0
    0.7030   -2.3693    0.0000 H   0  0
    1.3228   -2.1492    0.0000 H   0  0
    2.3390   -0.7277    0.0000 H   0  0
    0.6052    2.0075    0.0000 H   0  0
    2.3029    1.8232    0.0000 H   0  0
    1.6520    3.8852    0.0000 H   0  0
    2.3575    2.2783    0.0000 H   0  0
   -0.5082    4.3672    0.0000 H   0  0
   -1.9248    2.7505    0.0000 H   0  0
   -0.2247    2.5877    0.0000 H   0  0
   -1.2535    0.6619    0.0000 H   0  0
   -1.9696    2.2649    0.0000 H   0  0
    2.8354    6.2274    0.0000 H   0  0
    2.0532    6.8502    0.0000 H   0  0
    1.1227    6.4843    0.0000 H   0  0
    3.7864    3.8074    0.0000 H   0  0
    3.6374    2.8187    0.0000 H   0  0
    2.7067    2.4532    0.0000 H   0  0
    0.6364    6.3213    0.0000 H   0  0
   -0.2947    5.9567    0.0000 H   0  0
   -0.4446    4.9681    0.0000 H   0  0
    0.0939   -4.2657    0.0000 H   0  0
   -0.5791   -3.5263    0.0000 H   0  0
   -0.6656   -6.6487    0.0000 H   0  0
   -2.3156   -6.1223    0.0000 H   0  0
   -1.6426   -6.8617    0.0000 H   0  0
   -4.0332   -2.9536    0.0000 H   0  0
   -3.0567   -2.7386    0.0000 H   0  0
   -3.1382   -5.8607    0.0000 H   0  0
   -2.8360   -4.9076    0.0000 H   0  0
   -5.5807   -6.3987    0.0000 H   0  0
   -5.9527   -4.7072    0.0000 H   0  0
   -6.2549   -5.6603    0.0000 H   0  0
  1  2  1  0
  1 17  1  0
  1 19  1  0
  2  4  1  0
  3  4  1  0
  3  7  1  0
  4  5  1  0
  5  6  1  0
  6  7  1  0
  7  8  1  0
  7 12  1  0
  8  9  1  0
  9 10  1  0
 10 11  1  0
 10 13  1  0
 11 12  1  0
 13 14  1  0
 13 15  1  0
 13 16  1  0
 17 18  1  0
 19 20  1  0
 20 21  1  0
  2 22  1  0
  2 23  1  0
  4 24  1  0
  5 25  1  0
  5 26  1  0
  8 27  1  0
  8 28  1  0
  9 29  1  0
  9 30  1  0
 10 31  1  0
 11 32  1  0
 11 33  1  0
 12 34  1  0
 12 35  1  0
 14 36  1  0
 14 37  1  0
 14 38  1  0
 15 39  1  0
 15 40  1  0
 15 41  1  0
 16 42  1  0
 16 43  1  0
 16 44  1  0
 17 45  1  0
 17 46  1  0
 18 47  1  0
 18 48  1  0
 18 49  1  0
 19 50  1  0
 19 51  1  0
 20 52  1  0
 20 53  1  0
 21 54  1  0
 21 55  1  0
 21 56  1  0
V    1 0
V    2 1
V    3 2
V    4 3
V    5 4
V    6 5
V    7 6
V    8 7
V    9 8
V   10 9
V   11 10
V   12 11
V   13 12
V   14 13
V   15 14
V   16 15
V   17 16
V   18 17
V   19 18
V   20 19
V   21 20
M  END
> <DSSTox_RID>
65327

> <DSSTox_CID>
14212

> <DSSTox_CID_Parent>
14212

> <DSSTox_Generic_SID>
34212

> <DSSTox_FileID>
704_TXCST2_v1a

> <STRUCTURE_Formula>
C18H35NO2

> <STRUCTURE_MolecularWeight>
297.476

> <STRUCTURE_ChemicalType>
defined organic

> <STRUCTURE_TestedForm_DefinedOrganic>
parent

> <STRUCTURE_Shown>
tested chemical

> <TestSubstance_ChemicalName>
Spiroxamine

> <TestSubstance_CASRN>
118134-30-8

> <TestSubstance_Description>
single chemical compound

> <Source_ChemicalNote>
tested chemical was a mixture of isomers

> <STRUCTURE_ChemicalName_IUPAC>
N-[(8-tert-butyl-1,4-dioxaspiro[4.5]dec-2-yl)methyl]-N-ethylpropan-1-amine

> <STRUCTURE_SMILES>
CC(C)(C)C(CC2)CCC12OC(CO1)CN(CCC)CC

> <STRUCTURE_Parent_SMILES>
CC(C)(C)C(CC2)CCC12OC(CO1)CN(CCC)CC

> <STRUCTURE_InChIS>
InChI=1S/C18H35NO2/c1-6-12-19(7-2)13-16-14-20-18(21-16)10-8-15(9-11-18)17(3,4)5/h15-16H,6-14H2,1-5H3

> <STRUCTURE_InChIKey>
PUYXTUJWRLOUCW-UHFFFAOYSA-N

> <Substance_modify_yyyymmdd>
20080429

> <Coord_Metals>
0

> <Index>
704

> <Canonical_Smiles>
CCCN(CC)CC1COC2(CCC(CC2)C(C)(C)C)O1

> <Molecular_Weight>
297.476

> <Frequency>
1

$$$$

  SciTegic          2D

 47 48  0  0  0  0            999 V2000
    8.8534   -0.2546    0.0000 N   0  0
    7.8513   -1.3707    0.0000 N   0  0
    6.6348    0.7294    0.0000 C   0  0
    6.4990   -0.7516    0.0000 C   0  0
    8.1015    1.0434    0.0000 C   0  0
    5.1988   -1.5012    0.0000 C   0  0
    5.1984   -2.7012    0.0000 O   0  0
    3.8990   -0.7508    0.0000 N   0  0
    5.7371    1.5258    0.0000 Cl  0  0
    2.5988   -1.5004    0.0000 C   0  0
    1.2990   -0.7500    0.0000 C   0  0
    1.2990    0.7500    0.0000 C   0  0
    0.0000   -1.5000    0.0000 C   0  0
    0.0000    1.5000    0.0000 C   0  0
   -1.2990   -0.7500    0.0000 C   0  0
   -1.2990    0.7500    0.0000 C   0  0
   -2.7771    1.0106    0.0000 C   0  0
   -3.2913    2.4206    0.0000 C   0  0
   -3.7414   -0.1393    0.0000 C   0  0
   -1.7918    2.1811    0.0000 C   0  0
    8.7090    2.4130    0.0000 C   0  0
   10.2013    2.5729    0.0000 C   0  0
    8.1536   -2.8381    0.0000 C   0  0
    3.8993    0.2492    0.0000 H   0  0
    2.5985   -2.5004    0.0000 H   0  0
    3.4646   -2.0008    0.0000 H   0  0
    2.1651    1.2500    0.0000 H   0  0
    0.0000   -2.5000    0.0000 H   0  0
    0.0000    2.5000    0.0000 H   0  0
   -2.1651   -1.2500    0.0000 H   0  0
   -4.2761    2.5942    0.0000 H   0  0
   -2.6487    3.1868    0.0000 H   0  0
   -3.6335    3.3602    0.0000 H   0  0
   -4.7263    0.0334    0.0000 H   0  0
   -3.3987   -1.0788    0.0000 H   0  0
   -4.3835   -0.9059    0.0000 H   0  0
   -0.8072    2.0065    0.0000 H   0  0
   -1.1482    2.9464    0.0000 H   0  0
   -2.1327    3.1212    0.0000 H   0  0
    8.1198    3.2210    0.0000 H   0  0
    7.7146    2.3069    0.0000 H   0  0
   10.6067    3.4870    0.0000 H   0  0
   10.7904    1.7649    0.0000 H   0  0
   11.1956    2.6790    0.0000 H   0  0
    9.1025   -3.1537    0.0000 H   0  0
    7.4060   -3.5023    0.0000 H   0  0
    8.3549   -3.8176    0.0000 H   0  0
  1  2  1  0
  1  5  2  0
  2  4  1  0
  2 23  1  0
  3  4  2  0
  3  5  1  0
  3  9  1  0
  4  6  1  0
  5 21  1  0
  6  7  2  0
  6  8  1  0
  8 10  1  0
 10 11  1  0
 11 12  2  0
 11 13  1  0
 12 14  1  0
 13 15  2  0
 14 16  2  0
 15 16  1  0
 16 17  1  0
 17 18  1  0
 17 19  1  0
 17 20  1  0
 21 22  1  0
  8 24  1  0
 10 25  1  0
 10 26  1  0
 12 27  1  0
 13 28  1  0
 14 29  1  0
 15 30  1  0
 18 31  1  0
 18 32  1  0
 18 33  1  0
 19 34  1  0
 19 35  1  0
 19 36  1  0
 20 37  1  0
 20 38  1  0
 20 39  1  0
 21 40  1  0
 21 41  1  0
 22 42  1  0
 22 43  1  0
 22 44  1  0
 23 45  1  0
 23 46  1  0
 23 47  1  0
V    1 0
V    2 1
V    3 2
V    4 3
V    5 4
V    6 5
V    7 6
V    8 7
V    9 8
V   10 9
V   11 10
V   12 11
V   13 12
V   14 13
V   15 14
V   16 15
V   17 16
V   18 17
V   19 18
V   20 19
V   21 20
V   22 21
V   23 22
M  END
> <DSSTox_RID>
66412

> <DSSTox_CID>
14223

> <DSSTox_CID_Parent>
14223

> <DSSTox_Generic_SID>
34223

> <DSSTox_FileID>
705_TXCST2_v1a

> <STRUCTURE_Formula>
C18H24ClN3O

> <STRUCTURE_MolecularWeight>
333.8557

> <STRUCTURE_ChemicalType>
defined organic

> <STRUCTURE_TestedForm_DefinedOrganic>
parent

> <STRUCTURE_Shown>
tested chemical

> <TestSubstance_ChemicalName>
Tebufenpyrad

> <TestSubstance_CASRN>
119168-77-3

> <TestSubstance_Description>
single chemical compound

> <STRUCTURE_ChemicalName_IUPAC>
N-(4-tert-butylbenzyl)-4-chloro-3-ethyl-1-methyl-1H-pyrazole-5-carboxamide

> <STRUCTURE_SMILES>
O=C(NCC2=CC=C(C(C)(C)C)C=C2)C1=C(Cl)C(CC)=NN1C

> <STRUCTURE_Parent_SMILES>
O=C(NCC2=CC=C(C(C)(C)C)C=C2)C1=C(Cl)C(CC)=NN1C

> <STRUCTURE_InChIS>
InChI=1S/C18H24ClN3O/c1-6-14-15(19)16(22(5)21-14)17(23)20-11-12-7-9-13(10-8-12)18(2,3)4/h7-10H,6,11H2,1-5H3,(H,20,23)

> <STRUCTURE_InChIKey>
ZZYSLNWGKKDOML-UHFFFAOYSA-N

> <Substance_modify_yyyymmdd>
20080429

> <Coord_Metals>
0

> <Index>
705

> <Canonical_Smiles>
CCc1nn(C)c(C(=O)NCc2ccc(cc2)C(C)(C)C)c1Cl

> <Molecular_Weight>
333.85566

> <Frequency>
1

$$$$

  SciTegic          2D

 39 39  0  0  0  0            999 V2000
    1.2990   -0.7500    0.0000 N   0  0
    1.2990    0.7500    0.0000 C   0  0
    0.0000   -1.5000    0.0000 C   0  0
    0.0000    1.5000    0.0000 C   0  0
   -1.2990   -0.7500    0.0000 C   0  0
   -1.2990    0.7500    0.0000 C   0  0
    2.2614   -1.9017    0.0000 C   0  0
    3.4435   -1.6954    0.0000 O   0  0
    1.7461   -3.3113    0.0000 O   0  0
    2.5625   -0.0215    0.0000 C   0  0
    3.8979    0.6634    0.0000 C   0  0
    5.1593   -0.1498    0.0000 O   0  0
    2.7084   -4.4629    0.0000 C   0  0
    2.1931   -5.8725    0.0000 C   0  0
    3.1554   -7.0242    0.0000 C   0  0
    1.2008   -4.7232    0.0000 C   0  0
    1.2745    1.7497    0.0000 H   0  0
   -0.8776   -1.9794    0.0000 H   0  0
    0.8775   -1.9795    0.0000 H   0  0
   -0.0236    0.5003    0.0000 H   0  0
   -0.8775    1.9795    0.0000 H   0  0
   -2.1530   -0.2297    0.0000 H   0  0
   -0.4450   -0.2298    0.0000 H   0  0
   -1.2755    1.7497    0.0000 H   0  0
   -2.1531    0.2298    0.0000 H   0  0
    3.4027   -0.5638    0.0000 H   0  0
    2.5132   -1.0203    0.0000 H   0  0
    4.7875    1.1202    0.0000 H   0  0
    3.9473    1.6622    0.0000 H   0  0
    6.0491    0.3066    0.0000 H   0  0
    3.6935   -4.2910    0.0000 H   0  0
    1.5515   -5.1055    0.0000 H   0  0
    1.2080   -6.0445    0.0000 H   0  0
    2.8121   -7.9634    0.0000 H   0  0
    3.7970   -7.7913    0.0000 H   0  0
    4.1406   -6.8523    0.0000 H   0  0
    0.5603   -3.9552    0.0000 H   0  0
    0.2154   -4.8937    0.0000 H   0  0
    0.8556   -5.6617    0.0000 H   0  0
  1  2  1  0
  1  3  1  0
  1  7  1  0
  2  4  1  0
  2 10  1  0
  3  5  1  0
  4  6  1  0
  5  6  1  0
  7  8  2  0
  7  9  1  0
  9 13  1  0
 10 11  1  0
 11 12  1  0
 13 14  1  0
 13 16  1  0
 14 15  1  0
  2 17  1  0
  3 18  1  0
  3 19  1  0
  4 20  1  0
  4 21  1  0
  5 22  1  0
  5 23  1  0
  6 24  1  0
  6 25  1  0
 10 26  1  0
 10 27  1  0
 11 28  1  0
 11 29  1  0
 12 30  1  0
 13 31  1  0
 14 32  1  0
 14 33  1  0
 15 34  1  0
 15 35  1  0
 15 36  1  0
 16 37  1  0
 16 38  1  0
 16 39  1  0
V    1 0
V    2 1
V    3 2
V    4 3
V    5 4
V    6 5
V    7 6
V    8 7
V    9 8
V   10 9
V   11 10
V   12 11
V   13 12
V   14 13
V   15 14
V   16 15
M  END
> <DSSTox_RID>
62416

> <DSSTox_CID>
14227

> <DSSTox_CID_Parent>
14227

> <DSSTox_Generic_SID>
34227

> <DSSTox_FileID>
706_TXCST2_v1a

> <STRUCTURE_Formula>
C12H23NO3

> <STRUCTURE_MolecularWeight>
229.3159

> <STRUCTURE_ChemicalType>
defined organic

> <STRUCTURE_TestedForm_DefinedOrganic>
parent

> <STRUCTURE_Shown>
tested chemical

> <TestSubstance_ChemicalName>
Icaridin

> <TestSubstance_CASRN>
119515-38-7

> <TestSubstance_Description>
single chemical compound

> <ChemicalNote>
mixture of (1R,S) and (2R,S) stereoisomers; structure shown without stereochem

> <STRUCTURE_ChemicalName_IUPAC>
sec-butyl 2-(2-hydroxyethyl)piperidine-1-carboxylate

> <STRUCTURE_SMILES>
O=C(OC(C)CC)N1C(CCO)CCCC1

> <STRUCTURE_Parent_SMILES>
O=C(OC(C)CC)N1C(CCO)CCCC1

> <STRUCTURE_InChIS>
InChI=1S/C12H23NO3/c1-3-10(2)16-12(15)13-8-5-4-6-11(13)7-9-14/h10-11,14H,3-9H2,1-2H3

> <STRUCTURE_InChIKey>
QLHULAHOXSSASE-UHFFFAOYSA-N

> <Substance_modify_yyyymmdd>
20080429

> <Coord_Metals>
0

> <Index>
706

> <Canonical_Smiles>
CCC(C)OC(=O)N1CCCCC1CCO

> <Molecular_Weight>
229.31591

> <Frequency>
1

$$$$

  SciTegic          2D

 22 22  0  0  0  0            999 V2000
    3.8933   -3.7570    0.0000 C   0  0
    2.5951   -3.0039    0.0000 C   0  0
    3.9200   -2.2388    0.0000 C   0  0
    4.9336   -3.1588    0.0000 O   0  0
    3.8912   -5.2578    0.0000 O   0  0
    2.5973   -1.5031    0.0000 O   0  0
    1.2990   -0.7500    0.0000 C   0  0
    1.2990    0.7500    0.0000 C   0  0
    0.0000   -1.5000    0.0000 C   0  0
    0.0000    1.5000    0.0000 C   0  0
   -1.2990   -0.7500    0.0000 C   0  0
   -1.2990    0.7500    0.0000 C   0  0
    0.0000    2.7000    0.0000 Cl  0  0
    1.7282   -3.5024    0.0000 H   0  0
    3.9205   -1.2388    0.0000 H   0  0
    4.7862   -1.7390    0.0000 H   0  0
    4.7860   -2.7389    0.0000 H   0  0
    4.7562   -5.7596    0.0000 H   0  0
    2.1651    1.2500    0.0000 H   0  0
    0.0000   -2.5000    0.0000 H   0  0
   -2.1651   -1.2500    0.0000 H   0  0
   -2.1651    1.2500    0.0000 H   0  0
  1  2  1  0
  1  5  1  0
  1  4  2  0
  2  3  1  0
  2  6  1  0
  6  7  1  0
  7  8  2  0
  7  9  1  0
  8 10  1  0
  9 11  2  0
 10 12  2  0
 10 13  1  0
 11 12  1  0
  2 14  1  0
  3 15  1  0
  3 16  1  0
  3 17  1  0
  5 18  1  0
  8 19  1  0
  9 20  1  0
 11 21  1  0
 12 22  1  0
V    1 0
V    2 1
V    3 2
V    4 3
V    5 4
V    6 5
V    7 6
V    8 7
V    9 8
V   10 9
V   11 10
V   12 11
V   13 12
M  END
> <DSSTox_RID>
62360

> <DSSTox_CID>
14232

> <DSSTox_CID_Parent>
14232

> <DSSTox_Generic_SID>
34232

> <DSSTox_FileID>
707_TXCST2_v1a

> <STRUCTURE_Formula>
C9H9ClO3

> <STRUCTURE_MolecularWeight>
200.619

> <STRUCTURE_ChemicalType>
defined organic

> <STRUCTURE_TestedForm_DefinedOrganic>
parent

> <STRUCTURE_Shown>
tested chemical

> <TestSubstance_ChemicalName>
Cloprop

> <TestSubstance_CASRN>
101-10-0

> <TestSubstance_Description>
single chemical compound

> <STRUCTURE_ChemicalName_IUPAC>
2-(3-chlorophenoxy)propanoic acid

> <STRUCTURE_SMILES>
O=C(O)C(OC1=CC(Cl)=CC=C1)C

> <STRUCTURE_Parent_SMILES>
O=C(O)C(OC1=CC(Cl)=CC=C1)C

> <STRUCTURE_InChIS>
InChI=1S/C9H9ClO3/c1-6(9(11)12)13-8-4-2-3-7(10)5-8/h2-6H,1H3,(H,11,12)

> <STRUCTURE_InChIKey>
YNTJKQDWYXUTLZ-UHFFFAOYSA-N

> <Substance_modify_yyyymmdd>
20080429

> <Coord_Metals>
0

> <Index>
707

> <Canonical_Smiles>
CC(Oc1cccc(Cl)c1)C(=O)O

> <Molecular_Weight>
200.61895

> <Frequency>
1

$$$$

  SciTegic          2D

 47 48  0  0  0  0            999 V2000
    1.2990   -0.7500    0.0000 C   0  0
    1.2990    0.7500    0.0000 C   0  0
    0.0000    1.5000    0.0000 C   0  0
   -1.2990    0.7500    0.0000 C   0  0
   -1.2990   -0.7500    0.0000 C   0  0
    0.0000   -1.5000    0.0000 C   0  0
    2.3383   -1.3500    0.0000 O   0  0
    2.5972    1.5031    0.0000 C   0  0
    3.8999    0.7576    0.0000 C   0  0
    5.1972    1.5122    0.0000 C   0  0
    2.5951    3.0039    0.0000 N   0  0
    3.8933    3.7570    0.0000 O   0  0
    3.8912    5.2578    0.0000 C   0  0
    5.1894    6.0109    0.0000 C   0  0
    5.1872    7.5118    0.0000 C   0  0
    6.2252    8.1139    0.0000 Cl  0  0
    0.0031    3.0008    0.0000 O   0  0
   -3.8069   -3.7384    0.0000 O   0  0
   -3.8247   -2.2385    0.0000 C   0  0
   -2.5346   -1.4732    0.0000 C   0  0
   -1.2641   -2.2299    0.0000 C   0  0
   -1.2090   -3.7076    0.0000 C   0  0
   -2.4991   -4.4729    0.0000 C   0  0
   -2.1530    0.2297    0.0000 H   0  0
   -1.2756    1.7497    0.0000 H   0  0
   -0.4215   -0.2705    0.0000 H   0  0
   -0.8776   -1.9794    0.0000 H   0  0
    0.8775   -1.9795    0.0000 H   0  0
    3.0357    0.2545    0.0000 H   0  0
    3.9033   -0.2424    0.0000 H   0  0
    6.0651    1.0155    0.0000 H   0  0
    6.0614    2.0153    0.0000 H   0  0
    5.1937    2.5122    0.0000 H   0  0
    3.0259    4.7565    0.0000 H   0  0
    3.0243    5.7563    0.0000 H   0  0
    6.0563    5.5125    0.0000 H   0  0
    4.3203    8.0102    0.0000 H   0  0
    0.8698    3.4996    0.0000 H   0  0
   -3.8129   -1.2385    0.0000 H   0  0
   -4.6725   -2.7687    0.0000 H   0  0
   -2.5580   -2.4729    0.0000 H   0  0
   -3.4112   -0.9919    0.0000 H   0  0
   -0.3980   -2.7298    0.0000 H   0  0
   -2.0976   -3.2489    0.0000 H   0  0
   -1.2069   -4.7076    0.0000 H   0  0
   -1.6159   -4.9419    0.0000 H   0  0
   -3.3709   -4.9628    0.0000 H   0  0
  1  2  1  0
  1  6  1  0
  1  7  2  0
  2  3  2  0
  2  8  1  0
  3  4  1  0
  3 17  1  0
  4  5  1  0
  5  6  1  0
  5 21  1  0
  8  9  1  0
  8 11  2  0
  9 10  1  0
 11 12  1  0
 12 13  1  0
 13 14  1  0
 14 15  2  0
 15 16  1  0
 18 19  1  0
 18 23  1  0
 19 20  1  0
 20 21  1  0
 21 22  1  0
 22 23  1  0
  4 24  1  0
  4 25  1  0
  5 26  1  0
  6 27  1  0
  6 28  1  0
  9 29  1  0
  9 30  1  0
 10 31  1  0
 10 32  1  0
 10 33  1  0
 13 34  1  0
 13 35  1  0
 14 36  1  0
 15 37  1  0
 17 38  1  0
 19 39  1  0
 19 40  1  0
 20 41  1  0
 20 42  1  0
 21 43  1  0
 22 44  1  0
 22 45  1  0
 23 46  1  0
 23 47  1  0
V    1 0
V    2 1
V    3 2
V    4 3
V    5 4
V    6 5
V    7 6
V    8 7
V    9 8
V   10 9
V   11 10
V   12 11
V   13 12
V   14 13
V   15 14
V   16 15
V   17 16
V   18 17
V   19 18
V   20 19
V   21 20
V   22 21
V   23 22
M  END
> <DSSTox_RID>
65287

> <DSSTox_CID>
14252

> <DSSTox_CID_Parent>
14252

> <DSSTox_Generic_SID>
34252

> <DSSTox_FileID>
708_TXCST2_v1a

> <STRUCTURE_Formula>
C17H24ClNO4

> <STRUCTURE_MolecularWeight>
341.8298

> <STRUCTURE_ChemicalType>
defined organic

> <STRUCTURE_TestedForm_DefinedOrganic>
parent

> <STRUCTURE_Shown>
tested chemical

> <TestSubstance_ChemicalName>
Tepraloxydim

> <TestSubstance_CASRN>
149979-41-9

> <TestSubstance_Description>
single chemical compound

> <ChemicalNote>
stereochem

> <Source_ChemicalNote>
tested chemical contained 0.1% water (0.02 moles H2O)

> <STRUCTURE_ChemicalName_IUPAC>
2-[(1E)-N-{[(2E)-3-chloroprop-2-en-1-yl]oxy}propanimidoyl]-3-hydroxy-5-(tetrahydro-2H-pyran-4-yl)cyclohex-2-en-1-one

> <STRUCTURE_SMILES>
O=C1C(/C(CC)=N/OC/C=C/Cl)=C(O)CC(C2CCOCC2)C1

> <STRUCTURE_Parent_SMILES>
O=C1C(/C(CC)=N/OC/C=C/Cl)=C(O)CC(C2CCOCC2)C1

> <STRUCTURE_InChIS>
InChI=1S/C17H24ClNO4/c1-2-14(19-23-7-3-6-18)17-15(20)10-13(11-16(17)21)12-4-8-22-9-5-12/h3,6,12-13,20H,2,4-5,7-11H2,1H3/b6-3+,19-14+

> <STRUCTURE_InChIKey>
IOYNQIMAUDJVEI-BMVIKAAMSA-N

> <Substance_modify_yyyymmdd>
20080429

> <Coord_Metals>
0

> <Index>
708

> <Canonical_Smiles>
CCC(=NOCC=CCl)C1=C(O)CC(CC1=O)C2CCOCC2

> <Molecular_Weight>
341.82976

> <Frequency>
1

$$$$

  SciTegic          2D

 37 38  0  0  0  0            999 V2000
   -4.9530   -1.9978    0.0000 C   0  0
   -3.9511   -0.8815    0.0000 N   0  0
   -4.2010   -3.2957    0.0000 C   0  0
   -2.5987   -1.5004    0.0000 C   0  0
   -2.7343   -2.9815    0.0000 N   0  0
    1.2990   -0.7500    0.0000 C   0  0
    1.2990    0.7500    0.0000 C   0  0
    0.0000   -1.5000    0.0000 C   0  0
    0.0000    1.5000    0.0000 C   0  0
   -1.2990   -0.7500    0.0000 C   0  0
   -1.2990    0.7500    0.0000 N   0  0
    2.5988    1.5004    0.0000 C   0  0
   -0.0031   -3.0008    0.0000 C   0  0
    1.0351   -3.6026    0.0000 O   0  0
   -1.3039   -3.7494    0.0000 O   0  0
   -6.1467   -1.8743    0.0000 O   0  0
   -5.6824   -3.4298    0.0000 C   0  0
   -3.3056   -4.4839    0.0000 C   0  0
   -6.3348   -4.7814    0.0000 C   0  0
   -4.8237   -4.6960    0.0000 C   0  0
   -4.1548    0.0975    0.0000 H   0  0
    2.1651   -1.2500    0.0000 H   0  0
    0.0000    2.5000    0.0000 H   0  0
    3.4651    1.0010    0.0000 H   0  0
    2.5985    2.5004    0.0000 H   0  0
    3.4646    2.0008    0.0000 H   0  0
   -1.3060   -4.7494    0.0000 H   0  0
   -6.2452   -2.6032    0.0000 H   0  0
   -3.7102   -5.3984    0.0000 H   0  0
   -2.7160   -5.2917    0.0000 H   0  0
   -2.3113   -4.3774    0.0000 H   0  0
   -7.3320   -4.8559    0.0000 H   0  0
   -6.7691   -5.6822    0.0000 H   0  0
   -5.7720   -5.6080    0.0000 H   0  0
   -5.2592   -5.5962    0.0000 H   0  0
   -4.2620   -5.5234    0.0000 H   0  0
   -3.8263   -4.6235    0.0000 H   0  0
  1  2  1  0
  1  3  1  0
  1 16  2  0
  2  4  1  0
  3  5  1  0
  3 17  1  0
  3 18  1  0
  4  5  2  0
  4 10  1  0
  6  7  2  0
  6  8  1  0
  7  9  1  0
  7 12  1  0
  8 10  2  0
  8 13  1  0
  9 11  2  0
 10 11  1  0
 13 14  2  0
 13 15  1  0
 17 19  1  0
 17 20  1  0
  2 21  1  0
  6 22  1  0
  9 23  1  0
 12 24  1  0
 12 25  1  0
 12 26  1  0
 15 27  1  0
 17 28  1  0
 18 29  1  0
 18 30  1  0
 18 31  1  0
 19 32  1  0
 19 33  1  0
 19 34  1  0
 20 35  1  0
 20 36  1  0
 20 37  1  0
V    1 0
V    2 1
V    3 2
V    4 3
V    5 4
V    6 5
V    7 6
V    8 7
V    9 8
V   10 9
V   11 10
V   12 11
V   13 12
V   14 13
V   15 14
V   16 15
V   17 16
V   18 17
V   19 18
V   20 19
M  END
> <DSSTox_RID>
61183

> <DSSTox_CID>
14270

> <DSSTox_CID_Parent>
14270

> <DSSTox_Generic_SID>
34270

> <DSSTox_FileID>
710_TXCST2_v1a

> <STRUCTURE_Formula>
C14H17N3O3

> <STRUCTURE_MolecularWeight>
275.3031

> <STRUCTURE_ChemicalType>
defined organic

> <STRUCTURE_TestedForm_DefinedOrganic>
parent

> <STRUCTURE_Shown>
tested chemical

> <TestSubstance_ChemicalName>
Imazapic

> <TestSubstance_CASRN>
104098-48-8

> <TestSubstance_Description>
single chemical compound

> <ChemicalNote>
mixture of (R,S) isomers; structure shown without stereochem; tautomers

> <STRUCTURE_ChemicalName_IUPAC>
2-(5-isopropyl-5-methyl-4-oxo-4,5-dihydro-1H-imidazol-2-yl)-5-methylnicotinic acid

> <STRUCTURE_SMILES>
O=C(O)C1=CC(C)=CN=C1C2=NC(C(C(C)C)(C)N2)=O

> <STRUCTURE_Parent_SMILES>
O=C(O)C1=CC(C)=CN=C1C2=NC(C(C(C)C)(C)N2)=O

> <STRUCTURE_InChIS>
InChI=1S/C14H17N3O3/c1-7(2)14(4)13(20)16-11(17-14)10-9(12(18)19)5-8(3)6-15-10/h5-7H,1-4H3,(H,18,19)(H,16,17,20)

> <STRUCTURE_InChIKey>
PVSGXWMWNRGTKE-UHFFFAOYSA-N

> <Substance_modify_yyyymmdd>
20080429

> <Coord_Metals>
0

> <Index>
710

> <Canonical_Smiles>
CC(C)C1(C)N=C(NC1=O)c2ncc(C)cc2C(=O)O

> <Molecular_Weight>
275.30308

> <Frequency>
1

$$$$

  SciTegic          2D

 12 12  0  0  0  0            999 V2000
    0.7500   -1.0323    0.0000 N   0  0
    1.2135    0.3943    0.0000 S   0  0
   -1.2135    0.3943    0.0000 C   0  0
    0.0000    1.2760    0.0000 C   0  0
   -0.7500   -1.0323    0.0000 C   0  0
   -1.4553   -2.0031    0.0000 O   0  0
    0.0000    2.4760    0.0000 Cl  0  0
    1.6307   -2.2444    0.0000 C   0  0
   -2.1646    0.7033    0.0000 H   0  0
    2.6252   -2.1405    0.0000 H   0  0
    1.2236   -3.1578    0.0000 H   0  0
    2.2181   -3.0537    0.0000 H   0  0
  1  2  1  0
  1  5  1  0
  1  8  1  0
  2  4  1  0
  3  4  2  0
  3  5  1  0
  4  7  1  0
  5  6  2  0
  3  9  1  0
  8 10  1  0
  8 11  1  0
  8 12  1  0
V    1 0
V    2 1
V    3 2
V    4 3
V    5 4
V    6 5
V    7 6
V    8 7
M  END
> <DSSTox_RID>
59699

> <DSSTox_CID>
14286

> <DSSTox_CID_Parent>
14286

> <DSSTox_Generic_SID>
34286

> <DSSTox_FileID>
711_TXCST2_v1a

> <STRUCTURE_Formula>
C4H4ClNOS

> <STRUCTURE_MolecularWeight>
149.5987

> <STRUCTURE_ChemicalType>
defined organic

> <STRUCTURE_TestedForm_DefinedOrganic>
parent

> <STRUCTURE_Shown>
tested chemical

> <TestSubstance_ChemicalName>
5-Chloro-2-methyl-3(2H)-isothiazolone

> <TestSubstance_CASRN>
26172-55-4

> <TestSubstance_Description>
single chemical compound

> <STRUCTURE_ChemicalName_IUPAC>
5-chloro-2-methylisothiazol-3(2H)-one

> <STRUCTURE_SMILES>
O=C1N(C)SC(Cl)=C1

> <STRUCTURE_Parent_SMILES>
O=C1N(C)SC(Cl)=C1

> <STRUCTURE_InChIS>
InChI=1S/C4H4ClNOS/c1-6-4(7)2-3(5)8-6/h2H,1H3

> <STRUCTURE_InChIKey>
DHNRXBZYEKSXIM-UHFFFAOYSA-N

> <Substance_modify_yyyymmdd>
20080429

> <Coord_Metals>
0

> <Index>
711

> <Canonical_Smiles>
CN1SC(=CC1=O)Cl

> <Molecular_Weight>
149.59865

> <Frequency>
1

$$$$

  SciTegic          2D

 33 33  0  0  0  0            999 V2000
    0.7500   -1.0323    0.0000 C   0  0
    1.2135    0.3943    0.0000 O   0  0
    1.4553   -2.0031    0.0000 O   0  0
   -0.7500   -1.0323    0.0000 C   0  0
    0.0000    1.2760    0.0000 C   0  0
   -1.2135    0.3943    0.0000 C   0  0
    1.2999    1.9990    0.0000 C   0  0
    2.6000    1.2491    0.0000 C   0  0
    7.8000    1.2496    0.0000 C   0  0
    6.4999    1.9995    0.0000 C   0  0
    3.8999    1.9993    0.0000 C   0  0
    5.2000    1.2494    0.0000 C   0  0
    9.0999    1.9998    0.0000 C   0  0
   -1.7428   -0.9129    0.0000 H   0  0
   -0.3297   -1.9397    0.0000 H   0  0
   -0.8739    1.7622    0.0000 H   0  0
   -1.4068    1.3754    0.0000 H   0  0
   -1.9467   -0.2858    0.0000 H   0  0
    2.1658    2.4992    0.0000 H   0  0
    1.2998    2.9990    0.0000 H   0  0
    1.7341    0.7489    0.0000 H   0  0
    2.6001    0.2491    0.0000 H   0  0
    6.9341    0.7494    0.0000 H   0  0
    7.8000    0.2496    0.0000 H   0  0
    5.6339    2.4996    0.0000 H   0  0
    6.4998    2.9995    0.0000 H   0  0
    3.0339    2.4993    0.0000 H   0  0
    3.8998    2.9993    0.0000 H   0  0
    4.3341    0.7492    0.0000 H   0  0
    5.2001    0.2494    0.0000 H   0  0
    9.9661    1.5001    0.0000 H   0  0
    9.9658    2.5000    0.0000 H   0  0
    9.0998    2.9998    0.0000 H   0  0
  1  2  1  0
  1  3  2  0
  1  4  1  0
  2  5  1  0
  4  6  1  0
  5  7  1  0
  5  6  1  0
  7  8  1  0
  8 11  1  0
  9 10  1  0
  9 13  1  0
 10 12  1  0
 11 12  1  0
  4 14  1  0
  4 15  1  0
  5 16  1  0
  6 17  1  0
  6 18  1  0
  7 19  1  0
  7 20  1  0
  8 21  1  0
  8 22  1  0
  9 23  1  0
  9 24  1  0
 10 25  1  0
 10 26  1  0
 11 27  1  0
 11 28  1  0
 12 29  1  0
 12 30  1  0
 13 31  1  0
 13 32  1  0
 13 33  1  0
V    1 0
V    2 1
V    3 2
V    4 3
V    5 4
V    6 5
V    7 6
V    8 7
V    9 8
V   10 9
V   11 10
V   12 11
V   13 12
M  END
> <DSSTox_RID>
62381

> <DSSTox_CID>
14287

> <DSSTox_CID_Parent>
14287

> <DSSTox_Generic_SID>
34287

> <DSSTox_FileID>
712_TXCST2_v1a

> <STRUCTURE_Formula>
C11H20O2

> <STRUCTURE_MolecularWeight>
184.2753

> <STRUCTURE_ChemicalType>
defined organic

> <STRUCTURE_TestedForm_DefinedOrganic>
parent

> <STRUCTURE_Shown>
tested chemical

> <TestSubstance_ChemicalName>
5-Heptyldihydro-2(3H)-furanone

> <TestSubstance_CASRN>
104-67-6

> <TestSubstance_Description>
single chemical compound

> <STRUCTURE_ChemicalName_IUPAC>
5-heptyldihydrofuran-2(3H)-one

> <STRUCTURE_SMILES>
O=C(CC1)OC1CCCCCCC

> <STRUCTURE_Parent_SMILES>
O=C(CC1)OC1CCCCCCC

> <STRUCTURE_InChIS>
InChI=1S/C11H20O2/c1-2-3-4-5-6-7-10-8-9-11(12)13-10/h10H,2-9H2,1H3

> <STRUCTURE_InChIKey>
PHXATPHONSXBIL-UHFFFAOYSA-N

> <Substance_modify_yyyymmdd>
20080429

> <Coord_Metals>
0

> <Index>
712

> <Canonical_Smiles>
CCCCCCCC1CCC(=O)O1

> <Molecular_Weight>
184.27529

> <Frequency>
1

$$$$

  SciTegic          2D

 26 26  0  0  0  0            999 V2000
    1.2992    5.2529    0.0000 C   0  0
    0.0008    6.0056    0.0000 C   0  0
    1.2993    3.7521    0.0000 N   0  0
    2.5985    6.0041    0.0000 N   0  0
    0.0000    3.0008    0.0000 C   0  0
    1.2990   -0.7500    0.0000 N   0  0
    1.2990    0.7500    0.0000 C   0  0
    0.0000   -1.5000    0.0000 C   0  0
   -1.2990   -0.7500    0.0000 C   0  0
    0.0000    1.5000    0.0000 C   0  0
   -1.2990    0.7500    0.0000 C   0  0
    0.0000   -2.7000    0.0000 Cl  0  0
    2.5985    7.5050    0.0000 C   0  0
    2.5985    8.7050    0.0000 N   0  0
    2.6008    3.0047    0.0000 C   0  0
    0.0019    7.0056    0.0000 H   0  0
   -0.8659    5.5068    0.0000 H   0  0
   -0.8646    6.5067    0.0000 H   0  0
   -0.8662    3.5005    0.0000 H   0  0
   -0.0005    4.0008    0.0000 H   0  0
    2.1651    1.2500    0.0000 H   0  0
   -2.1651   -1.2500    0.0000 H   0  0
   -2.1651    1.2500    0.0000 H   0  0
    3.4659    3.5063    0.0000 H   0  0
    3.4678    2.5064    0.0000 H   0  0
    2.6029    2.0047    0.0000 H   0  0
  1  2  1  0
  1  3  1  0
  1  4  2  0
  3  5  1  0
  3 15  1  0
  4 13  1  0
  5 10  1  0
  6  7  1  0
  6  8  2  0
  7 10  2  0
  8  9  1  0
  8 12  1  0
  9 11  2  0
 10 11  1  0
 13 14  3  0
  2 16  1  0
  2 17  1  0
  2 18  1  0
  5 19  1  0
  5 20  1  0
  7 21  1  0
  9 22  1  0
 11 23  1  0
 15 24  1  0
 15 25  1  0
 15 26  1  0
V    1 0
V    2 1
V    3 2
V    4 3
V    5 4
V    6 5
V    7 6
V    8 7
V    9 8
V   10 9
V   11 10
V   12 11
V   13 12
V   14 13
V   15 14
M  END
> <DSSTox_RID>
62322

> <DSSTox_CID>
14300

> <DSSTox_CID_Parent>
14300

> <DSSTox_Generic_SID>
34300

> <DSSTox_FileID>
713_TXCST2_v1a

> <STRUCTURE_Formula>
C10H11ClN4

> <STRUCTURE_MolecularWeight>
222.6741

> <STRUCTURE_ChemicalType>
defined organic

> <STRUCTURE_TestedForm_DefinedOrganic>
parent

> <STRUCTURE_Shown>
tested chemical

> <TestSubstance_ChemicalName>
Acetamiprid

> <TestSubstance_CASRN>
135410-20-7

> <TestSubstance_Description>
single chemical compound

> <ChemicalNote>
tautomers

> <Source_ChemicalNote>
tested chemical contained 0.0351% water

> <STRUCTURE_ChemicalName_IUPAC>
(1E)-N-[(6-chloropyridin-3-yl)methyl]-N'-cyano-N-methylethanimidamide

> <STRUCTURE_SMILES>
ClC(C=C1)=NC=C1CN(C)/C(C)=N/C#N

> <STRUCTURE_Parent_SMILES>
ClC(C=C1)=NC=C1CN(C)/C(C)=N/C#N

> <STRUCTURE_InChIS>
InChI=1S/C10H11ClN4/c1-8(14-7-12)15(2)6-9-3-4-10(11)13-5-9/h3-5H,6H2,1-2H3/b14-8+

> <STRUCTURE_InChIKey>
WCXDHFDTOYPNIE-RIYZIHGNSA-N

> <Substance_modify_yyyymmdd>
20080429

> <Coord_Metals>
0

> <Index>
713

> <Canonical_Smiles>
CN(Cc1ccc(Cl)nc1)C(=NC#N)C

> <Molecular_Weight>
222.67413

> <Frequency>
1

$$$$

  SciTegic          2D

 44 44  0  0  0  0            999 V2000
    1.2990   -0.7500    0.0000 C   0  0
    1.2990    0.7500    0.0000 C   0  0
    0.0000   -1.5000    0.0000 N   0  0
    0.0000    1.5000    0.0000 C   0  0
   -1.2990   -0.7500    0.0000 C   0  0
   -1.2990    0.7500    0.0000 C   0  0
   -2.3383   -1.3500    0.0000 F   0  0
   -2.3383    1.3500    0.0000 Cl  0  0
   -0.0031    3.0008    0.0000 N   0  0
    2.3383    1.3500    0.0000 Cl  0  0
    2.5973   -1.5031    0.0000 O   0  0
    2.5951   -3.0039    0.0000 C   0  0
    3.8933   -3.7570    0.0000 C   0  0
    3.8912   -5.2578    0.0000 O   0  0
    4.9336   -3.1588    0.0000 O   0  0
    5.1894   -6.0109    0.0000 C   0  0
    5.1873   -7.5117    0.0000 C   0  0
    3.8617   -6.7711    0.0000 C   0  0
    6.4855   -8.2648    0.0000 C   0  0
    6.4833   -9.7656    0.0000 C   0  0
    7.7815  -10.5187    0.0000 C   0  0
    7.7794  -12.0195    0.0000 C   0  0
    9.0776  -12.7726    0.0000 C   0  0
   -0.8698    3.4996    0.0000 H   0  0
    0.8620    3.5023    0.0000 H   0  0
    1.7282   -3.5024    0.0000 H   0  0
    1.7299   -2.5025    0.0000 H   0  0
    6.0563   -5.5124    0.0000 H   0  0
    4.3220   -7.0104    0.0000 H   0  0
    4.3204   -8.0102    0.0000 H   0  0
    2.9972   -6.2685    0.0000 H   0  0
    2.9941   -7.2684    0.0000 H   0  0
    3.8584   -7.7711    0.0000 H   0  0
    7.3524   -7.7663    0.0000 H   0  0
    6.4874   -7.2648    0.0000 H   0  0
    5.6164  -10.2641    0.0000 H   0  0
    5.6181   -9.2643    0.0000 H   0  0
    8.6484  -10.0202    0.0000 H   0  0
    7.7834   -9.5187    0.0000 H   0  0
    6.9125  -12.5180    0.0000 H   0  0
    6.9142  -11.5182    0.0000 H   0  0
    9.0762  -13.7726    0.0000 H   0  0
    9.9445  -12.2741    0.0000 H   0  0
    9.9428  -13.2740    0.0000 H   0  0
  1  2  1  0
  1  3  2  0
  1 11  1  0
  2  4  2  0
  2 10  1  0
  3  5  1  0
  4  6  1  0
  4  9  1  0
  5  6  2  0
  5  7  1  0
  6  8  1  0
 11 12  1  0
 12 13  1  0
 13 14  1  0
 13 15  2  0
 14 16  1  0
 16 17  1  0
 16 18  1  0
 17 19  1  0
 19 20  1  0
 20 21  1  0
 21 22  1  0
 22 23  1  0
  9 24  1  0
  9 25  1  0
 12 26  1  0
 12 27  1  0
 16 28  1  0
 17 29  1  0
 17 30  1  0
 18 31  1  0
 18 32  1  0
 18 33  1  0
 19 34  1  0
 19 35  1  0
 20 36  1  0
 20 37  1  0
 21 38  1  0
 21 39  1  0
 22 40  1  0
 22 41  1  0
 23 42  1  0
 23 43  1  0
 23 44  1  0
V    1 0
V    2 1
V    3 2
V    4 3
V    5 4
V    6 5
V    7 6
V    8 7
V    9 8
V   10 9
V   11 10
V   12 11
V   13 12
V   14 13
V   15 14
V   16 15
V   17 16
V   18 17
V   19 18
V   20 19
V   21 20
V   22 21
V   23 22
M  END
> <DSSTox_RID>
65345

> <DSSTox_CID>
14303

> <DSSTox_CID_Parent>
14303

> <DSSTox_Generic_SID>
34303

> <DSSTox_FileID>
714_TXCST2_v1a

> <STRUCTURE_Formula>
C15H21Cl2FN2O3

> <STRUCTURE_MolecularWeight>
367.2432

> <STRUCTURE_ChemicalType>
defined organic

> <STRUCTURE_TestedForm_DefinedOrganic>
parent

> <STRUCTURE_Shown>
tested chemical

> <TestSubstance_ChemicalName>
Fluroxypyr-meptyl

> <TestSubstance_CASRN>
81406-37-3

> <TestSubstance_Description>
single chemical compound

> <STRUCTURE_ChemicalName_IUPAC>
1-methylheptyl [(4-amino-3,5-dichloro-6-fluoropyridin-2-yl)oxy]acetate

> <STRUCTURE_SMILES>
FC1=C(Cl)C(N)=C(Cl)C(OCC(OC(C)CCCCCC)=O)=N1

> <STRUCTURE_Parent_SMILES>
FC1=C(Cl)C(N)=C(Cl)C(OCC(OC(C)CCCCCC)=O)=N1

> <STRUCTURE_InChIS>
InChI=1S/C15H21Cl2FN2O3/c1-3-4-5-6-7-9(2)23-10(21)8-22-15-12(17)13(19)11(16)14(18)20-15/h9H,3-8H2,1-2H3,(H2,19,20)

> <STRUCTURE_InChIKey>
OLZQTUCTGLHFTQ-UHFFFAOYSA-N

> <Substance_modify_yyyymmdd>
20080429

> <Coord_Metals>
0

> <Index>
714

> <Canonical_Smiles>
CCCCCCC(C)OC(=O)COc1nc(F)c(Cl)c(N)c1Cl

> <Molecular_Weight>
367.24324

> <Frequency>
1

$$$$

  SciTegic          2D

 50 51  0  0  0  0            999 V2000
    2.5973   -1.5031    0.0000 C   0  0
    3.6375   -0.9049    0.0000 O   0  0
    1.2990   -0.7500    0.0000 C   0  0
    2.5951   -3.0039    0.0000 O   0  0
    1.2990    0.7500    0.0000 C   0  0
    0.0000   -1.5000    0.0000 C   0  0
    0.0000    1.5000    0.0000 C   0  0
   -1.2990   -0.7500    0.0000 C   0  0
   -1.2990    0.7500    0.0000 C   0  0
    2.3383    1.3500    0.0000 Cl  0  0
   -2.5987   -1.5004    0.0000 N   0  0
   -5.1969   -1.5046    0.0000 N   0  0
   -3.8991   -0.7525    0.0000 C   0  0
   -3.8943   -3.7525    0.0000 C   0  0
   -2.5964   -3.0004    0.0000 C   0  0
   -5.1945   -3.0046    0.0000 C   0  0
   -6.4978   -0.7562    0.0000 C   0  0
   -3.9010    0.4475    0.0000 O   0  0
   -1.5563   -3.5988    0.0000 O   0  0
   -6.4931   -3.7571    0.0000 C   0  0
   -7.5336   -3.1594    0.0000 F   0  0
   -6.4908   -4.9570    0.0000 F   0  0
   -7.5311   -4.3592    0.0000 F   0  0
    3.8933   -3.7570    0.0000 C   0  0
    2.5656   -4.5172    0.0000 C   0  0
    3.8912   -5.2578    0.0000 C   0  0
    3.0243   -5.7563    0.0000 O   0  0
    5.1894   -6.0109    0.0000 O   0  0
    6.4833   -9.7656    0.0000 C   0  0
    6.4855   -8.2648    0.0000 C   0  0
    5.1873   -7.5117    0.0000 C   0  0
    5.1943   -3.0089    0.0000 C   0  0
    0.0000   -2.5000    0.0000 H   0  0
    0.0000    2.5000    0.0000 H   0  0
   -2.1651    1.2500    0.0000 H   0  0
   -3.8927   -4.7525    0.0000 H   0  0
   -6.5001    0.2438    0.0000 H   0  0
   -7.3629   -1.2579    0.0000 H   0  0
   -7.3649   -0.2580    0.0000 H   0  0
    1.7011   -4.0146    0.0000 H   0  0
    2.5623   -5.5172    0.0000 H   0  0
    1.6980   -5.0145    0.0000 H   0  0
    7.3483  -10.2674    0.0000 H   0  0
    5.6164  -10.2641    0.0000 H   0  0
    7.3524   -7.7663    0.0000 H   0  0
    4.3204   -8.0102    0.0000 H   0  0
    4.3220   -7.0104    0.0000 H   0  0
    6.0598   -3.5098    0.0000 H   0  0
    5.1957   -2.0089    0.0000 H   0  0
    6.0610   -2.5100    0.0000 H   0  0
  1  2  2  0
  1  3  1  0
  1  4  1  0
  3  5  2  0
  3  6  1  0
  4 24  1  0
  5  7  1  0
  5 10  1  0
  6  8  2  0
  7  9  2  0
  8  9  1  0
  8 11  1  0
 11 13  1  0
 11 15  1  0
 12 13  1  0
 12 16  1  0
 12 17  1  0
 13 18  2  0
 14 15  1  0
 14 16  2  0
 15 19  2  0
 16 20  1  0
 20 21  1  0
 20 22  1  0
 20 23  1  0
 24 25  1  0
 24 26  1  0
 24 32  1  0
 26 27  2  0
 26 28  1  0
 28 31  1  0
 29 30  2  0
 30 31  1  0
  6 33  1  0
  7 34  1  0
  9 35  1  0
 14 36  1  0
 17 37  1  0
 17 38  1  0
 17 39  1  0
 25 40  1  0
 25 41  1  0
 25 42  1  0
 29 43  1  0
 29 44  1  0
 30 45  1  0
 31 46  1  0
 31 47  1  0
 32 48  1  0
 32 49  1  0
 32 50  1  0
V    1 0
V    2 1
V    3 2
V    4 3
V    5 4
V    6 5
V    7 6
V    8 7
V    9 8
V   10 9
V   11 10
V   12 11
V   13 12
V   14 13
V   15 14
V   16 15
V   17 16
V   18 17
V   19 18
V   20 19
V   21 20
V   22 21
V   23 22
V   24 23
V   25 24
V   26 25
V   27 26
V   28 27
V   29 28
V   30 29
V   31 30
V   32 31
M  END
> <DSSTox_RID>
62369

> <DSSTox_CID>
14365

> <DSSTox_CID_Parent>
14365

> <DSSTox_Generic_SID>
34365

> <DSSTox_FileID>
715_TXCST2_v1a

> <STRUCTURE_Formula>
C20H18ClF3N2O6

> <STRUCTURE_MolecularWeight>
474.8149

> <STRUCTURE_ChemicalType>
defined organic

> <STRUCTURE_TestedForm_DefinedOrganic>
parent

> <STRUCTURE_Shown>
tested chemical

> <TestSubstance_ChemicalName>
Butafenacil

> <TestSubstance_CASRN>
134605-64-4

> <TestSubstance_Description>
single chemical compound

> <Source_ChemicalNote>
tested chemical contained 2.1% water (0.57 moles H2O)

> <STRUCTURE_ChemicalName_IUPAC>
2-(allyloxy)-1,1-dimethyl-2-oxoethyl 2-chloro-5-[3-methyl-2,6-dioxo-4-(trifluoromethyl)-3,6-dihydropyrimidin-1(2H)-yl]benzoate

> <STRUCTURE_SMILES>
O=C(OC(C(OCC=C)=O)(C)C)C1=C(Cl)C=CC(N2C(N(C)C(C(F)(F)F)=CC2=O)=O)=C1

> <STRUCTURE_Parent_SMILES>
O=C(OC(C(OCC=C)=O)(C)C)C1=C(Cl)C=CC(N2C(N(C)C(C(F)(F)F)=CC2=O)=O)=C1

> <STRUCTURE_InChIS>
InChI=1S/C20H18ClF3N2O6/c1-5-8-31-17(29)19(2,3)32-16(28)12-9-11(6-7-13(12)21)26-15(27)10-14(20(22,23)24)25(4)18(26)30/h5-7,9-10H,1,8H2,2-4H3

> <STRUCTURE_InChIKey>
JEDYYFXHPAIBGR-UHFFFAOYSA-N

> <Substance_modify_yyyymmdd>
20080429

> <Coord_Metals>
0

> <Index>
715

> <Canonical_Smiles>
CN1C(=O)N(C(=O)C=C1C(F)(F)F)c2ccc(Cl)c(c2)C(=O)OC(C)(C)C(=O)OCC=C

> <Molecular_Weight>
474.81492

> <Frequency>
1

$$$$

  SciTegic          2D

 35 37  0  0  0  0            999 V2000
    2.5973   -1.5031    0.0000 C   0  0
    1.2990   -0.7500    0.0000 C   0  0
    3.6375   -0.9049    0.0000 O   0  0
    0.0000    1.5000    0.0000 N   0  0
    1.2990    0.7500    0.0000 C   0  0
    0.0000   -1.5000    0.0000 C   0  0
   -1.2990    0.7500    0.0000 C   0  0
   -1.2990   -0.7500    0.0000 C   0  0
    2.5951   -3.0039    0.0000 N   0  0
    2.3383    1.3500    0.0000 Cl  0  0
    3.8934   -5.2570    0.0000 C   0  0
    2.5937   -6.0074    0.0000 C   0  0
    3.8933   -3.7570    0.0000 C   0  0
    5.1924   -6.0070    0.0000 C   0  0
    1.2934   -5.2595    0.0000 C   0  0
    2.5960   -7.5075    0.0000 C   0  0
    5.1925   -3.0070    0.0000 C   0  0
   -0.0045   -6.0116    0.0000 C   0  0
    1.2981   -8.2595    0.0000 C   0  0
    6.4915   -5.2571    0.0000 C   0  0
    6.4915   -3.7571    0.0000 C   0  0
   -0.0021   -7.5116    0.0000 C   0  0
   -1.0404   -8.1132    0.0000 Cl  0  0
    0.0000   -2.5000    0.0000 H   0  0
   -2.1651    1.2500    0.0000 H   0  0
   -2.1651   -1.2500    0.0000 H   0  0
    1.7282   -3.5024    0.0000 H   0  0
    5.1924   -7.0070    0.0000 H   0  0
    1.2918   -4.2595    0.0000 H   0  0
    3.4628   -8.0061    0.0000 H   0  0
    5.1925   -2.0070    0.0000 H   0  0
   -0.8713   -5.5129    0.0000 H   0  0
    1.2997   -9.2595    0.0000 H   0  0
    7.3575   -5.7571    0.0000 H   0  0
    7.3575   -3.2571    0.0000 H   0  0
  1  2  1  0
  1  3  2  0
  1  9  1  0
  2  5  1  0
  2  6  2  0
  4  5  2  0
  4  7  1  0
  5 10  1  0
  6  8  1  0
  7  8  2  0
  9 13  1  0
 11 12  1  0
 11 13  2  0
 11 14  1  0
 12 15  2  0
 12 16  1  0
 13 17  1  0
 14 20  2  0
 15 18  1  0
 16 19  2  0
 17 21  2  0
 18 22  2  0
 19 22  1  0
 20 21  1  0
 22 23  1  0
  6 24  1  0
  7 25  1  0
  8 26  1  0
  9 27  1  0
 14 28  1  0
 15 29  1  0
 16 30  1  0
 17 31  1  0
 18 32  1  0
 19 33  1  0
 20 34  1  0
 21 35  1  0
V    1 0
V    2 1
V    3 2
V    4 3
V    5 4
V    6 5
V    7 6
V    8 7
V    9 8
V   10 9
V   11 10
V   12 11
V   13 12
V   14 13
V   15 14
V   16 15
V   17 16
V   18 17
V   19 18
V   20 19
V   21 20
V   22 21
V   23 22
M  END
> <DSSTox_RID>
62368

> <DSSTox_CID>
14392

> <DSSTox_CID_Parent>
14392

> <DSSTox_Generic_SID>
34392

> <DSSTox_FileID>
716_TXCST2_v1a

> <STRUCTURE_Formula>
C18H12Cl2N2O

> <STRUCTURE_MolecularWeight>
343.2067

> <STRUCTURE_ChemicalType>
defined organic

> <STRUCTURE_TestedForm_DefinedOrganic>
parent

> <STRUCTURE_Shown>
tested chemical

> <TestSubstance_ChemicalName>
Boscalid

> <TestSubstance_CASRN>
188425-85-6

> <TestSubstance_Description>
single chemical compound

> <STRUCTURE_ChemicalName_IUPAC>
2-chloro-N-(4'-chlorobiphenyl-2-yl)nicotinamide

> <STRUCTURE_SMILES>
O=C(NC3=C(C=CC=C3)C2=CC=C(Cl)C=C2)C1=C(Cl)N=CC=C1

> <STRUCTURE_Parent_SMILES>
O=C(NC3=C(C=CC=C3)C2=CC=C(Cl)C=C2)C1=C(Cl)N=CC=C1

> <STRUCTURE_InChIS>
InChI=1S/C18H12Cl2N2O/c19-13-9-7-12(8-10-13)14-4-1-2-6-16(14)22-18(23)15-5-3-11-21-17(15)20/h1-11H,(H,22,23)

> <STRUCTURE_InChIKey>
WYEMLYFITZORAB-UHFFFAOYSA-N

> <Substance_modify_yyyymmdd>
20080429

> <Coord_Metals>
0

> <Index>
716

> <Canonical_Smiles>
Clc1ccc(cc1)c2ccccc2NC(=O)c3cccnc3Cl

> <Molecular_Weight>
343.20668

> <Frequency>
1

$$$$

  SciTegic          2D

 44 45  0  0  0  0            999 V2000
    1.2990   -0.7500    0.0000 S   0  0
    1.2990    0.7500    0.0000 C   0  0
    0.0000    1.5000    0.0000 N   0  0
   -1.2990    0.7500    0.0000 C   0  0
   -1.2990   -0.7500    0.0000 N   0  0
    0.0000   -1.5000    0.0000 C   0  0
   -2.3383    1.3500    0.0000 O   0  0
    2.6003    1.4978    0.0000 N   0  0
    3.8990    0.7455    0.0000 C   0  0
    5.2003    1.4932    0.0000 C   0  0
    3.8964   -0.7552    0.0000 C   0  0
    3.8988    2.2755    0.0000 C   0  0
    0.0000    3.0008    0.0000 C   0  0
    1.2993    3.7521    0.0000 C   0  0
   -1.2999    3.7508    0.0000 C   0  0
   -2.5987   -1.5004    0.0000 C   0  0
   -3.8991   -0.7525    0.0000 C   0  0
   -2.5964   -3.0004    0.0000 C   0  0
   -5.1969   -1.5046    0.0000 C   0  0
   -3.8943   -3.7525    0.0000 C   0  0
   -5.1945   -3.0046    0.0000 C   0  0
   -0.8776   -1.9794    0.0000 H   0  0
    0.8775   -1.9795    0.0000 H   0  0
    6.0656    0.9920    0.0000 H   0  0
    5.2020    2.4932    0.0000 H   0  0
    6.0671    1.9919    0.0000 H   0  0
    3.0298   -1.2543    0.0000 H   0  0
    4.7617   -1.2565    0.0000 H   0  0
    3.8952   -1.7552    0.0000 H   0  0
    3.0330    2.7759    0.0000 H   0  0
    3.8991    3.2755    0.0000 H   0  0
    4.7649    2.7753    0.0000 H   0  0
    0.8662    2.5011    0.0000 H   0  0
    1.2993    4.7521    0.0000 H   0  0
    2.1654    3.2523    0.0000 H   0  0
    2.1652    4.2522    0.0000 H   0  0
   -1.3009    4.7508    0.0000 H   0  0
   -2.1657    3.2502    0.0000 H   0  0
   -2.1664    4.2501    0.0000 H   0  0
   -3.9007    0.2475    0.0000 H   0  0
   -1.7296   -3.4991    0.0000 H   0  0
   -6.0637   -1.0060    0.0000 H   0  0
   -3.8927   -4.7525    0.0000 H   0  0
   -6.0597   -3.5059    0.0000 H   0  0
  1  2  1  0
  1  6  1  0
  2  3  1  0
  2  8  2  0
  3  4  1  0
  3 13  1  0
  4  5  1  0
  4  7  2  0
  5  6  1  0
  5 16  1  0
  8  9  1  0
  9 10  1  0
  9 11  1  0
  9 12  1  0
 13 14  1  0
 13 15  1  0
 16 17  2  0
 16 18  1  0
 17 19  1  0
 18 20  2  0
 19 21  2  0
 20 21  1  0
  6 22  1  0
  6 23  1  0
 10 24  1  0
 10 25  1  0
 10 26  1  0
 11 27  1  0
 11 28  1  0
 11 29  1  0
 12 30  1  0
 12 31  1  0
 12 32  1  0
 13 33  1  0
 14 34  1  0
 14 35  1  0
 14 36  1  0
 15 37  1  0
 15 38  1  0
 15 39  1  0
 17 40  1  0
 18 41  1  0
 19 42  1  0
 20 43  1  0
 21 44  1  0
V    1 0
V    2 1
V    3 2
V    4 3
V    5 4
V    6 5
V    7 6
V    8 7
V    9 8
V   10 9
V   11 10
V   12 11
V   13 12
V   14 13
V   15 14
V   16 15
V   17 16
V   18 17
V   19 18
V   20 19
V   21 20
M  END
> <DSSTox_RID>
62361

> <DSSTox_CID>
14401

> <DSSTox_CID_Parent>
14401

> <DSSTox_Generic_SID>
34401

> <DSSTox_FileID>
717_TXCST2_v1a

> <STRUCTURE_Formula>
C16H23N3OS

> <STRUCTURE_MolecularWeight>
305.4383

> <STRUCTURE_ChemicalType>
defined organic

> <STRUCTURE_TestedForm_DefinedOrganic>
parent

> <STRUCTURE_Shown>
tested chemical

> <TestSubstance_ChemicalName>
Buprofezin

> <TestSubstance_CASRN>
69327-76-0

> <TestSubstance_Description>
single chemical compound

> <STRUCTURE_ChemicalName_IUPAC>
(2Z)-2-(tert-butylimino)-3-isopropyl-5-phenyl-1,3,5-thiadiazinan-4-one

> <STRUCTURE_SMILES>
O=C1N(C(C)C)/C(SCN1C2=CC=CC=C2)=N/C(C)(C)C

> <STRUCTURE_Parent_SMILES>
O=C1N(C(C)C)/C(SCN1C2=CC=CC=C2)=N/C(C)(C)C

> <STRUCTURE_InChIS>
InChI=1S/C16H23N3OS/c1-12(2)19-14(17-16(3,4)5)21-11-18(15(19)20)13-9-7-6-8-10-13/h6-10,12H,11H2,1-5H3/b17-14-

> <STRUCTURE_InChIKey>
PRLVTUNWOQKEAI-VKAVYKQESA-N

> <Substance_modify_yyyymmdd>
20080429

> <Coord_Metals>
0

> <Index>
717

> <Canonical_Smiles>
CC(C)N1C(=NC(C)(C)C)SCN(C1=O)c2ccccc2

> <Molecular_Weight>
305.43832

> <Frequency>
1

$$$$

  SciTegic          2D

 47 47  0  0  0  0            999 V2000
    2.5973   -1.5031    0.0000 N   0  0
    1.2990   -0.7500    0.0000 C   0  0
    2.5906   -3.0039    0.0000 C   0  0
    1.5485   -3.5990    0.0000 O   0  0
    1.2990    0.7500    0.0000 C   0  0
    0.0000   -1.5000    0.0000 C   0  0
    3.8990   -0.7562    0.0000 C   0  0
    3.8866   -3.7609    0.0000 C   0  0
    3.8812   -4.9609    0.0000 Cl  0  0
    5.1972   -1.5092    0.0000 O   0  0
   -1.2990    0.7500    0.0000 C   0  0
   -1.2990   -0.7500    0.0000 C   0  0
    0.0000    1.5000    0.0000 C   0  0
    0.0000   -3.0008    0.0000 C   0  0
    2.5988    1.5004    0.0000 C   0  0
    6.4990   -0.7623    0.0000 C   0  0
    7.7972   -1.5154    0.0000 C   0  0
    9.0990   -0.7685    0.0000 C   0  0
    2.5997    3.0013    0.0000 C   0  0
   -1.2993   -3.7521    0.0000 C   0  0
   10.3972   -1.5216    0.0000 C   0  0
    3.9014    0.2438    0.0000 H   0  0
    4.7662   -0.2581    0.0000 H   0  0
    4.7549   -3.2650    0.0000 H   0  0
    4.7503   -4.2648    0.0000 H   0  0
   -2.1651    1.2500    0.0000 H   0  0
   -2.1651   -1.2500    0.0000 H   0  0
    0.0000    2.5000    0.0000 H   0  0
    0.8662   -3.5005    0.0000 H   0  0
    0.8660   -2.5007    0.0000 H   0  0
    3.4647    1.0002    0.0000 H   0  0
    2.5986    0.5004    0.0000 H   0  0
    6.5014    0.2377    0.0000 H   0  0
    5.6342   -0.2601    0.0000 H   0  0
    7.7948   -2.5154    0.0000 H   0  0
    6.9301   -2.0135    0.0000 H   0  0
    9.1013    0.2315    0.0000 H   0  0
    8.2342   -0.2663    0.0000 H   0  0
    3.4657    3.5013    0.0000 H   0  0
    1.7339    3.5015    0.0000 H   0  0
    2.5999    4.0013    0.0000 H   0  0
   -1.2993   -4.7521    0.0000 H   0  0
   -2.1655   -3.2523    0.0000 H   0  0
   -2.1652   -4.2522    0.0000 H   0  0
   11.2645   -1.0239    0.0000 H   0  0
   10.3948   -2.5216    0.0000 H   0  0
   11.2619   -2.0238    0.0000 H   0  0
  1  2  1  0
  1  3  1  0
  1  7  1  0
  2  5  1  0
  2  6  2  0
  3  4  2  0
  3  8  1  0
  5 13  2  0
  5 15  1  0
  6 12  1  0
  6 14  1  0
  7 10  1  0
  8  9  1  0
 10 16  1  0
 11 12  2  0
 11 13  1  0
 14 20  1  0
 15 19  1  0
 16 17  1  0
 17 18  1  0
 18 21  1  0
  7 22  1  0
  7 23  1  0
  8 24  1  0
  8 25  1  0
 11 26  1  0
 12 27  1  0
 13 28  1  0
 14 29  1  0
 14 30  1  0
 15 31  1  0
 15 32  1  0
 16 33  1  0
 16 34  1  0
 17 35  1  0
 17 36  1  0
 18 37  1  0
 18 38  1  0
 19 39  1  0
 19 40  1  0
 19 41  1  0
 20 42  1  0
 20 43  1  0
 20 44  1  0
 21 45  1  0
 21 46  1  0
 21 47  1  0
V    1 0
V    2 1
V    3 2
V    4 3
V    5 4
V    6 5
V    7 6
V    8 7
V    9 8
V   10 9
V   11 10
V   12 11
V   13 12
V   14 13
V   15 14
V   16 15
V   17 16
V   18 17
V   19 18
V   20 19
V   21 20
M  END
> <DSSTox_RID>
65346

> <DSSTox_CID>
14402

> <DSSTox_CID_Parent>
14402

> <DSSTox_Generic_SID>
34402

> <DSSTox_FileID>
718_TXCST2_v1a

> <STRUCTURE_Formula>
C17H26ClNO2

> <STRUCTURE_MolecularWeight>
311.8468

> <STRUCTURE_ChemicalType>
defined organic

> <STRUCTURE_TestedForm_DefinedOrganic>
parent

> <STRUCTURE_Shown>
tested chemical

> <TestSubstance_ChemicalName>
Butachlor

> <TestSubstance_CASRN>
23184-66-9

> <TestSubstance_Description>
single chemical compound

> <STRUCTURE_ChemicalName_IUPAC>
N-(butoxymethyl)-2-chloro-N-(2,6-diethylphenyl)acetamide

> <STRUCTURE_SMILES>
O=C(CCl)N(COCCCC)C1=C(CC)C=CC=C1CC

> <STRUCTURE_Parent_SMILES>
O=C(CCl)N(COCCCC)C1=C(CC)C=CC=C1CC

> <STRUCTURE_InChIS>
InChI=1S/C17H26ClNO2/c1-4-7-11-21-13-19(16(20)12-18)17-14(5-2)9-8-10-15(17)6-3/h8-10H,4-7,11-13H2,1-3H3

> <STRUCTURE_InChIKey>
HKPHPIREJKHECO-UHFFFAOYSA-N

> <Substance_modify_yyyymmdd>
20080429

> <Coord_Metals>
0

> <Index>
718

> <Canonical_Smiles>
CCCCOCN(C(=O)CCl)c1c(CC)cccc1CC

> <Molecular_Weight>
311.84684

> <Frequency>
1

$$$$

  SciTegic          2D

 46 48  0  0  0  0            999 V2000
   -0.9509    0.0731    0.0000 C   0  0
   -1.4995   -1.0789    0.0000 C   0  0
   -0.2194   -0.6035    0.0000 C   0  0
    0.3109    0.7498    0.0000 C   0  0
    0.0000    2.0116    0.0000 O   0  0
    0.8595   -1.1887    0.0000 C   0  0
    1.4995    0.0549    0.0000 C   0  0
   -1.4554    0.2628    0.0000 C   0  0
   -0.2943    2.1263    0.0000 C   0  0
   -1.7858    2.2936    0.0000 C   0  0
    0.5959    3.3345    0.0000 C   0  0
    2.1208   -1.9966    0.0000 O   0  0
    2.0577   -3.4961    0.0000 C   0  0
    3.3242   -4.3013    0.0000 C   0  0
    4.6541   -3.6075    0.0000 C   0  0
    3.2602   -5.8000    0.0000 C   0  0
    5.9199   -4.4122    0.0000 C   0  0
    4.5260   -6.6047    0.0000 C   0  0
    5.8559   -5.9109    0.0000 C   0  0
    1.9296   -6.4942    0.0000 C   0  0
   -0.6743    1.0341    0.0000 H   0  0
   -1.8976   -0.2490    0.0000 H   0  0
   -1.3009   -2.0590    0.0000 H   0  0
   -2.4582   -0.7945    0.0000 H   0  0
    0.1768   -1.9194    0.0000 H   0  0
    1.7325    1.0273    0.0000 H   0  0
    2.2181   -0.6406    0.0000 H   0  0
   -2.3586   -0.1664    0.0000 H   0  0
   -1.3757    1.2596    0.0000 H   0  0
   -2.2787    0.8303    0.0000 H   0  0
   -0.6948    3.0426    0.0000 H   0  0
   -2.1867    3.2098    0.0000 H   0  0
   -2.3790    1.4886    0.0000 H   0  0
   -2.7796    2.4047    0.0000 H   0  0
    0.1959    4.2510    0.0000 H   0  0
    1.5897    3.2230    0.0000 H   0  0
    1.1895    4.1393    0.0000 H   0  0
    1.2135   -2.9600    0.0000 H   0  0
    1.1712   -3.9590    0.0000 H   0  0
    4.6968   -2.6084    0.0000 H   0  0
    6.8065   -3.9497    0.0000 H   0  0
    4.4833   -7.6038    0.0000 H   0  0
    6.6998   -6.4474    0.0000 H   0  0
    1.0853   -5.9582    0.0000 H   0  0
    1.8872   -7.4933    0.0000 H   0  0
    1.0432   -6.9572    0.0000 H   0  0
  1  2  1  0
  1  4  1  0
  2  3  1  0
  3  5  1  0
  3  6  1  0
  3  8  1  0
  4  5  1  0
  4  7  1  0
  4  9  1  0
  6  7  1  0
  6 12  1  0
  9 10  1  0
  9 11  1  0
 12 13  1  0
 13 14  1  0
 14 15  1  0
 14 16  2  0
 15 17  2  0
 16 18  1  0
 16 20  1  0
 17 19  1  0
 18 19  2  0
  1 21  1  0
  1 22  1  0
  2 23  1  0
  2 24  1  0
  6 25  1  0
  7 26  1  0
  7 27  1  0
  8 28  1  0
  8 29  1  0
  8 30  1  0
  9 31  1  0
 10 32  1  0
 10 33  1  0
 10 34  1  0
 11 35  1  0
 11 36  1  0
 11 37  1  0
 13 38  1  0
 13 39  1  0
 15 40  1  0
 17 41  1  0
 18 42  1  0
 19 43  1  0
 20 44  1  0
 20 45  1  0
 20 46  1  0
V    1 0
V    2 1
V    3 2
V    4 3
V    5 4
V    6 5
V    7 6
V    8 7
V    9 8
V   10 9
V   11 10
V   12 11
V   13 12
V   14 13
V   15 14
V   16 15
V   17 16
V   18 17
V   19 18
V   20 19
M  END
> <DSSTox_RID>
62385

> <DSSTox_CID>
14456

> <DSSTox_CID_Parent>
14456

> <DSSTox_Generic_SID>
34456

> <DSSTox_FileID>
719_TXCST2_v1a

> <STRUCTURE_Formula>
C18H26O2

> <STRUCTURE_MolecularWeight>
274.3978

> <STRUCTURE_ChemicalType>
defined organic

> <STRUCTURE_TestedForm_DefinedOrganic>
parent

> <STRUCTURE_Shown>
tested chemical

> <TestSubstance_ChemicalName>
Cinmethylin

> <TestSubstance_CASRN>
87818-31-3

> <TestSubstance_Description>
single chemical compound

> <ChemicalNote>
relative stereochem

> <Source_ChemicalNote>
tested chemical was a mixture of isomers

> <STRUCTURE_ChemicalName_IUPAC>
(1S,2R,4R)-1-methyl-2-[(2-methylbenzyl)oxy]-4-(propan-2-yl)-7-oxabicyclo[2.2.1]heptane

> <STRUCTURE_SMILES>
C[C@@]1([C@H](OCC3=C(C)C=CC=C3)C2)CC[C@@]2(C(C)C)O1

> <STRUCTURE_Parent_SMILES>
C[C@@]1([C@H](OCC3=C(C)C=CC=C3)C2)CC[C@@]2(C(C)C)O1

> <STRUCTURE_InChIS>
InChI=1S/C18H26O2/c1-13(2)18-10-9-17(4,20-18)16(11-18)19-12-15-8-6-5-7-14(15)3/h5-8,13,16H,9-12H2,1-4H3/t16-,17+,18-/m1/s1

> <STRUCTURE_InChIKey>
QMTNOLKHSWIQBE-FGTMMUONSA-N

> <Substance_modify_yyyymmdd>
20080815

> <Coord_Metals>
0

> <Index>
719

> <Canonical_Smiles>
CC(C)C12CCC(C)(O1)C(C2)OCc3ccccc3C

> <Molecular_Weight>
274.39784

> <Frequency>
1

$$$$

  SciTegic          2D

 23 23  0  0  0  0            999 V2000
   -1.9032   -4.8300    0.0000 C   0  0
   -1.2936   -6.2015    0.0000 N   0  0
   -1.0211   -3.6159    0.0000 N   0  0
   -3.3955   -4.6696    0.0000 N   0  0
   -1.6306   -2.2444    0.0000 C   0  0
    0.7500   -1.0323    0.0000 S   0  0
    1.2135    0.3943    0.0000 C   0  0
    0.0000    1.2760    0.0000 N   0  0
   -1.2135    0.3943    0.0000 C   0  0
   -0.7500   -1.0323    0.0000 C   0  0
    2.3548    0.7651    0.0000 Cl  0  0
   -4.0035   -3.2975    0.0000 C   0  0
   -2.1758   -7.4157    0.0000 N   0  0
   -1.6884   -8.5123    0.0000 O   0  0
   -3.3692   -7.2899    0.0000 O   0  0
   -0.2992   -6.3063    0.0000 H   0  0
   -0.0266   -3.7207    0.0000 H   0  0
   -2.6251   -2.1396    0.0000 H   0  0
   -2.2188   -3.0531    0.0000 H   0  0
   -2.1646    0.7033    0.0000 H   0  0
   -4.9978   -3.1906    0.0000 H   0  0
   -3.4141   -2.4897    0.0000 H   0  0
   -4.4082   -2.3831    0.0000 H   0  0
  1  2  1  0
  1  3  1  0
  1  4  2  0
  2 13  1  0
  3  5  1  0
  4 12  1  0
  5 10  1  0
  6  7  1  0
  6 10  1  0
  7  8  2  0
  7 11  1  0
  8  9  1  0
  9 10  2  0
 13 14  2  0
 13 15  2  0
  2 16  1  0
  3 17  1  0
  5 18  1  0
  5 19  1  0
  9 20  1  0
 12 21  1  0
 12 22  1  0
 12 23  1  0
V    1 0
V    2 1
V    3 2
V    4 3
V    5 4
V    6 5
V    7 6
V    8 7
V    9 8
V   10 9
V   11 10
V   12 11
V   13 12
V   14 13
V   15 14
M  END
> <DSSTox_RID>
62427

> <DSSTox_CID>
14465

> <DSSTox_CID_Parent>
14465

> <DSSTox_Generic_SID>
34465

> <DSSTox_FileID>
720_TXCST2_v1a

> <STRUCTURE_Formula>
C6H8ClN5O2S

> <STRUCTURE_MolecularWeight>
249.678

> <STRUCTURE_ChemicalType>
defined organic

> <STRUCTURE_TestedForm_DefinedOrganic>
parent

> <STRUCTURE_Shown>
tested chemical

> <TestSubstance_ChemicalName>
Clothianidin

> <TestSubstance_CASRN>
210880-92-5

> <TestSubstance_Description>
single chemical compound

> <ChemicalNote>
tautomers

> <Source_ChemicalNote>
tested chemical contained 0.07% water (0.01 moles H2O)

> <STRUCTURE_ChemicalName_IUPAC>
1-[(2-chloro-1,3-thiazol-5-yl)methyl]-3-methyl-2-nitroguanidine

> <STRUCTURE_SMILES>
ClC(S1)=NC=C1CN/C(NC)=N/[N+]([O-])=O

> <STRUCTURE_Parent_SMILES>
ClC(S1)=NC=C1CN/C(NC)=N/[N+]([O-])=O

> <STRUCTURE_InChIS>
InChI=1S/C6H8ClN5O2S/c1-8-6(11-12(13)14)10-3-4-2-9-5(7)15-4/h2H,3H2,1H3,(H2,8,10,11)

> <STRUCTURE_InChIKey>
PGOOBECODWQEAB-UHFFFAOYSA-N

> <Substance_modify_yyyymmdd>
20080429

> <Coord_Metals>
0

> <Index>
720

> <Canonical_Smiles>
CN=C(NCc1cnc(Cl)s1)NN(=O)=O

> <Molecular_Weight>
249.67801

> <Frequency>
1

$$$$

  SciTegic          2D

  5  4  0  0  0  0            999 V2000
    1.3000    0.7500    0.0000 C   0  0
    0.2606    0.1503    0.0000 N   0  0
    2.6000    1.5000    0.0000 N   0  0
    3.4662    1.0003    0.0000 H   0  0
    2.6000    2.5000    0.0000 H   0  0
  1  2  3  0
  1  3  1  0
  3  4  1  0
  3  5  1  0
V    1 0
V    2 1
V    3 2
M  END
> <DSSTox_RID>
65274

> <DSSTox_CID>
14490

> <DSSTox_CID_Parent>
14490

> <DSSTox_Generic_SID>
34490

> <DSSTox_FileID>
721_TXCST2_v1a

> <STRUCTURE_Formula>
CH2N2

> <STRUCTURE_MolecularWeight>
42.04

> <STRUCTURE_ChemicalType>
defined organic

> <STRUCTURE_TestedForm_DefinedOrganic>
parent

> <STRUCTURE_Shown>
tested chemical

> <TestSubstance_ChemicalName>
Cyanamide

> <TestSubstance_CASRN>
420-04-2

> <TestSubstance_Description>
single chemical compound

> <STRUCTURE_ChemicalName_IUPAC>
cyanamide

> <STRUCTURE_SMILES>
N#CN

> <STRUCTURE_InChIS>
InChI=1S/CH2N2/c2-1-3/h2H2

> <STRUCTURE_InChIKey>
XZMCDFZZKTWFGF-UHFFFAOYSA-N

> <Substance_modify_yyyymmdd>
20080429

> <Coord_Metals>
0

> <Index>
721

> <Canonical_Smiles>
NC#N

> <Molecular_Weight>
42.03998

> <Frequency>
1

$$$$

  SciTegic          2D

 34 35  0  0  0  0            999 V2000
    4.2010   -3.2956    0.0000 N   0  0
    3.9511   -0.8815    0.0000 N   0  0
    4.9531   -1.9978    0.0000 C   0  0
    2.7343   -2.9815    0.0000 C   0  0
    2.5987   -1.5004    0.0000 C   0  0
    4.2537    0.5858    0.0000 S   0  0
    3.3568    1.3830    0.0000 O   0  0
    4.4954    1.7612    0.0000 O   0  0
    5.6779    1.0592    0.0000 N   0  0
    1.8365   -3.7777    0.0000 Cl  0  0
    6.4433   -1.8435    0.0000 C   0  0
    7.6370   -1.7200    0.0000 N   0  0
    5.9809    2.5291    0.0000 C   0  0
    6.8017    0.0645    0.0000 C   0  0
    1.2990   -0.7500    0.0000 C   0  0
    1.2990    0.7500    0.0000 C   0  0
    0.0000   -1.5000    0.0000 C   0  0
    0.0000    1.5000    0.0000 C   0  0
   -1.2990   -0.7500    0.0000 C   0  0
   -1.2990    0.7500    0.0000 C   0  0
   -2.5988    1.5004    0.0000 C   0  0
    6.9299    2.8446    0.0000 H   0  0
    6.1824    3.5086    0.0000 H   0  0
    5.2335    3.1935    0.0000 H   0  0
    7.7503    0.3810    0.0000 H   0  0
    7.5502   -0.5987    0.0000 H   0  0
    6.6018   -0.9153    0.0000 H   0  0
    2.1651    1.2500    0.0000 H   0  0
    0.0000   -2.5000    0.0000 H   0  0
    0.0000    2.5000    0.0000 H   0  0
   -2.1651   -1.2500    0.0000 H   0  0
   -2.5994    2.5004    0.0000 H   0  0
   -3.4647    1.0001    0.0000 H   0  0
   -3.4651    2.0000    0.0000 H   0  0
  1  3  2  0
  1  4  1  0
  2  3  1  0
  2  5  1  0
  2  6  1  0
  3 11  1  0
  4  5  2  0
  4 10  1  0
  5 15  1  0
  6  7  2  0
  6  9  1  0
  6  8  2  0
  9 13  1  0
  9 14  1  0
 11 12  3  0
 15 16  2  0
 15 17  1  0
 16 18  1  0
 17 19  2  0
 18 20  2  0
 19 20  1  0
 20 21  1  0
 13 22  1  0
 13 23  1  0
 13 24  1  0
 14 25  1  0
 14 26  1  0
 14 27  1  0
 16 28  1  0
 17 29  1  0
 18 30  1  0
 19 31  1  0
 21 32  1  0
 21 33  1  0
 21 34  1  0
V    1 0
V    2 1
V    3 2
V    4 3
V    5 4
V    6 5
V    7 6
V    8 7
V    9 8
V   10 9
V   11 10
V   12 11
V   13 12
V   14 13
V   15 14
V   16 15
V   17 16
V   18 17
V   19 18
V   20 19
V   21 20
M  END
> <DSSTox_RID>
65325

> <DSSTox_CID>
14492

> <DSSTox_CID_Parent>
14492

> <DSSTox_Generic_SID>
34492

> <DSSTox_FileID>
722_TXCST2_v1a

> <STRUCTURE_Formula>
C13H13ClN4O2S

> <STRUCTURE_MolecularWeight>
324.7859

> <STRUCTURE_ChemicalType>
defined organic

> <STRUCTURE_TestedForm_DefinedOrganic>
parent

> <STRUCTURE_Shown>
tested chemical

> <TestSubstance_ChemicalName>
Cyazofamid

> <TestSubstance_CASRN>
120116-88-3

> <TestSubstance_Description>
single chemical compound

> <Source_ChemicalNote>
tested chemical contained 0.04% water (0.01 moles H2O)

> <STRUCTURE_ChemicalName_IUPAC>
4-chloro-2-cyano-N,N-dimethyl-5-(4-methylphenyl)-1H-imidazole-1-sulfonamide

> <STRUCTURE_SMILES>
O=S(N1C(C#N)=NC(Cl)=C1C2=CC=C(C)C=C2)(N(C)C)=O

> <STRUCTURE_Parent_SMILES>
O=S(N1C(C#N)=NC(Cl)=C1C2=CC=C(C)C=C2)(N(C)C)=O

> <STRUCTURE_InChIS>
InChI=1S/C13H13ClN4O2S/c1-9-4-6-10(7-5-9)12-13(14)16-11(8-15)18(12)21(19,20)17(2)3/h4-7H,1-3H3

> <STRUCTURE_InChIKey>
YXKMMRDKEKCERS-UHFFFAOYSA-N

> <Substance_modify_yyyymmdd>
20080429

> <Coord_Metals>
0

> <Index>
722

> <Canonical_Smiles>
CN(C)S(=O)(=O)n1c(nc(Cl)c1c2ccc(C)cc2)C#N

> <Molecular_Weight>
324.78592

> <Frequency>
1

$$$$

  SciTegic          2D

 46 47  0  0  0  0            999 V2000
    3.8933   -3.7570    0.0000 C   0  0
    4.7602   -3.2585    0.0000 O   0  0
    3.8912   -5.2578    0.0000 O   0  0
    2.5951   -3.0039    0.0000 C   0  0
    3.9200   -2.2388    0.0000 C   0  0
    2.5973   -1.5031    0.0000 O   0  0
    1.2990   -0.7500    0.0000 C   0  0
    1.2990    0.7500    0.0000 C   0  0
    0.0000   -1.5000    0.0000 C   0  0
    0.0000    1.5000    0.0000 C   0  0
   -1.2990   -0.7500    0.0000 C   0  0
   -1.2990    0.7500    0.0000 C   0  0
   -2.6003    1.4977    0.0000 O   0  0
   -3.8990    0.7455    0.0000 C   0  0
   -5.2007    1.4909    0.0000 C   0  0
   -3.8939   -0.7546    0.0000 C   0  0
   -6.4972    0.7364    0.0000 C   0  0
   -5.1903   -1.5091    0.0000 C   0  0
   -6.4920   -0.7636    0.0000 C   0  0
   -7.7891   -1.5185    0.0000 C   0  0
   -8.8263   -2.1221    0.0000 N   0  0
   -5.2049    2.6909    0.0000 F   0  0
    5.1894   -6.0109    0.0000 C   0  0
    5.1873   -7.5117    0.0000 C   0  0
    6.4855   -8.2648    0.0000 C   0  0
    6.4833   -9.7656    0.0000 C   0  0
    1.7282   -3.5024    0.0000 H   0  0
    3.9205   -1.2388    0.0000 H   0  0
    4.7862   -1.7390    0.0000 H   0  0
    4.7860   -2.7389    0.0000 H   0  0
    2.1651    1.2500    0.0000 H   0  0
    0.0000   -2.5000    0.0000 H   0  0
    0.0000    2.5000    0.0000 H   0  0
   -2.1651   -1.2500    0.0000 H   0  0
   -3.0262   -1.2516    0.0000 H   0  0
   -7.3649    1.2334    0.0000 H   0  0
   -5.1869   -2.5091    0.0000 H   0  0
    6.0563   -5.5124    0.0000 H   0  0
    5.1913   -5.0109    0.0000 H   0  0
    4.3204   -8.0102    0.0000 H   0  0
    4.3220   -7.0104    0.0000 H   0  0
    7.3524   -7.7663    0.0000 H   0  0
    6.4874   -7.2648    0.0000 H   0  0
    7.3483  -10.2674    0.0000 H   0  0
    5.6164  -10.2641    0.0000 H   0  0
    6.4814  -10.7656    0.0000 H   0  0
  1  2  2  0
  1  3  1  0
  1  4  1  0
  3 23  1  0
  4  5  1  0
  4  6  1  0
  6  7  1  0
  7  8  2  0
  7  9  1  0
  8 10  1  0
  9 11  2  0
 10 12  2  0
 11 12  1  0
 12 13  1  0
 13 14  1  0
 14 15  2  0
 14 16  1  0
 15 17  1  0
 15 22  1  0
 16 18  2  0
 17 19  2  0
 18 19  1  0
 19 20  1  0
 20 21  3  0
 23 24  1  0
 24 25  1  0
 25 26  1  0
  4 27  1  0
  5 28  1  0
  5 29  1  0
  5 30  1  0
  8 31  1  0
  9 32  1  0
 10 33  1  0
 11 34  1  0
 16 35  1  0
 17 36  1  0
 18 37  1  0
 23 38  1  0
 23 39  1  0
 24 40  1  0
 24 41  1  0
 25 42  1  0
 25 43  1  0
 26 44  1  0
 26 45  1  0
 26 46  1  0
V    1 0
V    2 1
V    3 2
V    4 3
V    5 4
V    6 5
V    7 6
V    8 7
V    9 8
V   10 9
V   11 10
V   12 11
V   13 12
V   14 13
V   15 14
V   16 15
V   17 16
V   18 17
V   19 18
V   20 19
V   21 20
V   22 21
V   23 22
V   24 23
V   25 24
V   26 25
M  END
> <DSSTox_RID>
62310

> <DSSTox_CID>
14503

> <DSSTox_CID_Parent>
14503

> <DSSTox_Generic_SID>
34503

> <DSSTox_FileID>
723_TXCST2_v1a

> <STRUCTURE_Formula>
C20H20FNO4

> <STRUCTURE_MolecularWeight>
357.3755

> <STRUCTURE_ChemicalType>
defined organic

> <STRUCTURE_TestedForm_DefinedOrganic>
parent

> <STRUCTURE_Shown>
tested chemical

> <TestSubstance_ChemicalName>
Cyhalofop-butyl

> <TestSubstance_CASRN>
122008-85-9

> <TestSubstance_Description>
single chemical compound

> <ChemicalNote>
stereochem

> <STRUCTURE_ChemicalName_IUPAC>
butyl (2R)-2-[4-(4-cyano-2-fluorophenoxy)phenoxy]propanoate

> <STRUCTURE_SMILES>
O=C([C@H](OC1=CC=C(OC2=C(F)C=C(C#N)C=C2)C=C1)C)OCCCC

> <STRUCTURE_Parent_SMILES>
O=C([C@H](OC1=CC=C(OC2=C(F)C=C(C#N)C=C2)C=C1)C)OCCCC

> <STRUCTURE_InChIS>
InChI=1S/C20H20FNO4/c1-3-4-11-24-20(23)14(2)25-16-6-8-17(9-7-16)26-19-10-5-15(13-22)12-18(19)21/h5-10,12,14H,3-4,11H2,1-2H3/t14-/m1/s1

> <STRUCTURE_InChIKey>
TYIYMOAHACZAMQ-CQSZACIVSA-N

> <Substance_modify_yyyymmdd>
20080429

> <Coord_Metals>
0

> <Index>
723

> <Canonical_Smiles>
CCCCOC(=O)C(C)Oc1ccc(Oc2ccc(cc2F)C#N)cc1

> <Molecular_Weight>
357.3755

> <Frequency>
1

$$$$

  SciTegic          2D

 35 37  0  0  0  0            999 V2000
   -2.3155    0.7475    0.0000 N   0  0
    0.2917    0.7475    0.0000 N   0  0
   -1.0028    1.5132    0.0000 C   0  0
   -1.0028   -1.5132    0.0000 C   0  0
   -2.3155   -0.7475    0.0000 C   0  0
    0.2917   -0.7475    0.0000 C   0  0
    1.7138    1.2033    0.0000 N   0  0
    2.5889    0.0182    0.0000 C   0  0
    1.7138   -1.2033    0.0000 N   0  0
    4.0872    0.0351    0.0000 S   0  0
    4.6987   -0.9974    0.0000 O   0  0
    5.2871    0.0482    0.0000 O   0  0
    4.8236    1.3429    0.0000 N   0  0
    6.3243    1.3600    0.0000 C   0  0
    7.0622    2.6659    0.0000 C   0  0
    7.0865    0.0680    0.0000 C   0  0
    8.5622    2.6800    0.0000 C   0  0
    8.5865    0.0820    0.0000 C   0  0
    9.3243    1.3880    0.0000 C   0  0
    6.4526    3.6995    0.0000 Cl  0  0
    6.4963   -0.9768    0.0000 Cl  0  0
   -0.9971    3.0138    0.0000 O   0  0
   -2.2935    3.7700    0.0000 C   0  0
   -2.2878    5.2708    0.0000 C   0  0
   -3.3560   -1.3452    0.0000 F   0  0
   -0.9997   -2.5132    0.0000 H   0  0
    4.3140    2.2033    0.0000 H   0  0
    9.0541    3.5506    0.0000 H   0  0
    9.0945   -0.7793    0.0000 H   0  0
   10.3242    1.3973    0.0000 H   0  0
   -3.1616    3.2735    0.0000 H   0  0
   -2.2978    2.7700    0.0000 H   0  0
   -3.1516    5.7746    0.0000 H   0  0
   -1.4197    5.7672    0.0000 H   0  0
   -2.2835    6.2708    0.0000 H   0  0
  1  3  2  0
  1  5  1  0
  2  3  1  0
  2  6  1  0
  2  7  1  0
  3 22  1  0
  4  5  2  0
  4  6  1  0
  5 25  1  0
  6  9  2  0
  7  8  2  0
  8  9  1  0
  8 10  1  0
 10 11  2  0
 10 13  1  0
 10 12  2  0
 13 14  1  0
 14 15  2  0
 14 16  1  0
 15 17  1  0
 15 20  1  0
 16 18  2  0
 16 21  1  0
 17 19  2  0
 18 19  1  0
 22 23  1  0
 23 24  1  0
  4 26  1  0
 13 27  1  0
 17 28  1  0
 18 29  1  0
 19 30  1  0
 23 31  1  0
 23 32  1  0
 24 33  1  0
 24 34  1  0
 24 35  1  0
V    1 0
V    2 1
V    3 2
V    4 3
V    5 4
V    6 5
V    7 6
V    8 7
V    9 8
V   10 9
V   11 10
V   12 11
V   13 12
V   14 13
V   15 14
V   16 15
V   17 16
V   18 17
V   19 18
V   20 19
V   21 20
V   22 21
V   23 22
V   24 23
V   25 24
M  END
> <DSSTox_RID>
62327

> <DSSTox_CID>
14528

> <DSSTox_CID_Parent>
14528

> <DSSTox_Generic_SID>
34528

> <DSSTox_FileID>
724_TXCST2_v1a

> <STRUCTURE_Formula>
C13H10Cl2FN5O3S

> <STRUCTURE_MolecularWeight>
406.2196

> <STRUCTURE_ChemicalType>
defined organic

> <STRUCTURE_TestedForm_DefinedOrganic>
parent

> <STRUCTURE_Shown>
tested chemical

> <TestSubstance_ChemicalName>
Diclosulam

> <TestSubstance_CASRN>
145701-21-9

> <TestSubstance_Description>
single chemical compound

> <STRUCTURE_ChemicalName_IUPAC>
N-(2,6-dichlorophenyl)-5-ethoxy-7-fluoro[1,2,4]triazolo[1,5-c]pyrimidine-2-sulfonamide

> <STRUCTURE_SMILES>
O=S(C2=NN1C(OCC)=NC(F)=CC1=N2)(NC3=C(Cl)C=CC=C3Cl)=O

> <STRUCTURE_Parent_SMILES>
O=S(C2=NN1C(OCC)=NC(F)=CC1=N2)(NC3=C(Cl)C=CC=C3Cl)=O

> <STRUCTURE_InChIS>
InChI=1S/C13H10Cl2FN5O3S/c1-2-24-13-17-9(16)6-10-18-12(19-21(10)13)25(22,23)20-11-7(14)4-3-5-8(11)15/h3-6,20H,2H2,1H3

> <STRUCTURE_InChIKey>
QNXAVFXEJCPCJO-UHFFFAOYSA-N

> <Substance_modify_yyyymmdd>
20080429

> <Coord_Metals>
0

> <Index>
724

> <Canonical_Smiles>
CCOc1nc(F)cc2nc(nn12)S(=O)(=O)Nc3c(Cl)cccc3Cl

> <Molecular_Weight>
406.2196

> <Frequency>
1

$$$$

  SciTegic          2D

 49 51  0  0  0  0            999 V2000
    1.2990   -0.7500    0.0000 N   0  0
   -1.2990    0.7500    0.0000 O   0  0
    1.2990    0.7500    0.0000 C   0  0
    0.0000   -1.5000    0.0000 C   0  0
    0.0000    1.5000    0.0000 C   0  0
    2.5973   -1.5031    0.0000 C   0  0
    2.5951   -3.0039    0.0000 C   0  0
    3.8933   -3.7570    0.0000 C   0  0
    3.8912   -5.2578    0.0000 C   0  0
    5.1876   -6.0124    0.0000 C   0  0
    2.5895   -6.0034    0.0000 C   0  0
    5.1824   -7.5124    0.0000 C   0  0
    2.5844   -7.5034    0.0000 C   0  0
    3.8808   -8.2579    0.0000 C   0  0
    3.8767   -9.4579    0.0000 Cl  0  0
    5.1943   -3.0089    0.0000 C   0  0
    6.4932   -3.7593    0.0000 C   0  0
    5.1950   -1.5088    0.0000 C   0  0
    7.7925   -3.0098    0.0000 C   0  0
    6.4943   -0.7593    0.0000 C   0  0
    7.7931   -1.5098    0.0000 C   0  0
    9.0935   -3.7580    0.0000 O   0  0
   10.3925   -3.0063    0.0000 C   0  0
    9.0916   -0.7572    0.0000 O   0  0
    9.0900    0.7436    0.0000 C   0  0
    3.6375   -0.9049    0.0000 O   0  0
   -1.2990   -0.7500    0.0000 C   0  0
    1.2754    1.7497    0.0000 H   0  0
    2.1531    0.2298    0.0000 H   0  0
   -0.8776   -1.9794    0.0000 H   0  0
    0.8775   -1.9795    0.0000 H   0  0
    0.8776    1.9794    0.0000 H   0  0
   -0.8775    1.9795    0.0000 H   0  0
    1.7282   -3.5024    0.0000 H   0  0
    6.0554   -5.5154    0.0000 H   0  0
    1.7252   -5.5004    0.0000 H   0  0
    6.0467   -8.0154    0.0000 H   0  0
    1.7166   -8.0004    0.0000 H   0  0
    6.4929   -4.7593    0.0000 H   0  0
    4.3292   -1.0085    0.0000 H   0  0
    6.4947    0.2407    0.0000 H   0  0
   11.2594   -3.5048    0.0000 H   0  0
   10.3911   -2.0063    0.0000 H   0  0
   11.2578   -2.5049    0.0000 H   0  0
    9.9552    1.2451    0.0000 H   0  0
    8.2233    1.2424    0.0000 H   0  0
    9.0885    1.7436    0.0000 H   0  0
   -1.2754   -1.7497    0.0000 H   0  0
   -2.1531   -0.2298    0.0000 H   0  0
  1  3  1  0
  1  4  1  0
  1  6  1  0
  2  5  1  0
  2 27  1  0
  3  5  1  0
  4 27  1  0
  7  6  1  0
  6 26  2  0
  7  8  2  0
  8  9  1  0
  8 16  1  0
  9 10  2  0
  9 11  1  0
 10 12  1  0
 11 13  2  0
 12 14  2  0
 13 14  1  0
 14 15  1  0
 16 17  2  0
 16 18  1  0
 17 19  1  0
 18 20  2  0
 19 21  2  0
 19 22  1  0
 20 21  1  0
 21 24  1  0
 22 23  1  0
 24 25  1  0
  3 28  1  0
  3 29  1  0
  4 30  1  0
  4 31  1  0
  5 32  1  0
  5 33  1  0
  7 34  1  0
 10 35  1  0
 11 36  1  0
 12 37  1  0
 13 38  1  0
 17 39  1  0
 18 40  1  0
 20 41  1  0
 23 42  1  0
 23 43  1  0
 23 44  1  0
 25 45  1  0
 25 46  1  0
 25 47  1  0
 27 48  1  0
 27 49  1  0
V    1 0
V    2 1
V    3 2
V    4 3
V    5 4
V    6 5
V    7 6
V    8 7
V    9 8
V   10 9
V   11 10
V   12 11
V   13 12
V   14 13
V   15 14
V   16 15
V   17 16
V   18 17
V   19 18
V   20 19
V   21 20
V   22 21
V   23 22
V   24 23
V   25 24
V   26 25
V   27 26
M  END
> <DSSTox_RID>
65465

> <DSSTox_CID>
14545

> <DSSTox_CID_Parent>
14545

> <DSSTox_Generic_SID>
34545

> <DSSTox_FileID>
725_TXCST2_v1a

> <STRUCTURE_Formula>
C21H22ClNO4

> <STRUCTURE_MolecularWeight>
387.8567

> <STRUCTURE_ChemicalType>
defined organic

> <STRUCTURE_TestedForm_DefinedOrganic>
parent

> <STRUCTURE_Shown>
representative isomer in mixture

> <TestSubstance_ChemicalName>
Dimethomorph

> <TestSubstance_CASRN>
110488-70-5

> <TestSubstance_Description>
mixture or formulation

> <ChemicalNote>
mixture of Z,E isomers structure shown E, stereochem

> <Source_ChemicalNote>
tested chemical was a mixture of isomers

> <STRUCTURE_ChemicalName_IUPAC>
4-[(2E)-3-(4-chlorophenyl)-3-(3,4-dimethoxyphenyl)prop-2-enoyl]morpholine

> <STRUCTURE_SMILES>
ClC2=CC=C(C=C2)/C(C3=CC(OC)=C(OC)C=C3)=C\C(N1CCOCC1)=O

> <STRUCTURE_Parent_SMILES>
ClC2=CC=C(C=C2)/C(C3=CC(OC)=C(OC)C=C3)=C\C(N1CCOCC1)=O

> <STRUCTURE_InChIS>
InChI=1S/C21H22ClNO4/c1-25-19-8-5-16(13-20(19)26-2)18(15-3-6-17(22)7-4-15)14-21(24)23-9-11-27-12-10-23/h3-8,13-14H,9-12H2,1-2H3/b18-14+

> <STRUCTURE_InChIKey>
QNBTYORWCCMPQP-NBVRZTHBSA-N

> <Substance_modify_yyyymmdd>
20080429

> <Coord_Metals>
0

> <Index>
725

> <Canonical_Smiles>
COc1ccc(cc1OC)C(=CC(=O)N2CCOCC2)c3ccc(Cl)cc3

> <Molecular_Weight>
387.85668

> <Frequency>
1

$$$$

  SciTegic          2D

138144  0  0  0  0            999 V2000
   -3.3197   11.1265    0.0000 C   0  0
   -1.9312   12.1246    0.0000 C   0  0
   -3.2513    9.6608    0.0000 O   0  0
   -4.6107   10.1984    0.0000 O   0  0
   -3.3881   12.5922    0.0000 C   0  0
   -0.6449   11.5345    0.0000 C   0  0
   -1.8780    9.1209    0.0000 C   0  0
   -5.9783   10.7302    0.0000 C   0  0
   -4.7498   13.1158    0.0000 C   0  0
   -0.4895   10.1191    0.0000 C   0  0
    0.7192   12.5151    0.0000 O   0  0
   -1.8096    7.6553    0.0000 C   0  0
   -6.0408   12.1877    0.0000 C   0  0
   -5.8053    9.2563    0.0000 C   0  0
    2.0926   11.9752    0.0000 C   0  0
   -0.4421    7.1235    0.0000 C   0  0
   -6.1061   13.6648    0.0000 C   0  0
   -7.0258    8.3829    0.0000 C   0  0
   -4.4389    8.6356    0.0000 C   0  0
    3.4810   12.9734    0.0000 C   0  0
    2.2414   10.7845    0.0000 O   0  0
   -0.3737    5.6578    0.0000 C   0  0
   -8.3929    9.0023    0.0000 C   0  0
    4.8486   12.4416    0.0000 C   0  0
    3.4068   14.4472    0.0000 C   0  0
    0.9938    5.1260    0.0000 C   0  0
   -1.5915    4.7823    0.0000 C   0  0
    6.1477   13.3755    0.0000 C   0  0
    4.9169   10.9759    0.0000 C   0  0
    6.2165   11.8241    0.0000 O   0  0
    4.7060   15.3811    0.0000 C   0  0
   -0.2071    4.2635    0.0000 O   0  0
    2.3823    6.1242    0.0000 C   0  0
    7.5836   11.3781    0.0000 O   0  0
    6.1686   14.9054    0.0000 C   0  0
    6.2845   10.4442    0.0000 C   0  0
    3.5285    9.9778    0.0000 C   0  0
    4.4929   16.8675    0.0000 C   0  0
   -1.5912    4.8437    0.0000 C   0  0
    2.2327    7.5315    0.0000 C   0  0
    3.5604    7.0211    0.0000 C   0  0
    6.0005   16.3838    0.0000 O   0  0
    3.5968    8.5121    0.0000 C   0  0
   -2.9415    5.4486    0.0000 C   0  0
   -1.3683    3.3810    0.0000 O   0  0
   -4.1352    4.5404    0.0000 C   0  0
   -2.5621    2.4727    0.0000 C   0  0
   -3.9455    3.0524    0.0000 C   0  0
   -5.5377    4.0663    0.0000 O   0  0
   -1.1830    1.9344    0.0000 C   0  0
   -4.2362    1.6008    0.0000 O   0  0
   -6.6893    5.0288    0.0000 C   0  0
   -5.6455    1.0847    0.0000 C   0  0
   -7.0468    0.6098    0.0000 C   0  0
   -4.4873    0.1641    0.0000 O   0  0
   -7.3042   -0.8679    0.0000 C   0  0
   -4.7446   -1.3137    0.0000 C   0  0
   -6.1531   -1.8297    0.0000 C   0  0
   -8.0099   -2.1694    0.0000 O   0  0
   -3.3675   -0.7704    0.0000 C   0  0
   -5.3789   -3.0915    0.0000 N   0  0
   -9.5087   -2.2471    0.0000 C   0  0
   -6.0610   -4.4284    0.0000 C   0  0
   -2.8509   12.5174    0.0000 H   0  0
   -1.1042   12.6868    0.0000 H   0  0
   -2.5772   13.1774    0.0000 H   0  0
   -1.4587   10.9533    0.0000 H   0  0
   -2.6910    8.5387    0.0000 H   0  0
   -6.8810   11.1603    0.0000 H   0  0
   -4.8775   14.1076    0.0000 H   0  0
   -0.4083    9.1224    0.0000 H   0  0
    0.3059   10.7252    0.0000 H   0  0
   -0.9866    8.2233    0.0000 H   0  0
   -1.6912    6.6623    0.0000 H   0  0
   -5.1299   11.7751    0.0000 H   0  0
   -5.7081    8.2610    0.0000 H   0  0
    0.3699    7.7072    0.0000 H   0  0
   -5.2782   14.2255    0.0000 H   0  0
   -6.1776   14.6622    0.0000 H   0  0
   -7.0056   14.1017    0.0000 H   0  0
   -7.1233    9.3781    0.0000 H   0  0
   -6.9281    7.3877    0.0000 H   0  0
   -4.3413    7.6403    0.0000 H   0  0
   -3.5283    8.2224    0.0000 H   0  0
   -3.6257    9.2175    0.0000 H   0  0
    2.5800   13.4071    0.0000 H   0  0
   -9.2061    8.4204    0.0000 H   0  0
   -9.3035    9.4155    0.0000 H   0  0
   -8.4905    9.9975    0.0000 H   0  0
    2.5058   14.8809    0.0000 H   0  0
    1.9260    4.7639    0.0000 H   0  0
   -2.5033    5.1931    0.0000 H   0  0
   -1.4917    3.7873    0.0000 H   0  0
   -2.4032    4.1983    0.0000 H   0  0
    7.1016   13.6756    0.0000 H   0  0
    6.3165   10.8291    0.0000 H   0  0
    2.4608    5.1273    0.0000 H   0  0
    7.0729   14.4784    0.0000 H   0  0
    5.4729    9.8599    0.0000 H   0  0
    7.2162   10.0810    0.0000 H   0  0
    2.6282   10.4132    0.0000 H   0  0
    3.5651   17.2404    0.0000 H   0  0
    5.2796   17.4849    0.0000 H   0  0
    4.3518   17.8575    0.0000 H   0  0
   -1.7178    5.8356    0.0000 H   0  0
    1.3200    7.9400    0.0000 H   0  0
    3.4582    8.0159    0.0000 H   0  0
    4.3707    7.6071    0.0000 H   0  0
    4.4731    6.6125    0.0000 H   0  0
    5.0900   16.7973    0.0000 H   0  0
    4.4971    8.0768    0.0000 H   0  0
   -2.1251    6.0261    0.0000 H   0  0
   -3.8677    5.8256    0.0000 H   0  0
   -3.2227    4.1314    0.0000 H   0  0
   -3.3725    1.8869    0.0000 H   0  0
   -4.8581    3.4614    0.0000 H   0  0
   -0.3869    2.5395    0.0000 H   0  0
   -0.2608    1.5477    0.0000 H   0  0
   -1.0566    0.9424    0.0000 H   0  0
   -7.6285    4.6855    0.0000 H   0  0
   -7.4563    5.6704    0.0000 H   0  0
   -6.5172    6.0139    0.0000 H   0  0
   -6.4130    1.7258    0.0000 H   0  0
   -6.3022   -0.0576    0.0000 H   0  0
   -7.9822    0.2562    0.0000 H   0  0
   -8.0557   -0.2082    0.0000 H   0  0
   -5.4961   -0.6539    0.0000 H   0  0
   -7.1002   -2.1506    0.0000 H   0  0
   -3.1955    0.2147    0.0000 H   0  0
   -2.4284   -0.4266    0.0000 H   0  0
   -2.6002   -1.4116    0.0000 H   0  0
   -4.3802   -3.0401    0.0000 H   0  0
   -9.9637   -3.1375    0.0000 H   0  0
  -10.5074   -2.2984    0.0000 H   0  0
  -10.0526   -1.4079    0.0000 H   0  0
   -5.5174   -5.2677    0.0000 H   0  0
   -7.0597   -4.4799    0.0000 H   0  0
   -6.5159   -5.3189    0.0000 H   0  0
  1  2  1  0
  1  3  1  0
  1  4  1  0
  1  5  1  0
  2  6  1  0
  3  7  1  0
  4  8  1  0
  5  9  2  0
  6 10  1  0
  6 11  1  0
  7 12  1  0
  7 10  1  0
  8 13  1  0
  8 14  1  0
  9 13  1  0
 11 15  1  0
 16 12  1  0
 13 17  1  0
 14 18  1  0
 14 19  1  0
 15 20  1  0
 15 21  2  0
 16 22  2  0
 18 23  1  0
 20 24  1  0
 20 25  1  0
 22 26  1  0
 22 27  1  0
 24 28  1  0
 24 29  1  0
 24 30  1  0
 25 31  2  0
 26 32  1  0
 26 33  1  0
 28 34  1  0
 28 35  1  0
 29 36  1  0
 29 37  2  0
 31 38  1  0
 31 35  1  0
 39 32  1  0
 33 40  1  0
 33 41  1  0
 34 36  1  0
 35 42  1  0
 37 43  1  0
 39 44  1  0
 39 45  1  0
 40 43  2  0
 44 46  1  0
 45 47  1  0
 46 48  1  0
 46 49  1  0
 47 50  1  0
 47 48  1  0
 48 51  1  0
 49 52  1  0
 53 51  1  0
 53 54  1  0
 53 55  1  0
 54 56  1  0
 55 57  1  0
 56 58  1  0
 56 59  1  0
 57 60  1  0
 57 58  1  0
 58 61  1  0
 59 62  1  0
 61 63  1  0
  2 64  1  0
  2 65  1  0
  5 66  1  0
  6 67  1  0
  7 68  1  0
  8 69  1  0
  9 70  1  0
 10 71  1  0
 10 72  1  0
 12 73  1  0
 12 74  1  0
 13 75  1  0
 14 76  1  0
 16 77  1  0
 17 78  1  0
 17 79  1  0
 17 80  1  0
 18 81  1  0
 18 82  1  0
 19 83  1  0
 19 84  1  0
 19 85  1  0
 20 86  1  0
 23 87  1  0
 23 88  1  0
 23 89  1  0
 25 90  1  0
 26 91  1  0
 27 92  1  0
 27 93  1  0
 27 94  1  0
 28 95  1  0
 30 96  1  0
 33 97  1  0
 35 98  1  0
 36 99  1  0
 36100  1  0
 37101  1  0
 38102  1  0
 38103  1  0
 38104  1  0
 39105  1  0
 40106  1  0
 41107  1  0
 41108  1  0
 41109  1  0
 42110  1  0
 43111  1  0
 44112  1  0
 44113  1  0
 46114  1  0
 47115  1  0
 48116  1  0
 50117  1  0
 50118  1  0
 50119  1  0
 52120  1  0
 52121  1  0
 52122  1  0
 53123  1  0
 54124  1  0
 54125  1  0
 56126  1  0
 57127  1  0
 58128  1  0
 60129  1  0
 60130  1  0
 60131  1  0
 61132  1  0
 62133  1  0
 62134  1  0
 62135  1  0
 63136  1  0
 63137  1  0
 63138  1  0
V    1 0
V    2 1
V    3 2
V    4 3
V    5 4
V    6 5
V    7 6
V    8 7
V    9 8
V   10 9
V   11 10
V   12 11
V   13 12
V   14 13
V   15 14
V   16 15
V   17 16
V   18 17
V   19 18
V   20 19
V   21 20
V   22 21
V   23 22
V   24 23
V   25 24
V   26 25
V   27 26
V   28 27
V   29 28
V   30 29
V   31 30
V   32 31
V   33 32
V   34 33
V   35 34
V   36 35
V   37 36
V   38 37
V   39 38
V   40 39
V   41 40
V   42 41
V   43 42
V   44 43
V   45 44
V   46 45
V   47 46
V   48 47
V   49 48
V   50 49
V   51 50
V   52 51
V   53 52
V   54 53
V   55 54
V   56 55
V   57 56
V   58 57
V   59 58
V   60 59
V   61 60
V   62 61
V   63 67
M  END
> <DSSTox_RID>
62396

> <DSSTox_CID>
14566

> <DSSTox_CID_Parent>
15052

> <DSSTox_Generic_SID>
34566

> <DSSTox_FileID>
726_TXCST2_v1a

> <STRUCTURE_Formula>
C56H81NO15

> <STRUCTURE_MolecularWeight>
1008.24

> <STRUCTURE_ChemicalType>
defined organic

> <STRUCTURE_TestedForm_DefinedOrganic>
complex benzoate (C7H5O2)

> <STRUCTURE_Shown>
representative component in mixture

> <TestSubstance_ChemicalName>
Emabectin benzoate

> <TestSubstance_CASRN>
155569-91-8

> <TestSubstance_Description>
mixture or formulation

> <ChemicalNote>
mixture of (4?R)-4?-deoxy-4?-(methylamino)avermectin B1a, B1b; structure shown B1a; stereochem; parent [119791-41-2, 137335-79-6]; ammonium; retired CASRN [137512-74-4]

> <Source_ChemicalNote>
tested chemical was a mixture of (4?R)-4?-deoxy-4?-(methylamino)avermectin B1a, B1

> <STRUCTURE_ChemicalName_IUPAC>
(2aE,4E,5'S,6S,6'R,7S,8E,11R,13S,15S,17aR,20R,20aR,20bS)-20,20b-dihydroxy-5',6,8,19-tetramethyl-6'-[(1S)-1-methylpropyl]-17-oxo-5',6,6',10,11,14,15,17,17a,20,20a,20b-dodecahydro-2H,7H-spiro[11,15-meth
anofuro[4,3,2-pq][2,6]benzodioxacyclooctadecine-13,2'-pyran]-7-yl 2,6-dideoxy-3-O-methyl-4-O-[2,4,6-trideoxy-3-O-methyl-4-(methylammonio)-a-L-arabino-hexopyranosyl]-a-L-arabino-hexopyranoside benzoate

> <STRUCTURE_SMILES>
O=C([C@@](C=C6C)([H])[C@@]/4(O)[C@]([C@@H]6O)([H])OCC4=C/C=C/[C@@H]5C)O[C@@H](C3)C[C@@]2(O[C@@]([C@@]([H])(C)CC)([H])[C@@H](C)C=C2)O[C@]3([H])C/C=C(C)/[C@H]5O[C@H]1C[C@H](OC)[C@@H](O[C@H]7C[C@H](OC)[C
@@H]([NH2+]C)[C@H](C)O7)[C@H](C)O1.O=C([O-])C8=CC=CC=C8

> <STRUCTURE_Parent_SMILES>
O=C([C@@](C=C6C)([H])[C@@]/4(O)[C@]([C@@H]6O)([H])OCC4=C/C=C/[C@@H]5C)O[C@@H](C3)C[C@@]2(O[C@@]([C@@]([H])(C)CC)([H])[C@@H](C)C=C2)O[C@]3([H])C/C=C(C)/[C@H]5O[C@H]1C[C@H](OC)[C@@H](O[C@H]7C[C@H](OC)[C
@@H](NC)[C@H](C)O7)[C@H](C)O1

> <STRUCTURE_InChIS>
InChI=1S/C49H75NO13.C7H6O2/c1-12-26(2)44-29(5)18-19-48(63-44)24-35-21-34(62-48)17-16-28(4)43(27(3)14-13-15-33-25-56-46-42(51)30(6)20-36(47(52)59-35)49(33,46)53)60-40-23-38(55-11)45(32(8)58-40)61-39-22
-37(54-10)41(50-9)31(7)57-39;8-7(9)6-4-2-1-3-5-6/h13-16,18-20,26-27,29,31-32,34-46,50-51,53H,12,17,21-25H2,1-11H3;1-5H,(H,8,9)/b14-13+,28-16+,33-15+;/t26-,27-,29-,31-,32-,34+,35-,36-,37-,38-,39-,40-,4
1-,42+,43-,44+,45-,46+,48+,49+;/m0./s1

> <STRUCTURE_InChIKey>
GCKZANITAMOIAR-XWVCPFKXSA-N

> <Substance_modify_yyyymmdd>
20080429

> <Coord_Metals>
0

> <Index>
726

> <Canonical_Smiles>
CCC(C)C1OC2(CC3CC(CC=C(C)C(OC4CC(OC)C(OC5CC(OC)C(NC)C(C)O5)C(C)O4)C(C)C=CC=C6COC7C(O)C(=CC(C(=O)O3)C67O)C)O2)C=CC1C

> <Molecular_Weight>
886.11869

> <Frequency>
1

$$$$

  SciTegic          2D

 37 38  0  0  0  0            999 V2000
   -4.9153    0.7255    0.0000 S   0  0
    1.7138    1.2033    0.0000 C   0  0
    0.2917    0.7475    0.0000 C   0  0
    1.7138   -1.2033    0.0000 O   0  0
    2.5889    0.0182    0.0000 C   0  0
    0.2917   -0.7475    0.0000 C   0  0
   -3.6217    1.4865    0.0000 O   0  0
   -4.9050   -0.4745    0.0000 O   0  0
   -3.8710    0.1342    0.0000 O   0  0
   -1.0028    1.5132    0.0000 C   0  0
   -2.3155    0.7475    0.0000 C   0  0
   -1.0028   -1.5132    0.0000 C   0  0
    3.3214   -1.2765    0.0000 O   0  0
   -6.2216    1.4644    0.0000 C   0  0
   -2.3155   -0.7475    0.0000 C   0  0
    3.1728    1.4912    0.0000 C   0  0
    0.6985    2.2904    0.0000 C   0  0
    2.5809   -2.5819    0.0000 C   0  0
    3.3404   -3.8764    0.0000 C   0  0
    3.0689    0.8955    0.0000 H   0  0
   -0.9997    2.5132    0.0000 H   0  0
   -0.9997   -2.5132    0.0000 H   0  0
   -7.0835    0.9573    0.0000 H   0  0
   -6.2301    2.4643    0.0000 H   0  0
   -7.0918    1.9571    0.0000 H   0  0
   -3.1826   -1.2456    0.0000 H   0  0
    3.8436    0.7496    0.0000 H   0  0
    4.1505    1.7012    0.0000 H   0  0
    3.4799    2.4429    0.0000 H   0  0
    1.0051    3.2423    0.0000 H   0  0
    0.0276    3.0319    0.0000 H   0  0
   -0.2791    2.0803    0.0000 H   0  0
    2.0745   -1.7196    0.0000 H   0  0
    1.5809   -2.5892    0.0000 H   0  0
    2.8470   -4.7462    0.0000 H   0  0
    3.8468   -4.7386    0.0000 H   0  0
    4.3403   -3.8691    0.0000 H   0  0
  1  7  1  0
  1  8  2  0
  1  9  2  0
  1 14  1  0
  2  3  1  0
  2  5  1  0
  2 16  1  0
  2 17  1  0
  3 10  1  0
  3  6  2  0
  4  6  1  0
  4  5  1  0
  5 13  1  0
  6 12  1  0
  7 11  1  0
 10 11  2  0
 11 15  1  0
 12 15  2  0
 13 18  1  0
 18 19  1  0
  5 20  1  0
 10 21  1  0
 12 22  1  0
 14 23  1  0
 14 24  1  0
 14 25  1  0
 15 26  1  0
 16 27  1  0
 16 28  1  0
 16 29  1  0
 17 30  1  0
 17 31  1  0
 17 32  1  0
 18 33  1  0
 18 34  1  0
 19 35  1  0
 19 36  1  0
 19 37  1  0
V    1 0
V    2 1
V    3 2
V    4 3
V    5 4
V    6 5
V    7 6
V    8 7
V    9 8
V   10 9
V   11 10
V   12 11
V   13 12
V   14 13
V   15 14
V   16 15
V   17 16
V   18 17
V   19 18
M  END
> <DSSTox_RID>
65322

> <DSSTox_CID>
14580

> <DSSTox_CID_Parent>
14580

> <DSSTox_Generic_SID>
34580

> <DSSTox_FileID>
727_TXCST2_v1a

> <STRUCTURE_Formula>
C13H18O5S

> <STRUCTURE_MolecularWeight>
286.344

> <STRUCTURE_ChemicalType>
defined organic

> <STRUCTURE_TestedForm_DefinedOrganic>
parent

> <STRUCTURE_Shown>
tested chemical

> <TestSubstance_ChemicalName>
Ethofumesate

> <TestSubstance_CASRN>
26225-79-6

> <TestSubstance_Description>
single chemical compound

> <STRUCTURE_ChemicalName_IUPAC>
2-ethoxy-3,3-dimethyl-2,3-dihydro-1-benzofuran-5-yl methanesulfonate

> <STRUCTURE_SMILES>
O=S(OC2=CC1=C(C=C2)OC(OCC)C(C)1C)(C)=O

> <STRUCTURE_Parent_SMILES>
O=S(OC2=CC1=C(C=C2)OC(OCC)C(C)1C)(C)=O

> <STRUCTURE_InChIS>
InChI=1S/C13H18O5S/c1-5-16-12-13(2,3)10-8-9(18-19(4,14)15)6-7-11(10)17-12/h6-8,12H,5H2,1-4H3

> <STRUCTURE_InChIKey>
IRCMYGHHKLLGHV-UHFFFAOYSA-N

> <Substance_modify_yyyymmdd>
20080429

> <Coord_Metals>
0

> <Index>
727

> <Canonical_Smiles>
CCOC1Oc2ccc(OS(=O)(=O)C)cc2C1(C)C

> <Molecular_Weight>
286.34402

> <Frequency>
1

$$$$

  SciTegic          2D

 49 51  0  0  0  0            999 V2000
    3.9511   -0.8815    0.0000 N   0  0
    2.5987   -1.5004    0.0000 C   0  0
    2.7343   -2.9815    0.0000 O   0  0
    4.9531   -1.9978    0.0000 C   0  0
    4.2010   -3.2956    0.0000 C   0  0
    1.2990   -0.7500    0.0000 C   0  0
    1.2990    0.7500    0.0000 C   0  0
    0.0000   -1.5000    0.0000 C   0  0
    0.0000    1.5000    0.0000 C   0  0
   -1.2990   -0.7500    0.0000 C   0  0
   -1.2990    0.7500    0.0000 C   0  0
    2.3383    1.3500    0.0000 F   0  0
    0.0000   -2.7000    0.0000 F   0  0
    5.5397   -0.6311    0.0000 C   0  0
    7.0293   -0.4543    0.0000 C   0  0
    4.6419    0.5705    0.0000 C   0  0
    7.6210    0.9241    0.0000 C   0  0
    5.2336    1.9489    0.0000 C   0  0
    6.7231    2.1257    0.0000 C   0  0
    6.8077    3.6241    0.0000 C   0  0
    8.1473    4.3009    0.0000 C   0  0
    5.5521    4.4462    0.0000 C   0  0
    8.0862    2.7837    0.0000 C   0  0
    7.9301   -1.6547    0.0000 O   0  0
    9.4202   -1.4757    0.0000 C   0  0
   10.3211   -2.6761    0.0000 C   0  0
    5.5275   -2.8164    0.0000 H   0  0
    5.1968   -3.3868    0.0000 H   0  0
    3.6000   -4.0949    0.0000 H   0  0
    0.0000    2.5000    0.0000 H   0  0
   -2.1651   -1.2500    0.0000 H   0  0
   -2.1651    1.2500    0.0000 H   0  0
    3.6488    0.4527    0.0000 H   0  0
    8.6140    1.0420    0.0000 H   0  0
    4.6350    2.7500    0.0000 H   0  0
    8.2036    5.2993    0.0000 H   0  0
    8.9839    3.7532    0.0000 H   0  0
    9.0400    4.7515    0.0000 H   0  0
    5.6076    5.4446    0.0000 H   0  0
    4.6596    3.9952    0.0000 H   0  0
    4.7152    4.9936    0.0000 H   0  0
    8.0288    1.7853    0.0000 H   0  0
    8.9220    2.2347    0.0000 H   0  0
    8.9796    3.2330    0.0000 H   0  0
    9.8131   -0.5561    0.0000 H   0  0
    8.8204   -0.6756    0.0000 H   0  0
   11.3139   -2.5568    0.0000 H   0  0
    9.9282   -3.5957    0.0000 H   0  0
   10.9209   -3.4762    0.0000 H   0  0
  1  2  2  0
  1  4  1  0
  2  3  1  0
  2  6  1  0
  3  5  1  0
  4  5  1  0
  4 14  1  0
  6  7  2  0
  6  8  1  0
  7  9  1  0
  7 12  1  0
  8 10  2  0
  8 13  1  0
  9 11  2  0
 10 11  1  0
 14 15  2  0
 14 16  1  0
 15 17  1  0
 15 24  1  0
 16 18  2  0
 17 19  2  0
 18 19  1  0
 19 20  1  0
 20 21  1  0
 20 22  1  0
 20 23  1  0
 24 25  1  0
 25 26  1  0
  4 27  1  0
  5 28  1  0
  5 29  1  0
  9 30  1  0
 10 31  1  0
 11 32  1  0
 16 33  1  0
 17 34  1  0
 18 35  1  0
 21 36  1  0
 21 37  1  0
 21 38  1  0
 22 39  1  0
 22 40  1  0
 22 41  1  0
 23 42  1  0
 23 43  1  0
 23 44  1  0
 25 45  1  0
 25 46  1  0
 26 47  1  0
 26 48  1  0
 26 49  1  0
V    1 0
V    2 1
V    3 2
V    4 3
V    5 4
V    6 5
V    7 6
V    8 7
V    9 8
V   10 9
V   11 10
V   12 11
V   13 12
V   14 13
V   15 14
V   16 15
V   17 16
V   18 17
V   19 18
V   20 19
V   21 20
V   22 21
V   23 22
V   24 23
V   25 24
V   26 25
M  END
> <DSSTox_RID>
65323

> <DSSTox_CID>
14586

> <DSSTox_CID_Parent>
14586

> <DSSTox_Generic_SID>
34586

> <DSSTox_FileID>
728_TXCST2_v1a

> <STRUCTURE_Formula>
C21H23F2NO2

> <STRUCTURE_MolecularWeight>
359.4096

> <STRUCTURE_ChemicalType>
defined organic

> <STRUCTURE_TestedForm_DefinedOrganic>
parent

> <STRUCTURE_Shown>
tested chemical

> <TestSubstance_ChemicalName>
Etoxazole

> <TestSubstance_CASRN>
153233-91-1

> <TestSubstance_Description>
single chemical compound

> <STRUCTURE_ChemicalName_IUPAC>
4-(4-tert-butyl-2-ethoxyphenyl)-2-(2,6-difluorophenyl)-4,5-dihydro-1,3-oxazole

> <STRUCTURE_SMILES>
FC2=C(C(F)=CC=C2)C1=NC(C3=C(OCC)C=C(C(C)(C)C)C=C3)CO1

> <STRUCTURE_Parent_SMILES>
FC2=C(C(F)=CC=C2)C1=NC(C3=C(OCC)C=C(C(C)(C)C)C=C3)CO1

> <STRUCTURE_InChIS>
InChI=1S/C21H23F2NO2/c1-5-25-18-11-13(21(2,3)4)9-10-14(18)17-12-26-20(24-17)19-15(22)7-6-8-16(19)23/h6-11,17H,5,12H2,1-4H3

> <STRUCTURE_InChIKey>
IXSZQYVWNJNRAL-UHFFFAOYSA-N

> <Substance_modify_yyyymmdd>
20080429

> <Coord_Metals>
0

> <Index>
728

> <Canonical_Smiles>
CCOc1cc(ccc1C2COC(=N2)c3c(F)cccc3F)C(C)(C)C

> <Molecular_Weight>
359.40962

> <Frequency>
1

$$$$

  SciTegic          2D

 46 49  0  0  0  0            999 V2000
    4.1696    0.2662    0.0000 N   0  0
    4.9175   -1.0340    0.0000 C   0  0
    2.7019   -0.0432    0.0000 C   0  0
    3.9119   -2.1471    0.0000 O   0  0
    2.5978   -1.5030    0.0000 C   0  0
    6.1107   -1.1615    0.0000 O   0  0
    1.9482    0.6140    0.0000 O   0  0
    2.5955   -3.0038    0.0000 C   0  0
    1.1198   -1.2396    0.0000 C   0  0
    0.6068    0.1699    0.0000 C   0  0
    0.1556   -2.3887    0.0000 C   0  0
   -0.8704    0.4304    0.0000 C   0  0
   -1.3216   -2.1282    0.0000 C   0  0
   -1.8346   -0.7187    0.0000 C   0  0
   -3.3132   -0.4611    0.0000 O   0  0
   -4.2762   -1.6122    0.0000 C   0  0
   -5.7544   -1.3569    0.0000 C   0  0
   -3.7584   -3.0200    0.0000 C   0  0
   -6.7146   -2.5093    0.0000 C   0  0
   -4.7186   -4.1724    0.0000 C   0  0
   -6.1967   -3.9171    0.0000 C   0  0
    4.7784    1.6352    0.0000 N   0  0
    6.2709    1.7937    0.0000 C   0  0
    6.8824    3.1634    0.0000 C   0  0
    7.1515    0.5793    0.0000 C   0  0
    8.3744    3.3187    0.0000 C   0  0
    8.6434    0.7346    0.0000 C   0  0
    9.2549    2.1043    0.0000 C   0  0
    3.4605   -3.5057    0.0000 H   0  0
    2.5935   -4.0038    0.0000 H   0  0
    1.7286   -3.5022    0.0000 H   0  0
    1.2496    0.9360    0.0000 H   0  0
    0.4977   -3.3284    0.0000 H   0  0
   -1.2124    1.3701    0.0000 H   0  0
   -1.9643   -2.8943    0.0000 H   0  0
   -6.0997   -0.4184    0.0000 H   0  0
   -2.7730   -3.1903    0.0000 H   0  0
   -7.7000   -2.3391    0.0000 H   0  0
   -4.3733   -5.1109    0.0000 H   0  0
   -6.8368   -4.6853    0.0000 H   0  0
    4.1901    2.4438    0.0000 H   0  0
    6.2955    3.9730    0.0000 H   0  0
    6.7439   -0.3339    0.0000 H   0  0
    8.7820    4.2319    0.0000 H   0  0
    9.2304   -0.0750    0.0000 H   0  0
   10.2495    2.2079    0.0000 H   0  0
  1  2  1  0
  1  3  1  0
  1 22  1  0
  2  4  1  0
  2  6  2  0
  3  5  1  0
  3  7  2  0
  4  5  1  0
  5  8  1  0
  5  9  1  0
  9 10  2  0
  9 11  1  0
 10 12  1  0
 11 13  2  0
 12 14  2  0
 13 14  1  0
 14 15  1  0
 15 16  1  0
 16 17  2  0
 16 18  1  0
 17 19  1  0
 18 20  2  0
 19 21  2  0
 20 21  1  0
 22 23  1  0
 23 24  2  0
 23 25  1  0
 24 26  1  0
 25 27  2  0
 26 28  2  0
 27 28  1  0
  8 29  1  0
  8 30  1  0
  8 31  1  0
 10 32  1  0
 11 33  1  0
 12 34  1  0
 13 35  1  0
 17 36  1  0
 18 37  1  0
 19 38  1  0
 20 39  1  0
 21 40  1  0
 22 41  1  0
 24 42  1  0
 25 43  1  0
 26 44  1  0
 27 45  1  0
 28 46  1  0
V    1 0
V    2 1
V    3 2
V    4 3
V    5 4
V    6 5
V    7 6
V    8 7
V    9 8
V   10 9
V   11 10
V   12 11
V   13 12
V   14 13
V   15 14
V   16 15
V   17 16
V   18 17
V   19 18
V   20 19
V   21 20
V   22 21
V   23 22
V   24 23
V   25 24
V   26 25
V   27 26
V   28 27
M  END
> <DSSTox_RID>
62382

> <DSSTox_CID>
14588

> <DSSTox_CID_Parent>
14588

> <DSSTox_Generic_SID>
34588

> <DSSTox_FileID>
729_TXCST2_v1a

> <STRUCTURE_Formula>
C22H18N2O4

> <STRUCTURE_MolecularWeight>
374.3893

> <STRUCTURE_ChemicalType>
defined organic

> <STRUCTURE_TestedForm_DefinedOrganic>
parent

> <STRUCTURE_Shown>
tested chemical

> <TestSubstance_ChemicalName>
Famoxadone

> <TestSubstance_CASRN>
131807-57-3

> <TestSubstance_Description>
single chemical compound

> <STRUCTURE_ChemicalName_IUPAC>
3-anilino-5-methyl-5-(4-phenoxyphenyl)-1,3-oxazolidine-2,4-dione

> <STRUCTURE_SMILES>
O=C(OC(C2=CC=C(OC3=CC=CC=C3)C=C2)1C)N(NC4=CC=CC=C4)C1=O

> <STRUCTURE_Parent_SMILES>
O=C(OC(C2=CC=C(OC3=CC=CC=C3)C=C2)1C)N(NC4=CC=CC=C4)C1=O

> <STRUCTURE_InChIS>
InChI=1S/C22H18N2O4/c1-22(16-12-14-19(15-13-16)27-18-10-6-3-7-11-18)20(25)24(21(26)28-22)23-17-8-4-2-5-9-17/h2-15,23H,1H3

> <STRUCTURE_InChIKey>
PCCSBWNGDMYFCW-UHFFFAOYSA-N

> <Substance_modify_yyyymmdd>
20080429

> <Coord_Metals>
0

> <Index>
729

> <Canonical_Smiles>
CC1(OC(=O)N(Nc2ccccc2)C1=O)c3ccc(Oc4ccccc4)cc3

> <Molecular_Weight>
374.38932

> <Frequency>
1

$$$$

  SciTegic          2D

 39 41  0  0  0  0            999 V2000
    2.5951   -3.0039    0.0000 N   0  0
    3.3372   -5.2929    0.0000 N   0  0
    3.8056   -3.8679    0.0000 C   0  0
    1.3786   -3.8595    0.0000 C   0  0
    1.8372   -5.2877    0.0000 C   0  0
    0.2409   -3.4780    0.0000 O   0  0
    2.5973   -1.5031    0.0000 N   0  0
    1.2990   -0.7500    0.0000 C   0  0
    1.2990    0.7500    0.0000 C   0  0
    0.0000   -1.5000    0.0000 C   0  0
    0.0000    1.5000    0.0000 C   0  0
   -1.2990   -0.7500    0.0000 C   0  0
   -1.2990    0.7500    0.0000 C   0  0
    2.4592   -6.6389    0.0000 C   0  0
    5.2295   -3.4020    0.0000 S   0  0
    6.3477   -4.4031    0.0000 C   0  0
    0.3868   -5.6197    0.0000 C   0  0
   -0.0544   -7.0533    0.0000 C   0  0
   -0.6341   -4.5207    0.0000 C   0  0
   -1.5166   -7.3880    0.0000 C   0  0
   -2.0963   -4.8554    0.0000 C   0  0
   -2.5375   -6.2890    0.0000 C   0  0
    3.4642   -1.0046    0.0000 H   0  0
    2.1651    1.2500    0.0000 H   0  0
    0.0000   -2.5000    0.0000 H   0  0
    0.0000    2.5000    0.0000 H   0  0
   -2.1651   -1.2500    0.0000 H   0  0
   -2.1651    1.2500    0.0000 H   0  0
    3.4533   -6.7473    0.0000 H   0  0
    2.8625   -7.5540    0.0000 H   0  0
    1.8685   -7.4458    0.0000 H   0  0
    7.2980   -4.0920    0.0000 H   0  0
    6.1422   -5.3818    0.0000 H   0  0
    7.0923   -5.0705    0.0000 H   0  0
    0.6262   -7.7859    0.0000 H   0  0
   -0.3400   -3.5650    0.0000 H   0  0
   -1.8108   -8.3437    0.0000 H   0  0
   -2.7769   -4.1228    0.0000 H   0  0
   -3.5123   -6.5122    0.0000 H   0  0
  1  3  1  0
  1  4  1  0
  1  7  1  0
  2  3  2  0
  2  5  1  0
  3 15  1  0
  4  5  1  0
  4  6  2  0
  5 14  1  0
  5 17  1  0
  7  8  1  0
  8  9  2  0
  8 10  1  0
  9 11  1  0
 10 12  2  0
 11 13  2  0
 12 13  1  0
 15 16  1  0
 17 18  2  0
 17 19  1  0
 18 20  1  0
 19 21  2  0
 20 22  2  0
 21 22  1  0
  7 23  1  0
  9 24  1  0
 10 25  1  0
 11 26  1  0
 12 27  1  0
 13 28  1  0
 14 29  1  0
 14 30  1  0
 14 31  1  0
 16 32  1  0
 16 33  1  0
 16 34  1  0
 18 35  1  0
 19 36  1  0
 20 37  1  0
 21 38  1  0
 22 39  1  0
V    1 0
V    2 1
V    3 2
V    4 3
V    5 4
V    6 5
V    7 6
V    8 7
V    9 8
V   10 9
V   11 10
V   12 11
V   13 12
V   14 13
V   15 14
V   16 15
V   17 16
V   18 17
V   19 18
V   20 19
V   21 20
V   22 21
M  END
> <DSSTox_RID>
65314

> <DSSTox_CID>
14590

> <DSSTox_CID_Parent>
14590

> <DSSTox_Generic_SID>
34590

> <DSSTox_FileID>
730_TXCST2_v1a

> <STRUCTURE_Formula>
C17H17N3OS

> <STRUCTURE_MolecularWeight>
311.4014

> <STRUCTURE_ChemicalType>
defined organic

> <STRUCTURE_TestedForm_DefinedOrganic>
parent

> <STRUCTURE_Shown>
tested chemical

> <TestSubstance_ChemicalName>
Fenamidone

> <TestSubstance_CASRN>
161326-34-7

> <TestSubstance_Description>
single chemical compound

> <ChemicalNote>
stereochem

> <STRUCTURE_ChemicalName_IUPAC>
(5S)-3-anilino-5-methyl-2-(methylthio)-5-phenyl-3,5-dihydro-4H-imidazol-4-one

> <STRUCTURE_SMILES>
O=C1N(NC2=CC=CC=C2)C(SC)=N[C@@]([C@@]3=CC=CC=C3)1C

> <STRUCTURE_Parent_SMILES>
O=C1N(NC2=CC=CC=C2)C(SC)=N[C@@]([C@@]3=CC=CC=C3)1C

> <STRUCTURE_InChIS>
InChI=1S/C17H17N3OS/c1-17(13-9-5-3-6-10-13)15(21)20(16(18-17)22-2)19-14-11-7-4-8-12-14/h3-12,19H,1-2H3/t17-/m0/s1

> <STRUCTURE_InChIKey>
LMVPQMGRYSRMIW-KRWDZBQOSA-N

> <Substance_modify_yyyymmdd>
20080429

> <Coord_Metals>
0

> <Index>
730

> <Canonical_Smiles>
CSC1=NC(C)(C(=O)N1Nc2ccccc2)c3ccccc3

> <Molecular_Weight>
311.40138

> <Frequency>
1

$$$$

  SciTegic          2D

 30 31  0  0  0  0            999 V2000
    2.5987   -1.5004    0.0000 N   0  0
    1.2990   -0.7500    0.0000 C   0  0
    3.9511   -0.8815    0.0000 C   0  0
    2.7343   -2.9815    0.0000 N   0  0
    1.2990    0.7500    0.0000 C   0  0
    0.0000   -1.5000    0.0000 C   0  0
    4.9531   -1.9978    0.0000 C   0  0
    4.2568    0.5852    0.0000 N   0  0
    4.2010   -3.2956    0.0000 C   0  0
    0.0000    1.5000    0.0000 C   0  0
    2.3383    1.3500    0.0000 Cl  0  0
   -1.2990   -0.7500    0.0000 C   0  0
    0.0000   -2.7000    0.0000 Cl  0  0
    6.4437   -1.8466    0.0000 S   0  0
    4.8082   -4.6653    0.0000 C   0  0
   -1.2990    0.7500    0.0000 C   0  0
    7.3221   -3.0635    0.0000 C   0  0
    6.9354   -0.7520    0.0000 O   0  0
    5.2946   -5.7623    0.0000 N   0  0
   -2.5988    1.5004    0.0000 C   0  0
    8.5160   -2.9424    0.0000 F   0  0
    8.0241   -4.0368    0.0000 F   0  0
    6.8304   -4.1581    0.0000 F   0  0
   -2.5996    2.7004    0.0000 F   0  0
   -3.6378    0.9001    0.0000 F   0  0
   -3.6383    2.0999    0.0000 F   0  0
    5.2064    0.8987    0.0000 H   0  0
    3.5107    1.2511    0.0000 H   0  0
    0.0000    2.5000    0.0000 H   0  0
   -2.1651   -1.2500    0.0000 H   0  0
  1  2  1  0
  1  3  1  0
  1  4  1  0
  2  5  2  0
  2  6  1  0
  3  7  2  0
  3  8  1  0
  4  9  2  0
  5 10  1  0
  5 11  1  0
  6 12  2  0
  6 13  1  0
  7 14  1  0
  7  9  1  0
  9 15  1  0
 10 16  2  0
 12 16  1  0
 14 17  1  0
 14 18  2  0
 15 19  3  0
 16 20  1  0
 17 21  1  0
 17 22  1  0
 17 23  1  0
 20 24  1  0
 20 25  1  0
 20 26  1  0
  8 27  1  0
  8 28  1  0
 10 29  1  0
 12 30  1  0
V    1 0
V    2 1
V    3 2
V    4 3
V    5 4
V    6 5
V    7 6
V    8 7
V    9 8
V   10 9
V   11 10
V   12 11
V   13 12
V   14 13
V   15 14
V   16 15
V   17 16
V   18 17
V   19 18
V   20 19
V   21 20
V   22 21
V   23 22
V   24 23
V   25 24
V   26 25
M  END
> <DSSTox_RID>
65473

> <DSSTox_CID>
14609

> <DSSTox_CID_Parent>
14609

> <DSSTox_Generic_SID>
34609

> <DSSTox_FileID>
731_TXCST2_v1a

> <STRUCTURE_Formula>
C12H4Cl2F6N4OS

> <STRUCTURE_MolecularWeight>
437.1478

> <STRUCTURE_ChemicalType>
defined organic

> <STRUCTURE_TestedForm_DefinedOrganic>
parent

> <STRUCTURE_Shown>
tested chemical

> <TestSubstance_ChemicalName>
Fipronil

> <TestSubstance_CASRN>
120068-37-3

> <TestSubstance_Description>
single chemical compound

> <STRUCTURE_ChemicalName_IUPAC>
5-amino-1-[2,6-dichloro-4-(trifluoromethyl)phenyl]-4-[(trifluoromethyl)sulfinyl]-1H-pyrazole-3-carbonitrile

> <STRUCTURE_SMILES>
NC(N(N=C2C#N)C1=C(Cl)C=C(C(F)(F)F)C=C1Cl)=C2S(C(F)(F)F)=O

> <STRUCTURE_Parent_SMILES>
NC(N(N=C2C#N)C1=C(Cl)C=C(C(F)(F)F)C=C1Cl)=C2S(C(F)(F)F)=O

> <STRUCTURE_InChIS>
InChI=1S/C12H4Cl2F6N4OS/c13-5-1-4(11(15,16)17)2-6(14)8(5)24-10(22)9(7(3-21)23-24)26(25)12(18,19)20/h1-2H,22H2

> <STRUCTURE_InChIKey>
ZOCSXAVNDGMNBV-UHFFFAOYSA-N

> <Substance_modify_yyyymmdd>
20080429

> <Coord_Metals>
0

> <Index>
731

> <Canonical_Smiles>
Nc1c(c(nn1c2c(Cl)cc(cc2Cl)C(F)(F)F)C#N)S(=O)C(F)(F)F

> <Molecular_Weight>
437.14777

> <Frequency>
1

$$$$

  SciTegic          2D

 47 48  0  0  0  0            999 V2000
    2.5988   -1.5004    0.0000 C   0  0
    1.2990   -0.7500    0.0000 C   0  0
    0.0000    1.5000    0.0000 N   0  0
   -3.8788    9.7587    0.0000 C   0  0
   -1.2990    0.7500    0.0000 C   0  0
    1.2990    0.7500    0.0000 C   0  0
   -3.8809    8.2579    0.0000 C   0  0
   -2.5827    7.5048    0.0000 O   0  0
    0.0000   -1.5000    0.0000 C   0  0
   -3.0119   10.2572    0.0000 O   0  0
   -2.5973    1.5031    0.0000 O   0  0
    3.6384   -0.9011    0.0000 F   0  0
    2.5984   -2.7004    0.0000 F   0  0
    3.6377   -2.1009    0.0000 F   0  0
   -2.5848    6.0040    0.0000 C   0  0
   -2.5951    3.0039    0.0000 C   0  0
   -1.2990   -0.7500    0.0000 C   0  0
   -5.1770   10.5117    0.0000 O   0  0
   -3.8864    5.2585    0.0000 C   0  0
   -1.2883    5.2495    0.0000 C   0  0
   -3.8915    3.7585    0.0000 C   0  0
   -1.2935    3.7495    0.0000 C   0  0
   -2.5532    9.0181    0.0000 C   0  0
   -5.1750   12.0125    0.0000 C   0  0
   -6.4732   12.7656    0.0000 C   0  0
   -6.4711   14.2664    0.0000 C   0  0
   -7.7693   15.0195    0.0000 C   0  0
    2.1651    1.2500    0.0000 H   0  0
   -4.7478    7.7593    0.0000 H   0  0
    0.0000   -2.5000    0.0000 H   0  0
   -2.1651   -1.2500    0.0000 H   0  0
   -4.7507    5.7614    0.0000 H   0  0
   -0.4206    5.7465    0.0000 H   0  0
   -4.7593    3.2615    0.0000 H   0  0
   -0.4292    3.2465    0.0000 H   0  0
   -1.6887    8.5155    0.0000 H   0  0
   -1.6856    9.5154    0.0000 H   0  0
   -2.5499   10.0181    0.0000 H   0  0
   -4.3081   12.5111    0.0000 H   0  0
   -4.3097   11.5112    0.0000 H   0  0
   -7.3401   12.2671    0.0000 H   0  0
   -6.4750   11.7656    0.0000 H   0  0
   -5.6042   14.7649    0.0000 H   0  0
   -5.6058   13.7651    0.0000 H   0  0
   -7.7679   16.0195    0.0000 H   0  0
   -8.6362   14.5209    0.0000 H   0  0
   -8.6346   15.5208    0.0000 H   0  0
  1  2  1  0
  1 12  1  0
  1 13  1  0
  1 14  1  0
  2  6  2  0
  2  9  1  0
  3  6  1  0
  3  5  2  0
  4  7  1  0
  4 10  2  0
  4 18  1  0
  5 17  1  0
  5 11  1  0
  7  8  1  0
  7 23  1  0
  8 15  1  0
  9 17  2  0
 11 16  1  0
 15 20  2  0
 15 19  1  0
 16 21  1  0
 16 22  2  0
 18 24  1  0
 19 21  2  0
 20 22  1  0
 24 25  1  0
 25 26  1  0
 26 27  1  0
  6 28  1  0
  7 29  1  0
  9 30  1  0
 17 31  1  0
 19 32  1  0
 20 33  1  0
 21 34  1  0
 22 35  1  0
 23 36  1  0
 23 37  1  0
 23 38  1  0
 24 39  1  0
 24 40  1  0
 25 41  1  0
 25 42  1  0
 26 43  1  0
 26 44  1  0
 27 45  1  0
 27 46  1  0
 27 47  1  0
V    1 0
V    2 1
V    3 2
V    4 3
V    5 4
V    6 5
V    7 6
V    8 7
V    9 8
V   10 9
V   11 10
V   12 11
V   13 12
V   14 13
V   15 14
V   16 15
V   17 16
V   18 17
V   19 18
V   20 19
V   21 20
V   22 21
V   23 22
V   24 23
V   25 24
V   26 25
V   27 26
M  END
> <DSSTox_RID>
65466
62366

> <DSSTox_CID>
14612
14855

> <DSSTox_CID_Parent>
14612
14855

> <DSSTox_Generic_SID>
34612
34855

> <DSSTox_FileID>
732_TXCST2_v1a
750_TXCST2_v1a

> <STRUCTURE_Formula>
C19H20F3NO4
C19H20F3NO4

> <STRUCTURE_MolecularWeight>
383.3616
383.3616

> <STRUCTURE_ChemicalType>
defined organic
defined organic

> <STRUCTURE_TestedForm_DefinedOrganic>
parent
parent

> <STRUCTURE_Shown>
tested chemical
tested chemical

> <TestSubstance_ChemicalName>
Fluazifop-butyl
Fluazifop-P-butyl

> <TestSubstance_CASRN>
69806-50-4
79241-46-6

> <TestSubstance_Description>
single chemical compound
single chemical compound

> <STRUCTURE_ChemicalName_IUPAC>
butyl 2-(4-{[5-(trifluoromethyl)pyridin-2-yl]oxy}phenoxy)propanoate
butyl (2R)-2-(4-{[5-(trifluoromethyl)pyridin-2-yl]oxy}phenoxy)propanoate

> <STRUCTURE_SMILES>
O=C(OCCCC)C(C)OC(C=C2)=CC=C2OC1=NC=C(C=C1)C(F)(F)F
O=C(OCCCC)[C@H](OC1=CC=C(OC2=CC=C(C(F)(F)F)C=N2)C=C1)C

> <STRUCTURE_Parent_SMILES>
O=C(OCCCC)C(C)OC(C=C2)=CC=C2OC1=NC=C(C=C1)C(F)(F)F
O=C(OCCCC)[C@H](OC1=CC=C(OC2=CC=C(C(F)(F)F)C=N2)C=C1)C

> <STRUCTURE_InChIS>
InChI=1S/C19H20F3NO4/c1-3-4-11-25-18(24)13(2)26-15-6-8-16(9-7-15)27-17-10-5-14(12-23-17)19(20,21)22/h5-10,12-13H,3-4,11H2,1-2H3
InChI=1S/C19H20F3NO4/c1-3-4-11-25-18(24)13(2)26-15-6-8-16(9-7-15)27-17-10-5-14(12-23-17)19(20,21)22/h5-10,12-13H,3-4,11H2,1-2H3/t13-/m1/s1

> <STRUCTURE_InChIKey>
VAIZTNZGPYBOGF-UHFFFAOYSA-N
VAIZTNZGPYBOGF-CYBMUJFWSA-N

> <Substance_modify_yyyymmdd>
20080429
20080429

> <Coord_Metals>
0
0

> <Index>
732
750

> <Canonical_Smiles>
CCCCOC(=O)C(C)Oc1ccc(Oc2ccc(cn2)C(F)(F)F)cc1

> <Molecular_Weight>
383.3616
383.3616

> <ChemicalNote>
stereochem

> <Frequency>
2

$$$$

  SciTegic          2D

 40 41  0  0  0  0            999 V2000
    1.2990   -0.7500    0.0000 N   0  0
    1.2990    0.7500    0.0000 N   0  0
    0.0000   -1.5000    0.0000 C   0  0
    0.0000    1.5000    0.0000 C   0  0
   -1.2990   -0.7500    0.0000 C   0  0
   -1.2990    0.7500    0.0000 C   0  0
    5.1969   -1.5045    0.0000 C   0  0
    5.1945   -3.0045    0.0000 C   0  0
    3.8991   -0.7525    0.0000 C   0  0
    3.8943   -3.7525    0.0000 C   0  0
    2.5987   -1.5004    0.0000 C   0  0
    2.5965   -3.0004    0.0000 C   0  0
    6.2328   -3.6062    0.0000 Cl  0  0
    1.5563   -3.5988    0.0000 F   0  0
   -2.5988    1.5004    0.0000 C   0  0
   -2.5996    2.7004    0.0000 F   0  0
   -3.6378    0.9001    0.0000 F   0  0
   -3.6383    2.0999    0.0000 F   0  0
    6.4963   -0.7535    0.0000 O   0  0
    6.4965    0.7473    0.0000 C   0  0
    7.7959    1.4984    0.0000 C   0  0
    7.7962    2.9992    0.0000 O   0  0
    9.0956    3.7502    0.0000 C   0  0
    9.0958    5.2510    0.0000 C   0  0
    8.8353    0.8985    0.0000 O   0  0
    0.0000   -2.7000    0.0000 O   0  0
   -2.5988   -1.5004    0.0000 C   0  0
    0.0000    2.5000    0.0000 H   0  0
    3.9007    0.2475    0.0000 H   0  0
    3.8927   -4.7525    0.0000 H   0  0
    5.6305    0.2473    0.0000 H   0  0
    5.6304    1.2472    0.0000 H   0  0
    9.0959    2.7502    0.0000 H   0  0
    9.9617    3.2503    0.0000 H   0  0
    9.9616    5.7514    0.0000 H   0  0
    9.0955    6.2510    0.0000 H   0  0
    8.2297    5.7509    0.0000 H   0  0
   -2.5994   -2.5004    0.0000 H   0  0
   -3.4647   -1.0002    0.0000 H   0  0
   -3.4650   -2.0000    0.0000 H   0  0
  1  2  1  0
  1  3  1  0
  1 11  1  0
  2  4  2  0
  3  5  1  0
  3 26  2  0
  4  6  1  0
  5  6  2  0
  5 27  1  0
  6 15  1  0
  7  8  1  0
  7  9  2  0
  7 19  1  0
  8 10  2  0
  8 13  1  0
  9 11  1  0
 10 12  1  0
 11 12  2  0
 12 14  1  0
 15 16  1  0
 15 17  1  0
 15 18  1  0
 19 20  1  0
 20 21  1  0
 21 22  1  0
 21 25  2  0
 22 23  1  0
 23 24  1  0
  4 28  1  0
  9 29  1  0
 10 30  1  0
 20 31  1  0
 20 32  1  0
 23 33  1  0
 23 34  1  0
 24 35  1  0
 24 36  1  0
 24 37  1  0
 27 38  1  0
 27 39  1  0
 27 40  1  0
V    1 0
V    2 1
V    3 2
V    4 3
V    5 4
V    6 5
V    7 6
V    8 7
V    9 8
V   10 9
V   11 10
V   12 11
V   13 12
V   14 13
V   15 14
V   16 15
V   17 16
V   18 17
V   19 18
V   20 19
V   21 20
V   22 21
V   23 22
V   24 23
V   25 24
V   26 25
V   27 26
M  END
> <DSSTox_RID>
62324

> <DSSTox_CID>
14618

> <DSSTox_CID_Parent>
14618

> <DSSTox_Generic_SID>
34618

> <DSSTox_FileID>
733_TXCST2_v1a

> <STRUCTURE_Formula>
C16H13ClF4N2O4

> <STRUCTURE_MolecularWeight>
408.732

> <STRUCTURE_ChemicalType>
defined organic

> <STRUCTURE_TestedForm_DefinedOrganic>
parent

> <STRUCTURE_Shown>
tested chemical

> <TestSubstance_ChemicalName>
Flufenpyr-ethyl

> <TestSubstance_CASRN>
188489-07-8

> <TestSubstance_Description>
single chemical compound

> <STRUCTURE_ChemicalName_IUPAC>
ethyl {2-chloro-4-fluoro-5-[5-methyl-6-oxo-4-(trifluoromethyl)pyridazin-1(6H)-yl]phenoxy}acetate

> <STRUCTURE_SMILES>
ClC1=CC(F)=C(N2N=CC(C(F)(F)F)=C(C)C2=O)C=C1OCC(OCC)=O

> <STRUCTURE_Parent_SMILES>
ClC1=CC(F)=C(N2N=CC(C(F)(F)F)=C(C)C2=O)C=C1OCC(OCC)=O

> <STRUCTURE_InChIS>
InChI=1S/C16H13ClF4N2O4/c1-3-26-14(24)7-27-13-5-12(11(18)4-10(13)17)23-15(25)8(2)9(6-22-23)16(19,20)21/h4-6H,3,7H2,1-2H3

> <STRUCTURE_InChIKey>
DNUAYCRATWAJQE-UHFFFAOYSA-N

> <Substance_modify_yyyymmdd>
20080429

> <Coord_Metals>
0

> <Index>
733

> <Canonical_Smiles>
CCOC(=O)COc1cc(N2N=CC(=C(C)C2=O)C(F)(F)F)c(F)cc1Cl

> <Molecular_Weight>
408.73203

> <Frequency>
1

$$$$

  SciTegic          2D

 48 51  0  0  0  0            999 V2000
    1.2990   -0.7500    0.0000 C   0  0
    1.2990    0.7500    0.0000 N   0  0
    0.0000   -1.5000    0.0000 C   0  0
    0.0000    1.5000    0.0000 C   0  0
   -1.2990   -0.7500    0.0000 C   0  0
   -1.2990    0.7500    0.0000 N   0  0
   -3.8990   -0.7455    0.0000 C   0  0
   -5.2007   -1.4909    0.0000 C   0  0
   -3.8939    0.7546    0.0000 C   0  0
   -6.4972   -0.7365    0.0000 C   0  0
   -5.1903    1.5090    0.0000 C   0  0
   -6.4920    0.7635    0.0000 C   0  0
   -2.6003   -1.4978    0.0000 O   0  0
   -2.8526    1.3510    0.0000 Cl  0  0
    0.0000   -2.7000    0.0000 F   0  0
    2.6003   -1.4977    0.0000 O   0  0
    3.9049   -5.2478    0.0000 C   0  0
    3.9039   -3.7478    0.0000 C   0  0
    2.6063   -5.9987    0.0000 C   0  0
    2.6044   -2.9986    0.0000 C   0  0
    1.3068   -5.2495    0.0000 C   0  0
    1.3058   -3.7495    0.0000 C   0  0
    5.2010   -2.9928    0.0000 C   0  0
    5.1984   -1.4920    0.0000 N   0  0
    9.1081   -5.2276    0.0000 C   0  0
    7.8121   -5.9829    0.0000 O   0  0
    9.1020   -3.7277    0.0000 C   0  0
    6.5100   -5.2381    0.0000 N   0  0
    7.8000   -2.9829    0.0000 O   0  0
    6.5039   -3.7379    0.0000 C   0  0
    6.4963   -0.7384    0.0000 O   0  0
    6.4937    0.7624    0.0000 C   0  0
    0.0000    2.5000    0.0000 H   0  0
   -5.2042   -2.4909    0.0000 H   0  0
   -7.3649   -1.2335    0.0000 H   0  0
   -5.1869    2.5090    0.0000 H   0  0
   -7.3563    1.2665    0.0000 H   0  0
    4.7712   -5.7472    0.0000 H   0  0
    2.6070   -6.9987    0.0000 H   0  0
    0.4411   -5.7501    0.0000 H   0  0
    0.4395   -3.2501    0.0000 H   0  0
    9.9600   -4.7039    0.0000 H   0  0
    9.0886   -6.2275    0.0000 H   0  0
    9.9581   -4.2445    0.0000 H   0  0
    9.0745   -2.7280    0.0000 H   0  0
    7.3585    1.2645    0.0000 H   0  0
    6.4915    1.7624    0.0000 H   0  0
    5.6266    1.2606    0.0000 H   0  0
  1  2  1  0
  1  3  2  0
  1 16  1  0
  2  4  2  0
  3  5  1  0
  3 15  1  0
  4  6  1  0
  5  6  2  0
  5 13  1  0
  7  8  1  0
  7  9  2  0
  7 13  1  0
  8 10  2  0
  9 11  1  0
  9 14  1  0
 10 12  1  0
 11 12  2  0
 16 20  1  0
 17 18  1  0
 17 19  2  0
 18 20  2  0
 18 23  1  0
 19 21  1  0
 20 22  1  0
 21 22  2  0
 23 24  2  0
 23 30  1  0
 24 31  1  0
 25 26  1  0
 25 27  1  0
 26 28  1  0
 27 29  1  0
 28 30  2  0
 29 30  1  0
 31 32  1  0
  4 33  1  0
  8 34  1  0
 10 35  1  0
 11 36  1  0
 12 37  1  0
 17 38  1  0
 19 39  1  0
 21 40  1  0
 22 41  1  0
 25 42  1  0
 25 43  1  0
 27 44  1  0
 27 45  1  0
 32 46  1  0
 32 47  1  0
 32 48  1  0
V    1 0
V    2 1
V    3 2
V    4 3
V    5 4
V    6 5
V    7 6
V    8 7
V    9 8
V   10 9
V   11 10
V   12 11
V   13 12
V   14 13
V   15 14
V   16 15
V   17 16
V   18 17
V   19 18
V   20 19
V   21 20
V   22 21
V   23 22
V   24 23
V   25 24
V   26 25
V   27 26
V   28 27
V   29 28
V   30 29
V   31 30
V   32 31
M  END
> <DSSTox_RID>
62356

> <DSSTox_CID>
14625

> <DSSTox_CID_Parent>
14625

> <DSSTox_Generic_SID>
34625

> <DSSTox_FileID>
734_TXCST2_v1a

> <STRUCTURE_Formula>
C21H16ClFN4O5

> <STRUCTURE_MolecularWeight>
458.8269

> <STRUCTURE_ChemicalType>
defined organic

> <STRUCTURE_TestedForm_DefinedOrganic>
parent

> <STRUCTURE_Shown>
tested chemical

> <TestSubstance_ChemicalName>
Fluoxastrobin

> <TestSubstance_CASRN>
361377-29-9

> <TestSubstance_Description>
single chemical compound

> <ChemicalNote>
stereochem

> <Source_ChemicalNote>
tested chemical contained 0.03% water (0.01 moles H2O)

> <STRUCTURE_ChemicalName_IUPAC>
(E)-(2-{[6-(2-chlorophenoxy)-5-fluoropyrimidin-4-yl]oxy}phenyl)(5,6-dihydro-1,4,2-dioxazin-3-yl)methanone O-methyloxime

> <STRUCTURE_SMILES>
ClC1=C(OC2=NC=NC(OC3=C(\C(C4=NOCCO4)=N/OC)C=CC=C3)=C2F)C=CC=C1

> <STRUCTURE_Parent_SMILES>
ClC1=C(OC2=NC=NC(OC3=C(\C(C4=NOCCO4)=N/OC)C=CC=C3)=C2F)C=CC=C1

> <STRUCTURE_InChIS>
InChI=1S/C21H16ClFN4O5/c1-28-26-18(21-27-30-11-10-29-21)13-6-2-4-8-15(13)31-19-17(23)20(25-12-24-19)32-16-9-5-3-7-14(16)22/h2-9,12H,10-11H2,1H3/b26-18+

> <STRUCTURE_InChIKey>
UFEODZBUAFNAEU-NLRVBDNBSA-N

> <Substance_modify_yyyymmdd>
20080429

> <Coord_Metals>
0

> <Index>
734

> <Canonical_Smiles>
CON=C(C1=NOCCO1)c2ccccc2Oc3ncnc(Oc4ccccc4Cl)c3F

> <Molecular_Weight>
458.82694

> <Frequency>
1

$$$$

  SciTegic          2D

 20 20  0  0  0  0            999 V2000
    1.2990   -0.7500    0.0000 N   0  0
   -1.2990    0.7500    0.0000 C   0  0
    0.0000    1.5000    0.0000 C   0  0
   -1.2990   -0.7500    0.0000 C   0  0
    1.2990    0.7500    0.0000 C   0  0
    0.0000   -1.5000    0.0000 C   0  0
    2.6003    1.4978    0.0000 O   0  0
    5.2003    1.4932    0.0000 C   0  0
   -2.5973    1.5031    0.0000 N   0  0
   -2.3383   -1.3500    0.0000 Cl  0  0
    0.0000    2.7000    0.0000 Cl  0  0
    5.2024    2.6932    0.0000 O   0  0
    0.0000   -2.7000    0.0000 F   0  0
    3.8990    0.7455    0.0000 C   0  0
    6.4990    0.7410    0.0000 O   0  0
   -2.5958    2.5031    0.0000 H   0  0
   -3.4642    1.0046    0.0000 H   0  0
    3.0322    0.2469    0.0000 H   0  0
    3.8973   -0.2545    0.0000 H   0  0
    7.3660    1.2392    0.0000 H   0  0
  1  5  2  0
  1  6  1  0
  2  4  1  0
  2  9  1  0
  2  3  2  0
  3  5  1  0
  3 11  1  0
  4  6  2  0
  4 10  1  0
  5  7  1  0
  6 13  1  0
  7 14  1  0
  8 14  1  0
  8 12  2  0
  8 15  1  0
  9 16  1  0
  9 17  1  0
 14 18  1  0
 14 19  1  0
 15 20  1  0
V    1 0
V    2 1
V    3 2
V    4 3
V    5 4
V    6 5
V    7 6
V    8 7
V    9 8
V   10 9
V   11 10
V   12 11
V   13 12
V   14 13
V   15 14
M  END
> <DSSTox_RID>
65315

> <DSSTox_CID>
14627

> <DSSTox_CID_Parent>
14627

> <DSSTox_Generic_SID>
34627

> <DSSTox_FileID>
735_TXCST2_v1a

> <STRUCTURE_Formula>
C7H5Cl2FN2O3

> <STRUCTURE_MolecularWeight>
255.0306

> <STRUCTURE_ChemicalType>
defined organic

> <STRUCTURE_TestedForm_DefinedOrganic>
parent

> <STRUCTURE_Shown>
tested chemical

> <TestSubstance_ChemicalName>
Fluroxypyr

> <TestSubstance_CASRN>
69377-81-7

> <TestSubstance_Description>
single chemical compound

> <Source_ChemicalNote>
tested chemical contained 0.03% water

> <STRUCTURE_ChemicalName_IUPAC>
[(4-amino-3,5-dichloro-6-fluoropyridin-2-yl)oxy]acetic acid

> <STRUCTURE_SMILES>
NC1=C(Cl)C(F)=NC(OCC(O)=O)=C1Cl

> <STRUCTURE_Parent_SMILES>
NC1=C(Cl)C(F)=NC(OCC(O)=O)=C1Cl

> <STRUCTURE_InChIS>
InChI=1S/C7H5Cl2FN2O3/c8-3-5(11)4(9)7(12-6(3)10)15-1-2(13)14/h1H2,(H2,11,12)(H,13,14)

> <STRUCTURE_InChIKey>
MEFQWPUMEMWTJP-UHFFFAOYSA-N

> <Substance_modify_yyyymmdd>
20080429

> <Coord_Metals>
0

> <Index>
735

> <Canonical_Smiles>
Nc1c(Cl)c(F)nc(OCC(=O)O)c1Cl

> <Molecular_Weight>
255.0306

> <Frequency>
1

$$$$

  SciTegic          2D

 27 28  0  0  0  0            999 V2000
   -2.5951    3.0039    0.0000 C   0  0
   -1.5549    3.6021    0.0000 O   0  0
   -2.5973    1.5031    0.0000 N   0  0
   -3.8933    3.7570    0.0000 N   0  0
    1.2990   -0.7500    0.0000 N   0  0
    1.2990    0.7500    0.0000 C   0  0
    0.0000   -1.5000    0.0000 C   0  0
   -1.2990   -0.7500    0.0000 C   0  0
    0.0000    1.5000    0.0000 C   0  0
   -1.2990    0.7500    0.0000 C   0  0
    0.0000   -2.7000    0.0000 Cl  0  0
   -3.8912    5.2578    0.0000 C   0  0
   -5.1876    6.0124    0.0000 C   0  0
   -2.5896    6.0034    0.0000 C   0  0
   -5.1824    7.5124    0.0000 C   0  0
   -2.5844    7.5034    0.0000 C   0  0
   -3.8808    8.2579    0.0000 C   0  0
   -3.4642    1.0046    0.0000 H   0  0
   -4.7602    3.2585    0.0000 H   0  0
    2.1651    1.2500    0.0000 H   0  0
   -2.1651   -1.2500    0.0000 H   0  0
    0.0000    2.5000    0.0000 H   0  0
   -6.0554    5.5154    0.0000 H   0  0
   -1.7253    5.5004    0.0000 H   0  0
   -6.0467    8.0154    0.0000 H   0  0
   -1.7166    8.0004    0.0000 H   0  0
   -3.8774    9.2579    0.0000 H   0  0
  1  2  2  0
  1  3  1  0
  1  4  1  0
  3 10  1  0
  4 12  1  0
  5  6  2  0
  5  7  1  0
  6  9  1  0
  7  8  2  0
  7 11  1  0
  8 10  1  0
  9 10  2  0
 12 13  2  0
 12 14  1  0
 13 15  1  0
 14 16  2  0
 15 17  2  0
 16 17  1  0
  3 18  1  0
  4 19  1  0
  6 20  1  0
  8 21  1  0
  9 22  1  0
 13 23  1  0
 14 24  1  0
 15 25  1  0
 16 26  1  0
 17 27  1  0
V    1 0
V    2 1
V    3 2
V    4 3
V    5 4
V    6 5
V    7 6
V    8 7
V    9 8
V   10 9
V   11 10
V   12 11
V   13 12
V   14 13
V   15 14
V   16 15
V   17 16
M  END
> <DSSTox_RID>
62320

> <DSSTox_CID>
14634

> <DSSTox_CID_Parent>
14634

> <DSSTox_Generic_SID>
34634

> <DSSTox_FileID>
736_TXCST2_v1a

> <STRUCTURE_Formula>
C12H10ClN3O

> <STRUCTURE_MolecularWeight>
247.6803

> <STRUCTURE_ChemicalType>
defined organic

> <STRUCTURE_TestedForm_DefinedOrganic>
parent

> <STRUCTURE_Shown>
tested chemical

> <TestSubstance_ChemicalName>
Forchlorfenuron

> <TestSubstance_CASRN>
68157-60-8

> <TestSubstance_Description>
single chemical compound

> <STRUCTURE_ChemicalName_IUPAC>
1-(2-chloropyridin-4-yl)-3-phenylurea

> <STRUCTURE_SMILES>
O=C(NC2=CC=CC=C2)NC1=CC(Cl)=NC=C1

> <STRUCTURE_Parent_SMILES>
O=C(NC2=CC=CC=C2)NC1=CC(Cl)=NC=C1

> <STRUCTURE_InChIS>
InChI=1S/C12H10ClN3O/c13-11-8-10(6-7-14-11)16-12(17)15-9-4-2-1-3-5-9/h1-8H,(H2,14,15,16,17)

> <STRUCTURE_InChIKey>
GPXLRLUVLMHHIK-UHFFFAOYSA-N

> <Substance_modify_yyyymmdd>
20080429

> <Coord_Metals>
0

> <Index>
736

> <Canonical_Smiles>
Clc1cc(NC(=O)Nc2ccccc2)ccn1

> <Molecular_Weight>
247.68029

> <Frequency>
1

$$$$

  SciTegic          2D

 37 38  0  0  0  0            999 V2000
    1.5491   -7.3629    0.0000 N   0  0
    1.4968   -5.8638    0.0000 C   0  0
    0.0625   -5.4709    0.0000 N   0  0
   -0.7839   -6.6938    0.0000 N   0  0
    0.1396   -7.8759    0.0000 C   0  0
   -0.4508   -4.0606    0.0000 C   0  0
    0.5133   -2.9104    0.0000 C   0  0
    1.2990   -0.7500    0.0000 C   0  0
    0.0000   -1.5000    0.0000 C   0  0
   -1.2990   -0.7500    0.0000 C   0  0
   -1.2990    0.7500    0.0000 C   0  0
    0.0000    1.5000    0.0000 C   0  0
    1.2990    0.7500    0.0000 C   0  0
   -2.3383   -1.3500    0.0000 Cl  0  0
    0.0000    2.7000    0.0000 Cl  0  0
    1.8148   -3.6578    0.0000 C   0  0
    3.1133   -2.9052    0.0000 C   0  0
    4.4148   -3.6526    0.0000 C   0  0
    5.7133   -2.9000    0.0000 C   0  0
   -0.9937   -2.6467    0.0000 O   0  0
    2.2812   -5.2435    0.0000 H   0  0
   -0.1361   -8.8371    0.0000 H   0  0
   -1.4356   -3.8872    0.0000 H   0  0
   -1.0935   -4.8267    0.0000 H   0  0
    2.1651   -1.2500    0.0000 H   0  0
   -2.1651    1.2500    0.0000 H   0  0
    2.1651    1.2500    0.0000 H   0  0
    1.8168   -4.6578    0.0000 H   0  0
    0.9499   -4.1596    0.0000 H   0  0
    3.1113   -1.9052    0.0000 H   0  0
    2.2464   -2.4068    0.0000 H   0  0
    4.4168   -4.6526    0.0000 H   0  0
    3.5498   -4.1545    0.0000 H   0  0
    6.5805   -3.3980    0.0000 H   0  0
    5.7113   -1.9000    0.0000 H   0  0
    6.5782   -2.3982    0.0000 H   0  0
   -1.3375   -1.7076    0.0000 H   0  0
  1  5  1  0
  1  2  2  0
  2  3  1  0
  3  6  1  0
  3  4  1  0
  4  5  2  0
  6  7  1  0
  7  9  1  0
  7 16  1  0
  7 20  1  0
  8 13  1  0
  8  9  2  0
  9 10  1  0
 10 11  2  0
 10 14  1  0
 11 12  1  0
 12 13  2  0
 12 15  1  0
 16 17  1  0
 17 18  1  0
 18 19  1  0
  2 21  1  0
  5 22  1  0
  6 23  1  0
  6 24  1  0
  8 25  1  0
 11 26  1  0
 13 27  1  0
 16 28  1  0
 16 29  1  0
 17 30  1  0
 17 31  1  0
 18 32  1  0
 18 33  1  0
 19 34  1  0
 19 35  1  0
 19 36  1  0
 20 37  1  0
V    1 0
V    2 1
V    3 2
V    4 3
V    5 4
V    6 5
V    7 6
V    8 7
V    9 8
V   10 9
V   11 10
V   12 11
V   13 12
V   14 13
V   15 14
V   16 15
V   17 16
V   18 17
V   19 18
V   20 19
M  END
> <DSSTox_RID>
62386

> <DSSTox_CID>
14653

> <DSSTox_CID_Parent>
14653

> <DSSTox_Generic_SID>
34653

> <DSSTox_FileID>
737_TXCST2_v1a

> <STRUCTURE_Formula>
C14H17Cl2N3O

> <STRUCTURE_MolecularWeight>
314.2103

> <STRUCTURE_ChemicalType>
defined organic

> <STRUCTURE_TestedForm_DefinedOrganic>
parent

> <STRUCTURE_Shown>
tested chemical

> <TestSubstance_ChemicalName>
Hexaconazole

> <TestSubstance_CASRN>
79983-71-4

> <TestSubstance_Description>
single chemical compound

> <ChemicalNote>
mixture of (2R,S) isomers; structure shown without stereochem

> <Source_ChemicalNote>
tested chemical contained 0.025% water

> <STRUCTURE_ChemicalName_IUPAC>
2-(2,4-dichlorophenyl)-1-(1H-1,2,4-triazol-1-yl)hexan-2-ol

> <STRUCTURE_SMILES>
ClC1=CC(Cl)=CC=C1C(CCCC)(O)CN2C=NC=N2

> <STRUCTURE_Parent_SMILES>
ClC1=CC(Cl)=CC=C1C(CCCC)(O)CN2C=NC=N2

> <STRUCTURE_InChIS>
InChI=1S/C14H17Cl2N3O/c1-2-3-6-14(20,8-19-10-17-9-18-19)12-5-4-11(15)7-13(12)16/h4-5,7,9-10,20H,2-3,6,8H2,1H3

> <STRUCTURE_InChIKey>
STMIIPIFODONDC-UHFFFAOYSA-N

> <Substance_modify_yyyymmdd>
20080429

> <Coord_Metals>
0

> <Index>
737

> <Canonical_Smiles>
CCCCC(O)(Cn1cncn1)c2ccc(Cl)cc2Cl

> <Molecular_Weight>
314.21028

> <Frequency>
1

$$$$

  SciTegic          2D

 41 42  0  0  0  0            999 V2000
    2.5987    1.5004    0.0000 C   0  0
    3.9511    0.8815    0.0000 N   0  0
    2.7342    2.9815    0.0000 N   0  0
    4.2010    3.2957    0.0000 C   0  0
    0.0000    1.5000    0.0000 C   0  0
    4.9530    1.9978    0.0000 C   0  0
    1.2990    0.7500    0.0000 C   0  0
    1.2990   -0.7500    0.0000 N   0  0
   -0.0031    3.0008    0.0000 C   0  0
   -1.2990    0.7500    0.0000 C   0  0
    4.6873    4.3927    0.0000 O   0  0
    0.8620    3.5024    0.0000 O   0  0
   -1.2990   -0.7500    0.0000 C   0  0
    0.0000   -1.5000    0.0000 C   0  0
    5.5384    0.6304    0.0000 C   0  0
   -1.3039    3.7494    0.0000 O   0  0
    5.8064    3.2166    0.0000 C   0  0
   -3.8990   -0.7508    0.0000 O   0  0
   -2.5988   -1.5004    0.0000 C   0  0
    7.0255    0.4276    0.0000 C   0  0
    6.4773    1.8384    0.0000 C   0  0
   -5.1988   -1.5013    0.0000 C   0  0
    4.1548   -0.0975    0.0000 H   0  0
   -2.1651    1.2500    0.0000 H   0  0
    0.0000   -2.5000    0.0000 H   0  0
    4.9262   -0.1603    0.0000 H   0  0
   -1.3060    4.7494    0.0000 H   0  0
    6.8012    3.1144    0.0000 H   0  0
    6.3925    4.0269    0.0000 H   0  0
    5.3979    4.1293    0.0000 H   0  0
   -2.5985   -2.5004    0.0000 H   0  0
   -3.4646   -2.0008    0.0000 H   0  0
    7.4044   -0.4979    0.0000 H   0  0
    8.0164    0.2929    0.0000 H   0  0
    7.6377    1.2183    0.0000 H   0  0
    7.4680    1.7023    0.0000 H   0  0
    7.0906    2.6282    0.0000 H   0  0
    6.1001    2.7645    0.0000 H   0  0
   -6.0651   -1.0018    0.0000 H   0  0
   -5.1984   -2.5013    0.0000 H   0  0
   -6.0645   -2.0017    0.0000 H   0  0
  1  2  1  0
  1  3  2  0
  1  7  1  0
  2  6  1  0
  3  4  1  0
  4 11  2  0
  4  6  1  0
  5  7  1  0
  5  9  1  0
  5 10  2  0
  6 15  1  0
  6 17  1  0
  7  8  2  0
  8 14  1  0
  9 12  2  0
  9 16  1  0
 10 13  1  0
 13 19  1  0
 13 14  2  0
 15 20  1  0
 15 21  1  0
 18 19  1  0
 18 22  1  0
  2 23  1  0
 10 24  1  0
 14 25  1  0
 15 26  1  0
 16 27  1  0
 17 28  1  0
 17 29  1  0
 17 30  1  0
 19 31  1  0
 19 32  1  0
 20 33  1  0
 20 34  1  0
 20 35  1  0
 21 36  1  0
 21 37  1  0
 21 38  1  0
 22 39  1  0
 22 40  1  0
 22 41  1  0
V    1 0
V    2 1
V    3 2
V    4 3
V    5 4
V    6 5
V    7 6
V    8 7
V    9 8
V   10 9
V   11 10
V   12 11
V   13 12
V   14 13
V   15 14
V   16 15
V   17 16
V   18 17
V   19 18
V   20 19
V   21 20
V   22 21
M  END
> <DSSTox_RID>
62349

> <DSSTox_CID>
14664

> <DSSTox_CID_Parent>
14664

> <DSSTox_Generic_SID>
34664

> <DSSTox_FileID>
738_TXCST2_v1a

> <STRUCTURE_Formula>
C15H19N3O4

> <STRUCTURE_MolecularWeight>
305.3291

> <STRUCTURE_ChemicalType>
defined organic

> <STRUCTURE_TestedForm_DefinedOrganic>
parent

> <STRUCTURE_Shown>
tested chemical

> <TestSubstance_ChemicalName>
Imazamox

> <TestSubstance_CASRN>
114311-32-9

> <TestSubstance_Description>
single chemical compound

> <ChemicalNote>
tautomers

> <STRUCTURE_ChemicalName_IUPAC>
2-(4-isopropyl-4-methyl-5-oxo-4,5-dihydro-1H-imidazol-2-yl)-5-(methoxymethyl)nicotinic acid

> <STRUCTURE_SMILES>
O=C1NC(C2=NC=C(COC)C=C2C(O)=O)=NC(C)1C(C)C

> <STRUCTURE_Parent_SMILES>
O=C1NC(C2=NC=C(COC)C=C2C(O)=O)=NC(C)1C(C)C

> <STRUCTURE_InChIS>
InChI=1S/C15H19N3O4/c1-8(2)15(3)14(21)17-12(18-15)11-10(13(19)20)5-9(6-16-11)7-22-4/h5-6,8H,7H2,1-4H3,(H,19,20)(H,17,18,21)

> <STRUCTURE_InChIKey>
NUPJIGQFXCQJBK-UHFFFAOYSA-N

> <Substance_modify_yyyymmdd>
20080429

> <Coord_Metals>
0

> <Index>
738

> <Canonical_Smiles>
COCc1cnc(C2=NC(=O)C(C)(N2)C(C)C)c(c1)C(=O)O

> <Molecular_Weight>
305.32906

> <Frequency>
1

$$$$

  SciTegic          2D

 34 35  0  0  0  0            999 V2000
    2.5987   -1.5004    0.0000 C   0  0
    2.7343   -2.9815    0.0000 N   0  0
    3.9511   -0.8815    0.0000 N   0  0
    4.9531   -1.9978    0.0000 C   0  0
    4.2010   -3.2956    0.0000 C   0  0
    1.2990   -0.7500    0.0000 C   0  0
    1.2990    0.7500    0.0000 C   0  0
    2.5972    1.5031    0.0000 C   0  0
    0.0000   -1.5000    0.0000 N   0  0
    6.1467   -1.8742    0.0000 O   0  0
    3.6375    0.9049    0.0000 O   0  0
    5.6824   -3.4298    0.0000 C   0  0
    2.5951    3.0039    0.0000 O   0  0
    0.0000    1.5000    0.0000 C   0  0
    3.3056   -4.4839    0.0000 C   0  0
   -1.2990   -0.7500    0.0000 C   0  0
    6.3349   -4.7814    0.0000 C   0  0
    4.8237   -4.6960    0.0000 C   0  0
   -1.2990    0.7500    0.0000 C   0  0
    4.1548    0.0976    0.0000 H   0  0
    6.2453   -2.6032    0.0000 H   0  0
    3.4601    3.5057    0.0000 H   0  0
    0.0000    2.5000    0.0000 H   0  0
    3.7102   -5.3984    0.0000 H   0  0
    2.7161   -5.2917    0.0000 H   0  0
    2.3113   -4.3774    0.0000 H   0  0
   -2.1651   -1.2500    0.0000 H   0  0
    7.3321   -4.8558    0.0000 H   0  0
    6.7691   -5.6821    0.0000 H   0  0
    5.7720   -5.6079    0.0000 H   0  0
    5.2593   -5.5962    0.0000 H   0  0
    4.2620   -5.5234    0.0000 H   0  0
    3.8263   -4.6234    0.0000 H   0  0
   -2.1651    1.2500    0.0000 H   0  0
  1  2  2  0
  1  3  1  0
  1  6  1  0
  2  5  1  0
  3  4  1  0
  4 10  2  0
  4  5  1  0
  5 12  1  0
  5 15  1  0
  6  7  1  0
  6  9  2  0
  7  8  1  0
  7 14  2  0
  8 11  2  0
  8 13  1  0
  9 16  1  0
 12 17  1  0
 12 18  1  0
 14 19  1  0
 16 19  2  0
  3 20  1  0
 12 21  1  0
 13 22  1  0
 14 23  1  0
 15 24  1  0
 15 25  1  0
 15 26  1  0
 16 27  1  0
 17 28  1  0
 17 29  1  0
 17 30  1  0
 18 31  1  0
 18 32  1  0
 18 33  1  0
 19 34  1  0
V    1 0
V    2 1
V    3 2
V    4 3
V    5 4
V    6 5
V    7 6
V    8 7
V    9 8
V   10 9
V   11 10
V   12 11
V   13 12
V   14 13
V   15 14
V   16 15
V   17 16
V   18 17
V   19 18
M  END
> <DSSTox_RID>
65467

> <DSSTox_CID>
14665

> <DSSTox_CID_Parent>
14665

> <DSSTox_Generic_SID>
34665

> <DSSTox_FileID>
739_TXCST2_v1a

> <STRUCTURE_Formula>
C13H15N3O3

> <STRUCTURE_MolecularWeight>
261.2765

> <STRUCTURE_ChemicalType>
defined organic

> <STRUCTURE_TestedForm_DefinedOrganic>
parent

> <STRUCTURE_Shown>
tested chemical

> <TestSubstance_ChemicalName>
Imazapyr

> <TestSubstance_CASRN>
81334-34-1

> <TestSubstance_Description>
single chemical compound

> <ChemicalNote>
tautomers

> <Source_ChemicalNote>
tested chemical contained 0.24% water (0.03 moles H2O)

> <STRUCTURE_ChemicalName_IUPAC>
2-(4-isopropyl-4-methyl-5-oxo-4,5-dihydro-1H-imidazol-2-yl)nicotinic acid

> <STRUCTURE_SMILES>
O=C1NC(C2=NC=CC=C2C(O)=O)=NC(C)1C(C)C

> <STRUCTURE_Parent_SMILES>
O=C1NC(C2=NC=CC=C2C(O)=O)=NC(C)1C(C)C

> <STRUCTURE_InChIS>
InChI=1S/C13H15N3O3/c1-7(2)13(3)12(19)15-10(16-13)9-8(11(17)18)5-4-6-14-9/h4-7H,1-3H3,(H,17,18)(H,15,16,19)

> <STRUCTURE_InChIKey>
CLQMBPJKHLGMQK-UHFFFAOYSA-N

> <Substance_modify_yyyymmdd>
20080429

> <Coord_Metals>
0

> <Index>
739

> <Canonical_Smiles>
CC(C)C1(C)N=C(NC1=O)c2ncccc2C(=O)O

> <Molecular_Weight>
261.27649

> <Frequency>
1

$$$$

  SciTegic          2D

 41 42  0  0  0  0            999 V2000
    2.5973   -1.5031    0.0000 C   0  0
    3.6375   -0.9049    0.0000 O   0  0
    1.2990   -0.7500    0.0000 C   0  0
    2.5951   -3.0039    0.0000 O   0  0
    1.2990    0.7500    0.0000 C   0  0
    0.0000   -1.5000    0.0000 C   0  0
    0.0000    1.5000    0.0000 C   0  0
   -1.2990   -0.7500    0.0000 C   0  0
   -1.2990    0.7500    0.0000 C   0  0
   -2.3383    1.3500    0.0000 I   0  0
    2.5988    1.5004    0.0000 S   0  0
    2.5984    2.7004    0.0000 O   0  0
    3.6377    2.1009    0.0000 O   0  0
    3.8990    0.7508    0.0000 N   0  0
    5.1988    1.5013    0.0000 C   0  0
    5.1984    2.7013    0.0000 O   0  0
    6.4990    0.7517    0.0000 N   0  0
    9.0994    0.7548    0.0000 N   0  0
    7.7987    1.5021    0.0000 C   0  0
    7.7958    3.0022    0.0000 N   0  0
    9.0933    3.7548    0.0000 C   0  0
   10.3938    3.0075    0.0000 N   0  0
   10.3969    1.5075    0.0000 C   0  0
    9.0933    5.2557    0.0000 O   0  0
   10.3926    6.0069    0.0000 C   0  0
   11.6982    0.7597    0.0000 C   0  0
    3.8933   -3.7570    0.0000 C   0  0
    0.0000   -2.5000    0.0000 H   0  0
    0.0000    2.5000    0.0000 H   0  0
   -2.1651   -1.2500    0.0000 H   0  0
    3.8993   -0.2492    0.0000 H   0  0
    6.4993   -0.2483    0.0000 H   0  0
   10.3926    7.0069    0.0000 H   0  0
   11.2587    5.5071    0.0000 H   0  0
   11.2585    6.5070    0.0000 H   0  0
   11.7008   -0.2403    0.0000 H   0  0
   12.5630    1.2618    0.0000 H   0  0
   12.5654    0.2619    0.0000 H   0  0
    3.8919   -4.7570    0.0000 H   0  0
    4.7586   -4.2584    0.0000 H   0  0
    4.7602   -3.2585    0.0000 H   0  0
  1  2  2  0
  1  3  1  0
  1  4  1  0
  3  5  2  0
  3  6  1  0
  4 27  1  0
  5  7  1  0
  5 11  1  0
  6  8  2  0
  7  9  2  0
  8  9  1  0
  9 10  1  0
 11 12  2  0
 11 13  2  0
 11 14  1  0
 14 15  1  0
 15 16  2  0
 15 17  1  0
 17 19  1  0
 18 19  2  0
 18 23  1  0
 19 20  1  0
 20 21  2  0
 21 22  1  0
 21 24  1  0
 22 23  2  0
 23 26  1  0
 24 25  1  0
  6 28  1  0
  7 29  1  0
  8 30  1  0
 14 31  1  0
 17 32  1  0
 25 33  1  0
 25 34  1  0
 25 35  1  0
 26 36  1  0
 26 37  1  0
 26 38  1  0
 27 39  1  0
 27 40  1  0
 27 41  1  0
V    1 0
V    2 1
V    3 2
V    4 3
V    5 4
V    6 5
V    7 6
V    8 7
V    9 8
V   10 9
V   11 10
V   12 11
V   13 12
V   14 13
V   15 14
V   16 15
V   17 16
V   18 17
V   19 18
V   20 19
V   21 20
V   22 21
V   23 22
V   24 23
V   25 24
V   26 25
V   27 26
M  END
> <DSSTox_RID>
65468

> <DSSTox_CID>
14673

> <DSSTox_CID_Parent>
23968

> <DSSTox_Generic_SID>
34673

> <DSSTox_FileID>
740_TXCST2_v1a

> <STRUCTURE_Formula>
C14H13IN5NaO6S

> <STRUCTURE_MolecularWeight>
529.2422

> <STRUCTURE_ChemicalType>
defined organic

> <STRUCTURE_TestedForm_DefinedOrganic>
salt Na

> <STRUCTURE_Shown>
tested chemical

> <TestSubstance_ChemicalName>
Iodosulfuron-methyl-sodium

> <TestSubstance_CASRN>
144550-36-7

> <TestSubstance_Description>
single chemical compound

> <ChemicalNote>
parent [185119-76-0]

> <Source_ChemicalNote>
tested chemical contained 3.4331% water (1.04 moles H2O)

> <STRUCTURE_ChemicalName_IUPAC>
sodium {[5-iodo-2-(methoxycarbonyl)phenyl]sulfonyl}[(4-methoxy-6-methyl-1,3,5-triazin-2-yl)carbamoyl]azanide

> <STRUCTURE_SMILES>
O=C(OC)C1=C(S(=O)([N-]C(NC2=NC(OC)=NC(C)=N2)=O)=O)C=C(I)C=C1.[Na+]

> <STRUCTURE_Parent_SMILES>
O=C(OC)C1=C(S(=O)(NC(NC2=NC(OC)=NC(C)=N2)=O)=O)C=C(I)C=C1

> <STRUCTURE_InChIS>
InChI=1S/C14H14IN5O6S.Na/c1-7-16-12(19-14(17-7)26-3)18-13(22)20-27(23,24)10-6-8(15)4-5-9(10)11(21)25-2;/h4-6H,1-3H3,(H2,16,17,18,19,20,22);/q;+1/p-1

> <STRUCTURE_InChIKey>
JUJFQMPKBJPSFZ-UHFFFAOYSA-M

> <Substance_modify_yyyymmdd>
20080429

> <Coord_Metals>
0

> <Index>
740

> <Canonical_Smiles>
COC(=O)c1ccc(I)cc1S(=O)(=O)NC(=O)Nc2nc(C)nc(OC)n2

> <Molecular_Weight>
507.26033

> <Frequency>
1

$$$$

  SciTegic          2D

 35 35  0  0  0  0            999 V2000
    0.7500   -1.0323    0.0000 C   0  0
    1.2135    0.3943    0.0000 N   0  0
    0.0000    1.2760    0.0000 C   0  0
   -1.2135    0.3943    0.0000 N   0  0
   -0.7500   -1.0323    0.0000 N   0  0
    3.1212   -2.0934    0.0000 P   0  0
    1.6281   -2.2462    0.0000 O   0  0
    3.6119   -0.9983    0.0000 S   0  0
    0.0000    2.4760    0.0000 Cl  0  0
   -2.6384    0.8573    0.0000 C   0  0
    4.0008   -3.3094    0.0000 O   0  0
    2.2266   -0.8522    0.0000 O   0  0
   -2.9514    2.3251    0.0000 C   0  0
   -3.7534   -0.1473    0.0000 C   0  0
    2.8414    0.5169    0.0000 C   0  0
    5.4938   -3.1566    0.0000 C   0  0
    1.9639    1.7345    0.0000 C   0  0
    6.3735   -4.3726    0.0000 C   0  0
   -1.8955    1.5266    0.0000 H   0  0
   -3.9025    2.6341    0.0000 H   0  0
   -2.2085    2.9945    0.0000 H   0  0
   -3.1595    3.3032    0.0000 H   0  0
   -4.7047    0.1608    0.0000 H   0  0
   -3.5449   -1.1253    0.0000 H   0  0
   -4.4960   -0.8170    0.0000 H   0  0
    3.4265   -0.2941    0.0000 H   0  0
    3.8363    0.6179    0.0000 H   0  0
    5.9027   -2.2440    0.0000 H   0  0
    4.9081   -2.3461    0.0000 H   0  0
    2.3736    2.6467    0.0000 H   0  0
    0.9691    1.6335    0.0000 H   0  0
    1.3789    2.5455    0.0000 H   0  0
    7.3683   -4.2708    0.0000 H   0  0
    5.9645   -5.2852    0.0000 H   0  0
    6.9592   -5.1831    0.0000 H   0  0
  1  2  1  0
  1  5  2  0
  1  7  1  0
  2  3  2  0
  3  9  1  0
  3  4  1  0
  4  5  1  0
  4 10  1  0
  6  7  1  0
  6  8  2  0
  6 11  1  0
  6 12  1  0
 10 13  1  0
 10 14  1  0
 11 16  1  0
 12 15  1  0
 15 17  1  0
 16 18  1  0
 10 19  1  0
 13 20  1  0
 13 21  1  0
 13 22  1  0
 14 23  1  0
 14 24  1  0
 14 25  1  0
 15 26  1  0
 15 27  1  0
 16 28  1  0
 16 29  1  0
 17 30  1  0
 17 31  1  0
 17 32  1  0
 18 33  1  0
 18 34  1  0
 18 35  1  0
V    1 0
V    2 1
V    3 2
V    4 3
V    5 4
V    6 5
V    7 6
V    8 7
V    9 8
V   10 9
V   11 10
V   12 11
V   13 12
V   14 13
V   15 14
V   16 15
V   17 16
V   18 17
M  END
> <DSSTox_RID>
62315

> <DSSTox_CID>
14676

> <DSSTox_CID_Parent>
14676

> <DSSTox_Generic_SID>
34676

> <DSSTox_FileID>
741_TXCST2_v1a

> <STRUCTURE_Formula>
C9H17ClN3O3PS

> <STRUCTURE_MolecularWeight>
313.7413

> <STRUCTURE_ChemicalType>
defined organic

> <STRUCTURE_TestedForm_DefinedOrganic>
parent

> <STRUCTURE_Shown>
tested chemical

> <TestSubstance_ChemicalName>
Isazophos

> <TestSubstance_CASRN>
42509-80-8

> <TestSubstance_Description>
single chemical compound

> <STRUCTURE_ChemicalName_IUPAC>
O-(5-chloro-1-isopropyl-1H-1,2,4-triazol-3-yl) O,O-diethyl thiophosphate

> <STRUCTURE_SMILES>
S=P(OCC)(OCC)OC1=NN(C(C)C)C(Cl)=N1

> <STRUCTURE_Parent_SMILES>
S=P(OCC)(OCC)OC1=NN(C(C)C)C(Cl)=N1

> <STRUCTURE_InChIS>
InChI=1S/C9H17ClN3O3PS/c1-5-14-17(18,15-6-2)16-9-11-8(10)13(12-9)7(3)4/h7H,5-6H2,1-4H3

> <STRUCTURE_InChIKey>
XRHGWAGWAHHFLF-UHFFFAOYSA-N

> <Substance_modify_yyyymmdd>
20080429

> <Coord_Metals>
0

> <Index>
741

> <Canonical_Smiles>
CCOP(=S)(OCC)Oc1nc(Cl)n(n1)C(C)C

> <Molecular_Weight>
313.74134

> <Frequency>
1

$$$$

  SciTegic          2D

 36 38  0  0  0  0            999 V2000
    2.5973   -1.5031    0.0000 C   0  0
    3.6375   -0.9049    0.0000 O   0  0
    1.8372   -5.2877    0.0000 N   0  0
    3.3372   -5.2929    0.0000 O   0  0
    2.5951   -3.0039    0.0000 C   0  0
    3.8056   -3.8679    0.0000 C   0  0
    1.3786   -3.8595    0.0000 C   0  0
    5.2286   -3.3991    0.0000 C   0  0
    4.7333   -2.1042    0.0000 C   0  0
    6.2015   -2.4114    0.0000 C   0  0
    1.2990   -0.7500    0.0000 C   0  0
    1.2990    0.7500    0.0000 C   0  0
    0.0000   -1.5000    0.0000 C   0  0
    0.0000    1.5000    0.0000 C   0  0
   -1.2990   -0.7500    0.0000 C   0  0
   -1.2990    0.7500    0.0000 C   0  0
    2.5988    1.5004    0.0000 S   0  0
    2.5984    2.7004    0.0000 O   0  0
    1.5595    2.1003    0.0000 O   0  0
    3.8990    0.7508    0.0000 C   0  0
   -2.5988    1.5004    0.0000 C   0  0
   -2.5996    2.7004    0.0000 F   0  0
   -3.6378    0.9001    0.0000 F   0  0
   -3.6383    2.0999    0.0000 F   0  0
    0.4305   -3.5415    0.0000 H   0  0
    5.9732   -4.0665    0.0000 H   0  0
    3.7867   -2.4268    0.0000 H   0  0
    4.9016   -1.1184    0.0000 H   0  0
    6.9393   -3.0864    0.0000 H   0  0
    6.4425   -1.4409    0.0000 H   0  0
    0.0000   -2.5000    0.0000 H   0  0
    0.0000    2.5000    0.0000 H   0  0
   -2.1651   -1.2500    0.0000 H   0  0
    4.7650    1.2509    0.0000 H   0  0
    3.8993   -0.2492    0.0000 H   0  0
    4.7651    0.2510    0.0000 H   0  0
  1  2  2  0
  1  5  1  0
  1 11  1  0
  3  4  1  0
  3  7  2  0
  4  6  1  0
  5  6  2  0
  5  7  1  0
  6  8  1  0
  8  9  1  0
  8 10  1  0
  9 10  1  0
 11 12  2  0
 11 13  1  0
 12 14  1  0
 12 17  1  0
 13 15  2  0
 14 16  2  0
 15 16  1  0
 16 21  1  0
 17 18  2  0
 17 19  2  0
 17 20  1  0
 21 22  1  0
 21 23  1  0
 21 24  1  0
  7 25  1  0
  8 26  1  0
  9 27  1  0
  9 28  1  0
 10 29  1  0
 10 30  1  0
 13 31  1  0
 14 32  1  0
 15 33  1  0
 20 34  1  0
 20 35  1  0
 20 36  1  0
V    1 0
V    2 1
V    3 2
V    4 3
V    5 4
V    6 5
V    7 6
V    8 7
V    9 8
V   10 9
V   11 10
V   12 11
V   13 12
V   14 13
V   15 14
V   16 15
V   17 16
V   18 17
V   19 18
V   20 19
V   21 20
V   22 21
V   23 22
V   24 23
M  END
> <DSSTox_RID>
66847

> <DSSTox_CID>
14723

> <DSSTox_CID_Parent>
14723

> <DSSTox_Generic_SID>
34723

> <DSSTox_FileID>
743_TXCST2_v1a

> <STRUCTURE_Formula>
C15H12F3NO4S

> <STRUCTURE_MolecularWeight>
359.3203

> <STRUCTURE_ChemicalType>
defined organic

> <STRUCTURE_TestedForm_DefinedOrganic>
parent

> <STRUCTURE_Shown>
tested chemical

> <TestSubstance_ChemicalName>
Isoxaflutole

> <TestSubstance_CASRN>
141112-29-0

> <TestSubstance_Description>
single chemical compound

> <STRUCTURE_ChemicalName_IUPAC>
(5-cyclopropylisoxazol-4-yl)[2-(methylsulfonyl)-4-(trifluoromethyl)phenyl]methanone

> <STRUCTURE_SMILES>
O=C(C3=C(S(=O)(C)=O)C=C(C(F)(F)F)C=C3)C1=C(C2CC2)ON=C1

> <STRUCTURE_Parent_SMILES>
O=C(C3=C(S(=O)(C)=O)C=C(C(F)(F)F)C=C3)C1=C(C2CC2)ON=C1

> <STRUCTURE_InChIS>
InChI=1S/C15H12F3NO4S/c1-24(21,22)12-6-9(15(16,17)18)4-5-10(12)13(20)11-7-19-23-14(11)8-2-3-8/h4-8H,2-3H2,1H3

> <STRUCTURE_InChIKey>
OYIKARCXOQLFHF-UHFFFAOYSA-N

> <Substance_modify_yyyymmdd>
20080429

> <Coord_Metals>
0

> <Index>
743

> <Canonical_Smiles>
CS(=O)(=O)c1cc(ccc1C(=O)c2cnoc2C3CC3)C(F)(F)F

> <Molecular_Weight>
359.32028

> <Frequency>
1

$$$$

  SciTegic          2D

 85 89  0  0  0  0            999 V2000
    2.4800    2.4100    0.0000 C   0  0
    1.2500    3.2100    0.0000 C   0  0
    1.2500    0.0000    0.0000 C   0  0
    0.0200    2.4100    0.0000 C   0  0
    0.0200    0.7000    0.0000 C   0  0
    3.7100    3.2100    0.0000 C   0  0
    4.9400    2.4100    0.0000 C   0  0
    4.9400    0.7000    0.0000 C   0  0
    6.1800    3.2100    0.0000 O   0  0
    7.4100    2.4100    0.0000 C   0  0
    6.1800    0.0000    0.0000 C   0  0
    7.4100    0.7000    0.0000 C   0  0
    9.8600    4.0000    0.0000 C   0  0
    8.6400    4.8000    0.0000 C   0  0
    9.8600    2.4100    0.0000 C   0  0
    7.4100    4.0000    0.0000 O   0  0
    8.6400    1.6100    0.0000 C   0  0
    7.3414    5.5186    0.0000 C   0  0
    3.8863   -1.9058    0.0000 O   0  0
    6.1800   -1.6800    0.0000 O   0  0
    4.9400   -2.4800    0.0000 C   0  0
    2.4800   -2.4800    0.0000 C   0  0
    2.4800   -4.1900    0.0000 C   0  0
    4.9400   -4.1900    0.0000 C   0  0
    3.7100   -4.9900    0.0000 C   0  0
    1.2500   -1.6800    0.0000 C   0  0
    1.2500   -4.9900    0.0000 C   0  0
    1.2500   -6.5900    0.0000 O   0  0
    3.7100   -6.5900    0.0000 C   0  0
    6.1800   -4.9900    0.0000 C   0  0
    6.1800   -6.5900    0.0000 C   0  0
    4.9400   -7.5000    0.0000 C   0  0
    1.2500    4.7098    0.0000 C   0  0
    0.0607   -0.7801    0.0000 C   0  0
    3.7100   -3.4892    0.0000 O   0  0
    7.5113   -7.2847    0.0000 C   0  0
    6.2385   -8.2264    0.0000 O   0  0
    9.8620    5.4785    0.0000 C   0  0
    6.0399    4.7712    0.0000 C   0  0
    2.4800    1.4100    0.0000 H   0  0
    2.1145    0.5027    0.0000 H   0  0
   -0.8186    1.8653    0.0000 H   0  0
    0.0193    3.4100    0.0000 H   0  0
   -0.8353    1.2182    0.0000 H   0  0
    4.5854    3.6933    0.0000 H   0  0
    2.8346    3.6934    0.0000 H   0  0
    4.0731    1.9116    0.0000 H   0  0
    4.9680   -0.2996    0.0000 H   0  0
    4.0832    1.2157    0.0000 H   0  0
    7.0445   -0.5027    0.0000 H   0  0
    8.2657    1.2174    0.0000 H   0  0
    6.5574    1.2226    0.0000 H   0  0
   10.6970    3.4528    0.0000 H   0  0
    8.6183    3.8002    0.0000 H   0  0
    9.8623    1.4100    0.0000 H   0  0
    8.9681    2.8622    0.0000 H   0  0
    7.7655    1.1249    0.0000 H   0  0
    9.5162    1.1281    0.0000 H   0  0
    6.4764    6.0205    0.0000 H   0  0
    7.3434    6.5186    0.0000 H   0  0
    3.3590   -2.0031    0.0000 H   0  0
    5.8181   -3.7115    0.0000 H   0  0
    0.3710   -2.1569    0.0000 H   0  0
    1.2494   -3.9900    0.0000 H   0  0
    0.4113   -5.5346    0.0000 H   0  0
    3.3969   -7.5397    0.0000 H   0  0
    7.0581   -4.5115    0.0000 H   0  0
    4.0655   -7.9850    0.0000 H   0  0
    2.1157    5.2104    0.0000 H   0  0
    0.3838    5.2096    0.0000 H   0  0
    1.2495    5.7098    0.0000 H   0  0
    0.9280   -1.2778    0.0000 H   0  0
   -0.8068   -0.2826    0.0000 H   0  0
   -0.8039   -1.2827    0.0000 H   0  0
    2.8443   -2.9886    0.0000 H   0  0
    8.3557   -6.7489    0.0000 H   0  0
    7.5534   -8.2838    0.0000 H   0  0
    8.3975   -7.7479    0.0000 H   0  0
    7.1057   -7.7285    0.0000 H   0  0
    9.0107    6.0032    0.0000 H   0  0
    9.8906    6.4780    0.0000 H   0  0
   10.7419    5.9536    0.0000 H   0  0
    5.1747    5.2726    0.0000 H   0  0
    5.1730    4.2728    0.0000 H   0  0
    6.0380    3.7712    0.0000 H   0  0
  1  2  2  0
  1  6  1  0
  2  4  1  0
  2 33  1  0
  3  5  1  0
  3 26  2  0
  4  5  1  0
  5 34  1  0
  6  7  1  0
  7  9  1  0
  7  8  1  0
  8 11  1  0
  9 10  1  0
 10 12  1  0
 10 16  1  0
 10 17  1  0
 11 12  1  0
 11 20  1  0
 13 14  1  0
 13 15  1  0
 13 38  1  0
 14 18  1  0
 14 16  1  0
 15 17  1  0
 18 39  1  0
 19 21  2  0
 20 21  1  0
 21 24  1  0
 22 23  2  0
 26 22  1  0
 23 27  1  0
 23 25  1  0
 24 30  1  0
 24 25  1  0
 25 29  1  0
 25 35  1  0
 27 28  1  0
 28 29  1  0
 29 32  1  0
 30 31  2  0
 31 32  1  0
 31 36  1  0
 32 37  1  0
  1 40  1  0
  3 41  1  0
  4 42  1  0
  4 43  1  0
  5 44  1  0
  6 45  1  0
  6 46  1  0
  7 47  1  0
  8 48  1  0
  8 49  1  0
 11 50  1  0
 12 51  1  0
 12 52  1  0
 13 53  1  0
 14 54  1  0
 15 55  1  0
 15 56  1  0
 17 57  1  0
 17 58  1  0
 18 59  1  0
 18 60  1  0
 22 61  1  0
 24 62  1  0
 26 63  1  0
 27 64  1  0
 27 65  1  0
 29 66  1  0
 30 67  1  0
 32 68  1  0
 33 69  1  0
 33 70  1  0
 33 71  1  0
 34 72  1  0
 34 73  1  0
 34 74  1  0
 35 75  1  0
 36 76  1  0
 36 77  1  0
 36 78  1  0
 37 79  1  0
 38 80  1  0
 38 81  1  0
 38 82  1  0
 39 83  1  0
 39 84  1  0
 39 85  1  0
V    1 0
V    2 1
V    3 2
V    4 3
V    5 4
V    6 5
V    7 6
V    8 7
V    9 8
V   10 9
V   11 10
V   12 11
V   13 12
V   14 13
V   15 14
V   16 15
V   17 16
V   18 17
V   19 18
V   20 19
V   21 20
V   22 21
V   23 22
V   24 23
V   25 24
V   26 25
V   27 26
V   28 27
V   29 28
V   30 29
V   31 30
V   32 31
V   33 32
V   34 33
V   35 34
V   36 37
V   37 38
V   38 40
V   39 41
M  END
> <DSSTox_RID>
65321

> <DSSTox_CID>
14742

> <DSSTox_CID_Parent>
14742

> <DSSTox_Generic_SID>
34742

> <DSSTox_FileID>
744_TXCST2_v1a

> <STRUCTURE_Formula>
C32H46O7

> <STRUCTURE_MolecularWeight>
542.7034

> <STRUCTURE_ChemicalType>
defined organic

> <STRUCTURE_TestedForm_DefinedOrganic>
parent

> <STRUCTURE_Shown>
representative component in mixture

> <TestSubstance_ChemicalName>
Milbemectin (mixture of >=70% Milbemcin A4, & <=30% Milbemycin A3)

> <TestSubstance_CASRN>
NOCAS_34742

> <TestSubstance_Description>
mixture or formulation

> <ChemicalNote>
mixture of milbermectrin A4 (6'-ethyl) [51596-11-3] and A3 (6'-methyl) [51596-10-2]; structure shown A4; stereochem

> <STRUCTURE_ChemicalName_IUPAC>
(2aE,4E,5'S,6R,6'R,8E,11R,13R,15S,17aR,20R,20aR,20bS)-6'-ethyl-20,20b-dihydroxy-5',6,8,19-tetramethyl-3',4',5',6,6',7,10,11,14,15,17a,20,20a,20b-tetradecahydro-2H,17H-spiro[11,15-methanofuro[4,3,2-pq]
[2,6]benzodioxacyclooctadecine-13,2'-pyran]-17-one

> <STRUCTURE_SMILES>
O=C2O[C@H]4C[C@@](O[C@]5(O[C@H](CC)[C@@H](C)CC5)C4)([H])C/C=C(C)/C[C@@H](C)/C=C/C=C1CO[C@@]3([H])[C@@](O)/1[C@]([H])2C=C(C)[C@H]3O

> <STRUCTURE_Parent_SMILES>
O=C2O[C@H]4C[C@@](O[C@]5(O[C@H](CC)[C@@H](C)CC5)C4)([H])C/C=C(C)/C[C@@H](C)/C=C/C=C1CO[C@@]3([H])[C@@](O)/1[C@]([H])2C=C(C)[C@H]3O

> <STRUCTURE_InChIS>
InChI=1S/C32H46O7/c1-6-27-21(4)12-13-31(39-27)17-25-16-24(38-31)11-10-20(3)14-19(2)8-7-9-23-18-36-29-28(33)22(5)15-26(30(34)37-25)32(23,29)35/h7-10,15,19,21,24-29,33,35H,6,11-14,16-18H2,1-5H3/b8-7+,20
-10+,23-9+/t19-,21-,24+,25-,26-,27+,28+,29+,31+,32+/m0/s1

> <STRUCTURE_InChIKey>
VOZIAWLUULBIPN-LRBNAKOISA-N

> <Substance_modify_yyyymmdd>
20080429

> <Coord_Metals>
0

> <Index>
744

> <Canonical_Smiles>
CCC1OC2(CCC1C)CC3CC(CC=C(C)CC(C)C=CC=C4COC5C(O)C(=CC(C(=O)O3)C45O)C)O2

> <Molecular_Weight>
542.70343

> <Frequency>
1

$$$$

  SciTegic          2D

 41 42  0  0  0  0            999 V2000
    2.5973   -1.5031    0.0000 C   0  0
    9.0836   -9.7649    0.0000 C   0  0
    2.5951   -3.0039    0.0000 N   0  0
    1.2990   -0.7500    0.0000 C   0  0
    3.8933   -3.7570    0.0000 C   0  0
   10.3796  -12.0189    0.0000 O   0  0
   11.6777  -12.7720    0.0000 C   0  0
   10.3817  -10.5181    0.0000 C   0  0
    9.0857   -8.2641    0.0000 O   0  0
    7.7875   -7.5110    0.0000 C   0  0
    6.4885   -8.2610    0.0000 C   0  0
    3.8912   -5.2578    0.0000 N   0  0
    5.1895   -7.5109    0.0000 C   0  0
    3.6375   -0.9049    0.0000 O   0  0
    1.2990    0.7500    0.0000 C   0  0
    0.0000   -1.5000    0.0000 C   0  0
    5.1894   -6.0109    0.0000 C   0  0
    4.9336   -3.1588    0.0000 O   0  0
    8.0433  -10.3631    0.0000 F   0  0
    8.0453   -9.1633    0.0000 F   0  0
    7.7876   -6.0110    0.0000 C   0  0
   11.6760  -13.9720    0.0000 F   0  0
   12.7180  -12.1738    0.0000 F   0  0
   12.7160  -13.3737    0.0000 F   0  0
   11.4220   -9.9199    0.0000 F   0  0
    6.4884   -9.4610    0.0000 Cl  0  0
    6.4885   -5.2610    0.0000 C   0  0
    0.0000   -2.7000    0.0000 F   0  0
    2.3383    1.3500    0.0000 F   0  0
   -1.2990    0.7500    0.0000 C   0  0
    0.0000    1.5000    0.0000 C   0  0
   -1.2990   -0.7500    0.0000 C   0  0
    1.7282   -3.5024    0.0000 H   0  0
   11.2470  -11.0194    0.0000 H   0  0
    3.0243   -5.7563    0.0000 H   0  0
    4.3234   -8.0109    0.0000 H   0  0
    8.6536   -5.5110    0.0000 H   0  0
    6.4886   -4.2610    0.0000 H   0  0
   -2.1651    1.2500    0.0000 H   0  0
    0.0000    2.5000    0.0000 H   0  0
   -2.1651   -1.2500    0.0000 H   0  0
  1  3  1  0
  1  4  1  0
  1 14  2  0
  2  9  1  0
  2  8  1  0
  2 19  1  0
  2 20  1  0
  3  5  1  0
  4 15  2  0
  4 16  1  0
  5 12  1  0
  5 18  2  0
  6  8  1  0
  6  7  1  0
  7 22  1  0
  7 23  1  0
  7 24  1  0
  8 25  1  0
  9 10  1  0
 10 21  2  0
 10 11  1  0
 11 13  2  0
 11 26  1  0
 12 17  1  0
 13 17  1  0
 15 29  1  0
 15 31  1  0
 16 28  1  0
 16 32  2  0
 17 27  2  0
 21 27  1  0
 30 31  2  0
 30 32  1  0
  3 33  1  0
  8 34  1  0
 12 35  1  0
 13 36  1  0
 21 37  1  0
 27 38  1  0
 30 39  1  0
 31 40  1  0
 32 41  1  0
V    1 0
V    2 1
V    3 2
V    4 3
V    5 4
V    6 5
V    7 6
V    8 7
V    9 8
V   10 9
V   11 10
V   12 11
V   13 12
V   14 13
V   15 14
V   16 15
V   17 16
V   18 17
V   19 18
V   20 19
V   21 20
V   22 21
V   23 22
V   24 23
V   25 24
V   26 25
V   27 26
V   28 27
V   29 28
V   30 29
V   31 30
V   32 31
M  END
> <DSSTox_RID>
66450

> <DSSTox_CID>
14773

> <DSSTox_CID_Parent>
14773

> <DSSTox_Generic_SID>
34773

> <DSSTox_FileID>
745_TXCST2_v1a

> <STRUCTURE_Formula>
C17H9ClF8N2O4

> <STRUCTURE_MolecularWeight>
492.7046

> <STRUCTURE_ChemicalType>
defined organic

> <STRUCTURE_TestedForm_DefinedOrganic>
parent

> <STRUCTURE_Shown>
tested chemical

> <TestSubstance_ChemicalName>
Novaluron

> <TestSubstance_CASRN>
116714-46-6

> <TestSubstance_Description>
single chemical compound

> <STRUCTURE_ChemicalName_IUPAC>
N-({3-chloro-4-[1,1,2-trifluoro-2-(trifluoromethoxy)ethoxy]phenyl}carbamoyl)-2,6-difluorobenzamide

> <STRUCTURE_SMILES>
O=C(C(C(F)=CC=C1)=C1F)NC(NC2=CC(Cl)=C(C=C2)OC(F)(F)C(F)OC(F)(F)F)=O

> <STRUCTURE_Parent_SMILES>
O=C(C(C(F)=CC=C1)=C1F)NC(NC2=CC(Cl)=C(C=C2)OC(F)(F)C(F)OC(F)(F)F)=O

> <STRUCTURE_InChIS>
InChI=1S/C17H9ClF8N2O4/c18-8-6-7(4-5-11(8)31-16(22,23)14(21)32-17(24,25)26)27-15(30)28-13(29)12-9(19)2-1-3-10(12)20/h1-6,14H,(H2,27,28,29,30)

> <STRUCTURE_InChIKey>
NJPPVKZQTLUDBO-UHFFFAOYSA-N

> <Substance_modify_yyyymmdd>
20080429

> <Coord_Metals>
0

> <Index>
745

> <Canonical_Smiles>
FC(OC(F)(F)F)C(F)(F)Oc1ccc(NC(=O)NC(=O)c2c(F)cccc2F)cc1Cl

> <Molecular_Weight>
492.70458

> <Frequency>
1

$$$$

  SciTegic          2D

 46 48  0  0  0  0            999 V2000
    7.1134   -2.5382    0.0000 C   0  0
    6.3513   -1.2462    0.0000 C   0  0
    8.6133   -2.5243    0.0000 C   0  0
    7.0892    0.0597    0.0000 C   0  0
    9.3512   -1.2183    0.0000 C   0  0
    8.5891    0.0737    0.0000 C   0  0
    6.3778   -3.8464    0.0000 O   0  0
    4.8506   -1.2602    0.0000 S   0  0
    6.3267    1.3524    0.0000 C   0  0
    5.1267    1.3420    0.0000 F   0  0
    6.9173    2.3970    0.0000 F   0  0
    5.7175    2.3863    0.0000 F   0  0
    4.2606   -2.3052    0.0000 O   0  0
    3.6506   -1.2719    0.0000 O   0  0
    4.0872    0.0320    0.0000 N   0  0
    2.5889    0.0182    0.0000 C   0  0
    1.7138    1.2033    0.0000 N   0  0
    1.7138   -1.2033    0.0000 N   0  0
    0.2917    0.7475    0.0000 N   0  0
    0.2917   -0.7475    0.0000 C   0  0
   -1.0028    1.5132    0.0000 C   0  0
   -2.3155    0.7475    0.0000 N   0  0
   -1.0028   -1.5132    0.0000 C   0  0
   -2.3155   -0.7475    0.0000 C   0  0
   -0.9971    3.0138    0.0000 O   0  0
   -2.2935    3.7700    0.0000 C   0  0
   -0.9971   -3.0138    0.0000 O   0  0
   -2.2935   -3.7700    0.0000 C   0  0
    7.1421   -5.1381    0.0000 C   0  0
    6.4065   -6.4463    0.0000 C   0  0
    7.0177   -7.4790    0.0000 F   0  0
    5.2066   -6.4595    0.0000 F   0  0
    9.1214   -3.3856    0.0000 H   0  0
   10.3511   -1.2090    0.0000 H   0  0
    9.0810    0.9444    0.0000 H   0  0
    4.5789    0.9028    0.0000 H   0  0
   -3.1826   -1.2456    0.0000 H   0  0
   -2.2897    4.7699    0.0000 H   0  0
   -3.1616    3.2735    0.0000 H   0  0
   -3.1576    4.2734    0.0000 H   0  0
   -2.2897   -4.7699    0.0000 H   0  0
   -3.1616   -3.2735    0.0000 H   0  0
   -3.1576   -4.2734    0.0000 H   0  0
    7.6327   -4.2666    0.0000 H   0  0
    8.1421   -5.1270    0.0000 H   0  0
    5.9160   -7.3177    0.0000 H   0  0
  1  2  1  0
  1  3  2  0
  1  7  1  0
  2  4  2  0
  2  8  1  0
  3  5  1  0
  4  6  1  0
  4  9  1  0
  5  6  2  0
  7 29  1  0
  8 13  2  0
  8 14  2  0
  8 15  1  0
  9 10  1  0
  9 11  1  0
  9 12  1  0
 15 16  1  0
 16 17  2  0
 16 18  1  0
 17 19  1  0
 18 20  2  0
 19 21  1  0
 19 20  1  0
 20 23  1  0
 21 22  2  0
 21 25  1  0
 22 24  1  0
 23 24  2  0
 23 27  1  0
 25 26  1  0
 27 28  1  0
 29 30  1  0
 30 31  1  0
 30 32  1  0
  3 33  1  0
  5 34  1  0
  6 35  1  0
 15 36  1  0
 24 37  1  0
 26 38  1  0
 26 39  1  0
 26 40  1  0
 28 41  1  0
 28 42  1  0
 28 43  1  0
 29 44  1  0
 29 45  1  0
 30 46  1  0
V    1 0
V    2 1
V    3 2
V    4 3
V    5 4
V    6 5
V    7 6
V    8 7
V    9 8
V   10 9
V   11 10
V   12 11
V   13 12
V   14 13
V   15 14
V   16 15
V   17 16
V   18 17
V   19 18
V   20 19
V   21 20
V   22 21
V   23 22
V   24 23
V   25 24
V   26 25
V   27 26
V   28 27
V   29 28
V   30 29
V   31 30
V   32 31
M  END
> <DSSTox_RID>
65286

> <DSSTox_CID>
14803

> <DSSTox_CID_Parent>
14803

> <DSSTox_Generic_SID>
34803

> <DSSTox_FileID>
746_TXCST2_v1a

> <STRUCTURE_Formula>
C16H14F5N5O5S

> <STRUCTURE_MolecularWeight>
483.3699

> <STRUCTURE_ChemicalType>
defined organic

> <STRUCTURE_TestedForm_DefinedOrganic>
parent

> <STRUCTURE_Shown>
tested chemical

> <TestSubstance_ChemicalName>
Penoxsulam

> <TestSubstance_CASRN>
219714-96-2

> <TestSubstance_Description>
single chemical compound

> <STRUCTURE_ChemicalName_IUPAC>
2-(2,2-difluoroethoxy)-N-(5,8-dimethoxy[1,2,4]triazolo[1,5-c]pyrimidin-2-yl)-6-(trifluoromethyl)benzenesulfonamide

> <STRUCTURE_SMILES>
FC(F)(F)C1=C(S(=O)(NC3=NN2C(OC)=NC=C(OC)C2=N3)=O)C(OCC(F)F)=CC=C1

> <STRUCTURE_Parent_SMILES>
FC(F)(F)C1=C(S(=O)(NC3=NN2C(OC)=NC=C(OC)C2=N3)=O)C(OCC(F)F)=CC=C1

> <STRUCTURE_InChIS>
InChI=1S/C16H14F5N5O5S/c1-29-10-6-22-15(30-2)26-13(10)23-14(24-26)25-32(27,28)12-8(16(19,20)21)4-3-5-9(12)31-7-11(17)18/h3-6,11H,7H2,1-2H3,(H,24,25)

> <STRUCTURE_InChIKey>
SYJGKVOENHZYMQ-UHFFFAOYSA-N

> <Substance_modify_yyyymmdd>
20080429

> <Coord_Metals>
0

> <Index>
746

> <Canonical_Smiles>
COc1cnc(OC)n2nc(NS(=O)(=O)c3c(OCC(F)F)cccc3C(F)(F)F)nc12

> <Molecular_Weight>
483.36987

> <Frequency>
1

$$$$

  SciTegic          2D

 28 27  0  0  0  0            999 V2000
    9.0999    0.7500    0.0000 P   0  0
    5.2000    0.0000    0.0000 C   0  0
    3.9000    0.7500    0.0000 C   0  0
    6.5000    0.7500    0.0000 C   0  0
    7.7999    0.0000    0.0000 O   0  0
   10.1388    0.1493    0.0000 O   0  0
    3.9000    1.9500    0.0000 O   0  0
    9.1014    2.2508    0.0000 O   0  0
    9.1011   -0.7800    0.0000 O   0  0
    2.6000    0.0000    0.0000 N   0  0
    6.5030    2.2508    0.0000 C   0  0
    1.3000    0.7500    0.0000 C   0  0
   10.4013    3.0008    0.0000 C   0  0
   10.4010   -1.5301    0.0000 C   0  0
    5.2000   -1.0000    0.0000 H   0  0
    2.6000   -1.0000    0.0000 H   0  0
    7.3698    2.7496    0.0000 H   0  0
    6.5046    3.2508    0.0000 H   0  0
    5.6379    2.7523    0.0000 H   0  0
    0.4338    0.2503    0.0000 H   0  0
    1.3000    1.7500    0.0000 H   0  0
    0.4340    1.2501    0.0000 H   0  0
   10.4023    4.0008    0.0000 H   0  0
   11.2671    2.5003    0.0000 H   0  0
   11.2678    3.5001    0.0000 H   0  0
   10.4018   -2.5301    0.0000 H   0  0
   11.2668   -1.0297    0.0000 H   0  0
   11.2674   -2.0296    0.0000 H   0  0
  1  5  1  0
  1  6  2  0
  1  8  1  0
  1  9  1  0
  2  4  2  0
  2  3  1  0
  3  7  2  0
  3 10  1  0
  4  5  1  0
  4 11  1  0
  8 13  1  0
  9 14  1  0
 10 12  1  0
  2 15  1  0
 10 16  1  0
 11 17  1  0
 11 18  1  0
 11 19  1  0
 12 20  1  0
 12 21  1  0
 12 22  1  0
 13 23  1  0
 13 24  1  0
 13 25  1  0
 14 26  1  0
 14 27  1  0
 14 28  1  0
V    1 0
V    2 1
V    3 2
V    4 3
V    5 4
V    6 5
V    7 6
V    8 7
V    9 8
V   10 9
V   11 10
V   12 11
V   13 12
V   14 13
M  END
> <DSSTox_RID>
62359

> <DSSTox_CID>
14816

> <DSSTox_CID_Parent>
14816

> <DSSTox_Generic_SID>
34816

> <DSSTox_FileID>
747_TXCST2_v1a

> <STRUCTURE_Formula>
C7H14NO5P

> <STRUCTURE_MolecularWeight>
223.1635

> <STRUCTURE_ChemicalType>
defined organic

> <STRUCTURE_TestedForm_DefinedOrganic>
parent

> <STRUCTURE_Shown>
tested chemical

> <TestSubstance_ChemicalName>
Monocrotophos

> <TestSubstance_CASRN>
6923-22-4

> <TestSubstance_Description>
single chemical compound

> <ChemicalNote>
stereochem

> <Source_ChemicalNote>
tested chemical contained 0.04% water

> <STRUCTURE_ChemicalName_IUPAC>
dimethyl (1E)-1-methyl-3-(methylamino)-3-oxoprop-1-en-1-yl phosphate

> <STRUCTURE_SMILES>
O=P(OC)(OC)O/C(C)=C([H])/C(NC)=O

> <STRUCTURE_Parent_SMILES>
O=P(OC)(OC)O/C(C)=C([H])/C(NC)=O

> <STRUCTURE_InChIS>
InChI=1S/C7H14NO5P/c1-6(5-7(9)8-2)13-14(10,11-3)12-4/h5H,1-4H3,(H,8,9)/b6-5+

> <STRUCTURE_InChIKey>
KRTSDMXIXPKRQR-AATRIKPKSA-N

> <Substance_modify_yyyymmdd>
20080429

> <Coord_Metals>
0

> <Index>
747

> <Canonical_Smiles>
CNC(=O)C=C(C)OP(=O)(OC)OC

> <Molecular_Weight>
223.16352

> <Frequency>
1

$$$$

  SciTegic          2D

 29 30  0  0  0  0            999 V2000
    1.6411    5.1720    0.0000 P   0  0
    2.8152    5.4199    0.0000 O   0  0
    0.6387    6.2890    0.0000 O   0  0
    2.1179    6.6258    0.0000 O   0  0
    1.1759    3.7451    0.0000 S   0  0
    3.5866    6.9346    0.0000 C   0  0
    1.1040    7.7159    0.0000 C   0  0
    2.1783    2.6281    0.0000 C   0  0
   -1.0028    1.5132    0.0000 N   0  0
   -2.3155    0.7475    0.0000 C   0  0
    0.2917    0.7475    0.0000 C   0  0
    0.2917   -0.7475    0.0000 C   0  0
   -2.3155   -0.7475    0.0000 C   0  0
   -1.0028   -1.5132    0.0000 C   0  0
    1.7138   -1.2033    0.0000 O   0  0
    2.5889    0.0182    0.0000 C   0  0
    1.7138    1.2033    0.0000 N   0  0
    3.7889    0.0269    0.0000 O   0  0
   -3.3560   -1.3452    0.0000 Cl  0  0
    3.8983    7.8848    0.0000 H   0  0
    4.5653    7.1399    0.0000 H   0  0
    4.2539    6.1898    0.0000 H   0  0
    0.4361    8.4601    0.0000 H   0  0
    2.0824    7.9225    0.0000 H   0  0
    1.4145    8.6665    0.0000 H   0  0
    3.1567    2.8347    0.0000 H   0  0
    2.4887    3.5787    0.0000 H   0  0
   -3.1826    1.2456    0.0000 H   0  0
   -0.9997   -2.5132    0.0000 H   0  0
  1  2  2  0
  1  3  1  0
  1  4  1  0
  1  5  1  0
  3  7  1  0
  4  6  1  0
  5  8  1  0
  8 17  1  0
  9 10  1  0
  9 11  2  0
 10 13  2  0
 11 12  1  0
 11 17  1  0
 12 14  2  0
 12 15  1  0
 13 14  1  0
 13 19  1  0
 15 16  1  0
 16 17  1  0
 16 18  2  0
  6 20  1  0
  6 21  1  0
  6 22  1  0
  7 23  1  0
  7 24  1  0
  7 25  1  0
  8 26  1  0
  8 27  1  0
 10 28  1  0
 14 29  1  0
V    1 0
V    2 1
V    3 2
V    4 3
V    5 4
V    6 5
V    7 6
V    8 7
V    9 8
V   10 9
V   11 10
V   12 11
V   13 12
V   14 13
V   15 14
V   16 15
V   17 16
V   18 17
V   19 18
M  END
> <DSSTox_RID>
62301

> <DSSTox_CID>
14818

> <DSSTox_CID_Parent>
14818

> <DSSTox_Generic_SID>
34818

> <DSSTox_FileID>
748_TXCST2_v1a

> <STRUCTURE_Formula>
C9H10ClN2O5PS

> <STRUCTURE_MolecularWeight>
324.6779

> <STRUCTURE_ChemicalType>
defined organic

> <STRUCTURE_TestedForm_DefinedOrganic>
parent

> <STRUCTURE_Shown>
tested chemical

> <TestSubstance_ChemicalName>
Azamethiphos

> <TestSubstance_CASRN>
35575-96-3

> <TestSubstance_Description>
single chemical compound

> <STRUCTURE_ChemicalName_IUPAC>
S-[(6-chloro-2-oxo[1,3]oxazolo[4,5-b]pyridin-3(2H)-yl)methyl] O,O-dimethyl thiophosphate

> <STRUCTURE_SMILES>
O=P(OC)(SCN2C1=NC=C(Cl)C=C1OC2=O)OC

> <STRUCTURE_Parent_SMILES>
O=P(OC)(SCN2C1=NC=C(Cl)C=C1OC2=O)OC

> <STRUCTURE_InChIS>
InChI=1S/C9H10ClN2O5PS/c1-15-18(14,16-2)19-5-12-8-7(17-9(12)13)3-6(10)4-11-8/h3-4H,5H2,1-2H3

> <STRUCTURE_InChIKey>
VNKBTWQZTQIWDV-UHFFFAOYSA-N

> <Substance_modify_yyyymmdd>
20080429

> <Coord_Metals>
0

> <Index>
748

> <Canonical_Smiles>
COP(=O)(OC)SCN1C(=O)Oc2cc(Cl)cnc12

> <Molecular_Weight>
324.67786

> <Frequency>
1

$$$$

  SciTegic          2D

 33 32  0  0  0  0            999 V2000
    9.0999    0.7500    0.0000 C   0  0
    9.0999    1.9500    0.0000 O   0  0
   10.3999    0.0000    0.0000 O   0  0
    7.7999    0.0000    0.0000 N   0  0
    6.5000    0.7500    0.0000 C   0  0
    5.2000    0.0000    0.0000 C   0  0
    3.9000    0.7500    0.0000 C   0  0
    2.6000    0.0000    0.0000 N   0  0
    1.3000    0.7500    0.0000 C   0  0
    2.5969   -1.5008    0.0000 C   0  0
   11.6999    0.7500    0.0000 C   0  0
   12.9999    0.0000    0.0000 C   0  0
   14.2999    0.7500    0.0000 C   0  0
    7.7999   -1.0000    0.0000 H   0  0
    7.3659    1.2501    0.0000 H   0  0
    6.5000    1.7500    0.0000 H   0  0
    4.3340   -0.5001    0.0000 H   0  0
    5.2000   -1.0000    0.0000 H   0  0
    3.0340    1.2501    0.0000 H   0  0
    3.9000    1.7500    0.0000 H   0  0
    0.4338    0.2503    0.0000 H   0  0
    0.4340    1.2501    0.0000 H   0  0
    1.3000    1.7500    0.0000 H   0  0
    1.7302   -1.9996    0.0000 H   0  0
    2.5953   -2.5008    0.0000 H   0  0
    3.4620   -2.0023    0.0000 H   0  0
   11.6999    1.7500    0.0000 H   0  0
   10.8340    1.2501    0.0000 H   0  0
   12.9999   -1.0000    0.0000 H   0  0
   12.1340   -0.5001    0.0000 H   0  0
   15.1661    0.2503    0.0000 H   0  0
   14.2999    1.7500    0.0000 H   0  0
   15.1658    1.2501    0.0000 H   0  0
  1  2  2  0
  1  3  1  0
  1  4  1  0
  3 11  1  0
  4  5  1  0
  5  6  1  0
  6  7  1  0
  7  8  1  0
  8  9  1  0
  8 10  1  0
 11 12  1  0
 12 13  1  0
  4 14  1  0
  5 15  1  0
  5 16  1  0
  6 17  1  0
  6 18  1  0
  7 19  1  0
  7 20  1  0
  9 21  1  0
  9 22  1  0
  9 23  1  0
 10 24  1  0
 10 25  1  0
 10 26  1  0
 11 27  1  0
 11 28  1  0
 12 29  1  0
 12 30  1  0
 13 31  1  0
 13 32  1  0
 13 33  1  0
V    1 0
V    2 1
V    3 2
V    4 3
V    5 4
V    6 5
V    7 6
V    8 7
V    9 8
V   10 9
V   11 10
V   12 11
V   13 12
M  END
> <DSSTox_RID>
65356

> <DSSTox_CID>
14849

> <DSSTox_CID_Parent>
20295

> <DSSTox_Generic_SID>
34849

> <DSSTox_FileID>
749_TXCST2_v1a

> <STRUCTURE_Formula>
C9H21ClN2O2

> <STRUCTURE_MolecularWeight>
224.7282

> <STRUCTURE_ChemicalType>
defined organic

> <STRUCTURE_TestedForm_DefinedOrganic>
complex HCl

> <STRUCTURE_Shown>
tested chemical

> <TestSubstance_ChemicalName>
Propamocarb hydrochloride

> <TestSubstance_CASRN>
25606-41-1

> <TestSubstance_Description>
single chemical compound

> <ChemicalNote>
parent [24579-73-5]

> <STRUCTURE_ChemicalName_IUPAC>
propyl [3-(dimethylamino)propyl]carbamate hydrochloride

> <STRUCTURE_SMILES>
O=C(NCCCN(C)C)OCCC.Cl

> <STRUCTURE_Parent_SMILES>
O=C(NCCCN(C)C)OCCC

> <STRUCTURE_InChIS>
InChI=1S/C9H20N2O2.ClH/c1-4-8-13-9(12)10-6-5-7-11(2)3;/h4-8H2,1-3H3,(H,10,12);1H

> <STRUCTURE_InChIKey>
MKIMSXGUTQTKJU-UHFFFAOYSA-N

> <Substance_modify_yyyymmdd>
20080429

> <Coord_Metals>
0

> <Index>
749

> <Canonical_Smiles>
CCCOC(=O)NCCCN(C)C

> <Molecular_Weight>
188.26729

> <Frequency>
1

$$$$

  SciTegic          2D

 45 46  0  0  0  0            999 V2000
    6.4990   -0.7516    0.0000 N   0  0
    6.6348    0.7294    0.0000 N   0  0
    8.1015    1.0434    0.0000 C   0  0
    8.8534   -0.2546    0.0000 N   0  0
    7.8513   -1.3707    0.0000 C   0  0
    5.1988   -1.5012    0.0000 C   0  0
    5.1984   -2.7012    0.0000 O   0  0
    3.8990   -0.7508    0.0000 N   0  0
    8.7061    2.4142    0.0000 O   0  0
    7.8205    3.6259    0.0000 C   0  0
   10.3436   -0.4091    0.0000 C   0  0
    8.0954   -2.5456    0.0000 O   0  0
    2.5988   -1.5004    0.0000 S   0  0
    3.6377   -2.1009    0.0000 O   0  0
    2.5984   -2.7004    0.0000 O   0  0
    1.2990   -0.7500    0.0000 C   0  0
    1.2990    0.7500    0.0000 C   0  0
    0.0000   -1.5000    0.0000 C   0  0
    0.0000    1.5000    0.0000 C   0  0
   -1.2990   -0.7500    0.0000 C   0  0
   -1.2990    0.7500    0.0000 C   0  0
    2.5972    1.5031    0.0000 C   0  0
    3.6375    0.9049    0.0000 O   0  0
    2.5951    3.0039    0.0000 O   0  0
    3.8933    3.7570    0.0000 C   0  0
    8.4262    4.9991    0.0000 C   0  0
    7.5405    6.2108    0.0000 C   0  0
    3.8993    0.2492    0.0000 H   0  0
    6.8263    3.5182    0.0000 H   0  0
    7.4165    2.7111    0.0000 H   0  0
   10.9308    0.4004    0.0000 H   0  0
   10.7514   -1.3222    0.0000 H   0  0
   11.3383   -0.5127    0.0000 H   0  0
    0.0000   -2.5000    0.0000 H   0  0
    0.0000    2.5000    0.0000 H   0  0
   -2.1651   -1.2500    0.0000 H   0  0
   -2.1651    1.2500    0.0000 H   0  0
    3.8919    4.7570    0.0000 H   0  0
    4.7585    4.2584    0.0000 H   0  0
    4.7602    3.2585    0.0000 H   0  0
    9.4203    5.1068    0.0000 H   0  0
    9.0166    4.1920    0.0000 H   0  0
    7.9441    7.1257    0.0000 H   0  0
    6.5463    6.1031    0.0000 H   0  0
    6.9501    7.0178    0.0000 H   0  0
  1  2  1  0
  1  5  1  0
  1  6  1  0
  2  3  2  0
  3  4  1  0
  3  9  1  0
  4  5  1  0
  4 11  1  0
  5 12  2  0
  6  7  2  0
  6  8  1  0
  8 13  1  0
  9 10  1  0
 10 26  1  0
 13 14  2  0
 13 15  2  0
 13 16  1  0
 16 17  2  0
 16 18  1  0
 17 19  1  0
 17 22  1  0
 18 20  2  0
 19 21  2  0
 20 21  1  0
 22 23  2  0
 22 24  1  0
 24 25  1  0
 26 27  1  0
  8 28  1  0
 10 29  1  0
 10 30  1  0
 11 31  1  0
 11 32  1  0
 11 33  1  0
 18 34  1  0
 19 35  1  0
 20 36  1  0
 21 37  1  0
 25 38  1  0
 25 39  1  0
 25 40  1  0
 26 41  1  0
 26 42  1  0
 27 43  1  0
 27 44  1  0
 27 45  1  0
V    1 0
V    2 1
V    3 2
V    4 3
V    5 4
V    6 5
V    7 6
V    8 7
V    9 8
V   10 9
V   11 10
V   12 11
V   13 12
V   14 13
V   15 14
V   16 15
V   17 16
V   18 17
V   19 18
V   20 19
V   21 20
V   22 21
V   23 22
V   24 23
V   25 24
V   26 25
V   27 26
M  END
> <DSSTox_RID>
65469

> <DSSTox_CID>
14864

> <DSSTox_CID_Parent>
17704

> <DSSTox_Generic_SID>
34864

> <DSSTox_FileID>
751_TXCST2_v1a

> <STRUCTURE_Formula>
C15H17N4NaO7S

> <STRUCTURE_MolecularWeight>
420.3728

> <STRUCTURE_ChemicalType>
defined organic

> <STRUCTURE_TestedForm_DefinedOrganic>
salt Na

> <STRUCTURE_Shown>
tested chemical

> <TestSubstance_ChemicalName>
Propoxycarbazone-sodium

> <TestSubstance_CASRN>
181274-15-7

> <TestSubstance_Description>
single chemical compound

> <ChemicalNote>
parent [145026-81-9]

> <Source_ChemicalNote>
tested chemical contained 0.3% water (0.07 moles H2O)

> <STRUCTURE_ChemicalName_IUPAC>
sodium {[2-(methoxycarbonyl)phenyl]sulfonyl}[(4-methyl-5-oxo-3-propoxy-4,5-dihydro-1H-1,2,4-triazol-1-yl)carbonyl]azanide

> <STRUCTURE_SMILES>
O=C([N-]S(=O)(C2=C(C(OC)=O)C=CC=C2)=O)N1N=C(OCCC)N(C)C1=O.[Na+]

> <STRUCTURE_Parent_SMILES>
O=C(NS(=O)(C2=C(C(OC)=O)C=CC=C2)=O)N1N=C(OCCC)N(C)C1=O

> <STRUCTURE_InChIS>
InChI=1S/C15H18N4O7S.Na/c1-4-9-26-14-16-19(15(22)18(14)2)13(21)17-27(23,24)11-8-6-5-7-10(11)12(20)25-3;/h5-8H,4,9H2,1-3H3,(H,17,21);/q;+1/p-1

> <STRUCTURE_InChIKey>
JRQGDDUXDKCWRF-UHFFFAOYSA-M

> <Substance_modify_yyyymmdd>
20080429

> <Coord_Metals>
0

> <Index>
751

> <Canonical_Smiles>
CCCOC1=NN(C(=O)NS(=O)(=O)c2ccccc2C(=O)OC)C(=O)N1C

> <Molecular_Weight>
398.39102

> <Frequency>
1

$$$$

  SciTegic          2D

 39 40  0  0  0  0            999 V2000
    3.8933   -3.7570    0.0000 C   0  0
    4.9336   -3.1588    0.0000 O   0  0
    3.8912   -5.2578    0.0000 O   0  0
    2.5951   -3.0039    0.0000 C   0  0
    2.5973   -1.5031    0.0000 O   0  0
    1.2990   -0.7500    0.0000 C   0  0
    1.2990    0.7500    0.0000 C   0  0
    0.0000   -1.5000    0.0000 C   0  0
    0.0000    1.5000    0.0000 C   0  0
   -1.2990   -0.7500    0.0000 C   0  0
   -1.2990    0.7500    0.0000 C   0  0
    2.3383    1.3500    0.0000 Cl  0  0
   -2.7343   -2.9815    0.0000 N   0  0
   -4.2010   -3.2957    0.0000 N   0  0
   -3.9511   -0.8815    0.0000 C   0  0
   -4.9530   -1.9978    0.0000 C   0  0
   -2.5987   -1.5004    0.0000 C   0  0
   -4.1955    0.2933    0.0000 Cl  0  0
   -6.4430   -1.8405    0.0000 O   0  0
   -7.0536   -0.4695    0.0000 C   0  0
   -8.2470   -0.3435    0.0000 F   0  0
   -6.3481    0.5012    0.0000 F   0  0
   -4.8082   -4.6653    0.0000 C   0  0
   -2.3383    1.3500    0.0000 F   0  0
    5.1894   -6.0109    0.0000 C   0  0
    5.1873   -7.5117    0.0000 C   0  0
    1.7299   -2.5025    0.0000 H   0  0
    1.7282   -3.5024    0.0000 H   0  0
    0.0000   -2.5000    0.0000 H   0  0
    0.0000    2.5000    0.0000 H   0  0
   -7.4601    0.4442    0.0000 H   0  0
   -4.2196   -5.4738    0.0000 H   0  0
   -5.8026   -4.7711    0.0000 H   0  0
   -5.2139   -5.5793    0.0000 H   0  0
    5.1913   -5.0109    0.0000 H   0  0
    6.0563   -5.5124    0.0000 H   0  0
    6.0523   -8.0135    0.0000 H   0  0
    5.1854   -8.5117    0.0000 H   0  0
    4.3204   -8.0102    0.0000 H   0  0
  1  2  2  0
  1  3  1  0
  1  4  1  0
  3 25  1  0
  4  5  1  0
  5  6  1  0
  6  7  2  0
  6  8  1  0
  7  9  1  0
  7 12  1  0
  8 10  2  0
  9 11  2  0
 10 11  1  0
 10 17  1  0
 11 24  1  0
 13 14  1  0
 13 17  2  0
 14 16  1  0
 14 23  1  0
 15 16  2  0
 15 17  1  0
 15 18  1  0
 16 19  1  0
 19 20  1  0
 20 21  1  0
 20 22  1  0
 25 26  1  0
  4 27  1  0
  4 28  1  0
  8 29  1  0
  9 30  1  0
 20 31  1  0
 23 32  1  0
 23 33  1  0
 23 34  1  0
 25 35  1  0
 25 36  1  0
 26 37  1  0
 26 38  1  0
 26 39  1  0
V    1 0
V    2 1
V    3 2
V    4 3
V    5 4
V    6 5
V    7 6
V    8 7
V    9 8
V   10 9
V   11 10
V   12 11
V   13 12
V   14 13
V   15 14
V   16 15
V   17 16
V   18 17
V   19 18
V   20 19
V   21 20
V   22 21
V   23 22
V   24 23
V   25 24
V   26 25
M  END
> <DSSTox_RID>
65470

> <DSSTox_CID>
14871

> <DSSTox_CID_Parent>
14871

> <DSSTox_Generic_SID>
34871

> <DSSTox_FileID>
752_TXCST2_v1a

> <STRUCTURE_Formula>
C15H13Cl2F3N2O4

> <STRUCTURE_MolecularWeight>
413.1759

> <STRUCTURE_ChemicalType>
defined organic

> <STRUCTURE_TestedForm_DefinedOrganic>
parent

> <STRUCTURE_Shown>
tested chemical

> <TestSubstance_ChemicalName>
Pyraflufen-ethyl

> <TestSubstance_CASRN>
129630-19-9

> <TestSubstance_Description>
single chemical compound

> <STRUCTURE_ChemicalName_IUPAC>
ethyl {2-chloro-5-[4-chloro-5-(difluoromethoxy)-1-methyl-1H-pyrazol-3-yl]-4-fluorophenoxy}acetate

> <STRUCTURE_SMILES>
O=C(COC1=C(Cl)C=C(F)C(C2=NN(C)C(OC(F)F)=C2Cl)=C1)OCC

> <STRUCTURE_Parent_SMILES>
O=C(COC1=C(Cl)C=C(F)C(C2=NN(C)C(OC(F)F)=C2Cl)=C1)OCC

> <STRUCTURE_InChIS>
InChI=1S/C15H13Cl2F3N2O4/c1-3-24-11(23)6-25-10-4-7(9(18)5-8(10)16)13-12(17)14(22(2)21-13)26-15(19)20/h4-5,15H,3,6H2,1-2H3

> <STRUCTURE_InChIKey>
APTZNLHMIGJTEW-UHFFFAOYSA-N

> <Substance_modify_yyyymmdd>
20080429

> <Coord_Metals>
0

> <Index>
752

> <Canonical_Smiles>
CCOC(=O)COc1cc(c(F)cc1Cl)c2nn(C)c(OC(F)F)c2Cl

> <Molecular_Weight>
413.17592

> <Frequency>
1

$$$$

  SciTegic          2D

 23 24  0  0  0  0            999 V2000
    1.2990   -0.7500    0.0000 N   0  0
    1.2990    0.7500    0.0000 N   0  0
    0.0000    1.5000    0.0000 C   0  0
    0.0000   -1.5000    0.0000 C   0  0
   -1.2990    0.7500    0.0000 C   0  0
   -1.2990   -0.7500    0.0000 C   0  0
    0.0000    2.7000    0.0000 O   0  0
   -2.6003   -1.4978    0.0000 N   0  0
   -2.3383    1.3500    0.0000 Cl  0  0
    2.5987    1.5004    0.0000 C   0  0
    3.8991    0.7525    0.0000 C   0  0
    2.5964    3.0004    0.0000 C   0  0
    5.1969    1.5046    0.0000 C   0  0
    3.8943    3.7525    0.0000 C   0  0
    5.1945    3.0046    0.0000 C   0  0
    0.0000   -2.5000    0.0000 H   0  0
   -3.4657   -0.9965    0.0000 H   0  0
   -2.6021   -2.4978    0.0000 H   0  0
    3.9007   -0.2475    0.0000 H   0  0
    1.7296    3.4991    0.0000 H   0  0
    6.0637    1.0060    0.0000 H   0  0
    3.8927    4.7525    0.0000 H   0  0
    6.0597    3.5060    0.0000 H   0  0
  1  2  1  0
  1  4  2  0
  2  3  1  0
  2 10  1  0
  3  5  1  0
  3  7  2  0
  4  6  1  0
  5  6  2  0
  5  9  1  0
  6  8  1  0
 10 11  2  0
 10 12  1  0
 11 13  1  0
 12 14  2  0
 13 15  2  0
 14 15  1  0
  4 16  1  0
  8 17  1  0
  8 18  1  0
 11 19  1  0
 12 20  1  0
 13 21  1  0
 14 22  1  0
 15 23  1  0
V    1 0
V    2 1
V    3 2
V    4 3
V    5 4
V    6 5
V    7 6
V    8 7
V    9 8
V   10 9
V   11 10
V   12 11
V   13 12
V   14 13
V   15 14
M  END
> <DSSTox_RID>
62355

> <DSSTox_CID>
14872

> <DSSTox_CID_Parent>
14872

> <DSSTox_Generic_SID>
34872

> <DSSTox_FileID>
753_TXCST2_v1a

> <STRUCTURE_Formula>
C10H8ClN3O

> <STRUCTURE_MolecularWeight>
221.643

> <STRUCTURE_ChemicalType>
defined organic

> <STRUCTURE_TestedForm_DefinedOrganic>
parent

> <STRUCTURE_Shown>
tested chemical

> <TestSubstance_ChemicalName>
Chloridazon

> <TestSubstance_CASRN>
1698-60-8

> <TestSubstance_Description>
single chemical compound

> <Source_ChemicalNote>
tested chemical contained 0.16% water (0.02 moles H2O)

> <STRUCTURE_ChemicalName_IUPAC>
5-amino-4-chloro-2-phenylpyridazin-3(2H)-one

> <STRUCTURE_SMILES>
O=C1N(C2=CC=CC=C2)N=CC(N)=C1Cl

> <STRUCTURE_Parent_SMILES>
O=C1N(C2=CC=CC=C2)N=CC(N)=C1Cl

> <STRUCTURE_InChIS>
InChI=1S/C10H8ClN3O/c11-9-8(12)6-13-14(10(9)15)7-4-2-1-3-5-7/h1-6H,12H2

> <STRUCTURE_InChIKey>
WYKYKTKDBLFHCY-UHFFFAOYSA-N

> <Substance_modify_yyyymmdd>
20080429

> <Coord_Metals>
0

> <Index>
753

> <Canonical_Smiles>
NC1=C(Cl)C(=O)N(N=C1)c2ccccc2

> <Molecular_Weight>
221.64301

> <Frequency>
1

$$$$

  SciTegic          2D

 28 29  0  0  0  0            999 V2000
    1.2990   -0.7500    0.0000 N   0  0
    0.0000    1.5000    0.0000 N   0  0
    1.2990    0.7500    0.0000 C   0  0
   -1.2990   -0.7500    0.0000 C   0  0
    0.0000   -1.5000    0.0000 C   0  0
   -1.2990    0.7500    0.0000 C   0  0
    2.5972    1.5031    0.0000 N   0  0
   -2.5988    1.5004    0.0000 C   0  0
    0.0000   -3.0008    0.0000 C   0  0
    2.5951    3.0039    0.0000 C   0  0
    3.8915    3.7585    0.0000 C   0  0
    1.2934    3.7495    0.0000 C   0  0
    3.8863    5.2585    0.0000 C   0  0
    1.2883    5.2495    0.0000 C   0  0
    2.5847    6.0040    0.0000 C   0  0
   -2.1651   -1.2500    0.0000 H   0  0
    3.4641    1.0046    0.0000 H   0  0
   -2.5994    2.5004    0.0000 H   0  0
   -3.4647    1.0001    0.0000 H   0  0
   -3.4651    2.0000    0.0000 H   0  0
    0.8657   -3.5014    0.0000 H   0  0
   -0.8662   -3.5006    0.0000 H   0  0
   -0.0005   -4.0008    0.0000 H   0  0
    4.7593    3.2615    0.0000 H   0  0
    0.4291    3.2465    0.0000 H   0  0
    4.7506    5.7615    0.0000 H   0  0
    0.4205    5.7465    0.0000 H   0  0
    2.5812    7.0040    0.0000 H   0  0
  1  3  2  0
  1  5  1  0
  2  3  1  0
  2  6  2  0
  3  7  1  0
  4  5  2  0
  4  6  1  0
  5  9  1  0
  6  8  1  0
  7 10  1  0
 10 11  2  0
 10 12  1  0
 11 13  1  0
 12 14  2  0
 13 15  2  0
 14 15  1  0
  4 16  1  0
  7 17  1  0
  8 18  1  0
  8 19  1  0
  8 20  1  0
  9 21  1  0
  9 22  1  0
  9 23  1  0
 11 24  1  0
 12 25  1  0
 13 26  1  0
 14 27  1  0
 15 28  1  0
V    1 0
V    2 1
V    3 2
V    4 3
V    5 4
V    6 5
V    7 6
V    8 7
V    9 8
V   10 9
V   11 10
V   12 11
V   13 12
V   14 13
V   15 14
M  END
> <DSSTox_RID>
62316

> <DSSTox_CID>
14877

> <DSSTox_CID_Parent>
14877

> <DSSTox_Generic_SID>
34877

> <DSSTox_FileID>
754_TXCST2_v1a

> <STRUCTURE_Formula>
C12H13N3

> <STRUCTURE_MolecularWeight>
199.2517

> <STRUCTURE_ChemicalType>
defined organic

> <STRUCTURE_TestedForm_DefinedOrganic>
parent

> <STRUCTURE_Shown>
tested chemical

> <TestSubstance_ChemicalName>
Pyrimethanil

> <TestSubstance_CASRN>
53112-28-0

> <TestSubstance_Description>
single chemical compound

> <STRUCTURE_ChemicalName_IUPAC>
4,6-dimethyl-N-phenylpyrimidin-2-amine

> <STRUCTURE_SMILES>
CC1=NC(NC2=CC=CC=C2)=NC(C)=C1

> <STRUCTURE_Parent_SMILES>
CC1=NC(NC2=CC=CC=C2)=NC(C)=C1

> <STRUCTURE_InChIS>
InChI=1S/C12H13N3/c1-9-8-10(2)14-12(13-9)15-11-6-4-3-5-7-11/h3-8H,1-2H3,(H,13,14,15)

> <STRUCTURE_InChIKey>
ZLIBICFPKPWGIZ-UHFFFAOYSA-N

> <Substance_modify_yyyymmdd>
20080429

> <Coord_Metals>
0

> <Index>
754

> <Canonical_Smiles>
Cc1cc(C)nc(Nc2ccccc2)n1

> <Molecular_Weight>
199.25171

> <Frequency>
1

$$$$

  SciTegic          2D

 28 30  0  0  0  0            999 V2000
   -1.2964    1.4973    0.0000 C   0  0
    0.0000    0.7486    0.0000 C   0  0
   -1.2907    2.9981    0.0000 O   0  0
   -2.6111    0.7486    0.0000 C   0  0
    0.0000   -0.7486    0.0000 C   0  0
    1.2964    1.4973    0.0000 C   0  0
   -2.5870    3.7544    0.0000 C   0  0
   -2.6111   -0.7486    0.0000 C   0  0
    1.2964   -1.4973    0.0000 C   0  0
   -1.2964   -1.4973    0.0000 N   0  0
    2.5929    0.7486    0.0000 C   0  0
    1.2964    2.6973    0.0000 Cl  0  0
   -2.5835    5.2544    0.0000 C   0  0
   -3.8880    3.0076    0.0000 C   0  0
    2.5929   -0.7486    0.0000 C   0  0
   -3.8807    6.0076    0.0000 C   0  0
   -5.1852    3.7608    0.0000 C   0  0
    3.6321   -1.3486    0.0000 Cl  0  0
   -5.1815    5.2608    0.0000 C   0  0
   -6.2193    5.8633    0.0000 F   0  0
   -3.4756    1.2512    0.0000 H   0  0
   -3.4756   -1.2512    0.0000 H   0  0
    1.2964   -2.4973    0.0000 H   0  0
    3.4589    1.2486    0.0000 H   0  0
   -1.7162    5.7523    0.0000 H   0  0
   -3.8905    2.0076    0.0000 H   0  0
   -3.8782    7.0076    0.0000 H   0  0
   -6.0524    3.2629    0.0000 H   0  0
  1  2  1  0
  1  3  1  0
  1  4  2  0
  2  5  1  0
  2  6  2  0
  3  7  1  0
  4  8  1  0
  5  9  2  0
  5 10  1  0
  6 11  1  0
  6 12  1  0
  7 13  2  0
  7 14  1  0
  8 10  2  0
  9 15  1  0
 11 15  2  0
 13 16  1  0
 14 17  2  0
 15 18  1  0
 16 19  2  0
 17 19  1  0
 19 20  1  0
  4 21  1  0
  8 22  1  0
  9 23  1  0
 11 24  1  0
 13 25  1  0
 14 26  1  0
 16 27  1  0
 17 28  1  0
V    1 0
V    2 1
V    3 2
V    4 3
V    5 4
V    6 5
V    7 6
V    8 7
V    9 8
V   10 9
V   11 10
V   12 11
V   13 12
V   14 13
V   15 14
V   16 15
V   17 16
V   18 17
V   19 18
V   20 19
M  END
> <DSSTox_RID>
62376

> <DSSTox_CID>
14881

> <DSSTox_CID_Parent>
14881

> <DSSTox_Generic_SID>
34881

> <DSSTox_FileID>
755_TXCST2_v1a

> <STRUCTURE_Formula>
C15H8Cl2FNO

> <STRUCTURE_MolecularWeight>
308.1345

> <STRUCTURE_ChemicalType>
defined organic

> <STRUCTURE_TestedForm_DefinedOrganic>
parent

> <STRUCTURE_Shown>
tested chemical

> <TestSubstance_ChemicalName>
Quinoxyfen

> <TestSubstance_CASRN>
124495-18-7

> <TestSubstance_Description>
single chemical compound

> <STRUCTURE_ChemicalName_IUPAC>
5,7-dichloro-4-(4-fluorophenoxy)quinoline

> <STRUCTURE_SMILES>
ClC2=C1C(OC3=CC=C(F)C=C3)=CC=NC1=CC(Cl)=C2

> <STRUCTURE_Parent_SMILES>
ClC2=C1C(OC3=CC=C(F)C=C3)=CC=NC1=CC(Cl)=C2

> <STRUCTURE_InChIS>
InChI=1S/C15H8Cl2FNO/c16-9-7-12(17)15-13(8-9)19-6-5-14(15)20-11-3-1-10(18)2-4-11/h1-8H

> <STRUCTURE_InChIKey>
WRPIRSINYZBGPK-UHFFFAOYSA-N

> <Substance_modify_yyyymmdd>
20080429

> <Coord_Metals>
0

> <Index>
755

> <Canonical_Smiles>
Fc1ccc(Oc2ccnc3cc(Cl)cc(Cl)c23)cc1

> <Molecular_Weight>
308.13452

> <Frequency>
1

$$$$

  SciTegic          2D

 51 53  0  0  0  0            999 V2000
   -0.0893   -5.6402    0.0000 C   0  0
   -1.5757   -5.8417    0.0000 C   0  0
    0.4795   -4.2522    0.0000 C   0  0
   -2.4934   -4.6551    0.0000 C   0  0
   -0.4357   -3.0705    0.0000 C   0  0
   -1.9246   -3.2671    0.0000 C   0  0
    0.6453    1.6369    0.0000 C   0  0
    1.4168    0.3387    0.0000 C   0  0
    1.3688    2.9514    0.0000 C   0  0
    2.8965    0.3658    0.0000 C   0  0
    2.9156    2.9767    0.0000 C   0  0
    3.6567    1.7000    0.0000 C   0  0
    1.4332   -1.1562    0.0000 C   0  0
   -0.0089    0.7755    0.0000 O   0  0
   -0.8586   -0.4270    0.0000 C   0  0
    0.0186   -1.6401    0.0000 C   0  0
   -2.0586   -0.4335    0.0000 O   0  0
    2.6551   -2.0234    0.0000 O   0  0
    4.0197   -1.3987    0.0000 C   0  0
    4.1135   -0.4031    0.0000 O   0  0
    5.2436   -2.2673    0.0000 C   0  0
    0.6449   -6.5894    0.0000 Cl  0  0
   -3.6825   -4.8163    0.0000 Cl  0  0
    5.3842   -0.7438    0.0000 C   0  0
    6.6082   -1.6425    0.0000 C   0  0
    5.1028   -3.7614    0.0000 C   0  0
    7.8321   -2.5111    0.0000 C   0  0
   -1.9548   -6.7670    0.0000 H   0  0
    1.4704   -4.1176    0.0000 H   0  0
   -2.5351   -2.4751    0.0000 H   0  0
    1.6445    1.6774    0.0000 H   0  0
    0.1517    2.5065    0.0000 H   0  0
    1.8731    3.8149    0.0000 H   0  0
    0.3696    2.9097    0.0000 H   0  0
    2.3860   -0.4941    0.0000 H   0  0
    3.8959    0.4018    0.0000 H   0  0
    3.9155    2.9630    0.0000 H   0  0
    2.3880    3.8262    0.0000 H   0  0
    2.6571    1.6722    0.0000 H   0  0
    4.1396    0.8243    0.0000 H   0  0
    4.5682   -0.1658    0.0000 H   0  0
    5.4766    0.2519    0.0000 H   0  0
    6.2927   -0.3258    0.0000 H   0  0
    6.7020   -0.6469    0.0000 H   0  0
    6.5143   -2.6381    0.0000 H   0  0
    5.9178   -4.3409    0.0000 H   0  0
    4.1936   -4.1777    0.0000 H   0  0
    5.0086   -4.7569    0.0000 H   0  0
    8.7413   -2.0948    0.0000 H   0  0
    7.7383   -3.5067    0.0000 H   0  0
    8.6473   -3.0903    0.0000 H   0  0
  1  2  1  0
  1  3  2  0
  1 22  1  0
  2  4  2  0
  3  5  1  0
  4  6  1  0
  4 23  1  0
  5  6  2  0
  5 16  1  0
  7  8  1  0
  7  9  1  0
  8 10  1  0
  8 13  1  0
  8 14  1  0
  9 11  1  0
 10 12  1  0
 11 12  1  0
 13 16  2  0
 13 18  1  0
 14 15  1  0
 15 16  1  0
 15 17  2  0
 18 19  1  0
 19 20  2  0
 19 21  1  0
 21 24  1  0
 21 25  1  0
 21 26  1  0
 25 27  1  0
  2 28  1  0
  3 29  1  0
  6 30  1  0
  7 31  1  0
  7 32  1  0
  9 33  1  0
  9 34  1  0
 10 35  1  0
 10 36  1  0
 11 37  1  0
 11 38  1  0
 12 39  1  0
 12 40  1  0
 24 41  1  0
 24 42  1  0
 24 43  1  0
 25 44  1  0
 25 45  1  0
 26 46  1  0
 26 47  1  0
 26 48  1  0
 27 49  1  0
 27 50  1  0
 27 51  1  0
V    1 0
V    2 1
V    3 2
V    4 3
V    5 4
V    6 5
V    7 6
V    8 7
V    9 8
V   10 9
V   11 10
V   12 11
V   13 12
V   14 13
V   15 14
V   16 15
V   17 16
V   18 17
V   19 18
V   20 19
V   21 20
V   22 21
V   23 22
V   24 23
V   25 24
V   26 25
V   27 26
M  END
> <DSSTox_RID>
66473

> <DSSTox_CID>
14928

> <DSSTox_CID_Parent>
14928

> <DSSTox_Generic_SID>
34928

> <DSSTox_FileID>
756_TXCST2_v1a

> <STRUCTURE_Formula>
C21H24Cl2O4

> <STRUCTURE_MolecularWeight>
411.3189

> <STRUCTURE_ChemicalType>
defined organic

> <STRUCTURE_TestedForm_DefinedOrganic>
parent

> <STRUCTURE_Shown>
tested chemical

> <TestSubstance_ChemicalName>
Spirodiclofen

> <TestSubstance_CASRN>
148477-71-8

> <TestSubstance_Description>
single chemical compound

> <STRUCTURE_ChemicalName_IUPAC>
3-(3,5-dichlorophenyl)-2-oxo-1-oxaspiro[4.5]dec-3-en-4-yl 2,2-dimethylbutanoate

> <STRUCTURE_SMILES>
O=C2OC1(C(OC(C(CC)(C)C)=O)=C2C3=CC(Cl)=CC(Cl)=C3)CCCCC1

> <STRUCTURE_Parent_SMILES>
O=C2OC1(C(OC(C(CC)(C)C)=O)=C2C3=CC(Cl)=CC(Cl)=C3)CCCCC1

> <STRUCTURE_InChIS>
InChI=1S/C21H24Cl2O4/c1-4-20(2,3)19(25)26-17-16(13-10-14(22)12-15(23)11-13)18(24)27-21(17)8-6-5-7-9-21/h10-12H,4-9H2,1-3H3

> <STRUCTURE_InChIKey>
OYNVHVAEOLJJPV-UHFFFAOYSA-N

> <Substance_modify_yyyymmdd>
20080429

> <Coord_Metals>
0

> <Index>
756

> <Canonical_Smiles>
CCC(C)(C)C(=O)OC1=C(C(=O)OC12CCCCC2)c3cc(Cl)cc(Cl)c3

> <Molecular_Weight>
411.31886

> <Frequency>
1

$$$$

  SciTegic          2D

 34 34  0  0  0  0            999 V2000
    1.6307   -2.2444    0.0000 P   0  0
    1.1422   -3.3405    0.0000 O   0  0
    2.0498   -3.7158    0.0000 O   0  0
    3.1234   -2.0885    0.0000 S   0  0
    0.7500   -1.0323    0.0000 N   0  0
    1.2135    0.3943    0.0000 C   0  0
   -0.7500   -1.0323    0.0000 C   0  0
    0.0000    1.2760    0.0000 S   0  0
   -1.2135    0.3943    0.0000 C   0  0
    2.3548    0.7651    0.0000 O   0  0
    1.0060   -4.7942    0.0000 C   0  0
    1.4172   -6.2377    0.0000 C   0  0
    4.0055   -3.3026    0.0000 C   0  0
    5.4982   -3.1467    0.0000 C   0  0
    6.3804   -4.3609    0.0000 C   0  0
    3.3947   -4.6735    0.0000 C   0  0
   -1.7428   -0.9129    0.0000 H   0  0
   -0.3297   -1.9397    0.0000 H   0  0
   -1.9466   -0.2859    0.0000 H   0  0
   -1.4069    1.3754    0.0000 H   0  0
    0.7316   -3.8326    0.0000 H   0  0
    0.0361   -4.5509    0.0000 H   0  0
    0.7217   -6.9562    0.0000 H   0  0
    1.6916   -7.1993    0.0000 H   0  0
    2.3871   -6.4810    0.0000 H   0  0
    4.4125   -2.3892    0.0000 H   0  0
    4.9108   -2.3374    0.0000 H   0  0
    5.9052   -2.2333    0.0000 H   0  0
    7.3750   -4.2570    0.0000 H   0  0
    6.9678   -5.1702    0.0000 H   0  0
    5.9734   -5.2743    0.0000 H   0  0
    3.9817   -5.4830    0.0000 H   0  0
    2.9872   -5.5867    0.0000 H   0  0
    2.4001   -4.7774    0.0000 H   0  0
  1  2  2  0
  1  3  1  0
  1  4  1  0
  1  5  1  0
  3 11  1  0
  4 13  1  0
  5  6  1  0
  5  7  1  0
  6  8  1  0
  6 10  2  0
  7  9  1  0
  8  9  1  0
 11 12  1  0
 13 14  1  0
 13 16  1  0
 14 15  1  0
  7 17  1  0
  7 18  1  0
  9 19  1  0
  9 20  1  0
 11 21  1  0
 11 22  1  0
 12 23  1  0
 12 24  1  0
 12 25  1  0
 13 26  1  0
 14 27  1  0
 14 28  1  0
 15 29  1  0
 15 30  1  0
 15 31  1  0
 16 32  1  0
 16 33  1  0
 16 34  1  0
V    1 0
V    2 1
V    3 2
V    4 3
V    5 4
V    6 5
V    7 6
V    8 7
V    9 8
V   10 9
V   11 10
V   12 11
V   13 12
V   14 13
V   15 14
V   16 15
M  END
> <DSSTox_RID>
65267

> <DSSTox_CID>
14930

> <DSSTox_CID_Parent>
14930

> <DSSTox_Generic_SID>
34930

> <DSSTox_FileID>
757_TXCST2_v1a

> <STRUCTURE_Formula>
C9H18NO3PS2

> <STRUCTURE_MolecularWeight>
283.3479

> <STRUCTURE_ChemicalType>
defined organic

> <STRUCTURE_TestedForm_DefinedOrganic>
parent

> <STRUCTURE_Shown>
tested chemical

> <TestSubstance_ChemicalName>
Fosthiazate

> <TestSubstance_CASRN>
98886-44-3

> <TestSubstance_Description>
single chemical compound

> <ChemicalNote>
mixture of (R,S) isomers; structure shown without stereochem

> <STRUCTURE_ChemicalName_IUPAC>
S-sec-butyl O-ethyl (2-oxo-1,3-thiazolidin-3-yl)phosphonothioate

> <STRUCTURE_SMILES>
O=P(SC(C)CC)(N(CCS1)C1=O)OCC

> <STRUCTURE_Parent_SMILES>
O=P(SC(C)CC)(N(CCS1)C1=O)OCC

> <STRUCTURE_InChIS>
InChI=1S/C9H18NO3PS2/c1-4-8(3)16-14(12,13-5-2)10-6-7-15-9(10)11/h8H,4-7H2,1-3H3

> <STRUCTURE_InChIKey>
DUFVKSUJRWYZQP-UHFFFAOYSA-N

> <Substance_modify_yyyymmdd>
20080429

> <Coord_Metals>
0

> <Index>
757

> <Canonical_Smiles>
CCOP(=O)(SC(C)CC)N1CCSC1=O

> <Molecular_Weight>
283.34788

> <Frequency>
1

$$$$

  SciTegic          2D

 54 55  0  0  0  0            999 V2000
    2.0528   -0.5215    0.0000 C   0  0
    0.8717   -0.3096    0.0000 O   0  0
    2.5615   -1.9335    0.0000 C   0  0
    3.8565   -2.6905    0.0000 C   0  0
    1.2584   -2.6765    0.0000 C   0  0
    3.8484   -4.1905    0.0000 C   0  0
    1.2504   -4.1765    0.0000 C   0  0
    2.5453   -4.9335    0.0000 C   0  0
    5.1441   -4.9479    0.0000 C   0  0
   -0.0534   -4.9199    0.0000 C   0  0
    3.0206    0.6256    0.0000 N   0  0
    4.3189   -0.1275    0.0000 N   0  0
    3.0242    2.1263    0.0000 C   0  0
    1.7270    2.8813    0.0000 C   0  0
    4.3270    2.8716    0.0000 C   0  0
    1.6974    1.3646    0.0000 C   0  0
    5.6206    0.6194    0.0000 C   0  0
    5.6235    1.8194    0.0000 O   0  0
    6.9188   -0.1337    0.0000 C   0  0
    7.8878    1.0114    0.0000 C   0  0
    7.4262   -1.5453    0.0000 C   0  0
    9.3639    0.7449    0.0000 C   0  0
    8.9023   -1.8118    0.0000 C   0  0
    9.8712   -0.6667    0.0000 C   0  0
   11.3481   -0.9334    0.0000 C   0  0
   12.3183    0.2118    0.0000 C   0  0
    4.7252   -2.1952    0.0000 H   0  0
    0.3951   -2.1719    0.0000 H   0  0
    2.5400   -5.9335    0.0000 H   0  0
    6.0131   -4.4531    0.0000 H   0  0
    5.1384   -5.9479    0.0000 H   0  0
    6.0072   -5.4530    0.0000 H   0  0
   -0.9171   -4.4158    0.0000 H   0  0
   -0.0585   -5.9199    0.0000 H   0  0
   -0.9219   -5.4157    0.0000 H   0  0
    4.3165   -1.1275    0.0000 H   0  0
    0.8590    2.3848    0.0000 H   0  0
    0.8629    3.3847    0.0000 H   0  0
    1.7308    3.8813    0.0000 H   0  0
    5.1913    2.3686    0.0000 H   0  0
    5.1948    3.3685    0.0000 H   0  0
    4.3307    3.8716    0.0000 H   0  0
    1.6944    0.3646    0.0000 H   0  0
    0.8299    0.8670    0.0000 H   0  0
    0.8327    1.8669    0.0000 H   0  0
    7.5496    1.9525    0.0000 H   0  0
    6.7803   -2.3087    0.0000 H   0  0
   10.0098    1.5083    0.0000 H   0  0
    9.2405   -2.7529    0.0000 H   0  0
   11.6860   -1.8746    0.0000 H   0  0
   10.7021   -1.6967    0.0000 H   0  0
   13.3023    0.0341    0.0000 H   0  0
   11.9804    1.1530    0.0000 H   0  0
   12.9643    0.9751    0.0000 H   0  0
  1  2  2  0
  1  3  1  0
  1 11  1  0
  3  4  2  0
  3  5  1  0
  4  6  1  0
  5  7  2  0
  6  8  2  0
  6  9  1  0
  7  8  1  0
  7 10  1  0
 11 12  1  0
 11 13  1  0
 12 17  1  0
 13 14  1  0
 13 15  1  0
 13 16  1  0
 17 18  2  0
 17 19  1  0
 19 20  2  0
 19 21  1  0
 20 22  1  0
 21 23  2  0
 22 24  2  0
 23 24  1  0
 24 25  1  0
 25 26  1  0
  4 27  1  0
  5 28  1  0
  8 29  1  0
  9 30  1  0
  9 31  1  0
  9 32  1  0
 10 33  1  0
 10 34  1  0
 10 35  1  0
 12 36  1  0
 14 37  1  0
 14 38  1  0
 14 39  1  0
 15 40  1  0
 15 41  1  0
 15 42  1  0
 16 43  1  0
 16 44  1  0
 16 45  1  0
 20 46  1  0
 21 47  1  0
 22 48  1  0
 23 49  1  0
 25 50  1  0
 25 51  1  0
 26 52  1  0
 26 53  1  0
 26 54  1  0
V    1 0
V    2 1
V    3 2
V    4 3
V    5 4
V    6 5
V    7 6
V    8 7
V    9 8
V   10 9
V   11 10
V   12 11
V   13 12
V   14 13
V   15 14
V   16 15
V   17 16
V   18 17
V   19 18
V   20 19
V   21 20
V   22 21
V   23 22
V   24 23
V   25 24
V   26 25
M  END
> <DSSTox_RID>
65326

> <DSSTox_CID>
14948

> <DSSTox_CID_Parent>
14948

> <DSSTox_Generic_SID>
34948

> <DSSTox_FileID>
758_TXCST2_v1a

> <STRUCTURE_Formula>
C22H28N2O2

> <STRUCTURE_MolecularWeight>
352.4699

> <STRUCTURE_ChemicalType>
defined organic

> <STRUCTURE_TestedForm_DefinedOrganic>
parent

> <STRUCTURE_Shown>
tested chemical

> <TestSubstance_ChemicalName>
Tebufenozide

> <TestSubstance_CASRN>
112410-23-8

> <TestSubstance_Description>
single chemical compound

> <STRUCTURE_ChemicalName_IUPAC>
N-tert-butyl-N'-(4-ethylbenzoyl)-3,5-dimethylbenzohydrazide

> <STRUCTURE_SMILES>
O=C(N(C(C)(C)C)NC(C2=CC=C(CC)C=C2)=O)C1=CC(C)=CC(C)=C1

> <STRUCTURE_Parent_SMILES>
O=C(N(C(C)(C)C)NC(C2=CC=C(CC)C=C2)=O)C1=CC(C)=CC(C)=C1

> <STRUCTURE_InChIS>
InChI=1S/C22H28N2O2/c1-7-17-8-10-18(11-9-17)20(25)23-24(22(4,5)6)21(26)19-13-15(2)12-16(3)14-19/h8-14H,7H2,1-6H3,(H,23,25)

> <STRUCTURE_InChIKey>
QYPNKSZPJQQLRK-UHFFFAOYSA-N

> <Substance_modify_yyyymmdd>
20080429

> <Coord_Metals>
0

> <Index>
758

> <Canonical_Smiles>
CCc1ccc(cc1)C(=O)NN(C(=O)c2cc(C)cc(C)c2)C(C)(C)C

> <Molecular_Weight>
352.46992

> <Frequency>
1

$$$$

  SciTegic          2D

 34 35  0  0  0  0            999 V2000
    5.1988   -1.5011    0.0000 N   0  0
    5.3367   -2.9819    0.0000 N   0  0
    6.8039   -3.2937    0.0000 C   0  0
    7.5538   -1.9946    0.0000 N   0  0
    6.5501   -0.8799    0.0000 C   0  0
    3.8990   -0.7507    0.0000 C   0  0
    2.5989   -1.5004    0.0000 C   0  0
    2.5954   -3.0013    0.0000 C   0  0
    1.2990   -0.7500    0.0000 C   0  0
    1.2990    0.7500    0.0000 C   0  0
    0.0000   -1.5000    0.0000 C   0  0
    0.0000    1.5000    0.0000 C   0  0
   -1.2990   -0.7500    0.0000 C   0  0
   -1.2990    0.7500    0.0000 C   0  0
    2.3383    1.3500    0.0000 Cl  0  0
   -2.3383    1.3500    0.0000 Cl  0  0
    1.2944   -3.7495    0.0000 O   0  0
    1.2909   -5.2503    0.0000 C   0  0
   -0.0101   -5.9986    0.0000 C   0  0
    2.3315   -4.6526    0.0000 F   0  0
    2.3290   -5.8524    0.0000 F   0  0
   -0.0128   -7.1986    0.0000 F   0  0
   -1.0506   -6.5963    0.0000 F   0  0
    7.2107   -4.2072    0.0000 H   0  0
    6.7521    0.0995    0.0000 H   0  0
    3.8993    0.2493    0.0000 H   0  0
    4.7651   -0.2508    0.0000 H   0  0
    1.7323   -1.9994    0.0000 H   0  0
    2.5936   -4.0013    0.0000 H   0  0
    3.4604   -3.5030    0.0000 H   0  0
    0.0000   -2.5000    0.0000 H   0  0
    0.0000    2.5000    0.0000 H   0  0
   -2.1651   -1.2500    0.0000 H   0  0
   -0.8751   -5.4968    0.0000 H   0  0
  1  2  1  0
  1  5  1  0
  1  6  1  0
  2  3  2  0
  3  4  1  0
  4  5  2  0
  6  7  1  0
  7  8  1  0
  7  9  1  0
  8 17  1  0
  9 10  2  0
  9 11  1  0
 10 12  1  0
 10 15  1  0
 11 13  2  0
 12 14  2  0
 13 14  1  0
 14 16  1  0
 17 18  1  0
 18 19  1  0
 18 20  1  0
 18 21  1  0
 19 22  1  0
 19 23  1  0
  3 24  1  0
  5 25  1  0
  6 26  1  0
  6 27  1  0
  7 28  1  0
  8 29  1  0
  8 30  1  0
 11 31  1  0
 12 32  1  0
 13 33  1  0
 19 34  1  0
V    1 0
V    2 1
V    3 2
V    4 3
V    5 4
V    6 5
V    7 6
V    8 7
V    9 8
V   10 9
V   11 10
V   12 11
V   13 12
V   14 13
V   15 14
V   16 15
V   17 16
V   18 17
V   19 18
V   20 19
V   21 20
V   22 21
V   23 22
M  END
> <DSSTox_RID>
62323

> <DSSTox_CID>
14956

> <DSSTox_CID_Parent>
14956

> <DSSTox_Generic_SID>
34956

> <DSSTox_FileID>
759_TXCST2_v1a

> <STRUCTURE_Formula>
C13H11Cl2F4N3O

> <STRUCTURE_MolecularWeight>
372.1456

> <STRUCTURE_ChemicalType>
defined organic

> <STRUCTURE_TestedForm_DefinedOrganic>
parent

> <STRUCTURE_Shown>
tested chemical

> <TestSubstance_ChemicalName>
Tetraconazole

> <TestSubstance_CASRN>
112281-77-3

> <TestSubstance_Description>
single chemical compound

> <ChemicalNote>
mixture of (R,S) isomers; structure shown without stereochem

> <STRUCTURE_ChemicalName_IUPAC>
1-[2-(2,4-dichlorophenyl)-3-(1,1,2,2-tetrafluoroethoxy)propyl]-1H-1,2,4-triazole

> <STRUCTURE_SMILES>
ClC2=C(C=CC(Cl)=C2)C(COC(F)(F)C(F)F)CN1N=CN=C1

> <STRUCTURE_Parent_SMILES>
ClC2=C(C=CC(Cl)=C2)C(COC(F)(F)C(F)F)CN1N=CN=C1

> <STRUCTURE_InChIS>
InChI=1S/C13H11Cl2F4N3O/c14-9-1-2-10(11(15)3-9)8(4-22-7-20-6-21-22)5-23-13(18,19)12(16)17/h1-3,6-8,12H,4-5H2

> <STRUCTURE_InChIKey>
LQDARGUHUSPFNL-UHFFFAOYSA-N

> <Substance_modify_yyyymmdd>
20080429

> <Coord_Metals>
0

> <Index>
759

> <Canonical_Smiles>
FC(F)C(F)(F)OCC(Cn1cncn1)c2ccc(Cl)cc2Cl

> <Molecular_Weight>
372.14555

> <Frequency>
1

$$$$

  SciTegic          2D

 25 26  0  0  0  0            999 V2000
    6.2543   -0.2587    0.0000 S   0  0
    5.2499   -1.3728    0.0000 C   0  0
    3.8990   -0.7508    0.0000 N   0  0
    4.0377    0.7299    0.0000 C   0  0
    5.5052    1.0408    0.0000 C   0  0
    5.5523   -2.8401    0.0000 N   0  0
    2.5988   -1.5004    0.0000 C   0  0
    1.2990   -0.7500    0.0000 C   0  0
    1.2990    0.7500    0.0000 C   0  0
    0.0000   -1.5000    0.0000 C   0  0
    0.0000    1.5000    0.0000 N   0  0
   -1.2990   -0.7500    0.0000 C   0  0
   -1.2990    0.7500    0.0000 C   0  0
   -2.3383    1.3500    0.0000 Cl  0  0
    6.9764   -3.3138    0.0000 C   0  0
    8.1150   -3.6925    0.0000 N   0  0
    4.2546    1.7061    0.0000 H   0  0
    3.0930    0.4022    0.0000 H   0  0
    4.9058    1.8413    0.0000 H   0  0
    6.5012    1.1300    0.0000 H   0  0
    2.5985   -2.5004    0.0000 H   0  0
    3.4646   -2.0008    0.0000 H   0  0
    2.1651    1.2500    0.0000 H   0  0
    0.0000   -2.5000    0.0000 H   0  0
   -2.1651   -1.2500    0.0000 H   0  0
  1  2  1  0
  1  5  1  0
  2  3  1  0
  2  6  2  0
  3  4  1  0
  3  7  1  0
  4  5  1  0
  6 15  1  0
  7  8  1  0
  8  9  1  0
  8 10  2  0
  9 11  2  0
 10 12  1  0
 11 13  1  0
 12 13  2  0
 13 14  1  0
 15 16  3  0
  4 17  1  0
  4 18  1  0
  5 19  1  0
  5 20  1  0
  7 21  1  0
  7 22  1  0
  9 23  1  0
 10 24  1  0
 12 25  1  0
V    1 0
V    2 1
V    3 2
V    4 3
V    5 4
V    6 5
V    7 6
V    8 7
V    9 8
V   10 9
V   11 10
V   12 11
V   13 12
V   14 13
V   15 14
V   16 15
M  END
> <DSSTox_RID>
62350

> <DSSTox_CID>
14961

> <DSSTox_CID_Parent>
14961

> <DSSTox_Generic_SID>
34961

> <DSSTox_FileID>
760_TXCST2_v1a

> <STRUCTURE_Formula>
C10H9ClN4S

> <STRUCTURE_MolecularWeight>
252.7233

> <STRUCTURE_ChemicalType>
defined organic

> <STRUCTURE_TestedForm_DefinedOrganic>
parent

> <STRUCTURE_Shown>
tested chemical

> <TestSubstance_ChemicalName>
Thiacloprid

> <TestSubstance_CASRN>
111988-49-9

> <TestSubstance_Description>
single chemical compound

> <STRUCTURE_ChemicalName_IUPAC>
{(2Z)-3-[(6-chloropyridin-3-yl)methyl]-1,3-thiazolidin-2-ylidene}cyanamide

> <STRUCTURE_SMILES>
ClC2=CC=C(C=N2)CN1/C(SCC1)=N/C#N

> <STRUCTURE_Parent_SMILES>
ClC2=CC=C(C=N2)CN1/C(SCC1)=N/C#N

> <STRUCTURE_InChIS>
InChI=1S/C10H9ClN4S/c11-9-2-1-8(5-13-9)6-15-3-4-16-10(15)14-7-12/h1-2,5H,3-4,6H2/b14-10-

> <STRUCTURE_InChIKey>
HOKKPVIRMVDYPB-UVTDQMKNSA-N

> <Substance_modify_yyyymmdd>
20080429

> <Coord_Metals>
0

> <Index>
760

> <Canonical_Smiles>
Clc1ccc(CN2CCSC2=NC#N)cn1

> <Molecular_Weight>
252.72325

> <Frequency>
1

$$$$

  SciTegic          2D

 28 29  0  0  0  0            999 V2000
    1.2990   -0.7500    0.0000 O   0  0
    1.2990    0.7500    0.0000 C   0  0
    0.0000    1.5000    0.0000 N   0  0
   -1.2990    0.7500    0.0000 C   0  0
   -1.2990   -0.7500    0.0000 N   0  0
    0.0000   -1.5000    0.0000 C   0  0
   -2.6003    1.4977    0.0000 N   0  0
    0.0000    3.0008    0.0000 C   0  0
    2.9031    5.5458    0.0000 N   0  0
    2.6510    3.1319    0.0000 S   0  0
    3.6539    4.2472    0.0000 C   0  0
    1.4361    5.2330    0.0000 C   0  0
    1.2993    3.7521    0.0000 C   0  0
    4.8475    4.1225    0.0000 Cl  0  0
   -2.5988   -1.5004    0.0000 C   0  0
   -3.8990    0.7455    0.0000 N   0  0
   -4.9395    1.3433    0.0000 O   0  0
   -3.8969   -0.4545    0.0000 O   0  0
    1.2754    1.7497    0.0000 H   0  0
    2.1531    0.2298    0.0000 H   0  0
   -0.8776   -1.9794    0.0000 H   0  0
    0.8775   -1.9795    0.0000 H   0  0
   -0.8662    3.5005    0.0000 H   0  0
   -0.8660    2.5007    0.0000 H   0  0
    0.6885    5.8972    0.0000 H   0  0
   -3.4651   -1.0010    0.0000 H   0  0
   -2.5985   -2.5004    0.0000 H   0  0
   -3.4646   -2.0008    0.0000 H   0  0
  1  2  1  0
  1  6  1  0
  2  3  1  0
  3  4  1  0
  3  8  1  0
  4  5  1  0
  4  7  2  0
  5  6  1  0
  5 15  1  0
  7 16  1  0
  8 13  1  0
  9 11  2  0
  9 12  1  0
 10 11  1  0
 10 13  1  0
 11 14  1  0
 12 13  2  0
 16 17  2  0
 16 18  2  0
  2 19  1  0
  2 20  1  0
  6 21  1  0
  6 22  1  0
  8 23  1  0
  8 24  1  0
 12 25  1  0
 15 26  1  0
 15 27  1  0
 15 28  1  0
V    1 0
V    2 1
V    3 2
V    4 3
V    5 4
V    6 5
V    7 6
V    8 7
V    9 8
V   10 9
V   11 10
V   12 11
V   13 12
V   14 13
V   15 14
V   16 15
V   17 16
V   18 17
M  END
> <DSSTox_RID>
60383

> <DSSTox_CID>
14962

> <DSSTox_CID_Parent>
14962

> <DSSTox_Generic_SID>
34962

> <DSSTox_FileID>
761_TXCST2_v1a

> <STRUCTURE_Formula>
C8H10ClN5O3S

> <STRUCTURE_MolecularWeight>
291.7147

> <STRUCTURE_ChemicalType>
defined organic

> <STRUCTURE_TestedForm_DefinedOrganic>
parent

> <STRUCTURE_Shown>
tested chemical

> <TestSubstance_ChemicalName>
Thiamethoxam

> <TestSubstance_CASRN>
153719-23-4

> <TestSubstance_Description>
single chemical compound

> <STRUCTURE_ChemicalName_IUPAC>
(4Z)-3-[(2-chloro-1,3-thiazol-5-yl)methyl]-5-methyl-N-nitro-1,3,5-oxadiazinan-4-imine

> <STRUCTURE_SMILES>
ClC(S2)=NC=C2CN1COCN(C)/C1=N/[N+]([O-])=O

> <STRUCTURE_Parent_SMILES>
ClC(S2)=NC=C2CN1COCN(C)/C1=N/[N+]([O-])=O

> <STRUCTURE_InChIS>
InChI=1S/C8H10ClN5O3S/c1-12-4-17-5-13(8(12)11-14(15)16)3-6-2-10-7(9)18-6/h2H,3-5H2,1H3/b11-8-

> <STRUCTURE_InChIKey>
NWWZPOKUUAIXIW-FLIBITNWSA-N

> <Substance_modify_yyyymmdd>
20080429

> <Coord_Metals>
0

> <Index>
761

> <Canonical_Smiles>
CN1COCN(Cc2cnc(Cl)s2)C1=NN(=O)=O

> <Molecular_Weight>
291.7147

> <Frequency>
1

$$$$

  SciTegic          2D

 25 25  0  0  0  0            999 V2000
    1.2990   -0.7500    0.0000 C   0  0
    1.2990    0.7500    0.0000 C   0  0
    0.0000    1.5000    0.0000 C   0  0
    0.0000   -1.5000    0.0000 C   0  0
    2.5988    1.5004    0.0000 C   0  0
    2.5973   -1.5031    0.0000 O   0  0
   -1.2990    0.7500    0.0000 C   0  0
   -1.2990   -0.7500    0.0000 C   0  0
    3.8990    0.7508    0.0000 C   0  0
    2.5983    3.0012    0.0000 C   0  0
   -2.5988   -1.5004    0.0000 C   0  0
    0.0000    2.5000    0.0000 H   0  0
    0.0000   -2.5000    0.0000 H   0  0
    2.5991    0.5004    0.0000 H   0  0
    2.5958   -2.5031    0.0000 H   0  0
   -2.1651    1.2500    0.0000 H   0  0
    4.7650    1.2509    0.0000 H   0  0
    3.8993   -0.2492    0.0000 H   0  0
    4.7651    0.2510    0.0000 H   0  0
    3.4638    3.5020    0.0000 H   0  0
    1.7320    3.5006    0.0000 H   0  0
    2.5975    4.0012    0.0000 H   0  0
   -2.5994   -2.5004    0.0000 H   0  0
   -3.4647   -1.0002    0.0000 H   0  0
   -3.4650   -2.0000    0.0000 H   0  0
  1  2  1  0
  1  4  2  0
  1  6  1  0
  2  3  2  0
  2  5  1  0
  3  7  1  0
  4  8  1  0
  5  9  1  0
  5 10  1  0
  7  8  2  0
  8 11  1  0
  3 12  1  0
  4 13  1  0
  5 14  1  0
  6 15  1  0
  7 16  1  0
  9 17  1  0
  9 18  1  0
  9 19  1  0
 10 20  1  0
 10 21  1  0
 10 22  1  0
 11 23  1  0
 11 24  1  0
 11 25  1  0
V    1 0
V    2 1
V    3 2
V    4 3
V    5 4
V    6 5
V    7 6
V    8 7
V    9 8
V   10 9
V   11 10
M  END
> <DSSTox_RID>
65288

> <DSSTox_CID>
14972

> <DSSTox_CID_Parent>
14972

> <DSSTox_Generic_SID>
34972

> <DSSTox_FileID>
762_TXCST2_v1a

> <STRUCTURE_Formula>
C10H14O

> <STRUCTURE_MolecularWeight>
150.2176

> <STRUCTURE_ChemicalType>
defined organic

> <STRUCTURE_TestedForm_DefinedOrganic>
parent

> <STRUCTURE_Shown>
tested chemical

> <TestSubstance_ChemicalName>
Thymol

> <TestSubstance_CASRN>
89-83-8

> <TestSubstance_Description>
single chemical compound

> <STRUCTURE_ChemicalName_IUPAC>
thymol

> <STRUCTURE_SMILES>
OC1=CC(C)=CC=C1C(C)C

> <STRUCTURE_Parent_SMILES>
OC1=CC(C)=CC=C1C(C)C

> <STRUCTURE_InChIS>
InChI=1S/C10H14O/c1-7(2)9-5-4-8(3)6-10(9)11/h4-7,11H,1-3H3

> <STRUCTURE_InChIKey>
MGSRCZKZVOBKFT-UHFFFAOYSA-N

> <Substance_modify_yyyymmdd>
20080429

> <Coord_Metals>
0

> <Index>
762

> <Canonical_Smiles>
CC(C)c1ccc(C)cc1O

> <Molecular_Weight>
150.21755

> <Frequency>
1

$$$$

  SciTegic          2D

 51 52  0  0  0  0            999 V2000
    1.2990   -0.7500    0.0000 C   0  0
    1.2990    0.7500    0.0000 C   0  0
    0.0000   -1.5000    0.0000 C   0  0
   -1.2990    0.7500    0.0000 C   0  0
   -2.7625    0.9726    0.0000 C   0  0
   -3.6993   -0.1990    0.0000 C   0  0
   -3.3087    2.3696    0.0000 C   0  0
    0.0000    1.5000    0.0000 C   0  0
   -1.2990   -0.7500    0.0000 C   0  0
    2.2614   -1.9017    0.0000 C   0  0
   -5.1822    0.0266    0.0000 C   0  0
   -4.7916    2.5951    0.0000 C   0  0
    0.0000   -2.7000    0.0000 O   0  0
    1.7461   -3.3113    0.0000 N   0  0
   -5.7284    1.4236    0.0000 C   0  0
    2.6003    1.4978    0.0000 O   0  0
    2.7084   -4.4629    0.0000 O   0  0
   -3.1528   -1.5968    0.0000 C   0  0
   -2.3714    3.5417    0.0000 C   0  0
    3.7404   -1.6467    0.0000 C   0  0
   -7.2122    1.6493    0.0000 C   0  0
    2.1931   -5.8725    0.0000 C   0  0
    4.7015   -2.7994    0.0000 C   0  0
    3.1554   -7.0242    0.0000 C   0  0
   -1.2756    1.7497    0.0000 H   0  0
    0.0236    0.5003    0.0000 H   0  0
    0.8775    1.9795    0.0000 H   0  0
   -2.1530   -0.2297    0.0000 H   0  0
   -1.2755   -1.7497    0.0000 H   0  0
   -5.8068   -0.7544    0.0000 H   0  0
   -5.1557    3.5265    0.0000 H   0  0
    3.4656    0.9965    0.0000 H   0  0
   -2.1643   -1.7477    0.0000 H   0  0
   -3.7776   -2.3776    0.0000 H   0  0
   -2.7892   -2.5283    0.0000 H   0  0
   -1.3826    3.3920    0.0000 H   0  0
   -2.7358    4.4730    0.0000 H   0  0
   -1.7472    4.3230    0.0000 H   0  0
    3.1004   -0.8783    0.0000 H   0  0
    4.0857   -0.7082    0.0000 H   0  0
   -7.8372    0.8686    0.0000 H   0  0
   -7.5760    2.5807    0.0000 H   0  0
   -8.2007    1.8001    0.0000 H   0  0
    1.5515   -5.1055    0.0000 H   0  0
    1.2080   -6.0445    0.0000 H   0  0
    5.6869   -2.6295    0.0000 H   0  0
    5.3415   -3.5678    0.0000 H   0  0
    4.3562   -3.7379    0.0000 H   0  0
    2.8121   -7.9634    0.0000 H   0  0
    3.7970   -7.7913    0.0000 H   0  0
    4.1406   -6.8523    0.0000 H   0  0
  1  2  2  0
  1  3  1  0
  1 10  1  0
  2  8  1  0
  2 16  1  0
  3  9  1  0
  3 13  2  0
  4  9  1  0
  4  5  1  0
  4  8  1  0
  5  6  2  0
  5  7  1  0
  6 11  1  0
  6 18  1  0
  7 12  2  0
  7 19  1  0
 10 14  2  0
 10 20  1  0
 11 15  2  0
 12 15  1  0
 14 17  1  0
 15 21  1  0
 17 22  1  0
 20 23  1  0
 22 24  1  0
  4 25  1  0
  8 26  1  0
  8 27  1  0
  9 28  1  0
  9 29  1  0
 11 30  1  0
 12 31  1  0
 16 32  1  0
 18 33  1  0
 18 34  1  0
 18 35  1  0
 19 36  1  0
 19 37  1  0
 19 38  1  0
 20 39  1  0
 20 40  1  0
 21 41  1  0
 21 42  1  0
 21 43  1  0
 22 44  1  0
 22 45  1  0
 23 46  1  0
 23 47  1  0
 23 48  1  0
 24 49  1  0
 24 50  1  0
 24 51  1  0
V    1 0
V    2 1
V    3 2
V    4 3
V    5 4
V    6 5
V    7 6
V    8 7
V    9 8
V   10 9
V   11 10
V   12 11
V   13 12
V   14 13
V   15 14
V   16 15
V   17 16
V   18 17
V   19 18
V   20 19
V   21 20
V   22 21
V   23 22
V   24 23
M  END
> <DSSTox_RID>
59480

> <DSSTox_CID>
14973

> <DSSTox_CID_Parent>
14973

> <DSSTox_Generic_SID>
34973

> <DSSTox_FileID>
763_TXCST2_v1a

> <STRUCTURE_Formula>
C20H27NO3

> <STRUCTURE_MolecularWeight>
329.4333

> <STRUCTURE_ChemicalType>
defined organic

> <STRUCTURE_TestedForm_DefinedOrganic>
parent

> <STRUCTURE_Shown>
tested chemical

> <TestSubstance_ChemicalName>
Tralkoxidim

> <TestSubstance_CASRN>
87820-88-0

> <TestSubstance_Description>
single chemical compound

> <Source_ChemicalNote>
tested chemical contained 0.0721% water (0.01 moles H2O)

> <STRUCTURE_ChemicalName_IUPAC>
2-(N-ethoxypropanimidoyl)-3-hydroxy-5-mesitylcyclohex-2-en-1-one

> <STRUCTURE_SMILES>
O=C1C(C(CC)=NOCC)=C(O)CC(C2=C(C)C=C(C)C=C2C)C1

> <STRUCTURE_Parent_SMILES>
O=C1C(C(CC)=NOCC)=C(O)CC(C2=C(C)C=C(C)C=C2C)C1

> <STRUCTURE_InChIS>
InChI=1S/C20H27NO3/c1-6-16(21-24-7-2)20-17(22)10-15(11-18(20)23)19-13(4)8-12(3)9-14(19)5/h8-9,15,22H,6-7,10-11H2,1-5H3

> <STRUCTURE_InChIKey>
DQFPEYARZIQXRM-UHFFFAOYSA-N

> <Substance_modify_yyyymmdd>
20080429

> <Coord_Metals>
0

> <Index>
763

> <Canonical_Smiles>
CCON=C(CC)C1=C(O)CC(CC1=O)c2c(C)cc(C)cc2C

> <Molecular_Weight>
329.43328

> <Frequency>
1

$$$$

  SciTegic          2D

 33 32  0  0  0  0            999 V2000
   14.2999    0.7500    0.0000 C   0  0
   12.9999    0.0000    0.0000 C   0  0
   11.6999    0.7500    0.0000 C   0  0
   10.3999    0.0000    0.0000 C   0  0
    9.0999    0.7500    0.0000 C   0  0
    7.7999    0.0000    0.0000 C   0  0
    6.5000    0.7500    0.0000 C   0  0
    5.2000    0.0000    0.0000 C   0  0
    3.9000    0.7500    0.0000 C   0  0
    2.6000    0.0000    0.0000 C   0  0
    1.3000    0.7500    0.0000 C   0  0
   14.2999    1.9500    0.0000 O   0  0
   15.5999    0.0000    0.0000 O   0  0
   13.8658   -0.5001    0.0000 H   0  0
   12.9999   -1.0000    0.0000 H   0  0
   10.8340    1.2501    0.0000 H   0  0
   11.6999    1.7500    0.0000 H   0  0
    9.5340   -0.5001    0.0000 H   0  0
   10.3999   -1.0000    0.0000 H   0  0
    8.2340    1.2501    0.0000 H   0  0
    9.0999    1.7500    0.0000 H   0  0
    6.9340   -0.5001    0.0000 H   0  0
    7.7999   -1.0000    0.0000 H   0  0
    5.6340    1.2501    0.0000 H   0  0
    6.5000    1.7500    0.0000 H   0  0
    4.3340   -0.5001    0.0000 H   0  0
    5.2000   -1.0000    0.0000 H   0  0
    3.0340    1.2501    0.0000 H   0  0
    3.9000    1.7500    0.0000 H   0  0
    2.6000   -1.0000    0.0000 H   0  0
    0.4338    0.2503    0.0000 H   0  0
    1.3000    1.7500    0.0000 H   0  0
   16.4661    0.4997    0.0000 H   0  0
  1  2  1  0
  1 13  1  0
  1 12  2  0
  2  3  1  0
  3  4  1  0
  4  5  1  0
  5  6  1  0
  6  7  1  0
  7  8  1  0
  8  9  1  0
  9 10  1  0
 10 11  2  0
  2 14  1  0
  2 15  1  0
  3 16  1  0
  3 17  1  0
  4 18  1  0
  4 19  1  0
  5 20  1  0
  5 21  1  0
  6 22  1  0
  6 23  1  0
  7 24  1  0
  7 25  1  0
  8 26  1  0
  8 27  1  0
  9 28  1  0
  9 29  1  0
 10 30  1  0
 11 31  1  0
 11 32  1  0
 13 33  1  0
V    1 0
V    2 1
V    3 2
V    4 3
V    5 4
V    6 5
V    7 6
V    8 7
V    9 8
V   10 9
V   11 10
V   12 11
V   13 12
M  END
> <DSSTox_RID>
59426

> <DSSTox_CID>
15001

> <DSSTox_CID_Parent>
15001

> <DSSTox_Generic_SID>
35001

> <DSSTox_FileID>
764_TXCST2_v1a

> <STRUCTURE_Formula>
C11H20O2

> <STRUCTURE_MolecularWeight>
184.2753

> <STRUCTURE_ChemicalType>
defined organic

> <STRUCTURE_TestedForm_DefinedOrganic>
parent

> <STRUCTURE_Shown>
tested chemical

> <TestSubstance_ChemicalName>
10-Undecenoic acid

> <TestSubstance_CASRN>
112-38-9

> <TestSubstance_Description>
single chemical compound

> <STRUCTURE_ChemicalName_IUPAC>
undec-10-enoic acid

> <STRUCTURE_SMILES>
O=C(O)CCCCCCCCC=C

> <STRUCTURE_Parent_SMILES>
O=C(O)CCCCCCCCC=C

> <STRUCTURE_InChIS>
InChI=1S/C11H20O2/c1-2-3-4-5-6-7-8-9-10-11(12)13/h2H,1,3-10H2,(H,12,13)

> <STRUCTURE_InChIKey>
FRPZMMHWLSIFAZ-UHFFFAOYSA-N

> <Substance_modify_yyyymmdd>
20080429

> <Coord_Metals>
0

> <Index>
764

> <Canonical_Smiles>
OC(=O)CCCCCCCCC=C

> <Molecular_Weight>
184.27529

> <Frequency>
1

$$$$

  SciTegic          2D

 21 21  0  0  0  0            999 V2000
    0.7500   -1.0323    0.0000 N   0  0
    1.2135    0.3943    0.0000 C   0  0
    0.0000    1.2760    0.0000 N   0  0
   -1.2135    0.3943    0.0000 C   0  0
   -0.7500   -1.0323    0.0000 C   0  0
    2.3548    0.7651    0.0000 O   0  0
    1.6307   -2.2444    0.0000 C   0  0
   -2.3548    0.7651    0.0000 O   0  0
   -2.2267   -0.8532    0.0000 C   0  0
   -0.1234   -2.3817    0.0000 C   0  0
    3.1234   -2.0885    0.0000 O   0  0
    0.0000    2.2760    0.0000 H   0  0
    1.2236   -3.1578    0.0000 H   0  0
    2.2181   -3.0537    0.0000 H   0  0
   -2.6338    0.0602    0.0000 H   0  0
   -3.2212   -0.7489    0.0000 H   0  0
   -2.8144   -1.6622    0.0000 H   0  0
   -0.7106   -3.1912    0.0000 H   0  0
    0.2839   -3.2951    0.0000 H   0  0
    0.8712   -2.4859    0.0000 H   0  0
    3.7111   -2.8975    0.0000 H   0  0
  1  2  1  0
  1  5  1  0
  1  7  1  0
  2  3  1  0
  2  6  2  0
  3  4  1  0
  4  5  1  0
  4  8  2  0
  5  9  1  0
  5 10  1  0
  7 11  1  0
  3 12  1  0
  7 13  1  0
  7 14  1  0
  9 15  1  0
  9 16  1  0
  9 17  1  0
 10 18  1  0
 10 19  1  0
 10 20  1  0
 11 21  1  0
V    1 0
V    2 1
V    3 2
V    4 3
V    5 4
V    6 5
V    7 6
V    8 7
V    9 8
V   10 9
V   11 10
M  END
> <DSSTox_RID>
65475

> <DSSTox_CID>
15152

> <DSSTox_CID_Parent>
15152

> <DSSTox_Generic_SID>
35152

> <DSSTox_FileID>
765_TXCST2_v1a

> <STRUCTURE_Formula>
C6H10N2O3

> <STRUCTURE_MolecularWeight>
158.1552

> <STRUCTURE_ChemicalType>
defined organic

> <STRUCTURE_TestedForm_DefinedOrganic>
parent

> <STRUCTURE_Shown>
tested chemical

> <TestSubstance_ChemicalName>
1-(Hydroxymethyl)-5,5-dimethylhydantoin

> <TestSubstance_CASRN>
116-25-6

> <TestSubstance_Description>
single chemical compound

> <STRUCTURE_ChemicalName_IUPAC>
1-(hydroxymethyl)-5,5-dimethylimidazolidine-2,4-dione

> <STRUCTURE_SMILES>
O=C(N1)N(CO)C(C)(C)C1=O

> <STRUCTURE_Parent_SMILES>
O=C(N1)N(CO)C(C)(C)C1=O

> <STRUCTURE_InChIS>
InChI=1S/C6H10N2O3/c1-6(2)4(10)7-5(11)8(6)3-9/h9H,3H2,1-2H3,(H,7,10,11)

> <STRUCTURE_InChIKey>
SIQZJFKTROUNPI-UHFFFAOYSA-N

> <Substance_modify_yyyymmdd>
20080429

> <Coord_Metals>
0

> <Index>
765

> <Canonical_Smiles>
CC1(C)N(CO)C(=O)NC1=O

> <Molecular_Weight>
158.15519

> <Frequency>
1

$$$$

  SciTegic          2D

 48 49  0  0  0  0            999 V2000
    3.2665    2.9557    0.0000 C   0  0
    4.0576    4.2301    0.0000 C   0  0
    2.6715    4.2078    0.0000 C   0  0
    1.2025    4.5152    0.0000 C   0  0
   -0.6480    8.6946    0.0000 C   0  0
    0.1985    7.4563    0.0000 C   0  0
   -0.7176    6.2685    0.0000 C   0  0
   -2.0873    8.2721    0.0000 C   0  0
    0.7334    5.9408    0.0000 O   0  0
    5.5451    4.4985    0.0000 C   0  0
   -2.1303    6.7727    0.0000 C   0  0
    0.4026    3.6207    0.0000 O   0  0
   -3.0375    9.0050    0.0000 O   0  0
    6.0365    5.9166    0.0000 C   0  0
    1.9254    2.2584    0.0000 C   0  0
    4.5214    2.1124    0.0000 C   0  0
   -1.1156   11.2499    0.0000 C   0  0
   -0.6111   12.6634    0.0000 C   0  0
   -0.1444   10.1056    0.0000 C   0  0
    1.6961    7.4133    0.0000 C   0  0
    7.5101    6.2010    0.0000 C   0  0
    5.0514    7.0489    0.0000 C   0  0
    4.0776    5.2299    0.0000 H   0  0
    2.7036    5.2073    0.0000 H   0  0
   -1.4191    5.5559    0.0000 H   0  0
    6.2000    3.7427    0.0000 H   0  0
   -2.0394    5.7769    0.0000 H   0  0
   -3.0253    7.2188    0.0000 H   0  0
    1.0885    2.8057    0.0000 H   0  0
    1.0328    1.8074    0.0000 H   0  0
    1.8695    1.2599    0.0000 H   0  0
    4.4661    1.1139    0.0000 H   0  0
    5.3583    1.5651    0.0000 H   0  0
    5.4139    2.5634    0.0000 H   0  0
   -2.0993   11.0704    0.0000 H   0  0
   -1.2581   13.4258    0.0000 H   0  0
    0.3727   12.8429    0.0000 H   0  0
    0.8394   10.2851    0.0000 H   0  0
    0.1922   11.0473    0.0000 H   0  0
    2.2213    8.2643    0.0000 H   0  0
    2.1708    6.5332    0.0000 H   0  0
    2.6957    7.3842    0.0000 H   0  0
    7.8376    7.1459    0.0000 H   0  0
    8.4921    6.3901    0.0000 H   0  0
    8.1650    5.4453    0.0000 H   0  0
    4.0697    6.8583    0.0000 H   0  0
    4.3954    7.8036    0.0000 H   0  0
    5.3769    7.9944    0.0000 H   0  0
  1  2  1  0
  1  3  1  0
  1 15  1  0
  1 16  1  0
  2 10  1  0
  2  3  1  0
  3  4  1  0
  4  9  1  0
  4 12  2  0
  5  6  2  0
  5 19  1  0
  5  8  1  0
  6  7  1  0
  6 20  1  0
  7  9  1  0
  7 11  1  0
  8 11  1  0
  8 13  2  0
 10 14  2  0
 14 21  1  0
 14 22  1  0
 17 19  1  0
 17 18  2  0
  2 23  1  0
  3 24  1  0
  7 25  1  0
 10 26  1  0
 11 27  1  0
 11 28  1  0
 15 29  1  0
 15 30  1  0
 15 31  1  0
 16 32  1  0
 16 33  1  0
 16 34  1  0
 17 35  1  0
 18 36  1  0
 18 37  1  0
 19 38  1  0
 19 39  1  0
 20 40  1  0
 20 41  1  0
 20 42  1  0
 21 43  1  0
 21 44  1  0
 21 45  1  0
 22 46  1  0
 22 47  1  0
 22 48  1  0
V    1 0
V    2 1
V    3 2
V    4 3
V    5 4
V    6 5
V    7 6
V    8 7
V    9 8
V   10 9
V   11 10
V   12 11
V   13 12
V   14 13
V   15 14
V   16 15
V   17 16
V   18 17
V   19 18
V   20 19
V   21 20
V   22 21
M  END
> <DSSTox_RID>
61843
62406

> <DSSTox_CID>
15180
19336

> <DSSTox_CID_Parent>
15180
19336

> <DSSTox_Generic_SID>
35180
39336

> <DSSTox_FileID>
766_TXCST2_v1a
789_TXCST2_v1a

> <STRUCTURE_Formula>
C19H26O3
C19H26O3

> <STRUCTURE_MolecularWeight>
302.4079
302.4079

> <STRUCTURE_ChemicalType>
defined organic
defined organic

> <STRUCTURE_TestedForm_DefinedOrganic>
parent
parent

> <STRUCTURE_Shown>
tested chemical
tested chemical

> <TestSubstance_ChemicalName>
Allethrin
S-Bioallethrin

> <TestSubstance_CASRN>
584-79-2
28434-00-6

> <TestSubstance_Description>
single chemical compound
single chemical compound

> <ChemicalNote>
mixture of stereoisomers (1RS,3RS;1RS,3SR); structure shown without stereochem; tautomers
stereochem

> <STRUCTURE_ChemicalName_IUPAC>
3-allyl-2-methyl-4-oxocyclopent-2-en-1-yl 2,2-dimethyl-3-(2-methylprop-1-en-1-yl)cyclopropanecarboxylate
(1S)-2-methyl-4-oxo-3-prop-2-en-1-ylcyclopent-2-en-1-yl (1R,3R)-2,2-dimethyl-3-(2-methylprop-1-en-1-yl)cyclopropanecarboxylate

> <STRUCTURE_SMILES>
O=C(OC(C2)C(C)=C(C2=O)CC=C)C1C(C)(C)C1\C=C(C)/C
O=[C@](O[C@@H](C2)C(C)=C(C2=O)CC=C)[C@H]1C(C)(C)[C@@H]1/C=C(C)/C

> <STRUCTURE_Parent_SMILES>
O=C(OC(C2)C(C)=C(C2=O)CC=C)C1C(C)(C)C1\C=C(C)/C
O=[C@](O[C@@H](C2)C(C)=C(C2=O)CC=C)[C@H]1C(C)(C)[C@@H]1/C=C(C)/C

> <STRUCTURE_InChIS>
InChI=1S/C19H26O3/c1-7-8-13-12(4)16(10-15(13)20)22-18(21)17-14(9-11(2)3)19(17,5)6/h7,9,14,16-17H,1,8,10H2,2-6H3
InChI=1S/C19H26O3/c1-7-8-13-12(4)16(10-15(13)20)22-18(21)17-14(9-11(2)3)19(17,5)6/h7,9,14,16-17H,1,8,10H2,2-6H3/t14-,16+,17+/m1/s1

> <STRUCTURE_InChIKey>
ZCVAOQKBXKSDMS-UHFFFAOYSA-N
ZCVAOQKBXKSDMS-PVAVHDDUSA-N

> <Substance_modify_yyyymmdd>
20080429
20080429

> <Coord_Metals>
0
0

> <Index>
766
789

> <Canonical_Smiles>
CC(=CC1C(C(=O)OC2CC(=O)C(=C2C)CC=C)C1(C)C)C

> <Molecular_Weight>
302.40794
302.40794

> <Frequency>
2

$$$$

  SciTegic          2D

 51 50  0  0  0  0            999 V2000
    6.5000    0.7500    0.0000 Sn  0  0
    5.2000    0.0000    0.0000 O   0  0
    7.7999    0.0000    0.0000 C   0  0
    6.5000    2.2507    0.0000 C   0  0
    6.4971   -0.7800    0.0000 C   0  0
    3.9000    0.7500    0.0000 C   0  0
    9.0999    0.7500    0.0000 C   0  0
    7.7992    3.0020    0.0000 C   0  0
    7.4590   -1.9320    0.0000 C   0  0
    2.6000    0.0000    0.0000 C   0  0
    3.9000    1.9500    0.0000 O   0  0
   10.5780    0.4899    0.0000 C   0  0
    7.7992    4.5028    0.0000 C   0  0
    8.9378   -1.6760    0.0000 C   0  0
    1.3000    0.7500    0.0000 C   0  0
    2.6031   -1.5008    0.0000 C   0  0
   11.5431    1.6392    0.0000 C   0  0
    9.0985    5.2540    0.0000 C   0  0
    9.8997   -2.8280    0.0000 C   0  0
    7.7999   -1.0000    0.0000 H   0  0
    6.9340   -0.5001    0.0000 H   0  0
    5.6338    2.7505    0.0000 H   0  0
    6.4995    3.2507    0.0000 H   0  0
    5.6300   -1.2781    0.0000 H   0  0
    5.6321   -0.2782    0.0000 H   0  0
    9.0999    1.7500    0.0000 H   0  0
    8.2340    1.2501    0.0000 H   0  0
    8.6654    2.5023    0.0000 H   0  0
    7.7997    2.0020    0.0000 H   0  0
    7.1144   -2.8708    0.0000 H   0  0
    6.4737   -2.1031    0.0000 H   0  0
   10.9201   -0.4498    0.0000 H   0  0
    9.9354   -0.2763    0.0000 H   0  0
    6.9330    5.0025    0.0000 H   0  0
    6.9333    4.0027    0.0000 H   0  0
    9.2824   -0.7372    0.0000 H   0  0
    8.2973   -0.9081    0.0000 H   0  0
    0.4338    0.2503    0.0000 H   0  0
    1.3000    1.7500    0.0000 H   0  0
    0.4340    1.2501    0.0000 H   0  0
    3.4698   -1.9996    0.0000 H   0  0
    1.7379   -2.0023    0.0000 H   0  0
   12.5280    1.4659    0.0000 H   0  0
   11.2011    2.5789    0.0000 H   0  0
   12.1858    2.4054    0.0000 H   0  0
    9.0985    6.2540    0.0000 H   0  0
    9.9647    4.7543    0.0000 H   0  0
    9.9644    5.7542    0.0000 H   0  0
   10.8850   -2.6574    0.0000 H   0  0
    9.5551   -3.7668    0.0000 H   0  0
   10.5402   -3.5960    0.0000 H   0  0
  1  2  1  0
  1  3  1  0
  1  4  1  0
  1  5  1  0
  2  6  1  0
  3  7  1  0
  4  8  1  0
  5  9  1  0
  6 10  1  0
  6 11  2  0
  7 12  1  0
  8 13  1  0
  9 14  1  0
 10 15  1  0
 10 16  2  0
 12 17  1  0
 13 18  1  0
 14 19  1  0
  3 20  1  0
  3 21  1  0
  4 22  1  0
  4 23  1  0
  5 24  1  0
  5 25  1  0
  7 26  1  0
  7 27  1  0
  8 28  1  0
  8 29  1  0
  9 30  1  0
  9 31  1  0
 12 32  1  0
 12 33  1  0
 13 34  1  0
 13 35  1  0
 14 36  1  0
 14 37  1  0
 15 38  1  0
 15 39  1  0
 15 40  1  0
 16 41  1  0
 16 42  1  0
 17 43  1  0
 17 44  1  0
 17 45  1  0
 18 46  1  0
 18 47  1  0
 18 48  1  0
 19 49  1  0
 19 50  1  0
 19 51  1  0
V    1 0
V    2 1
V    3 2
V    4 3
V    5 4
V    6 5
V    7 6
V    8 7
V    9 8
V   10 9
V   11 10
V   12 11
V   13 12
V   14 13
V   15 14
V   16 15
V   17 16
V   18 17
V   19 18
M  END
> <DSSTox_RID>
59459

> <DSSTox_CID>
15204

> <DSSTox_CID_Parent>
15204

> <DSSTox_Generic_SID>
35204

> <DSSTox_FileID>
767_TXCST2_v1a

> <STRUCTURE_Formula>
C16H32O2Sn

> <STRUCTURE_MolecularWeight>
375.1341

> <STRUCTURE_ChemicalType>
organometallic

> <STRUCTURE_Shown>
tested chemical

> <TestSubstance_ChemicalName>
Stannane, tributyl(2-methyl-1-oxo-2-propenyl)oxy-

> <TestSubstance_CASRN>
2155-70-6

> <TestSubstance_Description>
single chemical compound

> <STRUCTURE_ChemicalName_IUPAC>
tributyl(methacryloyloxy)stannane

> <STRUCTURE_SMILES>
O=C(C(C)=C)O[Sn](CCCC)(CCCC)CCCC

> <STRUCTURE_InChIS>
InChI=1S/C4H6O2.3C4H9.Sn/c1-3(2)4(5)6;3*1-3-4-2;/h1H2,2H3,(H,5,6);3*1,3-4H2,2H3;/q;;;;+1/p-1

> <STRUCTURE_InChIKey>
LPUCKLOWOWADAC-UHFFFAOYSA-M

> <Substance_modify_yyyymmdd>
20080429

> <Coord_Metals>
1

> <Index>
767

> <Canonical_Smiles>
CCCC[Sn](CCCC)(CCCC)OC(=O)C(=C)C

> <Molecular_Weight>
375.13408

> <Frequency>
1

$$$$

  SciTegic          2D

 17 17  0  0  0  0            999 V2000
    0.7500   -1.0323    0.0000 N   0  0
    1.2135    0.3943    0.0000 C   0  0
   -0.7500   -1.0323    0.0000 C   0  0
    0.0000    1.2760    0.0000 N   0  0
    2.3548    0.7651    0.0000 O   0  0
   -1.4553   -2.0031    0.0000 O   0  0
   -1.2135    0.3943    0.0000 C   0  0
    0.0000    2.4760    0.0000 Br  0  0
    1.4553   -2.0031    0.0000 Br  0  0
   -1.4995    1.8540    0.0000 C   0  0
   -2.3033   -0.6187    0.0000 C   0  0
   -0.7566    2.5235    0.0000 H   0  0
   -1.7076    2.8321    0.0000 H   0  0
   -2.4506    2.1630    0.0000 H   0  0
   -3.2546   -0.3104    0.0000 H   0  0
   -3.0461   -1.2882    0.0000 H   0  0
   -2.0950   -1.5967    0.0000 H   0  0
  1  2  1  0
  1  3  1  0
  1  9  1  0
  2  4  1  0
  2  5  2  0
  3  6  2  0
  3  7  1  0
  4  7  1  0
  4  8  1  0
  7 10  1  0
  7 11  1  0
 10 12  1  0
 10 13  1  0
 10 14  1  0
 11 15  1  0
 11 16  1  0
 11 17  1  0
V    1 0
V    2 1
V    3 2
V    4 3
V    5 4
V    6 5
V    7 6
V    8 7
V    9 8
V   10 9
V   11 10
M  END
> <DSSTox_RID>
62330

> <DSSTox_CID>
15341

> <DSSTox_CID_Parent>
15341

> <DSSTox_Generic_SID>
35341

> <DSSTox_FileID>
768_TXCST2_v1a

> <STRUCTURE_Formula>
C5H6Br2N2O2

> <STRUCTURE_MolecularWeight>
285.9213

> <STRUCTURE_ChemicalType>
defined organic

> <STRUCTURE_TestedForm_DefinedOrganic>
parent

> <STRUCTURE_Shown>
tested chemical

> <TestSubstance_ChemicalName>
1,3-Dibromo-5,5-dimethylhydantoin

> <TestSubstance_CASRN>
77-48-5

> <TestSubstance_Description>
single chemical compound

> <STRUCTURE_ChemicalName_IUPAC>
1,3-dibromo-5,5-dimethylimidazolidine-2,4-dione

> <STRUCTURE_SMILES>
O=C(N(Br)C(C)1C)N(Br)C1=O

> <STRUCTURE_Parent_SMILES>
O=C(N(Br)C(C)1C)N(Br)C1=O

> <STRUCTURE_InChIS>
InChI=1S/C5H6Br2N2O2/c1-5(2)3(10)8(6)4(11)9(5)7/h1-2H3

> <STRUCTURE_InChIKey>
VRLDVERQJMEPIF-UHFFFAOYSA-N

> <Substance_modify_yyyymmdd>
20080429

> <Coord_Metals>
0

> <Index>
768

> <Canonical_Smiles>
CC1(C)N(Br)C(=O)N(Br)C1=O

> <Molecular_Weight>
285.92134

> <Frequency>
1

$$$$

  SciTegic          2D

 47 49  0  0  0  0            999 V2000
    3.2338    4.7720    0.0000 C   0  0
    3.9831    6.0714    0.0000 C   0  0
    2.5985    6.0041    0.0000 C   0  0
    1.1203    6.2638    0.0000 C   0  0
    5.4612    6.3879    0.0000 C   0  0
    0.6052    7.6735    0.0000 O   0  0
   -0.9402   11.9020    0.0000 C   0  0
    5.9064    7.8211    0.0000 C   0  0
   -2.6070    5.8626    0.0000 N   0  0
   -1.3881    9.3428    0.0000 C   0  0
   -0.4254   10.4931    0.0000 C   0  0
   -0.8730    7.9331    0.0000 C   0  0
   -1.8365    6.7826    0.0000 C   0  0
    0.0207   13.0549    0.0000 O   0  0
    0.3499    5.3438    0.0000 O   0  0
   -2.4177   12.1606    0.0000 C   0  0
   -2.8656    9.6014    0.0000 C   0  0
   -3.3804   11.0103    0.0000 C   0  0
    1.9160    4.0316    0.0000 C   0  0
    4.5153    3.9698    0.0000 C   0  0
    7.0766    8.0866    0.0000 Cl  0  0
    5.0916    8.7021    0.0000 Cl  0  0
   -0.4964   14.4638    0.0000 C   0  0
   -2.8296   13.2877    0.0000 F   0  0
    0.4623   15.6175    0.0000 C   0  0
   -1.9749   14.7174    0.0000 C   0  0
   -2.4946   16.1245    0.0000 C   0  0
   -0.0574   17.0246    0.0000 C   0  0
   -1.5359   17.2781    0.0000 C   0  0
    3.9708    7.0713    0.0000 H   0  0
    2.5982    7.0041    0.0000 H   0  0
    6.1402    5.6537    0.0000 H   0  0
    0.5597   10.3207    0.0000 H   0  0
   -0.5302    6.9937    0.0000 H   0  0
   -3.5074    8.8345    0.0000 H   0  0
   -4.3655   11.1827    0.0000 H   0  0
    1.0618    4.5515    0.0000 H   0  0
    1.0385    3.5519    0.0000 H   0  0
    1.8924    3.0318    0.0000 H   0  0
    4.4924    2.9700    0.0000 H   0  0
    5.3696    3.4499    0.0000 H   0  0
    5.3927    4.4495    0.0000 H   0  0
    1.4479   15.4486    0.0000 H   0  0
   -2.6141   13.9483    0.0000 H   0  0
   -3.4802   16.2935    0.0000 H   0  0
    0.5817   17.7937    0.0000 H   0  0
   -1.8823   18.2161    0.0000 H   0  0
  1  2  1  0
  1  3  1  0
  1 19  1  0
  1 20  1  0
  2  5  1  0
  2  3  1  0
  3  4  1  0
  4  6  1  0
  4 15  2  0
  5  8  2  0
  6 12  1  0
  7 11  2  0
  7 14  1  0
  7 16  1  0
  8 21  1  0
  8 22  1  0
  9 13  3  0
 10 12  1  0
 10 11  1  0
 10 17  2  0
 12 13  1  0
 14 23  1  0
 16 18  2  0
 16 24  1  0
 17 18  1  0
 23 25  1  0
 23 26  2  0
 25 28  2  0
 26 27  1  0
 27 29  2  0
 28 29  1  0
  2 30  1  0
  3 31  1  0
  5 32  1  0
 11 33  1  0
 12 34  1  0
 17 35  1  0
 18 36  1  0
 19 37  1  0
 19 38  1  0
 19 39  1  0
 20 40  1  0
 20 41  1  0
 20 42  1  0
 25 43  1  0
 26 44  1  0
 27 45  1  0
 28 46  1  0
 29 47  1  0
V    1 0
V    2 1
V    3 2
V    4 3
V    5 4
V    6 5
V    7 6
V    8 7
V    9 8
V   10 9
V   11 10
V   12 11
V   13 12
V   14 13
V   15 14
V   16 15
V   17 16
V   18 17
V   19 18
V   20 19
V   21 20
V   22 21
V   23 22
V   24 23
V   25 24
V   26 25
V   27 26
V   28 27
V   29 28
M  END
> <DSSTox_RID>
60120

> <DSSTox_CID>
3898

> <DSSTox_CID_Parent>
3898

> <DSSTox_Generic_SID>
35957

> <DSSTox_FileID>
769_TXCST2_v1a

> <STRUCTURE_Formula>
C22H18Cl2FNO3

> <STRUCTURE_MolecularWeight>
434.2876

> <STRUCTURE_ChemicalType>
defined organic

> <STRUCTURE_TestedForm_DefinedOrganic>
parent

> <STRUCTURE_Shown>
representative isomer in mixture

> <TestSubstance_ChemicalName>
Cyfluthrin

> <TestSubstance_CASRN>
68359-37-5

> <TestSubstance_Description>
mixture or formulation

> <ChemicalNote>
mixture of 4 pairs of diastereoisomers; I (1R,3R,alpha R + 1S,3S,alpha S); II (1R,3R,alphaS + 1S,3S,alpha R); III (1R,3S,alphaR + 1S,3R,alpha S); IV (1R,3S,alphaS + 1S,3R,alpha R); each pair in approx
 1:1 ratio. Cyfluthrin has approx ratio of isomeric pairs  (I 23-27%; II 17-21%; III 32-36%; IV 21-25%); structure shown IV (1R,3S,alphaS); stereochem

> <Source_ChemicalNote>
tested chemical was a mixture of isomers

> <STRUCTURE_ChemicalName_IUPAC>
(S)-cyano(4-fluoro-3-phenoxyphenyl)methyl (1R,3S)-3-(2,2-dichlorovinyl)-2,2-dimethylcyclopropanecarboxylate

> <STRUCTURE_SMILES>
N#C[C@H](C2=CC=C(F)C(OC3=CC=CC=C3)=C2)O[C@@]([C@H]1C(C)(C)[C@@H]1/C=C(Cl)\Cl)=O

> <STRUCTURE_Parent_SMILES>
N#C[C@H](C2=CC=C(F)C(OC3=CC=CC=C3)=C2)O[C@@]([C@H]1C(C)(C)[C@@H]1/C=C(Cl)\Cl)=O

> <STRUCTURE_InChIS>
InChI=1S/C22H18Cl2FNO3/c1-22(2)15(11-19(23)24)20(22)21(27)29-18(12-26)13-8-9-16(25)17(10-13)28-14-6-4-3-5-7-14/h3-11,15,18,20H,1-2H3/t15-,18-,20+/m1/s1

> <STRUCTURE_InChIKey>
QQODLKZGRKWIFG-ZTNFWEORSA-N

> <Substance_modify_yyyymmdd>
20080429

> <Coord_Metals>
0

> <Index>
769

> <Canonical_Smiles>
CC1(C)C(C=C(Cl)Cl)C1C(=O)OC(C#N)c2ccc(F)c(Oc3ccccc3)c2

> <Molecular_Weight>
434.28762

> <Frequency>
1

$$$$

  SciTegic          2D

 34 33  0  0  0  0            999 V2000
   10.3999    0.0000    0.0000 C   0  0
    9.0999    0.7500    0.0000 C   0  0
    7.7999    0.0000    0.0000 C   0  0
    6.5000    0.7500    0.0000 C   0  0
    5.2000    0.0000    0.0000 C   0  0
    3.9000    0.7500    0.0000 C   0  0
    2.6000    0.0000    0.0000 C   0  0
    1.3000    0.7500    0.0000 C   0  0
   11.6999    0.7500    0.0000 N   0  0
   12.9999    0.0000    0.0000 C   0  0
   11.7030    2.2508    0.0000 C   0  0
   11.2659   -0.5001    0.0000 H   0  0
   10.3999   -1.0000    0.0000 H   0  0
    8.2340    1.2501    0.0000 H   0  0
    9.0999    1.7500    0.0000 H   0  0
    6.9340   -0.5001    0.0000 H   0  0
    7.7999   -1.0000    0.0000 H   0  0
    5.6340    1.2501    0.0000 H   0  0
    6.5000    1.7500    0.0000 H   0  0
    4.3340   -0.5001    0.0000 H   0  0
    5.2000   -1.0000    0.0000 H   0  0
    3.0340    1.2501    0.0000 H   0  0
    3.9000    1.7500    0.0000 H   0  0
    1.7340   -0.5001    0.0000 H   0  0
    2.6000   -1.0000    0.0000 H   0  0
    0.4338    0.2503    0.0000 H   0  0
    0.4340    1.2501    0.0000 H   0  0
    1.3000    1.7500    0.0000 H   0  0
   13.8661    0.4997    0.0000 H   0  0
   13.8658   -0.5001    0.0000 H   0  0
   12.9999   -1.0000    0.0000 H   0  0
   12.5697    2.7496    0.0000 H   0  0
   11.7046    3.2508    0.0000 H   0  0
   10.8378    2.7523    0.0000 H   0  0
  1  2  1  0
  1  9  1  0
  2  3  1  0
  3  4  1  0
  4  5  1  0
  5  6  1  0
  6  7  1  0
  7  8  1  0
  9 10  1  0
  9 11  1  0
  1 12  1  0
  1 13  1  0
  2 14  1  0
  2 15  1  0
  3 16  1  0
  3 17  1  0
  4 18  1  0
  4 19  1  0
  5 20  1  0
  5 21  1  0
  6 22  1  0
  6 23  1  0
  7 24  1  0
  7 25  1  0
  8 26  1  0
  8 27  1  0
  8 28  1  0
 10 29  1  0
 10 30  1  0
 10 31  1  0
 11 32  1  0
 11 33  1  0
 11 34  1  0
V    1 0
V    2 1
V    3 2
V    4 3
V    5 4
V    6 5
V    7 6
V    8 7
V    9 8
V   10 9
V   11 10
M  END
> <DSSTox_RID>
59891

> <DSSTox_CID>
16299

> <DSSTox_CID_Parent>
16299

> <DSSTox_Generic_SID>
36299

> <DSSTox_FileID>
770_TXCST2_v1a

> <STRUCTURE_Formula>
C10H23N

> <STRUCTURE_MolecularWeight>
157.2963

> <STRUCTURE_ChemicalType>
defined organic

> <STRUCTURE_TestedForm_DefinedOrganic>
parent

> <STRUCTURE_Shown>
tested chemical

> <TestSubstance_ChemicalName>
N,N-Dimethyloctylamine

> <TestSubstance_CASRN>
7378-99-6

> <TestSubstance_Description>
single chemical compound

> <STRUCTURE_ChemicalName_IUPAC>
N,N-dimethyloctan-1-amine

> <STRUCTURE_SMILES>
CCCCCCCCN(C)C

> <STRUCTURE_Parent_SMILES>
CCCCCCCCN(C)C

> <STRUCTURE_InChIS>
InChI=1S/C10H23N/c1-4-5-6-7-8-9-10-11(2)3/h4-10H2,1-3H3

> <STRUCTURE_InChIKey>
UQKAOOAFEFCDGT-UHFFFAOYSA-N

> <Substance_modify_yyyymmdd>
20080429

> <Coord_Metals>
0

> <Index>
770

> <Canonical_Smiles>
CCCCCCCCN(C)C

> <Molecular_Weight>
157.29631

> <Frequency>
1

$$$$

  SciTegic          2D

 44 43  0  0  0  0            999 V2000
    6.5000    0.7500    0.0000 C   0  0
    7.7999    0.0000    0.0000 C   0  0
    9.0999    0.7500    0.0000 C   0  0
   10.3999    0.0000    0.0000 C   0  0
   11.6999    0.7500    0.0000 C   0  0
   12.9999    0.0000    0.0000 C   0  0
    6.5000    1.9500    0.0000 O   0  0
    5.2000    0.0000    0.0000 O   0  0
   12.9999   -1.2000    0.0000 O   0  0
   14.2999    0.7500    0.0000 O   0  0
    3.9000    0.7500    0.0000 C   0  0
    2.6000    0.0000    0.0000 C   0  0
    1.3000    0.7500    0.0000 C   0  0
    2.6000   -1.5007    0.0000 C   0  0
   15.5999    0.0000    0.0000 C   0  0
   16.8999    0.7500    0.0000 C   0  0
   18.1999    0.0000    0.0000 C   0  0
   16.9027   -0.7800    0.0000 C   0  0
    7.7999   -1.0000    0.0000 H   0  0
    6.9340   -0.5001    0.0000 H   0  0
    9.0999    1.7500    0.0000 H   0  0
    8.2340    1.2501    0.0000 H   0  0
   10.3999   -1.0000    0.0000 H   0  0
    9.5340   -0.5001    0.0000 H   0  0
   11.6999    1.7500    0.0000 H   0  0
   12.5659    1.2501    0.0000 H   0  0
    3.9000    1.7500    0.0000 H   0  0
    4.7659    1.2501    0.0000 H   0  0
    2.6000    1.0000    0.0000 H   0  0
    0.4338    0.2503    0.0000 H   0  0
    0.4340    1.2501    0.0000 H   0  0
    1.3000    1.7500    0.0000 H   0  0
    1.7343   -2.0013    0.0000 H   0  0
    2.6005   -2.5007    0.0000 H   0  0
    3.4662   -2.0005    0.0000 H   0  0
   14.7339   -0.5001    0.0000 H   0  0
   15.5999   -1.0000    0.0000 H   0  0
   16.8999    1.7500    0.0000 H   0  0
   19.0660    0.4997    0.0000 H   0  0
   18.1999   -1.0000    0.0000 H   0  0
   19.0658   -0.5001    0.0000 H   0  0
   17.7694   -1.2789    0.0000 H   0  0
   16.0375   -1.2813    0.0000 H   0  0
   16.9041   -1.7800    0.0000 H   0  0
  1  2  1  0
  1  8  1  0
  1  7  2  0
  2  3  1  0
  3  4  1  0
  4  5  1  0
  5  6  1  0
  6 10  1  0
  6  9  2  0
  8 11  1  0
 10 15  1  0
 11 12  1  0
 12 13  1  0
 12 14  1  0
 15 16  1  0
 16 17  1  0
 16 18  1  0
  2 19  1  0
  2 20  1  0
  3 21  1  0
  3 22  1  0
  4 23  1  0
  4 24  1  0
  5 25  1  0
  5 26  1  0
 11 27  1  0
 11 28  1  0
 12 29  1  0
 13 30  1  0
 13 31  1  0
 13 32  1  0
 14 33  1  0
 14 34  1  0
 14 35  1  0
 15 36  1  0
 15 37  1  0
 16 38  1  0
 17 39  1  0
 17 40  1  0
 17 41  1  0
 18 42  1  0
 18 43  1  0
 18 44  1  0
V    1 0
V    2 1
V    3 2
V    4 3
V    5 4
V    6 5
V    7 6
V    8 7
V    9 8
V   10 9
V   11 10
V   12 11
V   13 12
V   14 13
V   15 14
V   16 15
V   17 16
V   18 17
M  END
> <DSSTox_RID>
61387

> <DSSTox_CID>
16690

> <DSSTox_CID_Parent>
16690

> <DSSTox_Generic_SID>
36690

> <DSSTox_FileID>
771_TXCST2_v1a

> <STRUCTURE_Formula>
C14H26O4

> <STRUCTURE_MolecularWeight>
258.3538

> <STRUCTURE_ChemicalType>
defined organic

> <STRUCTURE_TestedForm_DefinedOrganic>
parent

> <STRUCTURE_Shown>
tested chemical

> <TestSubstance_ChemicalName>
Diisobutyl adipate

> <TestSubstance_CASRN>
141-04-8

> <TestSubstance_Description>
single chemical compound

> <STRUCTURE_ChemicalName_IUPAC>
diisobutyl adipate

> <STRUCTURE_SMILES>
O=C(OCC(C)C)CCCCC(OCC(C)C)=O

> <STRUCTURE_Parent_SMILES>
O=C(OCC(C)C)CCCCC(OCC(C)C)=O

> <STRUCTURE_InChIS>
InChI=1S/C14H26O4/c1-11(2)9-17-13(15)7-5-6-8-14(16)18-10-12(3)4/h11-12H,5-10H2,1-4H3

> <STRUCTURE_InChIKey>
RDOFJDLLWVCMRU-UHFFFAOYSA-N

> <Substance_modify_yyyymmdd>
20080429

> <Coord_Metals>
0

> <Index>
771

> <Canonical_Smiles>
CC(C)COC(=O)CCCCC(=O)OCC(C)C

> <Molecular_Weight>
258.35383

> <Frequency>
1

$$$$

  SciTegic          2D

 60 62  0  0  0  0            999 V2000
    0.8120    1.1744    0.0000 C   0  0
    1.2290   -0.2385    0.0000 C   0  0
    1.7382    2.3525    0.0000 C   0  0
   -0.0111   -1.0871    0.0000 O   0  0
    1.1810    3.7461    0.0000 C   0  0
   -0.6802    1.2325    0.0000 C   0  0
   -1.1916   -0.1724    0.0000 C   0  0
   -0.8229    5.9788    0.0000 C   0  0
   -1.2887    4.5530    0.0000 C   0  0
    0.6449    6.2883    0.0000 C   0  0
    1.6468    5.1720    0.0000 C   0  0
   -0.2868    3.4366    0.0000 C   0  0
    2.9260    2.1816    0.0000 O   0  0
    1.0175    7.4290    0.0000 I   0  0
   -2.4629    4.3054    0.0000 I   0  0
   -1.8230    7.0978    0.0000 O   0  0
    2.6427   -0.7351    0.0000 C   0  0
   -1.8869   11.0688    0.0000 N   0  0
   -1.6347    2.3948    0.0000 C   0  0
   -1.3549    8.5238    0.0000 C   0  0
   -2.6699   -0.4492    0.0000 C   0  0
   -2.3550    9.6428    0.0000 C   0  0
   -2.8870   12.1878    0.0000 C   0  0
   -0.4185   11.3789    0.0000 C   0  0
    3.7820    0.2420    0.0000 C   0  0
    5.1980   -0.2553    0.0000 C   0  0
    0.0481   12.8053    0.0000 C   0  0
   -2.4189   13.6137    0.0000 C   0  0
   -3.1302    2.1242    0.0000 C   0  0
   -3.6415    0.7193    0.0000 C   0  0
    6.3373    0.7218    0.0000 C   0  0
    2.6252    5.3783    0.0000 H   0  0
   -0.5974    2.4861    0.0000 H   0  0
    2.8273   -1.7179    0.0000 H   0  0
    1.8839   -1.3864    0.0000 H   0  0
   -1.2898    3.3334    0.0000 H   0  0
   -0.6881    7.7785    0.0000 H   0  0
   -0.3760    8.7284    0.0000 H   0  0
   -3.0090   -1.3899    0.0000 H   0  0
   -3.0218   10.3881    0.0000 H   0  0
   -3.3339    9.4382    0.0000 H   0  0
   -3.1994   11.2378    0.0000 H   0  0
   -3.8659   11.9831    0.0000 H   0  0
   -0.7289   10.4283    0.0000 H   0  0
    0.2495   10.6347    0.0000 H   0  0
    3.5974    1.2248    0.0000 H   0  0
    2.8386    0.5737    0.0000 H   0  0
    5.3826   -1.2381    0.0000 H   0  0
    4.4393   -0.9066    0.0000 H   0  0
    1.0265   13.0120    0.0000 H   0  0
    0.3585   13.7560    0.0000 H   0  0
   -0.6198   13.5496    0.0000 H   0  0
   -3.0853   14.3593    0.0000 H   0  0
   -2.1066   14.5637    0.0000 H   0  0
   -1.4401   13.8183    0.0000 H   0  0
   -3.7747    2.8888    0.0000 H   0  0
   -4.6267    0.5479    0.0000 H   0  0
    7.2808    0.3905    0.0000 H   0  0
    6.1528    1.7046    0.0000 H   0  0
    7.0961    1.3731    0.0000 H   0  0
  1  2  2  0
  1  3  1  0
  1  6  1  0
  2  4  1  0
  2 17  1  0
  3  5  1  0
  3 13  2  0
  4  7  1  0
  5 11  1  0
  5 12  2  0
  6  7  2  0
  6 19  1  0
  7 21  1  0
  8  9  2  0
  8 16  1  0
  8 10  1  0
  9 12  1  0
  9 15  1  0
 10 11  2  0
 10 14  1  0
 16 20  1  0
 17 25  1  0
 18 22  1  0
 18 23  1  0
 18 24  1  0
 19 29  2  0
 20 22  1  0
 21 30  2  0
 23 28  1  0
 24 27  1  0
 25 26  1  0
 26 31  1  0
 29 30  1  0
 11 32  1  0
 12 33  1  0
 17 34  1  0
 17 35  1  0
 19 36  1  0
 20 37  1  0
 20 38  1  0
 21 39  1  0
 22 40  1  0
 22 41  1  0
 23 42  1  0
 23 43  1  0
 24 44  1  0
 24 45  1  0
 25 46  1  0
 25 47  1  0
 26 48  1  0
 26 49  1  0
 27 50  1  0
 27 51  1  0
 27 52  1  0
 28 53  1  0
 28 54  1  0
 28 55  1  0
 29 56  1  0
 30 57  1  0
 31 58  1  0
 31 59  1  0
 31 60  1  0
V    1 0
V    2 1
V    3 2
V    4 3
V    5 4
V    6 5
V    7 6
V    8 7
V    9 8
V   10 9
V   11 10
V   12 11
V   13 12
V   14 13
V   15 14
V   16 15
V   17 16
V   18 17
V   19 18
V   20 19
V   21 20
V   22 21
V   23 22
V   24 23
V   25 24
V   26 25
V   27 26
V   28 27
V   29 28
V   30 29
V   31 30
M  END
> <DSSTox_RID>
66976

> <DSSTox_CID>
17185

> <DSSTox_CID_Parent>
2592

> <DSSTox_Generic_SID>
37185

> <DSSTox_FileID>
772_TXCST2_v1a

> <STRUCTURE_Formula>
C25H30ClI2NO3

> <STRUCTURE_MolecularWeight>
681.7725

> <STRUCTURE_ChemicalType>
defined organic

> <STRUCTURE_TestedForm_DefinedOrganic>
complex HCl

> <STRUCTURE_Shown>
tested chemical

> <TestSubstance_ChemicalName>
Amiodarone hydrochloride

> <TestSubstance_CASRN>
19774-82-4

> <TestSubstance_Description>
single chemical compound

> <ChemicalNote>
parent [1951-25-3]

> <STRUCTURE_ChemicalName_IUPAC>
(2-butyl-1-benzofuran-3-yl){4-[2-(diethylamino)ethoxy]-3,5-diiodophenyl}methanone hydrochloride

> <STRUCTURE_SMILES>
O=C(C3=CC(I)=C(C(I)=C3)OCCN(CC)CC)C1=C(CCCC)OC2=C1C=CC=C2.Cl

> <STRUCTURE_Parent_SMILES>
O=C(C3=CC(I)=C(C(I)=C3)OCCN(CC)CC)C1=C(CCCC)OC2=C1C=CC=C2

> <STRUCTURE_InChIS>
InChI=1S/C25H29I2NO3.ClH/c1-4-7-11-22-23(18-10-8-9-12-21(18)31-22)24(29)17-15-19(26)25(20(27)16-17)30-14-13-28(5-2)6-3;/h8-10,12,15-16H,4-7,11,13-14H2,1-3H3;1H

> <STRUCTURE_InChIKey>
ITPDYQOUSLNIHG-UHFFFAOYSA-N

> <Substance_modify_yyyymmdd>
20080429

> <Coord_Metals>
0

> <Index>
772

> <Canonical_Smiles>
CCCCc1oc2ccccc2c1C(=O)c3cc(I)c(OCCN(CC)CC)c(I)c3

> <Molecular_Weight>
645.31159

> <Frequency>
1

$$$$

  SciTegic          2D

 30 31  0  0  0  0            999 V2000
    2.5973   -1.5031    0.0000 N   0  0
    1.2990   -0.7500    0.0000 C   0  0
    2.5951   -3.0039    0.0000 C   0  0
    5.2001   -1.5118    0.0000 C   0  0
    3.8915   -3.7585    0.0000 C   0  0
    1.2990    0.7500    0.0000 C   0  0
    0.0000   -1.5000    0.0000 C   0  0
    5.1939   -3.0126    0.0000 C   0  0
    6.5025   -0.7659    0.0000 O   0  0
    4.1632   -0.9079    0.0000 O   0  0
    0.0000   -2.7000    0.0000 Cl  0  0
    2.3383    1.3500    0.0000 Cl  0  0
   -1.2990    0.7500    0.0000 C   0  0
    1.2935   -3.7495    0.0000 C   0  0
   -1.2990   -0.7500    0.0000 C   0  0
    0.0000    1.5000    0.0000 C   0  0
    3.8864   -5.2585    0.0000 C   0  0
    1.2883   -5.2495    0.0000 C   0  0
    2.5847   -6.0040    0.0000 C   0  0
    3.4642   -1.0046    0.0000 H   0  0
    6.0619   -2.5161    0.0000 H   0  0
    6.0580   -3.5159    0.0000 H   0  0
    6.5066    0.2340    0.0000 H   0  0
   -2.1651    1.2500    0.0000 H   0  0
    0.4292   -3.2465    0.0000 H   0  0
   -2.1651   -1.2500    0.0000 H   0  0
    0.0000    2.5000    0.0000 H   0  0
    4.7506   -5.7615    0.0000 H   0  0
    0.4205   -5.7465    0.0000 H   0  0
    2.5813   -7.0040    0.0000 H   0  0
  1  2  1  0
  1  3  1  0
  2  6  1  0
  2  7  2  0
  3  5  2  0
  3 14  1  0
  4  8  1  0
  4  9  1  0
  4 10  2  0
  5  8  1  0
  5 17  1  0
  6 12  1  0
  6 16  2  0
  7 11  1  0
  7 15  1  0
 13 15  2  0
 13 16  1  0
 14 18  2  0
 17 19  2  0
 18 19  1  0
  1 20  1  0
  8 21  1  0
  8 22  1  0
  9 23  1  0
 13 24  1  0
 14 25  1  0
 15 26  1  0
 16 27  1  0
 17 28  1  0
 18 29  1  0
 19 30  1  0
V    1 0
V    2 1
V    3 2
V    4 3
V    5 4
V    6 5
V    7 6
V    8 7
V    9 8
V   10 9
V   11 10
V   12 11
V   13 12
V   14 13
V   15 14
V   16 15
V   17 16
V   18 17
V   19 18
M  END
> <DSSTox_RID>
67079

> <DSSTox_CID>
17208

> <DSSTox_Generic_SID>
37208

> <DSSTox_FileID>
773_TXCST2_v1a

> <STRUCTURE_Formula>
C14H10Cl2NNaO2

> <STRUCTURE_MolecularWeight>
318.1305

> <STRUCTURE_ChemicalType>
defined organic

> <STRUCTURE_TestedForm_DefinedOrganic>
salt Na

> <STRUCTURE_Shown>
tested chemical

> <TestSubstance_ChemicalName>
Diclofenac sodium salt

> <TestSubstance_CASRN>
15307-79-6

> <TestSubstance_Description>
single chemical compound

> <ChemicalNote>
parent [15307-86-5]

> <STRUCTURE_ChemicalName_IUPAC>
sodium {2-[(2,6-dichlorophenyl)amino]phenyl}acetate

> <STRUCTURE_SMILES>
[O-]C(CC2=C(C=CC=C2)NC(C(Cl)=CC=C1)=C1Cl)=O.[Na+]

> <STRUCTURE_Parent_SMILES>
OC(CC2=C(C=CC=C2)NC(C(Cl)=CC=C1)=C1Cl)=O

> <STRUCTURE_InChIS>
InChI=1S/C14H11Cl2NO2.Na/c15-10-5-3-6-11(16)14(10)17-12-7-2-1-4-9(12)8-13(18)19;/h1-7,17H,8H2,(H,18,19);/q;+1/p-1

> <STRUCTURE_InChIKey>
KPHWPUGNDIVLNH-UHFFFAOYSA-M

> <Substance_modify_yyyymmdd>
20080429

> <Coord_Metals>
0

> <Index>
773

> <Canonical_Smiles>
OC(=O)Cc1ccccc1Nc2c(Cl)cccc2Cl

> <Molecular_Weight>
296.14864

> <Frequency>
1

$$$$

  SciTegic          2D

 23 22  0  0  0  0            999 V2000
    1.3000    0.7500    0.0000 C   0  0
    2.6000    0.0000    0.0000 C   0  0
    3.9000    0.7500    0.0000 C   0  0
    5.2000    0.0000    0.0000 C   0  0
    6.5000    0.7500    0.0000 C   0  0
    7.7999    0.0000    0.0000 C   0  0
    9.0999    0.7500    0.0000 C   0  0
   10.3999    0.0000    0.0000 O   0  0
    9.0999    1.9500    0.0000 O   0  0
    0.2606    0.1503    0.0000 F   0  0
    1.3000    1.9500    0.0000 F   0  0
    0.2609    1.3502    0.0000 F   0  0
    2.6000   -1.2000    0.0000 F   0  0
    1.5608   -0.6002    0.0000 F   0  0
    3.9000    1.9500    0.0000 F   0  0
    2.8608    1.3502    0.0000 F   0  0
    5.2000   -1.2000    0.0000 F   0  0
    4.1608   -0.6002    0.0000 F   0  0
    6.5000    1.9500    0.0000 F   0  0
    5.4608    1.3502    0.0000 F   0  0
    7.7999   -1.2000    0.0000 F   0  0
    8.8391   -0.6002    0.0000 F   0  0
   11.2661    0.4997    0.0000 H   0  0
  1  2  1  0
  1 10  1  0
  1 11  1  0
  1 12  1  0
  2  3  1  0
  2 13  1  0
  2 14  1  0
  3  4  1  0
  3 15  1  0
  3 16  1  0
  4  5  1  0
  4 17  1  0
  4 18  1  0
  5  6  1  0
  5 19  1  0
  5 20  1  0
  6  7  1  0
  6 21  1  0
  6 22  1  0
  7  8  1  0
  7  9  2  0
  8 23  1  0
V    1 0
V    2 1
V    3 2
V    4 3
V    5 4
V    6 5
V    7 6
V    8 7
V    9 8
V   10 9
V   11 10
V   12 11
V   13 12
V   14 13
V   15 14
V   16 15
V   17 16
V   18 17
V   19 18
V   20 19
V   21 20
V   22 21
M  END
> <DSSTox_RID>
62344

> <DSSTox_CID>
17303

> <DSSTox_CID_Parent>
17303

> <DSSTox_Generic_SID>
37303

> <DSSTox_FileID>
774_TXCST2_v1a

> <STRUCTURE_Formula>
C7HF13O2

> <STRUCTURE_MolecularWeight>
364.0609

> <STRUCTURE_ChemicalType>
defined organic

> <STRUCTURE_TestedForm_DefinedOrganic>
parent

> <STRUCTURE_Shown>
tested chemical

> <TestSubstance_ChemicalName>
Perfluoroheptanoic acid

> <TestSubstance_CASRN>
375-85-9

> <TestSubstance_Description>
single chemical compound

> <STRUCTURE_ChemicalName_IUPAC>
tridecafluoroheptanoic acid

> <STRUCTURE_SMILES>
OC(C(F)(F)C(F)(F)C(F)(F)C(F)(F)C(F)(F)C(F)(F)F)=O

> <STRUCTURE_Parent_SMILES>
OC(C(F)(F)C(F)(F)C(F)(F)C(F)(F)C(F)(F)C(F)(F)F)=O

> <STRUCTURE_InChIS>
InChI=1S/C7HF13O2/c8-2(9,1(21)22)3(10,11)4(12,13)5(14,15)6(16,17)7(18,19)20/h(H,21,22)

> <STRUCTURE_InChIKey>
ZWBAMYVPMDSJGQ-UHFFFAOYSA-N

> <Substance_modify_yyyymmdd>
20080429

> <Coord_Metals>
0

> <Index>
774

> <Canonical_Smiles>
OC(=O)C(F)(F)C(F)(F)C(F)(F)C(F)(F)C(F)(F)C(F)(F)F

> <Molecular_Weight>
364.06088

> <Frequency>
1

$$$$

  SciTegic          2D

 19 19  0  0  0  0            999 V2000
   -5.2003    1.4932    0.0000 C   0  0
   -3.8990    0.7455    0.0000 C   0  0
    0.0000   -2.7000    0.0000 Cl  0  0
    2.5972    1.5031    0.0000 N   0  0
   -2.6003    1.4977    0.0000 N   0  0
    1.2990   -0.7500    0.0000 N   0  0
    1.2990    0.7500    0.0000 C   0  0
    0.0000   -1.5000    0.0000 C   0  0
    0.0000    1.5000    0.0000 N   0  0
   -1.2990   -0.7500    0.0000 N   0  0
   -1.2990    0.7500    0.0000 C   0  0
   -6.0656    0.9920    0.0000 H   0  0
   -5.2021    2.4932    0.0000 H   0  0
   -6.0671    1.9918    0.0000 H   0  0
   -3.8973   -0.2545    0.0000 H   0  0
   -3.0322    0.2468    0.0000 H   0  0
    2.5958    2.5031    0.0000 H   0  0
    3.4641    1.0046    0.0000 H   0  0
   -2.6021    2.4977    0.0000 H   0  0
  1  2  1  0
  2  5  1  0
  3  8  1  0
  4  7  1  0
  5 11  1  0
  6  7  2  0
  6  8  1  0
  7  9  1  0
  8 10  2  0
  9 11  2  0
 10 11  1  0
  1 12  1  0
  1 13  1  0
  1 14  1  0
  2 15  1  0
  2 16  1  0
  4 17  1  0
  4 18  1  0
  5 19  1  0
V    1 0
V    2 1
V    3 2
V    4 3
V    5 4
V    6 5
V    7 6
V    8 7
V    9 8
V   10 9
V   11 10
M  END
> <DSSTox_RID>
65308

> <DSSTox_CID>
17495

> <DSSTox_CID_Parent>
17495

> <DSSTox_Generic_SID>
37495

> <DSSTox_FileID>
775_TXCST2_v1a

> <STRUCTURE_Formula>
C5H8ClN5

> <STRUCTURE_MolecularWeight>
173.6035

> <STRUCTURE_ChemicalType>
defined organic

> <STRUCTURE_TestedForm_DefinedOrganic>
parent

> <STRUCTURE_Shown>
tested chemical

> <TestSubstance_ChemicalName>
Deisopropylatrazine

> <TestSubstance_CASRN>
1007-28-9

> <TestSubstance_Description>
single chemical compound

> <STRUCTURE_ChemicalName_IUPAC>
6-chloro-N-ethyl-1,3,5-triazine-2,4-diamine

> <STRUCTURE_SMILES>
ClC1=NC(NCC)=NC(N)=N1

> <STRUCTURE_Parent_SMILES>
ClC1=NC(NCC)=NC(N)=N1

> <STRUCTURE_InChIS>
InChI=1S/C5H8ClN5/c1-2-8-5-10-3(6)9-4(7)11-5/h2H2,1H3,(H3,7,8,9,10,11)

> <STRUCTURE_InChIKey>
IVENSCMCQBJAKW-UHFFFAOYSA-N

> <Substance_modify_yyyymmdd>
20080429

> <Coord_Metals>
0

> <Index>
775

> <Canonical_Smiles>
CCNc1nc(N)nc(Cl)n1

> <Molecular_Weight>
173.60351

> <Frequency>
1

$$$$

  SciTegic          2D

 40 40  0  0  0  0            999 V2000
   -2.5951    3.0039    0.0000 P   0  0
   -1.5549    3.6021    0.0000 O   0  0
   -3.8933    3.7570    0.0000 O   0  0
   -2.5903    4.5339    0.0000 O   0  0
   -2.5973    1.5031    0.0000 O   0  0
   -5.1951    3.0101    0.0000 C   0  0
   -6.4933    3.7631    0.0000 C   0  0
   -1.2886    5.2810    0.0000 C   0  0
   -1.2839    6.7818    0.0000 C   0  0
    1.2990   -0.7500    0.0000 N   0  0
    0.0000    1.5000    0.0000 N   0  0
    1.2990    0.7500    0.0000 C   0  0
   -1.2990   -0.7500    0.0000 C   0  0
    0.0000   -1.5000    0.0000 C   0  0
   -1.2990    0.7500    0.0000 C   0  0
    0.0000   -3.0008    0.0000 C   0  0
    2.5988    1.5004    0.0000 C   0  0
    3.8990    0.7508    0.0000 C   0  0
    2.5983    3.0012    0.0000 C   0  0
   -5.1975    2.0101    0.0000 H   0  0
   -4.3303    2.5079    0.0000 H   0  0
   -7.3607    3.2655    0.0000 H   0  0
   -6.4909    4.7631    0.0000 H   0  0
   -7.3581    4.2653    0.0000 H   0  0
   -1.2914    4.2810    0.0000 H   0  0
   -0.4241    4.7785    0.0000 H   0  0
   -0.4166    7.2796    0.0000 H   0  0
   -1.2812    7.7818    0.0000 H   0  0
   -2.1485    7.2843    0.0000 H   0  0
   -2.1651   -1.2500    0.0000 H   0  0
    0.8657   -3.5014    0.0000 H   0  0
   -0.8662   -3.5006    0.0000 H   0  0
   -0.0005   -4.0008    0.0000 H   0  0
    2.5991    0.5004    0.0000 H   0  0
    4.7650    1.2509    0.0000 H   0  0
    3.8993   -0.2492    0.0000 H   0  0
    4.7651    0.2510    0.0000 H   0  0
    3.4638    3.5020    0.0000 H   0  0
    1.7320    3.5006    0.0000 H   0  0
    2.5975    4.0012    0.0000 H   0  0
  1  2  2  0
  1  3  1  0
  1  4  1  0
  1  5  1  0
  3  6  1  0
  4  8  1  0
  5 15  1  0
  6  7  1  0
  8  9  1  0
 10 12  2  0
 10 14  1  0
 11 12  1  0
 11 15  2  0
 12 17  1  0
 13 14  2  0
 13 15  1  0
 14 16  1  0
 17 18  1  0
 17 19  1  0
  6 20  1  0
  6 21  1  0
  7 22  1  0
  7 23  1  0
  7 24  1  0
  8 25  1  0
  8 26  1  0
  9 27  1  0
  9 28  1  0
  9 29  1  0
 13 30  1  0
 16 31  1  0
 16 32  1  0
 16 33  1  0
 17 34  1  0
 18 35  1  0
 18 36  1  0
 18 37  1  0
 19 38  1  0
 19 39  1  0
 19 40  1  0
V    1 0
V    2 1
V    3 2
V    4 3
V    5 4
V    6 5
V    7 6
V    8 7
V    9 8
V   10 9
V   11 10
V   12 11
V   13 12
V   14 13
V   15 14
V   16 15
V   17 16
V   18 17
V   19 18
M  END
> <DSSTox_RID>
65557

> <DSSTox_CID>
17523

> <DSSTox_CID_Parent>
17523

> <DSSTox_Generic_SID>
37523

> <DSSTox_FileID>
776_TXCST2_v1a

> <STRUCTURE_Formula>
C12H21N2O4P

> <STRUCTURE_MolecularWeight>
288.2799

> <STRUCTURE_ChemicalType>
defined organic

> <STRUCTURE_TestedForm_DefinedOrganic>
parent

> <STRUCTURE_Shown>
tested chemical

> <TestSubstance_ChemicalName>
Diazoxon

> <TestSubstance_CASRN>
962-58-3

> <TestSubstance_Description>
single chemical compound

> <STRUCTURE_ChemicalName_IUPAC>
diethyl 2-isopropyl-6-methylpyrimidin-4-yl phosphate

> <STRUCTURE_SMILES>
O=P(OCC)(OC1=NC(C(C)C)=NC(C)=C1)OCC

> <STRUCTURE_Parent_SMILES>
O=P(OCC)(OC1=NC(C(C)C)=NC(C)=C1)OCC

> <STRUCTURE_InChIS>
InChI=1S/C12H21N2O4P/c1-6-16-19(15,17-7-2)18-11-8-10(5)13-12(14-11)9(3)4/h8-9H,6-7H2,1-5H3

> <STRUCTURE_InChIKey>
VBLJFQYCTRKKKF-UHFFFAOYSA-N

> <Substance_modify_yyyymmdd>
20080429

> <Coord_Metals>
0

> <Index>
776

> <Canonical_Smiles>
CCOP(=O)(OCC)Oc1cc(C)nc(n1)C(C)C

> <Molecular_Weight>
288.2799

> <Frequency>
1

$$$$

  SciTegic          2D

 18 17  0  0  0  0            999 V2000
    5.2000    0.0000    0.0000 C   0  0
    3.9000    0.7500    0.0000 C   0  0
    2.6000    0.0000    0.0000 C   0  0
    1.3000    0.7500    0.0000 C   0  0
    6.5000    0.7500    0.0000 S   0  0
    6.5000    1.9500    0.0000 O   0  0
    7.7999    0.0000    0.0000 O   0  0
    7.5391    1.3502    0.0000 O   0  0
    5.2000   -1.2000    0.0000 F   0  0
    4.1608   -0.6002    0.0000 F   0  0
    3.9000    1.9500    0.0000 F   0  0
    2.8608    1.3502    0.0000 F   0  0
    2.6000   -1.2000    0.0000 F   0  0
    1.5608   -0.6002    0.0000 F   0  0
    0.2606    0.1503    0.0000 F   0  0
    1.3000    1.9500    0.0000 F   0  0
    0.2609    1.3502    0.0000 F   0  0
    8.6661    0.4997    0.0000 H   0  0
  1  2  1  0
  1  5  1  0
  1  9  1  0
  1 10  1  0
  2  3  1  0
  2 11  1  0
  2 12  1  0
  3  4  1  0
  3 13  1  0
  3 14  1  0
  4 15  1  0
  4 16  1  0
  4 17  1  0
  5  6  2  0
  5  7  1  0
  5  8  2  0
  7 18  1  0
V    1 1
V    2 2
V    3 3
V    4 4
V    5 5
V    6 6
V    7 7
V    8 8
V    9 9
V   10 10
V   11 11
V   12 12
V   13 13
V   14 14
V   15 15
V   16 16
V   17 17
M  END
> <DSSTox_RID>
65556

> <DSSTox_CID>
17707

> <DSSTox_CID_Parent>
10030

> <DSSTox_Generic_SID>
37707

> <DSSTox_FileID>
778_TXCST2_v1a

> <STRUCTURE_Formula>
C4F9KO3S

> <STRUCTURE_MolecularWeight>
338.1899

> <STRUCTURE_ChemicalType>
defined organic

> <STRUCTURE_TestedForm_DefinedOrganic>
salt K

> <STRUCTURE_Shown>
tested chemical

> <TestSubstance_ChemicalName>
Potassium perfluorobutanesulfonate (PFBS, K salt)

> <TestSubstance_CASRN>
29420-49-3

> <TestSubstance_Description>
single chemical compound

> <ChemicalNote>
parent [375-73-5]

> <STRUCTURE_ChemicalName_IUPAC>
potassium 1,1,2,2,3,3,4,4,4-nonafluorobutane-1-sulfonate

> <STRUCTURE_SMILES>
O=S(C(F)(F)C(F)(F)C(F)(F)C(F)(F)F)([O-])=O.[K+]

> <STRUCTURE_Parent_SMILES>
O=S(C(F)(F)C(F)(F)C(F)(F)C(F)(F)F)(O)=O

> <STRUCTURE_InChIS>
InChI=1S/C4HF9O3S.K/c5-1(6,3(9,10)11)2(7,8)4(12,13)17(14,15)16;/h(H,14,15,16);/q;+1/p-1

> <STRUCTURE_InChIKey>
LVTHXRLARFLXNR-UHFFFAOYSA-M

> <Substance_modify_yyyymmdd>
20080429

> <Coord_Metals>
0

> <Index>
778

> <Canonical_Smiles>
OS(=O)(=O)C(F)(F)C(F)(F)C(F)(F)C(F)(F)F

> <Molecular_Weight>
300.09956

> <Frequency>
1

$$$$

  SciTegic          2D

 24 23  0  0  0  0            999 V2000
    7.7999    0.0000    0.0000 C   0  0
    6.5000    0.7500    0.0000 C   0  0
    5.2000    0.0000    0.0000 C   0  0
    3.9000    0.7500    0.0000 C   0  0
    2.6000    0.0000    0.0000 C   0  0
    1.3000    0.7500    0.0000 C   0  0
    9.0999    0.7500    0.0000 S   0  0
    9.0999    1.9500    0.0000 O   0  0
   10.3999    0.0000    0.0000 O   0  0
   10.1391    1.3502    0.0000 O   0  0
    7.7999   -1.2000    0.0000 F   0  0
    6.7608   -0.6002    0.0000 F   0  0
    6.5000    1.9500    0.0000 F   0  0
    5.4608    1.3502    0.0000 F   0  0
    5.2000   -1.2000    0.0000 F   0  0
    4.1608   -0.6002    0.0000 F   0  0
    3.9000    1.9500    0.0000 F   0  0
    2.8608    1.3502    0.0000 F   0  0
    2.6000   -1.2000    0.0000 F   0  0
    1.5608   -0.6002    0.0000 F   0  0
    0.2606    0.1503    0.0000 F   0  0
    1.3000    1.9500    0.0000 F   0  0
    0.2609    1.3502    0.0000 F   0  0
   11.2661    0.4997    0.0000 H   0  0
  1  2  1  0
  1  7  1  0
  1 11  1  0
  1 12  1  0
  2  3  1  0
  2 13  1  0
  2 14  1  0
  3  4  1  0
  3 15  1  0
  3 16  1  0
  4  5  1  0
  4 17  1  0
  4 18  1  0
  5  6  1  0
  5 19  1  0
  5 20  1  0
  6 21  1  0
  6 22  1  0
  6 23  1  0
  7  8  2  0
  7  9  1  0
  7 10  2  0
  9 24  1  0
V    1 0
V    2 1
V    3 2
V    4 3
V    5 4
V    6 5
V    7 6
V    8 7
V    9 8
V   10 9
V   11 10
V   12 11
V   13 12
V   14 13
V   15 14
V   16 15
V   17 16
V   18 17
V   19 18
V   20 19
V   21 20
V   22 21
V   23 22
M  END
> <DSSTox_RID>
61691

> <DSSTox_CID>
17709

> <DSSTox_CID_Parent>
11859

> <DSSTox_Generic_SID>
37709

> <DSSTox_FileID>
780_TXCST2_v1a

> <STRUCTURE_Formula>
C6F13KO3S

> <STRUCTURE_MolecularWeight>
438.2049

> <STRUCTURE_ChemicalType>
defined organic

> <STRUCTURE_TestedForm_DefinedOrganic>
salt K

> <STRUCTURE_Shown>
tested chemical

> <TestSubstance_ChemicalName>
Potassium perfluorohexanesulfonate

> <TestSubstance_CASRN>
3871-99-6

> <TestSubstance_Description>
single chemical compound

> <ChemicalNote>
parent [355-46-4]

> <STRUCTURE_ChemicalName_IUPAC>
potassium 1,1,2,2,3,3,4,4,5,5,6,6,6-tridecafluorohexane-1-sulfonate

> <STRUCTURE_SMILES>
O=S(C(F)(F)C(F)(F)C(F)(F)C(F)(F)C(F)(F)C(F)(F)F)([O-])=O.[K+]

> <STRUCTURE_Parent_SMILES>
O=S(C(F)(F)C(F)(F)C(F)(F)C(F)(F)C(F)(F)C(F)(F)F)(O)=O

> <STRUCTURE_InChIS>
InChI=1S/C6HF13O3S.K/c7-1(8,3(11,12)5(15,16)17)2(9,10)4(13,14)6(18,19)23(20,21)22;/h(H,20,21,22);/q;+1/p-1

> <STRUCTURE_InChIKey>
RSCGQEBKFSGWJT-UHFFFAOYSA-M

> <Substance_modify_yyyymmdd>
20080429

> <Coord_Metals>
0

> <Index>
780

> <Canonical_Smiles>
OS(=O)(=O)C(F)(F)C(F)(F)C(F)(F)C(F)(F)C(F)(F)C(F)(F)F

> <Molecular_Weight>
400.11458

> <Frequency>
1

$$$$

  SciTegic          2D

 41 43  0  0  0  0            999 V2000
    1.9695    3.0493    0.0000 C   0  0
    3.4481    3.3069    0.0000 O   0  0
    1.0053    4.1984    0.0000 C   0  0
    1.4565    1.6398    0.0000 C   0  0
   -0.0207    1.3793    0.0000 C   0  0
   -0.4719    3.9379    0.0000 C   0  0
   -0.9849    2.5284    0.0000 C   0  0
   -6.5390    3.0520    0.0000 C   0  0
   -8.0174    3.3105    0.0000 O   0  0
   -5.5741    4.2005    0.0000 C   0  0
   -6.0268    1.6421    0.0000 C   0  0
   -4.5498    1.3807    0.0000 C   0  0
   -4.0970    3.9391    0.0000 C   0  0
   -3.5849    2.5292    0.0000 C   0  0
   -2.2832    7.7795    0.0000 C   0  0
   -2.2797    9.2804    0.0000 O   0  0
   -3.5825    7.0299    0.0000 C   0  0
   -0.9844    7.0291    0.0000 C   0  0
   -0.9849    5.5291    0.0000 C   0  0
   -3.5830    5.5300    0.0000 C   0  0
   -2.2842    4.7795    0.0000 C   0  0
   -2.2846    3.2788    0.0000 C   0  0
   -2.2880    1.7488    0.0000 C   0  0
    4.0898    2.5400    0.0000 H   0  0
    1.3474    5.1381    0.0000 H   0  0
    2.0993    0.8738    0.0000 H   0  0
   -0.3627    0.4396    0.0000 H   0  0
   -1.1147    4.7040    0.0000 H   0  0
   -8.6595    2.5440    0.0000 H   0  0
   -5.9155    5.1404    0.0000 H   0  0
   -6.6701    0.8765    0.0000 H   0  0
   -4.2083    0.4408    0.0000 H   0  0
   -3.4537    4.7047    0.0000 H   0  0
   -1.4128    9.7789    0.0000 H   0  0
   -4.4484    7.5302    0.0000 H   0  0
   -0.1182    7.5289    0.0000 H   0  0
   -0.1190    5.0289    0.0000 H   0  0
   -4.4492    5.0302    0.0000 H   0  0
   -3.1548    1.2502    0.0000 H   0  0
   -2.2897    0.7488    0.0000 H   0  0
   -1.4229    1.2472    0.0000 H   0  0
  1  2  1  0
  1  3  2  0
  1  4  1  0
  3  6  1  0
  4  5  2  0
  5  7  1  0
  6  7  2  0
  7 22  1  0
  8  9  1  0
  8 10  2  0
  8 11  1  0
 10 13  1  0
 11 12  2  0
 12 14  1  0
 13 14  2  0
 14 22  1  0
 15 16  1  0
 15 17  2  0
 15 18  1  0
 17 20  1  0
 18 19  2  0
 19 21  1  0
 20 21  2  0
 21 22  1  0
 22 23  1  0
  2 24  1  0
  3 25  1  0
  4 26  1  0
  5 27  1  0
  6 28  1  0
  9 29  1  0
 10 30  1  0
 11 31  1  0
 12 32  1  0
 13 33  1  0
 16 34  1  0
 17 35  1  0
 18 36  1  0
 19 37  1  0
 20 38  1  0
 23 39  1  0
 23 40  1  0
 23 41  1  0
V    1 0
V    2 1
V    3 2
V    4 3
V    5 4
V    6 5
V    7 6
V    8 7
V    9 8
V   10 9
V   11 10
V   12 11
V   13 12
V   14 13
V   15 14
V   16 15
V   17 16
V   18 17
V   19 18
V   20 19
V   21 20
V   22 21
V   23 22
M  END
> <DSSTox_RID>
61719

> <DSSTox_CID>
17712

> <DSSTox_CID_Parent>
17712

> <DSSTox_Generic_SID>
37712

> <DSSTox_FileID>
781_TXCST2_v1a

> <STRUCTURE_Formula>
C20H18O3

> <STRUCTURE_MolecularWeight>
306.3551

> <STRUCTURE_ChemicalType>
defined organic

> <STRUCTURE_TestedForm_DefinedOrganic>
parent

> <STRUCTURE_Shown>
tested chemical

> <TestSubstance_ChemicalName>
4,4?,4"-Ethane-1,1,1-triyltriphenol

> <TestSubstance_CASRN>
27955-94-8

> <TestSubstance_Description>
single chemical compound

> <STRUCTURE_ChemicalName_IUPAC>
4,4',4''-ethane-1,1,1-triyltriphenol

> <STRUCTURE_SMILES>
OC1=CC=C(C(C3=CC=C(C=C3)O)(C)C2=CC=C(C=C2)O)C=C1

> <STRUCTURE_Parent_SMILES>
OC1=CC=C(C(C3=CC=C(C=C3)O)(C)C2=CC=C(C=C2)O)C=C1

> <STRUCTURE_InChIS>
InChI=1S/C20H18O3/c1-20(14-2-8-17(21)9-3-14,15-4-10-18(22)11-5-15)16-6-12-19(23)13-7-16/h2-13,21-23H,1H3

> <STRUCTURE_InChIKey>
BRPSWMCDEYMRPE-UHFFFAOYSA-N

> <Substance_modify_yyyymmdd>
20080429

> <Coord_Metals>
0

> <Index>
781

> <Canonical_Smiles>
CC(c1ccc(O)cc1)(c2ccc(O)cc2)c3ccc(O)cc3

> <Molecular_Weight>
306.35512

> <Frequency>
1

$$$$

  SciTegic          2D

 38 40  0  0  0  0            999 V2000
    2.5973   -1.5031    0.0000 C   0  0
   -0.0031    3.0008    0.0000 C   0  0
    1.2990   -0.7500    0.0000 C   0  0
    0.0000    1.5000    0.0000 C   0  0
    1.2990    0.7500    0.0000 C   0  0
    3.6375   -0.9049    0.0000 O   0  0
    1.0351    3.6026    0.0000 O   0  0
    2.5951   -3.0039    0.0000 O   0  0
   -1.3039    3.7494    0.0000 O   0  0
    0.0000   -1.5000    0.0000 C   0  0
   -1.2990    0.7500    0.0000 C   0  0
   -1.2990   -0.7500    0.0000 C   0  0
    3.8933   -3.7570    0.0000 C   0  0
    3.8934   -5.2570    0.0000 C   0  0
    5.1925   -3.0070    0.0000 C   0  0
    5.1924   -6.0070    0.0000 C   0  0
    6.4915   -3.7571    0.0000 C   0  0
    6.4915   -5.2571    0.0000 C   0  0
   -1.3070    5.2502    0.0000 C   0  0
   -2.6061    6.0003    0.0000 C   0  0
   -0.0080    6.0003    0.0000 C   0  0
   -2.6061    7.5003    0.0000 C   0  0
   -0.0080    7.5003    0.0000 C   0  0
   -1.3071    8.2503    0.0000 C   0  0
    2.1651    1.2500    0.0000 H   0  0
    0.0000   -2.5000    0.0000 H   0  0
   -2.1651    1.2500    0.0000 H   0  0
   -2.1651   -1.2500    0.0000 H   0  0
    3.0274   -5.7570    0.0000 H   0  0
    5.1925   -2.0070    0.0000 H   0  0
    5.1924   -7.0070    0.0000 H   0  0
    7.3575   -3.2571    0.0000 H   0  0
    7.3575   -5.7571    0.0000 H   0  0
   -3.4721    5.5003    0.0000 H   0  0
    0.8581    5.5004    0.0000 H   0  0
   -3.4721    8.0002    0.0000 H   0  0
    0.8580    8.0004    0.0000 H   0  0
   -1.3071    9.2503    0.0000 H   0  0
  1  3  1  0
  1  6  2  0
  1  8  1  0
  2  4  1  0
  2  7  2  0
  2  9  1  0
  3  5  2  0
  3 10  1  0
  4  5  1  0
  4 11  2  0
  8 13  1  0
  9 19  1  0
 10 12  2  0
 11 12  1  0
 13 14  2  0
 13 15  1  0
 14 16  1  0
 15 17  2  0
 16 18  2  0
 17 18  1  0
 19 20  2  0
 19 21  1  0
 20 22  1  0
 21 23  2  0
 22 24  2  0
 23 24  1  0
  5 25  1  0
 10 26  1  0
 11 27  1  0
 12 28  1  0
 14 29  1  0
 15 30  1  0
 16 31  1  0
 17 32  1  0
 18 33  1  0
 20 34  1  0
 21 35  1  0
 22 36  1  0
 23 37  1  0
 24 38  1  0
V    1 0
V    2 1
V    3 2
V    4 3
V    5 4
V    6 5
V    7 6
V    8 7
V    9 8
V   10 9
V   11 10
V   12 11
V   13 12
V   14 13
V   15 14
V   16 15
V   17 16
V   18 17
V   19 18
V   20 19
V   21 20
V   22 21
V   23 22
V   24 23
M  END
> <DSSTox_RID>
67087

> <DSSTox_CID>
17752

> <DSSTox_CID_Parent>
17752

> <DSSTox_Generic_SID>
37752

> <DSSTox_FileID>
782_TXCST2_v1a

> <STRUCTURE_Formula>
C20H14O4

> <STRUCTURE_MolecularWeight>
318.3228

> <STRUCTURE_ChemicalType>
defined organic

> <STRUCTURE_TestedForm_DefinedOrganic>
parent

> <STRUCTURE_Shown>
tested chemical

> <TestSubstance_ChemicalName>
Diphenyl isophthalate

> <TestSubstance_CASRN>
744-45-6

> <TestSubstance_Description>
single chemical compound

> <STRUCTURE_ChemicalName_IUPAC>
diphenyl isophthalate

> <STRUCTURE_SMILES>
O=C(OC2=CC=CC=C2)C1=CC(C(OC3=CC=CC=C3)=O)=CC=C1

> <STRUCTURE_Parent_SMILES>
O=C(OC2=CC=CC=C2)C1=CC(C(OC3=CC=CC=C3)=O)=CC=C1

> <STRUCTURE_InChIS>
InChI=1S/C20H14O4/c21-19(23-17-10-3-1-4-11-17)15-8-7-9-16(14-15)20(22)24-18-12-5-2-6-13-18/h1-14H

> <STRUCTURE_InChIKey>
FHESUNXRPBHDQM-UHFFFAOYSA-N

> <Substance_modify_yyyymmdd>
20080429

> <Coord_Metals>
0

> <Index>
782

> <Canonical_Smiles>
O=C(Oc1ccccc1)c2cccc(c2)C(=O)Oc3ccccc3

> <Molecular_Weight>
318.32276

> <Frequency>
1

$$$$

  SciTegic          2D

 27 30  0  0  0  0            999 V2000
    0.6052    0.5296    0.0000 C   0  0
   -0.8322    0.1513    0.0000 C   0  0
   -1.8409    1.2861    0.0000 C   0  0
    1.1096    1.9670    0.0000 C   0  0
   -1.2861   -1.2609    0.0000 C   0  0
    1.6643   -0.5800    0.0000 C   0  0
    0.0504    3.1017    0.0000 C   0  0
    0.0000   -2.3956    0.0000 C   0  0
    1.2104   -2.0174    0.0000 C   0  0
   -1.3870    2.7235    0.0000 C   0  0
   -3.7574   -0.5043    0.0000 C   0  0
    3.5809    1.2104    0.0000 C   0  0
    2.5722    2.3452    0.0000 C   0  0
    3.1270    0.0000    0.0000 C   0  0
   -3.3035    0.9078    0.0000 C   0  0
   -2.7487   -1.6391    0.0000 C   0  0
   -3.1867   -3.0738    0.0000 O   0  0
    0.3280    4.0624    0.0000 H   0  0
   -0.2085   -3.3737    0.0000 H   0  0
    1.9165   -2.7256    0.0000 H   0  0
   -2.0767    3.4475    0.0000 H   0  0
   -4.7359   -0.7107    0.0000 H   0  0
    4.5640    1.3933    0.0000 H   0  0
    2.8634    3.3019    0.0000 H   0  0
    3.8407   -0.7004    0.0000 H   0  0
   -3.9898    1.6351    0.0000 H   0  0
   -4.1609   -3.2998    0.0000 H   0  0
  1  2  2  0
  1  4  1  0
  1  6  1  0
  2  3  1  0
  2  5  1  0
  3 10  2  0
  3 15  1  0
  4  7  2  0
  4 13  1  0
  5  8  1  0
  5 16  2  0
  6  9  1  0
  6 14  2  0
  7 10  1  0
  8  9  2  0
 11 15  2  0
 11 16  1  0
 12 13  2  0
 12 14  1  0
 16 17  1  0
  7 18  1  0
  8 19  1  0
  9 20  1  0
 10 21  1  0
 11 22  1  0
 12 23  1  0
 13 24  1  0
 14 25  1  0
 15 26  1  0
 17 27  1  0
V    1 0
V    2 1
V    3 2
V    4 3
V    5 4
V    6 5
V    7 6
V    8 7
V    9 8
V   10 9
V   11 10
V   12 11
V   13 12
V   14 13
V   15 14
V   16 15
V   17 16
M  END
> <DSSTox_RID>
67053

> <DSSTox_CID>
18298

> <DSSTox_CID_Parent>
18298

> <DSSTox_Generic_SID>
38298

> <DSSTox_FileID>
783_TXCST2_v1a

> <STRUCTURE_Formula>
C16H10O

> <STRUCTURE_MolecularWeight>
218.25

> <STRUCTURE_ChemicalType>
defined organic

> <STRUCTURE_TestedForm_DefinedOrganic>
parent

> <STRUCTURE_Shown>
tested chemical

> <TestSubstance_ChemicalName>
1-Hydroxypyrene

> <TestSubstance_CASRN>
5315-79-7

> <TestSubstance_Description>
single chemical compound

> <STRUCTURE_ChemicalName_IUPAC>
pyren-1-ol

> <STRUCTURE_SMILES>
OC2=C(C=C4)C1=C(C4=CC=C3)C3=CC=C1C=C2

> <STRUCTURE_Parent_SMILES>
OC2=C(C=C4)C1=C(C4=CC=C3)C3=CC=C1C=C2

> <STRUCTURE_InChIS>
InChI=1S/C16H10O/c17-14-9-7-12-5-4-10-2-1-3-11-6-8-13(14)16(12)15(10)11/h1-9,17H

> <STRUCTURE_InChIKey>
BIJNHUAPTJVVNQ-UHFFFAOYSA-N

> <Substance_modify_yyyymmdd>
20080429

> <Coord_Metals>
0

> <Index>
783

> <Canonical_Smiles>
Oc1ccc2ccc3cccc4ccc1c2c34

> <Molecular_Weight>
218.24999

> <Frequency>
1

$$$$

  SciTegic          2D

 26 27  0  0  0  0            999 V2000
    2.5973   -1.5031    0.0000 C   0  0
    1.2990   -0.7500    0.0000 C   0  0
    1.2990    0.7500    0.0000 C   0  0
    3.6375   -0.9049    0.0000 O   0  0
    0.0000    1.5000    0.0000 C   0  0
   -0.0031    3.0008    0.0000 O   0  0
    2.5951   -3.0039    0.0000 O   0  0
   -1.3039    3.7494    0.0000 C   0  0
    0.0000   -1.5000    0.0000 C   0  0
   -1.2990   -0.7500    0.0000 C   0  0
   -1.2990    0.7500    0.0000 C   0  0
   -1.3092    5.2494    0.0000 C   0  0
   -2.6005    2.9949    0.0000 C   0  0
   -2.6108    5.9949    0.0000 C   0  0
   -3.9021    3.7404    0.0000 C   0  0
   -3.9073    5.2404    0.0000 C   0  0
    2.1651    1.2500    0.0000 H   0  0
    3.4601   -3.5057    0.0000 H   0  0
    0.0000   -2.5000    0.0000 H   0  0
   -2.1651   -1.2500    0.0000 H   0  0
   -2.1651    1.2500    0.0000 H   0  0
   -0.4449    5.7524    0.0000 H   0  0
   -2.5970    1.9949    0.0000 H   0  0
   -2.6143    6.9949    0.0000 H   0  0
   -4.7664    3.2374    0.0000 H   0  0
   -4.7750    5.7374    0.0000 H   0  0
  1  2  1  0
  1  4  2  0
  1  7  1  0
  2  3  2  0
  2  9  1  0
  3  5  1  0
  5  6  1  0
  5 11  2  0
  6  8  1  0
  8 12  2  0
  8 13  1  0
  9 10  2  0
 10 11  1  0
 12 14  1  0
 13 15  2  0
 14 16  2  0
 15 16  1  0
  3 17  1  0
  7 18  1  0
  9 19  1  0
 10 20  1  0
 11 21  1  0
 12 22  1  0
 13 23  1  0
 14 24  1  0
 15 25  1  0
 16 26  1  0
V    1 0
V    2 1
V    3 2
V    4 3
V    5 4
V    6 5
V    7 6
V    8 7
V    9 8
V   10 9
V   11 10
V   12 11
V   13 12
V   14 13
V   15 14
V   16 15
M  END
> <DSSTox_RID>
65307

> <DSSTox_CID>
18321

> <DSSTox_CID_Parent>
18321

> <DSSTox_Generic_SID>
38321

> <DSSTox_FileID>
784_TXCST2_v1a

> <STRUCTURE_Formula>
C13H10O3

> <STRUCTURE_MolecularWeight>
214.2167

> <STRUCTURE_ChemicalType>
defined organic

> <STRUCTURE_TestedForm_DefinedOrganic>
parent

> <STRUCTURE_Shown>
tested chemical

> <TestSubstance_ChemicalName>
3-Phenoxybenzoic acid

> <TestSubstance_CASRN>
3739-38-6

> <TestSubstance_Description>
single chemical compound

> <STRUCTURE_ChemicalName_IUPAC>
3-phenoxybenzoic acid

> <STRUCTURE_SMILES>
O=C(O)C1=CC(OC2=CC=CC=C2)=CC=C1

> <STRUCTURE_Parent_SMILES>
O=C(O)C1=CC(OC2=CC=CC=C2)=CC=C1

> <STRUCTURE_InChIS>
InChI=1S/C13H10O3/c14-13(15)10-5-4-8-12(9-10)16-11-6-2-1-3-7-11/h1-9H,(H,14,15)

> <STRUCTURE_InChIKey>
NXTDJHZGHOFSQG-UHFFFAOYSA-N

> <Substance_modify_yyyymmdd>
20080429

> <Coord_Metals>
0

> <Index>
784

> <Canonical_Smiles>
OC(=O)c1cccc(Oc2ccccc2)c1

> <Molecular_Weight>
214.21669

> <Frequency>
1

$$$$

  SciTegic          2D

 29 29  0  0  0  0            999 V2000
    2.6015   -2.9986    0.0000 C   0  0
    3.9027   -3.7449    0.0000 N   0  0
    3.8990   -0.7455    0.0000 P   0  0
    2.6003   -1.4977    0.0000 O   0  0
    3.9070   -5.2449    0.0000 C   0  0
    1.3046   -3.7523    0.0000 C   0  0
    1.3089   -5.2523    0.0000 C   0  0
    2.6101   -5.9986    0.0000 C   0  0
    3.8969    0.4545    0.0000 O   0  0
    5.2003   -1.4932    0.0000 O   0  0
    2.5738    0.0191    0.0000 O   0  0
    4.9479   -5.8419    0.0000 Cl  0  0
    0.2637   -3.1552    0.0000 Cl  0  0
    2.6135   -7.1986    0.0000 Cl  0  0
    6.4990   -0.7409    0.0000 C   0  0
    2.5724    1.5199    0.0000 C   0  0
    1.2724    2.2699    0.0000 C   0  0
    7.8003   -1.4887    0.0000 C   0  0
    0.4443   -5.7547    0.0000 H   0  0
    6.4973    0.2591    0.0000 H   0  0
    5.6322   -0.2423    0.0000 H   0  0
    3.4381    2.0204    0.0000 H   0  0
    3.4388    1.0206    0.0000 H   0  0
    1.2715    3.2699    0.0000 H   0  0
    0.4067    1.7694    0.0000 H   0  0
    0.4060    2.7693    0.0000 H   0  0
    8.6656   -0.9874    0.0000 H   0  0
    7.8020   -2.4887    0.0000 H   0  0
    8.6671   -1.9873    0.0000 H   0  0
  1  2  2  0
  1  4  1  0
  1  6  1  0
  2  5  1  0
  3  4  1  0
  3  9  2  0
  3 10  1  0
  3 11  1  0
  5 12  1  0
  5  8  2  0
  6  7  2  0
  6 13  1  0
  7  8  1  0
  8 14  1  0
 10 15  1  0
 11 16  1  0
 15 18  1  0
 16 17  1  0
  7 19  1  0
 15 20  1  0
 15 21  1  0
 16 22  1  0
 16 23  1  0
 17 24  1  0
 17 25  1  0
 17 26  1  0
 18 27  1  0
 18 28  1  0
 18 29  1  0
V    1 0
V    2 1
V    3 2
V    4 3
V    5 4
V    6 5
V    7 6
V    8 7
V    9 8
V   10 9
V   11 10
V   12 11
V   13 12
V   14 13
V   15 14
V   16 15
V   17 16
V   18 17
M  END
> <DSSTox_RID>
60597

> <DSSTox_CID>
18666

> <DSSTox_CID_Parent>
18666

> <DSSTox_Generic_SID>
38666

> <DSSTox_FileID>
785_TXCST2_v1a

> <STRUCTURE_Formula>
C9H11Cl3NO4P

> <STRUCTURE_MolecularWeight>
334.5207

> <STRUCTURE_ChemicalType>
defined organic

> <STRUCTURE_TestedForm_DefinedOrganic>
parent

> <STRUCTURE_Shown>
tested chemical

> <TestSubstance_ChemicalName>
Chlorpyrifos oxon

> <TestSubstance_CASRN>
5598-15-2

> <TestSubstance_Description>
single chemical compound

> <STRUCTURE_ChemicalName_IUPAC>
diethyl 3,5,6-trichloropyridin-2-yl phosphate

> <STRUCTURE_SMILES>
O=P(OCC)(OCC)OC1=NC(Cl)=C(Cl)C=C1Cl

> <STRUCTURE_Parent_SMILES>
O=P(OCC)(OCC)OC1=NC(Cl)=C(Cl)C=C1Cl

> <STRUCTURE_InChIS>
InChI=1S/C9H11Cl3NO4P/c1-3-15-18(14,16-4-2)17-9-7(11)5-6(10)8(12)13-9/h5H,3-4H2,1-2H3

> <STRUCTURE_InChIKey>
OTMOUPHCTWPNSL-UHFFFAOYSA-N

> <Substance_modify_yyyymmdd>
20080429

> <Coord_Metals>
0

> <Index>
785

> <Canonical_Smiles>
CCOP(=O)(OCC)Oc1nc(Cl)c(Cl)cc1Cl

> <Molecular_Weight>
334.5207

> <Frequency>
1

$$$$

  SciTegic          2D

 26 25  0  0  0  0            999 V2000
    5.2000    0.0000    0.0000 C   0  0
    6.5000    0.7500    0.0000 C   0  0
    7.7999    0.0000    0.0000 C   0  0
    9.0999    0.7500    0.0000 C   0  0
    5.2000   -1.2000    0.0000 O   0  0
    3.9000    0.7500    0.0000 O   0  0
    9.0999    1.9500    0.0000 O   0  0
   10.3999    0.0000    0.0000 O   0  0
    2.6000    0.0000    0.0000 C   0  0
    1.3000    0.7500    0.0000 C   0  0
   11.6999    0.7500    0.0000 C   0  0
   12.9999    0.0000    0.0000 C   0  0
    6.5000    1.7500    0.0000 H   0  0
    5.6340    1.2501    0.0000 H   0  0
    7.7999   -1.0000    0.0000 H   0  0
    8.6659   -0.5001    0.0000 H   0  0
    2.6000   -1.0000    0.0000 H   0  0
    3.4659   -0.5001    0.0000 H   0  0
    0.4338    0.2503    0.0000 H   0  0
    1.3000    1.7500    0.0000 H   0  0
    0.4340    1.2501    0.0000 H   0  0
   11.6999    1.7500    0.0000 H   0  0
   10.8340    1.2501    0.0000 H   0  0
   13.8661    0.4997    0.0000 H   0  0
   12.9999   -1.0000    0.0000 H   0  0
   13.8658   -0.5001    0.0000 H   0  0
  1  2  1  0
  1  6  1  0
  1  5  2  0
  2  3  1  0
  3  4  1  0
  4  8  1  0
  4  7  2  0
  6  9  1  0
  8 11  1  0
  9 10  1  0
 11 12  1  0
  2 13  1  0
  2 14  1  0
  3 15  1  0
  3 16  1  0
  9 17  1  0
  9 18  1  0
 10 19  1  0
 10 20  1  0
 10 21  1  0
 11 22  1  0
 11 23  1  0
 12 24  1  0
 12 25  1  0
 12 26  1  0
V    1 0
V    2 1
V    3 2
V    4 3
V    5 4
V    6 5
V    7 6
V    8 7
V    9 8
V   10 9
V   11 10
V   12 11
M  END
> <DSSTox_RID>
61720

> <DSSTox_CID>
18732

> <DSSTox_CID_Parent>
18732

> <DSSTox_Generic_SID>
38732

> <DSSTox_FileID>
786_TXCST2_v1a

> <STRUCTURE_Formula>
C8H14O4

> <STRUCTURE_MolecularWeight>
174.1944

> <STRUCTURE_ChemicalType>
defined organic

> <STRUCTURE_TestedForm_DefinedOrganic>
parent

> <STRUCTURE_Shown>
tested chemical

> <TestSubstance_ChemicalName>
Butanedioic acid, diethyl ester

> <TestSubstance_CASRN>
123-25-1

> <TestSubstance_Description>
single chemical compound

> <Source_ChemicalNote>
tested chemical contained 0.03% water

> <STRUCTURE_ChemicalName_IUPAC>
diethyl butanedioate

> <STRUCTURE_SMILES>
O=C(OCC)CCC(OCC)=O

> <STRUCTURE_Parent_SMILES>
O=C(OCC)CCC(OCC)=O

> <STRUCTURE_InChIS>
InChI=1S/C8H14O4/c1-3-11-7(9)5-6-8(10)12-4-2/h3-6H2,1-2H3

> <STRUCTURE_InChIKey>
DKMROQRQHGEIOW-UHFFFAOYSA-N

> <Substance_modify_yyyymmdd>
20080429

> <Coord_Metals>
0

> <Index>
786

> <Canonical_Smiles>
CCOC(=O)CCC(=O)OCC

> <Molecular_Weight>
174.19435

> <Frequency>
1

$$$$

  SciTegic          2D

 31 30  0  0  0  0            999 V2000
   10.3999    0.0000    0.0000 C   0  0
    9.0999    0.7500    0.0000 C   0  0
    7.7999    0.0000    0.0000 C   0  0
    6.5000    0.7500    0.0000 C   0  0
    5.2000    0.0000    0.0000 C   0  0
    3.9000    0.7500    0.0000 C   0  0
    2.6000    0.0000    0.0000 C   0  0
    1.3000    0.7500    0.0000 C   0  0
   11.6999    0.7500    0.0000 S   0  0
   11.6999    1.9500    0.0000 O   0  0
   12.7390    1.3502    0.0000 O   0  0
   12.9999    0.0000    0.0000 N   0  0
   10.3999   -1.2000    0.0000 F   0  0
    9.3608   -0.6002    0.0000 F   0  0
    9.0999    1.9500    0.0000 F   0  0
    8.0608    1.3502    0.0000 F   0  0
    7.7999   -1.2000    0.0000 F   0  0
    6.7608   -0.6002    0.0000 F   0  0
    6.5000    1.9500    0.0000 F   0  0
    5.4608    1.3502    0.0000 F   0  0
    5.2000   -1.2000    0.0000 F   0  0
    4.1608   -0.6002    0.0000 F   0  0
    3.9000    1.9500    0.0000 F   0  0
    2.8608    1.3502    0.0000 F   0  0
    2.6000   -1.2000    0.0000 F   0  0
    1.5608   -0.6002    0.0000 F   0  0
    0.2606    0.1503    0.0000 F   0  0
    1.3000    1.9500    0.0000 F   0  0
    0.2609    1.3502    0.0000 F   0  0
   13.8661    0.4997    0.0000 H   0  0
   12.9999   -1.0000    0.0000 H   0  0
  1  2  1  0
  1  9  1  0
  1 13  1  0
  1 14  1  0
  2  3  1  0
  2 15  1  0
  2 16  1  0
  3  4  1  0
  3 17  1  0
  3 18  1  0
  4  5  1  0
  4 19  1  0
  4 20  1  0
  5  6  1  0
  5 21  1  0
  5 22  1  0
  6  7  1  0
  6 23  1  0
  6 24  1  0
  7  8  1  0
  7 25  1  0
  7 26  1  0
  8 27  1  0
  8 28  1  0
  8 29  1  0
  9 10  2  0
  9 12  1  0
  9 11  2  0
 12 30  1  0
 12 31  1  0
V    1 0
V    2 1
V    3 2
V    4 3
V    5 4
V    6 5
V    7 6
V    8 7
V    9 8
V   10 9
V   11 10
V   12 11
V   13 12
V   14 13
V   15 14
V   16 15
V   17 16
V   18 17
V   19 18
V   20 19
V   21 20
V   22 21
V   23 22
V   24 23
V   25 24
V   26 25
V   27 26
V   28 27
V   29 28
M  END
> <DSSTox_RID>
62328

> <DSSTox_CID>
18939

> <DSSTox_CID_Parent>
18939

> <DSSTox_Generic_SID>
38939

> <DSSTox_FileID>
787_TXCST2_v1a

> <STRUCTURE_Formula>
C8H2F17NO2S

> <STRUCTURE_MolecularWeight>
499.1448

> <STRUCTURE_ChemicalType>
defined organic

> <STRUCTURE_TestedForm_DefinedOrganic>
parent

> <STRUCTURE_Shown>
tested chemical

> <TestSubstance_ChemicalName>
Perfluorooctanesulfonamide

> <TestSubstance_CASRN>
754-91-6

> <TestSubstance_Description>
single chemical compound

> <STRUCTURE_ChemicalName_IUPAC>
1,1,2,2,3,3,4,4,5,5,6,6,7,7,8,8,8-heptadecafluorooctane-1-sulfonamide

> <STRUCTURE_SMILES>
FC(F)(C(F)(F)S(N)(=O)=O)C(F)(F)C(F)(F)C(F)(F)C(F)(F)C(F)(F)C(F)(F)F

> <STRUCTURE_Parent_SMILES>
FC(F)(C(F)(F)S(N)(=O)=O)C(F)(F)C(F)(F)C(F)(F)C(F)(F)C(F)(F)C(F)(F)F

> <STRUCTURE_InChIS>
InChI=1S/C8H2F17NO2S/c9-1(10,3(13,14)5(17,18)7(21,22)23)2(11,12)4(15,16)6(19,20)8(24,25)29(26,27)28/h(H2,26,27,28)

> <STRUCTURE_InChIKey>
RRRXPPIDPYTNJG-UHFFFAOYSA-N

> <Substance_modify_yyyymmdd>
20080429

> <Coord_Metals>
0

> <Index>
787

> <Canonical_Smiles>
NS(=O)(=O)C(F)(F)C(F)(F)C(F)(F)C(F)(F)C(F)(F)C(F)(F)C(F)(F)C(F)(F)F

> <Molecular_Weight>
499.14483

> <Frequency>
1

$$$$

  SciTegic          2D

 26 25  0  0  0  0            999 V2000
    9.0999    2.2507    0.0000 C   0  0
    9.0999    0.7500    0.0000 C   0  0
    7.7999    0.0000    0.0000 C   0  0
    7.7985   -1.5008    0.0000 N   0  0
    6.4985   -2.2508    0.0000 O   0  0
    6.4971   -3.7516    0.0000 C   0  0
    7.5359   -4.3523    0.0000 O   0  0
    5.1971   -4.5016    0.0000 N   0  0
    5.1957   -6.0025    0.0000 C   0  0
   10.3999    0.0000    0.0000 S   0  0
   11.6999    0.7500    0.0000 C   0  0
    7.7732    1.5119    0.0000 C   0  0
    9.9656    2.7513    0.0000 H   0  0
    9.0995    3.2507    0.0000 H   0  0
    8.2337    2.7505    0.0000 H   0  0
    6.9342    0.5005    0.0000 H   0  0
    4.3314   -4.0011    0.0000 H   0  0
    4.3295   -6.5022    0.0000 H   0  0
    5.1952   -7.0025    0.0000 H   0  0
    6.0614   -6.5030    0.0000 H   0  0
   12.5661    0.2503    0.0000 H   0  0
   12.5659    1.2501    0.0000 H   0  0
   11.6999    1.7500    0.0000 H   0  0
    6.9080    1.0104    0.0000 H   0  0
    6.9062    2.0103    0.0000 H   0  0
    7.7711    2.5119    0.0000 H   0  0
  1  2  1  0
  3  2  1  0
  2 10  1  0
  2 12  1  0
  3  4  2  0
  4  5  1  0
  5  6  1  0
  6  7  2  0
  6  8  1  0
  8  9  1  0
 10 11  1  0
  1 13  1  0
  1 14  1  0
  1 15  1  0
  3 16  1  0
  8 17  1  0
  9 18  1  0
  9 19  1  0
  9 20  1  0
 11 21  1  0
 11 22  1  0
 11 23  1  0
 12 24  1  0
 12 25  1  0
 12 26  1  0
V    1 0
V    2 1
V    3 2
V    4 3
V    5 4
V    6 5
V    7 6
V    8 7
V    9 8
V   10 9
V   11 10
V   12 11
M  END
> <DSSTox_RID>
65354

> <DSSTox_CID>
39

> <DSSTox_CID_Parent>
39

> <DSSTox_Generic_SID>
39223

> <DSSTox_FileID>
788_TXCST2_v1a

> <STRUCTURE_Formula>
C7H14N2O2S

> <STRUCTURE_MolecularWeight>
190.2633

> <STRUCTURE_ChemicalType>
defined organic

> <STRUCTURE_TestedForm_DefinedOrganic>
parent

> <STRUCTURE_Shown>
tested chemical

> <TestSubstance_ChemicalName>
Aldicarb

> <TestSubstance_CASRN>
116-06-3

> <TestSubstance_Description>
single chemical compound

> <STRUCTURE_ChemicalName_IUPAC>
(1E)-2-methyl-2-(methylthio)propanal O-[(methylamino)carbonyl]oxime

> <STRUCTURE_SMILES>
CC(C=NOC(=O)NC)(SC)C

> <STRUCTURE_Parent_SMILES>
CC(C=NOC(=O)NC)(SC)C

> <STRUCTURE_InChIS>
InChI=1S/C7H14N2O2S/c1-7(2,12-4)5-9-11-6(10)8-3/h5H,1-4H3,(H,8,10)/b9-5+

> <STRUCTURE_InChIKey>
QGLZXHRNAYXIBU-WEVVVXLNSA-N

> <Substance_modify_yyyymmdd>
20080429

> <Coord_Metals>
0

> <Index>
788

> <Canonical_Smiles>
CNC(=O)ON=CC(C)(C)SC

> <Molecular_Weight>
190.26325

> <Frequency>
1

$$$$

  SciTegic          2D

 21 21  0  0  0  0            999 V2000
    1.2990   -0.7500    0.0000 C   0  0
    1.2990    0.7500    0.0000 C   0  0
    2.5973   -1.5031    0.0000 C   0  0
    2.5972    1.5031    0.0000 C   0  0
    3.6375   -0.9049    0.0000 O   0  0
    3.6375    0.9049    0.0000 O   0  0
    2.5951   -3.0039    0.0000 O   0  0
    2.5951    3.0039    0.0000 O   0  0
    0.0000   -1.5000    0.0000 C   0  0
    0.0000    1.5000    0.0000 C   0  0
   -1.2990   -0.7500    0.0000 C   0  0
   -1.2990    0.7500    0.0000 C   0  0
    3.8933   -3.7570    0.0000 C   0  0
    3.4601    3.5057    0.0000 H   0  0
    0.0000   -2.5000    0.0000 H   0  0
    0.0000    2.5000    0.0000 H   0  0
   -2.1651   -1.2500    0.0000 H   0  0
   -2.1651    1.2500    0.0000 H   0  0
    3.8919   -4.7570    0.0000 H   0  0
    4.7586   -4.2584    0.0000 H   0  0
    4.7602   -3.2585    0.0000 H   0  0
  1  2  2  0
  1  3  1  0
  1  9  1  0
  2  4  1  0
  2 10  1  0
  3  5  2  0
  3  7  1  0
  4  6  2  0
  4  8  1  0
  7 13  1  0
  9 11  2  0
 10 12  2  0
 11 12  1  0
  8 14  1  0
  9 15  1  0
 10 16  1  0
 11 17  1  0
 12 18  1  0
 13 19  1  0
 13 20  1  0
 13 21  1  0
V    1 0
V    2 1
V    3 2
V    4 3
V    5 4
V    6 5
V    7 6
V    8 7
V    9 8
V   10 9
V   11 10
V   12 11
V   13 12
M  END
> <DSSTox_RID>
65471

> <DSSTox_CID>
20001

> <DSSTox_CID_Parent>
20001

> <DSSTox_Generic_SID>
40001

> <DSSTox_FileID>
790_TXCST2_v1a

> <STRUCTURE_Formula>
C9H8O4

> <STRUCTURE_MolecularWeight>
180.1574

> <STRUCTURE_ChemicalType>
defined organic

> <STRUCTURE_TestedForm_DefinedOrganic>
parent

> <STRUCTURE_Shown>
tested chemical

> <TestSubstance_ChemicalName>
Monomethyl phthalate

> <TestSubstance_CASRN>
4376-18-5

> <TestSubstance_Description>
single chemical compound

> <STRUCTURE_ChemicalName_IUPAC>
2-(methoxycarbonyl)benzoic acid

> <STRUCTURE_SMILES>
O=C(OC)C(C=CC=C1)=C1C(O)=O

> <STRUCTURE_Parent_SMILES>
O=C(OC)C(C=CC=C1)=C1C(O)=O

> <STRUCTURE_InChIS>
InChI=1S/C9H8O4/c1-13-9(12)7-5-3-2-4-6(7)8(10)11/h2-5H,1H3,(H,10,11)

> <STRUCTURE_InChIKey>
FNJSWIPFHMKRAT-UHFFFAOYSA-N

> <Substance_modify_yyyymmdd>
20080429

> <Coord_Metals>
0

> <Index>
790

> <Canonical_Smiles>
COC(=O)c1ccccc1C(=O)O

> <Molecular_Weight>
180.15741

> <Frequency>
1

$$$$

  SciTegic          2D

 30 30  0  0  0  0            999 V2000
    1.2990   -0.7500    0.0000 C   0  0
    1.2990    0.7500    0.0000 C   0  0
    2.5973   -1.5031    0.0000 C   0  0
    2.5972    1.5031    0.0000 C   0  0
    3.6375   -0.9049    0.0000 O   0  0
    3.6375    0.9049    0.0000 O   0  0
    2.5951   -3.0039    0.0000 O   0  0
    2.5951    3.0039    0.0000 O   0  0
    0.0000   -1.5000    0.0000 C   0  0
    0.0000    1.5000    0.0000 C   0  0
   -1.2990   -0.7500    0.0000 C   0  0
   -1.2990    0.7500    0.0000 C   0  0
    3.8933   -3.7570    0.0000 C   0  0
    3.8912   -5.2578    0.0000 C   0  0
    5.1894   -6.0109    0.0000 C   0  0
    5.1873   -7.5117    0.0000 C   0  0
    3.4601    3.5057    0.0000 H   0  0
    0.0000   -2.5000    0.0000 H   0  0
    0.0000    2.5000    0.0000 H   0  0
   -2.1651   -1.2500    0.0000 H   0  0
   -2.1651    1.2500    0.0000 H   0  0
    3.8952   -2.7570    0.0000 H   0  0
    4.7602   -3.2585    0.0000 H   0  0
    3.0260   -4.7564    0.0000 H   0  0
    3.0243   -5.7563    0.0000 H   0  0
    5.1913   -5.0109    0.0000 H   0  0
    6.0563   -5.5124    0.0000 H   0  0
    6.0523   -8.0135    0.0000 H   0  0
    5.1854   -8.5117    0.0000 H   0  0
    4.3204   -8.0102    0.0000 H   0  0
  1  2  2  0
  1  3  1  0
  1  9  1  0
  2  4  1  0
  2 10  1  0
  3  5  2  0
  3  7  1  0
  4  6  2  0
  4  8  1  0
  7 13  1  0
  9 11  2  0
 10 12  2  0
 11 12  1  0
 13 14  1  0
 14 15  1  0
 15 16  1  0
  8 17  1  0
  9 18  1  0
 10 19  1  0
 11 20  1  0
 12 21  1  0
 13 22  1  0
 13 23  1  0
 14 24  1  0
 14 25  1  0
 15 26  1  0
 15 27  1  0
 16 28  1  0
 16 29  1  0
 16 30  1  0
V    1 0
V    2 1
V    3 2
V    4 3
V    5 4
V    6 5
V    7 6
V    8 7
V    9 8
V   10 9
V   11 10
V   12 11
V   13 12
V   14 13
V   15 14
V   16 15
M  END
> <DSSTox_RID>
59950

> <DSSTox_CID>
20002

> <DSSTox_CID_Parent>
20002

> <DSSTox_Generic_SID>
40002

> <DSSTox_FileID>
791_TXCST2_v1a

> <STRUCTURE_Formula>
C12H14O4

> <STRUCTURE_MolecularWeight>
222.2372

> <STRUCTURE_ChemicalType>
defined organic

> <STRUCTURE_TestedForm_DefinedOrganic>
parent

> <STRUCTURE_Shown>
tested chemical

> <TestSubstance_ChemicalName>
Monobutyl phthalate

> <TestSubstance_CASRN>
131-70-4

> <TestSubstance_Description>
single chemical compound

> <STRUCTURE_ChemicalName_IUPAC>
2-(butoxycarbonyl)benzoic acid

> <STRUCTURE_SMILES>
O=C(OCCCC)C(C=CC=C1)=C1C(O)=O

> <STRUCTURE_Parent_SMILES>
O=C(OCCCC)C(C=CC=C1)=C1C(O)=O

> <STRUCTURE_InChIS>
InChI=1S/C12H14O4/c1-2-3-8-16-12(15)10-7-5-4-6-9(10)11(13)14/h4-7H,2-3,8H2,1H3,(H,13,14)

> <STRUCTURE_InChIKey>
YZBOVSFWWNVKRJ-UHFFFAOYSA-N

> <Substance_modify_yyyymmdd>
20080429

> <Coord_Metals>
0

> <Index>
791

> <Canonical_Smiles>
CCCCOC(=O)c1ccccc1C(=O)O

> <Molecular_Weight>
222.23715

> <Frequency>
1

$$$$

  SciTegic          2D

 20 19  0  0  0  0            999 V2000
    5.2000    0.0000    0.0000 C   0  0
    5.2000   -1.2000    0.0000 O   0  0
    6.5000    0.7500    0.0000 O   0  0
    3.9000    0.7500    0.0000 C   0  0
    2.6000    0.0000    0.0000 C   0  0
    1.3000    0.7500    0.0000 C   0  0
    7.7999    0.0000    0.0000 C   0  0
    9.0999    0.7500    0.0000 C   0  0
    4.7659    1.2501    0.0000 H   0  0
    3.9000    1.7500    0.0000 H   0  0
    1.7340   -0.5001    0.0000 H   0  0
    2.6000   -1.0000    0.0000 H   0  0
    0.4338    0.2503    0.0000 H   0  0
    0.4340    1.2501    0.0000 H   0  0
    1.3000    1.7500    0.0000 H   0  0
    6.9340   -0.5001    0.0000 H   0  0
    7.7999   -1.0000    0.0000 H   0  0
    9.9661    0.2503    0.0000 H   0  0
    9.9659    1.2501    0.0000 H   0  0
    9.0999    1.7500    0.0000 H   0  0
  1  2  2  0
  1  3  1  0
  1  4  1  0
  3  7  1  0
  4  5  1  0
  5  6  1  0
  7  8  1  0
  4  9  1  0
  4 10  1  0
  5 11  1  0
  5 12  1  0
  6 13  1  0
  6 14  1  0
  6 15  1  0
  7 16  1  0
  7 17  1  0
  8 18  1  0
  8 19  1  0
  8 20  1  0
V    1 0
V    2 1
V    3 2
V    4 3
V    5 4
V    6 5
V    7 6
V    8 7
M  END
> <DSSTox_RID>
59996

> <DSSTox_CID>
20111

> <DSSTox_CID_Parent>
20111

> <DSSTox_Generic_SID>
40111

> <DSSTox_FileID>
792_TXCST2_v1a

> <STRUCTURE_Formula>
C6H12O2

> <STRUCTURE_MolecularWeight>
116.1583

> <STRUCTURE_ChemicalType>
defined organic

> <STRUCTURE_TestedForm_DefinedOrganic>
parent

> <STRUCTURE_Shown>
tested chemical

> <TestSubstance_ChemicalName>
Ethyl butyrate

> <TestSubstance_CASRN>
105-54-4

> <TestSubstance_Description>
single chemical compound

> <STRUCTURE_ChemicalName_IUPAC>
ethyl butanoate

> <STRUCTURE_SMILES>
O=C(CCC)OCC

> <STRUCTURE_Parent_SMILES>
O=C(CCC)OCC

> <STRUCTURE_InChIS>
InChI=1S/C6H12O2/c1-3-5-6(7)8-4-2/h3-5H2,1-2H3

> <STRUCTURE_InChIKey>
OBNCKNCVKJNDBV-UHFFFAOYSA-N

> <Substance_modify_yyyymmdd>
20080429

> <Coord_Metals>
0

> <Index>
792

> <Canonical_Smiles>
CCCC(=O)OCC

> <Molecular_Weight>
116.15828

> <Frequency>
1

$$$$

  SciTegic          2D

 29 28  0  0  0  0            999 V2000
    9.0999    0.7500    0.0000 C   0  0
    7.7999    0.0000    0.0000 C   0  0
    6.5000    0.7500    0.0000 C   0  0
    5.2000    0.0000    0.0000 C   0  0
    3.9000    0.7500    0.0000 C   0  0
    2.6000    0.0000    0.0000 C   0  0
    1.3000    0.7500    0.0000 C   0  0
    9.0999    1.9500    0.0000 O   0  0
   10.3999    0.0000    0.0000 O   0  0
   11.6999    0.7500    0.0000 C   0  0
   12.9999    0.0000    0.0000 C   0  0
    8.6659   -0.5001    0.0000 H   0  0
    7.7999   -1.0000    0.0000 H   0  0
    5.6340    1.2501    0.0000 H   0  0
    6.5000    1.7500    0.0000 H   0  0
    4.3340   -0.5001    0.0000 H   0  0
    5.2000   -1.0000    0.0000 H   0  0
    3.0340    1.2501    0.0000 H   0  0
    3.9000    1.7500    0.0000 H   0  0
    1.7340   -0.5001    0.0000 H   0  0
    2.6000   -1.0000    0.0000 H   0  0
    0.4338    0.2503    0.0000 H   0  0
    0.4340    1.2501    0.0000 H   0  0
    1.3000    1.7500    0.0000 H   0  0
   10.8340    1.2501    0.0000 H   0  0
   11.6999    1.7500    0.0000 H   0  0
   13.8661    0.4997    0.0000 H   0  0
   13.8658   -0.5001    0.0000 H   0  0
   12.9999   -1.0000    0.0000 H   0  0
  1  2  1  0
  1  9  1  0
  1  8  2  0
  2  3  1  0
  3  4  1  0
  4  5  1  0
  5  6  1  0
  6  7  1  0
  9 10  1  0
 10 11  1  0
  2 12  1  0
  2 13  1  0
  3 14  1  0
  3 15  1  0
  4 16  1  0
  4 17  1  0
  5 18  1  0
  5 19  1  0
  6 20  1  0
  6 21  1  0
  7 22  1  0
  7 23  1  0
  7 24  1  0
 10 25  1  0
 10 26  1  0
 11 27  1  0
 11 28  1  0
 11 29  1  0
V    1 0
V    2 1
V    3 2
V    4 3
V    5 4
V    6 5
V    7 6
V    8 7
V    9 8
V   10 9
V   11 10
M  END
> <DSSTox_RID>
65344

> <DSSTox_CID>
20112

> <DSSTox_CID_Parent>
20112

> <DSSTox_Generic_SID>
40112

> <DSSTox_FileID>
793_TXCST2_v1a

> <STRUCTURE_Formula>
C9H18O2

> <STRUCTURE_MolecularWeight>
158.238

> <STRUCTURE_ChemicalType>
defined organic

> <STRUCTURE_TestedForm_DefinedOrganic>
parent

> <STRUCTURE_Shown>
tested chemical

> <TestSubstance_ChemicalName>
Ethyl heptanoate

> <TestSubstance_CASRN>
106-30-9

> <TestSubstance_Description>
single chemical compound

> <STRUCTURE_ChemicalName_IUPAC>
ethyl heptanoate

> <STRUCTURE_SMILES>
O=C(OCC)CCCCCC

> <STRUCTURE_Parent_SMILES>
O=C(OCC)CCCCCC

> <STRUCTURE_InChIS>
InChI=1S/C9H18O2/c1-3-5-6-7-8-9(10)11-4-2/h3-8H2,1-2H3

> <STRUCTURE_InChIKey>
TVQGDYNRXLTQAP-UHFFFAOYSA-N

> <Substance_modify_yyyymmdd>
20080429

> <Coord_Metals>
0

> <Index>
793

> <Canonical_Smiles>
CCCCCCC(=O)OCC

> <Molecular_Weight>
158.23801

> <Frequency>
1

$$$$

  SciTegic          2D

 43 44  0  0  0  0            999 V2000
    1.2990   -0.7500    0.0000 N   0  0
    1.2990    0.7500    0.0000 C   0  0
    0.0000   -1.5000    0.0000 C   0  0
   -1.2990   -0.7500    0.0000 C   0  0
    0.0000    1.5000    0.0000 C   0  0
   -1.2990    0.7500    0.0000 C   0  0
    0.0000   -3.0008    0.0000 S   0  0
   -1.0394   -3.6005    0.0000 O   0  0
   -0.0006   -4.2008    0.0000 O   0  0
    1.2993   -3.7521    0.0000 N   0  0
    1.2993   -5.2529    0.0000 C   0  0
    0.2599   -5.8526    0.0000 O   0  0
    2.5986   -6.0041    0.0000 N   0  0
    3.8961   -8.2577    0.0000 N   0  0
    1.2980   -8.2524    0.0000 N   0  0
    2.5986   -7.5049    0.0000 C   0  0
    2.5925  -10.5050    0.0000 C   0  0
    3.8930   -9.7577    0.0000 C   0  0
    1.2949   -9.7524    0.0000 C   0  0
   -0.0079  -10.4975    0.0000 O   0  0
   -1.3050   -9.7426    0.0000 C   0  0
    5.1928  -10.5081    0.0000 O   0  0
    6.4930   -9.7584    0.0000 C   0  0
   -2.6003   -1.4978    0.0000 O   0  0
   -3.8990   -0.7455    0.0000 C   0  0
   -5.2003   -1.4932    0.0000 C   0  0
   -6.2387   -0.8918    0.0000 F   0  0
   -5.2024   -2.6932    0.0000 F   0  0
   -6.2405   -2.0916    0.0000 F   0  0
    2.1651    1.2500    0.0000 H   0  0
    0.0000    2.5000    0.0000 H   0  0
   -2.1651    1.2500    0.0000 H   0  0
    2.1655   -3.2523    0.0000 H   0  0
    3.4648   -5.5044    0.0000 H   0  0
    2.5904  -11.5050    0.0000 H   0  0
   -2.1731  -10.2390    0.0000 H   0  0
   -1.3013   -8.7426    0.0000 H   0  0
   -2.1691   -9.2392    0.0000 H   0  0
    7.3590  -10.2584    0.0000 H   0  0
    6.4933   -8.7584    0.0000 H   0  0
    7.3591   -9.2586    0.0000 H   0  0
   -3.8973    0.2545    0.0000 H   0  0
   -3.0322   -0.2469    0.0000 H   0  0
  1  2  1  0
  1  3  2  0
  2  5  2  0
  3  4  1  0
  3  7  1  0
  4  6  2  0
  4 24  1  0
  5  6  1  0
  7  8  2  0
  7 10  1  0
  7  9  2  0
 10 11  1  0
 11 12  2  0
 11 13  1  0
 13 16  1  0
 14 16  2  0
 14 18  1  0
 15 16  1  0
 15 19  2  0
 17 18  2  0
 17 19  1  0
 18 22  1  0
 19 20  1  0
 20 21  1  0
 22 23  1  0
 24 25  1  0
 25 26  1  0
 26 27  1  0
 26 28  1  0
 26 29  1  0
  2 30  1  0
  5 31  1  0
  6 32  1  0
 10 33  1  0
 13 34  1  0
 17 35  1  0
 21 36  1  0
 21 37  1  0
 21 38  1  0
 23 39  1  0
 23 40  1  0
 23 41  1  0
 25 42  1  0
 25 43  1  0
V    1 0
V    2 1
V    3 2
V    4 3
V    5 4
V    6 5
V    7 6
V    8 7
V    9 8
V   10 9
V   11 10
V   12 11
V   13 12
V   14 13
V   15 14
V   16 15
V   17 16
V   18 17
V   19 18
V   20 19
V   21 20
V   22 21
V   23 22
V   24 23
V   25 24
V   26 25
V   27 26
V   28 27
V   29 28
M  END
> <DSSTox_RID>
65297

> <DSSTox_CID>
20222

> <DSSTox_CID_Parent>
23971

> <DSSTox_Generic_SID>
40222

> <DSSTox_FileID>
794_TXCST2_v1a

> <STRUCTURE_Formula>
C14H13F3N5NaO6S

> <STRUCTURE_MolecularWeight>
459.3329

> <STRUCTURE_ChemicalType>
defined organic

> <STRUCTURE_TestedForm_DefinedOrganic>
salt Na

> <STRUCTURE_Shown>
tested chemical

> <TestSubstance_ChemicalName>
Trifloxysulfuron-sodium

> <TestSubstance_CASRN>
199119-58-9

> <TestSubstance_Description>
single chemical compound

> <ChemicalNote>
parent [145099-21-4]

> <Source_ChemicalNote>
tested chemical contained 4.21% water (1.12 moles H2O)

> <STRUCTURE_ChemicalName_IUPAC>
sodium [(4,6-dimethoxypyrimidin-2-yl)carbamoyl]{[3-(2,2,2-trifluoroethoxy)pyridin-2-yl]sulfonyl}azanide

> <STRUCTURE_SMILES>
O=S(C1=NC=CC=C1OCC(F)(F)F)([N-]C(NC2=NC(OC)=CC(OC)=N2)=O)=O.[Na+]

> <STRUCTURE_Parent_SMILES>
O=S(C1=NC=CC=C1OCC(F)(F)F)(NC(NC2=NC(OC)=CC(OC)=N2)=O)=O

> <STRUCTURE_InChIS>
InChI=1S/C14H14F3N5O6S.Na/c1-26-9-6-10(27-2)20-12(19-9)21-13(23)22-29(24,25)11-8(4-3-5-18-11)28-7-14(15,16)17;/h3-6H,7H2,1-2H3,(H2,19,20,21,22,23);/q;+1/p-1

> <STRUCTURE_InChIKey>
UFEIWEXHHOXPGP-UHFFFAOYSA-M

> <Substance_modify_yyyymmdd>
20080429

> <Coord_Metals>
0

> <Index>
794

> <Canonical_Smiles>
COc1cc(OC)nc(NC(=O)NS(=O)(=O)c2ncccc2OCC(F)(F)F)n1

> <Molecular_Weight>
437.35106

> <Frequency>
1

$$$$

  SciTegic          2D

 10  9  0  0  0  0            999 V2000
    2.6000    0.0000    0.0000 N   0  0
    3.9000    0.7500    0.0000 C   0  0
    1.3000    0.7500    0.0000 C   0  0
    3.9000    1.9500    0.0000 S   0  0
    5.2000    0.0000    0.0000 S   0  0
    2.6000   -1.0000    0.0000 H   0  0
    0.4338    0.2503    0.0000 H   0  0
    1.3000    1.7500    0.0000 H   0  0
    0.4340    1.2501    0.0000 H   0  0
    6.0661    0.4997    0.0000 H   0  0
  1  2  1  0
  1  3  1  0
  2  4  2  0
  2  5  1  0
  1  6  1  0
  3  7  1  0
  3  8  1  0
  3  9  1  0
  5 10  1  0
V    1 0
V    2 1
V    3 2
V    4 3
V    5 4
M  END
> <DSSTox_RID>
62297

> <DSSTox_CID>
20361

> <DSSTox_CID_Parent>
23970

> <DSSTox_Generic_SID>
40361

> <DSSTox_FileID>
795_TXCST2_v1a

> <STRUCTURE_Formula>
C2H10NNaO3S2

> <STRUCTURE_MolecularWeight>
183.2255

> <STRUCTURE_ChemicalType>
defined organic

> <STRUCTURE_TestedForm_DefinedOrganic>
salt Na complex 3H2O

> <STRUCTURE_Shown>
tested chemical

> <TestSubstance_ChemicalName>
Metam-sodium hydrate

> <TestSubstance_CASRN>
6734-80-1

> <TestSubstance_Description>
single chemical compound

> <ChemicalNote>
CASRN is for a compound containing x hydrates; CofA indicates that tested chemical was the trihydrate; parent [144-54-7]

> <Source_ChemicalNote>
tested chemical contained 31% water (3.22 moles H2O)

> <STRUCTURE_ChemicalName_IUPAC>
sodium methylcarbamodithioate trihydrate

> <STRUCTURE_SMILES>
CNC([S-])=S.[Na+].O.O.O

> <STRUCTURE_Parent_SMILES>
SC(NC)=S

> <STRUCTURE_InChIS>
InChI=1S/C2H5NS2.Na.3H2O/c1-3-2(4)5;;;;/h1H3,(H2,3,4,5);;3*1H2/q;+1;;;/p-1

> <STRUCTURE_InChIKey>
QRQDRWKSESXODM-UHFFFAOYSA-M

> <Substance_modify_yyyymmdd>
20080429

> <Coord_Metals>
0

> <Index>
795

> <Canonical_Smiles>
CNC(=S)S

> <Molecular_Weight>
107.1978

> <Frequency>
1

$$$$

  SciTegic          2D

 29 30  0  0  0  0            999 V2000
    3.6375   -0.9049    0.0000 O   0  0
    2.5973   -1.5031    0.0000 C   0  0
    1.2990   -0.7500    0.0000 C   0  0
    1.2990    0.7500    0.0000 C   0  0
    0.0000    1.5000    0.0000 C   0  0
   -1.2990    0.7500    0.0000 C   0  0
   -1.2990   -0.7500    0.0000 C   0  0
    0.0000   -1.5000    0.0000 C   0  0
   -2.3383   -1.3500    0.0000 Cl  0  0
    2.5972    1.5031    0.0000 O   0  0
    2.5951   -3.0039    0.0000 N   0  0
    3.8933   -3.7570    0.0000 C   0  0
    3.8934   -5.2570    0.0000 C   0  0
    5.1924   -6.0070    0.0000 C   0  0
    6.4915   -5.2571    0.0000 C   0  0
    6.4915   -3.7571    0.0000 C   0  0
    5.1925   -3.0070    0.0000 C   0  0
    5.1925   -1.8070    0.0000 Cl  0  0
    7.7928   -6.0048    0.0000 N   0  0
    8.8311   -5.4034    0.0000 O   0  0
    7.7948   -7.2048    0.0000 O   0  0
    0.0000    2.5000    0.0000 H   0  0
   -2.1651    1.2500    0.0000 H   0  0
    0.0000   -2.5000    0.0000 H   0  0
    2.5958    2.5031    0.0000 H   0  0
    1.7282   -3.5024    0.0000 H   0  0
    3.0274   -5.7570    0.0000 H   0  0
    5.1924   -7.0070    0.0000 H   0  0
    7.3575   -3.2571    0.0000 H   0  0
  1  2  2  0
  2  3  1  0
  2 11  1  0
  3  4  2  0
  3  8  1  0
  4  5  1  0
  4 10  1  0
  5  6  2  0
  6  7  1  0
  7  8  2  0
  7  9  1  0
 11 12  1  0
 12 13  2  0
 12 17  1  0
 13 14  1  0
 14 15  2  0
 15 16  1  0
 15 19  1  0
 16 17  2  0
 17 18  1  0
 19 20  2  0
 19 21  2  0
  5 22  1  0
  6 23  1  0
  8 24  1  0
 10 25  1  0
 11 26  1  0
 13 27  1  0
 14 28  1  0
 16 29  1  0
V    1 0
V    2 1
V    3 2
V    4 3
V    5 4
V    6 5
V    7 6
V    8 7
V    9 8
V   10 9
V   11 10
V   12 11
V   13 12
V   14 13
V   15 14
V   16 15
V   17 16
V   18 17
V   19 18
V   20 19
V   21 20
M  END
> <DSSTox_RID>
65472

> <DSSTox_CID>
20362

> <DSSTox_CID_Parent>
20362

> <DSSTox_Generic_SID>
40362

> <DSSTox_FileID>
796_TXCST2_v1a

> <STRUCTURE_Formula>
C13H8Cl2N2O4

> <STRUCTURE_MolecularWeight>
327.1196

> <STRUCTURE_ChemicalType>
defined organic

> <STRUCTURE_TestedForm_DefinedOrganic>
parent

> <STRUCTURE_Shown>
tested chemical

> <TestSubstance_ChemicalName>
Niclosamide

> <TestSubstance_CASRN>
50-65-7

> <TestSubstance_Description>
single chemical compound

> <STRUCTURE_ChemicalName_IUPAC>
5-chloro-N-(2-chloro-4-nitrophenyl)-2-hydroxybenzamide

> <STRUCTURE_SMILES>
O=C(NC2=CC=C([N+]([O-])=O)C=C2Cl)C1=C(O)C=CC(Cl)=C1

> <STRUCTURE_Parent_SMILES>
O=C(NC2=CC=C([N+]([O-])=O)C=C2Cl)C1=C(O)C=CC(Cl)=C1

> <STRUCTURE_InChIS>
InChI=1S/C13H8Cl2N2O4/c14-7-1-4-12(18)9(5-7)13(19)16-11-3-2-8(17(20)21)6-10(11)15/h1-6,18H,(H,16,19)

> <STRUCTURE_InChIKey>
RJMUSRYZPJIFPJ-UHFFFAOYSA-N

> <Substance_modify_yyyymmdd>
20080429

> <Coord_Metals>
0

> <Index>
796

> <Canonical_Smiles>
Oc1ccc(Cl)cc1C(=O)Nc2ccc(cc2Cl)N(=O)=O

> <Molecular_Weight>
327.11962

> <Frequency>
1

$$$$

  SciTegic          2D

 38 39  0  0  0  0            999 V2000
    4.7026   -2.7965    0.0000 N   0  0
    6.1849   -2.6746    0.0000 N   0  0
    6.7472   -4.0652    0.0000 C   0  0
    5.5985   -5.0298    0.0000 N   0  0
    4.3262   -4.2353    0.0000 C   0  0
    4.2548   -0.2350    0.0000 C   0  0
    3.7402   -1.6448    0.0000 C   0  0
    3.2908    0.9153    0.0000 O   0  0
    2.2615   -1.9016    0.0000 C   0  0
    1.2990   -0.7500    0.0000 C   0  0
    1.2990    0.7500    0.0000 C   0  0
    0.0000   -1.5000    0.0000 C   0  0
    0.0000    1.5000    0.0000 C   0  0
   -1.2990   -0.7500    0.0000 C   0  0
   -1.2990    0.7500    0.0000 C   0  0
    2.3383    1.3500    0.0000 Cl  0  0
   -2.3383    1.3500    0.0000 Cl  0  0
    5.7332    0.0237    0.0000 C   0  0
    6.2492    1.4330    0.0000 C   0  0
    4.7538    1.1991    0.0000 C   0  0
    6.6960   -1.1275    0.0000 C   0  0
    7.7176   -4.3068    0.0000 H   0  0
    3.3969   -4.6047    0.0000 H   0  0
    3.2699   -0.4079    0.0000 H   0  0
    2.3058    0.7429    0.0000 H   0  0
    1.9173   -2.8405    0.0000 H   0  0
    0.0000   -2.5000    0.0000 H   0  0
    0.0000    2.5000    0.0000 H   0  0
   -2.1651   -1.2500    0.0000 H   0  0
    7.2342    1.6054    0.0000 H   0  0
    5.6076    2.2001    0.0000 H   0  0
    6.5925    2.3723    0.0000 H   0  0
    5.0985    2.1378    0.0000 H   0  0
    3.7684    1.0285    0.0000 H   0  0
    4.1133    1.9671    0.0000 H   0  0
    7.6812   -0.9560    0.0000 H   0  0
    6.3522   -2.0665    0.0000 H   0  0
    7.3372   -1.8948    0.0000 H   0  0
  1  2  1  0
  1  5  1  0
  1  7  1  0
  2  3  2  0
  3  4  1  0
  4  5  2  0
  6  7  1  0
  6  8  1  0
  6 18  1  0
  7  9  2  0
  9 10  1  0
 10 11  2  0
 10 12  1  0
 11 13  1  0
 11 16  1  0
 12 14  2  0
 13 15  2  0
 14 15  1  0
 15 17  1  0
 18 19  1  0
 18 20  1  0
 18 21  1  0
  3 22  1  0
  5 23  1  0
  6 24  1  0
  8 25  1  0
  9 26  1  0
 12 27  1  0
 13 28  1  0
 14 29  1  0
 19 30  1  0
 19 31  1  0
 19 32  1  0
 20 33  1  0
 20 34  1  0
 20 35  1  0
 21 36  1  0
 21 37  1  0
 21 38  1  0
V    1 0
V    2 1
V    3 2
V    4 3
V    5 4
V    6 5
V    7 6
V    8 7
V    9 8
V   10 9
V   11 10
V   12 11
V   13 12
V   14 13
V   15 14
V   16 15
V   17 16
V   18 17
V   19 18
V   20 19
V   21 20
M  END
> <DSSTox_RID>
59967

> <DSSTox_CID>
20363

> <DSSTox_CID_Parent>
20363

> <DSSTox_Generic_SID>
40363

> <DSSTox_FileID>
797_TXCST2_v1a

> <STRUCTURE_Formula>
C15H17Cl2N3O

> <STRUCTURE_MolecularWeight>
326.221

> <STRUCTURE_ChemicalType>
defined organic

> <STRUCTURE_TestedForm_DefinedOrganic>
parent

> <STRUCTURE_Shown>
tested chemical

> <TestSubstance_ChemicalName>
Diniconazole

> <TestSubstance_CASRN>
83657-24-3

> <TestSubstance_Description>
single chemical compound

> <STRUCTURE_ChemicalName_IUPAC>
(1E)-1-(2,4-dichlorophenyl)-4,4-dimethyl-2-(1H-1,2,4-triazol-1-yl)pent-1-en-3-ol

> <STRUCTURE_SMILES>
OC(C(C)(C)C)/C(N2N=CN=C2)=C\C1=C(Cl)C=C(Cl)C=C1

> <STRUCTURE_Parent_SMILES>
OC(C(C)(C)C)/C(N2N=CN=C2)=C\C1=C(Cl)C=C(Cl)C=C1

> <STRUCTURE_InChIS>
InChI=1S/C15H17Cl2N3O/c1-15(2,3)14(21)13(20-9-18-8-19-20)6-10-4-5-11(16)7-12(10)17/h4-9,14,21H,1-3H3/b13-6+

> <STRUCTURE_InChIKey>
FBOUIAKEJMZPQG-AWNIVKPZSA-N

> <Substance_modify_yyyymmdd>
20080429

> <Coord_Metals>
0

> <Index>
797

> <Canonical_Smiles>
CC(C)(C)C(O)C(=Cc1ccc(Cl)cc1Cl)n2cncn2

> <Molecular_Weight>
326.22098

> <Frequency>
1

$$$$

  SciTegic          2D

 26 26  0  0  0  0            999 V2000
    3.8933   -3.7570    0.0000 S   0  0
    2.5951   -3.0039    0.0000 N   0  0
    2.5973   -1.5031    0.0000 N   0  0
    1.2990   -0.7500    0.0000 C   0  0
    1.2990    0.7500    0.0000 C   0  0
    0.0000    1.5000    0.0000 C   0  0
   -1.2990    0.7500    0.0000 C   0  0
   -1.2990   -0.7500    0.0000 C   0  0
    0.0000   -1.5000    0.0000 C   0  0
   -2.6003    1.4977    0.0000 N   0  0
   -3.8990    0.7455    0.0000 C   0  0
   -2.5999    2.9986    0.0000 C   0  0
    4.9336   -3.1588    0.0000 O   0  0
    3.8956   -2.5570    0.0000 O   0  0
    3.8912   -5.2578    0.0000 O   0  0
    2.1651    1.2500    0.0000 H   0  0
    0.0000    2.5000    0.0000 H   0  0
   -2.1651   -1.2500    0.0000 H   0  0
    0.0000   -2.5000    0.0000 H   0  0
   -4.7661    1.2437    0.0000 H   0  0
   -4.7641    0.2438    0.0000 H   0  0
   -3.8973   -0.2545    0.0000 H   0  0
   -1.7340    3.4988    0.0000 H   0  0
   -2.6000    3.9986    0.0000 H   0  0
   -3.4659    3.4986    0.0000 H   0  0
    4.7562   -5.7596    0.0000 H   0  0
  2  1  1  0
  1 13  2  0
  1 14  2  0
  1 15  1  0
  2  3  2  0
  3  4  1  0
  4  5  2  0
  4  9  1  0
  5  6  1  0
  6  7  2  0
  7  8  1  0
  7 10  1  0
  8  9  2  0
 10 11  1  0
 10 12  1  0
  5 16  1  0
  6 17  1  0
  8 18  1  0
  9 19  1  0
 11 20  1  0
 11 21  1  0
 11 22  1  0
 12 23  1  0
 12 24  1  0
 12 25  1  0
 15 26  1  0
V    1 0
V    2 1
V    3 2
V    4 3
V    5 4
V    6 5
V    7 6
V    8 7
V    9 8
V   10 9
V   11 10
V   12 11
V   13 12
V   14 13
V   15 14
M  END
> <DSSTox_RID>
60522

> <DSSTox_CID>
619

> <DSSTox_Generic_SID>
40371

> <DSSTox_FileID>
798_TXCST2_v1a

> <STRUCTURE_Formula>
C8H10N3NaO3S

> <STRUCTURE_MolecularWeight>
251.2381

> <STRUCTURE_ChemicalType>
defined organic

> <STRUCTURE_TestedForm_DefinedOrganic>
salt Na

> <STRUCTURE_Shown>
tested chemical

> <TestSubstance_ChemicalName>
Fenaminosulf

> <TestSubstance_CASRN>
140-56-7

> <TestSubstance_Description>
single chemical compound

> <ChemicalNote>
parent [150-70-9 ]

> <Source_ChemicalNote>
tested chemical contained 5.1% water (0.75 moles H2O)

> <STRUCTURE_ChemicalName_IUPAC>
sodium (E)-[4-(dimethylamino)phenyl]diazenesulfonate

> <STRUCTURE_SMILES>
[Na+].CN(C)c1ccc(/N=N/S([O-])(=O)=O)cc1

> <STRUCTURE_Parent_SMILES>
S(/N=N/C1=CC=C(C=C1)N(C)C)(=O)(=O)O

> <STRUCTURE_InChIS>
InChI=1S/C8H11N3O3S.Na/c1-11(2)8-5-3-7(4-6-8)9-10-15(12,13)14;/h3-6H,1-2H3,(H,12,13,14);/q;+1/p-1/b10-9+;

> <STRUCTURE_InChIKey>
IWDQPCIQCXRBQP-RRABGKBLSA-M

> <Substance_modify_yyyymmdd>
20080429

> <Coord_Metals>
0

> <Index>
798

> <Canonical_Smiles>
CN(C)c1ccc(cc1)N=NS(=O)(=O)O

> <Molecular_Weight>
229.25623

> <Frequency>
1

$$$$

  SciTegic          2D

 27 27  0  0  0  0            999 V2000
    2.5973   -1.5031    0.0000 C   0  0
    3.6375   -0.9049    0.0000 O   0  0
    1.2990   -0.7500    0.0000 C   0  0
    2.5951   -3.0039    0.0000 O   0  0
    1.2990    0.7500    0.0000 C   0  0
    0.0000   -1.5000    0.0000 C   0  0
    0.0000    1.5000    0.0000 C   0  0
   -1.2990   -0.7500    0.0000 C   0  0
   -1.2990    0.7500    0.0000 C   0  0
    3.8933   -3.7570    0.0000 C   0  0
    3.8912   -5.2578    0.0000 C   0  0
    5.1894   -6.0109    0.0000 C   0  0
    5.1873   -7.5117    0.0000 C   0  0
    2.1651    1.2500    0.0000 H   0  0
    0.0000   -2.5000    0.0000 H   0  0
    0.0000    2.5000    0.0000 H   0  0
   -2.1651   -1.2500    0.0000 H   0  0
   -2.1651    1.2500    0.0000 H   0  0
    3.8952   -2.7570    0.0000 H   0  0
    4.7602   -3.2585    0.0000 H   0  0
    3.0260   -4.7564    0.0000 H   0  0
    3.0243   -5.7563    0.0000 H   0  0
    5.1913   -5.0109    0.0000 H   0  0
    6.0563   -5.5124    0.0000 H   0  0
    6.0523   -8.0135    0.0000 H   0  0
    5.1854   -8.5117    0.0000 H   0  0
    4.3204   -8.0102    0.0000 H   0  0
  1  2  2  0
  1  3  1  0
  1  4  1  0
  3  5  2  0
  3  6  1  0
  4 10  1  0
  5  7  1  0
  6  8  2  0
  7  9  2  0
  8  9  1  0
 10 11  1  0
 11 12  1  0
 12 13  1  0
  5 14  1  0
  6 15  1  0
  7 16  1  0
  8 17  1  0
  9 18  1  0
 10 19  1  0
 10 20  1  0
 11 21  1  0
 11 22  1  0
 12 23  1  0
 12 24  1  0
 13 25  1  0
 13 26  1  0
 13 27  1  0
V    1 0
V    2 1
V    3 2
V    4 3
V    5 4
V    6 5
V    7 6
V    8 7
V    9 8
V   10 9
V   11 10
V   12 11
V   13 12
M  END
> <DSSTox_RID>
60399

> <DSSTox_CID>
20694

> <DSSTox_CID_Parent>
20694

> <DSSTox_Generic_SID>
40694

> <DSSTox_FileID>
799_TXCST2_v1a

> <STRUCTURE_Formula>
C11H14O2

> <STRUCTURE_MolecularWeight>
178.2277

> <STRUCTURE_ChemicalType>
defined organic

> <STRUCTURE_TestedForm_DefinedOrganic>
parent

> <STRUCTURE_Shown>
tested chemical

> <TestSubstance_ChemicalName>
Butyl benzoate

> <TestSubstance_CASRN>
136-60-7

> <TestSubstance_Description>
single chemical compound

> <STRUCTURE_ChemicalName_IUPAC>
butyl benzoate

> <STRUCTURE_SMILES>
O=C(OCCCC)C1=CC=CC=C1

> <STRUCTURE_Parent_SMILES>
O=C(OCCCC)C1=CC=CC=C1

> <STRUCTURE_InChIS>
InChI=1S/C11H14O2/c1-2-3-9-13-11(12)10-7-5-4-6-8-10/h4-8H,2-3,9H2,1H3

> <STRUCTURE_InChIKey>
XSIFPSYPOVKYCO-UHFFFAOYSA-N

> <Substance_modify_yyyymmdd>
20080429

> <Coord_Metals>
0

> <Index>
799

> <Canonical_Smiles>
CCCCOC(=O)c1ccccc1

> <Molecular_Weight>
178.22765

> <Frequency>
1

$$$$

  SciTegic          2D

 39 38  0  0  0  0            999 V2000
    7.7999    0.0000    0.0000 C   0  0
    6.5000    0.7500    0.0000 C   0  0
    9.0999    0.7500    0.0000 C   0  0
    7.7999   -1.5007    0.0000 C   0  0
    6.5007   -2.2520    0.0000 O   0  0
   10.3999    0.0000    0.0000 C   0  0
   11.6999    0.7500    0.0000 O   0  0
   10.3999   -1.2000    0.0000 O   0  0
    5.2000    0.0000    0.0000 C   0  0
    5.2000   -1.2000    0.0000 O   0  0
    3.9000    0.7500    0.0000 O   0  0
    9.1239   -0.7669    0.0000 O   0  0
    8.6661   -2.0005    0.0000 O   0  0
    2.6000    0.0000    0.0000 C   0  0
    1.3000    0.7500    0.0000 C   0  0
    6.5007   -3.7528    0.0000 C   0  0
    5.2014   -4.5040    0.0000 C   0  0
   12.9999    0.0000    0.0000 C   0  0
   14.2999    0.7500    0.0000 C   0  0
    5.6340    1.2501    0.0000 H   0  0
    6.5000    1.7500    0.0000 H   0  0
    9.9659    1.2501    0.0000 H   0  0
    9.0999    1.7500    0.0000 H   0  0
    9.1230   -1.7669    0.0000 H   0  0
    3.4659   -0.5001    0.0000 H   0  0
    2.6000   -1.0000    0.0000 H   0  0
    0.4338    0.2503    0.0000 H   0  0
    0.4340    1.2501    0.0000 H   0  0
    1.3000    1.7500    0.0000 H   0  0
    7.3666   -3.2527    0.0000 H   0  0
    7.3668   -4.2525    0.0000 H   0  0
    5.2014   -5.5040    0.0000 H   0  0
    4.3354   -5.0042    0.0000 H   0  0
    4.3352   -4.0043    0.0000 H   0  0
   12.1340   -0.5001    0.0000 H   0  0
   12.9999   -1.0000    0.0000 H   0  0
   15.1661    0.2503    0.0000 H   0  0
   15.1658    1.2501    0.0000 H   0  0
   14.2999    1.7500    0.0000 H   0  0
  1  4  1  0
  1  3  1  0
  1 12  1  0
  1  2  1  0
  2  9  1  0
  3  6  1  0
  4  5  1  0
  4 13  2  0
  5 16  1  0
  6  7  1  0
  6  8  2  0
  7 18  1  0
  9 10  2  0
  9 11  1  0
 11 14  1  0
 14 15  1  0
 16 17  1  0
 18 19  1  0
  2 20  1  0
  2 21  1  0
  3 22  1  0
  3 23  1  0
 12 24  1  0
 14 25  1  0
 14 26  1  0
 15 27  1  0
 15 28  1  0
 15 29  1  0
 16 30  1  0
 16 31  1  0
 17 32  1  0
 17 33  1  0
 17 34  1  0
 18 35  1  0
 18 36  1  0
 19 37  1  0
 19 38  1  0
 19 39  1  0
V    1 0
V    2 1
V    3 2
V    4 3
V    5 4
V    6 5
V    7 6
V    8 7
V    9 8
V   10 9
V   11 10
V   12 11
V   13 12
V   14 13
V   15 14
V   16 15
V   17 16
V   18 17
V   19 18
M  END
> <DSSTox_RID>
60848

> <DSSTox_CID>
20701

> <DSSTox_CID_Parent>
20701

> <DSSTox_Generic_SID>
40701

> <DSSTox_FileID>
800_TXCST2_v1a

> <STRUCTURE_Formula>
C12H20O7

> <STRUCTURE_MolecularWeight>
276.283

> <STRUCTURE_ChemicalType>
defined organic

> <STRUCTURE_TestedForm_DefinedOrganic>
parent

> <STRUCTURE_Shown>
tested chemical

> <TestSubstance_ChemicalName>
Triethyl citrate

> <TestSubstance_CASRN>
77-93-0

> <TestSubstance_Description>
single chemical compound

> <STRUCTURE_ChemicalName_IUPAC>
triethyl 2-hydroxypropane-1,2,3-tricarboxylate

> <STRUCTURE_SMILES>
O=C(OCC)CC(CC(OCC)=O)(O)C(OCC)=O

> <STRUCTURE_Parent_SMILES>
O=C(OCC)CC(CC(OCC)=O)(O)C(OCC)=O

> <STRUCTURE_InChIS>
InChI=1S/C12H20O7/c1-4-17-9(13)7-12(16,11(15)19-6-3)8-10(14)18-5-2/h16H,4-8H2,1-3H3

> <STRUCTURE_InChIKey>
DOOTYTYQINUNNV-UHFFFAOYSA-N

> <Substance_modify_yyyymmdd>
20080429

> <Coord_Metals>
0

> <Index>
800

> <Canonical_Smiles>
CCOC(=O)CC(O)(CC(=O)OCC)C(=O)OCC

> <Molecular_Weight>
276.283

> <Frequency>
1

$$$$

  SciTegic          2D

 42 42  0  0  0  0            999 V2000
    1.2990   -0.7500    0.0000 C   0  0
   -1.2990    0.7500    0.0000 C   0  0
    1.2990    0.7500    0.0000 C   0  0
    0.0000   -1.5000    0.0000 C   0  0
   -2.5973    1.5031    0.0000 C   0  0
   -1.2990   -0.7500    0.0000 C   0  0
    0.0000    1.5000    0.0000 C   0  0
   -3.6375    0.9049    0.0000 O   0  0
   -2.5951    3.0039    0.0000 O   0  0
    2.5973   -1.5031    0.0000 O   0  0
    2.5972    1.5031    0.0000 O   0  0
   -0.0031   -3.0008    0.0000 O   0  0
   -3.8933    3.7570    0.0000 C   0  0
   -3.8912    5.2578    0.0000 C   0  0
   -5.1894    6.0109    0.0000 C   0  0
   -5.1873    7.5117    0.0000 C   0  0
   -6.4855    8.2648    0.0000 C   0  0
   -6.4834    9.7656    0.0000 C   0  0
   -7.7816   10.5187    0.0000 C   0  0
   -7.7794   12.0195    0.0000 C   0  0
   -2.1651   -1.2500    0.0000 H   0  0
    0.0000    2.5000    0.0000 H   0  0
    2.5958   -2.5031    0.0000 H   0  0
    2.5958    2.5031    0.0000 H   0  0
   -0.8698   -3.4996    0.0000 H   0  0
   -3.8952    2.7570    0.0000 H   0  0
   -4.7602    3.2585    0.0000 H   0  0
   -3.0260    4.7564    0.0000 H   0  0
   -3.0243    5.7563    0.0000 H   0  0
   -5.1913    5.0109    0.0000 H   0  0
   -6.0563    5.5124    0.0000 H   0  0
   -4.3221    7.0103    0.0000 H   0  0
   -4.3204    8.0102    0.0000 H   0  0
   -6.4874    7.2648    0.0000 H   0  0
   -7.3524    7.7663    0.0000 H   0  0
   -5.6181    9.2642    0.0000 H   0  0
   -5.6165   10.2641    0.0000 H   0  0
   -7.7835    9.5187    0.0000 H   0  0
   -8.6485   10.0202    0.0000 H   0  0
   -8.6444   12.5213    0.0000 H   0  0
   -7.7775   13.0195    0.0000 H   0  0
   -6.9125   12.5180    0.0000 H   0  0
  1  3  2  0
  1  4  1  0
  1 10  1  0
  2  6  1  0
  2  5  1  0
  2  7  2  0
  3  7  1  0
  3 11  1  0
  4  6  2  0
  4 12  1  0
  5  8  2  0
  5  9  1  0
  9 13  1  0
 13 14  1  0
 14 15  1  0
 15 16  1  0
 16 17  1  0
 17 18  1  0
 18 19  1  0
 19 20  1  0
  6 21  1  0
  7 22  1  0
 10 23  1  0
 11 24  1  0
 12 25  1  0
 13 26  1  0
 13 27  1  0
 14 28  1  0
 14 29  1  0
 15 30  1  0
 15 31  1  0
 16 32  1  0
 16 33  1  0
 17 34  1  0
 17 35  1  0
 18 36  1  0
 18 37  1  0
 19 38  1  0
 19 39  1  0
 20 40  1  0
 20 41  1  0
 20 42  1  0
V    1 0
V    2 1
V    3 2
V    4 3
V    5 4
V    6 5
V    7 6
V    8 7
V    9 8
V   10 9
V   11 10
V   12 11
V   13 12
V   14 13
V   15 14
V   16 15
V   17 16
V   18 17
V   19 18
V   20 19
M  END
> <DSSTox_RID>
61675

> <DSSTox_CID>
20713

> <DSSTox_CID_Parent>
20713

> <DSSTox_Generic_SID>
40713

> <DSSTox_FileID>
801_TXCST2_v1a

> <STRUCTURE_Formula>
C15H22O5

> <STRUCTURE_MolecularWeight>
282.3322

> <STRUCTURE_ChemicalType>
defined organic

> <STRUCTURE_TestedForm_DefinedOrganic>
parent

> <STRUCTURE_Shown>
tested chemical

> <TestSubstance_ChemicalName>
Octyl gallate

> <TestSubstance_CASRN>
1034-01-1

> <TestSubstance_Description>
single chemical compound

> <STRUCTURE_ChemicalName_IUPAC>
octyl 3,4,5-trihydroxybenzoate

> <STRUCTURE_SMILES>
O=C(OCCCCCCCC)C1=CC(O)=C(O)C(O)=C1

> <STRUCTURE_Parent_SMILES>
O=C(OCCCCCCCC)C1=CC(O)=C(O)C(O)=C1

> <STRUCTURE_InChIS>
InChI=1S/C15H22O5/c1-2-3-4-5-6-7-8-20-15(19)11-9-12(16)14(18)13(17)10-11/h9-10,16-18H,2-8H2,1H3

> <STRUCTURE_InChIKey>
NRPKURNSADTHLJ-UHFFFAOYSA-N

> <Substance_modify_yyyymmdd>
20080429

> <Coord_Metals>
0

> <Index>
801

> <Canonical_Smiles>
CCCCCCCCOC(=O)c1cc(O)c(O)c(O)c1

> <Molecular_Weight>
282.33218

> <Frequency>
1

$$$$

  SciTegic          2D

 55 58  0  0  0  0            999 V2000
    2.0440    1.7885    0.0000 C   0  0
   -0.4380    0.3285    0.0000 C   0  0
    3.3032    2.5367    0.0000 C   0  0
   -1.6790   -0.3832    0.0000 C   0  0
    2.0440    0.3467    0.0000 C   0  0
    0.8030   -0.3650    0.0000 C   0  0
   -1.6790   -1.8250    0.0000 C   0  0
   -0.4562    1.7885    0.0000 C   0  0
    4.5625    1.8067    0.0000 C   0  0
    0.8030    2.5185    0.0000 C   0  0
   -2.9565    0.3102    0.0000 C   0  0
    4.5625    0.3285    0.0000 C   0  0
   -2.9382   -2.5732    0.0000 C   0  0
    4.5993    3.2532    0.0000 C   0  0
    0.8212   -1.8067    0.0000 C   0  0
   -4.1792   -0.4015    0.0000 C   0  0
   -4.1792   -1.8432    0.0000 C   0  0
   -0.4197   -2.5550    0.0000 C   0  0
   -1.4801    0.9235    0.0000 F   0  0
    4.5927    4.4532    0.0000 O   0  0
   -5.2209   -2.4390    0.0000 O   0  0
    2.0418    3.2897    0.0000 C   0  0
   -0.4310    3.2691    0.0000 O   0  0
    4.5272    3.2867    0.0000 O   0  0
   -2.9731   -1.1442    0.0000 C   0  0
    5.9034    2.5103    0.0000 C   0  0
    7.1993    3.2675    0.0000 O   0  0
    1.9993    3.2395    0.0000 O   0  0
    2.2979   -0.6205    0.0000 H   0  0
    1.6715   -0.8608    0.0000 H   0  0
    0.4249    1.3157    0.0000 H   0  0
    5.4155    1.2848    0.0000 H   0  0
    1.6819    2.9955    0.0000 H   0  0
   -0.0728    3.0011    0.0000 H   0  0
   -2.9714    1.3101    0.0000 H   0  0
    4.2971   -0.6356    0.0000 H   0  0
    5.5286    0.5867    0.0000 H   0  0
   -2.9360   -3.5732    0.0000 H   0  0
   -0.0639   -1.3415    0.0000 H   0  0
    0.8133   -2.8067    0.0000 H   0  0
   -5.0461    0.0970    0.0000 H   0  0
    0.4615   -3.0276    0.0000 H   0  0
   -1.2927   -3.0428    0.0000 H   0  0
    2.9068    3.7916    0.0000 H   0  0
    1.1749    3.7880    0.0000 H   0  0
    2.0398    4.2897    0.0000 H   0  0
    0.4312    3.7756    0.0000 H   0  0
    3.6618    3.7878    0.0000 H   0  0
   -3.8434   -0.6517    0.0000 H   0  0
   -2.9649   -2.1442    0.0000 H   0  0
   -3.8349   -1.6515    0.0000 H   0  0
    5.9089    1.5103    0.0000 H   0  0
    6.7721    2.0150    0.0000 H   0  0
    8.0682    2.7725    0.0000 H   0  0
    1.9931    4.2395    0.0000 H   0  0
  1  3  1  0
  1  5  1  0
  1 10  1  0
  1 22  1  0
  2  8  1  0
  2  4  1  0
  2 19  1  0
  2  6  1  0
  3  9  1  0
  3 14  1  0
  3 28  1  0
  4  7  1  0
  4 11  1  0
  4 25  1  0
  5  6  1  0
  5 12  1  0
  6 15  1  0
  7 13  2  0
  7 18  1  0
  8 10  1  0
  8 23  1  0
  9 24  1  0
  9 12  1  0
 11 16  2  0
 13 17  1  0
 14 20  2  0
 14 26  1  0
 15 18  1  0
 16 17  1  0
 17 21  2  0
 26 27  1  0
  5 29  1  0
  6 30  1  0
  8 31  1  0
  9 32  1  0
 10 33  1  0
 10 34  1  0
 11 35  1  0
 12 36  1  0
 12 37  1  0
 13 38  1  0
 15 39  1  0
 15 40  1  0
 16 41  1  0
 18 42  1  0
 18 43  1  0
 22 44  1  0
 22 45  1  0
 22 46  1  0
 23 47  1  0
 24 48  1  0
 25 49  1  0
 25 50  1  0
 25 51  1  0
 26 52  1  0
 26 53  1  0
 27 54  1  0
 28 55  1  0
V    1 0
V    2 1
V    3 2
V    4 3
V    5 4
V    6 5
V    7 6
V    8 7
V    9 8
V   10 9
V   11 10
V   12 11
V   13 12
V   14 13
V   15 14
V   16 15
V   17 16
V   18 17
V   19 18
V   20 19
V   21 20
V   22 21
V   23 22
V   24 23
V   25 24
V   26 25
V   27 26
V   28 29
M  END
> <DSSTox_RID>
59784

> <DSSTox_CID>
20742

> <DSSTox_CID_Parent>
20742

> <DSSTox_Generic_SID>
40742

> <DSSTox_FileID>
802_TXCST2_v1a

> <STRUCTURE_Formula>
C21H27FO6

> <STRUCTURE_MolecularWeight>
394.4339

> <STRUCTURE_ChemicalType>
defined organic

> <STRUCTURE_TestedForm_DefinedOrganic>
parent

> <STRUCTURE_Shown>
tested chemical

> <TestSubstance_ChemicalName>
Triamcinolone

> <TestSubstance_CASRN>
124-94-7

> <TestSubstance_Description>
single chemical compound

> <ChemicalNote>
stereochem

> <STRUCTURE_ChemicalName_IUPAC>
(11beta,16alpha)-9-fluoro-11,16,17,21-tetrahydroxypregna-1,4-diene-3,20-dione

> <STRUCTURE_SMILES>
F[C@@]([C@](C=C3)(C)C2=CC3=O)1[C@@H](O)C[C@]([C@](C4)([H])[C@@]([H])1CC2)(C)[C@](C(CO)=O)(O)[C@@H]4O

> <STRUCTURE_Parent_SMILES>
F[C@@]([C@](C=C3)(C)C2=CC3=O)1[C@@H](O)C[C@]([C@](C4)([H])[C@@]([H])1CC2)(C)[C@](C(CO)=O)(O)[C@@H]4O

> <STRUCTURE_InChIS>
InChI=1S/C21H27FO6/c1-18-6-5-12(24)7-11(18)3-4-13-14-8-15(25)21(28,17(27)10-23)19(14,2)9-16(26)20(13,18)22/h5-7,13-16,23,25-26,28H,3-4,8-10H2,1-2H3/t13-,14-,15+,16-,18-,19-,20-,21-/m0/s1

> <STRUCTURE_InChIKey>
GFNANZIMVAIWHM-OBYCQNJPSA-N

> <Substance_modify_yyyymmdd>
20080429

> <Coord_Metals>
0

> <Index>
802

> <Canonical_Smiles>
CC12CC(O)C3(F)C(CCC4=CC(=O)C=CC34C)C1CC(O)C2(O)C(=O)CO

> <Molecular_Weight>
394.43388

> <Frequency>
1

$$$$

  SciTegic          2D

 29 29  0  0  0  0            999 V2000
    2.5973   -1.5031    0.0000 O   0  0
    1.2990   -0.7500    0.0000 C   0  0
    1.2990    0.7500    0.0000 C   0  0
    0.0000    1.5000    0.0000 C   0  0
   -1.2990    0.7500    0.0000 C   0  0
   -1.2990   -0.7500    0.0000 C   0  0
    0.0000   -1.5000    0.0000 C   0  0
   -0.5133   -2.9103    0.0000 C   0  0
    0.4507   -4.0606    0.0000 C   0  0
   -1.9913   -3.1705    0.0000 C   0  0
    0.9930   -2.6423    0.0000 C   0  0
   -2.6003    1.4977    0.0000 O   0  0
   -3.8990    0.7455    0.0000 C   0  0
    2.5958   -2.5031    0.0000 H   0  0
    2.1651    1.2500    0.0000 H   0  0
    0.0000    2.5000    0.0000 H   0  0
   -2.1651   -1.2500    0.0000 H   0  0
    0.1087   -5.0003    0.0000 H   0  0
    1.4355   -3.8873    0.0000 H   0  0
    1.0933   -4.8268    0.0000 H   0  0
   -2.3342   -4.1098    0.0000 H   0  0
   -2.6336   -2.4040    0.0000 H   0  0
   -2.9763   -3.3433    0.0000 H   0  0
    1.3341   -1.7023    0.0000 H   0  0
    1.9776   -2.4676    0.0000 H   0  0
    1.6367   -3.4075    0.0000 H   0  0
   -4.7661    1.2437    0.0000 H   0  0
   -3.8973   -0.2545    0.0000 H   0  0
   -4.7641    0.2438    0.0000 H   0  0
  1  2  1  0
  2  3  2  0
  2  7  1  0
  3  4  1  0
  4  5  2  0
  5  6  1  0
  5 12  1  0
  6  7  2  0
  7  8  1  0
  8  9  1  0
  8 10  1  0
  8 11  1  0
 12 13  1  0
  1 14  1  0
  3 15  1  0
  4 16  1  0
  6 17  1  0
  9 18  1  0
  9 19  1  0
  9 20  1  0
 10 21  1  0
 10 22  1  0
 10 23  1  0
 11 24  1  0
 11 25  1  0
 11 26  1  0
 13 27  1  0
 13 28  1  0
 13 29  1  0
V    1 0
V    2 1
V    3 2
V    4 3
V    5 4
V    6 5
V    7 6
V    8 7
V    9 8
V   10 9
V   11 10
V   12 11
V   13 12
M  END
> <DSSTox_RID>
67011

> <DSSTox_CID>
215

> <DSSTox_CID_Parent>
215

> <DSSTox_Generic_SID>
40788

> <DSSTox_FileID>
803_TXCST2_v1a

> <STRUCTURE_Formula>
C11H16O2

> <STRUCTURE_MolecularWeight>
180.2435

> <STRUCTURE_ChemicalType>
defined organic

> <STRUCTURE_TestedForm_DefinedOrganic>
parent

> <STRUCTURE_Shown>
tested chemical

> <TestSubstance_ChemicalName>
2-tert-Butyl-4-methoxyphenol

> <TestSubstance_CASRN>
121-00-6

> <TestSubstance_Description>
single chemical compound

> <STRUCTURE_ChemicalName_IUPAC>
2-(1,1-dimethylethyl)-4-(methyloxy)phenol

> <STRUCTURE_SMILES>
OC1=CC=C(C=C1C(C)(C)C)OC

> <STRUCTURE_Parent_SMILES>
OC1=CC=C(C=C1C(C)(C)C)OC

> <STRUCTURE_InChIS>
InChI=1S/C11H16O2/c1-11(2,3)9-7-8(13-4)5-6-10(9)12/h5-7,12H,1-4H3

> <STRUCTURE_InChIKey>
MRBKEAMVRSLQPH-UHFFFAOYSA-N

> <Substance_modify_yyyymmdd>
20080429

> <Coord_Metals>
0

> <Index>
803

> <Canonical_Smiles>
COc1ccc(O)c(c1)C(C)(C)C

> <Molecular_Weight>
180.24353

> <Frequency>
1

$$$$

  SciTegic          2D

 46 48  0  0  0  0            999 V2000
   -2.6111    0.7486    0.0000 N   0  0
    0.0000    0.7486    0.0000 C   0  0
    0.0000   -0.7486    0.0000 C   0  0
   -1.2964    1.4973    0.0000 C   0  0
   -2.6111   -0.7486    0.0000 C   0  0
   -1.2964   -1.4973    0.0000 C   0  0
    1.2964    1.4973    0.0000 C   0  0
    1.2964   -1.4973    0.0000 C   0  0
    2.5929   -0.7486    0.0000 C   0  0
    2.5929    0.7486    0.0000 C   0  0
   -3.9122   -1.4966    0.0000 C   0  0
   -3.9141   -2.6966    0.0000 O   0  0
   -5.2109   -0.7445    0.0000 N   0  0
   -2.5829    5.2528    0.0000 C   0  0
   -1.2813    5.9982    0.0000 C   0  0
    0.0151    5.2437    0.0000 C   0  0
    0.0099    3.7437    0.0000 C   0  0
   -1.2919    2.9980    0.0000 C   0  0
   -2.5882    3.7528    0.0000 C   0  0
   -3.6296    3.1565    0.0000 Cl  0  0
   -5.2054    0.7564    0.0000 C   0  0
   -6.5121   -1.4924    0.0000 C   0  0
   -7.8109   -0.7403    0.0000 C   0  0
   -9.1121   -1.4882    0.0000 C   0  0
   -6.5146   -2.9931    0.0000 C   0  0
   -1.2934   -2.4973    0.0000 H   0  0
    1.2964    2.4973    0.0000 H   0  0
    1.2964   -2.4973    0.0000 H   0  0
    3.4589   -1.2486    0.0000 H   0  0
    3.4589    1.2486    0.0000 H   0  0
   -3.4472    5.7558    0.0000 H   0  0
   -1.2777    6.9982    0.0000 H   0  0
    0.8829    5.7406    0.0000 H   0  0
    0.8742    3.2407    0.0000 H   0  0
   -4.3379    1.2537    0.0000 H   0  0
   -5.2022    1.7563    0.0000 H   0  0
   -6.0698    1.2593    0.0000 H   0  0
   -6.5105   -0.4924    0.0000 H   0  0
   -6.9442   -0.2415    0.0000 H   0  0
   -7.8093    0.2597    0.0000 H   0  0
   -9.9775   -0.9871    0.0000 H   0  0
   -9.9789   -1.9869    0.0000 H   0  0
   -9.1137   -2.4882    0.0000 H   0  0
   -7.3811   -3.4923    0.0000 H   0  0
   -6.5157   -3.9931    0.0000 H   0  0
   -5.6492   -3.4942    0.0000 H   0  0
  1  4  2  0
  1  5  1  0
  2  3  2  0
  2  4  1  0
  2  7  1  0
  3  6  1  0
  3  8  1  0
  4 18  1  0
  5  6  2  0
  5 11  1  0
  7 10  2  0
  8  9  2  0
  9 10  1  0
 11 12  2  0
 11 13  1  0
 13 21  1  0
 13 22  1  0
 14 19  2  0
 14 15  1  0
 15 16  2  0
 16 17  1  0
 17 18  2  0
 18 19  1  0
 19 20  1  0
 22 23  1  0
 22 25  1  0
 23 24  1  0
  6 26  1  0
  7 27  1  0
  8 28  1  0
  9 29  1  0
 10 30  1  0
 14 31  1  0
 15 32  1  0
 16 33  1  0
 17 34  1  0
 21 35  1  0
 21 36  1  0
 21 37  1  0
 22 38  1  0
 23 39  1  0
 23 40  1  0
 24 41  1  0
 24 42  1  0
 24 43  1  0
 25 44  1  0
 25 45  1  0
 25 46  1  0
V    1 0
V    2 1
V    3 2
V    4 3
V    5 4
V    6 5
V    7 6
V    8 7
V    9 8
V   10 9
V   11 10
V   12 11
V   13 12
V   14 13
V   15 14
V   16 15
V   17 16
V   18 17
V   19 18
V   20 19
V   21 20
V   22 21
V   23 22
V   24 23
V   25 24
M  END
> <DSSTox_RID>
59468

> <DSSTox_CID>
21097

> <DSSTox_CID_Parent>
21097

> <DSSTox_Generic_SID>
41097

> <DSSTox_FileID>
804_TXCST2_v1a

> <STRUCTURE_Formula>
C21H21ClN2O

> <STRUCTURE_MolecularWeight>
352.8572

> <STRUCTURE_ChemicalType>
defined organic

> <STRUCTURE_TestedForm_DefinedOrganic>
parent

> <STRUCTURE_Shown>
tested chemical

> <TestSubstance_ChemicalName>
PK 11195

> <TestSubstance_CASRN>
85532-75-8

> <TestSubstance_Description>
single chemical compound

> <Source_ChemicalNote>
tested chemical contained 0.44% water (0.09 moles H2O); tested chemical contained 0.22% ethyl acetate

> <STRUCTURE_ChemicalName_IUPAC>
N-(butan-2-yl)-1-(2-chlorophenyl)-N-methylisoquinoline-3-carboxamide

> <STRUCTURE_SMILES>
O=C(N(C(C)CC)C)C1=CC2=C(C=CC=C2)C(C3=CC=CC=C3Cl)=N1

> <STRUCTURE_Parent_SMILES>
O=C(N(C(C)CC)C)C1=CC2=C(C=CC=C2)C(C3=CC=CC=C3Cl)=N1

> <STRUCTURE_InChIS>
InChI=1S/C21H21ClN2O/c1-4-14(2)24(3)21(25)19-13-15-9-5-6-10-16(15)20(23-19)17-11-7-8-12-18(17)22/h5-14H,4H2,1-3H3

> <STRUCTURE_InChIKey>
RAVIZVQZGXBOQO-UHFFFAOYSA-N

> <Substance_modify_yyyymmdd>
20080429

> <Coord_Metals>
0

> <Index>
804

> <Canonical_Smiles>
CCC(C)N(C)C(=O)c1cc2ccccc2c(n1)c3ccccc3Cl

> <Molecular_Weight>
352.85724

> <Frequency>
1

$$$$

  SciTegic          2D

 38 38  0  0  0  0            999 V2000
    1.2990   -0.7500    0.0000 C   0  0
    1.2990    0.7500    0.0000 C   0  0
    0.0000    1.5000    0.0000 C   0  0
   -1.2990    0.7500    0.0000 C   0  0
   -1.2990   -0.7500    0.0000 C   0  0
    0.0000   -1.5000    0.0000 C   0  0
    2.5973   -1.5031    0.0000 O   0  0
   -2.6003    1.4977    0.0000 O   0  0
   -0.5133   -2.9103    0.0000 C   0  0
    0.4507   -4.0606    0.0000 C   0  0
   -1.9913   -3.1705    0.0000 C   0  0
    0.9930   -2.6423    0.0000 C   0  0
    0.5133    2.9103    0.0000 C   0  0
   -0.4507    4.0606    0.0000 C   0  0
    1.9913    3.1705    0.0000 C   0  0
   -0.9930    2.6423    0.0000 C   0  0
    2.1651    1.2500    0.0000 H   0  0
   -2.1651   -1.2500    0.0000 H   0  0
    2.5958   -2.5031    0.0000 H   0  0
   -3.4657    0.9965    0.0000 H   0  0
    0.1087   -5.0003    0.0000 H   0  0
    1.4355   -3.8873    0.0000 H   0  0
    1.0933   -4.8268    0.0000 H   0  0
   -2.3342   -4.1098    0.0000 H   0  0
   -2.6336   -2.4040    0.0000 H   0  0
   -2.9763   -3.3433    0.0000 H   0  0
    1.3341   -1.7023    0.0000 H   0  0
    1.9776   -2.4676    0.0000 H   0  0
    1.6367   -3.4075    0.0000 H   0  0
   -0.1087    5.0003    0.0000 H   0  0
   -1.4356    3.8873    0.0000 H   0  0
   -1.0934    4.8268    0.0000 H   0  0
    2.3342    4.1098    0.0000 H   0  0
    2.6336    2.4040    0.0000 H   0  0
    2.9763    3.3433    0.0000 H   0  0
   -1.3341    1.7023    0.0000 H   0  0
   -1.9776    2.4676    0.0000 H   0  0
   -1.6368    3.4075    0.0000 H   0  0
  1  2  2  0
  1  6  1  0
  1  7  1  0
  2  3  1  0
  3  4  2  0
  3 13  1  0
  4  5  1  0
  4  8  1  0
  5  6  2  0
  6  9  1  0
  9 10  1  0
  9 11  1  0
  9 12  1  0
 13 14  1  0
 13 15  1  0
 13 16  1  0
  2 17  1  0
  5 18  1  0
  7 19  1  0
  8 20  1  0
 10 21  1  0
 10 22  1  0
 10 23  1  0
 11 24  1  0
 11 25  1  0
 11 26  1  0
 12 27  1  0
 12 28  1  0
 12 29  1  0
 14 30  1  0
 14 31  1  0
 14 32  1  0
 15 33  1  0
 15 34  1  0
 15 35  1  0
 16 36  1  0
 16 37  1  0
 16 38  1  0
V    1 0
V    2 1
V    3 2
V    4 3
V    5 4
V    6 5
V    7 6
V    8 7
V    9 8
V   10 9
V   11 10
V   12 11
V   13 12
V   14 13
V   15 14
V   16 15
M  END
> <DSSTox_RID>
65512

> <DSSTox_CID>
21248

> <DSSTox_CID_Parent>
21248

> <DSSTox_Generic_SID>
41248

> <DSSTox_FileID>
805_TXCST2_v1a

> <STRUCTURE_Formula>
C14H22O2

> <STRUCTURE_MolecularWeight>
222.3233

> <STRUCTURE_ChemicalType>
defined organic

> <STRUCTURE_TestedForm_DefinedOrganic>
parent

> <STRUCTURE_Shown>
tested chemical

> <TestSubstance_ChemicalName>
2,5-Di-tert-butylbenzene-1,4-diol

> <TestSubstance_CASRN>
88-58-4

> <TestSubstance_Description>
single chemical compound

> <STRUCTURE_ChemicalName_IUPAC>
2,5-di-tert-butylbenzene-1,4-diol

> <STRUCTURE_SMILES>
OC1=CC(C(C)(C)C)=C(O)C=C1C(C)(C)C

> <STRUCTURE_Parent_SMILES>
OC1=CC(C(C)(C)C)=C(O)C=C1C(C)(C)C

> <STRUCTURE_InChIS>
InChI=1S/C14H22O2/c1-13(2,3)9-7-12(16)10(8-11(9)15)14(4,5)6/h7-8,15-16H,1-6H3

> <STRUCTURE_InChIKey>
JZODKRWQWUWGCD-UHFFFAOYSA-N

> <Substance_modify_yyyymmdd>
20080825

> <Coord_Metals>
0

> <Index>
805

> <Canonical_Smiles>
CC(C)(C)c1cc(O)c(cc1O)C(C)(C)C

> <Molecular_Weight>
222.32327

> <Frequency>
1

$$$$

  SciTegic          2D

 60 60  0  0  0  0            999 V2000
    1.2990   -0.7500    0.0000 N   0  0
   -1.2990    0.7500    0.0000 O   0  0
    1.2990    0.7500    0.0000 C   0  0
    0.0000   -1.5000    0.0000 C   0  0
   -1.2990   -0.7500    0.0000 C   0  0
    0.0000    1.5000    0.0000 C   0  0
   -1.2999    2.2084    0.0000 C   0  0
   -2.5625    0.0216    0.0000 C   0  0
    2.5988   -1.5004    0.0000 C   0  0
    3.8990   -0.7508    0.0000 C   0  0
    5.1988   -1.5012    0.0000 C   0  0
    6.4990   -0.7516    0.0000 C   0  0
    7.7988   -1.5020    0.0000 C   0  0
    9.0990   -0.7525    0.0000 C   0  0
   10.3987   -1.5029    0.0000 C   0  0
   11.6990   -0.7533    0.0000 C   0  0
   12.9987   -1.5037    0.0000 C   0  0
   14.2989   -0.7541    0.0000 C   0  0
   15.5987   -1.5045    0.0000 C   0  0
   16.8989   -0.7549    0.0000 C   0  0
   18.1987   -1.5053    0.0000 C   0  0
    1.2754    1.7497    0.0000 H   0  0
    2.1531    0.2298    0.0000 H   0  0
   -0.8776   -1.9794    0.0000 H   0  0
    0.8775   -1.9795    0.0000 H   0  0
   -0.4455   -0.2289    0.0000 H   0  0
   -0.0245    0.5003    0.0000 H   0  0
   -2.1662    1.7088    0.0000 H   0  0
   -2.1658    2.7086    0.0000 H   0  0
   -1.2998    3.2084    0.0000 H   0  0
   -2.5629    1.0216    0.0000 H   0  0
   -3.4287    0.5213    0.0000 H   0  0
   -3.4285   -0.4785    0.0000 H   0  0
    2.5985   -2.5004    0.0000 H   0  0
    1.7327   -2.0003    0.0000 H   0  0
    3.8993    0.2492    0.0000 H   0  0
    3.0332   -0.2504    0.0000 H   0  0
    5.1985   -2.5012    0.0000 H   0  0
    4.3327   -2.0011    0.0000 H   0  0
    6.4993    0.2484    0.0000 H   0  0
    5.6332   -0.2512    0.0000 H   0  0
    7.7984   -2.5020    0.0000 H   0  0
    6.9326   -2.0019    0.0000 H   0  0
    9.0993    0.2475    0.0000 H   0  0
    8.2332   -0.2520    0.0000 H   0  0
   10.3984   -2.5029    0.0000 H   0  0
    9.5326   -2.0027    0.0000 H   0  0
   11.6993    0.2467    0.0000 H   0  0
   10.8332   -0.2529    0.0000 H   0  0
   12.9984   -2.5037    0.0000 H   0  0
   12.1326   -2.0036    0.0000 H   0  0
   14.2993    0.2459    0.0000 H   0  0
   13.4332   -0.2537    0.0000 H   0  0
   15.5984   -2.5045    0.0000 H   0  0
   14.7326   -2.0044    0.0000 H   0  0
   16.8992    0.2451    0.0000 H   0  0
   16.0331   -0.2545    0.0000 H   0  0
   19.0650   -1.0059    0.0000 H   0  0
   18.1984   -2.5053    0.0000 H   0  0
   19.0645   -2.0057    0.0000 H   0  0
  1  3  1  0
  1  4  1  0
  1  9  1  0
  2  5  1  0
  2  6  1  0
  3  6  1  0
  4  5  1  0
  5  8  1  0
  6  7  1  0
  9 10  1  0
 10 11  1  0
 11 12  1  0
 12 13  1  0
 13 14  1  0
 14 15  1  0
 15 16  1  0
 16 17  1  0
 17 18  1  0
 18 19  1  0
 19 20  1  0
 20 21  1  0
  3 22  1  0
  3 23  1  0
  4 24  1  0
  4 25  1  0
  5 26  1  0
  6 27  1  0
  7 28  1  0
  7 29  1  0
  7 30  1  0
  8 31  1  0
  8 32  1  0
  8 33  1  0
  9 34  1  0
  9 35  1  0
 10 36  1  0
 10 37  1  0
 11 38  1  0
 11 39  1  0
 12 40  1  0
 12 41  1  0
 13 42  1  0
 13 43  1  0
 14 44  1  0
 14 45  1  0
 15 46  1  0
 15 47  1  0
 16 48  1  0
 16 49  1  0
 17 50  1  0
 17 51  1  0
 18 52  1  0
 18 53  1  0
 19 54  1  0
 19 55  1  0
 20 56  1  0
 20 57  1  0
 21 58  1  0
 21 59  1  0
 21 60  1  0
V    1 0
V    2 1
V    3 2
V    4 3
V    5 4
V    6 5
V    7 6
V    8 7
V    9 8
V   10 9
V   11 10
V   12 11
V   13 12
V   14 13
V   15 14
V   16 15
V   17 16
V   18 17
V   19 18
V   20 19
V   21 20
M  END
> <DSSTox_RID>
61129

> <DSSTox_CID>
21376

> <DSSTox_CID_Parent>
21376

> <DSSTox_Generic_SID>
41376

> <DSSTox_FileID>
806_TXCST2_v1a

> <STRUCTURE_Formula>
C19H39NO

> <STRUCTURE_MolecularWeight>
297.5191

> <STRUCTURE_ChemicalType>
defined organic

> <STRUCTURE_TestedForm_DefinedOrganic>
parent

> <STRUCTURE_Shown>
tested chemical

> <TestSubstance_ChemicalName>
Tridemorph

> <TestSubstance_CASRN>
24602-86-6

> <TestSubstance_Description>
single chemical compound

> <STRUCTURE_ChemicalName_IUPAC>
2,6-dimethyl-4-tridecylmorpholine

> <STRUCTURE_SMILES>
CC1OC(C)CN(CCCCCCCCCCCCC)C1

> <STRUCTURE_Parent_SMILES>
CC1OC(C)CN(CCCCCCCCCCCCC)C1

> <STRUCTURE_InChIS>
InChI=1S/C19H39NO/c1-4-5-6-7-8-9-10-11-12-13-14-15-20-16-18(2)21-19(3)17-20/h18-19H,4-17H2,1-3H3

> <STRUCTURE_InChIKey>
YTOPFCCWCSOHFV-UHFFFAOYSA-N

> <Substance_modify_yyyymmdd>
20080825

> <Coord_Metals>
0

> <Index>
806

> <Canonical_Smiles>
CCCCCCCCCCCCCN1CC(C)OC(C)C1

> <Molecular_Weight>
297.51906

> <Frequency>
1

$$$$

  SciTegic          2D

 26 27  0  0  0  0            999 V2000
    2.5973   -1.5031    0.0000 C   0  0
    3.6375   -0.9049    0.0000 O   0  0
    1.2990   -0.7500    0.0000 C   0  0
    1.2990    0.7500    0.0000 C   0  0
    0.0000   -1.5000    0.0000 C   0  0
    0.0000    1.5000    0.0000 C   0  0
   -1.2990   -0.7500    0.0000 C   0  0
   -1.2990    0.7500    0.0000 C   0  0
    2.5951   -3.0039    0.0000 N   0  0
    2.3383    1.3500    0.0000 I   0  0
    3.8933   -3.7570    0.0000 C   0  0
    3.8934   -5.2570    0.0000 C   0  0
    5.1925   -3.0070    0.0000 C   0  0
    5.1924   -6.0070    0.0000 C   0  0
    6.4915   -3.7571    0.0000 C   0  0
    6.4915   -5.2571    0.0000 C   0  0
    0.0000   -2.5000    0.0000 H   0  0
    0.0000    2.5000    0.0000 H   0  0
   -2.1651   -1.2500    0.0000 H   0  0
   -2.1651    1.2500    0.0000 H   0  0
    1.7282   -3.5024    0.0000 H   0  0
    3.0274   -5.7570    0.0000 H   0  0
    5.1925   -2.0070    0.0000 H   0  0
    5.1924   -7.0070    0.0000 H   0  0
    7.3575   -3.2571    0.0000 H   0  0
    7.3575   -5.7571    0.0000 H   0  0
  1  2  2  0
  1  3  1  0
  1  9  1  0
  3  4  2  0
  3  5  1  0
  4  6  1  0
  4 10  1  0
  5  7  2  0
  6  8  2  0
  7  8  1  0
  9 11  1  0
 11 12  2  0
 11 13  1  0
 12 14  1  0
 13 15  2  0
 14 16  2  0
 15 16  1  0
  5 17  1  0
  6 18  1  0
  7 19  1  0
  8 20  1  0
  9 21  1  0
 12 22  1  0
 13 23  1  0
 14 24  1  0
 15 25  1  0
 16 26  1  0
V    1 0
V    2 1
V    3 2
V    4 3
V    5 4
V    6 5
V    7 6
V    8 7
V    9 8
V   10 9
V   11 10
V   12 11
V   13 12
V   14 13
V   15 14
V   16 15
M  END
> <DSSTox_RID>
61207

> <DSSTox_CID>
21623

> <DSSTox_CID_Parent>
21623

> <DSSTox_Generic_SID>
41623

> <DSSTox_FileID>
807_TXCST2_v1a

> <STRUCTURE_Formula>
C13H10INO

> <STRUCTURE_MolecularWeight>
323.1291

> <STRUCTURE_ChemicalType>
defined organic

> <STRUCTURE_TestedForm_DefinedOrganic>
parent

> <STRUCTURE_Shown>
tested chemical

> <TestSubstance_ChemicalName>
Benodanil

> <TestSubstance_CASRN>
15310-01-7

> <TestSubstance_Description>
single chemical compound

> <STRUCTURE_ChemicalName_IUPAC>
2-iodo-N-phenylbenzamide

> <STRUCTURE_SMILES>
O=C(NC2=CC=CC=C2)C1=C(I)C=CC=C1

> <STRUCTURE_Parent_SMILES>
O=C(NC2=CC=CC=C2)C1=C(I)C=CC=C1

> <STRUCTURE_InChIS>
InChI=1S/C13H10INO/c14-12-9-5-4-8-11(12)13(16)15-10-6-2-1-3-7-10/h1-9H,(H,15,16)

> <STRUCTURE_InChIKey>
LJOZMWRYMKECFF-UHFFFAOYSA-N

> <Substance_modify_yyyymmdd>
20080825

> <Coord_Metals>
0

> <Index>
807

> <Canonical_Smiles>
Ic1ccccc1C(=O)Nc2ccccc2

> <Molecular_Weight>
323.12907

> <Frequency>
1

$$$$

  SciTegic          2D

 40 40  0  0  0  0            999 V2000
    3.8995   -3.7516    0.0000 C   0  0
    3.9005   -5.2525    0.0000 C   0  0
    5.2002   -6.0029    0.0000 C   0  0
    4.7654   -3.2514    0.0000 O   0  0
    2.5997   -3.0012    0.0000 N   0  0
    5.2238   -4.4846    0.0000 C   0  0
    2.6010   -6.0033    0.0000 C   0  0
    1.3003   -3.7520    0.0000 C   0  0
    0.4583   -2.4524    0.0000 C   0  0
    0.4593   -5.0524    0.0000 C   0  0
    2.5988   -1.5004    0.0000 C   0  0
    3.8976   -0.7483    0.0000 C   0  0
    3.8957    0.7517    0.0000 C   0  0
    5.1976   -1.4967    0.0000 C   0  0
    5.1938    1.5033    0.0000 C   0  0
    6.4957   -0.7450    0.0000 C   0  0
    6.4938    0.7550    0.0000 C   0  0
    5.2008   -7.0029    0.0000 H   0  0
    6.0665   -6.5025    0.0000 H   0  0
    6.0661   -5.5026    0.0000 H   0  0
    5.2222   -3.4846    0.0000 H   0  0
    6.0889   -3.9831    0.0000 H   0  0
    6.0907   -4.9830    0.0000 H   0  0
    1.7345   -5.5041    0.0000 H   0  0
    2.6016   -7.0033    0.0000 H   0  0
    1.7354   -6.5039    0.0000 H   0  0
    1.3008   -4.7520    0.0000 H   0  0
    0.9576   -1.5860    0.0000 H   0  0
   -0.0533   -1.5931    0.0000 H   0  0
   -0.5414   -2.4784    0.0000 H   0  0
    0.9594   -5.9183    0.0000 H   0  0
   -0.0515   -5.9120    0.0000 H   0  0
   -0.5403   -5.0272    0.0000 H   0  0
    1.7323   -1.0012    0.0000 H   0  0
    1.7332   -2.0011    0.0000 H   0  0
    3.0290    1.2506    0.0000 H   0  0
    5.1989   -2.4967    0.0000 H   0  0
    5.1925    2.5033    0.0000 H   0  0
    7.3623   -1.2439    0.0000 H   0  0
    7.3592    1.2560    0.0000 H   0  0
  1  2  1  0
  1  5  1  0
  1  4  2  0
  2  3  1  0
  2  6  1  0
  2  7  1  0
  5  8  1  0
  5 11  1  0
  8  9  1  0
  8 10  1  0
 11 12  1  0
 12 13  2  0
 12 14  1  0
 13 15  1  0
 14 16  2  0
 15 17  2  0
 16 17  1  0
  3 18  1  0
  3 19  1  0
  3 20  1  0
  6 21  1  0
  6 22  1  0
  6 23  1  0
  7 24  1  0
  7 25  1  0
  7 26  1  0
  8 27  1  0
  9 28  1  0
  9 29  1  0
  9 30  1  0
 10 31  1  0
 10 32  1  0
 10 33  1  0
 11 34  1  0
 11 35  1  0
 13 36  1  0
 14 37  1  0
 15 38  1  0
 16 39  1  0
 17 40  1  0
V    1 0
V    2 1
V    3 2
V    4 3
V    5 4
V    6 5
V    7 6
V    8 7
V    9 8
V   10 9
V   11 10
V   12 11
V   13 12
V   14 13
V   15 14
V   16 15
V   17 16
M  END
> <DSSTox_RID>
59864

> <DSSTox_CID>
21691

> <DSSTox_CID_Parent>
21691

> <DSSTox_Generic_SID>
41691

> <DSSTox_FileID>
808_TXCST2_v1a

> <STRUCTURE_Formula>
C15H23NO

> <STRUCTURE_MolecularWeight>
233.3492

> <STRUCTURE_ChemicalType>
defined organic

> <STRUCTURE_TestedForm_DefinedOrganic>
parent

> <STRUCTURE_Shown>
tested chemical

> <TestSubstance_ChemicalName>
Butam

> <TestSubstance_CASRN>
35256-85-0

> <TestSubstance_Description>
single chemical compound

> <STRUCTURE_ChemicalName_IUPAC>
N-benzyl-2,2-dimethyl-N-(propan-2-yl)propanamide

> <STRUCTURE_SMILES>
O=C(N(CC1=CC=CC=C1)C(C)C)C(C)(C)C

> <STRUCTURE_Parent_SMILES>
O=C(N(CC1=CC=CC=C1)C(C)C)C(C)(C)C

> <STRUCTURE_InChIS>
InChI=1S/C15H23NO/c1-12(2)16(14(17)15(3,4)5)11-13-9-7-6-8-10-13/h6-10,12H,11H2,1-5H3

> <STRUCTURE_InChIKey>
RJKCKKDSSSRYCB-UHFFFAOYSA-N

> <Substance_modify_yyyymmdd>
20080825

> <Coord_Metals>
0

> <Index>
808

> <Canonical_Smiles>
CC(C)N(Cc1ccccc1)C(=O)C(C)(C)C

> <Molecular_Weight>
233.34921

> <Frequency>
1

$$$$

  SciTegic          2D

 56 55  0  0  0  0            999 V2000
    9.0999    0.7500    0.0000 C   0  0
    7.7999    0.0000    0.0000 C   0  0
   10.3999    0.0000    0.0000 C   0  0
    6.5000    0.7500    0.0000 O   0  0
    7.7999   -1.2000    0.0000 O   0  0
   11.6999    0.7500    0.0000 C   0  0
    5.2000    0.0000    0.0000 C   0  0
   12.9999    0.0000    0.0000 C   0  0
    3.9000    0.7500    0.0000 C   0  0
   14.2999    0.7500    0.0000 C   0  0
    2.6000    0.0000    0.0000 C   0  0
   15.5999    0.0000    0.0000 C   0  0
    1.3000    0.7500    0.0000 C   0  0
   16.8999    0.7500    0.0000 C   0  0
   18.1999    0.0000    0.0000 C   0  0
   19.4998    0.7500    0.0000 C   0  0
   20.7998    0.0000    0.0000 O   0  0
   19.4998    1.9500    0.0000 O   0  0
   22.0998    0.7500    0.0000 C   0  0
   23.3998    0.0000    0.0000 C   0  0
   24.6998    0.7500    0.0000 C   0  0
   25.9998    0.0000    0.0000 C   0  0
    9.0999    1.7500    0.0000 H   0  0
    8.2340    1.2501    0.0000 H   0  0
   10.3999   -1.0000    0.0000 H   0  0
    9.5340   -0.5001    0.0000 H   0  0
   11.6999    1.7500    0.0000 H   0  0
   10.8340    1.2501    0.0000 H   0  0
    5.2000   -1.0000    0.0000 H   0  0
    6.0659   -0.5001    0.0000 H   0  0
   12.9999   -1.0000    0.0000 H   0  0
   12.1340   -0.5001    0.0000 H   0  0
    3.9000    1.7500    0.0000 H   0  0
    3.0340    1.2501    0.0000 H   0  0
   14.2999    1.7500    0.0000 H   0  0
   13.4339    1.2501    0.0000 H   0  0
    2.6000   -1.0000    0.0000 H   0  0
    1.7340   -0.5001    0.0000 H   0  0
   15.5999   -1.0000    0.0000 H   0  0
   14.7339   -0.5001    0.0000 H   0  0
    0.4338    0.2503    0.0000 H   0  0
    1.3000    1.7500    0.0000 H   0  0
    0.4340    1.2501    0.0000 H   0  0
   16.8999    1.7500    0.0000 H   0  0
   16.0339    1.2501    0.0000 H   0  0
   18.1999   -1.0000    0.0000 H   0  0
   19.0658   -0.5001    0.0000 H   0  0
   22.0998    1.7500    0.0000 H   0  0
   21.2339    1.2501    0.0000 H   0  0
   23.3998   -1.0000    0.0000 H   0  0
   22.5339   -0.5001    0.0000 H   0  0
   24.6998    1.7500    0.0000 H   0  0
   23.8339    1.2501    0.0000 H   0  0
   26.8660    0.4997    0.0000 H   0  0
   25.9998   -1.0000    0.0000 H   0  0
   26.8657   -0.5001    0.0000 H   0  0
  1  2  1  0
  1  3  1  0
  2  4  1  0
  2  5  2  0
  3  6  1  0
  4  7  1  0
  6  8  1  0
  7  9  1  0
  8 10  1  0
  9 11  1  0
 10 12  1  0
 11 13  1  0
 12 14  1  0
 14 15  1  0
 15 16  1  0
 16 17  1  0
 16 18  2  0
 17 19  1  0
 19 20  1  0
 20 21  1  0
 21 22  1  0
  1 23  1  0
  1 24  1  0
  3 25  1  0
  3 26  1  0
  6 27  1  0
  6 28  1  0
  7 29  1  0
  7 30  1  0
  8 31  1  0
  8 32  1  0
  9 33  1  0
  9 34  1  0
 10 35  1  0
 10 36  1  0
 11 37  1  0
 11 38  1  0
 12 39  1  0
 12 40  1  0
 13 41  1  0
 13 42  1  0
 13 43  1  0
 14 44  1  0
 14 45  1  0
 15 46  1  0
 15 47  1  0
 19 48  1  0
 19 49  1  0
 20 50  1  0
 20 51  1  0
 21 52  1  0
 21 53  1  0
 22 54  1  0
 22 55  1  0
 22 56  1  0
V    1 0
V    2 1
V    3 2
V    4 3
V    5 4
V    6 5
V    7 6
V    8 7
V    9 8
V   10 9
V   11 10
V   12 11
V   13 12
V   14 13
V   15 14
V   16 15
V   17 16
V   18 17
V   19 18
V   20 19
V   21 20
V   22 21
M  END
> <DSSTox_RID>
60022

> <DSSTox_CID>
21847

> <DSSTox_CID_Parent>
21847

> <DSSTox_Generic_SID>
41847

> <DSSTox_FileID>
809_TXCST2_v1a

> <STRUCTURE_Formula>
C18H34O4

> <STRUCTURE_MolecularWeight>
314.4602

> <STRUCTURE_ChemicalType>
defined organic

> <STRUCTURE_TestedForm_DefinedOrganic>
parent

> <STRUCTURE_Shown>
tested chemical

> <TestSubstance_ChemicalName>
Dibutyl decanedioate

> <TestSubstance_CASRN>
109-43-3

> <TestSubstance_Description>
single chemical compound

> <STRUCTURE_ChemicalName_IUPAC>
dibutyl decanedioate

> <STRUCTURE_SMILES>
O=C(OCCCC)CCCCCCCCC(OCCCC)=O

> <STRUCTURE_Parent_SMILES>
O=C(OCCCC)CCCCCCCCC(OCCCC)=O

> <STRUCTURE_InChIS>
InChI=1S/C18H34O4/c1-3-5-15-21-17(19)13-11-9-7-8-10-12-14-18(20)22-16-6-4-2/h3-16H2,1-2H3

> <STRUCTURE_InChIKey>
PYGXAGIECVVIOZ-UHFFFAOYSA-N

> <Substance_modify_yyyymmdd>
20080825

> <Coord_Metals>
0

> <Index>
809

> <Canonical_Smiles>
CCCCOC(=O)CCCCCCCCC(=O)OCCCC

> <Molecular_Weight>
314.46016

> <Frequency>
1

$$$$

  SciTegic          2D

 29 28  0  0  0  0            999 V2000
    5.2000    0.0000    0.0000 C   0  0
    5.2000   -1.2000    0.0000 O   0  0
    6.5000    0.7500    0.0000 O   0  0
    3.9000    0.7500    0.0000 C   0  0
    2.6000    0.0000    0.0000 C   0  0
    1.3000    0.7500    0.0000 C   0  0
    7.7999    0.0000    0.0000 C   0  0
   10.3999    0.0000    0.0000 C   0  0
    9.0999    0.7500    0.0000 C   0  0
   11.6999    0.7500    0.0000 C   0  0
   10.4028    1.5300    0.0000 C   0  0
    3.9000    1.7500    0.0000 H   0  0
    4.7659    1.2501    0.0000 H   0  0
    2.6000   -1.0000    0.0000 H   0  0
    1.7340   -0.5001    0.0000 H   0  0
    0.4338    0.2503    0.0000 H   0  0
    1.3000    1.7500    0.0000 H   0  0
    0.4340    1.2501    0.0000 H   0  0
    7.7999   -1.0000    0.0000 H   0  0
    6.9340   -0.5001    0.0000 H   0  0
   10.3999   -1.0000    0.0000 H   0  0
    8.2340    1.2501    0.0000 H   0  0
    9.0999    1.7500    0.0000 H   0  0
   12.5661    0.2503    0.0000 H   0  0
   12.5659    1.2501    0.0000 H   0  0
   11.6999    1.7500    0.0000 H   0  0
   11.2694    2.0289    0.0000 H   0  0
   10.4042    2.5300    0.0000 H   0  0
    9.5375    2.0313    0.0000 H   0  0
  1  2  2  0
  1  3  1  0
  1  4  1  0
  3  7  1  0
  4  5  1  0
  5  6  1  0
  7  9  1  0
  8  9  1  0
  8 10  1  0
  8 11  1  0
  4 12  1  0
  4 13  1  0
  5 14  1  0
  5 15  1  0
  6 16  1  0
  6 17  1  0
  6 18  1  0
  7 19  1  0
  7 20  1  0
  8 21  1  0
  9 22  1  0
  9 23  1  0
 10 24  1  0
 10 25  1  0
 10 26  1  0
 11 27  1  0
 11 28  1  0
 11 29  1  0
V    1 0
V    2 1
V    3 2
V    4 3
V    5 4
V    6 5
V    7 6
V    8 7
V    9 8
V   10 9
V   11 10
M  END
> <DSSTox_RID>
66968

> <DSSTox_CID>
22059

> <DSSTox_CID_Parent>
22059

> <DSSTox_Generic_SID>
42059

> <DSSTox_FileID>
810_TXCST2_v1a

> <STRUCTURE_Formula>
C9H18O2

> <STRUCTURE_MolecularWeight>
158.238

> <STRUCTURE_ChemicalType>
defined organic

> <STRUCTURE_TestedForm_DefinedOrganic>
parent

> <STRUCTURE_Shown>
tested chemical

> <TestSubstance_ChemicalName>
Isoamyl butyrate

> <TestSubstance_CASRN>
106-27-4

> <TestSubstance_Description>
single chemical compound

> <ChemicalNote>
mixture of isomeric isopentyl esters; structure shown 3-methylbutyl butanoate

> <Source_ChemicalNote>
tested chemical was a mixture of isomeric isopentyl esters

> <STRUCTURE_ChemicalName_IUPAC>
3-methylbutyl butanoate

> <STRUCTURE_SMILES>
O=C(CCC)OCCC(C)C

> <STRUCTURE_Parent_SMILES>
O=C(CCC)OCCC(C)C

> <STRUCTURE_InChIS>
InChI=1S/C9H18O2/c1-4-5-9(10)11-7-6-8(2)3/h8H,4-7H2,1-3H3

> <STRUCTURE_InChIKey>
PQLMXFQTAMDXIZ-UHFFFAOYSA-N

> <Substance_modify_yyyymmdd>
20080825

> <Coord_Metals>
0

> <Index>
810

> <Canonical_Smiles>
CCCC(=O)OCCC(C)C

> <Molecular_Weight>
158.23801

> <Frequency>
1

$$$$

  SciTegic          2D

 30 31  0  0  0  0            999 V2000
    1.2990   -0.7500    0.0000 N   0  0
    0.0000    1.5000    0.0000 N   0  0
    1.2990    0.7500    0.0000 C   0  0
   -1.2990   -0.7500    0.0000 C   0  0
    0.0000   -1.5000    0.0000 C   0  0
   -1.2990    0.7500    0.0000 C   0  0
    2.5972    1.5031    0.0000 N   0  0
   -2.5988    1.5004    0.0000 C   0  0
    2.5951    3.0039    0.0000 C   0  0
    3.8915    3.7585    0.0000 C   0  0
    1.2934    3.7495    0.0000 C   0  0
    3.8863    5.2585    0.0000 C   0  0
    1.2883    5.2495    0.0000 C   0  0
    2.5847    6.0040    0.0000 C   0  0
    0.0000   -3.0008    0.0000 C   0  0
    0.0000   -4.5017    0.0000 C   0  0
    0.0000   -6.0025    0.0000 C   0  0
   -2.1651   -1.2500    0.0000 H   0  0
    3.4641    1.0046    0.0000 H   0  0
   -2.5994    2.5004    0.0000 H   0  0
   -3.4647    1.0001    0.0000 H   0  0
   -3.4651    2.0000    0.0000 H   0  0
    4.7593    3.2615    0.0000 H   0  0
    0.4291    3.2465    0.0000 H   0  0
    4.7506    5.7615    0.0000 H   0  0
    0.4205    5.7465    0.0000 H   0  0
    2.5812    7.0040    0.0000 H   0  0
    0.8657   -6.5030    0.0000 H   0  0
   -0.8662   -6.5022    0.0000 H   0  0
   -0.0005   -7.0025    0.0000 H   0  0
  1  3  2  0
  1  5  1  0
  2  3  1  0
  2  6  2  0
  3  7  1  0
  4  5  2  0
  4  6  1  0
  5 15  1  0
  6  8  1  0
  7  9  1  0
  9 10  2  0
  9 11  1  0
 10 12  1  0
 11 13  2  0
 12 14  2  0
 13 14  1  0
 15 16  3  0
 16 17  1  0
  4 18  1  0
  7 19  1  0
  8 20  1  0
  8 21  1  0
  8 22  1  0
 10 23  1  0
 11 24  1  0
 12 25  1  0
 13 26  1  0
 14 27  1  0
 17 28  1  0
 17 29  1  0
 17 30  1  0
V    1 0
V    2 1
V    3 2
V    4 3
V    5 4
V    6 5
V    7 6
V    8 7
V    9 8
V   10 9
V   11 10
V   12 11
V   13 12
V   14 13
V   15 14
V   16 15
V   17 16
M  END
> <DSSTox_RID>
60140

> <DSSTox_CID>
22121

> <DSSTox_CID_Parent>
22121

> <DSSTox_Generic_SID>
42121

> <DSSTox_FileID>
811_TXCST2_v1a

> <STRUCTURE_Formula>
C14H13N3

> <STRUCTURE_MolecularWeight>
223.2731

> <STRUCTURE_ChemicalType>
defined organic

> <STRUCTURE_TestedForm_DefinedOrganic>
parent

> <STRUCTURE_Shown>
tested chemical

> <TestSubstance_ChemicalName>
Mepanipyrim

> <TestSubstance_CASRN>
110235-47-7

> <TestSubstance_Description>
single chemical compound

> <Source_ChemicalNote>
tested chemical contained 0.1% water (0.01 moles H2O)

> <STRUCTURE_ChemicalName_IUPAC>
4-methyl-N-phenyl-6-(prop-1-yn-1-yl)pyrimidin-2-amine

> <STRUCTURE_SMILES>
CC1=NC(NC2=CC=CC=C2)=NC(C#CC)=C1

> <STRUCTURE_Parent_SMILES>
CC1=NC(NC2=CC=CC=C2)=NC(C#CC)=C1

> <STRUCTURE_InChIS>
InChI=1S/C14H13N3/c1-3-7-13-10-11(2)15-14(17-13)16-12-8-5-4-6-9-12/h4-6,8-10H,1-2H3,(H,15,16,17)

> <STRUCTURE_InChIKey>
CIFWZNRJIBNXRE-UHFFFAOYSA-N

> <Substance_modify_yyyymmdd>
20080825

> <Coord_Metals>
0

> <Index>
811

> <Canonical_Smiles>
CC#Cc1cc(C)nc(Nc2ccccc2)n1

> <Molecular_Weight>
223.27311

> <Frequency>
1

$$$$

  SciTegic          2D

 49 49  0  0  0  0            999 V2000
    0.7500   -1.0323    0.0000 N   0  0
    1.2135    0.3943    0.0000 C   0  0
   -0.7500   -1.0323    0.0000 C   0  0
    0.0000    1.2760    0.0000 C   0  0
   -1.2135    0.3943    0.0000 C   0  0
    2.3548    0.7651    0.0000 O   0  0
    1.6307   -2.2444    0.0000 C   0  0
    3.1234   -2.0885    0.0000 C   0  0
    4.0055   -3.3026    0.0000 C   0  0
   13.5050   -7.5357    0.0000 C   0  0
   12.6228   -6.3215    0.0000 C   0  0
   11.1301   -6.4774    0.0000 C   0  0
   10.2480   -5.2632    0.0000 C   0  0
    8.7553   -5.4191    0.0000 C   0  0
    7.8731   -4.2050    0.0000 C   0  0
    6.3804   -4.3609    0.0000 C   0  0
    5.4982   -3.1467    0.0000 C   0  0
   14.9977   -7.3797    0.0000 C   0  0
   -1.7428   -0.9129    0.0000 H   0  0
   -0.3297   -1.9397    0.0000 H   0  0
   -0.8734    1.7629    0.0000 H   0  0
    0.8733    1.7631    0.0000 H   0  0
   -1.4068    1.3754    0.0000 H   0  0
   -1.9467   -0.2858    0.0000 H   0  0
    1.2236   -3.1578    0.0000 H   0  0
    0.6361   -2.3488    0.0000 H   0  0
    3.5304   -1.1750    0.0000 H   0  0
    2.5359   -1.2792    0.0000 H   0  0
    3.5985   -4.2161    0.0000 H   0  0
    3.0110   -3.4070    0.0000 H   0  0
   13.0980   -8.4491    0.0000 H   0  0
   12.5104   -7.6400    0.0000 H   0  0
   13.0298   -5.4080    0.0000 H   0  0
   12.0354   -5.5122    0.0000 H   0  0
   10.7231   -7.3908    0.0000 H   0  0
   10.1356   -6.5818    0.0000 H   0  0
   10.6550   -4.3498    0.0000 H   0  0
    9.6606   -4.4539    0.0000 H   0  0
    8.3482   -6.3326    0.0000 H   0  0
    7.7607   -5.5235    0.0000 H   0  0
    8.2801   -3.2915    0.0000 H   0  0
    7.2857   -3.3957    0.0000 H   0  0
    5.9734   -5.2743    0.0000 H   0  0
    5.3858   -4.4653    0.0000 H   0  0
    5.9052   -2.2333    0.0000 H   0  0
    4.9108   -2.3374    0.0000 H   0  0
   15.5855   -8.1887    0.0000 H   0  0
   15.4047   -6.4663    0.0000 H   0  0
   15.9922   -7.2753    0.0000 H   0  0
  1  2  1  0
  1  3  1  0
  1  7  1  0
  2  4  1  0
  2  6  2  0
  3  5  1  0
  4  5  1  0
  7  8  1  0
  8  9  1  0
  9 17  1  0
 10 11  1  0
 10 18  1  0
 11 12  1  0
 12 13  1  0
 13 14  1  0
 14 15  1  0
 15 16  1  0
 16 17  1  0
  3 19  1  0
  3 20  1  0
  4 21  1  0
  4 22  1  0
  5 23  1  0
  5 24  1  0
  7 25  1  0
  7 26  1  0
  8 27  1  0
  8 28  1  0
  9 29  1  0
  9 30  1  0
 10 31  1  0
 10 32  1  0
 11 33  1  0
 11 34  1  0
 12 35  1  0
 12 36  1  0
 13 37  1  0
 13 38  1  0
 14 39  1  0
 14 40  1  0
 15 41  1  0
 15 42  1  0
 16 43  1  0
 16 44  1  0
 17 45  1  0
 17 46  1  0
 18 47  1  0
 18 48  1  0
 18 49  1  0
V    1 0
V    2 1
V    3 2
V    4 3
V    5 4
V    6 5
V    7 6
V    8 7
V    9 8
V   10 9
V   11 10
V   12 11
V   13 12
V   14 13
V   15 14
V   16 15
V   17 16
V   18 17
M  END
> <DSSTox_RID>
60142

> <DSSTox_CID>
22206

> <DSSTox_CID_Parent>
22206

> <DSSTox_Generic_SID>
42206

> <DSSTox_FileID>
812_TXCST2_v1a

> <STRUCTURE_Formula>
C16H31NO

> <STRUCTURE_MolecularWeight>
253.4234

> <STRUCTURE_ChemicalType>
defined organic

> <STRUCTURE_TestedForm_DefinedOrganic>
parent

> <STRUCTURE_Shown>
tested chemical

> <TestSubstance_ChemicalName>
1-Dodecyl-2-pyrrolidinone

> <TestSubstance_CASRN>
2687-96-9

> <TestSubstance_Description>
single chemical compound

> <STRUCTURE_ChemicalName_IUPAC>
1-dodecylpyrrolidin-2-one

> <STRUCTURE_SMILES>
O=C1N(CCCCCCCCCCCC)CCC1

> <STRUCTURE_Parent_SMILES>
O=C1N(CCCCCCCCCCCC)CCC1

> <STRUCTURE_InChIS>
InChI=1S/C16H31NO/c1-2-3-4-5-6-7-8-9-10-11-14-17-15-12-13-16(17)18/h2-15H2,1H3

> <STRUCTURE_InChIKey>
NJPQAIBZIHNJDO-UHFFFAOYSA-N

> <Substance_modify_yyyymmdd>
20080825

> <Coord_Metals>
0

> <Index>
812

> <Canonical_Smiles>
CCCCCCCCCCCCN1CCCC1=O

> <Molecular_Weight>
253.42343

> <Frequency>
1

$$$$

  SciTegic          2D

 55 54  0  0  0  0            999 V2000
   11.6999    0.7500    0.0000 N   0  0
   11.7030    2.2508    0.0000 C   0  0
   10.3999    0.0000    0.0000 C   0  0
    9.0999    0.7500    0.0000 C   0  0
    7.7999    0.0000    0.0000 C   0  0
    6.5000    0.7500    0.0000 C   0  0
    5.2000    0.0000    0.0000 C   0  0
    3.9000    0.7500    0.0000 C   0  0
    2.6000    0.0000    0.0000 C   0  0
    1.3000    0.7500    0.0000 C   0  0
   12.9999    0.0000    0.0000 C   0  0
   14.2999    0.7500    0.0000 C   0  0
   15.5999    0.0000    0.0000 C   0  0
   16.8999    0.7500    0.0000 C   0  0
   18.1999    0.0000    0.0000 C   0  0
   19.4998    0.7500    0.0000 C   0  0
   20.7998    0.0000    0.0000 C   0  0
   22.0998    0.7500    0.0000 C   0  0
   12.5697    2.7496    0.0000 H   0  0
   11.7046    3.2508    0.0000 H   0  0
   10.8378    2.7523    0.0000 H   0  0
   11.2659   -0.5001    0.0000 H   0  0
   10.3999   -1.0000    0.0000 H   0  0
    8.2340    1.2501    0.0000 H   0  0
    9.0999    1.7500    0.0000 H   0  0
    6.9340   -0.5001    0.0000 H   0  0
    7.7999   -1.0000    0.0000 H   0  0
    5.6340    1.2501    0.0000 H   0  0
    6.5000    1.7500    0.0000 H   0  0
    4.3340   -0.5001    0.0000 H   0  0
    5.2000   -1.0000    0.0000 H   0  0
    3.0340    1.2501    0.0000 H   0  0
    3.9000    1.7500    0.0000 H   0  0
    1.7340   -0.5001    0.0000 H   0  0
    2.6000   -1.0000    0.0000 H   0  0
    0.4338    0.2503    0.0000 H   0  0
    0.4340    1.2501    0.0000 H   0  0
    1.3000    1.7500    0.0000 H   0  0
   12.1340   -0.5001    0.0000 H   0  0
   12.9999   -1.0000    0.0000 H   0  0
   13.4339    1.2501    0.0000 H   0  0
   14.2999    1.7500    0.0000 H   0  0
   14.7339   -0.5001    0.0000 H   0  0
   15.5999   -1.0000    0.0000 H   0  0
   16.0339    1.2501    0.0000 H   0  0
   16.8999    1.7500    0.0000 H   0  0
   17.3339   -0.5001    0.0000 H   0  0
   18.1999   -1.0000    0.0000 H   0  0
   18.6339    1.2501    0.0000 H   0  0
   19.4998    1.7500    0.0000 H   0  0
   19.9339   -0.5001    0.0000 H   0  0
   20.7998   -1.0000    0.0000 H   0  0
   22.9660    0.2503    0.0000 H   0  0
   22.9658    1.2501    0.0000 H   0  0
   22.0998    1.7500    0.0000 H   0  0
  1  2  1  0
  1  3  1  0
  1 11  1  0
  3  4  1  0
  4  5  1  0
  5  6  1  0
  6  7  1  0
  7  8  1  0
  8  9  1  0
  9 10  1  0
 11 12  1  0
 12 13  1  0
 13 14  1  0
 14 15  1  0
 15 16  1  0
 16 17  1  0
 17 18  1  0
  2 19  1  0
  2 20  1  0
  2 21  1  0
  3 22  1  0
  3 23  1  0
  4 24  1  0
  4 25  1  0
  5 26  1  0
  5 27  1  0
  6 28  1  0
  6 29  1  0
  7 30  1  0
  7 31  1  0
  8 32  1  0
  8 33  1  0
  9 34  1  0
  9 35  1  0
 10 36  1  0
 10 37  1  0
 10 38  1  0
 11 39  1  0
 11 40  1  0
 12 41  1  0
 12 42  1  0
 13 43  1  0
 13 44  1  0
 14 45  1  0
 14 46  1  0
 15 47  1  0
 15 48  1  0
 16 49  1  0
 16 50  1  0
 17 51  1  0
 17 52  1  0
 18 53  1  0
 18 54  1  0
 18 55  1  0
V    1 0
V    2 1
V    3 2
V    4 3
V    5 4
V    6 5
V    7 6
V    8 7
V    9 8
V   10 9
V   11 10
V   12 11
V   13 12
V   14 13
V   15 14
V   16 15
V   17 16
V   18 17
M  END
> <DSSTox_RID>
66745

> <DSSTox_CID>
22209

> <DSSTox_CID_Parent>
22209

> <DSSTox_Generic_SID>
42209

> <DSSTox_FileID>
813_TXCST2_v1a

> <STRUCTURE_Formula>
C17H37N

> <STRUCTURE_MolecularWeight>
255.4824

> <STRUCTURE_ChemicalType>
defined organic

> <STRUCTURE_TestedForm_DefinedOrganic>
parent

> <STRUCTURE_Shown>
tested chemical

> <TestSubstance_ChemicalName>
N-Methyldioctylamine

> <TestSubstance_CASRN>
4455-26-9

> <TestSubstance_Description>
single chemical compound

> <STRUCTURE_ChemicalName_IUPAC>
N-methyl-N-octyloctan-1-amine

> <STRUCTURE_SMILES>
CCCCCCCCN(CCCCCCCC)C

> <STRUCTURE_Parent_SMILES>
CCCCCCCCN(CCCCCCCC)C

> <STRUCTURE_InChIS>
InChI=1S/C17H37N/c1-4-6-8-10-12-14-16-18(3)17-15-13-11-9-7-5-2/h4-17H2,1-3H3

> <STRUCTURE_InChIKey>
YJLYANLCNIKXMG-UHFFFAOYSA-N

> <Substance_modify_yyyymmdd>
20080825

> <Coord_Metals>
0

> <Index>
813

> <Canonical_Smiles>
CCCCCCCCN(C)CCCCCCCC

> <Molecular_Weight>
255.48237

> <Frequency>
1

$$$$

  SciTegic          2D

 21 21  0  0  0  0            999 V2000
    1.2990   -0.7500    0.0000 C   0  0
    1.2990    0.7500    0.0000 C   0  0
    0.0000   -1.5000    0.0000 C   0  0
    0.0000    1.5000    0.0000 C   0  0
   -1.2990   -0.7500    0.0000 C   0  0
   -1.2990    0.7500    0.0000 C   0  0
    2.5988   -1.5004    0.0000 C   0  0
    3.8990   -0.7508    0.0000 C   0  0
    5.1988   -1.5012    0.0000 C   0  0
    2.1651    1.2500    0.0000 H   0  0
    0.0000   -2.5000    0.0000 H   0  0
    0.0000    2.5000    0.0000 H   0  0
   -2.1651   -1.2500    0.0000 H   0  0
   -2.1651    1.2500    0.0000 H   0  0
    2.5985   -2.5004    0.0000 H   0  0
    1.7327   -2.0003    0.0000 H   0  0
    3.8993    0.2492    0.0000 H   0  0
    3.0332   -0.2504    0.0000 H   0  0
    6.0651   -1.0018    0.0000 H   0  0
    5.1985   -2.5012    0.0000 H   0  0
    6.0646   -2.0016    0.0000 H   0  0
  1  2  1  0
  1  3  2  0
  1  7  1  0
  2  4  2  0
  3  5  1  0
  4  6  1  0
  5  6  2  0
  7  8  1  0
  8  9  1  0
  2 10  1  0
  3 11  1  0
  4 12  1  0
  5 13  1  0
  6 14  1  0
  7 15  1  0
  7 16  1  0
  8 17  1  0
  8 18  1  0
  9 19  1  0
  9 20  1  0
  9 21  1  0
V    1 0
V    2 1
V    3 2
V    4 3
V    5 4
V    6 5
V    7 6
V    8 7
V    9 8
M  END
> <DSSTox_RID>
60308

> <DSSTox_CID>
22219

> <DSSTox_CID_Parent>
22219

> <DSSTox_Generic_SID>
42219

> <DSSTox_FileID>
814_TXCST2_v1a

> <STRUCTURE_Formula>
C9H12

> <STRUCTURE_MolecularWeight>
120.1916

> <STRUCTURE_ChemicalType>
defined organic

> <STRUCTURE_TestedForm_DefinedOrganic>
parent

> <STRUCTURE_Shown>
tested chemical

> <TestSubstance_ChemicalName>
Propylbenzene

> <TestSubstance_CASRN>
103-65-1

> <TestSubstance_Description>
single chemical compound

> <STRUCTURE_ChemicalName_IUPAC>
propylbenzene

> <STRUCTURE_SMILES>
CCCC1=CC=CC=C1

> <STRUCTURE_Parent_SMILES>
CCCC1=CC=CC=C1

> <STRUCTURE_InChIS>
InChI=1S/C9H12/c1-2-6-9-7-4-3-5-8-9/h3-5,7-8H,2,6H2,1H3

> <STRUCTURE_InChIKey>
ODLMAHJVESYWTB-UHFFFAOYSA-N

> <Substance_modify_yyyymmdd>
20080825

> <Coord_Metals>
0

> <Index>
814

> <Canonical_Smiles>
CCCc1ccccc1

> <Molecular_Weight>
120.19158

> <Frequency>
1

$$$$

  SciTegic          2D

 13 13  0  0  0  0            999 V2000
    1.2990   -0.7500    0.0000 N   0  0
    1.2990    0.7500    0.0000 C   0  0
    0.0000   -1.5000    0.0000 C   0  0
    0.0000    1.5000    0.0000 C   0  0
   -1.2990   -0.7500    0.0000 C   0  0
   -1.2990    0.7500    0.0000 C   0  0
    2.3383   -1.3500    0.0000 O   0  0
   -0.0031   -3.0008    0.0000 S   0  0
    2.1651    1.2500    0.0000 H   0  0
    0.0000    2.5000    0.0000 H   0  0
   -2.1651   -1.2500    0.0000 H   0  0
   -2.1651    1.2500    0.0000 H   0  0
   -0.8698   -3.4996    0.0000 H   0  0
  1  2  1  0
  1  3  2  0
  1  7  2  0
  2  4  2  0
  3  5  1  0
  3  8  1  0
  4  6  1  0
  5  6  2  0
  2  9  1  0
  4 10  1  0
  5 11  1  0
  6 12  1  0
  8 13  1  0
V    1 0
V    2 1
V    3 2
V    4 3
V    5 4
V    6 5
V    7 6
V    8 7
M  END
> <DSSTox_RID>
60314

> <DSSTox_CID>
22390

> <DSSTox_Generic_SID>
42390

> <DSSTox_FileID>
815_TXCST2_v1a

> <STRUCTURE_Formula>
C5H4NNaOS

> <STRUCTURE_MolecularWeight>
149.1461

> <STRUCTURE_ChemicalType>
defined organic

> <STRUCTURE_TestedForm_DefinedOrganic>
salt Na

> <STRUCTURE_Shown>
tested chemical

> <TestSubstance_ChemicalName>
Sodium (2-pyridylthio)-N-oxide

> <TestSubstance_CASRN>
3811-73-2

> <TestSubstance_Description>
single chemical compound

> <ChemicalNote>
parent [1121-31-9]

> <Source_ChemicalNote>
tested chemical contained 0.86% water (0.07 moles H2O)

> <STRUCTURE_ChemicalName_IUPAC>
sodium pyridine-2-thiolate 1-oxide

> <STRUCTURE_SMILES>
[O-][N+]1=C([S-])C=CC=C1.[Na+]

> <STRUCTURE_Parent_SMILES>
[O-][N+]1=C(S)C=CC=C1

> <STRUCTURE_InChIS>
InChI=1S/C5H5NOS.Na/c7-6-4-2-1-3-5(6)8;/h1-4,8H;/q;+1/p-1

> <STRUCTURE_InChIKey>
WNGMMIYXPIAYOB-UHFFFAOYSA-M

> <Substance_modify_yyyymmdd>
20080825

> <Coord_Metals>
0

> <Index>
815

> <Canonical_Smiles>
Sc1ccccn1=O

> <Molecular_Weight>
127.1643

> <Frequency>
1

$$$$

  SciTegic          2D

 55 54  0  0  0  0            999 V2000
    2.6000    0.0000    0.0000 S   0  0
    2.6000   -1.2000    0.0000 O   0  0
    1.5608   -0.6002    0.0000 O   0  0
    3.9000    0.7500    0.0000 O   0  0
    1.3000    0.7500    0.0000 O   0  0
    5.2000    0.0000    0.0000 C   0  0
    6.5000    0.7500    0.0000 C   0  0
    7.7999    0.0000    0.0000 C   0  0
    9.0999    0.7500    0.0000 C   0  0
   10.3999    0.0000    0.0000 C   0  0
   11.6999    0.7500    0.0000 C   0  0
   12.9999    0.0000    0.0000 C   0  0
   14.2999    0.7500    0.0000 C   0  0
   15.5999    0.0000    0.0000 C   0  0
   16.8999    0.7500    0.0000 C   0  0
   18.1999    0.0000    0.0000 C   0  0
   19.4998    0.7500    0.0000 C   0  0
   20.7998    0.0000    0.0000 C   0  0
   22.0998    0.7500    0.0000 C   0  0
   23.3998    0.0000    0.0000 C   0  0
   24.6998    0.7500    0.0000 C   0  0
    0.4338    0.2503    0.0000 H   0  0
    5.2000   -1.0000    0.0000 H   0  0
    4.3340   -0.5001    0.0000 H   0  0
    6.5000    1.7500    0.0000 H   0  0
    5.6340    1.2501    0.0000 H   0  0
    7.7999   -1.0000    0.0000 H   0  0
    6.9340   -0.5001    0.0000 H   0  0
    9.0999    1.7500    0.0000 H   0  0
    8.2340    1.2501    0.0000 H   0  0
   10.3999   -1.0000    0.0000 H   0  0
    9.5340   -0.5001    0.0000 H   0  0
   11.6999    1.7500    0.0000 H   0  0
   10.8340    1.2501    0.0000 H   0  0
   12.9999   -1.0000    0.0000 H   0  0
   12.1340   -0.5001    0.0000 H   0  0
   14.2999    1.7500    0.0000 H   0  0
   13.4339    1.2501    0.0000 H   0  0
   15.5999   -1.0000    0.0000 H   0  0
   14.7339   -0.5001    0.0000 H   0  0
   16.8999    1.7500    0.0000 H   0  0
   16.0339    1.2501    0.0000 H   0  0
   18.1999   -1.0000    0.0000 H   0  0
   17.3339   -0.5001    0.0000 H   0  0
   19.4998    1.7500    0.0000 H   0  0
   18.6339    1.2501    0.0000 H   0  0
   20.7998   -1.0000    0.0000 H   0  0
   19.9339   -0.5001    0.0000 H   0  0
   22.0998    1.7500    0.0000 H   0  0
   21.2339    1.2501    0.0000 H   0  0
   23.3998   -1.0000    0.0000 H   0  0
   22.5339   -0.5001    0.0000 H   0  0
   25.5660    0.2503    0.0000 H   0  0
   24.6998    1.7500    0.0000 H   0  0
   25.5658    1.2501    0.0000 H   0  0
  1  2  2  0
  1  3  2  0
  1  4  1  0
  1  5  1  0
  4  6  1  0
  6  7  1  0
  7  8  1  0
  8  9  1  0
  9 10  1  0
 10 11  1  0
 11 12  1  0
 12 13  1  0
 13 14  1  0
 14 15  1  0
 15 16  1  0
 16 17  1  0
 17 18  1  0
 18 19  1  0
 19 20  1  0
 20 21  1  0
  5 22  1  0
  6 23  1  0
  6 24  1  0
  7 25  1  0
  7 26  1  0
  8 27  1  0
  8 28  1  0
  9 29  1  0
  9 30  1  0
 10 31  1  0
 10 32  1  0
 11 33  1  0
 11 34  1  0
 12 35  1  0
 12 36  1  0
 13 37  1  0
 13 38  1  0
 14 39  1  0
 14 40  1  0
 15 41  1  0
 15 42  1  0
 16 43  1  0
 16 44  1  0
 17 45  1  0
 17 46  1  0
 18 47  1  0
 18 48  1  0
 19 49  1  0
 19 50  1  0
 20 51  1  0
 20 52  1  0
 21 53  1  0
 21 54  1  0
 21 55  1  0
V    1 0
V    2 1
V    3 2
V    4 3
V    5 4
V    6 5
V    7 6
V    8 7
V    9 8
V   10 9
V   11 10
V   12 11
V   13 12
V   14 13
V   15 14
V   16 15
V   17 16
V   18 17
V   19 18
V   20 19
V   21 20
M  END
> <DSSTox_RID>
60329

> <DSSTox_CID>
22400

> <DSSTox_Generic_SID>
42400

> <DSSTox_FileID>
816_TXCST2_v1a

> <STRUCTURE_Formula>
C16H33NaO4S

> <STRUCTURE_MolecularWeight>
344.4856

> <STRUCTURE_ChemicalType>
defined organic

> <STRUCTURE_TestedForm_DefinedOrganic>
salt Na

> <STRUCTURE_Shown>
tested chemical

> <TestSubstance_ChemicalName>
Sodium hexyldecyl sulfate

> <TestSubstance_CASRN>
1120-01-0

> <TestSubstance_Description>
single chemical compound

> <STRUCTURE_ChemicalName_IUPAC>
sodium hexadecyl sulfate

> <STRUCTURE_SMILES>
O=S(OCCCCCCCCCCCCCCCC)([O-])=O.[Na+]

> <STRUCTURE_Parent_SMILES>
O=S(OCCCCCCCCCCCCCCCC)(O)=O

> <STRUCTURE_InChIS>
InChI=1S/C16H34O4S.Na/c1-2-3-4-5-6-7-8-9-10-11-12-13-14-15-16-20-21(17,18)19;/h2-16H2,1H3,(H,17,18,19);/q;+1/p-1

> <STRUCTURE_InChIKey>
GGHPAKFFUZUEKL-UHFFFAOYSA-M

> <Substance_modify_yyyymmdd>
20080825

> <Coord_Metals>
0

> <Index>
816

> <Canonical_Smiles>
CCCCCCCCCCCCCCCCOS(=O)(=O)O

> <Molecular_Weight>
322.50376

> <Frequency>
1

$$$$

  SciTegic          2D

 49 48  0  0  0  0            999 V2000
    2.6000    0.0000    0.0000 S   0  0
    3.9000    0.7500    0.0000 O   0  0
    5.2000    0.0000    0.0000 C   0  0
    6.5000    0.7500    0.0000 C   0  0
    2.6000   -1.2000    0.0000 O   0  0
    1.5608   -0.6002    0.0000 O   0  0
    1.3000    0.7500    0.0000 O   0  0
    7.7999    0.0000    0.0000 C   0  0
    9.0999    0.7500    0.0000 C   0  0
   10.3999    0.0000    0.0000 C   0  0
   11.6999    0.7500    0.0000 C   0  0
   12.9999    0.0000    0.0000 C   0  0
   14.2999    0.7500    0.0000 C   0  0
   15.5999    0.0000    0.0000 C   0  0
   16.8999    0.7500    0.0000 C   0  0
   18.1999    0.0000    0.0000 C   0  0
   19.4998    0.7500    0.0000 C   0  0
   20.7998    0.0000    0.0000 C   0  0
   22.0998    0.7500    0.0000 C   0  0
    5.2000   -1.0000    0.0000 H   0  0
    4.3340   -0.5001    0.0000 H   0  0
    6.5000    1.7500    0.0000 H   0  0
    5.6340    1.2501    0.0000 H   0  0
    0.4338    0.2503    0.0000 H   0  0
    7.7999   -1.0000    0.0000 H   0  0
    6.9340   -0.5001    0.0000 H   0  0
    9.0999    1.7500    0.0000 H   0  0
    8.2340    1.2501    0.0000 H   0  0
   10.3999   -1.0000    0.0000 H   0  0
    9.5340   -0.5001    0.0000 H   0  0
   11.6999    1.7500    0.0000 H   0  0
   10.8340    1.2501    0.0000 H   0  0
   12.9999   -1.0000    0.0000 H   0  0
   12.1340   -0.5001    0.0000 H   0  0
   14.2999    1.7500    0.0000 H   0  0
   13.4339    1.2501    0.0000 H   0  0
   15.5999   -1.0000    0.0000 H   0  0
   14.7339   -0.5001    0.0000 H   0  0
   16.8999    1.7500    0.0000 H   0  0
   16.0339    1.2501    0.0000 H   0  0
   18.1999   -1.0000    0.0000 H   0  0
   17.3339   -0.5001    0.0000 H   0  0
   19.4998    1.7500    0.0000 H   0  0
   18.6339    1.2501    0.0000 H   0  0
   20.7998   -1.0000    0.0000 H   0  0
   19.9339   -0.5001    0.0000 H   0  0
   22.9660    0.2503    0.0000 H   0  0
   22.0998    1.7500    0.0000 H   0  0
   22.9658    1.2501    0.0000 H   0  0
  1  2  1  0
  1  5  2  0
  1  6  2  0
  1  7  1  0
  2  3  1  0
  3  4  1  0
  4  8  1  0
  8  9  1  0
  9 10  1  0
 10 11  1  0
 11 12  1  0
 12 13  1  0
 13 14  1  0
 14 15  1  0
 15 16  1  0
 16 17  1  0
 17 18  1  0
 18 19  1  0
  3 20  1  0
  3 21  1  0
  4 22  1  0
  4 23  1  0
  7 24  1  0
  8 25  1  0
  8 26  1  0
  9 27  1  0
  9 28  1  0
 10 29  1  0
 10 30  1  0
 11 31  1  0
 11 32  1  0
 12 33  1  0
 12 34  1  0
 13 35  1  0
 13 36  1  0
 14 37  1  0
 14 38  1  0
 15 39  1  0
 15 40  1  0
 16 41  1  0
 16 42  1  0
 17 43  1  0
 17 44  1  0
 18 45  1  0
 18 46  1  0
 19 47  1  0
 19 48  1  0
 19 49  1  0
V    1 0
V    2 1
V    3 2
V    4 3
V    5 4
V    6 5
V    7 6
V    8 7
V    9 8
V   10 9
V   11 10
V   12 11
V   13 12
V   14 13
V   15 14
V   16 15
V   17 16
V   18 17
V   19 18
M  END
> <DSSTox_RID>
60342

> <DSSTox_CID>
8726

> <DSSTox_Generic_SID>
42416

> <DSSTox_FileID>
817_TXCST2_v1a

> <STRUCTURE_Formula>
C14H29NaO4S

> <STRUCTURE_MolecularWeight>
316.4324

> <STRUCTURE_ChemicalType>
defined organic

> <STRUCTURE_TestedForm_DefinedOrganic>
salt Na

> <STRUCTURE_Shown>
tested chemical

> <TestSubstance_ChemicalName>
Sodium tetradecyl sulfate

> <TestSubstance_CASRN>
1191-50-0

> <TestSubstance_Description>
single chemical compound

> <STRUCTURE_ChemicalName_IUPAC>
sodium tetradecyl sulfate

> <STRUCTURE_SMILES>
O=S(OCCCCCCCCCCCCCC)([O-])=O.[Na+]

> <STRUCTURE_Parent_SMILES>
O=S(OCCCCCCCCCCCCCC)(O)=O

> <STRUCTURE_InChIS>
InChI=1S/C14H30O4S.Na/c1-2-3-4-5-6-7-8-9-10-11-12-13-14-18-19(15,16)17;/h2-14H2,1H3,(H,15,16,17);/q;+1/p-1

> <STRUCTURE_InChIKey>
UPUIQOIQVMNQAP-UHFFFAOYSA-M

> <Substance_modify_yyyymmdd>
20080825

> <Coord_Metals>
0

> <Index>
817

> <Canonical_Smiles>
CCCCCCCCCCCCCCOS(=O)(=O)O

> <Molecular_Weight>
294.4506

> <Frequency>
1

$$$$

  SciTegic          2D

 85 86  0  0  0  0            999 V2000
    1.2626   -2.2300    0.0000 O   0  0
    2.5238   -3.0442    0.0000 C   0  0
    1.2990   -0.7500    0.0000 C   0  0
    3.8594   -2.3597    0.0000 C   0  0
    1.2710   -3.8008    0.0000 C   0  0
    3.6951   -3.9217    0.0000 O   0  0
    1.2990    0.7500    0.0000 C   0  0
    0.0000   -1.5000    0.0000 O   0  0
    3.9354   -0.8608    0.0000 O   0  0
    0.1137   -4.7371    0.0000 O   0  0
    1.6629   -5.2487    0.0000 C   0  0
    3.1611   -5.3234    0.0000 C   0  0
    1.7710    2.1532    0.0000 O   0  0
    0.0000    1.5000    0.0000 C   0  0
   -1.2990   -0.7500    0.0000 C   0  0
    5.2710   -0.1763    0.0000 C   0  0
    0.3256   -6.2229    0.0000 C   0  0
    2.2216   -6.6273    0.0000 O   0  0
    4.6448   -5.2181    0.0000 C   0  0
    3.2342    2.4869    0.0000 C   0  0
   -0.9793    2.6103    0.0000 O   0  0
   -1.2990    0.7500    0.0000 C   0  0
   -1.2626   -2.2300    0.0000 C   0  0
    5.3470    1.3226    0.0000 C   0  0
    6.2788   -0.8278    0.0000 O   0  0
   -0.8547   -7.1500    0.0000 C   0  0
    1.4392   -6.6699    0.0000 O   0  0
    3.7045   -6.8589    0.0000 C   0  0
    5.3233   -3.8794    0.0000 O   0  0
    3.6778    3.9207    0.0000 C   0  0
    4.0500    1.6068    0.0000 O   0  0
   -0.5366    4.0444    0.0000 C   0  0
   -2.7502    0.4571    0.0000 O   0  0
   -2.5235   -3.0440    0.0000 O   0  0
    4.2462   -8.2586    0.0000 C   0  0
    4.4574   -5.9245    0.0000 O   0  0
    6.8219   -3.7967    0.0000 C   0  0
   -1.5565    5.1454    0.0000 C   0  0
    0.6334    4.3108    0.0000 O   0  0
   -3.7708    1.5575    0.0000 C   0  0
   -2.4499   -4.5430    0.0000 C   0  0
    7.5004   -2.4580    0.0000 C   0  0
    7.4779   -4.8015    0.0000 O   0  0
   -5.2343    1.2247    0.0000 C   0  0
   -3.4165    2.7040    0.0000 O   0  0
   -3.7108   -5.3571    0.0000 C   0  0
   -1.3823   -5.0910    0.0000 O   0  0
    2.1526   -0.2289    0.0000 H   0  0
    4.7496   -1.9040    0.0000 H   0  0
    4.6992   -2.9026    0.0000 H   0  0
    1.1438   -2.8089    0.0000 H   0  0
    0.4210    0.2714    0.0000 H   0  0
    0.6774   -5.0791    0.0000 H   0  0
    2.6952   -6.2083    0.0000 H   0  0
    0.8780    1.9786    0.0000 H   0  0
   -2.1526   -0.2289    0.0000 H   0  0
    5.1915   -6.0554    0.0000 H   0  0
    5.6433   -5.1635    0.0000 H   0  0
   -1.2745    1.7497    0.0000 H   0  0
   -0.3729   -2.6866    0.0000 H   0  0
   -1.2131   -3.2288    0.0000 H   0  0
    6.2369    1.7787    0.0000 H   0  0
    5.3971    2.3214    0.0000 H   0  0
    4.5072    1.8655    0.0000 H   0  0
   -0.7135   -8.1400    0.0000 H   0  0
   -1.7827   -6.7775    0.0000 H   0  0
   -1.6414   -7.7674    0.0000 H   0  0
    4.6527    4.1430    0.0000 H   0  0
    2.9980    4.6541    0.0000 H   0  0
    3.9728    4.8762    0.0000 H   0  0
    5.2342   -8.4129    0.0000 H   0  0
    3.6188   -9.0373    0.0000 H   0  0
    4.6067   -9.1913    0.0000 H   0  0
   -1.2616    6.1009    0.0000 H   0  0
   -2.5316    4.9233    0.0000 H   0  0
   -2.2365    5.8787    0.0000 H   0  0
    8.4989   -2.4029    0.0000 H   0  0
    6.9537   -1.6207    0.0000 H   0  0
    7.9521   -1.5658    0.0000 H   0  0
   -5.9143    1.9579    0.0000 H   0  0
   -5.5295    0.2693    0.0000 H   0  0
   -6.2093    1.0025    0.0000 H   0  0
   -3.6617   -6.3559    0.0000 H   0  0
   -4.6004   -4.9004    0.0000 H   0  0
   -4.5511   -5.8991    0.0000 H   0  0
  2  1  1  0
  3  1  1  0
  2  4  1  0
  2  5  1  0
  2  6  1  0
  3  7  1  0
  3  8  1  0
  4  9  1  0
  5 10  1  0
  5 11  1  0
  6 12  1  0
  7 13  1  0
  7 14  1  0
  8 15  1  0
  9 16  1  0
 10 17  1  0
 11 12  1  0
 11 18  1  0
 12 19  1  0
 13 20  1  0
 14 21  1  0
 14 22  1  0
 15 22  1  0
 15 23  1  0
 16 24  1  0
 16 25  2  0
 17 26  1  0
 17 27  2  0
 18 28  1  0
 19 29  1  0
 20 30  1  0
 20 31  2  0
 21 32  1  0
 22 33  1  0
 23 34  1  0
 28 35  1  0
 28 36  2  0
 29 37  1  0
 32 38  1  0
 32 39  2  0
 33 40  1  0
 34 41  1  0
 37 42  1  0
 37 43  2  0
 40 44  1  0
 40 45  2  0
 41 46  1  0
 41 47  2  0
  3 48  1  0
  4 49  1  0
  4 50  1  0
  5 51  1  0
  7 52  1  0
 11 53  1  0
 12 54  1  0
 14 55  1  0
 15 56  1  0
 19 57  1  0
 19 58  1  0
 22 59  1  0
 23 60  1  0
 23 61  1  0
 24 62  1  0
 24 63  1  0
 24 64  1  0
 26 65  1  0
 26 66  1  0
 26 67  1  0
 30 68  1  0
 30 69  1  0
 30 70  1  0
 35 71  1  0
 35 72  1  0
 35 73  1  0
 38 74  1  0
 38 75  1  0
 38 76  1  0
 42 77  1  0
 42 78  1  0
 42 79  1  0
 44 80  1  0
 44 81  1  0
 44 82  1  0
 46 83  1  0
 46 84  1  0
 46 85  1  0
V    1 0
V    2 1
V    3 2
V    4 3
V    5 4
V    6 5
V    7 6
V    8 7
V    9 8
V   10 9
V   11 10
V   12 11
V   13 12
V   14 13
V   15 14
V   16 15
V   17 16
V   18 17
V   19 18
V   20 19
V   21 20
V   22 21
V   23 22
V   24 23
V   25 24
V   26 25
V   27 26
V   28 27
V   29 28
V   30 29
V   31 30
V   32 31
V   33 32
V   34 33
V   35 34
V   36 35
V   37 36
V   38 37
V   39 38
V   40 39
V   41 40
V   42 41
V   43 42
V   44 43
V   45 44
V   46 45
V   47 46
M  END
> <DSSTox_RID>
67027

> <DSSTox_CID>
22423

> <DSSTox_CID_Parent>
22423

> <DSSTox_Generic_SID>
42423

> <DSSTox_FileID>
818_TXCST2_v1a

> <STRUCTURE_Formula>
C28H38O19

> <STRUCTURE_MolecularWeight>
678.5899

> <STRUCTURE_ChemicalType>
defined organic

> <STRUCTURE_TestedForm_DefinedOrganic>
parent

> <STRUCTURE_Shown>
tested chemical

> <TestSubstance_ChemicalName>
Sucrose octaacetate

> <TestSubstance_CASRN>
126-14-7

> <TestSubstance_Description>
single chemical compound

> <ChemicalNote>
stereochem

> <Source_ChemicalNote>
tested chemical contained 0.2% water (0.08 moles H2O)

> <STRUCTURE_ChemicalName_IUPAC>
1,3,4,6-tetra-O-acetyl-beta-D-fructofuranosyl 2,3,4,6-tetra-O-acetyl-alpha-D-glucopyranoside

> <STRUCTURE_SMILES>
O=C(C)OC[C@]([C@H]1OC(C)=O)(O[C@H](COC(C)=O)[C@H]1OC(C)=O)O[C@@H](O[C@H](COC(C)=O)[C@@H](OC(C)=O)[C@@H]2OC(C)=O)[C@@H]2OC(C)=O

> <STRUCTURE_Parent_SMILES>
O=C(C)OC[C@]([C@H]1OC(C)=O)(O[C@H](COC(C)=O)[C@H]1OC(C)=O)O[C@@H](O[C@H](COC(C)=O)[C@@H](OC(C)=O)[C@@H]2OC(C)=O)[C@@H]2OC(C)=O

> <STRUCTURE_InChIS>
InChI=1S/C28H38O19/c1-12(29)37-9-20-22(40-15(4)32)24(42-17(6)34)25(43-18(7)35)27(45-20)47-28(11-39-14(3)31)26(44-19(8)36)23(41-16(5)33)21(46-28)10-38-13(2)30/h20-27H,9-11H2,1-8H3/t20-,21-,22-,23-,24+,
25-,26+,27-,28+/m1/s1

> <STRUCTURE_InChIKey>
ZIJKGAXBCRWEOL-SAXBRCJISA-N

> <Substance_modify_yyyymmdd>
20080825

> <Coord_Metals>
0

> <Index>
818

> <Canonical_Smiles>
CC(=O)OCC1OC(OC2(COC(=O)C)OC(COC(=O)C)C(OC(=O)C)C2OC(=O)C)C(OC(=O)C)C(OC(=O)C)C1OC(=O)C

> <Molecular_Weight>
678.58991

> <Frequency>
1

$$$$

  SciTegic          2D

 71 76  0  0  0  0            999 V2000
   -8.2276    0.2357    0.0000 C   0  0
   -1.6289   -2.2696    0.0000 C   0  0
   -3.5409   -2.7707    0.0000 C   0  0
    5.4906    0.2837    0.0000 C   0  0
    4.0300    2.9900    0.0000 C   0  0
    2.4700    3.0200    0.0000 C   0  0
    6.3100   -1.0600    0.0000 C   0  0
   -1.0900    2.2900    0.0000 C   0  0
    4.7500   -1.0500    0.0000 C   0  0
   -2.5200    1.6800    0.0000 C   0  0
   -6.7500    0.0900    0.0000 C   0  0
    6.3400    1.6200    0.0000 C   0  0
    1.3800   -0.8100    0.0000 C   0  0
   -7.0600   -2.5800    0.0000 C   0  0
   -7.6800   -1.1400    0.0000 C   0  0
   -1.4500   -0.7800    0.0000 C   0  0
   -3.0400   -1.3700    0.0000 C   0  0
    4.7800    1.6400    0.0000 C   0  0
    7.1000    0.2600    0.0000 C   0  0
    0.1500    1.3800    0.0000 C   0  0
    1.6700    1.6800    0.0000 C   0  0
    0.0000   -0.1600    0.0000 C   0  0
    2.4300    0.3200    0.0000 C   0  0
   -5.2100    0.0000    0.0000 C   0  0
   -4.5900   -1.5100    0.0000 C   0  0
    3.9900    0.3000    0.0000 C   0  0
   -2.7000    0.1400    0.0000 C   0  0
   -5.5200   -2.7600    0.0000 N   0  0
    7.7892   -1.0503    0.0000 O   0  0
   -4.0400    0.9300    0.0000 O   0  0
   -7.6276    1.0356    0.0000 H   0  0
   -9.2204    0.3557    0.0000 H   0  0
   -8.6202    1.1554    0.0000 H   0  0
   -0.8292   -2.8699    0.0000 H   0  0
   -2.5486   -2.6624    0.0000 H   0  0
   -1.7488   -3.2624    0.0000 H   0  0
   -4.5216   -2.9660    0.0000 H   0  0
   -2.8816   -3.5227    0.0000 H   0  0
   -3.8623   -3.7177    0.0000 H   0  0
    5.9817   -0.5874    0.0000 H   0  0
    5.9998    1.1444    0.0000 H   0  0
    6.4906    0.2732    0.0000 H   0  0
    4.5454    3.8470    0.0000 H   0  0
    1.4700    3.0135    0.0000 H   0  0
    3.0044    3.8652    0.0000 H   0  0
    7.3099   -1.0471    0.0000 H   0  0
    5.7800   -1.9080    0.0000 H   0  0
   -0.1630    2.6652    0.0000 H   0  0
   -1.9070    2.8666    0.0000 H   0  0
    3.7505   -1.0180    0.0000 H   0  0
    5.2626   -1.9086    0.0000 H   0  0
   -3.4295    1.2643    0.0000 H   0  0
   -2.3788    2.6700    0.0000 H   0  0
   -6.1519    0.8914    0.0000 H   0  0
   -6.3071   -0.8066    0.0000 H   0  0
    7.3393    1.5830    0.0000 H   0  0
    5.8313    2.4810    0.0000 H   0  0
    2.3299   -1.1226    0.0000 H   0  0
    0.6151   -1.4542    0.0000 H   0  0
   -8.0502   -2.4402    0.0000 H   0  0
   -6.6428   -3.4888    0.0000 H   0  0
   -8.2609   -1.9540    0.0000 H   0  0
   -2.0624   -1.1597    0.0000 H   0  0
    7.5917    1.1308    0.0000 H   0  0
    0.3674    2.3561    0.0000 H   0  0
    1.0941    2.4975    0.0000 H   0  0
    2.8237   -0.5992    0.0000 H   0  0
   -5.5118    0.9534    0.0000 H   0  0
   -4.1013   -2.3824    0.0000 H   0  0
   -5.1238   -3.6782    0.0000 H   0  0
    7.2767   -1.9090    0.0000 H   0  0
 15  1  1  0
  2 16  1  0
 17  3  1  0
 26  4  1  0
  5  6  1  0
  5 18  2  0
  6 21  1  0
  7  9  1  0
  7 19  1  0
  8 10  1  0
  8 20  1  0
  9 26  1  0
 10 27  1  0
 11 15  1  0
 11 24  1  0
 12 18  1  0
 12 19  1  0
 13 22  1  0
 13 23  1  0
 14 15  1  0
 14 28  1  0
 16 22  2  0
 16 27  1  0
 17 25  1  0
 17 27  1  0
 18 26  1  0
 19 29  1  0
 20 21  1  0
 20 22  1  0
 21 23  1  0
 23 26  1  0
 24 25  1  0
 24 30  1  0
 25 28  1  0
 27 30  1  0
  1 31  1  0
  1 32  1  0
  1 33  1  0
  2 34  1  0
  2 35  1  0
  2 36  1  0
  3 37  1  0
  3 38  1  0
  3 39  1  0
  4 40  1  0
  4 41  1  0
  4 42  1  0
  5 43  1  0
  6 44  1  0
  6 45  1  0
  7 46  1  0
  7 47  1  0
  8 48  1  0
  8 49  1  0
  9 50  1  0
  9 51  1  0
 10 52  1  0
 10 53  1  0
 11 54  1  0
 11 55  1  0
 12 56  1  0
 12 57  1  0
 13 58  1  0
 13 59  1  0
 14 60  1  0
 14 61  1  0
 15 62  1  0
 17 63  1  0
 19 64  1  0
 20 65  1  0
 21 66  1  0
 23 67  1  0
 24 68  1  0
 25 69  1  0
 28 70  1  0
 29 71  1  0
V    1 0
V    2 1
V    3 2
V    4 3
V    5 4
V    6 5
V    7 6
V    8 7
V    9 8
V   10 9
V   11 10
V   12 11
V   13 12
V   14 13
V   15 14
V   16 15
V   17 16
V   18 17
V   19 18
V   20 19
V   21 20
V   22 21
V   23 22
V   24 23
V   25 24
V   26 25
V   27 26
V   28 27
V   29 28
V   30 29
M  END
> <DSSTox_RID>
67097

> <DSSTox_CID>
23709

> <DSSTox_CID_Parent>
23709

> <DSSTox_Generic_SID>
43709

> <DSSTox_FileID>
819_TXCST2_v1a

> <STRUCTURE_Formula>
C27H41NO2

> <STRUCTURE_MolecularWeight>
411.6199

> <STRUCTURE_ChemicalType>
defined organic

> <STRUCTURE_TestedForm_DefinedOrganic>
parent

> <STRUCTURE_Shown>
tested chemical

> <TestSubstance_ChemicalName>
Cyclopamine

> <TestSubstance_CASRN>
4449-51-8

> <TestSubstance_Description>
single chemical compound

> <ChemicalNote>
stereochem

> <STRUCTURE_ChemicalName_IUPAC>
(3beta,22S,23R)-17,23-epoxyveratraman-3-ol

> <STRUCTURE_SMILES>
O[C@H](CC1=CC[C@@]3([H])[C@]2([H])CC[C@]([C@@H]([C@@]5([H])[C@@](O6)([H])C[C@@H](CN5)C)C)6C(C)=C2C[C@]34[H])CC[C@@]14C

> <STRUCTURE_Parent_SMILES>
O[C@H](CC1=CC[C@@]3([H])[C@]2([H])CC[C@]([C@@H]([C@@]5([H])[C@@](O6)([H])C[C@@H](CN5)C)C)6C(C)=C2C[C@]34[H])CC[C@@]14C

> <STRUCTURE_InChIS>
InChI=1S/C27H41NO2/c1-15-11-24-25(28-14-15)17(3)27(30-24)10-8-20-21-6-5-18-12-19(29)7-9-26(18,4)23(21)13-22(20)16(27)2/h5,15,17,19-21,23-25,28-29H,6-14H2,1-4H3/t15-,17+,19-,20-,21-,23-,24+,25-,26-,27-
/m0/s1

> <STRUCTURE_InChIKey>
QASFUMOKHFSJGL-LAFRSMQTSA-N

> <Substance_modify_yyyymmdd>
20081010

> <Coord_Metals>
0

> <Index>
819

> <Canonical_Smiles>
CC1CNC2C(C1)OC3(CCC4C5CC=C6CC(O)CCC6(C)C5CC4=C3C)C2C

> <Molecular_Weight>
411.61994

> <Frequency>
1

$$$$

  SciTegic          2D

 31 32  0  0  0  0            999 V2000
    1.2990   -0.7500    0.0000 C   0  0
    1.2990    0.7500    0.0000 C   0  0
    2.5973   -1.5031    0.0000 C   0  0
    2.5972    1.5031    0.0000 C   0  0
    3.6375   -0.9049    0.0000 O   0  0
    3.6375    0.9049    0.0000 O   0  0
    2.5951   -3.0039    0.0000 O   0  0
    2.5951    3.0039    0.0000 O   0  0
    0.0000   -1.5000    0.0000 C   0  0
    0.0000    1.5000    0.0000 C   0  0
   -1.2990   -0.7500    0.0000 C   0  0
   -1.2990    0.7500    0.0000 C   0  0
    3.8933   -3.7570    0.0000 C   0  0
    3.8912   -5.2578    0.0000 C   0  0
    5.1892   -6.0097    0.0000 C   0  0
    2.5911   -6.0060    0.0000 C   0  0
    5.1870   -7.5097    0.0000 C   0  0
    2.5890   -7.5060    0.0000 C   0  0
    3.8869   -8.2578    0.0000 C   0  0
    3.4601    3.5057    0.0000 H   0  0
    0.0000   -2.5000    0.0000 H   0  0
    0.0000    2.5000    0.0000 H   0  0
   -2.1651   -1.2500    0.0000 H   0  0
   -2.1651    1.2500    0.0000 H   0  0
    3.8952   -2.7570    0.0000 H   0  0
    4.7602   -3.2585    0.0000 H   0  0
    6.0559   -5.5109    0.0000 H   0  0
    1.7258   -5.5047    0.0000 H   0  0
    6.0523   -8.0109    0.0000 H   0  0
    1.7222   -8.0047    0.0000 H   0  0
    3.8855   -9.2578    0.0000 H   0  0
  1  2  2  0
  1  3  1  0
  1  9  1  0
  2  4  1  0
  2 10  1  0
  3  5  2  0
  3  7  1  0
  4  6  2  0
  4  8  1  0
  7 13  1  0
  9 11  2  0
 10 12  2  0
 11 12  1  0
 13 14  1  0
 14 15  2  0
 14 16  1  0
 15 17  1  0
 16 18  2  0
 17 19  2  0
 18 19  1  0
  8 20  1  0
  9 21  1  0
 10 22  1  0
 11 23  1  0
 12 24  1  0
 13 25  1  0
 13 26  1  0
 15 27  1  0
 16 28  1  0
 17 29  1  0
 18 30  1  0
 19 31  1  0
V    1 0
V    2 1
V    3 2
V    4 3
V    5 4
V    6 5
V    7 6
V    8 7
V    9 8
V   10 9
V   11 10
V   12 11
V   13 12
V   14 13
V   15 14
V   16 15
V   17 16
V   18 17
V   19 18
M  END
> <DSSTox_RID>
66902

> <DSSTox_CID>
23938

> <DSSTox_CID_Parent>
23938

> <DSSTox_Generic_SID>
43938

> <DSSTox_FileID>
820_TXCST2_v1a

> <STRUCTURE_Formula>
C15H12O4

> <STRUCTURE_MolecularWeight>
256.2534

> <STRUCTURE_ChemicalType>
defined organic

> <STRUCTURE_TestedForm_DefinedOrganic>
parent

> <STRUCTURE_Shown>
tested chemical

> <TestSubstance_ChemicalName>
Monobenzyl phthalate

> <TestSubstance_CASRN>
2528-16-7

> <TestSubstance_Description>
single chemical compound

> <STRUCTURE_ChemicalName_IUPAC>
2-[(benzyloxy)carbonyl]benzoic acid

> <STRUCTURE_SMILES>
O=C(OCC1=CC=CC=C1)C(C=CC=C2)=C2C(O)=O

> <STRUCTURE_Parent_SMILES>
O=C(OCC1=CC=CC=C1)C(C=CC=C2)=C2C(O)=O

> <STRUCTURE_InChIS>
InChI=1S/C15H12O4/c16-14(17)12-8-4-5-9-13(12)15(18)19-10-11-6-2-1-3-7-11/h1-9H,10H2,(H,16,17)

> <STRUCTURE_InChIKey>
XIKIUQUXDNHBFR-UHFFFAOYSA-N

> <Substance_modify_yyyymmdd>
20090108

> <Coord_Metals>
0

> <Index>
820

> <Canonical_Smiles>
OC(=O)c1ccccc1C(=O)OCc2ccccc2

> <Molecular_Weight>
256.25337

> <Frequency>
1

$$$$

  SciTegic          2D

 45 47  0  0  0  0            999 V2000
    3.8990   -0.7508    0.0000 C   0  0
    2.5988   -1.5004    0.0000 C   0  0
    5.1129    0.0667    0.0000 C   0  0
    2.6859    0.0678    0.0000 S   0  0
    1.2990   -0.7500    0.0000 C   0  0
    4.6501    1.4935    0.0000 N   0  0
    6.2473   -0.3247    0.0000 O   0  0
    3.1501    1.4942    0.0000 C   0  0
    1.2990    0.7500    0.0000 C   0  0
    0.0000   -1.5000    0.0000 C   0  0
    2.4452    2.4653    0.0000 O   0  0
    0.0000    1.5000    0.0000 C   0  0
   -1.2990   -0.7500    0.0000 C   0  0
   -1.2990    0.7500    0.0000 C   0  0
   -2.6003    1.4977    0.0000 O   0  0
   -3.8990    0.7455    0.0000 C   0  0
   -5.2003    1.4932    0.0000 C   0  0
   -6.4990    0.7409    0.0000 C   0  0
   -6.4969   -0.7591    0.0000 C   0  0
   -7.7991    1.4891    0.0000 N   0  0
   -7.7948   -1.5109    0.0000 C   0  0
   -9.0971    0.7372    0.0000 C   0  0
   -9.0949   -0.7628    0.0000 C   0  0
  -10.3936   -1.5150    0.0000 C   0  0
  -10.3924   -3.0159    0.0000 C   0  0
    4.7649   -1.2511    0.0000 H   0  0
    1.7327   -2.0003    0.0000 H   0  0
    2.5985   -2.5004    0.0000 H   0  0
    5.2382    2.3022    0.0000 H   0  0
    2.1651    1.2500    0.0000 H   0  0
    0.0000   -2.5000    0.0000 H   0  0
    0.0000    2.5000    0.0000 H   0  0
   -2.1651   -1.2500    0.0000 H   0  0
   -3.8973   -0.2545    0.0000 H   0  0
   -3.0322    0.2468    0.0000 H   0  0
   -5.2021    2.4932    0.0000 H   0  0
   -6.0671    1.9918    0.0000 H   0  0
   -5.6301   -1.2578    0.0000 H   0  0
   -7.7934   -2.5109    0.0000 H   0  0
   -9.9638    1.2360    0.0000 H   0  0
  -11.2602   -1.0160    0.0000 H   0  0
  -10.3949   -0.5150    0.0000 H   0  0
  -11.2577   -3.5171    0.0000 H   0  0
   -9.5258   -3.5149    0.0000 H   0  0
  -10.3912   -4.0159    0.0000 H   0  0
  1  2  1  0
  1  3  1  0
  1  4  1  0
  2  5  1  0
  3  6  1  0
  3  7  2  0
  4  8  1  0
  5  9  1  0
  5 10  2  0
  6  8  1  0
  8 11  2  0
  9 12  2  0
 10 13  1  0
 12 14  1  0
 13 14  2  0
 14 15  1  0
 15 16  1  0
 16 17  1  0
 17 18  1  0
 18 19  1  0
 18 20  2  0
 19 21  2  0
 20 22  1  0
 21 23  1  0
 22 23  2  0
 23 24  1  0
 24 25  1  0
  1 26  1  0
  2 27  1  0
  2 28  1  0
  6 29  1  0
  9 30  1  0
 10 31  1  0
 12 32  1  0
 13 33  1  0
 16 34  1  0
 16 35  1  0
 17 36  1  0
 17 37  1  0
 19 38  1  0
 21 39  1  0
 22 40  1  0
 24 41  1  0
 24 42  1  0
 25 43  1  0
 25 44  1  0
 25 45  1  0
V    1 0
V    2 1
V    3 2
V    4 3
V    5 4
V    6 5
V    7 6
V    8 7
V    9 8
V   10 9
V   11 10
V   12 11
V   13 12
V   14 13
V   15 14
V   16 15
V   17 16
V   18 17
V   19 18
V   20 19
V   21 20
V   22 21
V   23 22
V   24 23
V   25 24
M  END
> <DSSTox_RID>
60895

> <DSSTox_CID>
24203

> <DSSTox_CID_Parent>
17129

> <DSSTox_Generic_SID>
44203

> <DSSTox_FileID>
821_TXCST2_v1a

> <STRUCTURE_Formula>
C19H21ClN2O3S

> <STRUCTURE_MolecularWeight>
392.8996

> <STRUCTURE_ChemicalType>
defined organic

> <STRUCTURE_TestedForm_DefinedOrganic>
complex HCl

> <STRUCTURE_Shown>
tested chemical

> <TestSubstance_ChemicalName>
Pioglitazone HCl

> <TestSubstance_CASRN>
112529-15-4

> <TestSubstance_Description>
single chemical compound

> <ChemicalNote>
parent [111025-46-8]

> <STRUCTURE_ChemicalName_IUPAC>
5-{4-[2-(5-ethylpyridin-2-yl)ethoxy]benzyl}-1,3-thiazolidine-2,4-dione hydrochloride

> <STRUCTURE_SMILES>
O=C(N2)C(SC2=O)CC1=CC=C(OCCC3=NC=C(CC)C=C3)C=C1.Cl

> <STRUCTURE_Parent_SMILES>
O=C(N2)C(SC2=O)CC1=CC=C(OCCC3=NC=C(CC)C=C3)C=C1

> <STRUCTURE_InChIS>
InChI=1S/C19H20N2O3S.ClH/c1-2-13-3-6-15(20-12-13)9-10-24-16-7-4-14(5-8-16)11-17-18(22)21-19(23)25-17;/h3-8,12,17H,2,9-11H2,1H3,(H,21,22,23);1H

> <STRUCTURE_InChIKey>
GHUUBYQTCDQWRA-UHFFFAOYSA-N

> <Substance_modify_yyyymmdd>
20090302

> <Coord_Metals>
0

> <Index>
821

> <Canonical_Smiles>
CCc1ccc(CCOc2ccc(CC3SC(=O)NC3=O)cc2)nc1

> <Molecular_Weight>
356.4387

> <Frequency>
1

$$$$

  SciTegic          2D

 41 40  0  0  0  0            999 V2000
    2.6000    0.0000    0.0000 C   0  0
    2.6000   -1.2000    0.0000 O   0  0
    3.9000    0.7500    0.0000 N   0  0
    1.3000    0.7500    0.0000 N   0  0
    5.2000    0.0000    0.0000 C   0  0
    6.5000    0.7500    0.0000 C   0  0
    7.7999    0.0000    0.0000 C   0  0
    9.0999    0.7500    0.0000 Si  0  0
   10.3999    0.0000    0.0000 O   0  0
   11.6999    0.7500    0.0000 C   0  0
   12.9999    0.0000    0.0000 C   0  0
    9.1028   -0.7800    0.0000 O   0  0
   10.4035   -1.5287    0.0000 C   0  0
   10.4063   -3.0295    0.0000 C   0  0
    9.0999    2.2507    0.0000 O   0  0
   10.3992    3.0020    0.0000 C   0  0
   10.3992    4.5028    0.0000 C   0  0
    3.9000    1.7500    0.0000 H   0  0
    0.4338    0.2503    0.0000 H   0  0
    1.3000    1.7500    0.0000 H   0  0
    4.3340   -0.5001    0.0000 H   0  0
    5.2000   -1.0000    0.0000 H   0  0
    5.6340    1.2501    0.0000 H   0  0
    6.5000    1.7500    0.0000 H   0  0
    6.9340   -0.5001    0.0000 H   0  0
    7.7999   -1.0000    0.0000 H   0  0
   10.8340    1.2501    0.0000 H   0  0
   11.6999    1.7500    0.0000 H   0  0
   13.8661    0.4997    0.0000 H   0  0
   13.8658   -0.5001    0.0000 H   0  0
   12.9999   -1.0000    0.0000 H   0  0
   10.4021   -0.5287    0.0000 H   0  0
   11.2687   -1.0273    0.0000 H   0  0
   11.2730   -3.5284    0.0000 H   0  0
   10.4078   -4.0295    0.0000 H   0  0
    9.5411   -3.5309    0.0000 H   0  0
   11.2654    2.5023    0.0000 H   0  0
   10.3997    2.0020    0.0000 H   0  0
   11.2649    5.0034    0.0000 H   0  0
    9.5330    5.0025    0.0000 H   0  0
   10.3987    5.5028    0.0000 H   0  0
  1  2  2  0
  1  3  1  0
  1  4  1  0
  3  5  1  0
  5  6  1  0
  6  7  1  0
  7  8  1  0
  8  9  1  0
  8 12  1  0
  8 15  1  0
  9 10  1  0
 10 11  1  0
 12 13  1  0
 13 14  1  0
 15 16  1  0
 16 17  1  0
  3 18  1  0
  4 19  1  0
  4 20  1  0
  5 21  1  0
  5 22  1  0
  6 23  1  0
  6 24  1  0
  7 25  1  0
  7 26  1  0
 10 27  1  0
 10 28  1  0
 11 29  1  0
 11 30  1  0
 11 31  1  0
 13 32  1  0
 13 33  1  0
 14 34  1  0
 14 35  1  0
 14 36  1  0
 16 37  1  0
 16 38  1  0
 17 39  1  0
 17 40  1  0
 17 41  1  0
V    1 0
V    2 1
V    3 2
V    4 3
V    5 4
V    6 5
V    7 6
V    8 7
V    9 8
V   10 9
V   11 10
V   12 11
V   13 12
V   14 13
V   15 14
V   16 15
V   17 16
M  END
> <DSSTox_RID>
61217

> <DSSTox_CID>
24493

> <DSSTox_CID_Parent>
24493

> <DSSTox_Generic_SID>
44493

> <DSSTox_FileID>
822_TXCST2_v1a

> <STRUCTURE_Formula>
C10H24N2O4Si

> <STRUCTURE_MolecularWeight>
264.3941

> <STRUCTURE_ChemicalType>
organometallic

> <STRUCTURE_Shown>
tested chemical

> <TestSubstance_ChemicalName>
1-[3-(Triethoxysilyl)propyl]urea

> <TestSubstance_CASRN>
23779-32-0

> <TestSubstance_Description>
single chemical compound

> <Source_ChemicalNote>
tested chemical was a 50% solution in MeOH

> <STRUCTURE_ChemicalName_IUPAC>
1-[3-(triethoxysilyl)propyl]urea

> <STRUCTURE_SMILES>
O=C(N)NCCC[Si](OCC)(OCC)OCC

> <STRUCTURE_InChIS>
InChI=1S/C10H24N2O4Si/c1-4-14-17(15-5-2,16-6-3)9-7-8-12-10(11)13/h4-9H2,1-3H3,(H3,11,12,13)

> <STRUCTURE_InChIKey>
LVNLBBGBASVLLI-UHFFFAOYSA-N

> <Substance_modify_yyyymmdd>
20091116

> <Coord_Metals>
0

> <Index>
822

> <Canonical_Smiles>
CCO[Si](CCCNC(=O)N)(OCC)OCC

> <Molecular_Weight>
264.39406

> <Frequency>
1

$$$$

  SciTegic          2D

 41 40  0  0  0  0            999 V2000
    9.0999    0.7500    0.0000 C   0  0
   10.3999    0.0000    0.0000 C   0  0
   11.6999    0.7500    0.0000 C   0  0
    7.7999    0.0000    0.0000 N   0  0
   12.9999    0.0000    0.0000 N   0  0
    6.5000    0.7500    0.0000 C   0  0
    5.2000    0.0000    0.0000 C   0  0
    3.9000    0.7500    0.0000 C   0  0
    2.6000    0.0000    0.0000 N   0  0
    1.3000    0.7500    0.0000 C   0  0
    2.5969   -1.5008    0.0000 C   0  0
    7.7969   -1.5008    0.0000 C   0  0
   14.2999    0.7500    0.0000 C   0  0
   13.0030   -1.5008    0.0000 C   0  0
    8.2340    1.2501    0.0000 H   0  0
    9.0999    1.7500    0.0000 H   0  0
    9.5340   -0.5001    0.0000 H   0  0
   10.3999   -1.0000    0.0000 H   0  0
   12.5659    1.2501    0.0000 H   0  0
   11.6999    1.7500    0.0000 H   0  0
    7.3659    1.2501    0.0000 H   0  0
    6.5000    1.7500    0.0000 H   0  0
    4.3340   -0.5001    0.0000 H   0  0
    5.2000   -1.0000    0.0000 H   0  0
    3.0340    1.2501    0.0000 H   0  0
    3.9000    1.7500    0.0000 H   0  0
    0.4338    0.2503    0.0000 H   0  0
    0.4340    1.2501    0.0000 H   0  0
    1.3000    1.7500    0.0000 H   0  0
    1.7302   -1.9996    0.0000 H   0  0
    2.5953   -2.5008    0.0000 H   0  0
    3.4620   -2.0023    0.0000 H   0  0
    6.9301   -1.9996    0.0000 H   0  0
    7.7953   -2.5008    0.0000 H   0  0
    8.6620   -2.0023    0.0000 H   0  0
   15.1661    0.2503    0.0000 H   0  0
   15.1658    1.2501    0.0000 H   0  0
   14.2999    1.7500    0.0000 H   0  0
   13.8697   -1.9996    0.0000 H   0  0
   13.0046   -2.5008    0.0000 H   0  0
   12.1378   -2.0023    0.0000 H   0  0
  1  2  1  0
  1  4  1  0
  2  3  1  0
  3  5  1  0
  4  6  1  0
  4 12  1  0
  5 13  1  0
  5 14  1  0
  6  7  1  0
  7  8  1  0
  8  9  1  0
  9 10  1  0
  9 11  1  0
  1 15  1  0
  1 16  1  0
  2 17  1  0
  2 18  1  0
  3 19  1  0
  3 20  1  0
  6 21  1  0
  6 22  1  0
  7 23  1  0
  7 24  1  0
  8 25  1  0
  8 26  1  0
 10 27  1  0
 10 28  1  0
 10 29  1  0
 11 30  1  0
 11 31  1  0
 11 32  1  0
 12 33  1  0
 12 34  1  0
 12 35  1  0
 13 36  1  0
 13 37  1  0
 13 38  1  0
 14 39  1  0
 14 40  1  0
 14 41  1  0
V    1 0
V    2 1
V    3 2
V    4 3
V    5 4
V    6 5
V    7 6
V    8 7
V    9 8
V   10 9
V   11 10
V   12 11
V   13 12
V   14 13
M  END
> <DSSTox_RID>
61278

> <DSSTox_CID>
24564

> <DSSTox_CID_Parent>
24564

> <DSSTox_Generic_SID>
44564

> <DSSTox_FileID>
823_TXCST2_v1a

> <STRUCTURE_Formula>
C11H27N3

> <STRUCTURE_MolecularWeight>
201.3522

> <STRUCTURE_ChemicalType>
defined organic

> <STRUCTURE_TestedForm_DefinedOrganic>
parent

> <STRUCTURE_Shown>
tested chemical

> <TestSubstance_ChemicalName>
N-[3-(Dimethylamino)propyl]-N,N',N'-trimethylpropane-1,3-diamine

> <TestSubstance_CASRN>
3855-32-1

> <TestSubstance_Description>
single chemical compound

> <STRUCTURE_ChemicalName_IUPAC>
N-[3-(dimethylamino)propyl]-N,N',N'-trimethylpropane-1,3-diamine

> <STRUCTURE_SMILES>
CN(C)CCCN(C)CCCN(C)C

> <STRUCTURE_Parent_SMILES>
CN(C)CCCN(C)CCCN(C)C

> <STRUCTURE_InChIS>
InChI=1S/C11H27N3/c1-12(2)8-6-10-14(5)11-7-9-13(3)4/h6-11H2,1-5H3

> <STRUCTURE_InChIKey>
SKCNNQDRNPQEFU-UHFFFAOYSA-N

> <Substance_modify_yyyymmdd>
20091116

> <Coord_Metals>
0

> <Index>
823

> <Canonical_Smiles>
CN(C)CCCN(C)CCCN(C)C

> <Molecular_Weight>
201.35217

> <Frequency>
1

$$$$

  SciTegic          2D

 27 26  0  0  0  0            999 V2000
   10.3999    0.0000    0.0000 C   0  0
    9.0999    0.7500    0.0000 C   0  0
    7.7999    0.0000    0.0000 C   0  0
    6.5000    0.7500    0.0000 C   0  0
    5.2000    0.0000    0.0000 C   0  0
    3.9000    0.7500    0.0000 C   0  0
    2.6000    0.0000    0.0000 C   0  0
    1.3000    0.7500    0.0000 C   0  0
   11.6999    0.7500    0.0000 O   0  0
    7.7999   -1.2000    0.0000 F   0  0
    6.7608   -0.6002    0.0000 F   0  0
    6.5000    1.9500    0.0000 F   0  0
    5.4608    1.3502    0.0000 F   0  0
    5.2000   -1.2000    0.0000 F   0  0
    4.1608   -0.6002    0.0000 F   0  0
    3.9000    1.9500    0.0000 F   0  0
    2.8608    1.3502    0.0000 F   0  0
    2.6000   -1.2000    0.0000 F   0  0
    1.5608   -0.6002    0.0000 F   0  0
    0.2606    0.1503    0.0000 F   0  0
    1.3000    1.9500    0.0000 F   0  0
    0.2609    1.3502    0.0000 F   0  0
   10.3999   -1.0000    0.0000 H   0  0
   11.2659   -0.5001    0.0000 H   0  0
    9.0999    1.7500    0.0000 H   0  0
    8.2340    1.2501    0.0000 H   0  0
   12.5661    0.2503    0.0000 H   0  0
  1  2  1  0
  1  9  1  0
  2  3  1  0
  3  4  1  0
  3 10  1  0
  3 11  1  0
  4  5  1  0
  4 12  1  0
  4 13  1  0
  5  6  1  0
  5 14  1  0
  5 15  1  0
  6  7  1  0
  6 16  1  0
  6 17  1  0
  7  8  1  0
  7 18  1  0
  7 19  1  0
  8 20  1  0
  8 21  1  0
  8 22  1  0
  1 23  1  0
  1 24  1  0
  2 25  1  0
  2 26  1  0
  9 27  1  0
V    1 0
V    2 1
V    3 2
V    4 3
V    5 4
V    6 5
V    7 6
V    8 7
V    9 8
V   10 9
V   11 10
V   12 11
V   13 12
V   14 13
V   15 14
V   16 15
V   17 16
V   18 17
V   19 18
V   20 19
V   21 20
V   22 21
M  END
> <DSSTox_RID>
61335

> <DSSTox_CID>
24572

> <DSSTox_CID_Parent>
24572

> <DSSTox_Generic_SID>
44572

> <DSSTox_FileID>
824_TXCST2_v1a

> <STRUCTURE_Formula>
C8H5F13O

> <STRUCTURE_MolecularWeight>
364.1039

> <STRUCTURE_ChemicalType>
defined organic

> <STRUCTURE_TestedForm_DefinedOrganic>
parent

> <STRUCTURE_Shown>
tested chemical

> <TestSubstance_ChemicalName>
3,3,4,4,5,5,6,6,7,7,8,8,8-Tridecafluorooctan-1-ol

> <TestSubstance_CASRN>
647-42-7

> <TestSubstance_Description>
single chemical compound

> <STRUCTURE_ChemicalName_IUPAC>
3,3,4,4,5,5,6,6,7,7,8,8,8-tridecafluorooctan-1-ol

> <STRUCTURE_SMILES>
OCCC(F)(F)C(F)(F)C(F)(F)C(F)(F)C(F)(F)C(F)(F)F

> <STRUCTURE_Parent_SMILES>
OCCC(F)(F)C(F)(F)C(F)(F)C(F)(F)C(F)(F)C(F)(F)F

> <STRUCTURE_InChIS>
InChI=1S/C8H5F13O/c9-3(10,1-2-22)4(11,12)5(13,14)6(15,16)7(17,18)8(19,20)21/h22H,1-2H2

> <STRUCTURE_InChIKey>
GRJRKPMIRMSBNK-UHFFFAOYSA-N

> <Substance_modify_yyyymmdd>
20091116

> <Coord_Metals>
0

> <Index>
824

> <Canonical_Smiles>
OCCC(F)(F)C(F)(F)C(F)(F)C(F)(F)C(F)(F)C(F)(F)F

> <Molecular_Weight>
364.10394

> <Frequency>
1

$$$$

  SciTegic          2D

 31 31  0  0  0  0            999 V2000
    1.2990   -0.7500    0.0000 C   0  0
    2.5973   -1.5031    0.0000 O   0  0
    1.2990    0.7500    0.0000 C   0  0
    0.0000   -1.5000    0.0000 C   0  0
   -1.2990   -0.7500    0.0000 C   0  0
    0.0000    1.5000    0.0000 C   0  0
   -1.2990    0.7500    0.0000 C   0  0
    2.2637    1.8997    0.0000 C   0  0
    3.7419    1.6400    0.0000 C   0  0
    1.7500    3.3098    0.0000 C   0  0
    2.7848    0.4612    0.0000 C   0  0
   -2.5988    1.5004    0.0000 C   0  0
   -3.8990    0.7508    0.0000 C   0  0
    2.5958   -2.5031    0.0000 H   0  0
    0.0000   -2.5000    0.0000 H   0  0
   -2.1651   -1.2500    0.0000 H   0  0
    0.0000    2.5000    0.0000 H   0  0
    4.3847    2.4061    0.0000 H   0  0
    4.0843    0.7005    0.0000 H   0  0
    4.7268    1.4666    0.0000 H   0  0
    2.3920    4.0764    0.0000 H   0  0
    0.7651    3.4828    0.0000 H   0  0
    1.4072    4.2492    0.0000 H   0  0
    2.1413   -0.3042    0.0000 H   0  0
    3.1258   -0.4789    0.0000 H   0  0
    3.7694    0.2863    0.0000 H   0  0
   -2.5985    2.5004    0.0000 H   0  0
   -1.7327    2.0003    0.0000 H   0  0
   -4.7650    1.2508    0.0000 H   0  0
   -3.8993   -0.2492    0.0000 H   0  0
   -4.7651    0.2509    0.0000 H   0  0
  1  2  1  0
  1  3  2  0
  1  4  1  0
  3  6  1  0
  3  8  1  0
  4  5  2  0
  5  7  1  0
  6  7  2  0
  7 12  1  0
  8  9  1  0
  8 10  1  0
  8 11  1  0
 12 13  1  0
  2 14  1  0
  4 15  1  0
  5 16  1  0
  6 17  1  0
  9 18  1  0
  9 19  1  0
  9 20  1  0
 10 21  1  0
 10 22  1  0
 10 23  1  0
 11 24  1  0
 11 25  1  0
 11 26  1  0
 12 27  1  0
 12 28  1  0
 13 29  1  0
 13 30  1  0
 13 31  1  0
V    1 0
V    2 1
V    3 2
V    4 3
V    5 4
V    6 5
V    7 6
V    8 7
V    9 8
V   10 9
V   11 10
V   12 11
V   13 12
M  END
> <DSSTox_RID>
61447

> <DSSTox_CID>
24581

> <DSSTox_CID_Parent>
24581

> <DSSTox_Generic_SID>
44581

> <DSSTox_FileID>
825_TXCST2_v1a

> <STRUCTURE_Formula>
C12H18O

> <STRUCTURE_MolecularWeight>
178.2707

> <STRUCTURE_ChemicalType>
defined organic

> <STRUCTURE_TestedForm_DefinedOrganic>
parent

> <STRUCTURE_Shown>
tested chemical

> <TestSubstance_ChemicalName>
2-tert-Butyl-4-ethylphenol

> <TestSubstance_CASRN>
96-70-8

> <TestSubstance_Description>
single chemical compound

> <STRUCTURE_ChemicalName_IUPAC>
2-tert-butyl-4-ethylphenol

> <STRUCTURE_SMILES>
OC1=C(C(C)(C)C)C=C(CC)C=C1

> <STRUCTURE_Parent_SMILES>
OC1=C(C(C)(C)C)C=C(CC)C=C1

> <STRUCTURE_InChIS>
InChI=1S/C12H18O/c1-5-9-6-7-11(13)10(8-9)12(2,3)4/h6-8,13H,5H2,1-4H3

> <STRUCTURE_InChIKey>
LZHCVNIARUXHAL-UHFFFAOYSA-N

> <Substance_modify_yyyymmdd>
20091116

> <Coord_Metals>
0

> <Index>
825

> <Canonical_Smiles>
CCc1ccc(O)c(c1)C(C)(C)C

> <Molecular_Weight>
178.27071

> <Frequency>
1

$$$$

  SciTegic          2D

 22 22  0  0  0  0            999 V2000
   -2.0668    1.8090    0.0000 N   0  3
   -3.3663    2.5597    0.0000 C   0  0
   -0.7671    2.5594    0.0000 C   0  0
   -2.0647    3.3389    0.0000 C   0  0
   -2.0662    0.3081    0.0000 C   0  0
   -0.7500   -0.4330    0.0000 C   0  0
    0.7500   -0.4330    0.0000 C   0  0
    0.0000    0.8660    0.0000 O   0  0
   -3.3667    3.5597    0.0000 H   0  0
   -4.2323    2.0597    0.0000 H   0  0
   -4.2324    3.0596    0.0000 H   0  0
    0.0993    2.0600    0.0000 H   0  0
   -0.7674    3.5594    0.0000 H   0  0
    0.0987    3.0598    0.0000 H   0  0
   -1.1982    3.8382    0.0000 H   0  0
   -2.0637    4.3389    0.0000 H   0  0
   -2.9301    3.8399    0.0000 H   0  0
   -2.9323   -0.1919    0.0000 H   0  0
   -2.9324    0.8080    0.0000 H   0  0
   -0.7610   -1.4330    0.0000 H   0  0
    0.7618   -1.4329    0.0000 H   0  0
    1.6220    0.0565    0.0000 H   0  0
  1  2  1  0
  1  3  1  0
  1  4  1  0
  1  5  1  0
  5  6  1  0
  6  7  1  0
  6  8  1  0
  7  8  1  0
  2  9  1  0
  2 10  1  0
  2 11  1  0
  3 12  1  0
  3 13  1  0
  3 14  1  0
  4 15  1  0
  4 16  1  0
  4 17  1  0
  5 18  1  0
  5 19  1  0
  6 20  1  0
  7 21  1  0
  7 22  1  0
M  CHG  1   1   1
V    1 0
V    2 1
V    3 2
V    4 3
V    5 4
V    6 5
V    7 6
V    8 7
M  END
> <DSSTox_RID>
67638

> <DSSTox_CID>
24643

> <DSSTox_CID_Parent>
25046

> <DSSTox_Generic_SID>
44643

> <DSSTox_FileID>
826_TXCST2_v1a

> <STRUCTURE_Formula>
C6H14ClNO

> <STRUCTURE_MolecularWeight>
151.6345

> <STRUCTURE_ChemicalType>
defined organic

> <STRUCTURE_TestedForm_DefinedOrganic>
salt Cl

> <STRUCTURE_Shown>
tested chemical

> <TestSubstance_ChemicalName>
N,N,N-Trimethyl(oxiran-2-yl)methanaminium chloride

> <TestSubstance_CASRN>
3033-77-0

> <TestSubstance_Description>
single chemical compound

> <ChemicalNote>
ammonium; parent [45633-15-6]

> <STRUCTURE_ChemicalName_IUPAC>
N,N,N-trimethyl(oxiran-2-yl)methanaminium chloride

> <STRUCTURE_SMILES>
C[N+](CC1CO1)(C)C.[Cl-]

> <STRUCTURE_Parent_SMILES>
C[N+](CC1CO1)(C)C

> <STRUCTURE_InChIS>
InChI=1S/C6H14NO.ClH/c1-7(2,3)4-6-5-8-6;/h6H,4-5H2,1-3H3;1H/q+1;/p-1

> <STRUCTURE_InChIKey>
PUVAFTRIIUSGLK-UHFFFAOYSA-M

> <Substance_modify_yyyymmdd>
20091116

> <Coord_Metals>
0

> <Index>
826

> <Canonical_Smiles>
C[N+](C)(C)CC1CO1

> <Molecular_Weight>
116.18146

> <Frequency>
1

$$$$

  SciTegic          2D

 45 47  0  0  0  0            999 V2000
    2.5889    0.0182    0.0000 N   0  0
    1.7138    1.2033    0.0000 C   0  0
    1.7138   -1.2033    0.0000 C   0  0
    3.6061   -2.4267    0.0000 C   0  0
    4.8301   -3.2938    0.0000 C   0  0
    3.7455   -0.9381    0.0000 C   0  0
    0.2917   -0.7475    0.0000 C   0  0
    0.2917    0.7475    0.0000 C   0  0
    6.1930   -2.6673    0.0000 C   0  0
    2.0907   -2.3426    0.0000 O   0  0
    2.0825    2.3453    0.0000 O   0  0
    5.1080   -0.3067    0.0000 C   0  0
    6.3319   -1.1738    0.0000 C   0  0
   -1.0028   -1.5132    0.0000 C   0  0
   -1.0028    1.5132    0.0000 C   0  0
   -2.3155    0.7475    0.0000 C   0  0
   -2.3155   -0.7475    0.0000 C   0  0
    5.7480    1.0508    0.0000 C   0  0
    4.8931    2.2844    0.0000 C   0  0
    7.2436    1.1748    0.0000 C   0  0
    2.9627   -3.7826    0.0000 C   0  0
    1.4668   -3.9043    0.0000 C   0  0
    3.8156   -5.0174    0.0000 C   0  0
   -3.6217    1.4865    0.0000 O   0  0
    4.7374   -4.2895    0.0000 H   0  0
    7.0090   -3.2454    0.0000 H   0  0
    7.2406   -0.7562    0.0000 H   0  0
   -0.9997   -2.5132    0.0000 H   0  0
   -0.9997    2.5132    0.0000 H   0  0
   -3.1826   -1.2456    0.0000 H   0  0
    4.7514    0.9682    0.0000 H   0  0
    5.3196    3.1889    0.0000 H   0  0
    3.8965    2.2017    0.0000 H   0  0
    4.3231    3.1060    0.0000 H   0  0
    7.6709    2.0789    0.0000 H   0  0
    7.8132    0.3529    0.0000 H   0  0
    8.2402    1.2569    0.0000 H   0  0
    2.3944   -2.9598    0.0000 H   0  0
    1.0381   -4.8078    0.0000 H   0  0
    0.8985   -3.0815    0.0000 H   0  0
    0.4701   -3.9850    0.0000 H   0  0
    3.3878   -5.9213    0.0000 H   0  0
    4.8123   -4.9364    0.0000 H   0  0
    4.3843   -5.8400    0.0000 H   0  0
   -4.4836    0.9794    0.0000 H   0  0
  1  2  1  0
  1  3  1  0
  1  6  1  0
  2  8  1  0
  2 11  2  0
  3  7  1  0
  3 10  2  0
  4  6  2  0
  4  5  1  0
  4 21  1  0
  5  9  2  0
  6 12  1  0
  7 14  2  0
  7  8  1  0
  8 15  2  0
  9 13  1  0
 12 13  2  0
 12 18  1  0
 14 17  1  0
 15 16  1  0
 16 17  2  0
 16 24  1  0
 18 19  1  0
 18 20  1  0
 21 22  1  0
 21 23  1  0
  5 25  1  0
  9 26  1  0
 13 27  1  0
 14 28  1  0
 15 29  1  0
 17 30  1  0
 18 31  1  0
 19 32  1  0
 19 33  1  0
 19 34  1  0
 20 35  1  0
 20 36  1  0
 20 37  1  0
 21 38  1  0
 22 39  1  0
 22 40  1  0
 22 41  1  0
 23 42  1  0
 23 43  1  0
 23 44  1  0
 24 45  1  0
V    1 0
V    2 1
V    3 2
V    4 3
V    5 4
V    6 5
V    7 6
V    8 7
V    9 8
V   10 9
V   11 10
V   12 11
V   13 12
V   14 13
V   15 14
V   16 15
V   17 16
V   18 17
V   19 18
V   20 19
V   21 20
V   22 21
V   23 22
V   24 23
M  END
> <DSSTox_RID>
65889

> <DSSTox_CID>
26970

> <DSSTox_CID_Parent>
26970

> <DSSTox_Generic_SID>
46970

> <DSSTox_FileID>
827_TXCST2_v1a

> <STRUCTURE_Formula>
C20H21NO3

> <STRUCTURE_MolecularWeight>
323.3856

> <STRUCTURE_ChemicalType>
defined organic

> <STRUCTURE_TestedForm_DefinedOrganic>
parent

> <STRUCTURE_Shown>
tested chemical

> <TestSubstance_ChemicalName>
5HPP-33

> <TestSubstance_CASRN>
105624-86-0

> <TestSubstance_Description>
single chemical compound

> <STRUCTURE_ChemicalName_IUPAC>
2-[2,6-di(propan-2-yl)phenyl]-5-hydroxy-1H-isoindole-1,3(2H)-dione

> <STRUCTURE_SMILES>
O=C(C1=C2C=C(O)C=C1)N(C3=C(C(C)C)C=CC=C3C(C)C)C2=O

> <STRUCTURE_Parent_SMILES>
O=C(C1=C2C=C(O)C=C1)N(C3=C(C(C)C)C=CC=C3C(C)C)C2=O

> <STRUCTURE_InChIS>
InChI=1S/C20H21NO3/c1-11(2)14-6-5-7-15(12(3)4)18(14)21-19(23)16-9-8-13(22)10-17(16)20(21)24/h5-12,22H,1-4H3

> <STRUCTURE_InChIKey>
LAKWINYVWJPHQW-UHFFFAOYSA-N

> <Substance_modify_yyyymmdd>
20100119

> <Coord_Metals>
0

> <Index>
827

> <Canonical_Smiles>
CC(C)c1cccc(C(C)C)c1N2C(=O)c3ccc(O)cc3C2=O

> <Molecular_Weight>
323.38564

> <Frequency>
1

$$$$

  SciTegic          2D

 24 24  0  0  0  0            999 V2000
    1.2990   -0.7500    0.0000 C   0  0
    1.2990    0.7500    0.0000 C   0  0
    0.0000    1.5000    0.0000 C   0  0
   -1.2990    0.7500    0.0000 C   0  0
   -1.2990   -0.7500    0.0000 C   0  0
    0.0000   -1.5000    0.0000 C   0  0
    2.2638   -1.8997    0.0000 C   0  0
    3.7419   -1.6400    0.0000 C   0  0
    1.7500   -3.3098    0.0000 C   0  0
    2.7848   -0.4612    0.0000 C   0  0
    2.1651    1.2500    0.0000 H   0  0
    0.0000    2.5000    0.0000 H   0  0
   -2.1651    1.2500    0.0000 H   0  0
   -2.1651   -1.2500    0.0000 H   0  0
    0.0000   -2.5000    0.0000 H   0  0
    4.3847   -2.4061    0.0000 H   0  0
    4.0843   -0.7004    0.0000 H   0  0
    4.7268   -1.4665    0.0000 H   0  0
    2.3921   -4.0764    0.0000 H   0  0
    0.7651   -3.4828    0.0000 H   0  0
    1.4073   -4.2492    0.0000 H   0  0
    2.1413    0.3042    0.0000 H   0  0
    3.1258    0.4789    0.0000 H   0  0
    3.7694   -0.2863    0.0000 H   0  0
  1  2  2  0
  1  6  1  0
  1  7  1  0
  2  3  1  0
  3  4  2  0
  4  5  1  0
  5  6  2  0
  7  8  1  0
  7  9  1  0
  7 10  1  0
  2 11  1  0
  3 12  1  0
  4 13  1  0
  5 14  1  0
  6 15  1  0
  8 16  1  0
  8 17  1  0
  8 18  1  0
  9 19  1  0
  9 20  1  0
  9 21  1  0
 10 22  1  0
 10 23  1  0
 10 24  1  0
V    1 0
V    2 1
V    3 2
V    4 3
V    5 4
V    6 5
V    7 6
V    8 7
V    9 8
V   10 9
M  END
> <DSSTox_RID>
66006

> <DSSTox_CID>
27138

> <DSSTox_CID_Parent>
27128

> <DSSTox_Generic_SID>
47138

> <DSSTox_FileID>
828_TXCST2_v1a

> <STRUCTURE_Formula>
C10H14

> <STRUCTURE_MolecularWeight>
134.2182

> <STRUCTURE_ChemicalType>
defined organic

> <STRUCTURE_TestedForm_DefinedOrganic>
parent

> <STRUCTURE_Shown>
tested chemical

> <TestSubstance_ChemicalName>
tert-Butylbenzene

> <TestSubstance_CASRN>
98-06-6

> <TestSubstance_Description>
single chemical compound

> <STRUCTURE_ChemicalName_IUPAC>
tert-butylbenzene

> <STRUCTURE_SMILES>
CC(C)(C)C1=CC=CC=C1

> <STRUCTURE_Parent_SMILES>
CC(C)(C)C1=CC=CC=C1

> <STRUCTURE_InChIS>
InChI=1S/C10H14/c1-10(2,3)9-7-5-4-6-8-9/h4-8H,1-3H3

> <STRUCTURE_InChIKey>
YTZKOQUCBOVLHL-UHFFFAOYSA-N

> <Substance_modify_yyyymmdd>
20100502

> <Coord_Metals>
0

> <Index>
828

> <Canonical_Smiles>
CC(C)(C)c1ccccc1

> <Molecular_Weight>
134.21815

> <Frequency>
1

$$$$

  SciTegic          2D

 12 11  0  0  0  0            999 V2000
    2.6000    0.0000    0.0000 C   0  0
    2.6000   -1.2000    0.0000 O   0  0
    1.3000    0.7500    0.0000 C   0  0
    3.9000    0.7500    0.0000 N   0  0
    5.2000    0.0000    0.0000 C   0  0
    0.4338    0.2503    0.0000 H   0  0
    0.4340    1.2501    0.0000 H   0  0
    1.3000    1.7500    0.0000 H   0  0
    3.9000    1.7500    0.0000 H   0  0
    6.0661    0.4997    0.0000 H   0  0
    5.2000   -1.0000    0.0000 H   0  0
    6.0659   -0.5001    0.0000 H   0  0
  1  2  2  0
  1  4  1  0
  1  3  1  0
  4  5  1  0
  3  6  1  0
  3  7  1  0
  3  8  1  0
  4  9  1  0
  5 10  1  0
  5 11  1  0
  5 12  1  0
V    1 0
V    2 1
V    3 2
V    4 3
V    5 4
M  END
> <DSSTox_RID>
66190

> <DSSTox_CID>
27167

> <DSSTox_CID_Parent>
27167

> <DSSTox_Generic_SID>
47167

> <DSSTox_FileID>
829_TXCST2_v1a

> <STRUCTURE_Formula>
C3H7NO

> <STRUCTURE_MolecularWeight>
73.0938

> <STRUCTURE_ChemicalType>
defined organic

> <STRUCTURE_TestedForm_DefinedOrganic>
parent

> <STRUCTURE_Shown>
tested chemical

> <TestSubstance_ChemicalName>
N-Methylacetamide

> <TestSubstance_CASRN>
79-16-3

> <TestSubstance_Description>
single chemical compound

> <STRUCTURE_ChemicalName_IUPAC>
N-methylacetamide

> <STRUCTURE_SMILES>
O=C(C)NC

> <STRUCTURE_Parent_SMILES>
O=C(C)NC

> <STRUCTURE_InChIS>
InChI=1S/C3H7NO/c1-3(5)4-2/h1-2H3,(H,4,5)

> <STRUCTURE_InChIKey>
OHLUUHNLEMFGTQ-UHFFFAOYSA-N

> <Substance_modify_yyyymmdd>
20100503

> <Coord_Metals>
0

> <Index>
829

> <Canonical_Smiles>
CNC(=O)C

> <Molecular_Weight>
73.09378

> <Frequency>
1

$$$$

  SciTegic          2D

 47 48  0  0  0  0            999 V2000
    1.2990   -0.7500    0.0000 C   0  0
    1.2990    0.7500    0.0000 C   0  0
    0.0000   -1.5000    0.0000 C   0  0
    2.5973   -1.5031    0.0000 C   0  0
    0.0000    1.5000    0.0000 C   0  0
   -1.2990   -0.7500    0.0000 C   0  0
    2.5951   -3.0039    0.0000 C   0  0
   -1.2990    0.7500    0.0000 C   0  0
    0.5133    2.9103    0.0000 C   0  0
   -2.5988   -1.5004    0.0000 C   0  0
    3.8056   -3.8679    0.0000 C   0  0
    1.3786   -3.8595    0.0000 S   0  0
   -2.6003    1.4977    0.0000 O   0  0
   -0.4507    4.0606    0.0000 C   0  0
    1.9913    3.1705    0.0000 C   0  0
   -0.9930    2.6423    0.0000 C   0  0
   -2.5997   -3.0012    0.0000 C   0  0
   -3.8982   -0.7496    0.0000 C   0  0
   -1.2726   -2.2633    0.0000 C   0  0
    3.3372   -5.2929    0.0000 N   0  0
    4.9460   -3.4943    0.0000 O   0  0
    1.8372   -5.2877    0.0000 C   0  0
    0.9548   -6.4986    0.0000 N   0  0
    2.1651    1.2500    0.0000 H   0  0
    0.0000   -2.5000    0.0000 H   0  0
    3.4642   -1.0046    0.0000 H   0  0
   -3.4657    0.9965    0.0000 H   0  0
   -0.1087    5.0003    0.0000 H   0  0
   -1.4356    3.8873    0.0000 H   0  0
   -1.0934    4.8268    0.0000 H   0  0
    2.3342    4.1098    0.0000 H   0  0
    2.6336    2.4040    0.0000 H   0  0
    2.9763    3.3433    0.0000 H   0  0
   -1.3341    1.7023    0.0000 H   0  0
   -1.9776    2.4676    0.0000 H   0  0
   -1.6368    3.4075    0.0000 H   0  0
   -3.4658   -3.5012    0.0000 H   0  0
   -1.7339   -3.5015    0.0000 H   0  0
   -2.5999   -4.0012    0.0000 H   0  0
   -4.7647   -1.2488    0.0000 H   0  0
   -3.8976    0.2504    0.0000 H   0  0
   -4.7639   -0.2490    0.0000 H   0  0
   -0.4071   -1.7625    0.0000 H   0  0
   -0.4060   -2.7624    0.0000 H   0  0
   -1.2714   -3.2633    0.0000 H   0  0
    1.3597   -7.4130    0.0000 H   0  0
   -0.0395   -6.3923    0.0000 H   0  0
  1  2  2  0
  1  3  1  0
  4  1  1  0
  2  5  1  0
  3  6  2  0
  4  7  2  0
  5  8  2  0
  5  9  1  0
  6 10  1  0
  6  8  1  0
  7 11  1  0
  7 12  1  0
  8 13  1  0
  9 14  1  0
  9 15  1  0
  9 16  1  0
 10 17  1  0
 10 18  1  0
 10 19  1  0
 11 20  1  0
 11 21  2  0
 12 22  1  0
 20 22  2  0
 22 23  1  0
  2 24  1  0
  3 25  1  0
  4 26  1  0
 13 27  1  0
 14 28  1  0
 14 29  1  0
 14 30  1  0
 15 31  1  0
 15 32  1  0
 15 33  1  0
 16 34  1  0
 16 35  1  0
 16 36  1  0
 17 37  1  0
 17 38  1  0
 17 39  1  0
 18 40  1  0
 18 41  1  0
 18 42  1  0
 19 43  1  0
 19 44  1  0
 19 45  1  0
 23 46  1  0
 23 47  1  0
V    1 0
V    2 1
V    3 2
V    4 3
V    5 4
V    6 5
V    7 6
V    8 7
V    9 8
V   10 9
V   11 10
V   12 11
V   13 12
V   14 13
V   15 14
V   16 15
V   17 16
V   18 17
V   19 18
V   20 19
V   21 20
V   22 21
V   23 22
M  END
> <DSSTox_RID>
66192

> <DSSTox_CID>
27246

> <DSSTox_CID_Parent>
27247

> <DSSTox_Generic_SID>
47246

> <DSSTox_FileID>
830_TXCST2_v1a

> <STRUCTURE_Formula>
C19H28N2O5S2

> <STRUCTURE_MolecularWeight>
428.566

> <STRUCTURE_ChemicalType>
defined organic

> <STRUCTURE_TestedForm_DefinedOrganic>
complex methylsulfonic acid

> <STRUCTURE_Shown>
tested chemical

> <TestSubstance_ChemicalName>
Darbufelone mesylate

> <TestSubstance_CASRN>
139340-56-0

> <TestSubstance_Description>
single chemical compound

> <ChemicalNote>
stereochem

> <STRUCTURE_ChemicalName_IUPAC>
(5Z)-5-(3,5-di-tert-butyl-4-hydroxybenzylidene)-2-imino-1,3-thiazolidin-4-one methanesulfonate (salt)

> <STRUCTURE_SMILES>
OC1=C(C(C)(C)C)C=C(/C=C(SC2=N)/C(N2)=O)C=C1C(C)(C)C.O=S(O)(C)=O

> <STRUCTURE_Parent_SMILES>
OC1=C(C(C)(C)C)C=C(/C=C(SC2=N)/C(N2)=O)C=C1C(C)(C)C

> <STRUCTURE_InChIS>
InChI=1S/C18H24N2O2S.CH4O3S/c1-17(2,3)11-7-10(8-12(14(11)21)18(4,5)6)9-13-15(22)20-16(19)23-13;1-5(2,3)4/h7-9,21H,1-6H3,(H2,19,20,22);1H3,(H,2,3,4)/b13-9-;

> <STRUCTURE_InChIKey>
BAZGFSKJAVQJJI-CHHCPSLASA-N

> <Substance_modify_yyyymmdd>
20100523

> <Coord_Metals>
0

> <Index>
830

> <Canonical_Smiles>
CC(C)(C)c1cc(C=C2SC(=NC2=O)N)cc(c1O)C(C)(C)C

> <Molecular_Weight>
332.46036

> <Frequency>
1

$$$$

  SciTegic          2D

 50 54  0  0  0  0            999 V2000
   -1.6300    1.1500    0.0000 C   0  0
   -1.6300   -0.4000    0.0000 C   0  0
   -0.4100    2.0900    0.0000 N   0  0
   -2.9600    1.9100    0.0000 C   0  0
   -0.4100   -1.3100    0.0000 C   0  0
   -2.9600   -1.1200    0.0000 C   0  0
    1.0600    1.7700    0.0000 C   0  0
   -0.7200    3.5800    0.0000 C   0  0
   -2.9700    3.4300    0.0000 C   0  0
   -4.2600    1.1400    0.0000 C   0  0
   -0.7181   -2.7788    0.0000 C   0  0
    1.0600   -0.9700    0.0000 N   0  0
   -4.2600   -0.3700    0.0000 C   0  0
    1.7400    0.4000    0.0000 C   0  0
    1.7978    2.7164    0.0000 O   0  0
    0.4622   -3.7121    0.0000 C   0  0
   -2.1088   -3.3381    0.0000 C   0  0
   -5.5583   -1.1227    0.0000 C   0  0
    2.4392   -0.8999    0.0000 N   0  0
    0.2463   -5.1964    0.0000 C   0  0
   -2.3247   -4.8224    0.0000 C   0  0
    3.9373   -0.9909    0.0000 C   0  0
   -1.1472   -5.7516    0.0000 C   0  0
    4.6084   -2.3333    0.0000 C   0  0
    4.5988    0.0103    0.0000 O   0  0
    6.1055   -2.4264    0.0000 C   0  0
    3.7793   -3.5834    0.0000 C   0  0
    6.7735   -3.7695    0.0000 C   0  0
    4.4473   -4.9265    0.0000 C   0  0
    5.9444   -5.0195    0.0000 N   0  0
   -2.9735   -2.1199    0.0000 H   0  0
   -1.1149    4.4987    0.0000 H   0  0
    0.2710    3.4463    0.0000 H   0  0
   -2.7413    4.4035    0.0000 H   0  0
   -3.9242    3.1310    0.0000 H   0  0
   -5.1288    1.6352    0.0000 H   0  0
    2.2138    1.2806    0.0000 H   0  0
    1.3914   -3.3424    0.0000 H   0  0
   -2.8948   -2.7199    0.0000 H   0  0
   -5.5571   -2.1227    0.0000 H   0  0
   -6.4251   -0.6240    0.0000 H   0  0
   -6.4237   -1.6239    0.0000 H   0  0
    1.8879   -1.7342    0.0000 H   0  0
    1.0313   -5.8159    0.0000 H   0  0
   -3.2537   -5.1926    0.0000 H   0  0
   -1.2911   -6.7412    0.0000 H   0  0
    6.6583   -1.5931    0.0000 H   0  0
    2.7812   -3.5215    0.0000 H   0  0
    7.7716   -3.8315    0.0000 H   0  0
    3.8945   -5.7598    0.0000 H   0  0
  1  2  1  0
  1  3  1  0
  1  4  2  0
  2  5  1  0
  2  6  2  0
  3  7  1  0
  3  8  1  0
  4  9  1  0
  4 10  1  0
  5 11  1  0
  5 12  2  0
  6 13  1  0
  7 14  1  0
  7 15  2  0
  8  9  1  0
 10 13  2  0
 11 16  1  0
 11 17  2  0
 12 14  1  0
 13 18  1  0
 14 19  1  0
 16 20  2  0
 17 21  1  0
 19 22  1  0
 20 23  1  0
 21 23  2  0
 22 24  1  0
 22 25  2  0
 24 26  2  0
 24 27  1  0
 26 28  1  0
 27 29  2  0
 28 30  2  0
 29 30  1  0
  6 31  1  0
  8 32  1  0
  8 33  1  0
  9 34  1  0
  9 35  1  0
 10 36  1  0
 14 37  1  0
 16 38  1  0
 17 39  1  0
 18 40  1  0
 18 41  1  0
 18 42  1  0
 19 43  1  0
 20 44  1  0
 21 45  1  0
 23 46  1  0
 26 47  1  0
 27 48  1  0
 28 49  1  0
 29 50  1  0
V    1 0
V    2 1
V    3 2
V    4 3
V    5 4
V    6 5
V    7 6
V    8 7
V    9 8
V   10 9
V   11 10
V   12 11
V   13 12
V   14 13
V   15 14
V   16 15
V   17 16
V   18 17
V   19 18
V   20 19
V   21 20
V   22 21
V   23 22
V   24 23
V   25 24
V   26 25
V   27 26
V   28 27
V   29 28
V   30 29
M  END
> <DSSTox_RID>
66193

> <DSSTox_CID>
27248

> <DSSTox_CID_Parent>
27248

> <DSSTox_Generic_SID>
47248

> <DSSTox_FileID>
831_TXCST2_v1a

> <STRUCTURE_Formula>
C24H20N4O2

> <STRUCTURE_MolecularWeight>
396.4412

> <STRUCTURE_ChemicalType>
defined organic

> <STRUCTURE_TestedForm_DefinedOrganic>
parent

> <STRUCTURE_Shown>
tested chemical

> <TestSubstance_ChemicalName>
N-[(3R)-9-methyl-4-oxo-1-phenyl-3,4,6,7-tetrahydro[1,4]diazepino[6,7,1-hi]indol-3-yl]pyridine-4-carboxamide

> <TestSubstance_CASRN>
NOCAS_47248

> <TestSubstance_Description>
single chemical compound

> <ChemicalNote>
stereochem

> <STRUCTURE_ChemicalName_IUPAC>
N-[(3R)-9-methyl-4-oxo-1-phenyl-3,4,6,7-tetrahydro[1,4]diazepino[6,7,1-hi]indol-3-yl]pyridine-4-carboxamide

> <STRUCTURE_SMILES>
O=C3N1C(C(C(C4=CC=CC=C4)=N[C@H]3NC(C5=CC=NC=C5)=O)=CC(C)=C2)=C2CC1

> <STRUCTURE_Parent_SMILES>
O=C3N1C(C(C(C4=CC=CC=C4)=N[C@H]3NC(C5=CC=NC=C5)=O)=CC(C)=C2)=C2CC1

> <STRUCTURE_InChIS>
InChI=1S/C24H20N4O2/c1-15-13-18-9-12-28-21(18)19(14-15)20(16-5-3-2-4-6-16)26-22(24(28)30)27-23(29)17-7-10-25-11-8-17/h2-8,10-11,13-14,22H,9,12H2,1H3,(H,27,29)/t22-/m0/s1

> <STRUCTURE_InChIKey>
KYFWUBJMTHVBIF-QFIPXVFZSA-N

> <Substance_modify_yyyymmdd>
20100523

> <Coord_Metals>
0

> <Index>
831

> <Canonical_Smiles>
Cc1cc2CCN3C(=O)C(NC(=O)c4ccncc4)N=C(c5ccccc5)c(c1)c23

> <Molecular_Weight>
396.4412

> <Frequency>
1

$$$$

  SciTegic          2D

 54 58  0  0  0  0            999 V2000
   -1.2964    1.4973    0.0000 C   0  0
   -2.6111    0.7486    0.0000 C   0  0
    0.0000    0.7486    0.0000 C   0  0
   -1.2919    2.9980    0.0000 C   0  0
   -2.6111   -0.7486    0.0000 N   0  0
   -3.9122    1.4966    0.0000 C   0  0
    0.0000   -0.7486    0.0000 C   0  0
    1.2964    1.4973    0.0000 C   0  0
    0.0250    3.7544    0.0000 C   0  0
   -2.5892    3.7433    0.0000 C   0  0
   -3.9086   -1.5029    0.0000 C   0  0
   -1.2964   -1.4973    0.0000 S   0  0
   -3.9158    2.9974    0.0000 O   0  0
   -4.9501    0.8944    0.0000 O   0  0
    1.2964   -1.4973    0.0000 C   0  0
    2.5929    0.7486    0.0000 C   0  0
    0.0064    5.2583    0.0000 C   0  0
   -2.5987    5.2630    0.0000 C   0  0
   -3.9097   -3.0028    0.0000 C   0  0
   -5.2071   -0.7519    0.0000 C   0  0
   -0.2414   -2.0691    0.0000 O   0  0
   -2.3479   -2.0756    0.0000 O   0  0
    2.5929   -0.7486    0.0000 C   0  0
   -1.2896    6.0035    0.0000 C   0  0
    1.1104    6.2639    0.0000 O   0  0
   -3.8951    6.0185    0.0000 C   0  0
   -5.2093   -3.7519    0.0000 C   0  0
   -2.6105   -3.7541    0.0000 C   0  0
   -6.5067   -1.5010    0.0000 C   0  0
   -0.9759    7.4635    0.0000 O   0  0
    0.5193    7.6133    0.0000 C   0  0
   -5.1984    5.2743    0.0000 C   0  0
   -6.5078   -3.0010    0.0000 C   0  0
   -1.5704   -3.1555    0.0000 F   0  0
   -2.6117   -4.9541    0.0000 F   0  0
   -1.5719   -4.3554    0.0000 F   0  0
    1.2964    2.4973    0.0000 H   0  0
    0.8935    3.2588    0.0000 H   0  0
   -3.4532    3.2397    0.0000 H   0  0
   -4.7828    3.4958    0.0000 H   0  0
    1.2964   -2.4973    0.0000 H   0  0
    3.4589    1.2486    0.0000 H   0  0
   -5.2064    0.2481    0.0000 H   0  0
    3.4589   -1.2486    0.0000 H   0  0
   -3.8907    7.0185    0.0000 H   0  0
   -3.0270    6.5148    0.0000 H   0  0
   -5.2100   -4.7519    0.0000 H   0  0
   -7.3724   -1.0003    0.0000 H   0  0
    0.0111    8.4745    0.0000 H   0  0
    1.5191    7.5930    0.0000 H   0  0
   -6.0624    5.7779    0.0000 H   0  0
   -5.2029    4.2743    0.0000 H   0  0
   -6.0666    4.7780    0.0000 H   0  0
   -7.3741   -3.5003    0.0000 H   0  0
  1  2  2  0
  1  3  1  0
  1  4  1  0
  2  5  1  0
  2  6  1  0
  3  7  2  0
  3  8  1  0
  4  9  2  0
  4 10  1  0
  5 11  1  0
  5 12  1  0
  6 13  1  0
  6 14  2  0
  7 15  1  0
  7 12  1  0
  8 16  2  0
  9 17  1  0
 10 18  2  0
 11 19  1  0
 11 20  2  0
 12 21  2  0
 12 22  2  0
 15 23  2  0
 16 23  1  0
 17 24  2  0
 17 25  1  0
 18 26  1  0
 18 24  1  0
 19 27  2  0
 19 28  1  0
 20 29  1  0
 24 30  1  0
 25 31  1  0
 26 32  1  0
 27 33  1  0
 28 34  1  0
 28 35  1  0
 28 36  1  0
 29 33  2  0
 30 31  1  0
  8 37  1  0
  9 38  1  0
 10 39  1  0
 13 40  1  0
 15 41  1  0
 16 42  1  0
 20 43  1  0
 23 44  1  0
 26 45  1  0
 26 46  1  0
 27 47  1  0
 29 48  1  0
 31 49  1  0
 31 50  1  0
 32 51  1  0
 32 52  1  0
 32 53  1  0
 33 54  1  0
V    1 0
V    2 1
V    3 2
V    4 3
V    5 4
V    6 5
V    7 6
V    8 7
V    9 8
V   10 9
V   11 10
V   12 11
V   13 12
V   14 13
V   15 14
V   16 15
V   17 16
V   18 17
V   19 18
V   20 19
V   21 20
V   22 21
V   23 22
V   24 23
V   25 24
V   26 25
V   27 26
V   28 27
V   29 28
V   30 29
V   31 30
V   32 31
V   33 32
V   34 33
V   35 34
V   36 35
M  END
> <DSSTox_RID>
66195

> <DSSTox_CID>
27249

> <DSSTox_CID_Parent>
27250

> <DSSTox_Generic_SID>
47249

> <DSSTox_FileID>
832_TXCST2_v1a

> <STRUCTURE_Formula>
C25H17F3KNO6S

> <STRUCTURE_MolecularWeight>
555.5641

> <STRUCTURE_ChemicalType>
defined organic

> <STRUCTURE_TestedForm_DefinedOrganic>
salt K

> <STRUCTURE_Shown>
tested chemical

> <TestSubstance_ChemicalName>
Fandosentan potassium salt

> <TestSubstance_CASRN>
221246-12-4

> <TestSubstance_Description>
single chemical compound

> <STRUCTURE_ChemicalName_IUPAC>
potassium 4-(7-ethyl-1,3-benzodioxol-5-yl)-2-[2-(trifluoromethyl)phenyl]-2H-1,2-benzothiazine-3-carboxylate 1,1-dioxide

> <STRUCTURE_SMILES>
[O-]C(C(N(S(=O)4=O)C3=CC=CC=C3C(F)(F)F)=C(C2=CC(OCO5)=C5C(CC)=C2)C1=C4C=CC=C1)=O.[K+]

> <STRUCTURE_Parent_SMILES>
OC(C(N(S(=O)4=O)C3=CC=CC=C3C(F)(F)F)=C(C2=CC(OCO5)=C5C(CC)=C2)C1=C4C=CC=C1)=O

> <STRUCTURE_InChIS>
InChI=1S/C25H18F3NO6S.K/c1-2-14-11-15(12-19-23(14)35-13-34-19)21-16-7-3-6-10-20(16)36(32,33)29(22(21)24(30)31)18-9-5-4-8-17(18)25(26,27)28;/h3-12H,2,13H2,1H3,(H,30,31);/q;+1/p-1

> <STRUCTURE_InChIKey>
MZWCHWWQSPPZRH-UHFFFAOYSA-M

> <Substance_modify_yyyymmdd>
20100523

> <Coord_Metals>
0

> <Index>
832

> <Canonical_Smiles>
CCc1cc(cc2OCOc12)C3=C(N(c4ccccc4C(F)(F)F)S(=O)(=O)c5ccccc35)C(=O)O

> <Molecular_Weight>
517.47372

> <Frequency>
1

$$$$

  SciTegic          2D

 50 52  0  0  0  0            999 V2000
    4.1136   -0.6118    0.0000 C   0  0
    3.9667    0.8810    0.0000 C   0  0
    3.7799   -2.0540    0.0000 C   0  0
    5.4798   -1.2310    0.0000 N   0  0
    3.3596    2.2312    0.0000 N   0  0
    5.1860    1.7546    0.0000 C   0  0
    2.3452   -2.4919    0.0000 C   0  0
    4.8764   -3.0775    0.0000 C   0  0
    6.6992   -0.3574    0.0000 C   0  0
    1.8707    2.4200    0.0000 C   0  0
    6.5522    1.1354    0.0000 C   0  0
    2.0071   -3.9533    0.0000 C   0  0
    4.5383   -4.5389    0.0000 C   0  0
    1.2888    3.8034    0.0000 C   0  0
    3.1037   -4.9768    0.0000 C   0  0
    2.1955    4.9984    0.0000 C   0  0
   -0.1994    3.9912    0.0000 C   0  0
    1.6140    6.3811    0.0000 C   0  0
    3.6849    4.8136    0.0000 O   0  0
   -0.7809    5.3738    0.0000 C   0  0
    0.1258    6.5688    0.0000 C   0  0
    4.5904    6.0105    0.0000 C   0  0
   -2.2695    5.5647    0.0000 O   0  0
   -2.8494    6.9490    0.0000 C   0  0
   -4.0397    7.1017    0.0000 F   0  0
   -2.1224    7.9037    0.0000 F   0  0
   -3.3125    8.0561    0.0000 F   0  0
    3.2127   -0.1778    0.0000 H   0  0
    4.8873    0.4906    0.0000 H   0  0
    5.5777   -2.2262    0.0000 H   0  0
    3.9643    3.0276    0.0000 H   0  0
    4.2657    2.1457    0.0000 H   0  0
    6.0124    2.3177    0.0000 H   0  0
    1.6142   -1.8096    0.0000 H   0  0
    5.8329   -2.7856    0.0000 H   0  0
    7.4981    0.2440    0.0000 H   0  0
    6.7737   -1.3546    0.0000 H   0  0
    1.2660    1.6235    0.0000 H   0  0
    2.2579    1.4980    0.0000 H   0  0
    5.7533    0.5340    0.0000 H   0  0
    7.4531    0.7013    0.0000 H   0  0
    1.0507   -4.2452    0.0000 H   0  0
    5.2694   -5.2213    0.0000 H   0  0
    2.8783   -5.9511    0.0000 H   0  0
   -0.8038    3.1945    0.0000 H   0  0
    2.2184    7.1777    0.0000 H   0  0
   -0.2619    7.4906    0.0000 H   0  0
    5.5828    5.8874    0.0000 H   0  0
    4.2011    6.9316    0.0000 H   0  0
    5.1934    6.8083    0.0000 H   0  0
  1  2  1  0
  1  3  1  0
  1  4  1  0
  2  5  1  0
  2  6  1  0
  3  7  1  0
  3  8  2  0
  4  9  1  0
  5 10  1  0
  6 11  1  0
  7 12  2  0
  8 13  1  0
  9 11  1  0
 10 14  1  0
 12 15  1  0
 13 15  2  0
 14 16  2  0
 14 17  1  0
 16 18  1  0
 16 19  1  0
 17 20  2  0
 18 21  2  0
 19 22  1  0
 20 23  1  0
 20 21  1  0
 23 24  1  0
 24 25  1  0
 24 26  1  0
 24 27  1  0
  1 28  1  0
  2 29  1  0
  4 30  1  0
  5 31  1  0
  6 32  1  0
  6 33  1  0
  7 34  1  0
  8 35  1  0
  9 36  1  0
  9 37  1  0
 10 38  1  0
 10 39  1  0
 11 40  1  0
 11 41  1  0
 12 42  1  0
 13 43  1  0
 15 44  1  0
 17 45  1  0
 18 46  1  0
 21 47  1  0
 22 48  1  0
 22 49  1  0
 22 50  1  0
V    1 0
V    2 1
V    3 2
V    4 3
V    5 4
V    6 5
V    7 6
V    8 7
V    9 8
V   10 9
V   11 10
V   12 11
V   13 12
V   14 13
V   15 14
V   16 15
V   17 16
V   18 17
V   19 18
V   20 19
V   21 20
V   22 21
V   23 22
V   24 23
V   25 24
V   26 25
V   27 26
M  END
> <DSSTox_RID>
66196

> <DSSTox_CID>
27251

> <DSSTox_CID_Parent>
27251

> <DSSTox_Generic_SID>
47251

> <DSSTox_FileID>
833_TXCST2_v1a

> <STRUCTURE_Formula>
C20H23F3N2O2

> <STRUCTURE_MolecularWeight>
380.404

> <STRUCTURE_ChemicalType>
defined organic

> <STRUCTURE_TestedForm_DefinedOrganic>
parent

> <STRUCTURE_Shown>
tested chemical

> <TestSubstance_ChemicalName>
(2S,3S)-N-[2-methoxy-5-(trifluoromethoxy)benzyl]-2-phenylpiperidin-3-amine

> <TestSubstance_CASRN>
145742-28-5

> <TestSubstance_Description>
single chemical compound

> <STRUCTURE_ChemicalName_IUPAC>
(2S,3S)-N-[2-methoxy-5-(trifluoromethoxy)benzyl]-2-phenylpiperidin-3-amine

> <STRUCTURE_SMILES>
FC(F)(F)OC1=CC(CN[C@@H]3[C@@H](NCCC3)[C@]2=CC=CC=C2)=C(OC)C=C1

> <STRUCTURE_Parent_SMILES>
FC(F)(F)OC1=CC(CN[C@@H]3[C@@H](NCCC3)[C@]2=CC=CC=C2)=C(OC)C=C1

> <STRUCTURE_InChIS>
InChI=1S/C20H23F3N2O2/c1-26-18-10-9-16(27-20(21,22)23)12-15(18)13-25-17-8-5-11-24-19(17)14-6-3-2-4-7-14/h2-4,6-7,9-10,12,17,19,24-25H,5,8,11,13H2,1H3/t17-,19-/m0/s1

> <STRUCTURE_InChIKey>
ZIWFCOIGUNPHPM-HKUYNNGSSA-N

> <Substance_modify_yyyymmdd>
20100523

> <Coord_Metals>
0

> <Index>
833

> <Canonical_Smiles>
COc1ccc(OC(F)(F)F)cc1CNC2CCCNC2c3ccccc3

> <Molecular_Weight>
380.40402

> <Frequency>
1

$$$$

  SciTegic          2D

 56 59  0  0  0  0            999 V2000
    0.2817    1.8461    0.0000 C   0  0
    0.2545    3.3408    0.0000 C   0  0
    1.7119    1.4162    0.0000 C   0  0
   -0.9986    1.0569    0.0000 C   0  0
    1.6681    3.8224    0.0000 N   0  0
   -1.0536    4.0829    0.0000 C   0  0
    2.5653    2.6170    0.0000 C   0  0
   -2.3250    1.7987    0.0000 C   0  0
   -2.3522    3.2934    0.0000 C   0  0
    4.0636    2.6305    0.0000 C   0  0
   -3.3545    1.1822    0.0000 Cl  0  0
    4.8266    1.3381    0.0000 N   0  0
    4.6538    3.6753    0.0000 O   0  0
    6.3274    1.3517    0.0000 C   0  0
    7.0668    2.6578    0.0000 C   0  0
    7.0892    0.0587    0.0000 C   0  0
    8.5676    2.6714    0.0000 C   0  0
    6.3050    3.9508    0.0000 O   0  0
    6.3510   -1.2481    0.0000 C   0  0
    9.3069    3.9775    0.0000 N   0  0
    9.0751    1.8098    0.0000 O   0  0
    4.8511   -1.2622    0.0000 C   0  0
    7.1132   -2.5400    0.0000 C   0  0
   10.7863    4.1309    0.0000 C   0  0
    8.6717    5.3223    0.0000 C   0  0
    4.1133   -2.5682    0.0000 C   0  0
    6.3755   -3.8460    0.0000 C   0  0
   11.0827    5.6013    0.0000 C   0  0
    9.7758    6.3376    0.0000 C   0  0
    4.8755   -3.8602    0.0000 C   0  0
   11.1989    7.0843    0.0000 O   0  0
    8.4014    6.9064    0.0000 O   0  0
    2.0363    0.4703    0.0000 H   0  0
   -0.9774    0.0571    0.0000 H   0  0
    1.9649    4.7774    0.0000 H   0  0
   -1.0688    5.0828    0.0000 H   0  0
   -3.2283    3.7756    0.0000 H   0  0
    4.3348    0.4674    0.0000 H   0  0
    5.8198    2.2133    0.0000 H   0  0
    7.5590    3.5282    0.0000 H   0  0
    7.5971   -0.8027    0.0000 H   0  0
    8.0891    0.0678    0.0000 H   0  0
    5.3051    3.9427    0.0000 H   0  0
    4.3429   -0.4009    0.0000 H   0  0
    8.1132   -2.5306    0.0000 H   0  0
   11.7603    4.3575    0.0000 H   0  0
   10.4679    3.1829    0.0000 H   0  0
    8.3609    6.2727    0.0000 H   0  0
    8.0258    4.5589    0.0000 H   0  0
    3.1134   -2.5777    0.0000 H   0  0
    6.8836   -4.7073    0.0000 H   0  0
   11.8886    5.0092    0.0000 H   0  0
   10.5880    6.9211    0.0000 H   0  0
    4.3837   -4.7309    0.0000 H   0  0
   10.3840    7.6638    0.0000 H   0  0
    7.5983    6.3105    0.0000 H   0  0
  1  2  2  0
  1  3  1  0
  1  4  1  0
  2  5  1  0
  2  6  1  0
  3  7  2  0
  4  8  2  0
  5  7  1  0
  6  9  2  0
  7 10  1  0
  8 11  1  0
  8  9  1  0
 10 12  1  0
 10 13  2  0
 12 14  1  0
 14 15  1  0
 14 16  1  0
 15 17  1  0
 15 18  1  0
 16 19  1  0
 17 20  1  0
 17 21  2  0
 19 22  1  0
 19 23  2  0
 20 24  1  0
 20 25  1  0
 22 26  2  0
 23 27  1  0
 24 28  1  0
 25 29  1  0
 26 30  1  0
 27 30  2  0
 28 31  1  0
 28 29  1  0
 29 32  1  0
  3 33  1  0
  4 34  1  0
  5 35  1  0
  6 36  1  0
  9 37  1  0
 12 38  1  0
 14 39  1  0
 15 40  1  0
 16 41  1  0
 16 42  1  0
 18 43  1  0
 22 44  1  0
 23 45  1  0
 24 46  1  0
 24 47  1  0
 25 48  1  0
 25 49  1  0
 26 50  1  0
 27 51  1  0
 28 52  1  0
 29 53  1  0
 30 54  1  0
 31 55  1  0
 32 56  1  0
V    1 0
V    2 1
V    3 2
V    4 3
V    5 4
V    6 5
V    7 6
V    8 7
V    9 8
V   10 9
V   11 10
V   12 11
V   13 12
V   14 13
V   15 14
V   16 15
V   17 16
V   18 17
V   19 18
V   20 19
V   21 20
V   22 21
V   23 22
V   24 23
V   25 24
V   26 25
V   27 26
V   28 27
V   29 28
V   30 29
V   31 30
V   32 31
M  END
> <DSSTox_RID>
66197

> <DSSTox_CID>
27252

> <DSSTox_CID_Parent>
27252

> <DSSTox_Generic_SID>
47252

> <DSSTox_FileID>
834_TXCST2_v1a

> <STRUCTURE_Formula>
C23H24ClN3O5

> <STRUCTURE_MolecularWeight>
457.9068

> <STRUCTURE_ChemicalType>
defined organic

> <STRUCTURE_TestedForm_DefinedOrganic>
parent

> <STRUCTURE_Shown>
tested chemical

> <TestSubstance_ChemicalName>
Ingliforib

> <TestSubstance_CASRN>
186392-65-4

> <TestSubstance_Description>
single chemical compound

> <ChemicalNote>
stereochem

> <STRUCTURE_ChemicalName_IUPAC>
5-chloro-N-{(2S,3R)-4-[(3R,4S)-3,4-dihydroxypyrrolidin-1-yl]-3-hydroxy-4-oxo-1-phenylbutan-2-yl}-1H-indole-2-carboxamide

> <STRUCTURE_SMILES>
ClC1=CC=C2C(C=C(C(N[C@@H](CC3=CC=CC=C3)[C@@H](O)C(N(C[C@@H]4O)C[C@H]4O)=O)=O)N2)=C1

> <STRUCTURE_Parent_SMILES>
ClC1=CC=C2C(C=C(C(N[C@@H](CC3=CC=CC=C3)[C@@H](O)C(N(C[C@@H]4O)C[C@H]4O)=O)=O)N2)=C1

> <STRUCTURE_InChIS>
InChI=1S/C23H24ClN3O5/c24-15-6-7-16-14(9-15)10-18(25-16)22(31)26-17(8-13-4-2-1-3-5-13)21(30)23(32)27-11-19(28)20(29)12-27/h1-7,9-10,17,19-21,25,28-30H,8,11-12H2,(H,26,31)/t17-,19-,20+,21+/m0/s1

> <STRUCTURE_InChIKey>
GVDRRZOORHCTAN-MJUUVYJYSA-N

> <Substance_modify_yyyymmdd>
20100523

> <Coord_Metals>
0

> <Index>
834

> <Canonical_Smiles>
OC(C(Cc1ccccc1)NC(=O)c2cc3cc(Cl)ccc3[nH]2)C(=O)N4CC(O)C(O)C4

> <Molecular_Weight>
457.90676

> <Frequency>
1

$$$$

  SciTegic          2D

 57 60  0  0  0  0            999 V2000
   -3.6206    1.4893    0.0000 C   0  0
   -3.0976    0.0821    0.0000 C   0  0
   -2.3272    2.2079    0.0000 C   0  0
   -4.9252    2.1875    0.0000 C   0  0
   -4.9137    0.7273    0.0000 C   0  0
   -1.5998   -0.1751    0.0000 C   0  0
   -4.0586   -1.0632    0.0000 C   0  0
   -2.3390    3.7079    0.0000 C   0  0
   -4.9370    3.6875    0.0000 C   0  0
   -5.9475    0.1181    0.0000 N   0  0
   -1.1004   -1.5938    0.0000 C   0  0
   -3.5452   -2.4935    0.0000 C   0  0
   -3.6438    4.4476    0.0000 C   0  0
    0.2820   -2.1587    0.0000 N   0  0
   -2.0614   -2.7390    0.0000 C   0  0
   -4.6318    5.5502    0.0000 C   0  0
    1.7481   -1.8486    0.0000 C   0  0
    0.1906   -3.6290    0.0000 N   0  0
   -1.2650   -4.0023    0.0000 C   0  0
   -6.1078    5.2786    0.0000 O   0  0
   -4.2301    6.6810    0.0000 O   0  0
    1.2568   -3.2444    0.0000 C   0  0
    3.1876   -1.5059    0.0000 C   0  0
   -1.8206   -5.3937    0.0000 C   0  0
    2.2605   -4.3591    0.0000 C   0  0
    4.1913   -2.6206    0.0000 C   0  0
   -3.3058   -5.6095    0.0000 C   0  0
    3.7278   -4.0472    0.0000 C   0  0
   -2.3541    1.2083    0.0000 H   0  0
   -1.4704    2.7235    0.0000 H   0  0
   -4.0812    2.7239    0.0000 H   0  0
   -5.7900    2.6896    0.0000 H   0  0
   -0.9547    0.5890    0.0000 H   0  0
   -5.0430   -0.8873    0.0000 H   0  0
   -3.2128    3.2216    0.0000 H   0  0
   -2.3703    4.7074    0.0000 H   0  0
   -4.9212    4.6873    0.0000 H   0  0
   -5.7869    3.1606    0.0000 H   0  0
   -4.1856   -3.2615    0.0000 H   0  0
   -2.7696    4.9332    0.0000 H   0  0
    2.0562   -0.8973    0.0000 H   0  0
   -6.7568    6.0395    0.0000 H   0  0
    0.6139   -2.4785    0.0000 H   0  0
    0.9576   -4.1986    0.0000 H   0  0
    2.9118   -2.4671    0.0000 H   0  0
    4.1678   -1.3081    0.0000 H   0  0
   -1.2015   -6.1790    0.0000 H   0  0
   -0.8309   -5.2504    0.0000 H   0  0
    1.2778   -4.5439    0.0000 H   0  0
    2.9469   -5.0863    0.0000 H   0  0
    4.8427   -3.3794    0.0000 H   0  0
    4.4779   -1.6626    0.0000 H   0  0
   -3.6767   -6.5381    0.0000 H   0  0
   -3.9249   -4.8241    0.0000 H   0  0
   -4.2955   -5.7528    0.0000 H   0  0
    3.3964   -4.9907    0.0000 H   0  0
    4.7007   -3.8164    0.0000 H   0  0
  1  2  1  0
  1  3  1  0
  1  4  1  0
  1  5  1  0
  2  6  2  0
  2  7  1  0
  3  8  1  0
  4  9  1  0
  5 10  3  0
  6 11  1  0
  7 12  2  0
  8 13  1  0
  9 13  1  0
 11 14  1  0
 11 15  2  0
 12 15  1  0
 13 16  1  0
 14 17  1  0
 14 18  1  0
 15 19  1  0
 16 20  1  0
 16 21  2  0
 17 22  1  0
 17 23  1  0
 18 19  2  0
 19 24  1  0
 22 25  1  0
 23 26  1  0
 24 27  1  0
 25 28  1  0
 26 28  1  0
  3 29  1  0
  3 30  1  0
  4 31  1  0
  4 32  1  0
  6 33  1  0
  7 34  1  0
  8 35  1  0
  8 36  1  0
  9 37  1  0
  9 38  1  0
 12 39  1  0
 13 40  1  0
 17 41  1  0
 20 42  1  0
 22 43  1  0
 22 44  1  0
 23 45  1  0
 23 46  1  0
 24 47  1  0
 24 48  1  0
 25 49  1  0
 25 50  1  0
 26 51  1  0
 26 52  1  0
 27 53  1  0
 27 54  1  0
 27 55  1  0
 28 56  1  0
 28 57  1  0
V    1 0
V    2 1
V    3 2
V    4 3
V    5 4
V    6 5
V    7 6
V    8 7
V    9 8
V   10 9
V   11 10
V   12 11
V   13 12
V   14 13
V   15 14
V   16 15
V   17 16
V   18 17
V   19 18
V   20 19
V   21 20
V   22 21
V   23 22
V   24 23
V   25 24
V   26 25
V   27 26
V   28 27
M  END
> <DSSTox_RID>
66198

> <DSSTox_CID>
27253

> <DSSTox_CID_Parent>
27253

> <DSSTox_Generic_SID>
47253

> <DSSTox_FileID>
835_TXCST2_v1a

> <STRUCTURE_Formula>
C23H29N3O2

> <STRUCTURE_MolecularWeight>
379.4953

> <STRUCTURE_ChemicalType>
defined organic

> <STRUCTURE_TestedForm_DefinedOrganic>
parent

> <STRUCTURE_Shown>
tested chemical

> <TestSubstance_ChemicalName>
cis-4-cyano-4-(1-cyclohexyl-3-ethyl-1H-indazol-6-yl)cyclohexanecarboxylic acid

> <TestSubstance_CASRN>
199171-88-5

> <TestSubstance_Description>
single chemical compound

> <ChemicalNote>
stereochem

> <STRUCTURE_ChemicalName_IUPAC>
cis-4-cyano-4-(1-cyclohexyl-3-ethyl-1H-indazol-6-yl)cyclohexanecarboxylic acid

> <STRUCTURE_SMILES>
N#C[C@@]2(CC[C@@]([C@@](O)=O)([H])CC2)[C@]1=CC(N(N=C4CC)C3CCCCC3)=C4C=C1

> <STRUCTURE_Parent_SMILES>
N#C[C@@]2(CC[C@@]([C@@](O)=O)([H])CC2)[C@]1=CC(N(N=C4CC)C3CCCCC3)=C4C=C1

> <STRUCTURE_InChIS>
InChI=1S/C23H29N3O2/c1-2-20-19-9-8-17(23(15-24)12-10-16(11-13-23)22(27)28)14-21(19)26(25-20)18-6-4-3-5-7-18/h8-9,14,16,18H,2-7,10-13H2,1H3,(H,27,28)/t16-,23-

> <STRUCTURE_InChIKey>
PRUGWHGQBHEDAX-QXONSOMPSA-N

> <Substance_modify_yyyymmdd>
20100523

> <Coord_Metals>
0

> <Index>
835

> <Canonical_Smiles>
CCc1nn(C2CCCCC2)c3cc(ccc13)C4(CCC(CC4)C(=O)O)C#N

> <Molecular_Weight>
379.49526

> <Frequency>
1

$$$$

  SciTegic          2D

 41 43  0  0  0  0            999 V2000
    0.0000    0.7486    0.0000 C   0  0
    0.0000   -0.7486    0.0000 C   0  0
   -1.2964    1.4973    0.0000 C   0  0
    1.2964    1.4973    0.0000 N   0  0
   -1.2964   -1.4973    0.0000 N   0  0
    1.2964   -1.4973    0.0000 C   0  0
   -2.6111    0.7486    0.0000 C   0  0
   -1.2907    2.9981    0.0000 O   0  0
    2.5929    0.7486    0.0000 C   0  0
   -2.6111   -0.7486    0.0000 C   0  0
    2.5929   -0.7486    0.0000 C   0  0
   -3.9122    1.4966    0.0000 C   0  0
    3.8911    1.5017    0.0000 O   0  0
   -5.2109    0.7445    0.0000 N   0  0
   -3.9141    2.6966    0.0000 O   0  0
    3.8890    3.0026    0.0000 C   0  0
   -6.5121    1.4924    0.0000 C   0  0
    5.1872    3.7556    0.0000 C   0  0
   -7.8109    0.7403    0.0000 C   0  0
   -7.8090   -0.7597    0.0000 C   0  0
   -9.1109    1.4886    0.0000 C   0  0
   -9.1070   -1.5114    0.0000 C   0  0
  -10.4090    0.7369    0.0000 C   0  0
  -10.4071   -0.7631    0.0000 C   0  0
    1.2964   -2.4973    0.0000 H   0  0
   -2.1544    3.5020    0.0000 H   0  0
   -3.4756   -1.2512    0.0000 H   0  0
    3.4589   -1.2486    0.0000 H   0  0
   -5.2093   -0.2555    0.0000 H   0  0
    3.0221    3.5011    0.0000 H   0  0
    3.0237    2.5012    0.0000 H   0  0
   -6.5138    2.4924    0.0000 H   0  0
   -5.6470    1.9939    0.0000 H   0  0
    5.1857    4.7556    0.0000 H   0  0
    6.0541    3.2572    0.0000 H   0  0
    6.0524    4.2570    0.0000 H   0  0
   -6.9423   -1.2586    0.0000 H   0  0
   -9.1122    2.4886    0.0000 H   0  0
   -9.1058   -2.5114    0.0000 H   0  0
  -11.2757    1.2358    0.0000 H   0  0
  -11.2724   -1.2642    0.0000 H   0  0
  1  2  1  0
  1  3  1  0
  1  4  2  0
  2  5  1  0
  2  6  2  0
  3  7  2  0
  3  8  1  0
  4  9  1  0
  5 10  2  0
  6 11  1  0
  7 12  1  0
  7 10  1  0
  9 13  1  0
  9 11  2  0
 12 14  1  0
 12 15  2  0
 13 16  1  0
 14 17  1  0
 16 18  1  0
 17 19  1  0
 19 20  2  0
 19 21  1  0
 20 22  1  0
 21 23  2  0
 22 24  2  0
 23 24  1  0
  6 25  1  0
  8 26  1  0
 10 27  1  0
 11 28  1  0
 14 29  1  0
 16 30  1  0
 16 31  1  0
 17 32  1  0
 17 33  1  0
 18 34  1  0
 18 35  1  0
 18 36  1  0
 20 37  1  0
 21 38  1  0
 22 39  1  0
 23 40  1  0
 24 41  1  0
V    1 0
V    2 1
V    3 2
V    4 3
V    5 4
V    6 5
V    7 6
V    8 7
V    9 8
V   10 9
V   11 10
V   12 11
V   13 12
V   14 13
V   15 14
V   16 15
V   17 16
V   18 17
V   19 18
V   20 19
V   21 20
V   22 21
V   23 22
V   24 23
M  END
> <DSSTox_RID>
66199

> <DSSTox_CID>
27254

> <DSSTox_CID_Parent>
27254

> <DSSTox_Generic_SID>
47254

> <DSSTox_FileID>
836_TXCST2_v1a

> <STRUCTURE_Formula>
C18H17N3O3

> <STRUCTURE_MolecularWeight>
323.3459

> <STRUCTURE_ChemicalType>
defined organic

> <STRUCTURE_TestedForm_DefinedOrganic>
parent

> <STRUCTURE_Shown>
tested chemical

> <TestSubstance_ChemicalName>
N-benzyl-6-ethoxy-4-oxo-1,4-dihydro-1,5-naphthyridine-3-carboxamide

> <TestSubstance_CASRN>
220860-50-4

> <TestSubstance_Description>
single chemical compound

> <STRUCTURE_ChemicalName_IUPAC>
N-benzyl-6-ethoxy-4-oxo-1,4-dihydro-1,5-naphthyridine-3-carboxamide

> <STRUCTURE_SMILES>
O=C1C(N=C2OCC)=C(C=C2)NC=C1C(NCC3=CC=CC=C3)=O

> <STRUCTURE_Parent_SMILES>
O=C1C(N=C2OCC)=C(C=C2)NC=C1C(NCC3=CC=CC=C3)=O

> <STRUCTURE_InChIS>
InChI=1S/C18H17N3O3/c1-2-24-15-9-8-14-16(21-15)17(22)13(11-19-14)18(23)20-10-12-6-4-3-5-7-12/h3-9,11H,2,10H2,1H3,(H,19,22)(H,20,23)

> <STRUCTURE_InChIKey>
DGFVZQGXKQCQGK-UHFFFAOYSA-N

> <Substance_modify_yyyymmdd>
20100523

> <Coord_Metals>
0

> <Index>
836

> <Canonical_Smiles>
CCOc1ccc2ncc(C(=O)NCc3ccccc3)c(O)c2n1

> <Molecular_Weight>
323.34588

> <Frequency>
1

$$$$

  SciTegic          2D

 56 57  0  0  0  0            999 V2000
    1.2990   -0.7500    0.0000 C   0  0
    1.2990    0.7500    0.0000 C   0  0
    0.0000   -1.5000    0.0000 C   0  0
    2.2614   -1.9017    0.0000 N   0  0
    0.0000    1.5000    0.0000 C   0  0
    2.2637    1.8997    0.0000 C   0  0
   -1.2990   -0.7500    0.0000 C   0  0
   -0.5133   -2.9103    0.0000 C   0  0
    3.7401   -1.6450    0.0000 C   0  0
   -1.2990    0.7500    0.0000 C   0  0
    3.7419    1.6400    0.0000 C   0  0
    1.7500    3.3098    0.0000 C   0  0
    0.4507   -4.0606    0.0000 C   0  0
   -1.9913   -3.1705    0.0000 C   0  0
    4.7025   -2.7967    0.0000 N   0  0
    4.1532   -0.5184    0.0000 O   0  0
    6.1812   -2.5401    0.0000 S   0  0
    7.1435   -3.6918    0.0000 C   0  0
    5.4122   -1.6189    0.0000 O   0  0
    6.5943   -1.4134    0.0000 O   0  0
    8.6260   -3.5734    0.0000 C   0  0
    6.7636   -5.1296    0.0000 O   0  0
    9.1851   -4.9653    0.0000 C   0  0
    8.0340   -5.9271    0.0000 C   0  0
   10.6381   -5.3307    0.0000 C   0  0
   11.6835   -4.2539    0.0000 C   0  0
   11.0483   -6.7743    0.0000 C   0  0
   10.2171   -3.8598    0.0000 O   0  0
    1.9171   -2.8406    0.0000 H   0  0
    0.0000    2.5000    0.0000 H   0  0
    2.6061    0.9601    0.0000 H   0  0
   -2.1651   -1.2500    0.0000 H   0  0
    0.4716   -2.7370    0.0000 H   0  0
   -2.1651    1.2500    0.0000 H   0  0
    4.3847    2.4061    0.0000 H   0  0
    4.0843    0.7005    0.0000 H   0  0
    4.7268    1.4666    0.0000 H   0  0
    2.3920    4.0764    0.0000 H   0  0
    0.7651    3.4828    0.0000 H   0  0
    1.4072    4.2492    0.0000 H   0  0
    0.1087   -5.0003    0.0000 H   0  0
    1.4355   -3.8873    0.0000 H   0  0
    1.0933   -4.8268    0.0000 H   0  0
   -2.3342   -4.1098    0.0000 H   0  0
   -2.6336   -2.4040    0.0000 H   0  0
   -2.9763   -3.3433    0.0000 H   0  0
    4.3582   -3.7356    0.0000 H   0  0
    9.1526   -2.7232    0.0000 H   0  0
    8.1017   -6.9248    0.0000 H   0  0
   12.6533   -4.4978    0.0000 H   0  0
   11.4102   -3.2920    0.0000 H   0  0
   12.3798   -3.5361    0.0000 H   0  0
   12.0179   -7.0192    0.0000 H   0  0
   10.3517   -7.4918    0.0000 H   0  0
   11.3212   -7.7364    0.0000 H   0  0
    9.2471   -3.6168    0.0000 H   0  0
  1  2  2  0
  1  3  1  0
  1  4  1  0
  2  5  1  0
  2  6  1  0
  3  7  2  0
  3  8  1  0
  4  9  1  0
  5 10  2  0
  6 11  1  0
  6 12  1  0
  7 10  1  0
  8 13  1  0
  8 14  1  0
  9 15  1  0
  9 16  2  0
 15 17  1  0
 17 18  1  0
 17 19  2  0
 17 20  2  0
 18 21  2  0
 18 22  1  0
 21 23  1  0
 22 24  1  0
 23 25  1  0
 23 24  2  0
 25 26  1  0
 25 27  1  0
 25 28  1  0
  4 29  1  0
  5 30  1  0
  6 31  1  0
  7 32  1  0
  8 33  1  0
 10 34  1  0
 11 35  1  0
 11 36  1  0
 11 37  1  0
 12 38  1  0
 12 39  1  0
 12 40  1  0
 13 41  1  0
 13 42  1  0
 13 43  1  0
 14 44  1  0
 14 45  1  0
 14 46  1  0
 15 47  1  0
 21 48  1  0
 24 49  1  0
 26 50  1  0
 26 51  1  0
 26 52  1  0
 27 53  1  0
 27 54  1  0
 27 55  1  0
 28 56  1  0
V    1 0
V    2 1
V    3 2
V    4 3
V    5 4
V    6 5
V    7 6
V    8 7
V    9 8
V   10 9
V   11 10
V   12 11
V   13 12
V   14 13
V   15 14
V   16 15
V   17 16
V   18 17
V   19 18
V   20 19
V   21 20
V   22 21
V   23 22
V   24 23
V   25 24
V   26 25
V   27 26
V   28 27
M  END
> <DSSTox_RID>
66201

> <DSSTox_CID>
27255

> <DSSTox_CID_Parent>
27256

> <DSSTox_Generic_SID>
47255

> <DSSTox_FileID>
837_TXCST2_v1a

> <STRUCTURE_Formula>
C20H27N2NaO5S

> <STRUCTURE_MolecularWeight>
430.4935

> <STRUCTURE_ChemicalType>
defined organic

> <STRUCTURE_TestedForm_DefinedOrganic>
salt Na

> <STRUCTURE_Shown>
tested chemical

> <TestSubstance_ChemicalName>
sodium {[2,6-di(propan-2-yl)phenyl]carbamoyl}{[4-(2-hydroxypropan-2-yl)furan-2-yl]sulfonyl}azanide

> <TestSubstance_CASRN>
NOCAS_47255

> <TestSubstance_Description>
single chemical compound

> <STRUCTURE_ChemicalName_IUPAC>
sodium {[2,6-di(propan-2-yl)phenyl]carbamoyl}{[4-(2-hydroxypropan-2-yl)furan-2-yl]sulfonyl}azanide

> <STRUCTURE_SMILES>
O=C([N-]S(C2=CC(C(O)(C)C)=CO2)(=O)=O)NC1=C(C(C)C)C=CC=C1C(C)C.[Na+]

> <STRUCTURE_Parent_SMILES>
O=C(NS(C2=CC(C(O)(C)C)=CO2)(=O)=O)NC1=C(C(C)C)C=CC=C1C(C)C

> <STRUCTURE_InChIS>
InChI=1S/C20H28N2O5S.Na/c1-12(2)15-8-7-9-16(13(3)4)18(15)21-19(23)22-28(25,26)17-10-14(11-27-17)20(5,6)24;/h7-13,24H,1-6H3,(H2,21,22,23);/q;+1/p-1

> <STRUCTURE_InChIKey>
PTMPFOHRBHYITC-UHFFFAOYSA-M

> <Substance_modify_yyyymmdd>
20100523

> <Coord_Metals>
0

> <Index>
837

> <Canonical_Smiles>
CC(C)c1cccc(C(C)C)c1NC(=O)NS(=O)(=O)c2occ(c2)C(C)(C)O

> <Molecular_Weight>
408.51172

> <Frequency>
1

$$$$

  SciTegic          2D

 60 64  0  0  0  0            999 V2000
  -11.2844    0.6306    0.0000 C   0  0
  -12.7501    0.9534    0.0000 C   0  0
  -10.8316   -0.8003    0.0000 C   0  0
  -10.2713    1.7378    0.0000 O   0  0
  -13.2031    2.3833    0.0000 C   0  0
  -13.7619   -0.1539    0.0000 C   0  0
   -9.3668   -1.1234    0.0000 C   0  0
  -11.8438   -1.9072    0.0000 C   0  0
   -8.8181    1.4548    0.0000 C   0  0
  -14.6680    2.7060    0.0000 C   0  0
  -15.2268    0.1687    0.0000 C   0  0
   -8.9142   -2.5535    0.0000 C   0  0
  -11.3912   -3.3373    0.0000 C   0  0
   -7.5140    0.7136    0.0000 C   0  0
   -8.8283    2.9547    0.0000 C   0  0
  -15.6798    1.5987    0.0000 C   0  0
   -9.9265   -3.6605    0.0000 C   0  0
   -6.2201    1.4724    0.0000 N   0  0
   -7.5344    3.7135    0.0000 C   0  0
   -4.9153    0.7308    0.0000 C   0  0
   -6.2303    2.9724    0.0000 C   0  0
   -3.6202    1.4892    0.0000 C   0  0
   -2.3155    0.7475    0.0000 C   0  0
   -1.0028    1.5132    0.0000 C   0  0
   -2.3155   -0.7475    0.0000 C   0  0
    0.2917    0.7475    0.0000 C   0  0
   -1.0028   -1.5132    0.0000 C   0  0
    0.2917   -0.7475    0.0000 C   0  0
    1.7138    1.2033    0.0000 O   0  0
    1.7138   -1.2033    0.0000 O   0  0
    2.5889    0.0182    0.0000 C   0  0
  -11.5861    1.5840    0.0000 H   0  0
  -12.5285    3.1216    0.0000 H   0  0
  -13.4599   -1.1072    0.0000 H   0  0
   -8.6920   -0.3854    0.0000 H   0  0
  -12.8203   -1.6918    0.0000 H   0  0
   -8.7868    0.4553    0.0000 H   0  0
  -14.9700    3.6593    0.0000 H   0  0
  -15.9014   -0.5695    0.0000 H   0  0
   -7.9377   -2.7689    0.0000 H   0  0
  -12.0661   -4.0753    0.0000 H   0  0
   -8.3883    0.2282    0.0000 H   0  0
   -6.6333    0.2400    0.0000 H   0  0
   -8.8115    3.9546    0.0000 H   0  0
   -9.6788    2.4288    0.0000 H   0  0
  -16.6564    1.8138    0.0000 H   0  0
   -9.6248   -4.6139    0.0000 H   0  0
   -6.6601    4.1989    0.0000 H   0  0
   -8.4151    4.1871    0.0000 H   0  0
   -4.9088   -0.2692    0.0000 H   0  0
   -5.7780    0.2251    0.0000 H   0  0
   -7.0807    2.4463    0.0000 H   0  0
   -5.3727    2.4580    0.0000 H   0  0
   -3.6266    2.4892    0.0000 H   0  0
   -2.7575    1.9949    0.0000 H   0  0
   -0.9997    2.5132    0.0000 H   0  0
   -3.1826   -1.2456    0.0000 H   0  0
   -0.9997   -2.5132    0.0000 H   0  0
    3.0822   -0.8516    0.0000 H   0  0
    3.0698    0.8950    0.0000 H   0  0
  1  2  1  0
  1  3  1  0
  1  4  1  0
  2  5  2  0
  2  6  1  0
  3  7  2  0
  3  8  1  0
  9  4  1  0
  5 10  1  0
  6 11  2  0
  7 12  1  0
  8 13  2  0
  9 14  1  0
  9 15  1  0
 10 16  2  0
 11 16  1  0
 12 17  2  0
 13 17  1  0
 14 18  1  0
 15 19  1  0
 18 20  1  0
 18 21  1  0
 19 21  1  0
 20 22  1  0
 22 23  1  0
 23 24  2  0
 23 25  1  0
 24 26  1  0
 25 27  2  0
 26 28  2  0
 26 29  1  0
 27 28  1  0
 28 30  1  0
 29 31  1  0
 30 31  1  0
  1 32  1  0
  5 33  1  0
  6 34  1  0
  7 35  1  0
  8 36  1  0
  9 37  1  0
 10 38  1  0
 11 39  1  0
 12 40  1  0
 13 41  1  0
 14 42  1  0
 14 43  1  0
 15 44  1  0
 15 45  1  0
 16 46  1  0
 17 47  1  0
 19 48  1  0
 19 49  1  0
 20 50  1  0
 20 51  1  0
 21 52  1  0
 21 53  1  0
 22 54  1  0
 22 55  1  0
 24 56  1  0
 25 57  1  0
 27 58  1  0
 31 59  1  0
 31 60  1  0
V    1 0
V    2 1
V    3 2
V    4 3
V    5 4
V    6 5
V    7 6
V    8 7
V    9 8
V   10 9
V   11 10
V   12 11
V   13 12
V   14 13
V   15 14
V   16 15
V   17 16
V   18 17
V   19 18
V   20 19
V   21 20
V   22 21
V   23 22
V   24 23
V   25 24
V   26 25
V   27 26
V   28 27
V   29 28
V   30 29
V   31 30
M  END
> <DSSTox_RID>
66202

> <DSSTox_CID>
27257

> <DSSTox_CID_Parent>
27257

> <DSSTox_Generic_SID>
47257

> <DSSTox_FileID>
838_TXCST2_v1a

> <STRUCTURE_Formula>
C27H29NO3

> <STRUCTURE_MolecularWeight>
415.5241

> <STRUCTURE_ChemicalType>
defined organic

> <STRUCTURE_TestedForm_DefinedOrganic>
parent

> <STRUCTURE_Shown>
tested chemical

> <TestSubstance_ChemicalName>
Zamifenacin

> <TestSubstance_CASRN>
127308-82-1

> <TestSubstance_Description>
single chemical compound

> <ChemicalNote>
stereochem

> <STRUCTURE_ChemicalName_IUPAC>
(3R)-1-[2-(1,3-benzodioxol-5-yl)ethyl]-3-(diphenylmethoxy)piperidine

> <STRUCTURE_SMILES>
C(C2=CC=CC=C2)(O[C@H](CCC4)CN4CCC3=CC(OCO5)=C5C=C3)C1=CC=CC=C1

> <STRUCTURE_Parent_SMILES>
C(C2=CC=CC=C2)(O[C@H](CCC4)CN4CCC3=CC(OCO5)=C5C=C3)C1=CC=CC=C1

> <STRUCTURE_InChIS>
InChI=1S/C27H29NO3/c1-3-8-22(9-4-1)27(23-10-5-2-6-11-23)31-24-12-7-16-28(19-24)17-15-21-13-14-25-26(18-21)30-20-29-25/h1-6,8-11,13-14,18,24,27H,7,12,15-17,19-20H2/t24-/m1/s1

> <STRUCTURE_InChIKey>
BDNFQGRSKSQXRI-XMMPIXPASA-N

> <Substance_modify_yyyymmdd>
20100523

> <Coord_Metals>
0

> <Index>
838

> <Canonical_Smiles>
C(Cc1ccc2OCOc2c1)N3CCCC(C3)OC(c4ccccc4)c5ccccc5

> <Molecular_Weight>
415.52406

> <Frequency>
1

$$$$

  SciTegic          2D

 61 65  0  0  0  0            999 V2000
    0.0186    0.7828    0.0000 C   0  0
    1.3979    1.3979    0.0000 C   0  0
   -1.1742    1.6588    0.0000 C   0  0
   -0.8574   -0.4287    0.0000 C   0  0
    1.4351    0.3168    0.0000 O   0  0
    1.5656    2.8889    0.0000 C   0  0
   -1.0251    3.1871    0.0000 C   0  0
    0.0186   -1.6401    0.0000 C   0  0
    1.4351   -1.1556    0.0000 C   0  0
    0.3168    3.8022    0.0000 C   0  0
    3.0448    2.9498    0.0000 N   0  0
    0.9927    5.1198    0.0000 N   0  0
    3.8538    4.1977    0.0000 C   0  0
    3.9537    1.7727    0.0000 C   0  0
    0.2098    6.4003    0.0000 C   0  0
    2.3884    5.6719    0.0000 C   0  0
    5.3600    2.2945    0.0000 C   0  0
    0.9264    7.7190    0.0000 C   0  0
   -0.7899    6.3748    0.0000 O   0  0
    0.1434    8.9994    0.0000 C   0  0
   -1.3597    8.9673    0.0000 C   0  0
    0.8579   10.3383    0.0000 C   0  0
   -2.1458   10.2389    0.0000 C   0  0
   -2.3296    7.8318    0.0000 C   0  0
    0.0718   11.6099    0.0000 C   0  0
   -3.5951    9.8788    0.0000 O   0  0
   -1.4474   11.5710    0.0000 C   0  0
   -3.6971    8.3796    0.0000 C   0  0
    5.2983    3.7933    0.0000 C   0  0
    1.2662    0.4066    0.0000 H   0  0
    2.3029    1.8232    0.0000 H   0  0
   -1.2535    0.6619    0.0000 H   0  0
   -1.9696    2.2649    0.0000 H   0  0
    0.1425   -0.4438    0.0000 H   0  0
   -1.3443   -1.3021    0.0000 H   0  0
    1.6521    3.8851    0.0000 H   0  0
   -0.9061    4.1800    0.0000 H   0  0
   -0.1972    2.6262    0.0000 H   0  0
    0.7031   -2.3692    0.0000 H   0  0
   -0.9611   -1.8407    0.0000 H   0  0
    1.3228   -2.1492    0.0000 H   0  0
    2.3390   -0.7277    0.0000 H   0  0
   -0.5082    4.3672    0.0000 H   0  0
    4.4984    4.9623    0.0000 H   0  0
    2.8648    4.3451    0.0000 H   0  0
    4.6589    1.0637    0.0000 H   0  0
    2.9801    1.5445    0.0000 H   0  0
    2.5354    6.6610    0.0000 H   0  0
    3.3184    6.0392    0.0000 H   0  0
    3.1716    5.0502    0.0000 H   0  0
    6.2493    2.7519    0.0000 H   0  0
    5.2817    1.2976    0.0000 H   0  0
    1.4485    6.8661    0.0000 H   0  0
    1.9261    7.7445    0.0000 H   0  0
    1.8574   10.3701    0.0000 H   0  0
   -2.0905    6.8608    0.0000 H   0  0
    0.5474   12.4896    0.0000 H   0  0
   -1.9759   12.4199    0.0000 H   0  0
   -4.5439    7.8476    0.0000 H   0  0
    5.1381    4.7804    0.0000 H   0  0
    6.2222    3.4107    0.0000 H   0  0
  1  2  1  0
  1  3  1  0
  1  4  1  0
  1  5  1  0
  2  6  1  0
  3  7  1  0
  4  8  1  0
  5  9  1  0
  6 10  1  0
  6 11  1  0
  7 10  1  0
  8  9  1  0
 10 12  1  0
 11 13  1  0
 11 14  1  0
 12 15  1  0
 12 16  1  0
 13 29  1  0
 14 17  1  0
 15 18  1  0
 15 19  2  0
 17 29  1  0
 18 20  1  0
 20 21  1  0
 20 22  2  0
 21 23  2  0
 21 24  1  0
 22 25  1  0
 23 26  1  0
 23 27  1  0
 24 28  2  0
 25 27  2  0
 26 28  1  0
  2 30  1  0
  2 31  1  0
  3 32  1  0
  3 33  1  0
  4 34  1  0
  4 35  1  0
  6 36  1  0
  7 37  1  0
  7 38  1  0
  8 39  1  0
  8 40  1  0
  9 41  1  0
  9 42  1  0
 10 43  1  0
 13 44  1  0
 13 45  1  0
 14 46  1  0
 14 47  1  0
 16 48  1  0
 16 49  1  0
 16 50  1  0
 17 51  1  0
 17 52  1  0
 18 53  1  0
 18 54  1  0
 22 55  1  0
 24 56  1  0
 25 57  1  0
 27 58  1  0
 28 59  1  0
 29 60  1  0
 29 61  1  0
V    1 0
V    2 1
V    3 2
V    4 3
V    5 4
V    6 5
V    7 6
V    8 7
V    9 8
V   10 9
V   11 10
V   12 11
V   13 12
V   14 13
V   15 14
V   16 15
V   17 16
V   18 17
V   19 18
V   20 19
V   21 20
V   22 21
V   23 22
V   24 23
V   25 24
V   26 25
V   27 26
V   28 27
V   29 28
M  END
> <DSSTox_RID>
66203

> <DSSTox_CID>
27258

> <DSSTox_CID_Parent>
27258

> <DSSTox_Generic_SID>
47258

> <DSSTox_FileID>
839_TXCST2_v1a

> <STRUCTURE_Formula>
C24H32N2O3

> <STRUCTURE_MolecularWeight>
396.5225

> <STRUCTURE_ChemicalType>
defined organic

> <STRUCTURE_TestedForm_DefinedOrganic>
parent

> <STRUCTURE_Shown>
tested chemical

> <TestSubstance_ChemicalName>
2-(1-benzofuran-4-yl)-N-methyl-N-[(5R,7S,8S)-7-(pyrrolidin-1-yl)-1-oxaspiro[4.5]dec-8-yl]acetamide

> <TestSubstance_CASRN>
124378-77-4

> <TestSubstance_Description>
unspecified or multiple forms

> <ChemicalNote>
stereochem; structure shown parent; test substance unknown

> <STRUCTURE_ChemicalName_IUPAC>
2-(1-benzofuran-4-yl)-N-methyl-N-[(5R,7S,8S)-7-(pyrrolidin-1-yl)-1-oxaspiro[4.5]dec-8-yl]acetamide

> <STRUCTURE_SMILES>
O=C(CC4=CC=CC5=C4C=CO5)N(C)[C@@H]1[C@@H](N3CCCC3)C[C@]2(CCCO2)CC1

> <STRUCTURE_Parent_SMILES>
O=C(CC4=CC=CC5=C4C=CO5)N(C)[C@@H]1[C@@H](N3CCCC3)C[C@]2(CCCO2)CC1

> <STRUCTURE_InChIS>
InChI=1S/C24H32N2O3/c1-25(23(27)16-18-6-4-7-22-19(18)9-15-28-22)20-8-11-24(10-5-14-29-24)17-21(20)26-12-2-3-13-26/h4,6-7,9,15,20-21H,2-3,5,8,10-14,16-17H2,1H3/t20-,21-,24-/m0/s1

> <STRUCTURE_InChIKey>
JMBYBVLCYODBJQ-HFMPRLQTSA-N

> <Substance_modify_yyyymmdd>
20100523

> <Coord_Metals>
0

> <Index>
839

> <Canonical_Smiles>
CN(C1CCC2(CCCO2)CC1N3CCCC3)C(=O)Cc4cccc5occc45

> <Molecular_Weight>
396.52248

> <Frequency>
1

$$$$

  SciTegic          2D

 31 33  0  0  0  0            999 V2000
   -1.3643   -0.8186    0.0000 C   0  0
   -1.3643    0.6549    0.0000 C   0  0
    0.0000   -1.5644    0.0000 C   0  0
   -2.6558   -1.5644    0.0000 C   0  0
    0.0000    1.4189    0.0000 N   0  0
   -2.6558    1.4189    0.0000 C   0  0
    1.2188   -0.8186    0.0000 N   0  0
   -4.0019   -0.8186    0.0000 C   0  0
   -2.6452   -2.7643    0.0000 Cl  0  0
    1.2188    0.6549    0.0000 C   0  0
   -4.0019    0.6549    0.0000 C   0  0
    2.4011   -1.7463    0.0000 C   0  0
    2.4011    1.5826    0.0000 C   0  0
   -5.0389    1.2587    0.0000 Cl  0  0
    3.8746   -1.4007    0.0000 C   0  0
    3.8746    1.2915    0.0000 C   0  0
    4.5294    0.0000    0.0000 C   0  0
    0.8890   -2.0223    0.0000 H   0  0
   -0.8655   -2.0653    0.0000 H   0  0
   -2.6468    2.4188    0.0000 H   0  0
   -4.8635   -1.3262    0.0000 H   0  0
    3.1590   -2.3987    0.0000 H   0  0
    1.4390   -2.0188    0.0000 H   0  0
    3.1484    2.2471    0.0000 H   0  0
    1.4339    1.8365    0.0000 H   0  0
    4.8569   -1.2135    0.0000 H   0  0
    3.2677   -0.6059    0.0000 H   0  0
    4.8627    1.1377    0.0000 H   0  0
    3.2947    0.4768    0.0000 H   0  0
    3.5305   -0.0457    0.0000 H   0  0
    5.0175   -0.8728    0.0000 H   0  0
  1  2  2  0
  1  3  1  0
  1  4  1  0
  2  5  1  0
  2  6  1  0
  3  7  1  0
  4  8  2  0
  4  9  1  0
  5 10  2  0
  6 11  2  0
  7 12  1  0
  7 10  1  0
  8 11  1  0
 10 13  1  0
 11 14  1  0
 12 15  1  0
 13 16  1  0
 15 17  1  0
 16 17  1  0
  3 18  1  0
  3 19  1  0
  6 20  1  0
  8 21  1  0
 12 22  1  0
 12 23  1  0
 13 24  1  0
 13 25  1  0
 15 26  1  0
 15 27  1  0
 16 28  1  0
 16 29  1  0
 17 30  1  0
 17 31  1  0
V    1 0
V    2 1
V    3 2
V    4 3
V    5 4
V    6 5
V    7 6
V    8 7
V    9 8
V   10 9
V   11 10
V   12 11
V   13 12
V   14 13
V   15 14
V   16 15
V   17 16
M  END
> <DSSTox_RID>
66205

> <DSSTox_CID>
27259

> <DSSTox_CID_Parent>
27260

> <DSSTox_Generic_SID>
47259

> <DSSTox_FileID>
840_TXCST2_v1a

> <STRUCTURE_Formula>
C13H15Cl3N2

> <STRUCTURE_MolecularWeight>
305.6306

> <STRUCTURE_ChemicalType>
defined organic

> <STRUCTURE_TestedForm_DefinedOrganic>
complex HCl

> <STRUCTURE_Shown>
tested chemical

> <TestSubstance_ChemicalName>
1,3-dichloro-6,7,8,9,10,12-hexahydroazepino[2,1-b]quinazoline hydrochloride (1:1)

> <TestSubstance_CASRN>
149062-75-9

> <TestSubstance_Description>
single chemical compound

> <STRUCTURE_ChemicalName_IUPAC>
1,3-dichloro-6,7,8,9,10,12-hexahydroazepino[2,1-b]quinazoline hydrochloride (1:1)

> <STRUCTURE_SMILES>
ClC1=CC(Cl)=CC3=C1CN2CCCCCC2=N3.Cl

> <STRUCTURE_Parent_SMILES>
ClC1=CC(Cl)=CC3=C1CN2CCCCCC2=N3

> <STRUCTURE_InChIS>
InChI=1S/C13H14Cl2N2.ClH/c14-9-6-11(15)10-8-17-5-3-1-2-4-13(17)16-12(10)7-9;/h6-7H,1-5,8H2;1H

> <STRUCTURE_InChIKey>
KPVQNWQDBLOUQW-UHFFFAOYSA-N

> <Substance_modify_yyyymmdd>
20100524

> <Coord_Metals>
0

> <Index>
840

> <Canonical_Smiles>
Clc1cc(Cl)c2CN3CCCCCC3=Nc2c1

> <Molecular_Weight>
269.16966

> <Frequency>
1

$$$$

  SciTegic          2D

 33 34  0  0  0  0            999 V2000
    2.5889    0.0182    0.0000 N   0  0
    1.7138    1.2033    0.0000 S   0  0
    1.7138   -1.2033    0.0000 C   0  0
    4.0872    0.0351    0.0000 C   0  0
    0.2917    0.7475    0.0000 C   0  0
    0.2917   -0.7475    0.0000 C   0  0
    2.0907   -2.3426    0.0000 O   0  0
    5.2265    1.0121    0.0000 C   0  0
    4.8519   -1.2562    0.0000 C   0  0
   -1.0028    1.5132    0.0000 C   0  0
   -1.0028   -1.5132    0.0000 C   0  0
    4.9509    2.4875    0.0000 C   0  0
    3.7843    1.5231    0.0000 C   0  0
    6.3527   -1.2405    0.0000 O   0  0
    4.2631   -2.3018    0.0000 O   0  0
   -2.3155    0.7475    0.0000 C   0  0
   -2.3155   -0.7475    0.0000 C   0  0
    6.0902    3.4645    0.0000 C   0  0
    3.5970   -0.8365    0.0000 H   0  0
    6.1697    0.6799    0.0000 H   0  0
   -0.9997    2.5132    0.0000 H   0  0
   -0.9997   -2.5132    0.0000 H   0  0
    4.1915    1.8368    0.0000 H   0  0
    4.0077    2.8197    0.0000 H   0  0
    3.6017    2.5063    0.0000 H   0  0
    2.8416    1.8566    0.0000 H   0  0
    3.0240    0.8735    0.0000 H   0  0
    6.8622   -2.1010    0.0000 H   0  0
   -3.1826    1.2456    0.0000 H   0  0
   -3.1826   -1.2456    0.0000 H   0  0
    5.9066    4.4475    0.0000 H   0  0
    7.0334    3.1323    0.0000 H   0  0
    6.8496    4.1151    0.0000 H   0  0
  1  2  1  0
  1  3  1  0
  1  4  1  0
  2  5  1  0
  3  6  1  0
  3  7  2  0
  4  8  1  0
  4  9  1  0
  5 10  2  0
  5  6  1  0
  6 11  2  0
  8 12  1  0
  8 13  1  0
  9 14  1  0
  9 15  2  0
 10 16  1  0
 11 17  1  0
 12 18  1  0
 16 17  2  0
  4 19  1  0
  8 20  1  0
 10 21  1  0
 11 22  1  0
 12 23  1  0
 12 24  1  0
 13 25  1  0
 13 26  1  0
 13 27  1  0
 14 28  1  0
 16 29  1  0
 17 30  1  0
 18 31  1  0
 18 32  1  0
 18 33  1  0
V    1 0
V    2 1
V    3 2
V    4 3
V    5 4
V    6 5
V    7 6
V    8 7
V    9 8
V   10 9
V   11 10
V   12 11
V   13 12
V   14 13
V   15 14
V   16 15
V   17 16
V   18 17
M  END
> <DSSTox_RID>
66206

> <DSSTox_CID>
27261

> <DSSTox_CID_Parent>
27261

> <DSSTox_Generic_SID>
47261

> <DSSTox_FileID>
841_TXCST2_v1a

> <STRUCTURE_Formula>
C13H15NO3S

> <STRUCTURE_MolecularWeight>
265.3281

> <STRUCTURE_ChemicalType>
defined organic

> <STRUCTURE_TestedForm_DefinedOrganic>
parent

> <STRUCTURE_Shown>
tested chemical

> <TestSubstance_ChemicalName>
(2S,3S)-3-methyl-2-(3-oxo-1,2-benzothiazol-2(3H)-yl)pentanoic acid

> <TestSubstance_CASRN>
177785-47-6

> <TestSubstance_Description>
single chemical compound

> <ChemicalNote>
stereochem

> <STRUCTURE_ChemicalName_IUPAC>
(2S,3S)-3-methyl-2-(3-oxo-1,2-benzothiazol-2(3H)-yl)pentanoic acid

> <STRUCTURE_SMILES>
O=C1N([C@H]([C@](O)=O)[C@@H](C)CC)SC2=CC=CC=C12

> <STRUCTURE_Parent_SMILES>
O=C1N([C@H]([C@](O)=O)[C@@H](C)CC)SC2=CC=CC=C12

> <STRUCTURE_InChIS>
InChI=1S/C13H15NO3S/c1-3-8(2)11(13(16)17)14-12(15)9-6-4-5-7-10(9)18-14/h4-8,11H,3H2,1-2H3,(H,16,17)/t8-,11-/m0/s1

> <STRUCTURE_InChIKey>
FUSYFEXGXRDJNB-KWQFWETISA-N

> <Substance_modify_yyyymmdd>
20100524

> <Coord_Metals>
0

> <Index>
841

> <Canonical_Smiles>
CCC(C)C(N1Sc2ccccc2C1=O)C(=O)O

> <Molecular_Weight>
265.3281

> <Frequency>
1

$$$$

  SciTegic          2D

 71 73  0  0  0  0            999 V2000
    2.3457    0.8111    0.0000 C   0  0
    1.8327    2.2207    0.0000 C   0  0
    1.3815   -0.3379    0.0000 O   0  0
    2.8176    2.2143    0.0000 C   0  0
    2.8179   -0.5924    0.0000 C   0  0
    0.3555    2.4811    0.0000 C   0  0
   -0.0957   -0.0775    0.0000 C   0  0
    4.2809    2.5480    0.0000 C   0  0
    4.2958   -0.8541    0.0000 C   0  0
    3.8044    0.5771    0.0000 C   0  0
   -0.6087    1.3321    0.0000 C   0  0
   -0.0550    3.6088    0.0000 O   0  0
   -1.0580   -1.2292    0.0000 O   0  0
    4.7244    3.9818    0.0000 C   0  0
   -2.0873    1.5896    0.0000 S   0  0
    3.7051    5.0822    0.0000 C   0  0
    6.1871    4.3144    0.0000 C   0  0
   -2.6044    2.9986    0.0000 C   0  0
    4.1484    6.5152    0.0000 C   0  0
    6.6304    5.7474    0.0000 C   0  0
   -3.9039    3.7478    0.0000 C   0  0
   -1.3058    3.7495    0.0000 C   0  0
    5.6111    6.8478    0.0000 C   0  0
   -3.9049    5.2478    0.0000 C   0  0
   -5.3818    3.4863    0.0000 C   0  0
   -1.3068    5.2495    0.0000 C   0  0
    6.0576    8.2807    0.0000 N   0  0
   -2.6064    5.9986    0.0000 C   0  0
   -5.8951    2.0759    0.0000 C   0  0
   -6.3468    4.6356    0.0000 C   0  0
   -4.3958    2.3164    0.0000 C   0  0
   -0.0076    6.0008    0.0000 C   0  0
   -2.6073    7.4995    0.0000 C   0  0
   -3.9071    8.2498    0.0000 O   0  0
    1.1720    1.4700    0.0000 H   0  0
    1.4687    3.1521    0.0000 H   0  0
    2.1378    2.9477    0.0000 H   0  0
    3.1127    3.1698    0.0000 H   0  0
    2.1748   -1.3581    0.0000 H   0  0
    5.2560    2.7699    0.0000 H   0  0
    4.9607    1.8146    0.0000 H   0  0
    4.6377   -1.7938    0.0000 H   0  0
    5.2805   -1.0280    0.0000 H   0  0
    4.9389   -0.0883    0.0000 H   0  0
    4.7889    0.4014    0.0000 H   0  0
    3.4646    1.5176    0.0000 H   0  0
    4.4489    1.3417    0.0000 H   0  0
   -0.7147   -2.1684    0.0000 H   0  0
    2.7300    4.8605    0.0000 H   0  0
    6.8667    3.5808    0.0000 H   0  0
    3.4688    7.2488    0.0000 H   0  0
    7.6055    5.9691    0.0000 H   0  0
   -0.4395    3.2501    0.0000 H   0  0
   -4.7712    5.7472    0.0000 H   0  0
    7.0330    8.5010    0.0000 H   0  0
    5.3793    9.0155    0.0000 H   0  0
   -6.8798    1.9017    0.0000 H   0  0
   -5.2521    1.3101    0.0000 H   0  0
   -6.2367    1.1361    0.0000 H   0  0
   -7.3316    4.4623    0.0000 H   0  0
   -6.0048    5.5753    0.0000 H   0  0
   -6.9894    5.4018    0.0000 H   0  0
   -3.4113    2.4916    0.0000 H   0  0
   -3.7517    1.5514    0.0000 H   0  0
   -4.7360    1.3760    0.0000 H   0  0
    0.8591    5.5019    0.0000 H   0  0
   -0.0085    7.0008    0.0000 H   0  0
    0.8579    6.5018    0.0000 H   0  0
   -1.7415    7.9998    0.0000 H   0  0
   -2.6075    8.4995    0.0000 H   0  0
   -3.9078    9.2498    0.0000 H   0  0
  1  2  1  0
  1  3  1  0
  1  4  1  0
  1  5  1  0
  2  6  1  0
  3  7  1  0
  4  8  1  0
  5  9  1  0
  5 10  1  0
  6 11  1  0
  6 12  2  0
  7 13  1  0
  7 11  2  0
  8 14  1  0
 11 15  1  0
 14 16  1  0
 14 17  2  0
 15 18  1  0
 16 19  2  0
 17 20  1  0
 18 21  1  0
 18 22  2  0
 19 23  1  0
 20 23  2  0
 21 24  2  0
 21 25  1  0
 22 26  1  0
 23 27  1  0
 24 28  1  0
 25 29  1  0
 25 30  1  0
 25 31  1  0
 26 32  1  0
 26 28  2  0
 28 33  1  0
 33 34  1  0
  2 35  1  0
  2 36  1  0
  4 37  1  0
  4 38  1  0
  5 39  1  0
  8 40  1  0
  8 41  1  0
  9 42  1  0
  9 43  1  0
  9 44  1  0
 10 45  1  0
 10 46  1  0
 10 47  1  0
 13 48  1  0
 16 49  1  0
 17 50  1  0
 19 51  1  0
 20 52  1  0
 22 53  1  0
 24 54  1  0
 27 55  1  0
 27 56  1  0
 29 57  1  0
 29 58  1  0
 29 59  1  0
 30 60  1  0
 30 61  1  0
 30 62  1  0
 31 63  1  0
 31 64  1  0
 31 65  1  0
 32 66  1  0
 32 67  1  0
 32 68  1  0
 33 69  1  0
 33 70  1  0
 34 71  1  0
V    1 0
V    2 1
V    3 2
V    4 3
V    5 4
V    6 5
V    7 6
V    8 7
V    9 8
V   10 9
V   11 10
V   12 11
V   13 12
V   14 13
V   15 14
V   16 15
V   17 16
V   18 17
V   19 18
V   20 19
V   21 20
V   22 21
V   23 22
V   24 23
V   25 24
V   26 25
V   27 26
V   28 27
V   29 28
V   30 29
V   31 30
V   32 31
V   33 32
V   34 33
M  END
> <DSSTox_RID>
66207

> <DSSTox_CID>
27262

> <DSSTox_CID_Parent>
27262

> <DSSTox_Generic_SID>
47262

> <DSSTox_FileID>
842_TXCST2_v1a

> <STRUCTURE_Formula>
C28H37NO4S

> <STRUCTURE_MolecularWeight>
483.6627

> <STRUCTURE_ChemicalType>
defined organic

> <STRUCTURE_TestedForm_DefinedOrganic>
parent

> <STRUCTURE_Shown>
tested chemical

> <TestSubstance_ChemicalName>
(6S)-6-[2-(4-aminophenyl)ethyl]-3-{[2-tert-butyl-4-(hydroxymethyl)-5-methylphenyl]sulfanyl}-4-hydroxy-6-(propan-2-yl)-5,6-dihydro-2H-pyran-2-one

> <TestSubstance_CASRN>
207736-05-8

> <TestSubstance_Description>
single chemical compound

> <ChemicalNote>
stereochem

> <STRUCTURE_ChemicalName_IUPAC>
(6S)-6-[2-(4-aminophenyl)ethyl]-3-{[2-tert-butyl-4-(hydroxymethyl)-5-methylphenyl]sulfanyl}-4-hydroxy-6-(propan-2-yl)-5,6-dihydro-2H-pyran-2-one

> <STRUCTURE_SMILES>
OC(C[C@@](CCC2=CC=C(N)C=C2)([C@H](C)C)O1)=C(SC3=CC(C)=C(CO)C=C3C(C)(C)C)C1=O

> <STRUCTURE_Parent_SMILES>
OC(C[C@@](CCC2=CC=C(N)C=C2)([C@H](C)C)O1)=C(SC3=CC(C)=C(CO)C=C3C(C)(C)C)C1=O

> <STRUCTURE_InChIS>
InChI=1S/C28H37NO4S/c1-17(2)28(12-11-19-7-9-21(29)10-8-19)15-23(31)25(26(32)33-28)34-24-13-18(3)20(16-30)14-22(24)27(4,5)6/h7-10,13-14,17,30-31H,11-12,15-16,29H2,1-6H3/t28-/m0/s1

> <STRUCTURE_InChIKey>
ZUBPKHVCBGWWGO-NDEPHWFRSA-N

> <Substance_modify_yyyymmdd>
20100524

> <Coord_Metals>
0

> <Index>
842

> <Canonical_Smiles>
CC(C)C1(CCc2ccc(N)cc2)CC(=O)C(=C(O)O1)Sc3cc(C)c(CO)cc3C(C)(C)C

> <Molecular_Weight>
483.66268

> <Frequency>
1

$$$$

  SciTegic          2D

 37 39  0  0  0  0            999 V2000
   -2.8689   -0.9181    0.0000 C   0  0
   -2.9378    0.5738    0.0000 C   0  0
   -1.6754   -1.7673    0.0000 N   0  0
   -4.2919   -1.4230    0.0000 C   0  0
   -4.3608    0.9869    0.0000 N   0  0
   -1.7902    1.5836    0.0000 C   0  0
    0.0000   -1.3541    0.0000 C   0  0
   -5.1640   -0.2295    0.0000 N   0  0
   -4.7397   -2.8525    0.0000 C   0  0
   -4.8824    2.3916    0.0000 C   0  0
   -0.3213    1.2853    0.0000 N   0  0
   -2.0994    2.7431    0.0000 O   0  0
    1.0489   -2.4275    0.0000 C   0  0
    0.3672    0.0000    0.0000 C   0  0
   -3.9261    3.5483    0.0000 C   0  0
    2.5048   -2.0683    0.0000 C   0  0
    0.6315   -3.8685    0.0000 C   0  0
    3.5442   -3.1498    0.0000 C   0  0
    1.6709   -4.9500    0.0000 C   0  0
    3.1272   -4.5907    0.0000 C   0  0
    4.1649   -5.6750    0.0000 O   0  0
   -4.0633   -3.5890    0.0000 H   0  0
   -5.7157   -3.0703    0.0000 H   0  0
   -5.0392   -3.8066    0.0000 H   0  0
   -5.8684    2.5584    0.0000 H   0  0
   -5.5200    1.6212    0.0000 H   0  0
    0.2756    2.0876    0.0000 H   0  0
    0.7321    0.9310    0.0000 H   0  0
    0.9323   -0.8250    0.0000 H   0  0
   -4.2743    4.4857    0.0000 H   0  0
   -2.9401    3.3815    0.0000 H   0  0
   -3.2885    4.3187    0.0000 H   0  0
    2.7828   -1.1077    0.0000 H   0  0
   -0.3394   -4.1079    0.0000 H   0  0
    4.5151   -2.9103    0.0000 H   0  0
    1.3929   -5.9106    0.0000 H   0  0
    3.8856   -6.6352    0.0000 H   0  0
  1  2  2  0
  1  3  1  0
  1  4  1  0
  2  5  1  0
  2  6  1  0
  3  7  2  0
  4  8  2  0
  4  9  1  0
  5 10  1  0
  5  8  1  0
  6 11  1  0
  6 12  2  0
  7 13  1  0
  7 14  1  0
 10 15  1  0
 11 14  1  0
 13 16  2  0
 13 17  1  0
 16 18  1  0
 17 19  2  0
 18 20  2  0
 19 20  1  0
 20 21  1  0
  9 22  1  0
  9 23  1  0
  9 24  1  0
 10 25  1  0
 10 26  1  0
 11 27  1  0
 14 28  1  0
 14 29  1  0
 15 30  1  0
 15 31  1  0
 15 32  1  0
 16 33  1  0
 17 34  1  0
 18 35  1  0
 19 36  1  0
 21 37  1  0
V    1 0
V    2 1
V    3 2
V    4 3
V    5 4
V    6 5
V    7 6
V    8 7
V    9 8
V   10 9
V   11 10
V   12 11
V   13 12
V   14 13
V   15 14
V   16 15
V   17 16
V   18 17
V   19 18
V   20 19
V   21 20
M  END
> <DSSTox_RID>
66208

> <DSSTox_CID>
27263

> <DSSTox_CID_Parent>
27263

> <DSSTox_Generic_SID>
47263

> <DSSTox_FileID>
843_TXCST2_v1a

> <STRUCTURE_Formula>
C15H16N4O2

> <STRUCTURE_MolecularWeight>
284.3131

> <STRUCTURE_ChemicalType>
defined organic

> <STRUCTURE_TestedForm_DefinedOrganic>
parent

> <STRUCTURE_Shown>
tested chemical

> <TestSubstance_ChemicalName>
1-ethyl-5-(4-hydroxyphenyl)-3-methyl-6,7-dihydropyrazolo[4,3-e][1,4]diazepin-8(1H)-one

> <TestSubstance_CASRN>
349495-42-7

> <TestSubstance_Description>
single chemical compound

> <STRUCTURE_ChemicalName_IUPAC>
1-ethyl-5-(4-hydroxyphenyl)-3-methyl-6,7-dihydropyrazolo[4,3-e][1,4]diazepin-8(1H)-one

> <STRUCTURE_SMILES>
O=C(NC3)C2=C(C(C)=NN2CC)N=C3C1=CC=C(O)C=C1+

> <STRUCTURE_Parent_SMILES>
O=C(NC3)C2=C(C(C)=NN2CC)N=C3C1=CC=C(O)C=C1

> <STRUCTURE_InChIS>
InChI=1S/C15H16N4O2/c1-3-19-14-13(9(2)18-19)17-12(8-16-15(14)21)10-4-6-11(20)7-5-10/h4-7,20H,3,8H2,1-2H3,(H,16,21)

> <STRUCTURE_InChIKey>
BEOZJBLIRPRMJM-UHFFFAOYSA-N

> <Substance_modify_yyyymmdd>
20100524

> <Coord_Metals>
0

> <Index>
843

> <Canonical_Smiles>
CCn1nc(C)c2N=C(CNC(=O)c12)c3ccc(O)cc3

> <Molecular_Weight>
284.31314

> <Frequency>
1

$$$$

  SciTegic          2D

 48 51  0  0  0  0            999 V2000
   -2.6111    0.7486    0.0000 C   0  0
   -3.0807    2.1527    0.0000 N   0  0
   -1.2964    1.4973    0.0000 C   0  0
   -2.6111   -0.7486    0.0000 C   0  0
   -2.0866    3.2760    0.0000 C   0  0
   -4.5505    2.4520    0.0000 C   0  0
    0.0000    0.7486    0.0000 C   0  0
    0.0056    2.2014    0.0000 O   0  0
   -1.2964   -1.4973    0.0000 O   0  0
   -2.5623    4.6985    0.0000 C   0  0
   -5.0263    3.8745    0.0000 C   0  0
    0.0000   -0.7486    0.0000 C   0  0
    1.2964    1.4973    0.0000 C   0  0
   -4.0322    4.9978    0.0000 C   0  0
    1.2964   -1.4973    0.0000 C   0  0
    2.5929    0.7486    0.0000 C   0  0
   -5.3132    5.7405    0.0000 C   0  0
   -3.0240    6.0819    0.0000 O   0  0
    2.5929   -0.7486    0.0000 C   0  0
   -6.6136    4.9929    0.0000 C   0  0
   -5.3105    7.2405    0.0000 C   0  0
    3.8942   -1.4964    0.0000 O   0  0
   -7.9113    5.7453    0.0000 C   0  0
   -6.6082    7.9929    0.0000 C   0  0
   -7.9086    7.2453    0.0000 C   0  0
   -8.9467    7.8471    0.0000 F   0  0
   -3.4668    0.2312    0.0000 H   0  0
   -2.1731    1.9783    0.0000 H   0  0
   -1.7351   -0.2664    0.0000 H   0  0
   -2.5849   -1.7483    0.0000 H   0  0
   -1.4417    4.0403    0.0000 H   0  0
   -1.7918    2.3204    0.0000 H   0  0
   -5.5254    2.6745    0.0000 H   0  0
   -4.2112    1.5113    0.0000 H   0  0
    0.8704    1.6991    0.0000 H   0  0
   -1.5874    4.4760    0.0000 H   0  0
   -2.9017    5.6392    0.0000 H   0  0
   -4.0513    3.6519    0.0000 H   0  0
   -5.6712    3.1103    0.0000 H   0  0
    1.2964    2.4973    0.0000 H   0  0
    1.2964   -2.4973    0.0000 H   0  0
    3.4589    1.2486    0.0000 H   0  0
   -2.0441    5.8828    0.0000 H   0  0
   -6.6154    3.9929    0.0000 H   0  0
   -4.4436    7.7389    0.0000 H   0  0
    4.7595   -0.9952    0.0000 H   0  0
   -8.7782    5.2468    0.0000 H   0  0
   -6.6063    8.9929    0.0000 H   0  0
  1  2  1  0
  1  3  1  0
  1  4  1  0
  2  5  1  0
  2  6  1  0
  3  7  1  0
  3  8  1  0
  4  9  1  0
  5 10  1  0
  6 11  1  0
  7 12  1  0
  7 13  2  0
  9 12  1  0
 10 14  1  0
 11 14  1  0
 12 15  2  0
 13 16  1  0
 14 17  1  0
 14 18  1  0
 15 19  1  0
 16 19  2  0
 17 20  1  0
 17 21  2  0
 19 22  1  0
 20 23  2  0
 21 24  1  0
 23 25  1  0
 24 25  2  0
 25 26  1  0
  1 27  1  0
  3 28  1  0
  4 29  1  0
  4 30  1  0
  5 31  1  0
  5 32  1  0
  6 33  1  0
  6 34  1  0
  8 35  1  0
 10 36  1  0
 10 37  1  0
 11 38  1  0
 11 39  1  0
 13 40  1  0
 15 41  1  0
 16 42  1  0
 18 43  1  0
 20 44  1  0
 21 45  1  0
 22 46  1  0
 23 47  1  0
 24 48  1  0
V    1 0
V    2 1
V    3 2
V    4 3
V    5 4
V    6 5
V    7 6
V    8 7
V    9 8
V   10 9
V   11 10
V   12 11
V   13 12
V   14 13
V   15 14
V   16 15
V   17 16
V   18 17
V   19 18
V   20 19
V   21 20
V   22 21
V   23 22
V   24 23
V   25 24
V   26 25
M  END
> <DSSTox_RID>
66209

> <DSSTox_CID>
27264

> <DSSTox_CID_Parent>
27264

> <DSSTox_Generic_SID>
47264

> <DSSTox_FileID>
844_TXCST2_v1a

> <STRUCTURE_Formula>
C20H22FNO4

> <STRUCTURE_MolecularWeight>
359.3914

> <STRUCTURE_ChemicalType>
defined organic

> <STRUCTURE_TestedForm_DefinedOrganic>
parent

> <STRUCTURE_Shown>
tested chemical

> <TestSubstance_ChemicalName>
(3R,4S)-3-[4-(4-fluorophenyl)-4-hydroxypiperidin-1-yl]-3,4-dihydro-2H-chromene-4,7-diol

> <TestSubstance_CASRN>
171866-31-2

> <TestSubstance_Description>
single chemical compound

> <ChemicalNote>
stereochem

> <STRUCTURE_ChemicalName_IUPAC>
(3R,4S)-3-[4-(4-fluorophenyl)-4-hydroxypiperidin-1-yl]-3,4-dihydro-2H-chromene-4,7-diol

> <STRUCTURE_SMILES>
O[C@@H]2[C@@H](COC3=CC(O)=CC=C23)N1CCC(C4=CC=C(F)C=C4)(O)CC1

> <STRUCTURE_Parent_SMILES>
O[C@@H]2[C@@H](COC3=CC(O)=CC=C23)N1CCC(C4=CC=C(F)C=C4)(O)CC1

> <STRUCTURE_InChIS>
InChI=1S/C20H22FNO4/c21-14-3-1-13(2-4-14)20(25)7-9-22(10-8-20)17-12-26-18-11-15(23)5-6-16(18)19(17)24/h1-6,11,17,19,23-25H,7-10,12H2/t17-,19+/m1/s1

> <STRUCTURE_InChIKey>
JGYVZUCCBOVDJE-MJGOQNOKSA-N

> <Substance_modify_yyyymmdd>
20100524

> <Coord_Metals>
0

> <Index>
844

> <Canonical_Smiles>
OC1C(COc2cc(O)ccc12)N3CCC(O)(CC3)c4ccc(F)cc4

> <Molecular_Weight>
359.39138

> <Frequency>
1

$$$$

  SciTegic          2D

 55 57  0  0  0  0            999 V2000
    3.8995   -3.7516    0.0000 C   0  0
    2.9347   -2.6020    0.0000 N   0  0
    5.1127   -4.5701    0.0000 C   0  0
    2.6857   -4.5692    0.0000 C   0  0
    5.2002   -3.0021    0.0000 C   0  0
    3.4472   -1.1913    0.0000 S   0  0
    1.4562   -2.8601    0.0000 C   0  0
    4.6486   -5.9965    0.0000 C   0  0
    3.1486   -5.9959    0.0000 C   0  0
    6.4998   -3.7528    0.0000 N   0  0
    5.2008   -1.8021    0.0000 O   0  0
    2.4825   -0.0416    0.0000 C   0  0
    4.6289   -0.9826    0.0000 O   0  0
    4.2190   -2.1102    0.0000 O   0  0
    0.4888   -4.0075    0.0000 C   0  0
    7.8002   -3.0035    0.0000 O   0  0
    2.9955    1.3679    0.0000 C   0  0
    1.0053   -0.3021    0.0000 C   0  0
   -0.9887   -3.7443    0.0000 C   0  0
    2.0313    2.5170    0.0000 C   0  0
    0.0411    0.8470    0.0000 C   0  0
   -1.9562   -4.8918    0.0000 O   0  0
   -1.3969   -2.6159    0.0000 O   0  0
    0.5541    2.2565    0.0000 C   0  0
   -0.4130    3.4042    0.0000 O   0  0
   -1.8906    3.1415    0.0000 C   0  0
   -2.8589    4.2872    0.0000 C   0  0
   -2.3989    1.7302    0.0000 C   0  0
   -4.3352    4.0216    0.0000 C   0  0
   -3.8752    1.4646    0.0000 C   0  0
   -4.8433    2.6103    0.0000 C   0  0
   -6.0243    2.3978    0.0000 F   0  0
    5.2904   -3.5860    0.0000 H   0  0
    5.8584   -5.2364    0.0000 H   0  0
    2.5088   -3.5849    0.0000 H   0  0
    1.9395   -5.2349    0.0000 H   0  0
    1.8000   -1.9210    0.0000 H   0  0
    0.8150   -2.0927    0.0000 H   0  0
    5.6415   -5.8775    0.0000 H   0  0
    4.2280   -6.9038    0.0000 H   0  0
    3.5687   -6.9034    0.0000 H   0  0
    2.1558   -5.8763    0.0000 H   0  0
    6.4993   -4.7528    0.0000 H   0  0
    0.8289   -4.9479    0.0000 H   0  0
   -0.1554   -4.7723    0.0000 H   0  0
    8.6661   -3.5036    0.0000 H   0  0
    3.9803    1.5416    0.0000 H   0  0
    0.6633   -1.2418    0.0000 H   0  0
    2.3733    3.4567    0.0000 H   0  0
   -0.9437    0.6733    0.0000 H   0  0
   -2.9407   -4.7164    0.0000 H   0  0
   -2.5201    5.2281    0.0000 H   0  0
   -1.7534    0.9663    0.0000 H   0  0
   -4.9806    4.7854    0.0000 H   0  0
   -4.2139    0.5237    0.0000 H   0  0
  1  2  1  0
  1  3  1  0
  1  4  1  0
  1  5  1  0
  2  6  1  0
  2  7  1  0
  3  8  1  0
  4  9  1  0
  5 10  1  0
  5 11  2  0
  6 12  1  0
  6 13  2  0
  6 14  2  0
  7 15  1  0
  8  9  1  0
 10 16  1  0
 12 17  2  0
 12 18  1  0
 15 19  1  0
 17 20  1  0
 18 21  2  0
 19 22  1  0
 19 23  2  0
 20 24  2  0
 21 24  1  0
 24 25  1  0
 25 26  1  0
 26 27  1  0
 26 28  2  0
 27 29  2  0
 28 30  1  0
 29 31  1  0
 30 31  2  0
 31 32  1  0
  3 33  1  0
  3 34  1  0
  4 35  1  0
  4 36  1  0
  7 37  1  0
  7 38  1  0
  8 39  1  0
  8 40  1  0
  9 41  1  0
  9 42  1  0
 10 43  1  0
 15 44  1  0
 15 45  1  0
 16 46  1  0
 17 47  1  0
 18 48  1  0
 20 49  1  0
 21 50  1  0
 22 51  1  0
 27 52  1  0
 28 53  1  0
 29 54  1  0
 30 55  1  0
V    1 0
V    2 1
V    3 2
V    4 3
V    5 4
V    6 5
V    7 6
V    8 7
V    9 8
V   10 9
V   11 10
V   12 11
V   13 12
V   14 13
V   15 14
V   16 15
V   17 16
V   18 17
V   19 18
V   20 19
V   21 20
V   22 21
V   23 22
V   24 23
V   25 24
V   26 25
V   27 26
V   28 27
V   29 28
V   30 29
V   31 30
V   32 31
M  END
> <DSSTox_RID>
66210

> <DSSTox_CID>
27265

> <DSSTox_CID_Parent>
27265

> <DSSTox_Generic_SID>
47265

> <DSSTox_FileID>
845_TXCST2_v1a

> <STRUCTURE_Formula>
C21H23FN2O7S

> <STRUCTURE_MolecularWeight>
466.4799

> <STRUCTURE_ChemicalType>
defined organic

> <STRUCTURE_TestedForm_DefinedOrganic>
parent

> <STRUCTURE_Shown>
tested chemical

> <TestSubstance_ChemicalName>
N-{[4-(4-fluorophenoxy)phenyl]sulfonyl}-N-[1-(hydroxycarbamoyl)cyclopentyl]-b-alanine

> <TestSubstance_CASRN>
NOCAS_47265

> <TestSubstance_Description>
single chemical compound

> <STRUCTURE_ChemicalName_IUPAC>
N-{[4-(4-fluorophenoxy)phenyl]sulfonyl}-N-[1-(hydroxycarbamoyl)cyclopentyl]-b-alanine

> <STRUCTURE_SMILES>
O=C(NO)C1(CCCC1)N(CCC(O)=O)S(C2=CC=C(OC3=CC=C(F)C=C3)C=C2)(=O)=O

> <STRUCTURE_Parent_SMILES>
O=C(NO)C1(CCCC1)N(CCC(O)=O)S(C2=CC=C(OC3=CC=C(F)C=C3)C=C2)(=O)=O

> <STRUCTURE_InChIS>
InChI=1S/C21H23FN2O7S/c22-15-3-5-16(6-4-15)31-17-7-9-18(10-8-17)32(29,30)24(14-11-19(25)26)21(20(27)23-28)12-1-2-13-21/h3-10,28H,1-2,11-14H2,(H,23,27)(H,25,26)

> <STRUCTURE_InChIKey>
VHHGUBHZBLPTKL-UHFFFAOYSA-N

> <Substance_modify_yyyymmdd>
20100524

> <Coord_Metals>
0

> <Index>
845

> <Canonical_Smiles>
ONC(=O)C1(CCCC1)N(CCC(=O)O)S(=O)(=O)c2ccc(Oc3ccc(F)cc3)cc2

> <Molecular_Weight>
466.47992

> <Frequency>
1

$$$$

  SciTegic          2D

 47 49  0  0  0  0            999 V2000
    1.2990   -0.7500    0.0000 C   0  0
    2.7506   -0.4572    0.0000 N   0  0
    1.2990    0.7500    0.0000 C   0  0
    0.0000   -1.5000    0.0000 C   0  0
    1.2626   -2.2300    0.0000 C   0  0
    3.7162   -1.6062    0.0000 S   0  0
    0.0000    1.5000    0.0000 C   0  0
   -1.2990   -0.7500    0.0000 C   0  0
   -0.0368   -2.9810    0.0000 N   0  0
    2.3019   -2.8299    0.0000 O   0  0
    5.1942   -1.3454    0.0000 C   0  0
    3.3062   -2.7340    0.0000 O   0  0
    2.5345   -1.8153    0.0000 O   0  0
   -1.2990    0.7500    0.0000 O   0  0
   -0.0372   -4.4818    0.0000 O   0  0
    6.1585   -2.4944    0.0000 C   0  0
    5.7070    0.0642    0.0000 C   0  0
    7.6357   -2.2337    0.0000 C   0  0
    7.1842    0.3248    0.0000 C   0  0
    8.1485   -0.8241    0.0000 C   0  0
    9.6260   -0.5603    0.0000 O   0  0
   10.1371    0.8508    0.0000 C   0  0
   11.6134    1.1167    0.0000 C   0  0
    9.1689    1.9965    0.0000 C   0  0
   12.1214    2.5280    0.0000 C   0  0
    9.6769    3.4079    0.0000 C   0  0
   11.1531    3.6736    0.0000 C   0  0
   11.5595    4.8027    0.0000 F   0  0
    3.0922    0.4826    0.0000 H   0  0
    2.1530    0.2297    0.0000 H   0  0
    1.2755    1.7497    0.0000 H   0  0
   -0.8776   -1.9794    0.0000 H   0  0
   -0.0235   -0.5003    0.0000 H   0  0
   -0.0236    0.5003    0.0000 H   0  0
   -0.8775    1.9795    0.0000 H   0  0
   -1.2754   -1.7497    0.0000 H   0  0
   -2.1531   -0.2298    0.0000 H   0  0
   -0.9029   -2.4810    0.0000 H   0  0
   -0.9030   -4.9821    0.0000 H   0  0
    5.8166   -3.4341    0.0000 H   0  0
    5.0642    0.8302    0.0000 H   0  0
    8.2785   -2.9997    0.0000 H   0  0
    7.5261    1.2646    0.0000 H   0  0
   12.2590    0.3529    0.0000 H   0  0
    8.1847    1.8194    0.0000 H   0  0
   13.1056    2.7052    0.0000 H   0  0
    9.0313    4.1716    0.0000 H   0  0
  1  2  1  0
  1  3  1  0
  1  4  1  0
  1  5  1  0
  2  6  1  0
  3  7  1  0
  4  8  1  0
  5  9  1  0
  5 10  2  0
  6 11  1  0
  6 12  2  0
  6 13  2  0
  7 14  1  0
  8 14  1  0
  9 15  1  0
 11 16  2  0
 11 17  1  0
 16 18  1  0
 17 19  2  0
 18 20  2  0
 19 20  1  0
 20 21  1  0
 21 22  1  0
 22 23  1  0
 22 24  2  0
 23 25  2  0
 24 26  1  0
 25 27  1  0
 26 27  2  0
 27 28  1  0
  2 29  1  0
  3 30  1  0
  3 31  1  0
  4 32  1  0
  4 33  1  0
  7 34  1  0
  7 35  1  0
  8 36  1  0
  8 37  1  0
  9 38  1  0
 15 39  1  0
 16 40  1  0
 17 41  1  0
 18 42  1  0
 19 43  1  0
 23 44  1  0
 24 45  1  0
 25 46  1  0
 26 47  1  0
V    1 0
V    2 1
V    3 2
V    4 3
V    5 4
V    6 5
V    7 6
V    8 7
V    9 8
V   10 9
V   11 10
V   12 11
V   13 12
V   14 13
V   15 14
V   16 15
V   17 16
V   18 17
V   19 18
V   20 19
V   21 20
V   22 21
V   23 22
V   24 23
V   25 24
V   26 25
V   27 26
V   28 27
M  END
> <DSSTox_RID>
66211

> <DSSTox_CID>
27266

> <DSSTox_CID_Parent>
27266

> <DSSTox_Generic_SID>
47266

> <DSSTox_FileID>
846_TXCST2_v1a

> <STRUCTURE_Formula>
C18H19FN2O6S

> <STRUCTURE_MolecularWeight>
410.4167

> <STRUCTURE_ChemicalType>
defined organic

> <STRUCTURE_TestedForm_DefinedOrganic>
parent

> <STRUCTURE_Shown>
tested chemical

> <TestSubstance_ChemicalName>
4-({[4-(4-fluorophenoxy)phenyl]sulfonyl}amino)-N-hydroxytetrahydro-2H-pyran-4-carboxamide

> <TestSubstance_CASRN>
230954-09-3

> <TestSubstance_Description>
single chemical compound

> <STRUCTURE_ChemicalName_IUPAC>
4-({[4-(4-fluorophenoxy)phenyl]sulfonyl}amino)-N-hydroxytetrahydro-2H-pyran-4-carboxamide

> <STRUCTURE_SMILES>
O=C(NO)C1(CCOCC1)NS(C2=CC=C(OC3=CC=C(F)C=C3)C=C2)(=O)=O

> <STRUCTURE_Parent_SMILES>
O=C(NO)C1(CCOCC1)NS(C2=CC=C(OC3=CC=C(F)C=C3)C=C2)(=O)=O

> <STRUCTURE_InChIS>
InChI=1S/C18H19FN2O6S/c19-13-1-3-14(4-2-13)27-15-5-7-16(8-6-15)28(24,25)21-18(17(22)20-23)9-11-26-12-10-18/h1-8,21,23H,9-12H2,(H,20,22)

> <STRUCTURE_InChIKey>
ZBRHTUMWSDPCMI-UHFFFAOYSA-N

> <Substance_modify_yyyymmdd>
20100524

> <Coord_Metals>
0

> <Index>
846

> <Canonical_Smiles>
ONC(=O)C1(CCOCC1)NS(=O)(=O)c2ccc(Oc3ccc(F)cc3)cc2

> <Molecular_Weight>
410.41666

> <Frequency>
1

$$$$

  SciTegic          2D

 50 52  0  0  0  0            999 V2000
    1.2990   -0.7500    0.0000 N   0  0
    2.5987   -1.5004    0.0000 C   0  0
    1.2990    0.7500    0.0000 C   0  0
    0.0000   -1.5000    0.0000 C   0  0
    2.5965   -3.0004    0.0000 N   0  0
    3.8991   -0.7525    0.0000 C   0  0
    0.0000    1.5000    0.0000 C   0  0
    2.5625   -0.0215    0.0000 C   0  0
   -1.2990   -0.7500    0.0000 C   0  0
    1.2999   -2.2084    0.0000 C   0  0
    3.8943   -3.7525    0.0000 C   0  0
    5.1969   -1.5045    0.0000 C   0  0
   -1.2990    0.7500    0.0000 N   0  0
    5.1945   -3.0045    0.0000 N   0  0
    3.8919   -5.2533    0.0000 C   0  0
   -2.5987    1.5004    0.0000 C   0  0
    2.5915   -6.0025    0.0000 C   0  0
    5.1907   -6.0053    0.0000 O   0  0
   -2.6012    3.0004    0.0000 N   0  0
   -3.8967    0.7484    0.0000 N   0  0
   -3.9015    3.7484    0.0000 C   0  0
   -5.1969    1.4963    0.0000 C   0  0
   -5.1993    2.9963    0.0000 N   0  0
   -3.9038    5.2492    0.0000 C   0  0
   -6.4955    0.7438    0.0000 C   0  0
    1.2745    1.7497    0.0000 H   0  0
   -0.8780   -1.9786    0.0000 H   0  0
    3.9007    0.2475    0.0000 H   0  0
   -0.0236    0.5003    0.0000 H   0  0
   -0.8775    1.9795    0.0000 H   0  0
    2.5630   -1.0215    0.0000 H   0  0
    3.4287   -0.5213    0.0000 H   0  0
    3.4285    0.4785    0.0000 H   0  0
   -0.4451   -0.2297    0.0000 H   0  0
   -2.1531   -0.2298    0.0000 H   0  0
    2.1662   -1.7088    0.0000 H   0  0
    2.1658   -2.7086    0.0000 H   0  0
    1.2998   -3.2084    0.0000 H   0  0
    6.0637   -1.0059    0.0000 H   0  0
    4.7587   -4.7545    0.0000 H   0  0
    2.5899   -7.0025    0.0000 H   0  0
    1.7261   -5.5014    0.0000 H   0  0
    1.7247   -6.5013    0.0000 H   0  0
    5.1900   -7.0053    0.0000 H   0  0
   -3.0389    5.7511    0.0000 H   0  0
   -4.7708    5.7475    0.0000 H   0  0
   -3.9059    6.2492    0.0000 H   0  0
   -6.4945   -0.2562    0.0000 H   0  0
   -7.3621    1.2427    0.0000 H   0  0
   -7.3609    0.2428    0.0000 H   0  0
  1  2  1  0
  1  3  1  0
  1  4  1  0
  2  5  1  0
  2  6  2  0
  3  7  1  0
  3  8  1  0
  4  9  1  0
  4 10  1  0
  5 11  2  0
  6 12  1  0
  7 13  1  0
  9 13  1  0
 11 14  1  0
 11 15  1  0
 12 14  2  0
 13 16  1  0
 15 17  1  0
 15 18  1  0
 16 19  1  0
 16 20  2  0
 19 21  2  0
 20 22  1  0
 21 23  1  0
 21 24  1  0
 22 25  1  0
 22 23  2  0
  3 26  1  0
  4 27  1  0
  6 28  1  0
  7 29  1  0
  7 30  1  0
  8 31  1  0
  8 32  1  0
  8 33  1  0
  9 34  1  0
  9 35  1  0
 10 36  1  0
 10 37  1  0
 10 38  1  0
 12 39  1  0
 15 40  1  0
 17 41  1  0
 17 42  1  0
 17 43  1  0
 18 44  1  0
 24 45  1  0
 24 46  1  0
 24 47  1  0
 25 48  1  0
 25 49  1  0
 25 50  1  0
V    1 0
V    2 1
V    3 2
V    4 3
V    5 4
V    6 5
V    7 6
V    8 7
V    9 8
V   10 9
V   11 10
V   12 11
V   13 12
V   14 13
V   15 14
V   16 15
V   17 16
V   18 17
V   19 18
V   20 19
V   21 20
V   22 21
V   23 22
V   24 23
V   25 24
M  END
> <DSSTox_RID>
66212

> <DSSTox_CID>
27267

> <DSSTox_CID_Parent>
27267

> <DSSTox_Generic_SID>
47267

> <DSSTox_FileID>
847_TXCST2_v1a

> <STRUCTURE_Formula>
C17H25N7O

> <STRUCTURE_MolecularWeight>
343.4267

> <STRUCTURE_ChemicalType>
defined organic

> <STRUCTURE_TestedForm_DefinedOrganic>
parent

> <STRUCTURE_Shown>
tested chemical

> <TestSubstance_ChemicalName>
(1R)-1-{4-[(2R,6S)-4-(4,6-dimethyl-1,3,5-triazin-2-yl)-2,6-dimethylpiperazin-1-yl]pyrimidin-2-yl}ethanol

> <TestSubstance_CASRN>
NOCAS_47267

> <TestSubstance_Description>
single chemical compound

> <ChemicalNote>
stereochem

> <STRUCTURE_ChemicalName_IUPAC>
(1R)-1-{4-[(2R,6S)-4-(4,6-dimethyl-1,3,5-triazin-2-yl)-2,6-dimethylpiperazin-1-yl]pyrimidin-2-yl}ethanol

> <STRUCTURE_SMILES>
O[C@H](C)C1=NC(N2[C@@H](C)CN(C3=NC(C)=NC(C)=N3)C[C@H]2C)=CC=N1

> <STRUCTURE_Parent_SMILES>
O[C@H](C)C1=NC(N2[C@@H](C)CN(C3=NC(C)=NC(C)=N3)C[C@H]2C)=CC=N1

> <STRUCTURE_InChIS>
InChI=1S/C17H25N7O/c1-10-8-23(17-20-13(4)19-14(5)21-17)9-11(2)24(10)15-6-7-18-16(22-15)12(3)25/h6-7,10-12,25H,8-9H2,1-5H3/t10-,11+,12-/m1/s1

> <STRUCTURE_InChIKey>
FTEQMUXMWCGJAF-GRYCIOLGSA-N

> <Substance_modify_yyyymmdd>
20100524

> <Coord_Metals>
0

> <Index>
847

> <Canonical_Smiles>
CC(O)c1nccc(n1)N2C(C)CN(CC2C)c3nc(C)nc(C)n3

> <Molecular_Weight>
343.4267

> <Frequency>
1

$$$$

  SciTegic          2D

 38 40  0  0  0  0            999 V2000
    0.2917    0.7475    0.0000 C   0  0
    1.7138    1.2033    0.0000 C   0  0
    0.2917   -0.7475    0.0000 C   0  0
   -1.0028    1.5132    0.0000 C   0  0
    2.5889    0.0182    0.0000 C   0  0
    2.6400    2.3814    0.0000 O   0  0
    1.7138   -1.2033    0.0000 S   0  0
   -1.0028   -1.5132    0.0000 C   0  0
   -2.3155    0.7475    0.0000 C   0  0
    4.0872    0.0320    0.0000 C   0  0
    2.0828    3.7750    0.0000 C   0  0
   -2.3155   -0.7475    0.0000 C   0  0
   -3.6217    1.4865    0.0000 O   0  0
    4.8506   -1.2602    0.0000 N   0  0
    4.5789    0.9028    0.0000 O   0  0
    3.0103    4.9549    0.0000 C   0  0
    0.5974    3.9887    0.0000 C   0  0
   -4.9153    0.7255    0.0000 C   0  0
    6.3513   -1.2462    0.0000 C   0  0
    7.2249   -2.4499    0.0000 N   0  0
    7.1973   -0.0230    0.0000 N   0  0
    8.6461   -1.9702    0.0000 N   0  0
    8.6290   -0.4703    0.0000 N   0  0
   -0.9997    2.5132    0.0000 H   0  0
   -0.9997   -2.5132    0.0000 H   0  0
    3.0726    3.6325    0.0000 H   0  0
   -3.1826   -1.2456    0.0000 H   0  0
    4.3589   -2.1310    0.0000 H   0  0
    2.6390    5.8834    0.0000 H   0  0
    4.0001    4.8124    0.0000 H   0  0
    3.6287    5.7408    0.0000 H   0  0
   -0.0214    3.2031    0.0000 H   0  0
    0.2261    4.9172    0.0000 H   0  0
   -0.3924    4.1316    0.0000 H   0  0
   -5.7857    1.2178    0.0000 H   0  0
   -4.9067   -0.2745    0.0000 H   0  0
   -5.7769    0.2180    0.0000 H   0  0
    9.4313    0.1267    0.0000 H   0  0
  1  2  1  0
  1  3  2  0
  1  4  1  0
  2  5  2  0
  2  6  1  0
  3  7  1  0
  3  8  1  0
  4  9  2  0
  5 10  1  0
  5  7  1  0
  6 11  1  0
  8 12  2  0
  9 13  1  0
  9 12  1  0
 10 14  1  0
 10 15  2  0
 11 16  1  0
 11 17  1  0
 13 18  1  0
 14 19  1  0
 19 20  1  0
 19 21  2  0
 20 22  2  0
 21 23  1  0
 22 23  1  0
  4 24  1  0
  8 25  1  0
 11 26  1  0
 12 27  1  0
 14 28  1  0
 16 29  1  0
 16 30  1  0
 16 31  1  0
 17 32  1  0
 17 33  1  0
 17 34  1  0
 18 35  1  0
 18 36  1  0
 18 37  1  0
 23 38  1  0
V    1 0
V    2 1
V    3 2
V    4 3
V    5 4
V    6 5
V    7 6
V    8 7
V    9 8
V   10 9
V   11 10
V   12 11
V   13 12
V   14 13
V   15 14
V   16 15
V   17 16
V   18 17
V   19 18
V   20 19
V   21 20
V   22 21
V   23 22
M  END
> <DSSTox_RID>
66214

> <DSSTox_CID>
27268

> <DSSTox_CID_Parent>
27269

> <DSSTox_Generic_SID>
47268

> <DSSTox_FileID>
848_TXCST2_v1a

> <STRUCTURE_Formula>
C14H14N5NaO3S

> <STRUCTURE_MolecularWeight>
355.3474

> <STRUCTURE_ChemicalType>
defined organic

> <STRUCTURE_TestedForm_DefinedOrganic>
salt Na

> <STRUCTURE_Shown>
tested chemical

> <TestSubstance_ChemicalName>
sodium 5-({[5-methoxy-3-(propan-2-yloxy)-1-benzothiophen-2-yl]carbonyl}amino)tetrazol-1-ide

> <TestSubstance_CASRN>
104795-68-8

> <TestSubstance_Description>
single chemical compound

> <ChemicalNote>
tautomers

> <STRUCTURE_ChemicalName_IUPAC>
sodium 5-({[5-methoxy-3-(propan-2-yloxy)-1-benzothiophen-2-yl]carbonyl}amino)tetrazol-1-ide

> <STRUCTURE_SMILES>
O=C(NC3=NN=N[N-]3)C1=C(OC(C)C)C(C=C2OC)=C(C=C2)S1.[Na+]

> <STRUCTURE_Parent_SMILES>
O=C(NC3=NN=NN3)C1=C(OC(C)C)C(C=C2OC)=C(C=C2)S1

> <STRUCTURE_InChIS>
InChI=1S/C14H15N5O3S.Na/c1-7(2)22-11-9-6-8(21-3)4-5-10(9)23-12(11)13(20)15-14-16-18-19-17-14;/h4-7H,1-3H3,(H2,15,16,17,18,19,20);/q;+1/p-1

> <STRUCTURE_InChIKey>
UCLODRCAPZIYOW-UHFFFAOYSA-M

> <Substance_modify_yyyymmdd>
20100525

> <Coord_Metals>
0

> <Index>
848

> <Canonical_Smiles>
COc1ccc2sc(C(=O)Nc3nn[nH]n3)c(OC(C)C)c2c1

> <Molecular_Weight>
333.3656

> <Frequency>
1

$$$$

  SciTegic          2D

 51 54  0  0  0  0            999 V2000
   -6.3836   -0.3040    0.0000 C   0  0
   -5.8462   -1.6991    0.0000 C   0  0
   -5.4508    0.8758    0.0000 C   0  0
   -7.8744   -0.3898    0.0000 O   0  0
   -4.3630   -1.9484    0.0000 C   0  0
   -7.0095   -2.6356    0.0000 N   0  0
   -3.9506    0.6331    0.0000 C   0  0
   -8.2652   -1.8102    0.0000 C   0  0
   -3.4133   -0.7621    0.0000 C   0  0
   -2.9972    1.7922    0.0000 S   0  0
   -9.6683   -2.3358    0.0000 O   0  0
   -3.5236    3.1977    0.0000 C   0  0
   -1.8135    1.5952    0.0000 O   0  0
   -2.5704    4.3569    0.0000 C   0  0
   -3.0967    5.7624    0.0000 N   0  0
   -2.1433    6.9203    0.0000 C   0  0
   -4.5763    6.0091    0.0000 C   0  0
   -2.6694    8.3250    0.0000 C   0  0
   -5.1024    7.4138    0.0000 C   0  0
   -4.1489    8.5718    0.0000 C   0  0
   -5.4554    9.2681    0.0000 C   0  0
   -5.5438   10.7663    0.0000 C   0  0
   -6.5741   11.8566    0.0000 C   0  0
   -4.0845   11.1134    0.0000 C   0  0
   -6.1450   13.2939    0.0000 C   0  0
   -3.6555   12.5507    0.0000 C   0  0
   -4.6857   13.6410    0.0000 C   0  0
   -4.3424   14.7908    0.0000 F   0  0
   -5.8131    1.8079    0.0000 H   0  0
   -4.0065   -2.8827    0.0000 H   0  0
   -2.4251   -0.9152    0.0000 H   0  0
   -9.8335   -3.3221    0.0000 H   0  0
   -4.1591    2.4256    0.0000 H   0  0
   -4.5100    3.3618    0.0000 H   0  0
   -1.9348    5.1290    0.0000 H   0  0
   -1.5839    4.1927    0.0000 H   0  0
   -1.5260    7.7071    0.0000 H   0  0
   -1.8146    5.9759    0.0000 H   0  0
   -5.5585    6.1968    0.0000 H   0  0
   -4.2037    5.0811    0.0000 H   0  0
   -1.6871    8.1373    0.0000 H   0  0
   -3.0420    9.2530    0.0000 H   0  0
   -5.4309    8.3583    0.0000 H   0  0
   -4.1124    7.2725    0.0000 H   0  0
   -3.4946    9.3280    0.0000 H   0  0
   -6.3493    9.7163    0.0000 H   0  0
   -6.2906    8.7182    0.0000 H   0  0
   -7.5469   11.6252    0.0000 H   0  0
   -3.3977   10.3866    0.0000 H   0  0
   -6.8318   14.0207    0.0000 H   0  0
   -2.6826   12.7821    0.0000 H   0  0
  1  2  2  0
  1  3  1  0
  1  4  1  0
  2  5  1  0
  2  6  1  0
  3  7  2  0
  4  8  1  0
  5  9  2  0
  6  8  2  0
  7 10  1  0
  7  9  1  0
  8 11  1  0
 10 12  1  0
 10 13  2  0
 12 14  1  0
 14 15  1  0
 15 16  1  0
 15 17  1  0
 16 18  1  0
 17 19  1  0
 18 20  1  0
 19 20  1  0
 20 21  1  0
 21 22  1  0
 22 23  1  0
 22 24  2  0
 23 25  2  0
 24 26  1  0
 25 27  1  0
 26 27  2  0
 27 28  1  0
  3 29  1  0
  5 30  1  0
  9 31  1  0
 11 32  1  0
 12 33  1  0
 12 34  1  0
 14 35  1  0
 14 36  1  0
 16 37  1  0
 16 38  1  0
 17 39  1  0
 17 40  1  0
 18 41  1  0
 18 42  1  0
 19 43  1  0
 19 44  1  0
 20 45  1  0
 21 46  1  0
 21 47  1  0
 23 48  1  0
 24 49  1  0
 25 50  1  0
 26 51  1  0
V    1 0
V    2 1
V    3 2
V    4 3
V    5 4
V    6 5
V    7 6
V    8 7
V    9 8
V   10 9
V   11 10
V   12 11
V   13 12
V   14 13
V   15 14
V   16 15
V   17 16
V   18 17
V   19 18
V   20 19
V   21 20
V   22 21
V   23 22
V   24 23
V   25 24
V   26 25
V   27 26
V   28 27
M  END
> <DSSTox_RID>
66215

> <DSSTox_CID>
27270

> <DSSTox_CID_Parent>
27270

> <DSSTox_Generic_SID>
47270

> <DSSTox_FileID>
849_TXCST2_v1a

> <STRUCTURE_Formula>
C21H23FN2O3S

> <STRUCTURE_MolecularWeight>
402.4823

> <STRUCTURE_ChemicalType>
defined organic

> <STRUCTURE_TestedForm_DefinedOrganic>
parent

> <STRUCTURE_Shown>
tested chemical

> <TestSubstance_ChemicalName>
Besonprodil

> <TestSubstance_CASRN>
253450-09-8

> <TestSubstance_Description>
single chemical compound

> <ChemicalNote>
tautomers

> <STRUCTURE_ChemicalName_IUPAC>
6-({2-[4-(4-fluorobenzyl)piperidin-1-yl]ethyl}sulfinyl)-1,3-benzoxazol-2(3H)-one

> <STRUCTURE_SMILES>
O=C2OC1=CC(S(CCN3CCC(CC4=CC=C(F)C=C4)CC3)=O)=CC=C1N2

> <STRUCTURE_Parent_SMILES>
O=C2OC1=CC(S(CCN3CCC(CC4=CC=C(F)C=C4)CC3)=O)=CC=C1N2

> <STRUCTURE_InChIS>
InChI=1S/C21H23FN2O3S/c22-17-3-1-15(2-4-17)13-16-7-9-24(10-8-16)11-12-28(26)18-5-6-19-20(14-18)27-21(25)23-19/h1-6,14,16H,7-13H2,(H,23,25)

> <STRUCTURE_InChIKey>
FCBQJNCAKZSIAH-UHFFFAOYSA-N

> <Substance_modify_yyyymmdd>
20100525

> <Coord_Metals>
0

> <Index>
849

> <Canonical_Smiles>
Oc1oc2cc(ccc2n1)S(=O)CCN3CCC(Cc4ccc(F)cc4)CC3

> <Molecular_Weight>
402.48232

> <Frequency>
1

$$$$

  SciTegic          2D

 61 65  0  0  0  0            999 V2000
  -13.6941    1.3906    0.0000 C   0  0
  -14.6927    2.5032    0.0000 C   0  0
  -14.2272    3.9499    0.0000 C   0  0
  -12.7524    4.2447    0.0000 C   0  0
  -11.7538    3.1321    0.0000 C   0  0
  -12.2057    1.6976    0.0000 C   0  0
  -11.9985    5.5338    0.0000 S   0  0
  -10.5313    5.2092    0.0000 N   0  0
  -10.4081    3.7513    0.0000 C   0  0
   -9.1085    3.0008    0.0000 N   0  0
   -9.1087    1.5007    0.0000 C   0  0
   -7.8097    0.7506    0.0000 C   0  0
   -6.5106    1.5004    0.0000 N   0  0
   -6.5104    3.0004    0.0000 C   0  0
   -7.8093    3.7506    0.0000 C   0  0
   -5.2109    0.7498    0.0000 C   0  0
   -3.9106    1.4992    0.0000 C   0  0
   -2.6111    0.7486    0.0000 C   0  0
   -1.2964    1.4973    0.0000 C   0  0
   -1.2964   -1.4973    0.0000 C   0  0
   -2.6111   -0.7486    0.0000 C   0  0
    0.0000   -0.7486    0.0000 C   0  0
    0.0000    0.7486    0.0000 C   0  0
    1.2964    1.4973    0.0000 C   0  0
    2.5929    0.7486    0.0000 C   0  0
    2.5929   -0.7486    0.0000 C   0  0
    1.2964   -1.4973    0.0000 N   0  0
   -1.2876   -2.9981    0.0000 C   0  0
    2.5964    2.2057    0.0000 C   0  0
   -0.0037    2.2060    0.0000 C   0  0
    3.6321   -1.3486    0.0000 O   0  0
  -14.0068    0.4408    0.0000 H   0  0
  -15.6707    2.2947    0.0000 H   0  0
  -14.8929    4.6962    0.0000 H   0  0
  -11.5355    0.9554    0.0000 H   0  0
   -9.0852    0.5010    0.0000 H   0  0
   -9.9626    2.0211    0.0000 H   0  0
   -7.7860    1.7503    0.0000 H   0  0
   -6.9323    0.2709    0.0000 H   0  0
   -6.5339    4.0001    0.0000 H   0  0
   -5.6564    2.4801    0.0000 H   0  0
   -7.8331    2.7509    0.0000 H   0  0
   -8.6868    4.2302    0.0000 H   0  0
   -5.2114   -0.2502    0.0000 H   0  0
   -6.0771    0.2501    0.0000 H   0  0
   -3.9102    2.4992    0.0000 H   0  0
   -3.0444    1.9990    0.0000 H   0  0
   -1.2934    2.4973    0.0000 H   0  0
   -3.4756   -1.2512    0.0000 H   0  0
    1.7389    0.2284    0.0000 H   0  0
    3.4469    0.2284    0.0000 H   0  0
    1.2964   -2.4973    0.0000 H   0  0
   -0.4189   -3.4935    0.0000 H   0  0
   -2.1508   -3.5030    0.0000 H   0  0
   -1.2821   -3.9981    0.0000 H   0  0
    3.4626    1.7061    0.0000 H   0  0
    3.4623    2.7059    0.0000 H   0  0
    2.5963    3.2057    0.0000 H   0  0
   -0.0045    3.2060    0.0000 H   0  0
    0.8620    2.7066    0.0000 H   0  0
   -0.8695    1.7057    0.0000 H   0  0
  1  6  1  0
  1  2  2  0
  2  3  1  0
  3  4  2  0
  4  5  1  0
  4  7  1  0
  5  9  1  0
  5  6  2  0
  7  8  1  0
  8  9  2  0
  9 10  1  0
 10 11  1  0
 10 15  1  0
 11 12  1  0
 12 13  1  0
 13 14  1  0
 13 16  1  0
 14 15  1  0
 16 17  1  0
 17 18  1  0
 18 19  2  0
 18 21  1  0
 19 23  1  0
 20 22  1  0
 20 21  2  0
 20 28  1  0
 22 23  2  0
 22 27  1  0
 23 24  1  0
 24 25  1  0
 24 29  1  0
 24 30  1  0
 25 26  1  0
 26 27  1  0
 26 31  2  0
  1 32  1  0
  2 33  1  0
  3 34  1  0
  6 35  1  0
 11 36  1  0
 11 37  1  0
 12 38  1  0
 12 39  1  0
 14 40  1  0
 14 41  1  0
 15 42  1  0
 15 43  1  0
 16 44  1  0
 16 45  1  0
 17 46  1  0
 17 47  1  0
 19 48  1  0
 21 49  1  0
 25 50  1  0
 25 51  1  0
 27 52  1  0
 28 53  1  0
 28 54  1  0
 28 55  1  0
 29 56  1  0
 29 57  1  0
 29 58  1  0
 30 59  1  0
 30 60  1  0
 30 61  1  0
V    1 0
V    2 1
V    3 2
V    4 3
V    5 4
V    6 5
V    7 6
V    8 7
V    9 8
V   10 9
V   11 10
V   12 11
V   13 12
V   14 13
V   15 14
V   16 15
V   17 16
V   18 17
V   19 18
V   20 19
V   21 20
V   22 21
V   23 22
V   24 23
V   25 24
V   26 25
V   27 26
V   28 27
V   29 28
V   30 29
V   31 30
M  END
> <DSSTox_RID>
66216

> <DSSTox_CID>
27271

> <DSSTox_CID_Parent>
27392

> <DSSTox_Generic_SID>
47271

> <DSSTox_FileID>
850_TXCST2_v1a

> <STRUCTURE_Formula>
C26H34N4O4S2

> <STRUCTURE_MolecularWeight>
530.7026

> <STRUCTURE_ChemicalType>
defined organic

> <STRUCTURE_TestedForm_DefinedOrganic>
complex methylsulfonate

> <STRUCTURE_Shown>
tested chemical

> <TestSubstance_ChemicalName>
6-{2-[4-(1,2-benzothiazol-3-yl)piperazin-1-yl]ethyl}-4,4,8-trimethyl-3,4-dihydroquinolin-2(1H)-one methanesulfonate

> <TestSubstance_CASRN>
676116-04-4

> <TestSubstance_Description>
single chemical compound

> <STRUCTURE_ChemicalName_IUPAC>
6-{2-[4-(1,2-benzothiazol-3-yl)piperazin-1-yl]ethyl}-4,4,8-trimethyl-3,4-dihydroquinolin-2(1H)-one methanesulfonate

> <STRUCTURE_SMILES>
O=C5CC(C)(C)C1=C(N5)C(C)=CC(CCN(CC4)CCN4C3=NSC2=CC=CC=C23)=C1.O=S(O)(C)=O

> <STRUCTURE_Parent_SMILES>
O=C5CC(C)(C)C1=C(N5)C(C)=CC(CCN(CC4)CCN4C3=NSC2=CC=CC=C23)=C1

> <STRUCTURE_InChIS>
InChI=1S/C25H30N4OS.CH4O3S/c1-17-14-18(15-20-23(17)26-22(30)16-25(20,2)3)8-9-28-10-12-29(13-11-28)24-19-6-4-5-7-21(19)31-27-24;1-5(2,3)4/h4-7,14-15H,8-13,16H2,1-3H3,(H,26,30);1H3,(H,2,3,4)

> <STRUCTURE_InChIKey>
SRGGJELKHPOIIN-UHFFFAOYSA-N

> <Substance_modify_yyyymmdd>
20100525

> <Coord_Metals>
0

> <Index>
850

> <Canonical_Smiles>
Cc1cc(CCN2CCN(CC2)c3nsc4ccccc34)cc5c1NC(=O)CC5(C)C

> <Molecular_Weight>
434.5969

> <Frequency>
1

$$$$

  SciTegic          2D

 51 54  0  0  0  0            999 V2000
    1.2990   -0.7500    0.0000 C   0  0
    1.7713   -2.1535    0.0000 C   0  0
    1.2990    0.7500    0.0000 C   0  0
    0.0000   -1.5000    0.0000 C   0  0
    2.7502   -0.4571    0.0000 C   0  0
    3.2417   -2.4501    0.0000 C   0  0
    0.7792   -3.2786    0.0000 C   0  0
    0.0000    1.5000    0.0000 C   0  0
   -1.2990   -0.7500    0.0000 C   0  0
    3.5215   -1.3764    0.0000 O   0  0
    3.2641    0.9530    0.0000 N   0  0
    3.7200   -3.8718    0.0000 C   0  0
    1.2576   -4.7003    0.0000 C   0  0
   -1.2990    0.7500    0.0000 O   0  0
    5.1906   -4.1715    0.0000 S   0  0
    2.7279   -4.9969    0.0000 C   0  0
    5.6672   -5.5947    0.0000 C   0  0
    7.1365   -5.8964    0.0000 C   0  0
    4.6712   -6.7164    0.0000 C   0  0
    7.6099   -7.3198    0.0000 C   0  0
    5.1447   -8.1398    0.0000 C   0  0
    6.6140   -8.4414    0.0000 C   0  0
    7.0877   -9.8655    0.0000 N   0  0
    8.5099  -10.3006    0.0000 C   0  0
    6.2056  -11.0630    0.0000 C   0  0
    8.5179  -11.8006    0.0000 N   0  0
    9.7103   -9.4043    0.0000 C   0  0
    7.0938  -12.2718    0.0000 C   0  0
    2.1530    0.2297    0.0000 H   0  0
    1.2755    1.7497    0.0000 H   0  0
   -0.8776   -1.9794    0.0000 H   0  0
    0.8775   -1.9795    0.0000 H   0  0
    3.9030   -1.7000    0.0000 H   0  0
   -0.2010   -3.0809    0.0000 H   0  0
   -0.0236    0.5003    0.0000 H   0  0
   -0.8775    1.9795    0.0000 H   0  0
   -0.4451   -0.2297    0.0000 H   0  0
   -2.1531   -0.2298    0.0000 H   0  0
    4.2489    1.1269    0.0000 H   0  0
    2.6214    1.7191    0.0000 H   0  0
    0.5962   -5.4503    0.0000 H   0  0
    3.0468   -5.9446    0.0000 H   0  0
    7.8005   -5.1487    0.0000 H   0  0
    3.6917   -6.5153    0.0000 H   0  0
    8.5895   -7.5209    0.0000 H   0  0
    4.4807   -8.8875    0.0000 H   0  0
    5.2056  -11.0624    0.0000 H   0  0
    9.5935   -8.4112    0.0000 H   0  0
   10.6290   -9.7994    0.0000 H   0  0
   10.5119   -8.8064    0.0000 H   0  0
    6.7899  -13.2245    0.0000 H   0  0
  1  2  1  0
  1  3  1  0
  1  4  1  0
  1  5  1  0
  2  6  2  0
  2  7  1  0
  3  8  1  0
  4  9  1  0
  5 10  2  0
  5 11  1  0
  6 12  1  0
  7 13  2  0
  8 14  1  0
  9 14  1  0
 12 15  1  0
 12 16  2  0
 13 16  1  0
 15 17  1  0
 17 18  2  0
 17 19  1  0
 18 20  1  0
 19 21  2  0
 20 22  2  0
 21 22  1  0
 22 23  1  0
 23 24  1  0
 23 25  1  0
 24 26  2  0
 24 27  1  0
 25 28  2  0
 26 28  1  0
  3 29  1  0
  3 30  1  0
  4 31  1  0
  4 32  1  0
  6 33  1  0
  7 34  1  0
  8 35  1  0
  8 36  1  0
  9 37  1  0
  9 38  1  0
 11 39  1  0
 11 40  1  0
 13 41  1  0
 16 42  1  0
 18 43  1  0
 19 44  1  0
 20 45  1  0
 21 46  1  0
 25 47  1  0
 27 48  1  0
 27 49  1  0
 27 50  1  0
 28 51  1  0
V    1 0
V    2 1
V    3 2
V    4 3
V    5 4
V    6 5
V    7 6
V    8 7
V    9 8
V   10 9
V   11 10
V   12 11
V   13 12
V   14 13
V   15 14
V   16 15
V   17 16
V   18 17
V   19 18
V   20 19
V   21 20
V   22 21
V   23 22
V   24 23
V   25 24
V   26 25
V   27 26
V   28 27
M  END
> <DSSTox_RID>
66218

> <DSSTox_CID>
27272

> <DSSTox_CID_Parent>
27273

> <DSSTox_Generic_SID>
47272

> <DSSTox_FileID>
851_TXCST2_v1a

> <STRUCTURE_Formula>
C23H27N3O5S2

> <STRUCTURE_MolecularWeight>
489.6076

> <STRUCTURE_ChemicalType>
defined organic

> <STRUCTURE_TestedForm_DefinedOrganic>
complex methylsulfonic acid

> <STRUCTURE_Shown>
tested chemical

> <TestSubstance_ChemicalName>
4-(3-{[4-(2-methyl-1H-imidazol-1-yl)phenyl]sulfanyl}phenyl)tetrahydro-2H-pyran-4-carboxamide methanesulfonate

> <TestSubstance_CASRN>
249296-43-3

> <TestSubstance_Description>
single chemical compound

> <STRUCTURE_ChemicalName_IUPAC>
4-(3-{[4-(2-methyl-1H-imidazol-1-yl)phenyl]sulfanyl}phenyl)tetrahydro-2H-pyran-4-carboxamide methanesulfonate

> <STRUCTURE_SMILES>
NC(C2(CCOCC2)C1=CC(SC3=CC=C(N4C(C)=NC=C4)C=C3)=CC=C1)=O.O=S(O)(C)=O

> <STRUCTURE_Parent_SMILES>
NC(C2(CCOCC2)C1=CC(SC3=CC=C(N4C(C)=NC=C4)C=C3)=CC=C1)=O

> <STRUCTURE_InChIS>
InChI=1S/C22H23N3O2S.CH4O3S/c1-16-24-11-12-25(16)18-5-7-19(8-6-18)28-20-4-2-3-17(15-20)22(21(23)26)9-13-27-14-10-22;1-5(2,3)4/h2-8,11-12,15H,9-10,13-14H2,1H3,(H2,23,26);1H3,(H,2,3,4)

> <STRUCTURE_InChIKey>
WRQQAESBKZTAFL-UHFFFAOYSA-N

> <Substance_modify_yyyymmdd>
20100525

> <Coord_Metals>
0

> <Index>
851

> <Canonical_Smiles>
Cc1nccn1c2ccc(Sc3cccc(c3)C4(CCOCC4)C(=O)N)cc2

> <Molecular_Weight>
393.50192

> <Frequency>
1

$$$$

  SciTegic          2D

 46 47  0  0  0  0            999 V2000
    9.0990   -0.7525    0.0000 C   0  0
   10.4499   -1.3744    0.0000 N   0  0
    9.2377    0.7283    0.0000 C   0  0
    7.7988   -1.5020    0.0000 C   0  0
   11.4543   -0.2603    0.0000 C   0  0
   10.7051    1.0392    0.0000 S   0  0
    6.4990   -0.7516    0.0000 C   0  0
    7.7983   -3.0028    0.0000 O   0  0
   12.9442   -0.4179    0.0000 C   0  0
    5.1988   -1.5012    0.0000 N   0  0
   13.4323   -1.5141    0.0000 F   0  0
   13.6499    0.5527    0.0000 F   0  0
   14.1376   -0.5435    0.0000 F   0  0
    3.8990   -0.7508    0.0000 C   0  0
    2.5988   -1.5004    0.0000 C   0  0
    3.9014   -2.2808    0.0000 C   0  0
    1.2990   -0.7500    0.0000 C   0  0
    1.2990    0.7500    0.0000 C   0  0
    0.0000   -1.5000    0.0000 C   0  0
    0.0000    1.5000    0.0000 C   0  0
   -1.2990   -0.7500    0.0000 C   0  0
   -1.2990    0.7500    0.0000 C   0  0
   -2.6003    1.4977    0.0000 O   0  0
   -3.8990    0.7455    0.0000 C   0  0
   -5.2003    1.4932    0.0000 C   0  0
   -6.4990    0.7409    0.0000 O   0  0
   -5.2024    2.6932    0.0000 O   0  0
    8.4910    1.3934    0.0000 H   0  0
    8.6645   -2.0025    0.0000 H   0  0
    5.6332   -0.2512    0.0000 H   0  0
    6.4993    0.2484    0.0000 H   0  0
    6.9324   -3.5031    0.0000 H   0  0
    5.1985   -2.5012    0.0000 H   0  0
    3.8993    0.2492    0.0000 H   0  0
    1.7327   -2.0003    0.0000 H   0  0
    2.5985   -2.5004    0.0000 H   0  0
    4.7679   -2.7799    0.0000 H   0  0
    3.0360   -2.7819    0.0000 H   0  0
    3.9025   -3.2808    0.0000 H   0  0
    2.1651    1.2500    0.0000 H   0  0
    0.0000   -2.5000    0.0000 H   0  0
    0.0000    2.5000    0.0000 H   0  0
   -2.1651   -1.2500    0.0000 H   0  0
   -3.0322    0.2468    0.0000 H   0  0
   -3.8973   -0.2545    0.0000 H   0  0
   -7.3661    1.2391    0.0000 H   0  0
  1  2  1  0
  1  3  2  0
  1  4  1  0
  2  5  2  0
  3  6  1  0
  4  7  1  0
  4  8  1  0
  5  9  1  0
  5  6  1  0
  7 10  1  0
  9 11  1  0
  9 12  1  0
  9 13  1  0
 10 14  1  0
 14 15  1  0
 14 16  1  0
 15 17  1  0
 17 18  2  0
 17 19  1  0
 18 20  1  0
 19 21  2  0
 20 22  2  0
 21 22  1  0
 22 23  1  0
 23 24  1  0
 24 25  1  0
 25 26  1  0
 25 27  2  0
  3 28  1  0
  4 29  1  0
  7 30  1  0
  7 31  1  0
  8 32  1  0
 10 33  1  0
 14 34  1  0
 15 35  1  0
 15 36  1  0
 16 37  1  0
 16 38  1  0
 16 39  1  0
 18 40  1  0
 19 41  1  0
 20 42  1  0
 21 43  1  0
 24 44  1  0
 24 45  1  0
 26 46  1  0
V    1 0
V    2 1
V    3 2
V    4 3
V    5 4
V    6 5
V    7 6
V    8 7
V    9 8
V   10 9
V   11 10
V   12 11
V   13 12
V   14 13
V   15 14
V   16 15
V   17 16
V   18 17
V   19 18
V   20 19
V   21 20
V   22 21
V   23 22
V   24 23
V   25 24
V   26 25
V   27 26
M  END
> <DSSTox_RID>
66220

> <DSSTox_CID>
27274

> <DSSTox_CID_Parent>
27274

> <DSSTox_Generic_SID>
47274

> <DSSTox_FileID>
852_TXCST2_v1a

> <STRUCTURE_Formula>
C17H19F3N2O4S

> <STRUCTURE_MolecularWeight>
404.404

> <STRUCTURE_ChemicalType>
defined organic

> <STRUCTURE_TestedForm_DefinedOrganic>
parent

> <STRUCTURE_Shown>
tested chemical

> <TestSubstance_ChemicalName>
{4-[2-({2-hydroxy-2-[2-(trifluoromethyl)-1,3-thiazol-4-yl]ethyl}amino)propyl]phenoxy}acetic acid

> <TestSubstance_CASRN>
113734-18-2

> <TestSubstance_Description>
single chemical compound

> <STRUCTURE_ChemicalName_IUPAC>
{4-[2-({2-hydroxy-2-[2-(trifluoromethyl)-1,3-thiazol-4-yl]ethyl}amino)propyl]phenoxy}acetic acid

> <STRUCTURE_SMILES>
OC(CNC(C)CC2=CC=C(OCC(O)=O)C=C2)C1=CSC(C(F)(F)F)=N1

> <STRUCTURE_Parent_SMILES>
OC(CNC(C)CC2=CC=C(OCC(O)=O)C=C2)C1=CSC(C(F)(F)F)=N1

> <STRUCTURE_InChIS>
InChI=1S/C17H19F3N2O4S/c1-10(6-11-2-4-12(5-3-11)26-8-15(24)25)21-7-14(23)13-9-27-16(22-13)17(18,19)20/h2-5,9-10,14,21,23H,6-8H2,1H3,(H,24,25)

> <STRUCTURE_InChIKey>
YVIXXPCJZAUQHJ-UHFFFAOYSA-N

> <Substance_modify_yyyymmdd>
20100525

> <Coord_Metals>
0

> <Index>
852

> <Canonical_Smiles>
CC(Cc1ccc(OCC(=O)O)cc1)NCC(O)c2csc(n2)C(F)(F)F

> <Molecular_Weight>
404.40396

> <Frequency>
1

$$$$

  SciTegic          2D

 41 43  0  0  0  0            999 V2000
    0.2917    0.7475    0.0000 C   0  0
    1.7138    1.2033    0.0000 C   0  0
    0.2917   -0.7475    0.0000 C   0  0
   -1.0028    1.5132    0.0000 C   0  0
    2.1812    2.6271    0.0000 C   0  0
    2.5889    0.0182    0.0000 C   0  0
    1.7138   -1.2033    0.0000 N   0  0
   -1.0028   -1.5132    0.0000 C   0  0
   -2.3155    0.7475    0.0000 C   0  0
   -0.9991    2.7132    0.0000 O   0  0
    3.6500    2.9355    0.0000 N   0  0
    1.3808    3.5211    0.0000 O   0  0
   -2.3155   -0.7475    0.0000 C   0  0
    4.1182    4.3614    0.0000 C   0  0
    5.5858    4.6718    0.0000 C   0  0
    3.1158    5.4773    0.0000 C   0  0
    6.0509    6.0979    0.0000 C   0  0
    3.5808    6.9034    0.0000 C   0  0
    5.0484    7.2137    0.0000 C   0  0
    5.5137    8.6406    0.0000 C   0  0
    6.9819    8.9520    0.0000 N   0  0
    7.4472   10.3788    0.0000 C   0  0
    3.5889    0.0254    0.0000 H   0  0
    2.0279   -2.1527    0.0000 H   0  0
   -1.8786   -1.9959    0.0000 H   0  0
   -0.1241   -1.9907    0.0000 H   0  0
   -3.1682    0.2251    0.0000 H   0  0
   -2.2940    1.7473    0.0000 H   0  0
    4.3171    2.1905    0.0000 H   0  0
   -1.4367   -0.2702    0.0000 H   0  0
   -2.2940   -1.7473    0.0000 H   0  0
    6.2542    3.9280    0.0000 H   0  0
    2.1374    5.2705    0.0000 H   0  0
    7.0292    6.3048    0.0000 H   0  0
    2.9125    7.6473    0.0000 H   0  0
    4.8451    9.3842    0.0000 H   0  0
    5.8233    9.5914    0.0000 H   0  0
    7.6504    8.2083    0.0000 H   0  0
    8.4254   10.5863    0.0000 H   0  0
    7.7568   11.3297    0.0000 H   0  0
    6.7786   11.1225    0.0000 H   0  0
  1  2  1  0
  1  3  2  0
  1  4  1  0
  2  5  1  0
  2  6  2  0
  3  7  1  0
  3  8  1  0
  4  9  1  0
  4 10  2  0
  5 11  1  0
  5 12  2  0
  6  7  1  0
  8 13  1  0
  9 13  1  0
 11 14  1  0
 14 15  2  0
 14 16  1  0
 15 17  1  0
 16 18  2  0
 17 19  2  0
 18 19  1  0
 19 20  1  0
 20 21  1  0
 21 22  1  0
  6 23  1  0
  7 24  1  0
  8 25  1  0
  8 26  1  0
  9 27  1  0
  9 28  1  0
 11 29  1  0
 13 30  1  0
 13 31  1  0
 15 32  1  0
 16 33  1  0
 17 34  1  0
 18 35  1  0
 20 36  1  0
 20 37  1  0
 21 38  1  0
 22 39  1  0
 22 40  1  0
 22 41  1  0
V    1 0
V    2 1
V    3 2
V    4 3
V    5 4
V    6 5
V    7 6
V    8 7
V    9 8
V   10 9
V   11 10
V   12 11
V   13 12
V   14 13
V   15 14
V   16 15
V   17 16
V   18 17
V   19 18
V   20 19
V   21 20
V   22 21
M  END
> <DSSTox_RID>
66221

> <DSSTox_CID>
27276

> <DSSTox_CID_Parent>
27276

> <DSSTox_Generic_SID>
47276

> <DSSTox_FileID>
853_TXCST2_v1a

> <STRUCTURE_Formula>
C17H19N3O2

> <STRUCTURE_MolecularWeight>
297.3517

> <STRUCTURE_ChemicalType>
defined organic

> <STRUCTURE_TestedForm_DefinedOrganic>
parent

> <STRUCTURE_Shown>
tested chemical

> <TestSubstance_ChemicalName>
N-{4-[(methylamino)methyl]phenyl}-4-oxo-4,5,6,7-tetrahydro-1H-indole-3-carboxamide

> <TestSubstance_CASRN>
194098-25-4

> <TestSubstance_Description>
single chemical compound

> <STRUCTURE_ChemicalName_IUPAC>
N-{4-[(methylamino)methyl]phenyl}-4-oxo-4,5,6,7-tetrahydro-1H-indole-3-carboxamide

> <STRUCTURE_SMILES>
O=C2C1=C(CCC2)NC=C1C(NC3=CC=C(CNC)C=C3)=O

> <STRUCTURE_Parent_SMILES>
O=C2C1=C(CCC2)NC=C1C(NC3=CC=C(CNC)C=C3)=O

> <STRUCTURE_InChIS>
InChI=1S/C17H19N3O2/c1-18-9-11-5-7-12(8-6-11)20-17(22)13-10-19-14-3-2-4-15(21)16(13)14/h5-8,10,18-19H,2-4,9H2,1H3,(H,20,22)

> <STRUCTURE_InChIKey>
XFJIYNUISLDNLP-UHFFFAOYSA-N

> <Substance_modify_yyyymmdd>
20100525

> <Coord_Metals>
0

> <Index>
853

> <Canonical_Smiles>
CNCc1ccc(NC(=O)c2c[nH]c3CCCC(=O)c23)cc1

> <Molecular_Weight>
297.35166

> <Frequency>
1

$$$$

  SciTegic          2D

 52 55  0  0  0  0            999 V2000
    1.2990   -0.7500    0.0000 C   0  0
    1.2990    0.7500    0.0000 C   0  0
    2.5987   -1.5004    0.0000 N   0  0
    0.0000   -1.5000    0.0000 C   0  0
    2.5972    1.5031    0.0000 C   0  0
    0.0000    1.5000    0.0000 C   0  0
    3.8991   -0.7525    0.0000 C   0  0
    2.5965   -3.0004    0.0000 C   0  0
   -1.2990   -0.7500    0.0000 C   0  0
    2.5951    3.0039    0.0000 C   0  0
   -1.2990    0.7500    0.0000 C   0  0
    5.1969   -1.5045    0.0000 C   0  0
    3.8943   -3.7525    0.0000 C   0  0
    3.8915    3.7585    0.0000 C   0  0
    1.2934    3.7495    0.0000 S   0  0
    5.1945   -3.0045    0.0000 N   0  0
    3.8863    5.2585    0.0000 N   0  0
    4.9328    3.1622    0.0000 O   0  0
    1.2883    5.2495    0.0000 C   0  0
    6.4931   -3.7570    0.0000 C   0  0
    5.1834    6.0134    0.0000 C   0  0
    2.5847    6.0040    0.0000 C   0  0
    6.4863    5.2700    0.0000 C   0  0
    5.1759    7.5134    0.0000 C   0  0
    7.7815    6.0266    0.0000 C   0  0
    6.4711    8.2700    0.0000 C   0  0
    7.7740    7.5265    0.0000 C   0  0
    8.8238    5.4318    0.0000 Cl  0  0
    8.8101    8.1318    0.0000 Cl  0  0
    0.0000   -2.5000    0.0000 H   0  0
    3.4641    1.0046    0.0000 H   0  0
    0.0000    2.5000    0.0000 H   0  0
    4.7774   -0.2745    0.0000 H   0  0
    3.0223   -0.2715    0.0000 H   0  0
    2.6185   -4.0002    0.0000 H   0  0
    1.7432   -2.4789    0.0000 H   0  0
   -2.1651   -1.2500    0.0000 H   0  0
   -2.1651    1.2500    0.0000 H   0  0
    4.3421   -2.0235    0.0000 H   0  0
    6.0501   -2.0261    0.0000 H   0  0
    3.9195   -2.7528    0.0000 H   0  0
    4.7711   -4.2334    0.0000 H   0  0
    1.3084    6.2493    0.0000 H   0  0
    0.4360    4.7264    0.0000 H   0  0
    7.3602   -3.2589    0.0000 H   0  0
    6.4912   -4.7570    0.0000 H   0  0
    7.3581   -4.2588    0.0000 H   0  0
    1.7054    6.4804    0.0000 H   0  0
    3.4605    6.4866    0.0000 H   0  0
    6.4914    4.2700    0.0000 H   0  0
    4.3074    8.0091    0.0000 H   0  0
    6.4661    9.2700    0.0000 H   0  0
  1  2  1  0
  1  3  1  0
  1  4  2  0
  5  2  1  0
  2  6  2  0
  3  7  1  0
  3  8  1  0
  4  9  1  0
  5 10  2  0
  6 11  1  0
  7 12  1  0
  8 13  1  0
  9 11  2  0
 10 14  1  0
 10 15  1  0
 12 16  1  0
 13 16  1  0
 14 17  1  0
 14 18  2  0
 15 19  1  0
 16 20  1  0
 17 21  1  0
 17 22  1  0
 19 22  1  0
 21 23  1  0
 21 24  2  0
 23 25  2  0
 24 26  1  0
 25 27  1  0
 25 28  1  0
 26 27  2  0
 27 29  1  0
  4 30  1  0
  5 31  1  0
  6 32  1  0
  7 33  1  0
  7 34  1  0
  8 35  1  0
  8 36  1  0
  9 37  1  0
 11 38  1  0
 12 39  1  0
 12 40  1  0
 13 41  1  0
 13 42  1  0
 19 43  1  0
 19 44  1  0
 20 45  1  0
 20 46  1  0
 20 47  1  0
 22 48  1  0
 22 49  1  0
 23 50  1  0
 24 51  1  0
 26 52  1  0
V    1 0
V    2 1
V    3 2
V    4 3
V    5 4
V    6 5
V    7 6
V    8 7
V    9 8
V   10 9
V   11 10
V   12 11
V   13 12
V   14 13
V   15 14
V   16 15
V   17 16
V   18 17
V   19 18
V   20 19
V   21 20
V   22 21
V   23 22
V   24 23
V   25 24
V   26 25
V   27 26
V   28 27
V   29 28
M  END
> <DSSTox_RID>
66222

> <DSSTox_CID>
27277

> <DSSTox_CID_Parent>
27277

> <DSSTox_Generic_SID>
47277

> <DSSTox_FileID>
854_TXCST2_v1a

> <STRUCTURE_Formula>
C22H23Cl2N3OS

> <STRUCTURE_MolecularWeight>
448.4085

> <STRUCTURE_ChemicalType>
defined organic

> <STRUCTURE_TestedForm_DefinedOrganic>
parent

> <STRUCTURE_Shown>
tested chemical

> <TestSubstance_ChemicalName>
Elzasonan

> <TestSubstance_CASRN>
361343-19-3

> <TestSubstance_Description>
single chemical compound

> <ChemicalNote>
stereochem

> <STRUCTURE_ChemicalName_IUPAC>
(2Z)-4-(3,4-dichlorophenyl)-2-[2-(4-methylpiperazin-1-yl)benzylidene]thiomorpholin-3-one

> <STRUCTURE_SMILES>
O=C3/C(SCCN3C4=CC=C(Cl)C(Cl)=C4)=C/C1=CC=CC=C1N2CCN(C)CC2

> <STRUCTURE_Parent_SMILES>
O=C3/C(SCCN3C4=CC=C(Cl)C(Cl)=C4)=C/C1=CC=CC=C1N2CCN(C)CC2

> <STRUCTURE_InChIS>
InChI=1S/C22H23Cl2N3OS/c1-25-8-10-26(11-9-25)20-5-3-2-4-16(20)14-21-22(28)27(12-13-29-21)17-6-7-18(23)19(24)15-17/h2-7,14-15H,8-13H2,1H3/b21-14-

> <STRUCTURE_InChIKey>
LHYMPSWMHXUWSK-STZFKDTASA-N

> <Substance_modify_yyyymmdd>
20100525

> <Coord_Metals>
0

> <Index>
854

> <Canonical_Smiles>
CN1CCN(CC1)c2ccccc2C=C3SCCN(C3=O)c4ccc(Cl)c(Cl)c4

> <Molecular_Weight>
448.40852

> <Frequency>
1

$$$$

  SciTegic          2D

 49 51  0  0  0  0            999 V2000
    1.2990   -0.7500    0.0000 C   0  0
    1.2990    0.7500    0.0000 C   0  0
    2.5973   -1.5031    0.0000 C   0  0
    0.0000   -1.5000    0.0000 C   0  0
    2.5972    1.5031    0.0000 O   0  0
    0.0000    1.5000    0.0000 N   0  0
    2.5951   -3.0039    0.0000 N   0  0
    3.6375   -0.9049    0.0000 O   0  0
   -1.2990   -0.7500    0.0000 C   0  0
    2.5951    3.0039    0.0000 C   0  0
   -1.2990    0.7500    0.0000 C   0  0
    3.8933   -3.7570    0.0000 C   0  0
    3.8915    3.7585    0.0000 C   0  0
    1.2934    3.7495    0.0000 C   0  0
    3.8912   -5.2578    0.0000 C   0  0
    3.8863    5.2585    0.0000 C   0  0
    1.2883    5.2495    0.0000 C   0  0
    5.1892   -6.0097    0.0000 C   0  0
    2.5911   -6.0060    0.0000 C   0  0
    2.5847    6.0040    0.0000 C   0  0
    5.1870   -7.5097    0.0000 C   0  0
    2.5890   -7.5060    0.0000 C   0  0
    2.5805    7.2040    0.0000 F   0  0
    3.8869   -8.2578    0.0000 C   0  0
    3.3716   -9.6674    0.0000 C   0  0
    4.3339  -10.8191    0.0000 C   0  0
    1.8932   -9.9254    0.0000 C   0  0
    4.8783   -9.4015    0.0000 O   0  0
    0.0000   -2.5000    0.0000 H   0  0
    1.7282   -3.5024    0.0000 H   0  0
   -2.1651   -1.2500    0.0000 H   0  0
   -2.1651    1.2500    0.0000 H   0  0
    4.7602   -3.2585    0.0000 H   0  0
    3.8952   -2.7570    0.0000 H   0  0
    4.7593    3.2615    0.0000 H   0  0
    0.4291    3.2465    0.0000 H   0  0
    4.7506    5.7615    0.0000 H   0  0
    0.4205    5.7465    0.0000 H   0  0
    6.0559   -5.5109    0.0000 H   0  0
    1.7258   -5.5047    0.0000 H   0  0
    6.0523   -8.0109    0.0000 H   0  0
    1.7222   -8.0047    0.0000 H   0  0
    3.9906  -11.7583    0.0000 H   0  0
    5.3191  -10.6471    0.0000 H   0  0
    4.9755  -11.5861    0.0000 H   0  0
    1.5490  -10.8643    0.0000 H   0  0
    1.2520   -9.1581    0.0000 H   0  0
    0.9080  -10.0969    0.0000 H   0  0
    5.2207   -8.4620    0.0000 H   0  0
  1  2  1  0
  1  3  1  0
  1  4  2  0
  2  5  1  0
  2  6  2  0
  3  7  1  0
  3  8  2  0
  4  9  1  0
  5 10  1  0
  6 11  1  0
  7 12  1  0
  9 11  2  0
 10 13  1  0
 10 14  2  0
 12 15  1  0
 13 16  2  0
 14 17  1  0
 15 18  1  0
 15 19  2  0
 16 20  1  0
 17 20  2  0
 18 21  2  0
 19 22  1  0
 20 23  1  0
 21 24  1  0
 22 24  2  0
 24 25  1  0
 25 26  1  0
 25 27  1  0
 25 28  1  0
  4 29  1  0
  7 30  1  0
  9 31  1  0
 11 32  1  0
 12 33  1  0
 12 34  1  0
 13 35  1  0
 14 36  1  0
 16 37  1  0
 17 38  1  0
 18 39  1  0
 19 40  1  0
 21 41  1  0
 22 42  1  0
 26 43  1  0
 26 44  1  0
 26 45  1  0
 27 46  1  0
 27 47  1  0
 27 48  1  0
 28 49  1  0
V    1 0
V    2 1
V    3 2
V    4 3
V    5 4
V    6 5
V    7 6
V    8 7
V    9 8
V   10 9
V   11 10
V   12 11
V   13 12
V   14 13
V   15 14
V   16 15
V   17 16
V   18 17
V   19 18
V   20 19
V   21 20
V   22 21
V   23 22
V   24 23
V   25 24
V   26 25
V   27 26
V   28 27
M  END
> <DSSTox_RID>
66223

> <DSSTox_CID>
27278

> <DSSTox_CID_Parent>
27278

> <DSSTox_Generic_SID>
47278

> <DSSTox_FileID>
855_TXCST2_v1a

> <STRUCTURE_Formula>
C22H21FN2O3

> <STRUCTURE_MolecularWeight>
380.4121

> <STRUCTURE_ChemicalType>
defined organic

> <STRUCTURE_TestedForm_DefinedOrganic>
parent

> <STRUCTURE_Shown>
tested chemical

> <TestSubstance_ChemicalName>
2-(4-fluorophenoxy)-N-[4-(2-hydroxypropan-2-yl)benzyl]pyridine-3-carboxamide

> <TestSubstance_CASRN>
214535-77-0

> <TestSubstance_Description>
single chemical compound

> <STRUCTURE_ChemicalName_IUPAC>
2-(4-fluorophenoxy)-N-[4-(2-hydroxypropan-2-yl)benzyl]pyridine-3-carboxamide

> <STRUCTURE_SMILES>
O=C(NCC3=CC=C(C(O)(C)C)C=C3)C1=CC=CN=C1OC2=CC=C(F)C=C2

> <STRUCTURE_Parent_SMILES>
O=C(NCC3=CC=C(C(O)(C)C)C=C3)C1=CC=CN=C1OC2=CC=C(F)C=C2

> <STRUCTURE_InChIS>
InChI=1S/C22H21FN2O3/c1-22(2,27)16-7-5-15(6-8-16)14-25-20(26)19-4-3-13-24-21(19)28-18-11-9-17(23)10-12-18/h3-13,27H,14H2,1-2H3,(H,25,26)

> <STRUCTURE_InChIKey>
UHBUSMAHWHZQKS-UHFFFAOYSA-N

> <Substance_modify_yyyymmdd>
20100525

> <Coord_Metals>
0

> <Index>
855

> <Canonical_Smiles>
CC(C)(O)c1ccc(CNC(=O)c2cccnc2Oc3ccc(F)cc3)cc1

> <Molecular_Weight>
380.41214

> <Frequency>
1

$$$$

  SciTegic          2D

 68 70  0  0  0  0            999 V2000
    0.0000    0.7486    0.0000 C   0  0
    0.0000   -0.7486    0.0000 C   0  0
   -1.2964    1.4973    0.0000 C   0  0
    1.2964    1.4973    0.0000 C   0  0
   -1.2964   -1.4973    0.0000 N   0  0
    1.2964   -1.4973    0.0000 C   0  0
    0.0056    2.2014    0.0000 N   0  0
   -2.6111    0.7486    0.0000 C   0  0
    2.5929    0.7486    0.0000 C   0  0
   -2.6111   -0.7486    0.0000 C   0  0
   -0.7719   -2.9035    0.0000 C   0  0
    2.5929   -0.7486    0.0000 C   0  0
    0.0854    3.7001    0.0000 C   0  0
    1.2656    1.3859    0.0000 C   0  0
    4.0709    1.0093    0.0000 C   0  0
   -2.5706   -2.2287    0.0000 C   0  0
    0.7080   -3.1532    0.0000 O   0  0
   -1.4088   -3.6745    0.0000 O   0  0
   -1.1721    4.5193    0.0000 C   0  0
    2.6022    2.0684    0.0000 C   0  0
    1.2043    0.1874    0.0000 O   0  0
    4.4820    2.1366    0.0000 F   0  0
    4.8420    0.0898    0.0000 F   0  0
    5.0558    1.1824    0.0000 F   0  0
   -3.8295   -3.0459    0.0000 C   0  0
    1.2326   -4.5594    0.0000 C   0  0
   -1.0913    6.0171    0.0000 C   0  0
   -2.5096    3.8403    0.0000 C   0  0
    2.7125   -4.8091    0.0000 C   0  0
    2.2048   -3.3780    0.0000 C   0  0
   -2.3482    6.8360    0.0000 C   0  0
   -3.7664    4.6591    0.0000 C   0  0
   -3.6857    6.1569    0.0000 C   0  0
   -2.2674    8.3346    0.0000 C   0  0
   -5.1046    3.9797    0.0000 C   0  0
   -1.1977    8.8785    0.0000 F   0  0
   -3.2731    8.9893    0.0000 F   0  0
   -2.2034    9.5329    0.0000 F   0  0
   -5.1699    2.7815    0.0000 F   0  0
   -6.1098    4.6351    0.0000 F   0  0
   -6.1749    3.4370    0.0000 F   0  0
   -2.1731    1.9783    0.0000 H   0  0
    1.2964    2.4973    0.0000 H   0  0
    1.2964   -2.4973    0.0000 H   0  0
   -3.4668    0.2311    0.0000 H   0  0
   -1.7585    0.2261    0.0000 H   0  0
   -3.4663   -0.2303    0.0000 H   0  0
    3.4589   -1.2486    0.0000 H   0  0
    0.9236    3.1546    0.0000 H   0  0
    0.9770    4.1530    0.0000 H   0  0
   -2.5187   -3.2274    0.0000 H   0  0
   -1.6799   -2.6832    0.0000 H   0  0
    3.4417    1.5251    0.0000 H   0  0
    3.4926    2.5237    0.0000 H   0  0
    2.6533    3.0671    0.0000 H   0  0
   -3.7780   -4.0445    0.0000 H   0  0
   -4.6685   -3.5899    0.0000 H   0  0
   -4.7203   -2.5914    0.0000 H   0  0
    0.5957   -5.3304    0.0000 H   0  0
   -0.1997    6.4698    0.0000 H   0  0
   -2.5634    2.8417    0.0000 H   0  0
    3.0620   -5.7460    0.0000 H   0  0
    3.6986   -4.9750    0.0000 H   0  0
    3.3493   -4.0381    0.0000 H   0  0
    1.8543   -2.4414    0.0000 H   0  0
    3.1911   -3.5426    0.0000 H   0  0
    2.8406   -2.6062    0.0000 H   0  0
   -4.5235    6.7028    0.0000 H   0  0
  1  2  2  0
  1  3  1  0
  1  4  1  0
  2  5  1  0
  2  6  1  0
  3  7  1  0
  3  8  1  0
  4  9  2  0
  5 10  1  0
  5 11  1  0
  6 12  2  0
  7 13  1  0
  7 14  1  0
  8 10  1  0
  9 15  1  0
  9 12  1  0
 10 16  1  0
 11 17  1  0
 11 18  2  0
 13 19  1  0
 14 20  1  0
 14 21  2  0
 15 22  1  0
 15 23  1  0
 15 24  1  0
 16 25  1  0
 17 26  1  0
 19 27  1  0
 19 28  2  0
 26 29  1  0
 26 30  1  0
 27 31  2  0
 28 32  1  0
 31 33  1  0
 31 34  1  0
 32 35  1  0
 32 33  2  0
 34 36  1  0
 34 37  1  0
 34 38  1  0
 35 39  1  0
 35 40  1  0
 35 41  1  0
  3 42  1  0
  4 43  1  0
  6 44  1  0
  8 45  1  0
  8 46  1  0
 10 47  1  0
 12 48  1  0
 13 49  1  0
 13 50  1  0
 16 51  1  0
 16 52  1  0
 20 53  1  0
 20 54  1  0
 20 55  1  0
 25 56  1  0
 25 57  1  0
 25 58  1  0
 26 59  1  0
 27 60  1  0
 28 61  1  0
 29 62  1  0
 29 63  1  0
 29 64  1  0
 30 65  1  0
 30 66  1  0
 30 67  1  0
 33 68  1  0
V    1 0
V    2 1
V    3 2
V    4 3
V    5 4
V    6 5
V    7 6
V    8 7
V    9 8
V   10 9
V   11 10
V   12 11
V   13 12
V   14 13
V   15 14
V   16 15
V   17 16
V   18 17
V   19 18
V   20 19
V   21 20
V   22 21
V   23 22
V   24 23
V   25 24
V   26 25
V   27 26
V   28 27
V   29 28
V   30 29
V   31 30
V   32 31
V   33 32
V   34 33
V   35 34
V   36 35
V   37 36
V   38 37
V   39 38
V   40 39
V   41 40
M  END
> <DSSTox_RID>
66224

> <DSSTox_CID>
27279

> <DSSTox_CID_Parent>
27279

> <DSSTox_Generic_SID>
47279

> <DSSTox_FileID>
856_TXCST2_v1a

> <STRUCTURE_Formula>
C27H27F9N2O3

> <STRUCTURE_MolecularWeight>
598.5005

> <STRUCTURE_ChemicalType>
defined organic

> <STRUCTURE_TestedForm_DefinedOrganic>
parent

> <STRUCTURE_Shown>
tested chemical

> <TestSubstance_ChemicalName>
propan-2-yl (2R,4S)-4-{acetyl[3,5-bis(trifluoromethyl)benzyl]amino}-2-ethyl-6-(trifluoromethyl)-3,4-dihydroquinoline-1(2H)-carboxylate

> <TestSubstance_CASRN>
261947-38-0

> <TestSubstance_Description>
single chemical compound

> <ChemicalNote>
stereochem

> <STRUCTURE_ChemicalName_IUPAC>
propan-2-yl (2R,4S)-4-{acetyl[3,5-bis(trifluoromethyl)benzyl]amino}-2-ethyl-6-(trifluoromethyl)-3,4-dihydroquinoline-1(2H)-carboxylate

> <STRUCTURE_SMILES>
O=C(OC(C)C)N3C(C=C2)=C(C=C2C(F)(F)F)[C@H](C[C@H]3CC)N(C(C)=O)CC1=CC(C(F)(F)F)=CC(C(F)(F)F)=C1

> <STRUCTURE_Parent_SMILES>
O=C(OC(C)C)N3C(C=C2)=C(C=C2C(F)(F)F)[C@H](C[C@H]3CC)N(C(C)=O)CC1=CC(C(F)(F)F)=CC(C(F)(F)F)=C1

> <STRUCTURE_InChIS>
InChI=1S/C27H27F9N2O3/c1-5-20-12-23(21-11-17(25(28,29)30)6-7-22(21)38(20)24(40)41-14(2)3)37(15(4)39)13-16-8-18(26(31,32)33)10-19(9-16)27(34,35)36/h6-11,14,20,23H,5,12-13H2,1-4H3/t20-,23+/m1/s1

> <STRUCTURE_InChIKey>
TUPKOWFPVAXQFP-OFNKIYASSA-N

> <Substance_modify_yyyymmdd>
20100525

> <Coord_Metals>
0

> <Index>
856

> <Canonical_Smiles>
CCC1CC(N(Cc2cc(cc(c2)C(F)(F)F)C(F)(F)F)C(=O)C)c3cc(ccc3N1C(=O)OC(C)C)C(F)(F)F

> <Molecular_Weight>
598.5005

> <Frequency>
1

$$$$

  SciTegic          2D

 31 32  0  0  0  0            999 V2000
    1.2990   -0.7500    0.0000 C   0  0
    1.2990    0.7500    0.0000 C   0  0
    2.5973   -1.5031    0.0000 O   0  0
    0.0000   -1.5000    0.0000 C   0  0
    0.0000    1.5000    0.0000 C   0  0
    2.5988    1.5004    0.0000 C   0  0
    2.5951   -3.0039    0.0000 C   0  0
   -1.2990   -0.7500    0.0000 C   0  0
   -1.2990    0.7500    0.0000 C   0  0
    3.8990    0.7508    0.0000 N   0  0
    3.8915   -3.7585    0.0000 C   0  0
    1.2935   -3.7495    0.0000 C   0  0
   -2.3383    1.3500    0.0000 F   0  0
    5.1988    1.5013    0.0000 C   0  0
    3.8864   -5.2585    0.0000 C   0  0
    1.2883   -5.2495    0.0000 C   0  0
    2.5847   -6.0040    0.0000 C   0  0
    4.9235   -5.8621    0.0000 Cl  0  0
    2.5806   -7.2040    0.0000 Cl  0  0
    0.0000   -2.5000    0.0000 H   0  0
    0.0000    2.5000    0.0000 H   0  0
    2.5985    2.5004    0.0000 H   0  0
    3.4646    2.0008    0.0000 H   0  0
   -2.1651   -1.2500    0.0000 H   0  0
    3.8993   -0.2492    0.0000 H   0  0
    4.7593   -3.2615    0.0000 H   0  0
    0.4292   -3.2465    0.0000 H   0  0
    6.0651    1.0018    0.0000 H   0  0
    6.0645    2.0017    0.0000 H   0  0
    5.1984    2.5013    0.0000 H   0  0
    0.4205   -5.7465    0.0000 H   0  0
  1  2  2  0
  1  3  1  0
  1  4  1  0
  2  5  1  0
  2  6  1  0
  3  7  1  0
  4  8  2  0
  5  9  2  0
  6 10  1  0
  7 11  1  0
  7 12  2  0
  8  9  1  0
  9 13  1  0
 10 14  1  0
 11 15  2  0
 12 16  1  0
 15 17  1  0
 15 18  1  0
 16 17  2  0
 17 19  1  0
  4 20  1  0
  5 21  1  0
  6 22  1  0
  6 23  1  0
  8 24  1  0
 10 25  1  0
 11 26  1  0
 12 27  1  0
 14 28  1  0
 14 29  1  0
 14 30  1  0
 16 31  1  0
V    1 0
V    2 1
V    3 2
V    4 3
V    5 4
V    6 5
V    7 6
V    8 7
V    9 8
V   10 9
V   11 10
V   12 11
V   13 12
V   14 13
V   15 14
V   16 15
V   17 16
V   18 17
V   19 18
M  END
> <DSSTox_RID>
66225

> <DSSTox_CID>
27280

> <DSSTox_CID_Parent>
27280

> <DSSTox_Generic_SID>
47280

> <DSSTox_FileID>
857_TXCST2_v1a

> <STRUCTURE_Formula>
C14H12Cl2FNO

> <STRUCTURE_MolecularWeight>
300.1556

> <STRUCTURE_ChemicalType>
defined organic

> <STRUCTURE_TestedForm_DefinedOrganic>
parent

> <STRUCTURE_Shown>
tested chemical

> <TestSubstance_ChemicalName>
1-[2-(3,4-dichlorophenoxy)-5-fluorophenyl]-N-methylmethanamine

> <TestSubstance_CASRN>
289716-94-5

> <TestSubstance_Description>
single chemical compound

> <STRUCTURE_ChemicalName_IUPAC>
1-[2-(3,4-dichlorophenoxy)-5-fluorophenyl]-N-methylmethanamine

> <STRUCTURE_SMILES>
FC2=CC(CNC)=C(C=C2)OC1=CC=C(Cl)C(Cl)=C1

> <STRUCTURE_Parent_SMILES>
FC2=CC(CNC)=C(C=C2)OC1=CC=C(Cl)C(Cl)=C1

> <STRUCTURE_InChIS>
InChI=1S/C14H12Cl2FNO/c1-18-8-9-6-10(17)2-5-14(9)19-11-3-4-12(15)13(16)7-11/h2-7,18H,8H2,1H3

> <STRUCTURE_InChIKey>
FQEBOQLYHASAOY-UHFFFAOYSA-N

> <Substance_modify_yyyymmdd>
20100525

> <Coord_Metals>
0

> <Index>
857

> <Canonical_Smiles>
CNCc1cc(F)ccc1Oc2ccc(Cl)c(Cl)c2

> <Molecular_Weight>
300.15558

> <Frequency>
1

$$$$

  SciTegic          2D

 50 53  0  0  0  0            999 V2000
   -4.9153    0.7255    0.0000 C   0  0
   -6.2219    1.4621    0.0000 C   0  0
   -3.6217    1.4865    0.0000 O   0  0
   -4.9001   -0.7745    0.0000 N   0  0
   -6.2404    2.9629    0.0000 C   0  0
   -7.5133    0.6990    0.0000 C   0  0
   -2.3155    0.7475    0.0000 C   0  0
   -6.1914   -1.5377    0.0000 C   0  0
   -7.5488    3.6981    0.0000 N   0  0
   -5.2084    3.5752    0.0000 O   0  0
   -7.4980   -0.8010    0.0000 C   0  0
   -1.0028    1.5132    0.0000 C   0  0
   -2.3155   -0.7475    0.0000 C   0  0
   -7.5672    5.1988    0.0000 C   0  0
    0.2917    0.7475    0.0000 C   0  0
   -1.0028   -1.5132    0.0000 C   0  0
   -8.8756    5.9340    0.0000 C   0  0
    0.2917   -0.7475    0.0000 C   0  0
    1.7138    1.2033    0.0000 N   0  0
  -10.1658    5.1690    0.0000 C   0  0
   -8.8930    7.4339    0.0000 C   0  0
    1.7138   -1.2033    0.0000 N   0  0
    2.5889    0.0182    0.0000 O   0  0
  -11.4735    5.9038    0.0000 C   0  0
  -10.2007    8.1688    0.0000 C   0  0
  -11.4909    7.4037    0.0000 C   0  0
  -12.4690    8.5421    0.0000 C   0  0
  -13.9440    8.2652    0.0000 C   0  0
  -11.9717    9.9581    0.0000 C   0  0
  -12.9732    7.0976    0.0000 O   0  0
   -8.3844    1.1901    0.0000 H   0  0
   -6.1812   -2.5377    0.0000 H   0  0
   -8.4087    3.1878    0.0000 H   0  0
   -8.3589   -1.3098    0.0000 H   0  0
   -0.9997    2.5132    0.0000 H   0  0
   -3.1826   -1.2456    0.0000 H   0  0
   -6.7072    5.7091    0.0000 H   0  0
   -6.6952    4.7093    0.0000 H   0  0
   -0.9997   -2.5132    0.0000 H   0  0
  -10.1542    4.1690    0.0000 H   0  0
   -8.0329    7.9440    0.0000 H   0  0
  -12.3336    5.3938    0.0000 H   0  0
  -10.2124    9.1687    0.0000 H   0  0
  -14.5957    9.0238    0.0000 H   0  0
  -14.2754    7.3217    0.0000 H   0  0
  -14.9268    8.0803    0.0000 H   0  0
  -12.6226   10.7172    0.0000 H   0  0
  -10.9888   10.1425    0.0000 H   0  0
  -11.6399   10.9014    0.0000 H   0  0
  -12.3209    6.3397    0.0000 H   0  0
  1  2  1  0
  1  3  1  0
  1  4  2  0
  2  5  1  0
  2  6  2  0
  3  7  1  0
  4  8  1  0
  5  9  1  0
  5 10  2  0
  6 11  1  0
  7 12  2  0
  7 13  1  0
  8 11  2  0
  9 14  1  0
 12 15  1  0
 13 16  2  0
 14 17  1  0
 15 18  1  0
 15 19  2  0
 16 18  1  0
 17 20  2  0
 17 21  1  0
 18 22  2  0
 19 23  1  0
 20 24  1  0
 21 25  2  0
 22 23  1  0
 24 26  2  0
 25 26  1  0
 26 27  1  0
 27 28  1  0
 27 29  1  0
 27 30  1  0
  6 31  1  0
  8 32  1  0
  9 33  1  0
 11 34  1  0
 12 35  1  0
 13 36  1  0
 14 37  1  0
 14 38  1  0
 16 39  1  0
 20 40  1  0
 21 41  1  0
 24 42  1  0
 25 43  1  0
 28 44  1  0
 28 45  1  0
 28 46  1  0
 29 47  1  0
 29 48  1  0
 29 49  1  0
 30 50  1  0
V    1 0
V    2 1
V    3 2
V    4 3
V    5 4
V    6 5
V    7 6
V    8 7
V    9 8
V   10 9
V   11 10
V   12 11
V   13 12
V   14 13
V   15 14
V   16 15
V   17 16
V   18 17
V   19 18
V   20 19
V   21 20
V   22 21
V   23 22
V   24 23
V   25 24
V   26 25
V   27 26
V   28 27
V   29 28
V   30 29
M  END
> <DSSTox_RID>
66226

> <DSSTox_CID>
27281

> <DSSTox_CID_Parent>
27281

> <DSSTox_Generic_SID>
47281

> <DSSTox_FileID>
858_TXCST2_v1a

> <STRUCTURE_Formula>
C22H20N4O4

> <STRUCTURE_MolecularWeight>
404.4186

> <STRUCTURE_ChemicalType>
defined organic

> <STRUCTURE_TestedForm_DefinedOrganic>
parent

> <STRUCTURE_Shown>
tested chemical

> <TestSubstance_ChemicalName>
3-pyridinecarboxamide, 2-(2,1,3-benzoxadiazol-5-yloxy)-N-[[4-(1-hydroxy-1-methylethyl)phenyl]methyl]-

> <TestSubstance_CASRN>
353280-07-6

> <TestSubstance_Description>
single chemical compound

> <STRUCTURE_ChemicalName_IUPAC>
3-pyridinecarboxamide, 2-(2,1,3-benzoxadiazol-5-yloxy)-N-[[4-(1-hydroxy-1-methylethyl)phenyl]methyl]-

> <STRUCTURE_SMILES>
O=C(NCC4=CC=C(C(O)(C)C)C=C4)C1=CC=CN=C1OC3=CC2=NON=C2C=C3

> <STRUCTURE_Parent_SMILES>
O=C(NCC4=CC=C(C(O)(C)C)C=C4)C1=CC=CN=C1OC3=CC2=NON=C2C=C3

> <STRUCTURE_InChIS>
InChI=1S/C22H20N4O4/c1-22(2,28)15-7-5-14(6-8-15)13-24-20(27)17-4-3-11-23-21(17)29-16-9-10-18-19(12-16)26-30-25-18/h3-12,28H,13H2,1-2H3,(H,24,27)

> <STRUCTURE_InChIKey>
QYZRHDNGOVTVDB-UHFFFAOYSA-N

> <Substance_modify_yyyymmdd>
20100525

> <Coord_Metals>
0

> <Index>
858

> <Canonical_Smiles>
CC(C)(O)c1ccc(CNC(=O)c2cccnc2Oc3ccc4nonc4c3)cc1

> <Molecular_Weight>
404.4186

> <Frequency>
1

$$$$

  SciTegic          2D

 52 55  0  0  0  0            999 V2000
    0.2917    0.7475    0.0000 C   0  0
    0.2917   -0.7475    0.0000 C   0  0
   -1.0028    1.5132    0.0000 C   0  0
    1.7138    1.2033    0.0000 O   0  0
   -1.0028   -1.5132    0.0000 C   0  0
    1.7138   -1.2033    0.0000 O   0  0
   -2.3155    0.7475    0.0000 C   0  0
    2.5889    0.0182    0.0000 C   0  0
   -2.3155   -0.7475    0.0000 C   0  0
   -3.6217    1.4865    0.0000 O   0  0
   -4.9153    0.7255    0.0000 C   0  0
   -6.2219    1.4621    0.0000 C   0  0
   -4.9001   -0.7745    0.0000 N   0  0
   -6.2404    2.9629    0.0000 C   0  0
   -7.5133    0.6990    0.0000 C   0  0
   -6.1914   -1.5377    0.0000 C   0  0
   -7.5488    3.6981    0.0000 N   0  0
   -5.2084    3.5752    0.0000 O   0  0
   -7.4980   -0.8010    0.0000 C   0  0
   -7.5672    5.1988    0.0000 C   0  0
   -8.8756    5.9340    0.0000 C   0  0
  -10.1658    5.1690    0.0000 C   0  0
   -8.8930    7.4339    0.0000 C   0  0
  -11.4735    5.9038    0.0000 C   0  0
  -10.1518    3.9691    0.0000 F   0  0
  -10.2007    8.1688    0.0000 C   0  0
  -11.4909    7.4037    0.0000 C   0  0
  -12.7978    8.1416    0.0000 O   0  0
  -12.8132    9.6424    0.0000 C   0  0
  -14.1200   10.3803    0.0000 C   0  0
  -11.5210   10.4056    0.0000 C   0  0
  -14.1354   11.8811    0.0000 O   0  0
  -15.1533    9.7701    0.0000 O   0  0
   -0.9997    2.5132    0.0000 H   0  0
   -0.9997   -2.5132    0.0000 H   0  0
    3.0822   -0.8516    0.0000 H   0  0
    3.0698    0.8950    0.0000 H   0  0
   -3.1826   -1.2456    0.0000 H   0  0
   -8.3844    1.1901    0.0000 H   0  0
   -6.1812   -2.5377    0.0000 H   0  0
   -8.4087    3.1878    0.0000 H   0  0
   -8.3589   -1.3098    0.0000 H   0  0
   -6.7072    5.7091    0.0000 H   0  0
   -6.6952    4.7093    0.0000 H   0  0
   -8.0329    7.9440    0.0000 H   0  0
  -12.3336    5.3938    0.0000 H   0  0
  -10.2124    9.1687    0.0000 H   0  0
  -13.6742    9.1338    0.0000 H   0  0
  -10.6497    9.9147    0.0000 H   0  0
  -10.6602   10.9145    0.0000 H   0  0
  -11.5312   11.4055    0.0000 H   0  0
  -15.0061   12.3727    0.0000 H   0  0
  1  2  1  0
  1  3  2  0
  1  4  1  0
  2  5  2  0
  2  6  1  0
  3  7  1  0
  4  8  1  0
  5  9  1  0
  6  8  1  0
  7 10  1  0
  7  9  2  0
 10 11  1  0
 11 12  1  0
 11 13  2  0
 12 14  1  0
 12 15  2  0
 13 16  1  0
 14 17  1  0
 14 18  2  0
 15 19  1  0
 16 19  2  0
 17 20  1  0
 20 21  1  0
 21 22  1  0
 21 23  2  0
 22 24  2  0
 22 25  1  0
 23 26  1  0
 24 27  1  0
 26 27  2  0
 27 28  1  0
 28 29  1  0
 29 30  1  0
 29 31  1  0
 30 32  1  0
 30 33  2  0
  3 34  1  0
  5 35  1  0
  8 36  1  0
  8 37  1  0
  9 38  1  0
 15 39  1  0
 16 40  1  0
 17 41  1  0
 19 42  1  0
 20 43  1  0
 20 44  1  0
 23 45  1  0
 24 46  1  0
 26 47  1  0
 29 48  1  0
 31 49  1  0
 31 50  1  0
 31 51  1  0
 32 52  1  0
V    1 0
V    2 1
V    3 2
V    4 3
V    5 4
V    6 5
V    7 6
V    8 7
V    9 8
V   10 9
V   11 10
V   12 11
V   13 12
V   14 13
V   15 14
V   16 15
V   17 16
V   18 17
V   19 18
V   20 19
V   21 20
V   22 21
V   23 22
V   24 23
V   25 24
V   26 25
V   27 26
V   28 27
V   29 28
V   30 29
V   31 30
V   32 31
V   33 32
M  END
> <DSSTox_RID>
66227

> <DSSTox_CID>
27282

> <DSSTox_CID_Parent>
27282

> <DSSTox_Generic_SID>
47282

> <DSSTox_FileID>
859_TXCST2_v1a

> <STRUCTURE_Formula>
C23H19FN2O7

> <STRUCTURE_MolecularWeight>
454.4046

> <STRUCTURE_ChemicalType>
defined organic

> <STRUCTURE_TestedForm_DefinedOrganic>
parent

> <STRUCTURE_Shown>
tested chemical

> <TestSubstance_ChemicalName>
(2R)-2-{4-[({[2-(1,3-benzodioxol-5-yloxy)pyridin-3-yl]carbonyl}amino)methyl]-3-fluorophenoxy}propanoic acid

> <TestSubstance_CASRN>
445295-04-5

> <TestSubstance_Description>
single chemical compound

> <ChemicalNote>
stereochem

> <STRUCTURE_ChemicalName_IUPAC>
(2R)-2-{4-[({[2-(1,3-benzodioxol-5-yloxy)pyridin-3-yl]carbonyl}amino)methyl]-3-fluorophenoxy}propanoic acid

> <STRUCTURE_SMILES>
O=C(NCC4=CC=C(O[C@H](C)C(O)=O)C=C4F)C1=CC=CN=C1OC2=CC=C3C(OCO3)=C2

> <STRUCTURE_Parent_SMILES>
O=C(NCC4=CC=C(O[C@H](C)C(O)=O)C=C4F)C1=CC=CN=C1OC2=CC=C3C(OCO3)=C2

> <STRUCTURE_InChIS>
InChI=1S/C23H19FN2O7/c1-13(23(28)29)32-15-5-4-14(18(24)9-15)11-26-21(27)17-3-2-8-25-22(17)33-16-6-7-19-20(10-16)31-12-30-19/h2-10,13H,11-12H2,1H3,(H,26,27)(H,28,29)/t13-/m1/s1

> <STRUCTURE_InChIKey>
CNIGFESSDPOCKS-CYBMUJFWSA-N

> <Substance_modify_yyyymmdd>
20100526

> <Coord_Metals>
0

> <Index>
859

> <Canonical_Smiles>
CC(Oc1ccc(CNC(=O)c2cccnc2Oc3ccc4OCOc4c3)c(F)c1)C(=O)O

> <Molecular_Weight>
454.40456

> <Frequency>
1

$$$$

  SciTegic          2D

 64 68  0  0  0  0            999 V2000
   -3.1212    5.2900    0.0000 C   0  0
   -4.0022    4.2628    0.0000 C   0  0
   -3.5721    6.5935    0.0000 C   0  0
   -2.2365    6.3369    0.0000 C   0  0
   -5.3396    4.5096    0.0000 C   0  0
   -3.5494    2.9692    0.0000 C   0  0
   -4.9096    6.8403    0.0000 C   0  0
   -6.2340    3.4645    0.0000 C   0  0
   -5.8058    5.7854    0.0000 N   0  0
   -4.4340    1.9223    0.0000 C   0  0
   -5.3121    7.9707    0.0000 O   0  0
   -5.7714    2.1691    0.0000 C   0  0
   -7.2857    6.0422    0.0000 C   0  0
   -3.9341    0.5058    0.0000 O   0  0
   -6.7414    1.0222    0.0000 C   0  0
   -2.4589    0.2298    0.0000 C   0  0
   -6.2346   -0.3905    0.0000 N   0  0
   -7.2039   -1.5364    0.0000 C   0  0
   -5.9075   -2.2496    0.0000 C   0  0
   -8.5056   -2.2397    0.0000 C   0  0
   -4.4527   -2.5274    0.0000 C   0  0
   -5.9132   -3.7496    0.0000 N   0  0
   -8.5113   -3.7397    0.0000 C   0  0
   -3.9597   -3.9441    0.0000 C   0  0
   -3.4723   -1.3922    0.0000 C   0  0
   -7.2151   -4.4947    0.0000 C   0  0
   -2.4863   -4.2255    0.0000 C   0  0
   -1.9990   -1.6735    0.0000 C   0  0
   -6.2401   -5.6087    0.0000 C   0  0
   -1.5059   -3.0902    0.0000 C   0  0
   -6.6882   -7.0410    0.0000 C   0  0
   -3.8826    5.9383    0.0000 H   0  0
   -2.6286    6.9246    0.0000 H   0  0
   -2.0424    7.3179    0.0000 H   0  0
   -1.4690    5.6959    0.0000 H   0  0
   -2.5659    2.7878    0.0000 H   0  0
   -7.2174    3.6460    0.0000 H   0  0
   -7.9269    5.2748    0.0000 H   0  0
   -7.6300    6.9811    0.0000 H   0  0
   -8.2709    6.2136    0.0000 H   0  0
   -7.7255    1.2000    0.0000 H   0  0
   -7.3876    0.2590    0.0000 H   0  0
   -2.1261   -0.7132    0.0000 H   0  0
   -1.8084    0.9893    0.0000 H   0  0
   -1.4759    0.0464    0.0000 H   0  0
   -5.2506   -0.5684    0.0000 H   0  0
   -8.0681   -1.0332    0.0000 H   0  0
   -5.9384   -1.2501    0.0000 H   0  0
   -7.6595   -2.7728    0.0000 H   0  0
   -9.3684   -2.7453    0.0000 H   0  0
   -5.0491   -4.2529    0.0000 H   0  0
   -8.4915   -4.7395    0.0000 H   0  0
   -9.3633   -3.2163    0.0000 H   0  0
   -4.6133   -4.7010    0.0000 H   0  0
   -3.8010   -0.4477    0.0000 H   0  0
   -7.1868   -3.4951    0.0000 H   0  0
   -2.1576   -5.1699    0.0000 H   0  0
   -1.3454   -0.9167    0.0000 H   0  0
   -5.5630   -6.3445    0.0000 H   0  0
   -5.2642   -5.3903    0.0000 H   0  0
   -0.5237   -3.2778    0.0000 H   0  0
   -6.0114   -7.7772    0.0000 H   0  0
   -6.9872   -7.9953    0.0000 H   0  0
   -7.6641   -7.2594    0.0000 H   0  0
  1  2  1  0
  1  3  1  0
  1  4  1  0
  2  5  2  0
  2  6  1  0
  3  7  1  0
  3  4  1  0
  5  8  1  0
  5  9  1  0
  6 10  2  0
  7 11  2  0
  7  9  1  0
  8 12  2  0
  9 13  1  0
 10 14  1  0
 10 12  1  0
 12 15  1  0
 14 16  1  0
 15 17  1  0
 18 17  1  0
 18 19  1  0
 18 20  1  0
 19 21  1  0
 19 22  1  0
 20 23  1  0
 21 24  2  0
 21 25  1  0
 22 26  1  0
 23 26  1  0
 24 27  1  0
 25 28  2  0
 26 29  1  0
 27 30  2  0
 28 30  1  0
 29 31  1  0
  1 32  1  0
  3 33  1  0
  4 34  1  0
  4 35  1  0
  6 36  1  0
  8 37  1  0
 13 38  1  0
 13 39  1  0
 13 40  1  0
 15 41  1  0
 15 42  1  0
 16 43  1  0
 16 44  1  0
 16 45  1  0
 17 46  1  0
 18 47  1  0
 19 48  1  0
 20 49  1  0
 20 50  1  0
 22 51  1  0
 23 52  1  0
 23 53  1  0
 24 54  1  0
 25 55  1  0
 26 56  1  0
 27 57  1  0
 28 58  1  0
 29 59  1  0
 29 60  1  0
 30 61  1  0
 31 62  1  0
 31 63  1  0
 31 64  1  0
V    1 0
V    2 1
V    3 2
V    4 3
V    5 4
V    6 5
V    7 6
V    8 7
V    9 8
V   10 9
V   11 10
V   12 11
V   13 12
V   14 13
V   15 14
V   16 15
V   17 16
V   18 17
V   19 18
V   20 19
V   21 20
V   22 21
V   23 22
V   24 23
V   25 24
V   26 25
V   27 26
V   28 27
V   29 28
V   30 29
V   31 30
M  END
> <DSSTox_RID>
66228

> <DSSTox_CID>
27283

> <DSSTox_CID_Parent>
27283

> <DSSTox_Generic_SID>
47283

> <DSSTox_FileID>
860_TXCST2_v1a

> <STRUCTURE_Formula>
C26H33N3O2

> <STRUCTURE_MolecularWeight>
419.5591

> <STRUCTURE_ChemicalType>
defined organic

> <STRUCTURE_TestedForm_DefinedOrganic>
parent

> <STRUCTURE_Shown>
tested chemical

> <TestSubstance_ChemicalName>
(1aR,7bS)-5-({[(2S,3S,6S)-6-ethyl-2-phenylpiperidin-3-yl]amino}methyl)-6-methoxy-3-methyl-1,1a,3,7b-tetrahydro-2H-cyclopropa[c]quinolin-2-one

> <TestSubstance_CASRN>
368832-42-2

> <TestSubstance_Description>
single chemical compound

> <ChemicalNote>
stereochem

> <STRUCTURE_ChemicalName_IUPAC>
(1aR,7bS)-5-({[(2S,3S,6S)-6-ethyl-2-phenylpiperidin-3-yl]amino}methyl)-6-methoxy-3-methyl-1,1a,3,7b-tetrahydro-2H-cyclopropa[c]quinolin-2-one

> <STRUCTURE_SMILES>
O=C1[C@H]2[C@H](C2)C3=C(N1C)C=C(CN[C@@H](CC[C@H](CC)N4)[C@@H]4C5=CC=CC=C5)C(OC)=C3

> <STRUCTURE_Parent_SMILES>
O=C1[C@H]2[C@H](C2)C3=C(N1C)C=C(CN[C@@H](CC[C@H](CC)N4)[C@@H]4C5=CC=CC=C5)C(OC)=C3

> <STRUCTURE_InChIS>
InChI=1S/C26H33N3O2/c1-4-18-10-11-22(25(28-18)16-8-6-5-7-9-16)27-15-17-12-23-20(14-24(17)31-3)19-13-21(19)26(30)29(23)2/h5-9,12,14,18-19,21-22,25,27-28H,4,10-11,13,15H2,1-3H3/t18-,19+,21+,22-,25-/m0/s
1

> <STRUCTURE_InChIKey>
KDGDTPNBDMVKHC-XIAWMOHYSA-N

> <Substance_modify_yyyymmdd>
20100526

> <Coord_Metals>
0

> <Index>
860

> <Canonical_Smiles>
CCC1CCC(NCc2cc3N(C)C(=O)C4CC4c3cc2OC)C(N1)c5ccccc5

> <Molecular_Weight>
419.55912

> <Frequency>
1

$$$$

  SciTegic          2D

 37 40  0  0  0  0            999 V2000
   -6.8467    4.1762    0.0000 N   0  0
   -5.7195    5.1226    0.0000 C   0  0
   -8.4425    4.4097    0.0000 C   0  0
   -6.1252    2.4775    0.0000 C   0  0
   -6.6063    2.8592    0.0000 C   0  0
   -5.6013    3.6970    0.0000 C   0  0
   -8.2490    2.9855    0.0000 C   0  0
   -6.2216    1.4644    0.0000 C   0  0
   -4.9153    0.7255    0.0000 N   0  0
   -3.6217    1.4865    0.0000 C   0  0
   -3.6319    2.6865    0.0000 O   0  0
   -2.3155    0.7475    0.0000 C   0  0
   -2.3155   -0.7475    0.0000 N   0  0
   -1.0028    1.5132    0.0000 C   0  0
   -1.0028   -1.5132    0.0000 C   0  0
    0.2917    0.7475    0.0000 C   0  0
    0.2917   -0.7475    0.0000 C   0  0
    1.7138    1.2033    0.0000 C   0  0
    2.5889    0.0182    0.0000 C   0  0
    1.7138   -1.2033    0.0000 O   0  0
   -4.7296    5.2647    0.0000 H   0  0
   -6.3152    5.9257    0.0000 H   0  0
   -9.4111    4.1611    0.0000 H   0  0
   -8.1841    5.3758    0.0000 H   0  0
   -5.5377    1.6682    0.0000 H   0  0
   -5.8095    3.4263    0.0000 H   0  0
   -7.2423    2.0874    0.0000 H   0  0
   -5.5019    2.7020    0.0000 H   0  0
   -4.8225    4.3242    0.0000 H   0  0
   -7.9516    2.0307    0.0000 H   0  0
   -9.2195    3.2266    0.0000 H   0  0
   -7.0833    0.9570    0.0000 H   0  0
   -4.9067   -0.2745    0.0000 H   0  0
   -0.9997    2.5132    0.0000 H   0  0
   -0.9997   -2.5132    0.0000 H   0  0
    2.0210    2.1549    0.0000 H   0  0
    3.5889    0.0254    0.0000 H   0  0
  1  2  1  0
  1  3  1  0
  1  4  1  0
  2  6  1  0
  3  7  1  0
  4  8  1  0
  5  6  1  0
  5  7  1  0
  5  8  1  0
  8  9  1  0
  9 10  1  0
 10 11  2  0
 10 12  1  0
 12 13  1  0
 12 14  2  0
 13 15  2  0
 14 16  1  0
 15 17  1  0
 16 17  2  0
 16 18  1  0
 17 20  1  0
 18 19  2  0
 19 20  1  0
  2 21  1  0
  2 22  1  0
  3 23  1  0
  3 24  1  0
  4 25  1  0
  4 26  1  0
  5 27  1  0
  6 28  1  0
  6 29  1  0
  7 30  1  0
  7 31  1  0
  8 32  1  0
  9 33  1  0
 14 34  1  0
 15 35  1  0
 18 36  1  0
 19 37  1  0
V    1 0
V    2 1
V    3 2
V    4 3
V    5 4
V    6 5
V    7 6
V    8 7
V    9 8
V   10 9
V   11 10
V   12 11
V   13 12
V   14 13
V   15 14
V   16 15
V   17 16
V   18 17
V   19 18
V   20 19
M  END
> <DSSTox_RID>
66229

> <DSSTox_CID>
27284

> <DSSTox_CID_Parent>
27284

> <DSSTox_Generic_SID>
47284

> <DSSTox_FileID>
861_TXCST2_v1a

> <STRUCTURE_Formula>
C15H17N3O2

> <STRUCTURE_MolecularWeight>
271.3144

> <STRUCTURE_ChemicalType>
defined organic

> <STRUCTURE_TestedForm_DefinedOrganic>
parent

> <STRUCTURE_Shown>
tested chemical

> <TestSubstance_ChemicalName>
N-[(3R)-1-azabicyclo[2.2.2]oct-3-yl]furo[2,3-c]pyridine-5-carboxamide

> <TestSubstance_CASRN>
478149-53-0

> <TestSubstance_Description>
single chemical compound

> <ChemicalNote>
stereochem

> <STRUCTURE_ChemicalName_IUPAC>
N-[(3R)-1-azabicyclo[2.2.2]oct-3-yl]furo[2,3-c]pyridine-5-carboxamide

> <STRUCTURE_SMILES>
O=C(C3=CC(C=CO4)=C4C=N3)N[C@@H]2C1CCN(C2)CC1

> <STRUCTURE_Parent_SMILES>
O=C(C3=CC(C=CO4)=C4C=N3)N[C@@H]2C1CCN(C2)CC1

> <STRUCTURE_InChIS>
InChI=1S/C15H17N3O2/c19-15(12-7-11-3-6-20-14(11)8-16-12)17-13-9-18-4-1-10(13)2-5-18/h3,6-8,10,13H,1-2,4-5,9H2,(H,17,19)/t13-/m0/s1

> <STRUCTURE_InChIKey>
IPKZCLGGYKRDES-ZDUSSCGKSA-N

> <Substance_modify_yyyymmdd>
20100526

> <Coord_Metals>
0

> <Index>
861

> <Canonical_Smiles>
O=C(NC1CN2CCC1CC2)c3cc4ccoc4cn3

> <Molecular_Weight>
271.31438

> <Frequency>
1

$$$$

  SciTegic          2D

 41 44  0  0  0  0            999 V2000
   -7.8604    2.9238    0.0000 N   0  0
   -8.1068    1.4726    0.0000 C   0  0
   -8.8690    4.1823    0.0000 C   0  0
   -6.0301    3.1605    0.0000 C   0  0
   -6.6027    3.3825    0.0000 C   0  0
   -6.8172    2.0917    0.0000 C   0  0
   -7.5425    4.7356    0.0000 C   0  0
   -5.2049    3.7560    0.0000 C   0  0
   -3.9067    3.0027    0.0000 N   0  0
   -3.9091    1.5019    0.0000 C   0  0
   -4.9494    0.9039    0.0000 O   0  0
   -2.6111    0.7486    0.0000 C   0  0
   -2.6111   -0.7486    0.0000 C   0  0
   -1.2964    1.4973    0.0000 C   0  0
   -1.2964   -1.4973    0.0000 C   0  0
    0.0000    0.7486    0.0000 C   0  0
    0.0000   -0.7486    0.0000 C   0  0
    1.2964    1.4973    0.0000 O   0  0
    2.5929    0.7486    0.0000 C   0  0
    1.2964   -1.4973    0.0000 O   0  0
    2.5929   -0.7486    0.0000 C   0  0
   -7.7288    0.5468    0.0000 H   0  0
   -9.1010    1.5804    0.0000 H   0  0
   -9.1444    5.1436    0.0000 H   0  0
   -9.5717    3.4708    0.0000 H   0  0
   -5.0349    3.0629    0.0000 H   0  0
   -6.6890    2.4082    0.0000 H   0  0
   -6.2586    4.3214    0.0000 H   0  0
   -5.9086    2.5092    0.0000 H   0  0
   -6.9644    1.1026    0.0000 H   0  0
   -6.5684    4.9620    0.0000 H   0  0
   -8.2413    5.4509    0.0000 H   0  0
   -5.2030    4.7560    0.0000 H   0  0
   -3.0398    3.5011    0.0000 H   0  0
   -3.4756   -1.2512    0.0000 H   0  0
   -1.2934    2.4973    0.0000 H   0  0
   -1.2934   -2.4973    0.0000 H   0  0
    3.4468    0.2283    0.0000 H   0  0
    2.5694    1.7484    0.0000 H   0  0
    1.7152   -0.2693    0.0000 H   0  0
    2.5694   -1.7484    0.0000 H   0  0
  1  2  1  0
  1  3  1  0
  1  4  1  0
  2  6  1  0
  3  7  1  0
  4  8  1  0
  5  6  1  0
  5  7  1  0
  5  8  1  0
  8  9  1  0
  9 10  1  0
 10 11  2  0
 10 12  1  0
 12 13  1  0
 12 14  2  0
 13 15  2  0
 14 16  1  0
 15 17  1  0
 16 18  1  0
 16 17  2  0
 17 20  1  0
 18 19  1  0
 19 21  1  0
 20 21  1  0
  2 22  1  0
  2 23  1  0
  3 24  1  0
  3 25  1  0
  4 26  1  0
  4 27  1  0
  5 28  1  0
  6 29  1  0
  6 30  1  0
  7 31  1  0
  7 32  1  0
  8 33  1  0
  9 34  1  0
 13 35  1  0
 14 36  1  0
 15 37  1  0
 19 38  1  0
 19 39  1  0
 21 40  1  0
 21 41  1  0
V    1 0
V    2 1
V    3 2
V    4 3
V    5 4
V    6 5
V    7 6
V    8 7
V    9 8
V   10 9
V   11 10
V   12 11
V   13 12
V   14 13
V   15 14
V   16 15
V   17 16
V   18 17
V   19 18
V   20 19
V   21 20
M  END
> <DSSTox_RID>
66230

> <DSSTox_CID>
27285

> <DSSTox_CID_Parent>
27285

> <DSSTox_Generic_SID>
47285

> <DSSTox_FileID>
862_TXCST2_v1a

> <STRUCTURE_Formula>
C16H20N2O3

> <STRUCTURE_MolecularWeight>
288.3416

> <STRUCTURE_ChemicalType>
defined organic

> <STRUCTURE_TestedForm_DefinedOrganic>
parent

> <STRUCTURE_Shown>
tested chemical

> <TestSubstance_ChemicalName>
N-[(3R)-1-azabicyclo[2.2.2]oct-3-yl]-2,3-dihydro-1,4-benzodioxine-6-carboxamide

> <TestSubstance_CASRN>
527680-56-4

> <TestSubstance_Description>
single chemical compound

> <ChemicalNote>
stereochem

> <STRUCTURE_ChemicalName_IUPAC>
N-[(3R)-1-azabicyclo[2.2.2]oct-3-yl]-2,3-dihydro-1,4-benzodioxine-6-carboxamide

> <STRUCTURE_SMILES>
O=C(C3=CC(OCCO4)=C4C=C3)N[C@H]1CN2CCC1CC2

> <STRUCTURE_Parent_SMILES>
O=C(C3=CC(OCCO4)=C4C=C3)N[C@H]1CN2CCC1CC2

> <STRUCTURE_InChIS>
InChI=1S/C16H20N2O3/c19-16(17-13-10-18-5-3-11(13)4-6-18)12-1-2-14-15(9-12)21-8-7-20-14/h1-2,9,11,13H,3-8,10H2,(H,17,19)/t13-/m0/s1

> <STRUCTURE_InChIKey>
LUVXHMJTVXZFPD-ZDUSSCGKSA-N

> <Substance_modify_yyyymmdd>
20100526

> <Coord_Metals>
0

> <Index>
862

> <Canonical_Smiles>
O=C(NC1CN2CCC1CC2)c3ccc4OCCOc4c3

> <Molecular_Weight>
288.3416

> <Frequency>
1

$$$$

  SciTegic          2D

 78 81  0  0  0  0            999 V2000
  -11.3295    4.3797    0.0000 C   0  0
  -12.3037    5.5214    0.0000 C   0  0
  -12.2846    3.2215    0.0000 C   0  0
  -10.3221    5.4413    0.0000 C   0  0
  -10.7234    3.0476    0.0000 C   0  0
  -13.7837    5.7707    0.0000 C   0  0
  -11.7602    1.8153    0.0000 N   0  0
  -13.4681    3.4202    0.0000 O   0  0
   -8.9918    4.7482    0.0000 C   0  0
   -9.2398    3.2689    0.0000 C   0  0
  -14.3086    7.1768    0.0000 C   0  0
  -14.7416    4.6153    0.0000 C   0  0
  -12.7150    0.6574    0.0000 C   0  0
  -15.7886    7.4261    0.0000 O   0  0
  -13.5446    8.1021    0.0000 O   0  0
  -16.2213    4.8662    0.0000 O   0  0
  -11.4098   -0.0396    0.0000 C   0  0
  -14.0078   -0.0622    0.0000 C   0  0
  -16.3134    8.8322    0.0000 C   0  0
  -17.1792    3.7108    0.0000 C   0  0
  -11.3968   -1.5395    0.0000 C   0  0
  -13.9947   -1.5621    0.0000 C   0  0
  -17.8110    9.0902    0.0000 C   0  0
  -15.3518    9.9769    0.0000 C   0  0
  -18.6589    3.9618    0.0000 C   0  0
  -12.6892   -2.3008    0.0000 C   0  0
  -18.3096   10.5092    0.0000 C   0  0
  -15.8643   11.4076    0.0000 C   0  0
  -19.6168    2.8064    0.0000 O   0  0
  -13.6588   -3.4196    0.0000 C   0  0
  -17.3480   11.6539    0.0000 C   0  0
  -19.6917   11.0749    0.0000 C   0  0
  -21.0965    3.0573    0.0000 C   0  0
  -15.1391   -3.1725    0.0000 O   0  0
  -13.2384   -4.5435    0.0000 O   0  0
  -18.1437   12.9176    0.0000 C   0  0
  -19.5995   12.5452    0.0000 C   0  0
  -12.9525    6.2824    0.0000 H   0  0
  -11.9692    6.4638    0.0000 H   0  0
  -11.2634    5.7789    0.0000 H   0  0
   -9.5418    6.0668    0.0000 H   0  0
  -11.7233    3.0355    0.0000 H   0  0
  -10.1899    2.2019    0.0000 H   0  0
  -14.7697    5.9374    0.0000 H   0  0
  -10.7740    1.6498    0.0000 H   0  0
   -8.9454    5.7472    0.0000 H   0  0
   -8.1663    4.1837    0.0000 H   0  0
   -8.2754    3.5334    0.0000 H   0  0
   -9.5216    2.3094    0.0000 H   0  0
  -14.3937    3.6777    0.0000 H   0  0
  -15.3795    3.8452    0.0000 H   0  0
  -13.5854    1.1497    0.0000 H   0  0
  -11.4533    0.9595    0.0000 H   0  0
  -10.5446   -0.5409    0.0000 H   0  0
  -13.1551   -0.5846    0.0000 H   0  0
  -14.8642   -0.5785    0.0000 H   0  0
  -16.8313    2.7733    0.0000 H   0  0
  -16.1934    3.5432    0.0000 H   0  0
  -12.2785   -1.0678    0.0000 H   0  0
  -11.4115   -2.5394    0.0000 H   0  0
  -13.9624   -2.5616    0.0000 H   0  0
  -14.8533   -1.0494    0.0000 H   0  0
  -18.4566    8.3265    0.0000 H   0  0
  -14.3674    9.8005    0.0000 H   0  0
  -19.0068    4.8993    0.0000 H   0  0
  -19.6447    4.1294    0.0000 H   0  0
  -11.8071   -2.7717    0.0000 H   0  0
  -15.2234   12.1752    0.0000 H   0  0
  -20.5679   11.5569    0.0000 H   0  0
  -19.6402   10.0763    0.0000 H   0  0
  -21.7347    2.2875    0.0000 H   0  0
  -21.4444    3.9949    0.0000 H   0  0
  -22.0823    3.2250    0.0000 H   0  0
  -15.7753   -3.9440    0.0000 H   0  0
  -18.7747   13.6934    0.0000 H   0  0
  -17.1520   13.0469    0.0000 H   0  0
  -19.4176   13.5286    0.0000 H   0  0
  -20.5316   12.1832    0.0000 H   0  0
  1  2  1  0
  1  3  1  0
  1  4  1  0
  1  5  1  0
  2  6  1  0
  3  7  1  0
  3  8  2  0
  4  9  1  0
  5 10  1  0
  6 11  1  0
  6 12  1  0
 13  7  1  0
  9 10  1  0
 11 14  1  0
 11 15  2  0
 12 16  1  0
 13 17  1  0
 13 18  1  0
 14 19  1  0
 16 20  1  0
 17 21  1  0
 18 22  1  0
 19 23  2  0
 19 24  1  0
 20 25  1  0
 21 26  1  0
 22 26  1  0
 23 27  1  0
 24 28  2  0
 25 29  1  0
 26 30  1  0
 27 31  2  0
 27 32  1  0
 28 31  1  0
 29 33  1  0
 30 34  1  0
 30 35  2  0
 31 36  1  0
 32 37  1  0
 36 37  1  0
  2 38  1  0
  2 39  1  0
  4 40  1  0
  4 41  1  0
  5 42  1  0
  5 43  1  0
  6 44  1  0
  7 45  1  0
  9 46  1  0
  9 47  1  0
 10 48  1  0
 10 49  1  0
 12 50  1  0
 12 51  1  0
 13 52  1  0
 17 53  1  0
 17 54  1  0
 18 55  1  0
 18 56  1  0
 20 57  1  0
 20 58  1  0
 21 59  1  0
 21 60  1  0
 22 61  1  0
 22 62  1  0
 23 63  1  0
 24 64  1  0
 25 65  1  0
 25 66  1  0
 26 67  1  0
 28 68  1  0
 32 69  1  0
 32 70  1  0
 33 71  1  0
 33 72  1  0
 33 73  1  0
 34 74  1  0
 36 75  1  0
 36 76  1  0
 37 77  1  0
 37 78  1  0
V    1 0
V    2 1
V    3 2
V    4 3
V    5 4
V    6 5
V    7 6
V    8 7
V    9 8
V   10 9
V   11 10
V   12 11
V   13 12
V   14 13
V   15 14
V   16 15
V   17 16
V   18 17
V   19 18
V   20 19
V   21 20
V   22 21
V   23 22
V   24 23
V   25 24
V   26 25
V   27 26
V   28 27
V   29 28
V   30 29
V   31 30
V   32 31
V   33 32
V   34 33
V   35 34
V   36 35
V   37 36
M  END
> <DSSTox_RID>
66231

> <DSSTox_CID>
27286

> <DSSTox_CID_Parent>
27286

> <DSSTox_Generic_SID>
47286

> <DSSTox_FileID>
863_TXCST2_v1a

> <STRUCTURE_Formula>
C29H41NO7

> <STRUCTURE_MolecularWeight>
515.6383

> <STRUCTURE_ChemicalType>
defined organic

> <STRUCTURE_TestedForm_DefinedOrganic>
parent

> <STRUCTURE_Shown>
tested chemical

> <TestSubstance_ChemicalName>
Candoxatril

> <TestSubstance_CASRN>
123122-55-4

> <TestSubstance_Description>
single chemical compound

> <ChemicalNote>
stereochem

> <STRUCTURE_ChemicalName_IUPAC>
cis-4-{[(1-{(2S)-3-(2,3-dihydro-1H-inden-5-yloxy)-2-[(2-methoxyethoxy)methyl]-3-oxopropyl}cyclopentyl)carbonyl]amino}cyclohexanecarboxylic acid

> <STRUCTURE_SMILES>
O=C(N[C@H]2CC[C@@H]([C@@](O)=O)CC2)C1(CCCC1)C[C@@H](COCCOC)C(OC3=CC(CCC4)=C4C=C3)=O

> <STRUCTURE_Parent_SMILES>
O=C(N[C@H]2CC[C@@H]([C@@](O)=O)CC2)C1(CCCC1)C[C@@H](COCCOC)C(OC3=CC(CCC4)=C4C=C3)=O

> <STRUCTURE_InChIS>
InChI=1S/C29H41NO7/c1-35-15-16-36-19-23(27(33)37-25-12-9-20-5-4-6-22(20)17-25)18-29(13-2-3-14-29)28(34)30-24-10-7-21(8-11-24)26(31)32/h9,12,17,21,23-24H,2-8,10-11,13-16,18-19H2,1H3,(H,30,34)(H,31,32)/
t21-,23-,24+/m0/s1

> <STRUCTURE_InChIKey>
ZTWZVMIYIIVABD-OEMFJLHTSA-N

> <Substance_modify_yyyymmdd>
20100526

> <Coord_Metals>
0

> <Index>
863

> <Canonical_Smiles>
COCCOCC(CC1(CCCC1)C(=O)NC2CCC(CC2)C(=O)O)C(=O)Oc3ccc4CCCc4c3

> <Molecular_Weight>
515.63834

> <Frequency>
1

$$$$

  SciTegic          2D

 41 44  0  0  0  0            999 V2000
   -1.2919    2.9980    0.0000 N   0  0
   -1.2964    1.4973    0.0000 C   0  0
   -2.5034    3.8610    0.0000 C   0  0
   -0.0764    3.8550    0.0000 C   0  0
    0.0000    0.7486    0.0000 C   0  0
   -2.6111    0.7486    0.0000 C   0  0
   -4.0034    3.9081    0.0000 C   0  0
   -2.0364    5.2864    0.0000 N   0  0
   -0.5364    5.2827    0.0000 N   0  0
    1.4214    3.8922    0.0000 C   0  0
    0.0000   -0.7486    0.0000 C   0  0
    1.2964    1.4973    0.0000 N   0  0
   -2.6111   -0.7486    0.0000 C   0  0
   -3.4756    1.2512    0.0000 Cl  0  0
   -4.8888    2.7038    0.0000 C   0  0
   -4.6012    5.2859    0.0000 C   0  0
    2.1400    5.2098    0.0000 O   0  0
   -1.2964   -1.4973    0.0000 C   0  0
    1.2964   -1.4973    0.0000 N   0  0
    2.5929    0.7486    0.0000 C   0  0
   -3.6486   -1.3517    0.0000 Cl  0  0
   -6.3795    2.8698    0.0000 N   0  0
   -6.0919    5.4519    0.0000 C   0  0
    3.6404    5.2471    0.0000 C   0  0
    2.5929   -0.7486    0.0000 C   0  0
    3.8911    1.5017    0.0000 O   0  0
   -6.9811    4.2439    0.0000 C   0  0
   -7.0909    1.9034    0.0000 O   0  0
    3.8911   -1.5017    0.0000 O   0  0
    1.9425    3.0387    0.0000 H   0  0
    2.4211    3.9166    0.0000 H   0  0
   -4.4874    1.7878    0.0000 H   0  0
   -4.0070    6.0902    0.0000 H   0  0
   -1.2934   -2.4973    0.0000 H   0  0
   -6.4930    6.3680    0.0000 H   0  0
    4.1192    6.1250    0.0000 H   0  0
    4.1615    4.3936    0.0000 H   0  0
    4.6401    5.2715    0.0000 H   0  0
    3.8897    2.5017    0.0000 H   0  0
   -7.9750    4.3546    0.0000 H   0  0
    3.8897   -2.5017    0.0000 H   0  0
  1  2  1  0
  1  3  1  0
  1  4  1  0
  2  5  1  0
  2  6  2  0
  3  7  1  0
  3  8  2  0
  4  9  2  0
  4 10  1  0
  5 11  1  0
  5 12  2  0
  6 13  1  0
  6 14  1  0
  7 15  2  0
  7 16  1  0
  8  9  1  0
 10 17  1  0
 11 18  1  0
 11 19  2  0
 12 20  1  0
 13 21  1  0
 13 18  2  0
 15 22  1  0
 16 23  2  0
 17 24  1  0
 19 25  1  0
 20 26  1  0
 20 25  2  0
 22 27  2  0
 22 28  2  0
 23 27  1  0
 25 29  1  0
 10 30  1  0
 10 31  1  0
 15 32  1  0
 16 33  1  0
 18 34  1  0
 23 35  1  0
 24 36  1  0
 24 37  1  0
 24 38  1  0
 26 39  1  0
 27 40  1  0
 29 41  1  0
V    1 0
V    2 1
V    3 2
V    4 3
V    5 4
V    6 5
V    7 6
V    8 7
V    9 8
V   10 9
V   11 10
V   12 11
V   13 12
V   14 13
V   15 14
V   16 15
V   17 16
V   18 17
V   19 18
V   20 19
V   21 20
V   22 21
V   23 22
V   24 23
V   25 24
V   26 25
V   27 26
V   28 27
V   29 28
M  END
> <DSSTox_RID>
66232

> <DSSTox_CID>
27287

> <DSSTox_CID_Parent>
27287

> <DSSTox_Generic_SID>
47287

> <DSSTox_FileID>
864_TXCST2_v1a

> <STRUCTURE_Formula>
C17H12Cl2N6O4

> <STRUCTURE_MolecularWeight>
435.221

> <STRUCTURE_ChemicalType>
defined organic

> <STRUCTURE_TestedForm_DefinedOrganic>
parent

> <STRUCTURE_Shown>
tested chemical

> <TestSubstance_ChemicalName>
6,7-dichloro-5-[3-(methoxymethyl)-5-(1-oxidopyridin-3-yl)-4H-1,2,4-triazol-4-yl]-1,4-dihydroquinoxaline-2,3-dione

> <TestSubstance_CASRN>
197077-55-7

> <TestSubstance_Description>
single chemical compound

> <STRUCTURE_ChemicalName_IUPAC>
6,7-dichloro-5-[3-(methoxymethyl)-5-(1-oxidopyridin-3-yl)-4H-1,2,4-triazol-4-yl]-1,4-dihydroquinoxaline-2,3-dione

> <STRUCTURE_SMILES>
ClC2=C(C(NC4=O)=C(NC4=O)C=C2Cl)N1C(C3=C[N+]([O-])=CC=C3)=NN=C1COC

> <STRUCTURE_Parent_SMILES>
ClC2=C(C(NC4=O)=C(NC4=O)C=C2Cl)N1C(C3=C[N+]([O-])=CC=C3)=NN=C1COC

> <STRUCTURE_InChIS>
InChI=1S/C17H12Cl2N6O4/c1-29-7-11-22-23-15(8-3-2-4-24(28)6-8)25(11)14-12(19)9(18)5-10-13(14)21-17(27)16(26)20-10/h2-6H,7H2,1H3,(H,20,26)(H,21,27)

> <STRUCTURE_InChIKey>
IEMAQDHGZOPMNI-UHFFFAOYSA-N

> <Substance_modify_yyyymmdd>
20100526

> <Coord_Metals>
0

> <Index>
864

> <Canonical_Smiles>
COCc1nnc(c2cccn(=O)c2)n1c3c(Cl)c(Cl)cc4nc(O)c(O)nc34

> <Molecular_Weight>
435.22098

> <Frequency>
1

$$$$

  SciTegic          2D

 83 87  0  0  0  0            999 V2000
   -3.2789   -4.2686    0.0000 C   0  0
   -4.7413   -3.9311    0.0000 C   0  0
   -6.0789   -4.6118    0.0000 C   0  0
   -7.3369   -3.7933    0.0000 C   0  0
   -6.1593   -6.1104    0.0000 C   0  0
   -7.9242   -5.1735    0.0000 C   0  0
   -8.2385   -2.5945    0.0000 C   0  0
   -7.1835   -7.2075    0.0000 N   0  0
   -9.4132   -5.3550    0.0000 C   0  0
   -9.7275   -2.7761    0.0000 C   0  0
   -7.2638   -8.7062    0.0000 C   0  0
   -8.6729   -7.3922    0.0000 C   0  0
  -10.3148   -4.1563    0.0000 C   0  0
   -9.8830   -6.4592    0.0000 Cl  0  0
   -8.6014   -9.3868    0.0000 C   0  0
   -6.2579   -9.3606    0.0000 O   0  0
  -11.5060   -4.3015    0.0000 Cl  0  0
   -8.1666  -10.8224    0.0000 C   0  0
  -10.0622   -9.0456    0.0000 C   0  0
   -9.1925  -11.9168    0.0000 C   0  0
  -11.0880  -10.1400    0.0000 C   0  0
  -10.6532  -11.5756    0.0000 C   0  0
   -8.7574  -13.3532    0.0000 C   0  0
  -12.5495   -9.7986    0.0000 C   0  0
   -7.5890  -13.6269    0.0000 F   0  0
   -9.5784  -14.2284    0.0000 F   0  0
   -8.4101  -14.5018    0.0000 F   0  0
  -12.8981   -8.6504    0.0000 F   0  0
  -13.3699  -10.6744    0.0000 F   0  0
  -13.7181   -9.5262    0.0000 F   0  0
   -1.5787   -6.1553    0.0000 C   0  0
   -1.3306   -7.6061    0.0000 C   0  0
   -0.5716   -4.8956    0.0000 C   0  0
   -3.4093   -5.9207    0.0000 C   0  0
   -2.8369   -5.6980    0.0000 N   0  3
   -2.6209   -6.9885    0.0000 C   0  0
   -1.8987   -4.3438    0.0000 C   0  0
   -4.3709   -5.2792    0.0000 C   0  0
   -0.2627   -5.4452    0.0000 C   0  0
   -0.3402   -6.9229    0.0000 C   0  0
    1.0214   -4.7102    0.0000 C   0  0
    0.9373   -7.7090    0.0000 C   0  0
    2.2989   -5.4963    0.0000 C   0  0
    2.2569   -6.9957    0.0000 C   0  0
   -3.5715   -3.3124    0.0000 H   0  0
   -2.5972   -3.5370    0.0000 H   0  0
   -5.5798   -3.3862    0.0000 H   0  0
   -4.6888   -2.9325    0.0000 H   0  0
   -6.9704   -5.0648    0.0000 H   0  0
   -5.3211   -6.6558    0.0000 H   0  0
   -6.2123   -7.1090    0.0000 H   0  0
   -7.3231   -5.9727    0.0000 H   0  0
   -7.8470   -1.6744    0.0000 H   0  0
  -10.3286   -1.9769    0.0000 H   0  0
   -9.0631   -8.3129    0.0000 H   0  0
   -9.6653   -7.5147    0.0000 H   0  0
   -9.2754   -6.5940    0.0000 H   0  0
   -7.1929  -11.0499    0.0000 H   0  0
  -10.3521   -8.0886    0.0000 H   0  0
  -11.3370  -12.3052    0.0000 H   0  0
   -0.3366   -7.4969    0.0000 H   0  0
   -1.7073   -8.5325    0.0000 H   0  0
    0.1318   -5.6064    0.0000 H   0  0
   -0.2971   -3.9340    0.0000 H   0  0
   -2.7349   -6.6591    0.0000 H   0  0
   -4.4027   -6.0354    0.0000 H   0  0
   -3.5301   -6.5721    0.0000 H   0  0
   -2.4726   -7.9775    0.0000 H   0  0
   -1.6066   -5.3001    0.0000 H   0  0
   -1.2007   -3.6277    0.0000 H   0  0
   -4.4899   -4.2863    0.0000 H   0  0
   -5.1983   -5.8407    0.0000 H   0  0
   -0.2355   -4.4456    0.0000 H   0  0
   -1.1731   -6.3696    0.0000 H   0  0
   -0.3579   -7.9227    0.0000 H   0  0
    1.0281   -5.7102    0.0000 H   0  0
    1.9060   -4.2437    0.0000 H   0  0
    0.0466   -8.1636    0.0000 H   0  0
    1.8011   -8.2129    0.0000 H   0  0
    3.1380   -6.0403    0.0000 H   0  0
    2.3035   -4.4963    0.0000 H   0  0
    2.2053   -7.9944    0.0000 H   0  0
    3.1252   -6.4996    0.0000 H   0  0
  1  2  1  0
  1 35  1  0
  2  3  1  0
  3  4  1  0
  3  5  1  0
  4  6  2  0
  4  7  1  0
  5  8  1  0
  6  9  1  0
  7 10  2  0
  8 11  1  0
  8 12  1  0
  9 13  2  0
  9 14  1  0
 10 13  1  0
 11 15  1  0
 11 16  2  0
 13 17  1  0
 15 18  2  0
 15 19  1  0
 18 20  1  0
 19 21  2  0
 20 22  2  0
 20 23  1  0
 21 24  1  0
 21 22  1  0
 23 25  1  0
 23 26  1  0
 23 27  1  0
 24 28  1  0
 24 29  1  0
 24 30  1  0
 31 32  1  0
 31 33  1  0
 31 34  1  0
 31 39  1  0
 32 36  1  0
 33 37  1  0
 34 38  1  0
 35 36  1  0
 35 37  1  0
 35 38  1  0
 39 40  1  0
 39 41  1  0
 40 42  1  0
 41 43  1  0
 42 44  1  0
 43 44  1  0
  1 45  1  0
  1 46  1  0
  2 47  1  0
  2 48  1  0
  3 49  1  0
  5 50  1  0
  5 51  1  0
  6 52  1  0
  7 53  1  0
 10 54  1  0
 12 55  1  0
 12 56  1  0
 12 57  1  0
 18 58  1  0
 19 59  1  0
 22 60  1  0
 32 61  1  0
 32 62  1  0
 33 63  1  0
 33 64  1  0
 34 65  1  0
 34 66  1  0
 36 67  1  0
 36 68  1  0
 37 69  1  0
 37 70  1  0
 38 71  1  0
 38 72  1  0
 39 73  1  0
 40 74  1  0
 40 75  1  0
 41 76  1  0
 41 77  1  0
 42 78  1  0
 42 79  1  0
 43 80  1  0
 43 81  1  0
 44 82  1  0
 44 83  1  0
M  CHG  1  35   1
V    1 0
V    2 1
V    3 2
V    4 3
V    5 4
V    6 5
V    7 6
V    8 7
V    9 8
V   10 9
V   11 10
V   12 11
V   13 12
V   14 13
V   15 14
V   16 15
V   17 16
V   18 17
V   19 18
V   20 19
V   21 20
V   22 21
V   23 22
V   24 23
V   25 24
V   26 25
V   27 26
V   28 27
V   29 28
V   30 29
V   31 30
V   32 31
V   33 32
V   34 33
V   35 34
V   36 35
V   37 36
V   38 37
V   39 38
V   40 39
V   41 40
V   42 41
V   43 42
V   44 43
M  END
> <DSSTox_RID>
66233

> <DSSTox_CID>
27288

> <DSSTox_Generic_SID>
47288

> <DSSTox_FileID>
865_TXCST2_v1a

> <STRUCTURE_Formula>
C34H42Cl2F6N2O4S

> <STRUCTURE_MolecularWeight>
759.6697

> <STRUCTURE_ChemicalType>
defined organic

> <STRUCTURE_TestedForm_DefinedOrganic>
complex methylsulfonate

> <STRUCTURE_Shown>
tested chemical

> <TestSubstance_ChemicalName>
1-[(3S)-4-[{[3,5-bis(trifluoromethyl)phenyl]carbonyl}(methyl)amino]-3-(3,4-dichlorophenyl)butyl]-4-cyclohexyl-1-azoniabicyclo[2.2.2]octane methanesulfonate

> <TestSubstance_CASRN>
203942-49-8

> <TestSubstance_Description>
single chemical compound

> <ChemicalNote>
ammonium; stereochem

> <STRUCTURE_ChemicalName_IUPAC>
1-[(3S)-4-[{[3,5-bis(trifluoromethyl)phenyl]carbonyl}(methyl)amino]-3-(3,4-dichlorophenyl)butyl]-4-cyclohexyl-1-azoniabicyclo[2.2.2]octane methanesulfonate

> <STRUCTURE_SMILES>
ClC1=C(Cl)C=C[C@]([C@@H](CN(C)C(C3=CC(C(F)(F)F)=CC(C(F)(F)F)=C3)=O)CC[N+]24CCC(CC4)(C5CCCCC5)CC2)=C1.O=S([O-])(C)=O

> <STRUCTURE_Parent_SMILES>
ClC1=C(Cl)C=C[C@]([C@@H](CN(C)C(C3=CC(C(F)(F)F)=CC(C(F)(F)F)=C3)=O)CC[N+]24CCC(CC4)(C5CCCCC5)CC2)=C1

> <STRUCTURE_InChIS>
InChI=1S/C33H39Cl2F6N2O.CH4O3S/c1-42(30(44)24-17-26(32(36,37)38)20-27(18-24)33(39,40)41)21-23(22-7-8-28(34)29(35)19-22)9-13-43-14-10-31(11-15-43,12-16-43)25-5-3-2-4-6-25;1-5(2,3)4/h7-8,17-20,23,25H,2-
6,9-16,21H2,1H3;1H3,(H,2,3,4)/q+1;/p-1/t23-,31?,43?;/m1./s1

> <STRUCTURE_InChIKey>
JEJYYKZPVIEEAS-MWLZSUMNSA-M

> <Substance_modify_yyyymmdd>
20100526

> <Coord_Metals>
0

> <Index>
865

> <Canonical_Smiles>
CN(CC(CC[N+]12CCC(CC1)(CC2)C3CCCCC3)c4ccc(Cl)c(Cl)c4)C(=O)c5cc(cc(c5)C(F)(F)F)C(F)(F)F

> <Molecular_Weight>
664.57197

> <Frequency>
1

$$$$

  SciTegic          2D

 75 79  0  0  0  0            999 V2000
    0.2917    0.7475    0.0000 C   0  0
    0.2917   -0.7475    0.0000 C   0  0
    1.7138    1.2033    0.0000 C   0  0
   -1.0028    1.5132    0.0000 N   0  0
    1.7138   -1.2033    0.0000 N   0  0
   -1.0028   -1.5132    0.0000 C   0  0
    2.5889    0.0182    0.0000 N   0  0
    2.1783    2.6281    0.0000 C   0  0
   -2.3155    0.7475    0.0000 C   0  0
   -2.3155   -0.7475    0.0000 N   0  0
   -0.9971   -3.0138    0.0000 O   0  0
    4.0872    0.0351    0.0000 C   0  0
    1.1759    3.7451    0.0000 C   0  0
   -3.6168    1.4950    0.0000 C   0  0
    4.8236    1.3429    0.0000 C   0  0
   -4.9144    0.7421    0.0000 C   0  0
   -3.6204    2.9950    0.0000 C   0  0
    6.3235    1.3590    0.0000 C   0  0
    4.0597    2.6338    0.0000 N   0  0
   -6.2151    1.4892    0.0000 C   0  0
   -4.9142   -0.7587    0.0000 O   0  0
   -4.9211    3.7421    0.0000 C   0  0
    7.0595    2.6660    0.0000 C   0  0
    4.7957    3.9408    0.0000 C   0  0
   -6.2185    2.9892    0.0000 C   0  0
   -6.2134   -1.5101    0.0000 C   0  0
   -4.9245    5.2429    0.0000 S   0  0
    6.2956    3.9569    0.0000 C   0  0
   -6.2133   -3.0109    0.0000 C   0  0
   -3.6269    5.9970    0.0000 N   0  0
   -5.9652    5.8402    0.0000 O   0  0
   -5.9623    4.6404    0.0000 O   0  0
   -7.5125   -3.7623    0.0000 C   0  0
   -2.3257    5.2508    0.0000 C   0  0
   -3.6312    7.4970    0.0000 C   0  0
   -1.0288    6.0045    0.0000 C   0  0
   -2.3343    8.2508    0.0000 C   0  0
   -1.0331    7.5045    0.0000 N   0  0
    0.2645    8.2587    0.0000 C   0  0
    1.5668    7.5128    0.0000 C   0  0
    3.1567    2.8347    0.0000 H   0  0
    2.8465    1.8841    0.0000 H   0  0
   -1.8609   -3.5176    0.0000 H   0  0
    4.5968   -0.8253    0.0000 H   0  0
    3.5970   -0.8365    0.0000 H   0  0
    1.4859    4.6958    0.0000 H   0  0
    0.1974    3.5385    0.0000 H   0  0
    0.5076    4.4890    0.0000 H   0  0
   -2.7555    3.4970    0.0000 H   0  0
    6.8328    0.4984    0.0000 H   0  0
   -7.0800    0.9872    0.0000 H   0  0
    8.0594    2.6768    0.0000 H   0  0
    4.2864    4.8014    0.0000 H   0  0
   -7.0856    3.4872    0.0000 H   0  0
   -7.0797   -1.0105    0.0000 H   0  0
   -6.2140   -0.5101    0.0000 H   0  0
    6.7862    4.8283    0.0000 H   0  0
   -5.3470   -3.5106    0.0000 H   0  0
   -5.3474   -2.5107    0.0000 H   0  0
   -7.5124   -4.7623    0.0000 H   0  0
   -8.3787   -3.2627    0.0000 H   0  0
   -8.3784   -4.2625    0.0000 H   0  0
   -1.4467    4.7739    0.0000 H   0  0
   -3.2018    4.7687    0.0000 H   0  0
   -3.6105    8.4968    0.0000 H   0  0
   -4.4837    6.9744    0.0000 H   0  0
   -1.8843    6.5224    0.0000 H   0  0
   -0.1763    6.5272    0.0000 H   0  0
   -2.3078    7.2511    0.0000 H   0  0
   -1.4582    8.7328    0.0000 H   0  0
    0.2613    9.2587    0.0000 H   0  0
    0.2675    7.2587    0.0000 H   0  0
    2.4314    8.0153    0.0000 H   0  0
    1.5700    6.5128    0.0000 H   0  0
    2.4344    7.0154    0.0000 H   0  0
  1  2  1  0
  1  3  2  0
  1  4  1  0
  2  5  2  0
  2  6  1  0
  3  7  1  0
  3  8  1  0
  4  9  2  0
  5  7  1  0
  6 10  2  0
  6 11  1  0
  7 12  1  0
  8 13  1  0
  9 14  1  0
  9 10  1  0
 12 15  1  0
 14 16  2  0
 14 17  1  0
 15 18  2  0
 15 19  1  0
 16 20  1  0
 16 21  1  0
 17 22  2  0
 18 23  1  0
 19 24  2  0
 20 25  2  0
 21 26  1  0
 22 27  1  0
 22 25  1  0
 23 28  2  0
 24 28  1  0
 26 29  1  0
 27 30  1  0
 27 31  2  0
 27 32  2  0
 29 33  1  0
 30 34  1  0
 30 35  1  0
 34 36  1  0
 35 37  1  0
 36 38  1  0
 37 38  1  0
 38 39  1  0
 39 40  1  0
  8 41  1  0
  8 42  1  0
 11 43  1  0
 12 44  1  0
 12 45  1  0
 13 46  1  0
 13 47  1  0
 13 48  1  0
 17 49  1  0
 18 50  1  0
 20 51  1  0
 23 52  1  0
 24 53  1  0
 25 54  1  0
 26 55  1  0
 26 56  1  0
 28 57  1  0
 29 58  1  0
 29 59  1  0
 33 60  1  0
 33 61  1  0
 33 62  1  0
 34 63  1  0
 34 64  1  0
 35 65  1  0
 35 66  1  0
 36 67  1  0
 36 68  1  0
 37 69  1  0
 37 70  1  0
 39 71  1  0
 39 72  1  0
 40 73  1  0
 40 74  1  0
 40 75  1  0
V    1 0
V    2 1
V    3 2
V    4 3
V    5 4
V    6 5
V    7 6
V    8 7
V    9 8
V   10 9
V   11 10
V   12 11
V   13 12
V   14 13
V   15 14
V   16 15
V   17 16
V   18 17
V   19 18
V   20 19
V   21 20
V   22 21
V   23 22
V   24 23
V   25 24
V   26 25
V   27 26
V   28 27
V   29 28
V   30 29
V   31 30
V   32 31
V   33 32
V   34 33
V   35 34
V   36 35
V   37 36
V   38 37
V   39 38
V   40 39
M  END
> <DSSTox_RID>
66234

> <DSSTox_CID>
27289

> <DSSTox_CID_Parent>
27289

> <DSSTox_Generic_SID>
47289

> <DSSTox_FileID>
866_TXCST2_v1a

> <STRUCTURE_Formula>
C28H35N7O4S

> <STRUCTURE_MolecularWeight>
565.687

> <STRUCTURE_ChemicalType>
defined organic

> <STRUCTURE_TestedForm_DefinedOrganic>
parent

> <STRUCTURE_Shown>
tested chemical

> <TestSubstance_ChemicalName>
3-ethyl-5-{5-[(4-ethylpiperazin-1-yl)sulfonyl]-2-propoxyphenyl}-2-(pyridin-2-ylmethyl)-2,6-dihydro-7H-pyrazolo[4,3-d]pyrimidin-7-one

> <TestSubstance_CASRN>
215297-27-1

> <TestSubstance_Description>
single chemical compound

> <STRUCTURE_ChemicalName_IUPAC>
3-ethyl-5-{5-[(4-ethylpiperazin-1-yl)sulfonyl]-2-propoxyphenyl}-2-(pyridin-2-ylmethyl)-2,6-dihydro-7H-pyrazolo[4,3-d]pyrimidin-7-one

> <STRUCTURE_SMILES>
O=C(N3)C1=NN(CC4=CC=CC=N4)C(CC)=C1N=C3C2=C(OCCC)C=CC(S(N5CCN(CC)CC5)(=O)=O)=C2

> <STRUCTURE_Parent_SMILES>
O=C(N3)C1=NN(CC4=CC=CC=N4)C(CC)=C1N=C3C2=C(OCCC)C=CC(S(N5CCN(CC)CC5)(=O)=O)=C2

> <STRUCTURE_InChIS>
InChI=1S/C28H35N7O4S/c1-4-17-39-24-11-10-21(40(37,38)34-15-13-33(6-3)14-16-34)18-22(24)27-30-25-23(5-2)35(32-26(25)28(36)31-27)19-20-9-7-8-12-29-20/h7-12,18H,4-6,13-17,19H2,1-3H3,(H,30,31,36)

> <STRUCTURE_InChIKey>
NIBCDDKWFDEBEP-UHFFFAOYSA-N

> <Substance_modify_yyyymmdd>
20100526

> <Coord_Metals>
0

> <Index>
866

> <Canonical_Smiles>
CCCOc1ccc(cc1c2nc(O)c3nn(Cc4ccccn4)c(CC)c3n2)S(=O)(=O)N5CCN(CC)CC5

> <Molecular_Weight>
565.68699

> <Frequency>
1

$$$$

  SciTegic          2D

 46 47  0  0  0  0            999 V2000
    1.2990   -0.7500    0.0000 C   0  0
    1.2990    0.7500    0.0000 C   0  0
    0.0000   -1.5000    0.0000 C   0  0
    0.0000    1.5000    0.0000 C   0  0
   -1.2990   -0.7500    0.0000 C   0  0
   -1.2990    0.7500    0.0000 C   0  0
   -2.5988   -1.5004    0.0000 S   0  0
    2.5988   -1.5004    0.0000 C   0  0
    2.5972    1.5031    0.0000 O   0  0
    2.5951    3.0039    0.0000 C   0  0
    3.8915    3.7585    0.0000 C   0  0
    1.2934    3.7495    0.0000 C   0  0
    3.8863    5.2585    0.0000 C   0  0
    1.2883    5.2495    0.0000 C   0  0
    2.5847    6.0040    0.0000 C   0  0
    2.5764    7.5048    0.0000 S   0  0
    5.1835    6.0134    0.0000 C   0  0
    1.2730    8.2489    0.0000 C   0  0
   -3.6378   -0.9001    0.0000 O   0  0
   -2.5997   -3.0012    0.0000 N   0  0
   -3.6383   -2.0999    0.0000 O   0  0
    3.8990   -0.7508    0.0000 N   0  0
    5.1988   -1.5012    0.0000 C   0  0
    3.9026    0.7500    0.0000 C   0  0
    0.0000   -2.5000    0.0000 H   0  0
    0.0000    2.5000    0.0000 H   0  0
   -2.1651    1.2500    0.0000 H   0  0
    3.4646   -2.0008    0.0000 H   0  0
    2.5985   -2.5004    0.0000 H   0  0
    4.7593    3.2615    0.0000 H   0  0
    0.4291    3.2465    0.0000 H   0  0
    0.4205    5.7465    0.0000 H   0  0
    6.0515    5.5170    0.0000 H   0  0
    5.1797    7.0134    0.0000 H   0  0
    6.0475    6.5168    0.0000 H   0  0
    1.2675    9.2489    0.0000 H   0  0
    0.4096    7.7444    0.0000 H   0  0
    0.4043    8.7442    0.0000 H   0  0
   -3.4658   -3.5012    0.0000 H   0  0
   -1.7339   -3.5015    0.0000 H   0  0
    6.0651   -1.0018    0.0000 H   0  0
    6.0646   -2.0016    0.0000 H   0  0
    5.1985   -2.5012    0.0000 H   0  0
    4.7695    1.2485    0.0000 H   0  0
    3.9045    1.7500    0.0000 H   0  0
    3.0376    1.2518    0.0000 H   0  0
  1  2  1  0
  1  3  2  0
  1  8  1  0
  2  4  2  0
  2  9  1  0
  3  5  1  0
  4  6  1  0
  5  6  2  0
  5  7  1  0
  7 19  2  0
  7 20  1  0
  7 21  2  0
  8 22  1  0
  9 10  1  0
 10 11  1  0
 10 12  2  0
 11 13  2  0
 12 14  1  0
 13 15  1  0
 13 17  1  0
 14 15  2  0
 15 16  1  0
 16 18  1  0
 22 23  1  0
 22 24  1  0
  3 25  1  0
  4 26  1  0
  6 27  1  0
  8 28  1  0
  8 29  1  0
 11 30  1  0
 12 31  1  0
 14 32  1  0
 17 33  1  0
 17 34  1  0
 17 35  1  0
 18 36  1  0
 18 37  1  0
 18 38  1  0
 20 39  1  0
 20 40  1  0
 23 41  1  0
 23 42  1  0
 23 43  1  0
 24 44  1  0
 24 45  1  0
 24 46  1  0
V    1 0
V    2 1
V    3 2
V    4 3
V    5 4
V    6 5
V    7 6
V    8 7
V    9 8
V   10 9
V   11 10
V   12 11
V   13 12
V   14 13
V   15 14
V   16 15
V   17 16
V   18 17
V   19 18
V   20 19
V   21 20
V   22 21
V   23 22
V   24 23
M  END
> <DSSTox_RID>
66235

> <DSSTox_CID>
27290

> <DSSTox_CID_Parent>
27290

> <DSSTox_Generic_SID>
47290

> <DSSTox_FileID>
867_TXCST2_v1a

> <STRUCTURE_Formula>
C17H22N2O3S2

> <STRUCTURE_MolecularWeight>
366.4982

> <STRUCTURE_ChemicalType>
defined organic

> <STRUCTURE_TestedForm_DefinedOrganic>
parent

> <STRUCTURE_Shown>
tested chemical

> <TestSubstance_ChemicalName>
3-[(dimethylamino)methyl]-4-[3-methyl-4-(methylsulfanyl)phenoxy]benzenesulfonamide

> <TestSubstance_CASRN>
402910-27-4

> <TestSubstance_Description>
single chemical compound

> <STRUCTURE_ChemicalName_IUPAC>
3-[(dimethylamino)methyl]-4-[3-methyl-4-(methylsulfanyl)phenoxy]benzenesulfonamide

> <STRUCTURE_SMILES>
O=S(C1=CC=C(OC2=CC=C(SC)C(C)=C2)C(CN(C)C)=C1)(N)=O

> <STRUCTURE_Parent_SMILES>
O=S(C1=CC=C(OC2=CC=C(SC)C(C)=C2)C(CN(C)C)=C1)(N)=O

> <STRUCTURE_InChIS>
InChI=1S/C17H22N2O3S2/c1-12-9-14(5-8-17(12)23-4)22-16-7-6-15(24(18,20)21)10-13(16)11-19(2)3/h5-10H,11H2,1-4H3,(H2,18,20,21)

> <STRUCTURE_InChIKey>
QIWQQMZFTOCFGF-UHFFFAOYSA-N

> <Substance_modify_yyyymmdd>
20100526

> <Coord_Metals>
0

> <Index>
867

> <Canonical_Smiles>
CSc1ccc(Oc2ccc(cc2CN(C)C)S(=O)(=O)N)cc1C

> <Molecular_Weight>
366.49818

> <Frequency>
1

$$$$

  SciTegic          2D

 49 53  0  0  0  0            999 V2000
   -1.6300    1.1500    0.0000 C   0  0
   -1.6300   -0.4000    0.0000 C   0  0
   -0.4100    2.0900    0.0000 N   0  0
   -2.9600    1.9100    0.0000 C   0  0
   -0.4100   -1.3100    0.0000 C   0  0
   -2.9600   -1.1200    0.0000 C   0  0
    1.0600    1.7700    0.0000 C   0  0
   -0.7200    3.5800    0.0000 C   0  0
   -2.9700    3.4300    0.0000 C   0  0
   -4.2600    1.1400    0.0000 C   0  0
   -0.7181   -2.7788    0.0000 C   0  0
    1.0600   -0.9700    0.0000 N   0  0
   -4.2600   -0.3700    0.0000 C   0  0
    1.7400    0.4000    0.0000 C   0  0
    1.7978    2.7164    0.0000 O   0  0
    0.4622   -3.7121    0.0000 C   0  0
   -2.1088   -3.3381    0.0000 C   0  0
   -5.5599   -1.1201    0.0000 N   0  0
    2.4392   -0.8999    0.0000 N   0  0
    0.2463   -5.1964    0.0000 C   0  0
   -2.3247   -4.8224    0.0000 C   0  0
    3.9373   -0.9909    0.0000 C   0  0
   -1.1472   -5.7516    0.0000 C   0  0
    4.6084   -2.3333    0.0000 C   0  0
    4.5988    0.0103    0.0000 O   0  0
    6.1055   -2.4264    0.0000 C   0  0
    3.7793   -3.5834    0.0000 C   0  0
    6.7735   -3.7695    0.0000 C   0  0
    4.4473   -4.9265    0.0000 N   0  0
    5.9444   -5.0195    0.0000 C   0  0
   -2.9735   -2.1199    0.0000 H   0  0
   -1.1149    4.4987    0.0000 H   0  0
    0.2710    3.4463    0.0000 H   0  0
   -2.7413    4.4035    0.0000 H   0  0
   -3.9242    3.1310    0.0000 H   0  0
   -5.1288    1.6352    0.0000 H   0  0
    2.2138    1.2806    0.0000 H   0  0
    1.3914   -3.3424    0.0000 H   0  0
   -2.8948   -2.7199    0.0000 H   0  0
   -6.4261   -0.6204    0.0000 H   0  0
   -5.5598   -2.1201    0.0000 H   0  0
    1.8879   -1.7342    0.0000 H   0  0
    1.0313   -5.8159    0.0000 H   0  0
   -3.2537   -5.1926    0.0000 H   0  0
   -1.2911   -6.7412    0.0000 H   0  0
    6.6583   -1.5931    0.0000 H   0  0
    2.7812   -3.5215    0.0000 H   0  0
    7.7716   -3.8315    0.0000 H   0  0
    6.3897   -5.9149    0.0000 H   0  0
  1  2  2  0
  1  3  1  0
  1  4  1  0
  2  5  1  0
  2  6  1  0
  3  7  1  0
  3  8  1  0
  4  9  1  0
  4 10  2  0
  5 11  1  0
  5 12  2  0
  6 13  2  0
  7 14  1  0
  7 15  2  0
  8  9  1  0
 10 13  1  0
 11 16  1  0
 11 17  2  0
 12 14  1  0
 13 18  1  0
 14 19  1  0
 16 20  2  0
 17 21  1  0
 19 22  1  0
 20 23  1  0
 21 23  2  0
 22 24  1  0
 22 25  2  0
 24 26  2  0
 24 27  1  0
 26 28  1  0
 27 29  2  0
 28 30  2  0
 29 30  1  0
  6 31  1  0
  8 32  1  0
  8 33  1  0
  9 34  1  0
  9 35  1  0
 10 36  1  0
 14 37  1  0
 16 38  1  0
 17 39  1  0
 18 40  1  0
 18 41  1  0
 19 42  1  0
 20 43  1  0
 21 44  1  0
 23 45  1  0
 26 46  1  0
 27 47  1  0
 28 48  1  0
 30 49  1  0
V    1 0
V    2 1
V    3 2
V    4 3
V    5 4
V    6 5
V    7 6
V    8 7
V    9 8
V   10 9
V   11 10
V   12 11
V   13 12
V   14 13
V   15 14
V   16 15
V   17 16
V   18 17
V   19 18
V   20 19
V   21 20
V   22 21
V   23 22
V   24 23
V   25 24
V   26 25
V   27 26
V   28 27
V   29 28
V   30 29
M  END
> <DSSTox_RID>
66236

> <DSSTox_CID>
27291

> <DSSTox_CID_Parent>
27291

> <DSSTox_Generic_SID>
47291

> <DSSTox_FileID>
868_TXCST2_v1a

> <STRUCTURE_Formula>
C23H19N5O2

> <STRUCTURE_MolecularWeight>
397.4293

> <STRUCTURE_ChemicalType>
defined organic

> <STRUCTURE_TestedForm_DefinedOrganic>
parent

> <STRUCTURE_Shown>
tested chemical

> <TestSubstance_ChemicalName>
N-[(3R)-9-amino-4-oxo-1-phenyl-3,4,6,7-tetrahydro[1,4]diazepino[6,7,1-hi]indol-3-yl]pyridine-3-carboxamide

> <TestSubstance_CASRN>
NOCAS_47291

> <TestSubstance_Description>
single chemical compound

> <ChemicalNote>
tautomers; stereochem

> <STRUCTURE_ChemicalName_IUPAC>
N-[(3R)-9-amino-4-oxo-1-phenyl-3,4,6,7-tetrahydro[1,4]diazepino[6,7,1-hi]indol-3-yl]pyridine-3-carboxamide

> <STRUCTURE_SMILES>
O=C1N(CC3)C(C3=CC(N)=C2)=C2C(C4=CC=CC=C4)=N[C@H]1NC(C5=CC=CN=C5)=O

> <STRUCTURE_Parent_SMILES>
O=C1N(CC3)C(C3=CC(N)=C2)=C2C(C4=CC=CC=C4)=N[C@H]1NC(C5=CC=CN=C5)=O

> <STRUCTURE_InChIS>
InChI=1S/C23H19N5O2/c24-17-11-15-8-10-28-20(15)18(12-17)19(14-5-2-1-3-6-14)26-21(23(28)30)27-22(29)16-7-4-9-25-13-16/h1-7,9,11-13,21H,8,10,24H2,(H,27,29)/t21-/m0/s1

> <STRUCTURE_InChIKey>
XGXOSJSGDNPEEF-NRFANRHFSA-N

> <Substance_modify_yyyymmdd>
20100526

> <Coord_Metals>
0

> <Index>
868

> <Canonical_Smiles>
Nc1cc2CCN3C(=O)C(NC(=O)c4cccnc4)N=C(c5ccccc5)c(c1)c23

> <Molecular_Weight>
397.42926

> <Frequency>
1

$$$$

  SciTegic          2D

 32 33  0  0  0  0            999 V2000
    1.2990   -0.7500    0.0000 C   0  0
    2.7506   -0.4572    0.0000 C   0  0
    1.2990    0.7500    0.0000 C   0  0
    0.0000   -1.5000    0.0000 C   0  0
    1.7710   -2.1532    0.0000 C   0  0
    3.7162   -1.6062    0.0000 C   0  0
    0.0000    1.5000    0.0000 C   0  0
   -1.2990   -0.7500    0.0000 C   0  0
    0.8068   -3.3033    0.0000 N   0  0
    3.3403   -3.0451    0.0000 N   0  0
    5.1983   -1.4836    0.0000 N   0  0
   -1.2990    0.7500    0.0000 C   0  0
    4.6129   -3.8390    0.0000 C   0  0
    5.7613   -2.8740    0.0000 O   0  0
    4.7217   -5.3333    0.0000 O   0  0
    3.7353   -0.2830    0.0000 H   0  0
    3.0922    0.4826    0.0000 H   0  0
    2.1530    0.2297    0.0000 H   0  0
    1.2755    1.7497    0.0000 H   0  0
   -0.8776   -1.9794    0.0000 H   0  0
    0.8775   -1.9795    0.0000 H   0  0
    2.4136   -1.3870    0.0000 H   0  0
    2.7558   -2.3267    0.0000 H   0  0
    0.8776    1.9794    0.0000 H   0  0
   -0.8775    1.9795    0.0000 H   0  0
   -2.1530   -0.2297    0.0000 H   0  0
   -1.2755   -1.7497    0.0000 H   0  0
    1.1486   -4.2431    0.0000 H   0  0
   -0.1781   -3.1298    0.0000 H   0  0
   -1.2755    1.7497    0.0000 H   0  0
   -2.1531    0.2298    0.0000 H   0  0
    5.6214   -5.7697    0.0000 H   0  0
  1  2  1  0
  1  3  1  0
  1  4  1  0
  1  5  1  0
  2  6  1  0
  3  7  1  0
  4  8  1  0
  5  9  1  0
  6 10  1  0
  6 11  2  0
  7 12  1  0
  8 12  1  0
 10 13  2  0
 11 14  1  0
 13 15  1  0
 13 14  1  0
  2 16  1  0
  2 17  1  0
  3 18  1  0
  3 19  1  0
  4 20  1  0
  4 21  1  0
  5 22  1  0
  5 23  1  0
  7 24  1  0
  7 25  1  0
  8 26  1  0
  8 27  1  0
  9 28  1  0
  9 29  1  0
 12 30  1  0
 12 31  1  0
 15 32  1  0
V    1 0
V    2 1
V    3 2
V    4 3
V    5 4
V    6 5
V    7 6
V    8 7
V    9 8
V   10 9
V   11 10
V   12 11
V   13 12
V   14 13
V   15 14
M  END
> <DSSTox_RID>
66238

> <DSSTox_CID>
27292

> <DSSTox_CID_Parent>
27293

> <DSSTox_Generic_SID>
47292

> <DSSTox_FileID>
869_TXCST2_v1a

> <STRUCTURE_Formula>
C10H18ClN3O2

> <STRUCTURE_MolecularWeight>
247.7218

> <STRUCTURE_ChemicalType>
defined organic

> <STRUCTURE_TestedForm_DefinedOrganic>
complex HCl

> <STRUCTURE_Shown>
tested chemical

> <TestSubstance_ChemicalName>
3-{[1-(aminomethyl)cyclohexyl]methyl}-1,2,4-oxadiazol-5(4H)-one hydrochloride

> <TestSubstance_CASRN>
NOCAS_47292

> <TestSubstance_Description>
single chemical compound

> <ChemicalNote>
tautomers

> <STRUCTURE_ChemicalName_IUPAC>
3-{[1-(aminomethyl)cyclohexyl]methyl}-1,2,4-oxadiazol-5(4H)-one hydrochloride

> <STRUCTURE_SMILES>
NCC1(CCCCC1)CC(N2)=NOC2=O.Cl

> <STRUCTURE_Parent_SMILES>
NCC1(CCCCC1)CC(N2)=NOC2=O

> <STRUCTURE_InChIS>
InChI=1S/C10H17N3O2.ClH/c11-7-10(4-2-1-3-5-10)6-8-12-9(14)15-13-8;/h1-7,11H2,(H,12,13,14);1H

> <STRUCTURE_InChIKey>
IHLRLJMHYXJRST-UHFFFAOYSA-N

> <Substance_modify_yyyymmdd>
20100526

> <Coord_Metals>
0

> <Index>
869

> <Canonical_Smiles>
NCC1(Cc2noc(O)n2)CCCCC1

> <Molecular_Weight>
211.26087

> <Frequency>
1

$$$$

  SciTegic          2D

 39 42  0  0  0  0            999 V2000
   -3.6168    1.4950    0.0000 C   0  0
   -4.9669    0.8708    0.0000 C   0  0
   -2.1383    1.2377    0.0000 C   0  0
   -3.7582    2.9755    0.0000 O   0  0
   -5.2668   -0.5997    0.0000 C   0  0
   -5.9732    1.9832    0.0000 N   0  0
   -1.1667    2.4062    0.0000 C   0  0
   -1.6270   -0.1672    0.0000 C   0  0
   -5.2262    3.2840    0.0000 C   0  0
   -4.2294   -1.6758    0.0000 C   0  0
   -6.7258   -0.9560    0.0000 C   0  0
    0.3116    2.1294    0.0000 N   0  0
   -0.1315   -0.4378    0.0000 C   0  0
   -4.6449   -3.1171    0.0000 C   0  0
   -3.0647   -1.3868    0.0000 F   0  0
   -7.1413   -2.3973    0.0000 C   0  0
    0.8230    0.7245    0.0000 C   0  0
    1.4921    3.0441    0.0000 C   0  0
   -6.1009   -3.4778    0.0000 C   0  0
   -8.3061   -2.6860    0.0000 F   0  0
    2.3152    0.7826    0.0000 N   0  0
    2.7198    2.2298    0.0000 N   0  0
    1.4412    4.5418    0.0000 C   0  0
    0.1172    5.2486    0.0000 C   0  0
    2.7150    5.3353    0.0000 C   0  0
   -1.5058    3.3469    0.0000 H   0  0
   -2.2715   -0.9318    0.0000 H   0  0
   -5.6350    4.1966    0.0000 H   0  0
   -7.4182   -0.2346    0.0000 H   0  0
    0.2134   -1.3764    0.0000 H   0  0
   -3.9513   -3.8374    0.0000 H   0  0
   -6.3779   -4.4387    0.0000 H   0  0
    0.5925    4.0130    0.0000 H   0  0
    0.0834    6.2480    0.0000 H   0  0
   -0.7315    4.7198    0.0000 H   0  0
   -0.7651    5.7191    0.0000 H   0  0
    2.6821    6.3348    0.0000 H   0  0
    3.5972    4.8644    0.0000 H   0  0
    3.5640    5.8637    0.0000 H   0  0
  1  2  2  0
  1  3  1  0
  1  4  1  0
  2  5  1  0
  2  6  1  0
  3  7  2  0
  3  8  1  0
  4  9  1  0
  5 10  1  0
  5 11  2  0
  6  9  2  0
  7 12  1  0
  8 13  2  0
 10 14  2  0
 10 15  1  0
 11 16  1  0
 12 17  1  0
 12 18  1  0
 13 17  1  0
 14 19  1  0
 16 20  1  0
 16 19  2  0
 17 21  2  0
 18 22  2  0
 18 23  1  0
 21 22  1  0
 23 24  1  0
 23 25  1  0
  7 26  1  0
  8 27  1  0
  9 28  1  0
 11 29  1  0
 13 30  1  0
 14 31  1  0
 19 32  1  0
 23 33  1  0
 24 34  1  0
 24 35  1  0
 24 36  1  0
 25 37  1  0
 25 38  1  0
 25 39  1  0
V    1 0
V    2 1
V    3 2
V    4 3
V    5 4
V    6 5
V    7 6
V    8 7
V    9 8
V   10 9
V   11 10
V   12 11
V   13 12
V   14 13
V   15 14
V   16 15
V   17 16
V   18 17
V   19 18
V   20 19
V   21 20
V   22 21
V   23 22
V   24 23
V   25 24
M  END
> <DSSTox_RID>
66239

> <DSSTox_CID>
27294

> <DSSTox_CID_Parent>
27294

> <DSSTox_Generic_SID>
47294

> <DSSTox_FileID>
870_TXCST2_v1a

> <STRUCTURE_Formula>
C18H14F2N4O

> <STRUCTURE_MolecularWeight>
340.3268

> <STRUCTURE_ChemicalType>
defined organic

> <STRUCTURE_TestedForm_DefinedOrganic>
parent

> <STRUCTURE_Shown>
tested chemical

> <TestSubstance_ChemicalName>
6-[4-(2,5-difluorophenyl)-1,3-oxazol-5-yl]-3-(propan-2-yl)[1,2,4]triazolo[4,3-a]pyridine

> <TestSubstance_CASRN>
668981-02-0

> <TestSubstance_Description>
single chemical compound

> <STRUCTURE_ChemicalName_IUPAC>
6-[4-(2,5-difluorophenyl)-1,3-oxazol-5-yl]-3-(propan-2-yl)[1,2,4]triazolo[4,3-a]pyridine

> <STRUCTURE_SMILES>
FC1=CC=C(F)C=C1C3=C(OC=N3)C(C=C4)=CN2C4=NN=C2C(C)C

> <STRUCTURE_Parent_SMILES>
FC1=CC=C(F)C=C1C3=C(OC=N3)C(C=C4)=CN2C4=NN=C2C(C)C

> <STRUCTURE_InChIS>
InChI=1S/C18H14F2N4O/c1-10(2)18-23-22-15-6-3-11(8-24(15)18)17-16(21-9-25-17)13-7-12(19)4-5-14(13)20/h3-10H,1-2H3

> <STRUCTURE_InChIKey>
UACOXBQBNWQWOK-UHFFFAOYSA-N

> <Substance_modify_yyyymmdd>
20100526

> <Coord_Metals>
0

> <Index>
870

> <Canonical_Smiles>
CC(C)c1nnc2ccc(cn12)c3ocnc3c4cc(F)ccc4F

> <Molecular_Weight>
340.32676

> <Frequency>
1

$$$$

  SciTegic          2D

 42 44  0  0  0  0            999 V2000
    0.0000    0.7486    0.0000 C   0  0
    0.0000   -0.7486    0.0000 C   0  0
   -1.2964    1.4973    0.0000 C   0  0
    1.2964    1.4973    0.0000 C   0  0
   -1.2964   -1.4973    0.0000 C   0  0
    1.2964   -1.4973    0.0000 C   0  0
    0.0048    2.2026    0.0000 C   0  0
   -2.6111    0.7486    0.0000 C   0  0
    2.5929    0.7486    0.0000 C   0  0
   -2.6111   -0.7486    0.0000 C   0  0
   -0.3137   -2.6042    0.0000 N   0  0
    2.5929   -0.7486    0.0000 C   0  0
    1.2832    1.4180    0.0000 C   0  0
    0.0451    3.7021    0.0000 C   0  0
   -0.7513   -4.0398    0.0000 C   0  0
    3.8926   -1.4991    0.0000 S   0  0
    2.6019    2.1328    0.0000 C   0  0
    1.3638    4.4169    0.0000 C   0  0
    3.8936   -2.9999    0.0000 N   0  0
    4.9317   -0.8987    0.0000 O   0  0
    4.9322   -2.0986    0.0000 O   0  0
    2.6422    3.6323    0.0000 C   0  0
    3.6247    1.5051    0.0000 Cl  0  0
    3.6972    4.2041    0.0000 Cl  0  0
   -2.1726    1.9792    0.0000 H   0  0
    1.2964    2.4973    0.0000 H   0  0
   -2.1731   -1.9783    0.0000 H   0  0
    1.2964   -2.4973    0.0000 H   0  0
   -3.4668    0.2311    0.0000 H   0  0
   -1.7585    0.2261    0.0000 H   0  0
    3.4589    1.2486    0.0000 H   0  0
   -3.4668   -0.2311    0.0000 H   0  0
   -2.5849   -1.7483    0.0000 H   0  0
    0.6606   -2.3788    0.0000 H   0  0
    1.2563    0.4183    0.0000 H   0  0
   -0.8072    4.2252    0.0000 H   0  0
   -0.0691   -4.7711    0.0000 H   0  0
   -1.7255   -4.2653    0.0000 H   0  0
   -1.0433   -4.9962    0.0000 H   0  0
    1.3907    5.4165    0.0000 H   0  0
    4.7596   -3.4999    0.0000 H   0  0
    3.0277   -3.5002    0.0000 H   0  0
  1  2  1  0
  1  3  1  0
  1  4  2  0
  2  5  1  0
  2  6  2  0
  3  7  1  0
  3  8  1  0
  4  9  1  0
  5 10  1  0
  5 11  1  0
  6 12  1  0
  7 13  1  0
  7 14  2  0
  8 10  1  0
  9 12  2  0
 11 15  1  0
 12 16  1  0
 13 17  2  0
 14 18  1  0
 16 19  1  0
 16 20  2  0
 16 21  2  0
 17 22  1  0
 17 23  1  0
 18 22  2  0
 22 24  1  0
  3 25  1  0
  4 26  1  0
  5 27  1  0
  6 28  1  0
  8 29  1  0
  8 30  1  0
  9 31  1  0
 10 32  1  0
 10 33  1  0
 11 34  1  0
 13 35  1  0
 14 36  1  0
 15 37  1  0
 15 38  1  0
 15 39  1  0
 18 40  1  0
 19 41  1  0
 19 42  1  0
V    1 0
V    2 1
V    3 2
V    4 3
V    5 4
V    6 5
V    7 6
V    8 7
V    9 8
V   10 9
V   11 10
V   12 11
V   13 12
V   14 13
V   15 14
V   16 15
V   17 16
V   18 17
V   19 18
V   20 19
V   21 20
V   22 21
V   23 22
V   24 23
M  END
> <DSSTox_RID>
66240

> <DSSTox_CID>
27295

> <DSSTox_CID_Parent>
27295

> <DSSTox_Generic_SID>
47295

> <DSSTox_FileID>
871_TXCST2_v1a

> <STRUCTURE_Formula>
C17H18Cl2N2O2S

> <STRUCTURE_MolecularWeight>
385.308

> <STRUCTURE_ChemicalType>
defined organic

> <STRUCTURE_TestedForm_DefinedOrganic>
parent

> <STRUCTURE_Shown>
tested chemical

> <TestSubstance_ChemicalName>
(5S,8S)-5-(3,4-dichlorophenyl)-8-(methylamino)-5,6,7,8-tetrahydronaphthalene-2-sulfonamide

> <TestSubstance_CASRN>
291305-06-1

> <TestSubstance_Description>
single chemical compound

> <ChemicalNote>
stereochem

> <STRUCTURE_ChemicalName_IUPAC>
(5S,8S)-5-(3,4-dichlorophenyl)-8-(methylamino)-5,6,7,8-tetrahydronaphthalene-2-sulfonamide

> <STRUCTURE_SMILES>
NS(C1=CC=C([C@@H]3[C@]2=CC=C(Cl)C(Cl)=C2)C([C@@H](NC)CC3)=C1)(=O)=O

> <STRUCTURE_Parent_SMILES>
NS(C1=CC=C([C@@H]3[C@]2=CC=C(Cl)C(Cl)=C2)C([C@@H](NC)CC3)=C1)(=O)=O

> <STRUCTURE_InChIS>
InChI=1S/C17H18Cl2N2O2S/c1-21-17-7-5-12(10-2-6-15(18)16(19)8-10)13-4-3-11(9-14(13)17)24(20,22)23/h2-4,6,8-9,12,17,21H,5,7H2,1H3,(H2,20,22,23)/t12-,17-/m0/s1

> <STRUCTURE_InChIKey>
HGBGXSPIBLZGHS-SJCJKPOMSA-N

> <Substance_modify_yyyymmdd>
20100526

> <Coord_Metals>
0

> <Index>
871

> <Canonical_Smiles>
CNC1CCC(c2ccc(Cl)c(Cl)c2)c3ccc(cc13)S(=O)(=O)N

> <Molecular_Weight>
385.30802

> <Frequency>
1

$$$$

  SciTegic          2D

 37 39  0  0  0  0            999 V2000
    0.0000    0.7486    0.0000 C   0  0
    0.0000   -0.7486    0.0000 C   0  0
   -1.2964    1.4973    0.0000 N   0  0
    1.2964    1.4973    0.0000 C   0  0
   -1.2964   -1.4973    0.0000 C   0  0
    1.2964   -1.4973    0.0000 C   0  0
   -2.6111    0.7486    0.0000 C   0  0
   -1.2876    2.9981    0.0000 C   0  0
    2.5929    0.7486    0.0000 C   0  0
   -2.6111   -0.7486    0.0000 N   0  0
   -1.2928   -2.6973    0.0000 O   0  0
    2.5929   -0.7486    0.0000 C   0  0
   -3.6486    1.3517    0.0000 O   0  0
    0.0161    3.7416    0.0000 C   0  0
    3.6321    1.3486    0.0000 Cl  0  0
   -3.9106   -1.4992    0.0000 C   0  0
    0.0250    5.2424    0.0000 O   0  0
    1.0520    3.1358    0.0000 O   0  0
   -3.9114   -3.0001    0.0000 C   0  0
   -2.6127   -3.7507    0.0000 C   0  0
   -5.2108   -3.7494    0.0000 C   0  0
   -2.6135   -5.2507    0.0000 C   0  0
   -1.5732   -3.1512    0.0000 F   0  0
   -5.2115   -5.2494    0.0000 C   0  0
   -3.9129   -6.0001    0.0000 C   0  0
   -3.9135   -7.2001    0.0000 Br  0  0
    1.2964    2.4973    0.0000 H   0  0
    1.2964   -2.4973    0.0000 H   0  0
   -1.2821    3.9981    0.0000 H   0  0
   -2.1508    3.5030    0.0000 H   0  0
    3.4589   -1.2486    0.0000 H   0  0
   -4.7765   -0.9991    0.0000 H   0  0
   -3.9106   -0.4992    0.0000 H   0  0
    0.8937    5.7378    0.0000 H   0  0
   -6.0766   -3.2490    0.0000 H   0  0
   -1.7477   -5.7512    0.0000 H   0  0
   -6.0778   -5.7490    0.0000 H   0  0
  1  2  2  0
  1  3  1  0
  1  4  1  0
  2  5  1  0
  2  6  1  0
  3  7  1  0
  3  8  1  0
  4  9  2  0
  5 10  1  0
  5 11  2  0
  6 12  2  0
  7 13  2  0
  7 10  1  0
  8 14  1  0
  9 15  1  0
  9 12  1  0
 10 16  1  0
 14 17  1  0
 14 18  2  0
 16 19  1  0
 19 20  1  0
 19 21  2  0
 20 22  2  0
 20 23  1  0
 21 24  1  0
 22 25  1  0
 24 25  2  0
 25 26  1  0
  4 27  1  0
  6 28  1  0
  8 29  1  0
  8 30  1  0
 12 31  1  0
 16 32  1  0
 16 33  1  0
 17 34  1  0
 21 35  1  0
 22 36  1  0
 24 37  1  0
V    1 0
V    2 1
V    3 2
V    4 3
V    5 4
V    6 5
V    7 6
V    8 7
V    9 8
V   10 9
V   11 10
V   12 11
V   13 12
V   14 13
V   15 14
V   16 15
V   17 16
V   18 17
V   19 18
V   20 19
V   21 20
V   22 21
V   23 22
V   24 23
V   25 24
V   26 25
M  END
> <DSSTox_RID>
66241

> <DSSTox_CID>
27296

> <DSSTox_CID_Parent>
27296

> <DSSTox_Generic_SID>
47296

> <DSSTox_FileID>
872_TXCST2_v1a

> <STRUCTURE_Formula>
C17H11BrClFN2O4

> <STRUCTURE_MolecularWeight>
441.6356

> <STRUCTURE_ChemicalType>
defined organic

> <STRUCTURE_TestedForm_DefinedOrganic>
parent

> <STRUCTURE_Shown>
tested chemical

> <TestSubstance_ChemicalName>
Zenarestat

> <TestSubstance_CASRN>
112733-06-9

> <TestSubstance_Description>
single chemical compound

> <STRUCTURE_ChemicalName_IUPAC>
[3-(4-bromo-2-fluorobenzyl)-7-chloro-2,4-dioxo-3,4-dihydroquinazolin-1(2H)-yl]acetic acid

> <STRUCTURE_SMILES>
O=C(N2CC3=CC=C(Br)C=C3F)C(C=C1)=C(C=C1Cl)N(CC(O)=O)C2=O

> <STRUCTURE_Parent_SMILES>
O=C(N2CC3=CC=C(Br)C=C3F)C(C=C1)=C(C=C1Cl)N(CC(O)=O)C2=O

> <STRUCTURE_InChIS>
InChI=1S/C17H11BrClFN2O4/c18-10-2-1-9(13(20)5-10)7-22-16(25)12-4-3-11(19)6-14(12)21(17(22)26)8-15(23)24/h1-6H,7-8H2,(H,23,24)

> <STRUCTURE_InChIKey>
SXONDGSPUVNZLO-UHFFFAOYSA-N

> <Substance_modify_yyyymmdd>
20100526

> <Coord_Metals>
0

> <Index>
872

> <Canonical_Smiles>
OC(=O)CN1C(=O)N(Cc2ccc(Br)cc2F)C(=O)c3ccc(Cl)cc13

> <Molecular_Weight>
441.63564

> <Frequency>
1

$$$$

  SciTegic          2D

 53 57  0  0  0  0            999 V2000
    0.0000    0.7486    0.0000 C   0  0
    0.0000   -0.7486    0.0000 C   0  0
   -1.2964    1.4973    0.0000 C   0  0
    1.2964    1.4973    0.0000 C   0  0
   -1.2964   -1.4973    0.0000 O   0  0
    1.2964   -1.4973    0.0000 C   0  0
   -2.6111    0.7486    0.0000 C   0  0
    0.0056    2.2014    0.0000 O   0  0
    2.5929    0.7486    0.0000 C   0  0
   -2.6111   -0.7486    0.0000 C   0  0
    2.5929   -0.7486    0.0000 C   0  0
   -3.0793    2.1533    0.0000 C   0  0
    3.8942    1.4964    0.0000 O   0  0
   -4.5417    2.4906    0.0000 C   0  0
    5.1929    0.7441    0.0000 C   0  0
   -5.5645    1.3934    0.0000 C   0  0
   -4.9806    3.9250    0.0000 C   0  0
    6.4942    1.4919    0.0000 C   0  0
   -7.0261    1.7305    0.0000 C   0  0
   -6.4422    4.2621    0.0000 C   0  0
    7.8203    0.8755    0.0000 S   0  0
    6.6416    2.9737    0.0000 N   0  0
   -7.4650    3.1648    0.0000 C   0  0
   -8.0517    0.6347    0.0000 C   0  0
    8.8369    1.9694    0.0000 C   0  0
    8.1046    3.2728    0.0000 C   0  0
   -9.5137    0.9741    0.0000 O   0  0
   -7.7026   -0.5134    0.0000 O   0  0
   10.3405    1.9358    0.0000 C   0  0
    8.8582    4.5744    0.0000 C   0  0
   11.1099    3.2463    0.0000 C   0  0
   10.3777    4.5497    0.0000 C   0  0
   10.9922    5.5805    0.0000 F   0  0
   -2.1731    1.9783    0.0000 H   0  0
    1.2964    2.4973    0.0000 H   0  0
    1.2964   -2.4973    0.0000 H   0  0
   -3.4663    0.2303    0.0000 H   0  0
    0.8704    1.6991    0.0000 H   0  0
   -1.7351   -0.2664    0.0000 H   0  0
   -2.5849   -1.7483    0.0000 H   0  0
    3.4589   -1.2486    0.0000 H   0  0
   -3.3720    3.1095    0.0000 H   0  0
   -2.3977    2.8850    0.0000 H   0  0
    5.1911   -0.2559    0.0000 H   0  0
    4.3260    0.2455    0.0000 H   0  0
   -5.2719    0.4371    0.0000 H   0  0
   -4.2987    4.6565    0.0000 H   0  0
   -6.7348    5.2183    0.0000 H   0  0
   -8.4394    3.3896    0.0000 H   0  0
  -10.1970    0.2440    0.0000 H   0  0
   10.8276    1.0624    0.0000 H   0  0
    8.3657    5.4448    0.0000 H   0  0
   12.1099    3.2368    0.0000 H   0  0
  1  2  2  0
  1  3  1  0
  1  4  1  0
  2  5  1  0
  2  6  1  0
  3  7  1  0
  3  8  1  0
  4  9  2  0
  5 10  1  0
  6 11  2  0
  7 12  1  0
  7 10  1  0
  9 13  1  0
  9 11  1  0
 12 14  1  0
 13 15  1  0
 14 16  1  0
 14 17  2  0
 15 18  1  0
 16 19  2  0
 17 20  1  0
 18 21  1  0
 18 22  2  0
 19 23  1  0
 19 24  1  0
 20 23  2  0
 21 25  1  0
 22 26  1  0
 24 27  1  0
 24 28  2  0
 25 29  1  0
 25 26  2  0
 26 30  1  0
 29 31  2  0
 30 32  2  0
 31 32  1  0
 32 33  1  0
  3 34  1  0
  4 35  1  0
  6 36  1  0
  7 37  1  0
  8 38  1  0
 10 39  1  0
 10 40  1  0
 11 41  1  0
 12 42  1  0
 12 43  1  0
 15 44  1  0
 15 45  1  0
 16 46  1  0
 17 47  1  0
 20 48  1  0
 23 49  1  0
 27 50  1  0
 29 51  1  0
 30 52  1  0
 31 53  1  0
V    1 0
V    2 1
V    3 2
V    4 3
V    5 4
V    6 5
V    7 6
V    8 7
V    9 8
V   10 9
V   11 10
V   12 11
V   13 12
V   14 13
V   15 14
V   16 15
V   17 16
V   18 17
V   19 18
V   20 19
V   21 20
V   22 21
V   23 22
V   24 23
V   25 24
V   26 25
V   27 26
V   28 27
V   29 28
V   30 29
V   31 30
V   32 31
V   33 32
M  END
> <DSSTox_RID>
66243

> <DSSTox_CID>
27297

> <DSSTox_CID_Parent>
27297

> <DSSTox_Generic_SID>
47297

> <DSSTox_FileID>
873_TXCST2_v1a

> <STRUCTURE_Formula>
C25H20FNO5S

> <STRUCTURE_MolecularWeight>
465.4934

> <STRUCTURE_ChemicalType>
defined organic

> <STRUCTURE_TestedForm_DefinedOrganic>
parent

> <STRUCTURE_Shown>
tested chemical

> <TestSubstance_ChemicalName>
3-({(3R,4R)-6-[(5-fluoro-1,3-benzothiazol-2-yl)methoxy]-4-hydroxy-3,4-dihydro-2H-chromen-3-yl}methyl)benzoic acid

> <TestSubstance_CASRN>
134002-60-1

> <TestSubstance_Description>
single chemical compound

> <ChemicalNote>
stereochem

> <STRUCTURE_ChemicalName_IUPAC>
3-({(3R,4R)-6-[(5-fluoro-1,3-benzothiazol-2-yl)methoxy]-4-hydroxy-3,4-dihydro-2H-chromen-3-yl}methyl)benzoic acid

> <STRUCTURE_SMILES>
O[C@H]1C(C=C4OCC3=NC5=C(C=CC(F)=C5)S3)=C(C=C4)OC[C@H]1CC2=CC=CC(C(O)=O)=C2

> <STRUCTURE_Parent_SMILES>
O[C@H]1C(C=C4OCC3=NC5=C(C=CC(F)=C5)S3)=C(C=C4)OC[C@H]1CC2=CC=CC(C(O)=O)=C2

> <STRUCTURE_InChIS>
InChI=1S/C25H20FNO5S/c26-17-4-7-22-20(10-17)27-23(33-22)13-31-18-5-6-21-19(11-18)24(28)16(12-32-21)9-14-2-1-3-15(8-14)25(29)30/h1-8,10-11,16,24,28H,9,12-13H2,(H,29,30)/t16-,24-/m1/s1

> <STRUCTURE_InChIKey>
RYSLZFOZDSIPHK-VOIUYBSRSA-N

> <Substance_modify_yyyymmdd>
20100526

> <Coord_Metals>
0

> <Index>
873

> <Canonical_Smiles>
OC1C(Cc2cccc(c2)C(=O)O)COc3ccc(OCc4nc5cc(F)ccc5s4)cc13

> <Molecular_Weight>
465.4934

> <Frequency>
1

$$$$

  SciTegic          2D

 62 65  0  0  0  0            999 V2000
    1.2990   -0.7500    0.0000 C   0  0
    2.7503   -0.4586    0.0000 C   0  0
    1.7726   -2.1528    0.0000 N   0  0
    1.2990    0.7500    0.0000 C   0  0
    0.0000   -1.5000    0.0000 C   0  0
    3.7414   -1.5846    0.0000 C   0  0
    3.2300    0.9626    0.0000 C   0  0
    3.2433   -2.4479    0.0000 C   0  0
    0.7817   -3.2789    0.0000 C   0  0
    0.0000    1.5000    0.0000 C   0  0
   -1.2990   -0.7500    0.0000 C   0  0
    5.2120   -1.2893    0.0000 C   0  0
    4.7006    1.2579    0.0000 C   0  0
    3.7231   -3.8691    0.0000 C   0  0
    1.2615   -4.7001    0.0000 C   0  0
   -1.2990    0.7500    0.0000 C   0  0
    5.6917    0.1319    0.0000 C   0  0
    6.2060   -2.4139    0.0000 O   0  0
    2.7322   -4.9952    0.0000 N   0  0
   -2.5625   -0.0216    0.0000 C   0  0
    7.6770   -2.1163    0.0000 C   0  0
    3.2122   -6.4171    0.0000 C   0  0
    8.6709   -3.2409    0.0000 C   0  0
    4.6825   -6.7147    0.0000 C   0  0
    2.2196   -7.5418    0.0000 C   0  0
    5.1600   -8.1366    0.0000 C   0  0
    2.6971   -8.9637    0.0000 C   0  0
    4.1673   -9.2612    0.0000 C   0  0
    2.1530    0.2297    0.0000 H   0  0
    1.2755    1.7497    0.0000 H   0  0
   -0.8776   -1.9794    0.0000 H   0  0
    0.8775   -1.9795    0.0000 H   0  0
    3.4217   -2.5321    0.0000 H   0  0
    2.5693    1.7133    0.0000 H   0  0
    4.2189   -2.6677    0.0000 H   0  0
    2.9013   -1.5082    0.0000 H   0  0
    0.1390   -4.0451    0.0000 H   0  0
    0.4842   -2.3242    0.0000 H   0  0
   -0.0236    0.5003    0.0000 H   0  0
   -0.8775    1.9795    0.0000 H   0  0
   -0.4215   -0.2706    0.0000 H   0  0
   -1.2755   -1.7497    0.0000 H   0  0
    5.0204    2.2054    0.0000 H   0  0
    2.7383   -3.6956    0.0000 H   0  0
    4.0206   -4.8238    0.0000 H   0  0
    1.9397   -3.9652    0.0000 H   0  0
    1.6035   -5.6398    0.0000 H   0  0
   -1.2746    1.7497    0.0000 H   0  0
    6.6721    0.3288    0.0000 H   0  0
   -2.5629   -1.0216    0.0000 H   0  0
   -3.4287   -0.5213    0.0000 H   0  0
   -3.4285    0.4785    0.0000 H   0  0
    7.9951   -1.1683    0.0000 H   0  0
    7.0151   -1.3667    0.0000 H   0  0
    9.6510   -3.0427    0.0000 H   0  0
    8.3528   -4.1890    0.0000 H   0  0
    9.3328   -3.9905    0.0000 H   0  0
    5.3443   -5.9650    0.0000 H   0  0
    1.2394   -7.3435    0.0000 H   0  0
    6.1402   -8.3349    0.0000 H   0  0
    2.0353   -9.7134    0.0000 H   0  0
    4.4857  -10.2091    0.0000 H   0  0
  1  2  1  0
  1  3  1  0
  1  4  1  0
  1  5  1  0
  2  6  2  0
  2  7  1  0
  3  8  1  0
  3  9  1  0
  4 10  1  0
  5 11  1  0
  6 12  1  0
  7 13  2  0
  8 14  1  0
  9 15  1  0
 10 16  1  0
 11 16  1  0
 12 17  2  0
 12 18  1  0
 13 17  1  0
 14 19  1  0
 15 19  1  0
 16 20  1  0
 18 21  1  0
 19 22  1  0
 21 23  1  0
 22 24  1  0
 22 25  2  0
 24 26  2  0
 25 27  1  0
 26 28  1  0
 27 28  2  0
  4 29  1  0
  4 30  1  0
  5 31  1  0
  5 32  1  0
  6 33  1  0
  7 34  1  0
  8 35  1  0
  8 36  1  0
  9 37  1  0
  9 38  1  0
 10 39  1  0
 10 40  1  0
 11 41  1  0
 11 42  1  0
 13 43  1  0
 14 44  1  0
 14 45  1  0
 15 46  1  0
 15 47  1  0
 16 48  1  0
 17 49  1  0
 20 50  1  0
 20 51  1  0
 20 52  1  0
 21 53  1  0
 21 54  1  0
 23 55  1  0
 23 56  1  0
 23 57  1  0
 24 58  1  0
 25 59  1  0
 26 60  1  0
 27 61  1  0
 28 62  1  0
V    1 0
V    2 1
V    3 2
V    4 3
V    5 4
V    6 5
V    7 6
V    8 7
V    9 8
V   10 9
V   11 10
V   12 11
V   13 12
V   14 13
V   15 14
V   16 15
V   17 16
V   18 17
V   19 18
V   20 19
V   21 20
V   22 21
V   23 22
V   24 23
V   25 24
V   26 25
V   27 26
V   28 27
M  END
> <DSSTox_RID>
66245

> <DSSTox_CID>
27299

> <DSSTox_CID_Parent>
27300

> <DSSTox_Generic_SID>
47299

> <DSSTox_FileID>
874_TXCST2_v1a

> <STRUCTURE_Formula>
C26H38N2O4S

> <STRUCTURE_MolecularWeight>
474.6559

> <STRUCTURE_ChemicalType>
defined organic

> <STRUCTURE_TestedForm_DefinedOrganic>
complex methylsulfonic acid

> <STRUCTURE_Shown>
tested chemical

> <TestSubstance_ChemicalName>
1-[cis-1-(3-ethoxyphenyl)-4-methylcyclohexyl]-4-phenylpiperazine methanesulfonate (1:1)

> <TestSubstance_CASRN>
NOCAS_47299

> <TestSubstance_Description>
single chemical compound

> <ChemicalNote>
stereochem

> <STRUCTURE_ChemicalName_IUPAC>
1-[cis-1-(3-ethoxyphenyl)-4-methylcyclohexyl]-4-phenylpiperazine methanesulfonate (1:1)

> <STRUCTURE_SMILES>
C[C@H]3CC[C@@](N2CCN(C4=CC=CC=C4)CC2)(CC3)[C@]1=CC(OCC)=CC=C1.O=S(O)(C)=O

> <STRUCTURE_Parent_SMILES>
C[C@H]3CC[C@@](N2CCN(C4=CC=CC=C4)CC2)(CC3)[C@]1=CC(OCC)=CC=C1

> <STRUCTURE_InChIS>
InChI=1S/C25H34N2O.CH4O3S/c1-3-28-24-11-7-8-22(20-24)25(14-12-21(2)13-15-25)27-18-16-26(17-19-27)23-9-5-4-6-10-23;1-5(2,3)4/h4-11,20-21H,3,12-19H2,1-2H3;1H3,(H,2,3,4)/t21-,25+;

> <STRUCTURE_InChIKey>
WSDSEIUBXJOEIQ-OWIZPPJRSA-N

> <Substance_modify_yyyymmdd>
20100527

> <Coord_Metals>
0

> <Index>
874

> <Canonical_Smiles>
CCOc1cccc(c1)C2(CCC(C)CC2)N3CCN(CC3)c4ccccc4

> <Molecular_Weight>
378.55026

> <Frequency>
1

$$$$

  SciTegic          2D

 52 55  0  0  0  0            999 V2000
    0.0000    1.4947    0.0000 C   0  0
   -1.2923    0.7474    0.0000 C   0  0
    1.3235    0.7785    0.0000 C   0  0
   -0.0215    2.9958    0.0000 N   0  0
   -1.2923   -0.7474    0.0000 C   0  0
   -2.7404    1.2145    0.0000 C   0  0
    1.3235   -0.7629    0.0000 C   0  0
    2.7715    1.2145    0.0000 C   0  0
    1.2669    3.7656    0.0000 C   0  0
    0.0000   -1.5103    0.0000 C   0  0
   -2.7404   -1.1989    0.0000 C   0  0
   -3.5656    0.0000    0.0000 C   0  0
    2.7715   -1.2301    0.0000 C   0  0
    3.5967    0.0000    0.0000 C   0  0
    1.2453    5.2663    0.0000 N   0  0
    2.3148    3.1809    0.0000 O   0  0
    2.5337    6.0361    0.0000 S   0  0
    2.5121    7.5367    0.0000 C   0  0
    2.5515    4.8362    0.0000 O   0  0
    3.5816    5.4514    0.0000 O   0  0
    1.2864    8.3790    0.0000 C   0  0
    3.7132    8.4138    0.0000 O   0  0
    1.7294    9.8121    0.0000 C   0  0
    3.2292    9.8336    0.0000 C   0  0
    0.8314   11.0114    0.0000 C   0  0
   -0.6589   10.8341    0.0000 C   0  0
    1.4225   12.3908    0.0000 C   0  0
    0.2314    9.6040    0.0000 O   0  0
   -0.8948    3.4830    0.0000 H   0  0
   -3.7244    1.3923    0.0000 H   0  0
   -2.0736    1.9597    0.0000 H   0  0
    3.7574    1.3819    0.0000 H   0  0
    2.1115    1.9657    0.0000 H   0  0
   -0.0096   -2.5103    0.0000 H   0  0
   -3.7249   -1.3743    0.0000 H   0  0
   -2.0745   -1.9450    0.0000 H   0  0
   -4.0479   -0.8760    0.0000 H   0  0
   -4.0533    0.8730    0.0000 H   0  0
    3.7561   -1.4052    0.0000 H   0  0
    2.1071   -1.9774    0.0000 H   0  0
    4.0839   -0.8733    0.0000 H   0  0
    4.0788    0.8761    0.0000 H   0  0
    0.3721    5.7535    0.0000 H   0  0
    0.3418    8.0507    0.0000 H   0  0
    3.8053   10.6510    0.0000 H   0  0
   -1.2582   11.6346    0.0000 H   0  0
   -1.0528    9.9149    0.0000 H   0  0
   -1.6518   10.7154    0.0000 H   0  0
    0.8240   13.1919    0.0000 H   0  0
    2.4155   12.5090    0.0000 H   0  0
    1.8168   13.3098    0.0000 H   0  0
    0.8315    8.8041    0.0000 H   0  0
  1  2  2  0
  1  3  1  0
  1  4  1  0
  2  5  1  0
  2  6  1  0
  3  7  2  0
  3  8  1  0
  4  9  1  0
  5 10  2  0
  5 11  1  0
  6 12  1  0
  7 13  1  0
  7 10  1  0
  8 14  1  0
  9 15  1  0
  9 16  2  0
 11 12  1  0
 13 14  1  0
 15 17  1  0
 17 18  1  0
 17 19  2  0
 17 20  2  0
 18 21  2  0
 18 22  1  0
 21 23  1  0
 22 24  1  0
 23 25  1  0
 23 24  2  0
 25 26  1  0
 25 27  1  0
 25 28  1  0
  4 29  1  0
  6 30  1  0
  6 31  1  0
  8 32  1  0
  8 33  1  0
 10 34  1  0
 11 35  1  0
 11 36  1  0
 12 37  1  0
 12 38  1  0
 13 39  1  0
 13 40  1  0
 14 41  1  0
 14 42  1  0
 15 43  1  0
 21 44  1  0
 24 45  1  0
 26 46  1  0
 26 47  1  0
 26 48  1  0
 27 49  1  0
 27 50  1  0
 27 51  1  0
 28 52  1  0
V    1 0
V    2 1
V    3 2
V    4 3
V    5 4
V    6 5
V    7 6
V    8 7
V    9 8
V   10 9
V   11 10
V   12 11
V   13 12
V   14 13
V   15 14
V   16 15
V   17 16
V   18 17
V   19 18
V   20 19
V   21 20
V   22 21
V   23 22
V   24 23
V   25 24
V   26 25
V   27 26
V   28 27
M  END
> <DSSTox_RID>
66247

> <DSSTox_CID>
27301

> <DSSTox_CID_Parent>
27301

> <DSSTox_Generic_SID>
47301

> <DSSTox_FileID>
875_TXCST2_v1a

> <STRUCTURE_Formula>
C20H24N2O5S

> <STRUCTURE_MolecularWeight>
404.48

> <STRUCTURE_ChemicalType>
defined organic

> <STRUCTURE_TestedForm_DefinedOrganic>
parent

> <STRUCTURE_Shown>
tested chemical

> <TestSubstance_ChemicalName>
N-(1,2,3,5,6,7-hexahydro-s-indacen-4-ylcarbamoyl)-4-(2-hydroxypropan-2-yl)furan-2-sulfonamide

> <TestSubstance_CASRN>
210826-40-7

> <TestSubstance_Description>
single chemical compound

> <STRUCTURE_ChemicalName_IUPAC>
N-(1,2,3,5,6,7-hexahydro-s-indacen-4-ylcarbamoyl)-4-(2-hydroxypropan-2-yl)furan-2-sulfonamide

> <STRUCTURE_SMILES>
O=C(NS(C4=CC(C(O)(C)C)=CO4)(=O)=O)NC1=C(CCC3)C3=CC2=C1CCC2

> <STRUCTURE_Parent_SMILES>
O=C(NS(C4=CC(C(O)(C)C)=CO4)(=O)=O)NC1=C(CCC3)C3=CC2=C1CCC2

> <STRUCTURE_InChIS>
InChI=1S/C20H24N2O5S/c1-20(2,24)14-10-17(27-11-14)28(25,26)22-19(23)21-18-15-7-3-5-12(15)9-13-6-4-8-16(13)18/h9-11,24H,3-8H2,1-2H3,(H2,21,22,23)

> <STRUCTURE_InChIKey>
HUUSXLKCTQDPGL-UHFFFAOYSA-N

> <Substance_modify_yyyymmdd>
20100527

> <Coord_Metals>
0

> <Index>
875

> <Canonical_Smiles>
CC(C)(O)c1coc(c1)S(=O)(=O)NC(=O)Nc2c3CCCc3cc4CCCc24

> <Molecular_Weight>
404.47996

> <Frequency>
1

$$$$

  SciTegic          2D

 42 44  0  0  0  0            999 V2000
    2.5951   -3.0039    0.0000 C   0  0
    2.4911   -4.4637    0.0000 C   0  0
    2.5973   -1.5031    0.0000 O   0  0
    1.2809   -2.3599    0.0000 C   0  0
    1.0234   -4.7733    0.0000 C   0  0
    1.2990   -0.7500    0.0000 C   0  0
    0.2755   -3.4730    0.0000 C   0  0
   -0.4584   -4.9027    0.0000 N   0  0
    1.2990    0.7500    0.0000 C   0  0
    0.0000   -1.5000    0.0000 C   0  0
   -1.1151   -6.2522    0.0000 C   0  0
   -1.3018   -3.6612    0.0000 O   0  0
    0.0000    1.5000    0.0000 C   0  0
   -1.2990   -0.7500    0.0000 C   0  0
   -2.6121   -6.3592    0.0000 N   0  0
   -0.4429   -7.2462    0.0000 O   0  0
   -0.0031    3.0008    0.0000 O   0  0
   -1.2990    0.7500    0.0000 C   0  0
   -1.3039    3.7494    0.0000 C   0  0
   -1.3092    5.2494    0.0000 C   0  0
   -2.6005    2.9949    0.0000 C   0  0
   -2.6108    5.9949    0.0000 C   0  0
   -3.9021    3.7404    0.0000 C   0  0
   -3.9073    5.2404    0.0000 C   0  0
   -4.9486    5.8368    0.0000 F   0  0
    3.4603   -3.5054    0.0000 H   0  0
    3.4326   -4.1267    0.0000 H   0  0
    2.2857   -5.4424    0.0000 H   0  0
    1.0918   -1.3780    0.0000 H   0  0
    1.6227   -5.5738    0.0000 H   0  0
   -0.7189   -3.3669    0.0000 H   0  0
    2.1651    1.2500    0.0000 H   0  0
    0.0000   -2.5000    0.0000 H   0  0
   -2.2991   -3.7336    0.0000 H   0  0
   -2.1651   -1.2500    0.0000 H   0  0
   -3.0497   -7.2584    0.0000 H   0  0
   -3.1723   -5.5309    0.0000 H   0  0
   -2.1651    1.2500    0.0000 H   0  0
   -0.4449    5.7524    0.0000 H   0  0
   -2.5970    1.9949    0.0000 H   0  0
   -2.6143    6.9949    0.0000 H   0  0
   -4.7664    3.2374    0.0000 H   0  0
  1  2  1  0
  1  3  1  0
  1  4  1  0
  2  5  1  0
  3  6  1  0
  4  7  2  0
  5  8  1  0
  5  7  1  0
  6  9  1  0
  6 10  2  0
  8 11  1  0
  8 12  1  0
  9 13  2  0
 10 14  1  0
 11 15  1  0
 11 16  2  0
 13 17  1  0
 13 18  1  0
 14 18  2  0
 17 19  1  0
 19 20  2  0
 19 21  1  0
 20 22  1  0
 21 23  2  0
 22 24  2  0
 23 24  1  0
 24 25  1  0
  1 26  1  0
  2 27  1  0
  2 28  1  0
  4 29  1  0
  5 30  1  0
  7 31  1  0
  9 32  1  0
 10 33  1  0
 12 34  1  0
 14 35  1  0
 15 36  1  0
 15 37  1  0
 18 38  1  0
 20 39  1  0
 21 40  1  0
 22 41  1  0
 23 42  1  0
V    1 0
V    2 1
V    3 2
V    4 3
V    5 4
V    6 5
V    7 6
V    8 7
V    9 8
V   10 9
V   11 10
V   12 11
V   13 12
V   14 13
V   15 14
V   16 15
V   17 16
V   18 17
V   19 18
V   20 19
V   21 20
V   22 21
V   23 22
V   24 23
V   25 24
M  END
> <DSSTox_RID>
66248

> <DSSTox_CID>
27303

> <DSSTox_CID_Parent>
27303

> <DSSTox_Generic_SID>
47303

> <DSSTox_FileID>
876_TXCST2_v1a

> <STRUCTURE_Formula>
C18H17FN2O4

> <STRUCTURE_MolecularWeight>
344.337

> <STRUCTURE_ChemicalType>
defined organic

> <STRUCTURE_TestedForm_DefinedOrganic>
parent

> <STRUCTURE_Shown>
tested chemical

> <TestSubstance_ChemicalName>
1-{(1S,4R)-4-[3-(4-fluorophenoxy)phenoxy]cyclopent-2-en-1-yl}-1-hydroxyurea

> <TestSubstance_CASRN>
179465-71-5

> <TestSubstance_Description>
single chemical compound

> <ChemicalNote>
stereochem

> <STRUCTURE_ChemicalName_IUPAC>
1-{(1S,4R)-4-[3-(4-fluorophenoxy)phenoxy]cyclopent-2-en-1-yl}-1-hydroxyurea

> <STRUCTURE_SMILES>
ON(C(N)=O)[C@H]2C[C@H](C=C2)OC1=CC=CC(OC3=CC=C(F)C=C3)=C1

> <STRUCTURE_Parent_SMILES>
ON(C(N)=O)[C@H]2C[C@H](C=C2)OC1=CC=CC(OC3=CC=C(F)C=C3)=C1

> <STRUCTURE_InChIS>
InChI=1S/C18H17FN2O4/c19-12-4-7-14(8-5-12)24-15-2-1-3-16(11-15)25-17-9-6-13(10-17)21(23)18(20)22/h1-9,11,13,17,23H,10H2,(H2,20,22)/t13-,17+/m1/s1

> <STRUCTURE_InChIKey>
CJFQUWMJNVTKDJ-DYVFJYSZSA-N

> <Substance_modify_yyyymmdd>
20100527

> <Coord_Metals>
0

> <Index>
876

> <Canonical_Smiles>
NC(=O)N(O)C1CC(Oc2cccc(Oc3ccc(F)cc3)c2)C=C1

> <Molecular_Weight>
344.33698

> <Frequency>
1

$$$$

  SciTegic          2D

 30 32  0  0  0  0            999 V2000
    0.2917    0.7475    0.0000 C   0  0
    0.2917   -0.7475    0.0000 C   0  0
    1.7138    1.2033    0.0000 C   0  0
   -1.0028    1.5132    0.0000 C   0  0
    1.7138   -1.2033    0.0000 N   0  0
   -1.0028   -1.5132    0.0000 C   0  0
    2.5889    0.0182    0.0000 C   0  0
    3.1728    1.4912    0.0000 C   0  0
   -2.3155    0.7475    0.0000 C   0  0
    2.1855   -2.6254    0.0000 C   0  0
   -2.3155   -0.7475    0.0000 C   0  0
    3.7889    0.0269    0.0000 O   0  0
    3.6812    2.9033    0.0000 C   0  0
    3.9476    0.5749    0.0000 O   0  0
   -3.3560    1.3452    0.0000 F   0  0
    3.6552   -2.9294    0.0000 N   0  0
    1.3877   -3.5218    0.0000 O   0  0
   -3.3560   -1.3452    0.0000 Cl  0  0
    2.8324    4.1246    0.0000 C   0  0
    5.1148    3.2993    0.0000 S   0  0
    3.7534    5.3085    0.0000 C   0  0
    5.1640    4.7984    0.0000 C   0  0
    3.4203    6.4614    0.0000 Cl  0  0
    1.0313    1.9341    0.0000 H   0  0
   -0.9997    2.5132    0.0000 H   0  0
   -0.9997   -2.5132    0.0000 H   0  0
    3.9700   -3.8785    0.0000 H   0  0
    4.3200   -2.1824    0.0000 H   0  0
    1.8328    4.1515    0.0000 H   0  0
    5.9919    5.3594    0.0000 H   0  0
  1  2  2  0
  1  3  1  0
  1  4  1  0
  2  5  1  0
  2  6  1  0
  3  7  1  0
  3  8  1  0
  4  9  2  0
  5 10  1  0
  5  7  1  0
  6 11  2  0
  7 12  2  0
  8 13  1  0
  8 14  2  0
  9 15  1  0
  9 11  1  0
 10 16  1  0
 10 17  2  0
 11 18  1  0
 13 19  2  0
 13 20  1  0
 19 21  1  0
 20 22  1  0
 21 23  1  0
 21 22  2  0
  3 24  1  0
  4 25  1  0
  6 26  1  0
 16 27  1  0
 16 28  1  0
 19 29  1  0
 22 30  1  0
V    1 0
V    2 1
V    3 2
V    4 3
V    5 4
V    6 5
V    7 6
V    8 7
V    9 8
V   10 9
V   11 10
V   12 11
V   13 12
V   14 13
V   15 14
V   16 15
V   17 16
V   18 17
V   19 18
V   20 19
V   21 20
V   22 21
V   23 22
M  END
> <DSSTox_RID>
66249

> <DSSTox_CID>
27304

> <DSSTox_CID_Parent>
27304

> <DSSTox_Generic_SID>
47304

> <DSSTox_FileID>
877_TXCST2_v1a

> <STRUCTURE_Formula>
C14H7Cl2FN2O3S

> <STRUCTURE_MolecularWeight>
373.1864

> <STRUCTURE_ChemicalType>
defined organic

> <STRUCTURE_TestedForm_DefinedOrganic>
parent

> <STRUCTURE_Shown>
tested chemical

> <TestSubstance_ChemicalName>
6-chloro-3-[(4-chlorothiophen-2-yl)carbonyl]-5-fluoro-2-oxo-2,3-dihydro-1H-indole-1-carboxamide

> <TestSubstance_CASRN>
135080-03-4

> <TestSubstance_Description>
single chemical compound

> <ChemicalNote>
tautomers

> <STRUCTURE_ChemicalName_IUPAC>
6-chloro-3-[(4-chlorothiophen-2-yl)carbonyl]-5-fluoro-2-oxo-2,3-dihydro-1H-indole-1-carboxamide

> <STRUCTURE_SMILES>
O=C1C(C(C3=CC(Cl)=CS3)=O)C(C=C2F)=C(C=C2Cl)N1C(N)=O

> <STRUCTURE_Parent_SMILES>
O=C1C(C(C3=CC(Cl)=CS3)=O)C(C=C2F)=C(C=C2Cl)N1C(N)=O

> <STRUCTURE_InChIS>
InChI=1S/C14H7Cl2FN2O3S/c15-5-1-10(23-4-5)12(20)11-6-2-8(17)7(16)3-9(6)19(13(11)21)14(18)22/h1-4,11H,(H2,18,22)

> <STRUCTURE_InChIKey>
TVBUSVDXSSKDSK-UHFFFAOYSA-N

> <Substance_modify_yyyymmdd>
20100529

> <Coord_Metals>
0

> <Index>
877

> <Canonical_Smiles>
NC(=O)N1C(=O)C(C(=O)c2cc(Cl)cs2)c3cc(F)c(Cl)cc13

> <Molecular_Weight>
373.18638

> <Frequency>
1

$$$$

  SciTegic          2D

 62 66  0  0  0  0            999 V2000
    2.2291    1.1303    0.0000 N   0  0
    3.4688    0.2977    0.0000 C   0  0
    2.1784    2.6281    0.0000 C   0  0
    1.0594    0.2348    0.0000 C   0  0
    3.0537   -1.1386    0.0000 C   0  0
    4.9249    0.6740    0.0000 N   0  0
    0.7286    2.4271    0.0000 O   0  0
    2.5356    4.0474    0.0000 C   0  0
    1.5610   -1.1817    0.0000 N   0  0
    4.0848   -2.2336    0.0000 C   0  0
    5.9735   -0.4261    0.0000 C   0  0
    0.1213    3.7987    0.0000 C   0  0
    1.2381    4.8001    0.0000 C   0  0
    2.6986    5.5271    0.0000 O   0  0
    3.6628   -3.6735    0.0000 N   0  0
    5.5584   -1.8623    0.0000 N   0  0
   -0.8585    2.6795    0.0000 C   0  0
    2.4571    5.6525    0.0000 N   0  0
    4.6983   -4.7599    0.0000 C   0  0
   -2.3353    2.9468    0.0000 N   0  0
   -0.4535    1.5499    0.0000 O   0  0
    4.2762   -6.2001    0.0000 C   0  0
   -3.3059    1.8021    0.0000 C   0  0
    5.3118   -7.2852    0.0000 C   0  0
    2.8186   -6.5545    0.0000 C   0  0
    6.7709   -6.9337    0.0000 O   0  0
    4.8899   -8.7247    0.0000 C   0  0
    2.3967   -7.9939    0.0000 C   0  0
    7.8056   -8.0209    0.0000 C   0  0
    3.4324   -9.0790    0.0000 C   0  0
    1.2307   -8.2774    0.0000 Cl  0  0
    9.2646   -7.6694    0.0000 C   0  0
   10.3847   -8.6478    0.0000 C   0  0
    9.8162   -6.2882    0.0000 O   0  0
   11.6630   -7.8630    0.0000 C   0  0
   11.3117   -6.4047    0.0000 N   0  0
   13.0477   -8.4352    0.0000 C   0  0
    3.1571    2.8330    0.0000 H   0  0
    0.1007    0.5193    0.0000 H   0  0
    3.3241    3.4324    0.0000 H   0  0
    6.9448   -0.1883    0.0000 H   0  0
   -0.1706    4.7551    0.0000 H   0  0
    0.3190    5.1942    0.0000 H   0  0
    1.9015    6.1309    0.0000 H   0  0
    2.6910   -3.9095    0.0000 H   0  0
    3.3700    5.2443    0.0000 H   0  0
    2.3545    6.6472    0.0000 H   0  0
    4.9800   -3.8004    0.0000 H   0  0
    5.6701   -4.5240    0.0000 H   0  0
   -2.6728    3.8881    0.0000 H   0  0
   -4.2900    1.9802    0.0000 H   0  0
   -3.9523    1.0391    0.0000 H   0  0
   -2.9685    0.8608    0.0000 H   0  0
    2.1282   -5.8311    0.0000 H   0  0
    5.5803   -9.4481    0.0000 H   0  0
    7.5226   -8.9800    0.0000 H   0  0
    6.8335   -8.2556    0.0000 H   0  0
    3.1511  -10.0387    0.0000 H   0  0
   10.3011   -9.6443    0.0000 H   0  0
   13.1796   -9.4265    0.0000 H   0  0
   13.8403   -7.8256    0.0000 H   0  0
   13.9720   -8.8167    0.0000 H   0  0
  1  2  1  0
  3  1  1  0
  1  4  1  0
  2  5  1  0
  2  6  2  0
  3  7  1  0
  3  8  1  0
  4  9  2  0
  5 10  2  0
  5  9  1  0
  6 11  1  0
  7 12  1  0
  8 13  1  0
  8 14  1  0
 10 15  1  0
 10 16  1  0
 11 16  2  0
 12 17  1  0
 12 13  1  0
 13 18  1  0
 15 19  1  0
 17 20  1  0
 17 21  2  0
 19 22  1  0
 20 23  1  0
 22 24  1  0
 22 25  2  0
 24 26  1  0
 24 27  2  0
 25 28  1  0
 26 29  1  0
 27 30  1  0
 28 31  1  0
 28 30  2  0
 29 32  1  0
 32 33  2  0
 32 34  1  0
 33 35  1  0
 34 36  1  0
 35 37  1  0
 35 36  2  0
  3 38  1  0
  4 39  1  0
  8 40  1  0
 11 41  1  0
 12 42  1  0
 13 43  1  0
 14 44  1  0
 15 45  1  0
 18 46  1  0
 18 47  1  0
 19 48  1  0
 19 49  1  0
 20 50  1  0
 23 51  1  0
 23 52  1  0
 23 53  1  0
 25 54  1  0
 27 55  1  0
 29 56  1  0
 29 57  1  0
 30 58  1  0
 33 59  1  0
 37 60  1  0
 37 61  1  0
 37 62  1  0
V    1 0
V    2 1
V    3 2
V    4 3
V    5 4
V    6 5
V    7 6
V    8 7
V    9 8
V   10 9
V   11 10
V   12 11
V   13 12
V   14 13
V   15 14
V   16 15
V   17 16
V   18 17
V   19 18
V   20 19
V   21 20
V   22 21
V   23 22
V   24 23
V   25 24
V   26 25
V   27 26
V   28 27
V   29 28
V   30 29
V   31 30
V   32 31
V   33 32
V   34 33
V   35 34
V   36 35
V   37 36
M  END
> <DSSTox_RID>
66250

> <DSSTox_CID>
27305

> <DSSTox_CID_Parent>
27305

> <DSSTox_Generic_SID>
47305

> <DSSTox_FileID>
878_TXCST2_v1a

> <STRUCTURE_Formula>
C23H25ClN8O5

> <STRUCTURE_MolecularWeight>
528.9482

> <STRUCTURE_ChemicalType>
defined organic

> <STRUCTURE_TestedForm_DefinedOrganic>
parent

> <STRUCTURE_Shown>
tested chemical

> <TestSubstance_ChemicalName>
(2S,3S,4R,5R)-3-amino-5-[6-({5-chloro-2-[(3-methyl-1,2-oxazol-5-yl)methoxy]benzyl}amino)-9H-purin-9-yl]-4-hydroxy-N-methyltetrahydrofuran-2-carboxamide (non-preferred name)

> <TestSubstance_CASRN>
NOCAS_47305

> <TestSubstance_Description>
single chemical compound

> <ChemicalNote>
stereochem

> <STRUCTURE_ChemicalName_IUPAC>
(2S,3S,4R,5R)-3-amino-5-[6-({5-chloro-2-[(3-methyl-1,2-oxazol-5-yl)methoxy]benzyl}amino)-9H-purin-9-yl]-4-hydroxy-N-methyltetrahydrofuran-2-carboxamide (non-preferred name)

> <STRUCTURE_SMILES>
O[C@H]([C@@H]3N)[C@@H](O[C@@H]3[C@@](NC)=O)N(C=N2)C1=C2C(NCC4=CC(Cl)=CC=C4OCC5=CC(C)=NO5)=NC=N1

> <STRUCTURE_Parent_SMILES>
O[C@H]([C@@H]3N)[C@@H](O[C@@H]3[C@@](NC)=O)N(C=N2)C1=C2C(NCC4=CC(Cl)=CC=C4OCC5=CC(C)=NO5)=NC=N1

> <STRUCTURE_InChIS>
InChI=1S/C23H25ClN8O5/c1-11-5-14(37-31-11)8-35-15-4-3-13(24)6-12(15)7-27-20-17-21(29-9-28-20)32(10-30-17)23-18(33)16(25)19(36-23)22(34)26-2/h3-6,9-10,16,18-19,23,33H,7-8,25H2,1-2H3,(H,26,34)(H,27,28,2
9)/t16-,18+,19-,23+/m0/s1

> <STRUCTURE_InChIKey>
PKUZHLZHLVHAIO-QYUDBREXSA-N

> <Substance_modify_yyyymmdd>
20100529

> <Coord_Metals>
0

> <Index>
878

> <Canonical_Smiles>
CNC(=O)C1OC(C(O)C1N)n2cnc3c(NCc4cc(Cl)ccc4OCc5onc(C)c5)ncnc23

> <Molecular_Weight>
528.94819

> <Frequency>
1

$$$$

  SciTegic          2D

 44 46  0  0  0  0            999 V2000
    0.8197    1.8271    0.0000 C   0  0
   -0.1490    2.9776    0.0000 C   0  0
    2.2942    2.0736    0.0000 C   0  0
    0.6046    0.3493    0.0000 C   0  0
   -1.6254    3.2458    0.0000 O   0  0
    0.3898    4.3986    0.0000 C   0  0
    2.8361    3.4766    0.0000 C   0  0
    2.9783    0.7461    0.0000 C   0  0
    1.9177   -0.3184    0.0000 C   0  0
   -2.1324    4.6584    0.0000 C   0  0
    1.8644    4.6451    0.0000 C   0  0
    4.3170    3.7185    0.0000 O   0  0
   -1.6161    6.0667    0.0000 C   0  0
   -3.6103    4.4014    0.0000 C   0  0
   -2.5776    7.2181    0.0000 C   0  0
   -0.1375    6.3239    0.0000 C   0  0
   -4.5718    5.5528    0.0000 C   0  0
   -4.1270    2.9924    0.0000 C   0  0
   -4.0554    6.9611    0.0000 C   0  0
   -5.0198    8.1111    0.0000 N   0  0
   -6.4980    7.8519    0.0000 C   0  0
   -7.4624    9.0019    0.0000 C   0  0
   -6.9092    6.7245    0.0000 O   0  0
   -8.9406    8.7427    0.0000 O   0  0
   -7.0512   10.1293    0.0000 O   0  0
    0.5744   -0.6502    0.0000 H   0  0
   -0.2294    0.9012    0.0000 H   0  0
   -0.2444    5.1718    0.0000 H   0  0
    3.3257   -0.1916    0.0000 H   0  0
    3.5935    1.5345    0.0000 H   0  0
    2.8570   -0.6615    0.0000 H   0  0
    1.1322   -0.9372    0.0000 H   0  0
    2.2126    5.5825    0.0000 H   0  0
    4.6715    4.6535    0.0000 H   0  0
   -2.2333    8.1570    0.0000 H   0  0
    0.5040    5.5568    0.0000 H   0  0
    0.2064    7.2629    0.0000 H   0  0
    0.8476    6.4957    0.0000 H   0  0
   -5.5570    5.3815    0.0000 H   0  0
   -3.4866    2.2244    0.0000 H   0  0
   -5.1123    2.8214    0.0000 H   0  0
   -4.4718    2.0537    0.0000 H   0  0
   -4.6771    9.0506    0.0000 H   0  0
   -9.5832    9.5089    0.0000 H   0  0
  1  2  1  0
  1  3  2  0
  1  4  1  0
  2  5  1  0
  2  6  2  0
  3  7  1  0
  3  8  1  0
  4  9  1  0
  5 10  1  0
  6 11  1  0
  7 12  1  0
  7 11  2  0
  8  9  1  0
 10 13  2  0
 10 14  1  0
 13 15  1  0
 13 16  1  0
 14 17  2  0
 14 18  1  0
 15 19  2  0
 17 19  1  0
 19 20  1  0
 20 21  1  0
 21 22  1  0
 21 23  2  0
 22 24  1  0
 22 25  2  0
  4 26  1  0
  4 27  1  0
  6 28  1  0
  8 29  1  0
  8 30  1  0
  9 31  1  0
  9 32  1  0
 11 33  1  0
 12 34  1  0
 15 35  1  0
 16 36  1  0
 16 37  1  0
 16 38  1  0
 17 39  1  0
 18 40  1  0
 18 41  1  0
 18 42  1  0
 20 43  1  0
 24 44  1  0
V    1 0
V    2 1
V    3 2
V    4 3
V    5 4
V    6 5
V    7 6
V    8 7
V    9 8
V   10 9
V   11 10
V   12 11
V   13 12
V   14 13
V   15 14
V   16 15
V   17 16
V   18 17
V   19 18
V   20 19
V   21 20
V   22 21
V   23 22
V   24 23
V   25 24
M  END
> <DSSTox_RID>
66251

> <DSSTox_CID>
27306

> <DSSTox_CID_Parent>
27306

> <DSSTox_Generic_SID>
47306

> <DSSTox_FileID>
879_TXCST2_v1a

> <STRUCTURE_Formula>
C19H19NO5

> <STRUCTURE_MolecularWeight>
341.3579

> <STRUCTURE_ChemicalType>
defined organic

> <STRUCTURE_TestedForm_DefinedOrganic>
parent

> <STRUCTURE_Shown>
tested chemical

> <TestSubstance_ChemicalName>
({4-[(7-hydroxy-2,3-dihydro-1H-inden-4-yl)oxy]-3,5-dimethylphenyl}amino)(oxo)acetic acid

> <TestSubstance_CASRN>
290352-28-2

> <TestSubstance_Description>
single chemical compound

> <STRUCTURE_ChemicalName_IUPAC>
({4-[(7-hydroxy-2,3-dihydro-1H-inden-4-yl)oxy]-3,5-dimethylphenyl}amino)(oxo)acetic acid

> <STRUCTURE_SMILES>
OC1=CC=C(OC3=C(C)C=C(NC(C(O)=O)=O)C=C3C)C2=C1CCC2

> <STRUCTURE_Parent_SMILES>
OC1=CC=C(OC3=C(C)C=C(NC(C(O)=O)=O)C=C3C)C2=C1CCC2

> <STRUCTURE_InChIS>
InChI=1S/C19H19NO5/c1-10-8-12(20-18(22)19(23)24)9-11(2)17(10)25-16-7-6-15(21)13-4-3-5-14(13)16/h6-9,21H,3-5H2,1-2H3,(H,20,22)(H,23,24)

> <STRUCTURE_InChIKey>
CEYPDXWCYTVSDN-UHFFFAOYSA-N

> <Substance_modify_yyyymmdd>
20100529

> <Coord_Metals>
0

> <Index>
879

> <Canonical_Smiles>
Cc1cc(NC(=O)C(=O)O)cc(C)c1Oc2ccc(O)c3CCCc23

> <Molecular_Weight>
341.35786

> <Frequency>
1

$$$$

  SciTegic          2D

 51 54  0  0  0  0            999 V2000
    0.2917    0.7475    0.0000 C   0  0
    0.2917   -0.7475    0.0000 C   0  0
   -1.0028    1.5132    0.0000 C   0  0
    1.7138    1.2033    0.0000 C   0  0
    1.7138   -1.2033    0.0000 N   0  0
   -1.0028   -1.5132    0.0000 C   0  0
   -2.3155    0.7475    0.0000 C   0  0
   -0.9971    3.0138    0.0000 O   0  0
    2.5889    0.0182    0.0000 C   0  0
    2.1825   -2.6263    0.0000 C   0  0
   -2.3155   -0.7475    0.0000 C   0  0
   -2.2935    3.7700    0.0000 C   0  0
    1.1835   -3.7463    0.0000 C   0  0
   -2.2878    5.2708    0.0000 C   0  0
   -3.5842    6.0270    0.0000 C   0  0
   -4.9383    5.4119    0.0000 N   0  0
   -3.7154    7.5084    0.0000 C   0  0
   -5.9370    6.5311    0.0000 C   0  0
   -5.1812    7.8268    0.0000 O   0  0
   -2.5899    8.4972    0.0000 C   0  0
   -7.4302    6.3808    0.0000 C   0  0
   -8.1444    5.0674    0.0000 C   0  0
   -8.2092    7.6647    0.0000 C   0  0
   -9.6439    5.0300    0.0000 C   0  0
   -9.7088    7.6273    0.0000 C   0  0
  -10.4261    6.3099    0.0000 C   0  0
    1.6530   -5.1718    0.0000 C   0  0
    2.8279   -5.4162    0.0000 O   0  0
    0.6540   -6.2918    0.0000 O   0  0
    2.0210    2.1549    0.0000 H   0  0
   -0.9997   -2.5132    0.0000 H   0  0
   -3.1826    1.2456    0.0000 H   0  0
    3.5889    0.0254    0.0000 H   0  0
    2.8486   -1.8804    0.0000 H   0  0
    3.1616   -2.8300    0.0000 H   0  0
   -3.1826   -1.2456    0.0000 H   0  0
   -3.1616    3.2735    0.0000 H   0  0
   -2.2978    2.7700    0.0000 H   0  0
    0.5175   -4.4922    0.0000 H   0  0
    0.2045   -3.5426    0.0000 H   0  0
   -1.4197    5.7672    0.0000 H   0  0
   -2.2835    6.2708    0.0000 H   0  0
   -1.6425    8.1772    0.0000 H   0  0
   -2.7862    9.4778    0.0000 H   0  0
   -1.8390    9.1576    0.0000 H   0  0
   -7.6227    4.2143    0.0000 H   0  0
   -7.7296    8.5422    0.0000 H   0  0
  -10.1222    4.1518    0.0000 H   0  0
  -10.2302    8.4806    0.0000 H   0  0
  -11.4258    6.2850    0.0000 H   0  0
    0.9668   -7.2416    0.0000 H   0  0
  1  2  2  0
  1  3  1  0
  1  4  1  0
  2  5  1  0
  2  6  1  0
  3  7  2  0
  3  8  1  0
  4  9  2  0
  5 10  1  0
  5  9  1  0
  6 11  2  0
  7 11  1  0
  8 12  1  0
 10 13  1  0
 12 14  1  0
 13 27  1  0
 14 15  1  0
 15 16  1  0
 15 17  2  0
 16 18  2  0
 17 19  1  0
 17 20  1  0
 18 21  1  0
 18 19  1  0
 21 22  2  0
 21 23  1  0
 22 24  1  0
 23 25  2  0
 24 26  2  0
 25 26  1  0
 27 28  2  0
 27 29  1  0
  4 30  1  0
  6 31  1  0
  7 32  1  0
  9 33  1  0
 10 34  1  0
 10 35  1  0
 11 36  1  0
 12 37  1  0
 12 38  1  0
 13 39  1  0
 13 40  1  0
 14 41  1  0
 14 42  1  0
 20 43  1  0
 20 44  1  0
 20 45  1  0
 22 46  1  0
 23 47  1  0
 24 48  1  0
 25 49  1  0
 26 50  1  0
 29 51  1  0
V    1 0
V    2 1
V    3 2
V    4 3
V    5 4
V    6 5
V    7 6
V    8 7
V    9 8
V   10 9
V   11 10
V   12 11
V   13 12
V   14 13
V   15 14
V   16 15
V   17 16
V   18 17
V   19 18
V   20 19
V   21 20
V   22 21
V   23 22
V   24 23
V   25 24
V   26 25
V   27 26
V   28 27
V   29 28
M  END
> <DSSTox_RID>
66252

> <DSSTox_CID>
27307

> <DSSTox_CID_Parent>
27307

> <DSSTox_Generic_SID>
47307

> <DSSTox_FileID>
880_TXCST2_v1a

> <STRUCTURE_Formula>
C23H22N2O4

> <STRUCTURE_MolecularWeight>
390.4318

> <STRUCTURE_ChemicalType>
defined organic

> <STRUCTURE_TestedForm_DefinedOrganic>
parent

> <STRUCTURE_Shown>
tested chemical

> <TestSubstance_ChemicalName>
3-{4-[2-(5-methyl-2-phenyl-1,3-oxazol-4-yl)ethoxy]-1H-indol-1-yl}propanoic acid

> <TestSubstance_CASRN>
501027-49-2

> <TestSubstance_Description>
single chemical compound

> <ChemicalNote>
structure provided by Pfizer C14 labelled

> <Source_ChemicalNote>
structure provided by Pfizer C14 labelled

> <STRUCTURE_ChemicalName_IUPAC>
3-{4-[2-(5-methyl-2-phenyl-1,3-oxazol-4-yl)ethoxy]-1H-indol-1-yl}propanoic acid

> <STRUCTURE_SMILES>
O=C(O)CCN2C1=C(C=C2)C(OCCC3=C(C)OC(C4=CC=CC=C4)=N3)=CC=C1

> <STRUCTURE_Parent_SMILES>
O=C(O)CCN2C1=C(C=C2)C(OCCC3=C(C)OC(C4=CC=CC=C4)=N3)=CC=C1

> <STRUCTURE_InChIS>
InChI=1S/C23H22N2O4/c1-16-19(24-23(29-16)17-6-3-2-4-7-17)12-15-28-21-9-5-8-20-18(21)10-13-25(20)14-11-22(26)27/h2-10,13H,11-12,14-15H2,1H3,(H,26,27)

> <STRUCTURE_InChIKey>
OMSPUVWUIHNYCS-UHFFFAOYSA-N

> <Substance_modify_yyyymmdd>
20100529

> <Coord_Metals>
0

> <Index>
880

> <Canonical_Smiles>
Cc1oc(nc1CCOc2cccc3c2ccn3CCC(=O)O)c4ccccc4

> <Molecular_Weight>
390.43178

> <Frequency>
1

$$$$

  SciTegic          2D

 60 64  0  0  0  0            999 V2000
   -3.9123    1.4971    0.0000 C   0  0
   -2.6111    0.7486    0.0000 C   0  0
   -2.7000    2.3169    0.0000 C   0  0
   -5.1271    2.3133    0.0000 C   0  0
   -5.2111    0.7449    0.0000 C   0  0
   -1.2964    1.4973    0.0000 C   0  0
   -2.6111   -0.7486    0.0000 C   0  0
   -3.1657    3.7428    0.0000 C   0  0
   -4.6657    3.7406    0.0000 C   0  0
   -6.5123    1.4927    0.0000 O   0  0
   -5.2090   -0.4551    0.0000 O   0  0
    0.0000    0.7486    0.0000 C   0  0
   -1.2964   -1.4973    0.0000 C   0  0
    0.0000   -0.7486    0.0000 C   0  0
    1.2964    1.4973    0.0000 O   0  0
    1.2964   -1.4973    0.0000 C   0  0
    2.5929    0.7486    0.0000 C   0  0
    2.5929   -0.7486    0.0000 C   0  0
   -0.0035   -2.2057    0.0000 O   0  0
    3.0648   -2.1518    0.0000 C   0  0
    4.5281   -2.4855    0.0000 C   0  0
    4.9706   -3.9187    0.0000 C   0  0
    5.5481   -1.3856    0.0000 C   0  0
    6.4330   -4.2522    0.0000 C   0  0
    7.0106   -1.7191    0.0000 C   0  0
    7.4530   -3.1524    0.0000 C   0  0
    8.9162   -3.4860    0.0000 C   0  0
    9.3611   -4.9186    0.0000 C   0  0
    9.9346   -2.3846    0.0000 C   0  0
   10.8241   -5.2497    0.0000 C   0  0
   11.3976   -2.7157    0.0000 C   0  0
   11.8423   -4.1483    0.0000 C   0  0
   -2.5213    1.3331    0.0000 H   0  0
   -1.9551    2.9841    0.0000 H   0  0
   -5.3029    1.3289    0.0000 H   0  0
   -5.8740    2.9782    0.0000 H   0  0
   -1.2934    2.4973    0.0000 H   0  0
   -3.4756   -1.2512    0.0000 H   0  0
   -2.1727    3.6249    0.0000 H   0  0
   -3.5873    4.6496    0.0000 H   0  0
   -4.2467    4.6485    0.0000 H   0  0
   -5.6584    3.6198    0.0000 H   0  0
   -7.3777    0.9915    0.0000 H   0  0
   -1.2934   -2.4973    0.0000 H   0  0
    2.1744   -1.9759    0.0000 H   0  0
    3.4468    0.2283    0.0000 H   0  0
    2.5694    1.7484    0.0000 H   0  0
    3.4463   -0.2275    0.0000 H   0  0
   -0.8697   -1.7061    0.0000 H   0  0
    3.3600   -3.1073    0.0000 H   0  0
    2.3851   -2.8852    0.0000 H   0  0
    4.2906   -4.6519    0.0000 H   0  0
    5.2531   -0.4301    0.0000 H   0  0
    6.7280   -5.2077    0.0000 H   0  0
    7.6906   -0.9859    0.0000 H   0  0
    8.6823   -5.6529    0.0000 H   0  0
    9.6382   -1.4295    0.0000 H   0  0
   11.1206   -6.2047    0.0000 H   0  0
   12.0765   -1.9814    0.0000 H   0  0
   12.8177   -4.3690    0.0000 H   0  0
  1  2  1  0
  1  3  1  0
  1  4  1  0
  1  5  1  0
  2  6  2  0
  2  7  1  0
  3  8  1  0
  4  9  1  0
  5 10  1  0
  5 11  2  0
  6 12  1  0
  7 13  2  0
  8  9  1  0
 12 14  2  0
 12 15  1  0
 13 14  1  0
 14 16  1  0
 15 17  1  0
 16 18  1  0
 16 19  1  0
 17 18  1  0
 18 20  1  0
 20 21  1  0
 21 22  2  0
 21 23  1  0
 22 24  1  0
 23 25  2  0
 24 26  2  0
 25 26  1  0
 26 27  1  0
 27 28  1  0
 27 29  2  0
 28 30  2  0
 29 31  1  0
 30 32  1  0
 31 32  2  0
  3 33  1  0
  3 34  1  0
  4 35  1  0
  4 36  1  0
  6 37  1  0
  7 38  1  0
  8 39  1  0
  8 40  1  0
  9 41  1  0
  9 42  1  0
 10 43  1  0
 13 44  1  0
 16 45  1  0
 17 46  1  0
 17 47  1  0
 18 48  1  0
 19 49  1  0
 20 50  1  0
 20 51  1  0
 22 52  1  0
 23 53  1  0
 24 54  1  0
 25 55  1  0
 28 56  1  0
 29 57  1  0
 30 58  1  0
 31 59  1  0
 32 60  1  0
V    1 0
V    2 1
V    3 2
V    4 3
V    5 4
V    6 5
V    7 6
V    8 7
V    9 8
V   10 9
V   11 10
V   12 11
V   13 12
V   14 13
V   15 14
V   16 15
V   17 16
V   18 17
V   19 18
V   20 19
V   21 20
V   22 21
V   23 22
V   24 23
V   25 24
V   26 25
V   27 26
V   28 27
V   29 28
V   30 29
V   31 30
V   32 31
M  END
> <DSSTox_RID>
66253

> <DSSTox_CID>
27308

> <DSSTox_CID_Parent>
27306

> <DSSTox_Generic_SID>
47308

> <DSSTox_FileID>
881_TXCST2_v1a

> <STRUCTURE_Formula>
C28H28O4

> <STRUCTURE_MolecularWeight>
428.5195

> <STRUCTURE_ChemicalType>
defined organic

> <STRUCTURE_TestedForm_DefinedOrganic>
parent

> <STRUCTURE_Shown>
tested chemical

> <TestSubstance_ChemicalName>
1-[(3S,4R)-3-(biphenyl-4-ylmethyl)-4-hydroxy-3,4-dihydro-2H-chromen-7-yl]cyclopentanecarboxylic acid

> <TestSubstance_CASRN>
158081-99-3

> <TestSubstance_Description>
single chemical compound

> <ChemicalNote>
stereochem

> <STRUCTURE_ChemicalName_IUPAC>
1-[(3S,4R)-3-(biphenyl-4-ylmethyl)-4-hydroxy-3,4-dihydro-2H-chromen-7-yl]cyclopentanecarboxylic acid

> <STRUCTURE_SMILES>
OC(C2(CCCC2)C1=CC(OC[C@H](CC4=CC=C(C5=CC=CC=C5)C=C4)[C@H]3O)=C3C=C1)=O

> <STRUCTURE_Parent_SMILES>
OC(C2(CCCC2)C1=CC(OC[C@H](CC4=CC=C(C5=CC=CC=C5)C=C4)[C@H]3O)=C3C=C1)=O

> <STRUCTURE_InChIS>
InChI=1S/C28H28O4/c29-26-22(16-19-8-10-21(11-9-19)20-6-2-1-3-7-20)18-32-25-17-23(12-13-24(25)26)28(27(30)31)14-4-5-15-28/h1-3,6-13,17,22,26,29H,4-5,14-16,18H2,(H,30,31)/t22-,26+/m0/s1

> <STRUCTURE_InChIKey>
KMNLXCBYBKHKSK-BKMJKUGQSA-N

> <Substance_modify_yyyymmdd>
20100529

> <Coord_Metals>
0

> <Index>
881

> <Canonical_Smiles>
OC1C(Cc2ccc(cc2)c3ccccc3)COc4cc(ccc14)C5(CCCC5)C(=O)O

> <Molecular_Weight>
428.51952

> <Frequency>
1

$$$$

  SciTegic          2D

 43 45  0  0  0  0            999 V2000
    0.2917    0.7475    0.0000 C   0  0
    1.7138    1.2033    0.0000 C   0  0
    0.2917   -0.7475    0.0000 C   0  0
   -1.0028    1.5132    0.0000 C   0  0
    2.1749    2.6315    0.0000 C   0  0
    2.5889    0.0182    0.0000 C   0  0
    1.7138   -1.2033    0.0000 N   0  0
   -1.0028   -1.5132    0.0000 C   0  0
   -2.3155    0.7475    0.0000 C   0  0
    3.6113    3.0471    0.0000 C   0  0
    1.0885    3.6681    0.0000 C   0  0
    4.0872    0.0351    0.0000 C   0  0
    2.1825   -2.6263    0.0000 C   0  0
   -2.3155   -0.7475    0.0000 C   0  0
    3.9698    4.5036    0.0000 C   0  0
    1.4470    5.1246    0.0000 N   0  0
    1.1835   -3.7463    0.0000 C   0  0
    2.8877    5.5424    0.0000 C   0  0
    1.6530   -5.1718    0.0000 C   0  0
    0.6540   -6.2918    0.0000 C   0  0
    1.1235   -7.7173    0.0000 C   0  0
    0.1244   -8.8373    0.0000 O   0  0
    2.2983   -7.9617    0.0000 O   0  0
   -0.9997    2.5132    0.0000 H   0  0
   -0.9997   -2.5132    0.0000 H   0  0
   -3.1826    1.2456    0.0000 H   0  0
    4.3325    2.3544    0.0000 H   0  0
    0.1285    3.3882    0.0000 H   0  0
    4.5779    0.9065    0.0000 H   0  0
    4.5968   -0.8253    0.0000 H   0  0
    5.0871    0.0460    0.0000 H   0  0
    2.8486   -1.8804    0.0000 H   0  0
    3.1616   -2.8300    0.0000 H   0  0
   -3.1826   -1.2456    0.0000 H   0  0
    4.9302    4.7822    0.0000 H   0  0
    0.8702   -2.7967    0.0000 H   0  0
    0.2045   -3.5426    0.0000 H   0  0
    3.1267    6.5134    0.0000 H   0  0
    2.3190   -4.4259    0.0000 H   0  0
    2.6320   -5.3755    0.0000 H   0  0
   -0.0121   -7.0377    0.0000 H   0  0
   -0.3251   -6.0881    0.0000 H   0  0
    0.4373   -9.7871    0.0000 H   0  0
  1  2  1  0
  1  3  2  0
  1  4  1  0
  2  5  1  0
  2  6  2  0
  3  7  1  0
  3  8  1  0
  4  9  2  0
  5 10  1  0
  5 11  2  0
  6 12  1  0
  6  7  1  0
  7 13  1  0
  8 14  2  0
  9 14  1  0
 10 15  2  0
 11 16  1  0
 13 17  1  0
 15 18  1  0
 16 18  2  0
 17 19  1  0
 19 20  1  0
 20 21  1  0
 21 22  1  0
 21 23  2  0
  4 24  1  0
  8 25  1  0
  9 26  1  0
 10 27  1  0
 11 28  1  0
 12 29  1  0
 12 30  1  0
 12 31  1  0
 13 32  1  0
 13 33  1  0
 14 34  1  0
 15 35  1  0
 17 36  1  0
 17 37  1  0
 18 38  1  0
 19 39  1  0
 19 40  1  0
 20 41  1  0
 20 42  1  0
 22 43  1  0
V    1 0
V    2 1
V    3 2
V    4 3
V    5 4
V    6 5
V    7 6
V    8 7
V    9 8
V   10 9
V   11 10
V   12 11
V   13 12
V   14 13
V   15 14
V   16 15
V   17 16
V   18 17
V   19 18
V   20 19
V   21 20
V   22 21
V   23 22
M  END
> <DSSTox_RID>
66254

> <DSSTox_CID>
27309

> <DSSTox_CID_Parent>
27309

> <DSSTox_Generic_SID>
47309

> <DSSTox_FileID>
882_TXCST2_v1a

> <STRUCTURE_Formula>
C19H20N2O2

> <STRUCTURE_MolecularWeight>
308.3743

> <STRUCTURE_ChemicalType>
defined organic

> <STRUCTURE_TestedForm_DefinedOrganic>
parent

> <STRUCTURE_Shown>
tested chemical

> <TestSubstance_ChemicalName>
5-[2-methyl-3-(pyridin-3-yl)-1H-indol-1-yl]pentanoic acid

> <TestSubstance_CASRN>
162706-14-1

> <TestSubstance_Description>
single chemical compound

> <STRUCTURE_ChemicalName_IUPAC>
5-[2-methyl-3-(pyridin-3-yl)-1H-indol-1-yl]pentanoic acid

> <STRUCTURE_SMILES>
OC(CCCCN1C2=C(C=CC=C2)C(C3=CN=CC=C3)=C1C)=O

> <STRUCTURE_Parent_SMILES>
OC(CCCCN1C2=C(C=CC=C2)C(C3=CN=CC=C3)=C1C)=O

> <STRUCTURE_InChIS>
InChI=1S/C19H20N2O2/c1-14-19(15-7-6-11-20-13-15)16-8-2-3-9-17(16)21(14)12-5-4-10-18(22)23/h2-3,6-9,11,13H,4-5,10,12H2,1H3,(H,22,23)

> <STRUCTURE_InChIKey>
MYDPDVXVDQMNLD-UHFFFAOYSA-N

> <Substance_modify_yyyymmdd>
20100529

> <Coord_Metals>
0

> <Index>
882

> <Canonical_Smiles>
Cc1c(c2cccnc2)c3ccccc3n1CCCCC(=O)O

> <Molecular_Weight>
308.3743

> <Frequency>
1

$$$$

  SciTegic          2D

 71 75  0  0  0  0            999 V2000
  -14.3124   -5.6607    0.0000 C   0  0
  -12.8899   -6.1308    0.0000 C   0  0
  -12.4225   -7.5561    0.0000 O   0  0
  -10.9225   -7.5520    0.0000 C   0  0
  -10.4629   -6.1242    0.0000 N   0  0
  -11.6787   -5.2678    0.0000 C   0  0
  -11.6828   -3.7669    0.0000 C   0  0
  -10.3855   -3.0122    0.0000 C   0  0
  -10.3896   -1.5114    0.0000 O   0  0
   -9.0923   -0.7566    0.0000 C   0  0
   -9.0942    0.7434    0.0000 C   0  0
   -7.7961    1.4950    0.0000 C   0  0
   -6.4961    0.7467    0.0000 C   0  0
   -5.1973    1.4987    0.0000 C   0  0
   -5.1983    2.9996    0.0000 C   0  0
   -3.8995    3.7516    0.0000 N   0  0
   -3.9005    5.2525    0.0000 C   0  0
   -5.1984    6.0044    0.0000 C   0  0
   -5.1963    7.5044    0.0000 C   0  0
   -3.8963    8.2525    0.0000 C   0  0
   -2.5983    7.5007    0.0000 C   0  0
   -2.6004    6.0007    0.0000 C   0  0
   -1.3001    5.2512    0.0000 C   0  0
   -1.2996    4.0512    0.0000 O   0  0
   -0.0004    6.0017    0.0000 C   0  0
    1.3003    5.2545    0.0000 C   0  0
    2.5978    6.0072    0.0000 C   0  0
    2.5946    7.5072    0.0000 C   0  0
    1.2940    8.2545    0.0000 C   0  0
   -0.0035    7.5018    0.0000 C   0  0
   -6.4987    3.7487    0.0000 C   0  0
   -6.4995    4.9487    0.0000 O   0  0
   -7.7982    2.9979    0.0000 O   0  0
   -6.4942   -0.7533    0.0000 C   0  0
   -7.7923   -1.5050    0.0000 C   0  0
  -10.0371   -8.7638    0.0000 C   0  0
  -10.5378  -10.1725    0.0000 C   0  0
   -9.5642  -11.3136    0.0000 C   0  0
   -8.0892  -11.0410    0.0000 C   0  0
   -7.5877   -9.6273    0.0000 C   0  0
   -8.5613   -8.4862    0.0000 C   0  0
  -15.0594   -6.3256    0.0000 H   0  0
  -14.5151   -4.6814    0.0000 H   0  0
  -15.2618   -5.3464    0.0000 H   0  0
  -12.5503   -3.2696    0.0000 H   0  0
  -12.5473   -4.2694    0.0000 H   0  0
   -9.5180   -3.5096    0.0000 H   0  0
   -9.5209   -2.5097    0.0000 H   0  0
   -9.9609    1.2423    0.0000 H   0  0
   -7.7974    2.4950    0.0000 H   0  0
   -4.3308    0.9996    0.0000 H   0  0
   -5.1962    0.4987    0.0000 H   0  0
   -5.1994    3.9996    0.0000 H   0  0
   -3.0330    3.2525    0.0000 H   0  0
   -6.0652    5.5056    0.0000 H   0  0
   -6.0617    8.0056    0.0000 H   0  0
   -3.8949    9.2525    0.0000 H   0  0
   -1.7315    7.9995    0.0000 H   0  0
    1.3024    4.2545    0.0000 H   0  0
    3.4648    5.5091    0.0000 H   0  0
    3.4596    8.0090    0.0000 H   0  0
    1.2919    9.2545    0.0000 H   0  0
   -0.8705    8.0000    0.0000 H   0  0
   -8.6647    3.4970    0.0000 H   0  0
   -5.6276   -1.2522    0.0000 H   0  0
   -7.7910   -2.5050    0.0000 H   0  0
  -11.5212  -10.3539    0.0000 H   0  0
   -9.8985  -12.2561    0.0000 H   0  0
   -7.4401  -11.8018    0.0000 H   0  0
   -6.6044   -9.4456    0.0000 H   0  0
   -8.2285   -7.5432    0.0000 H   0  0
  1  2  1  0
  2  3  1  0
  2  6  2  0
  3  4  1  0
  4  5  2  0
  4 36  1  0
  5  6  1  0
  6  7  1  0
  7  8  1  0
  8  9  1  0
  9 10  1  0
 10 11  1  0
 10 35  2  0
 11 12  2  0
 12 13  1  0
 13 14  1  0
 13 34  2  0
 14 15  1  0
 15 16  1  0
 15 31  1  0
 16 17  1  0
 17 18  2  0
 17 22  1  0
 18 19  1  0
 19 20  2  0
 20 21  1  0
 21 22  2  0
 22 23  1  0
 23 24  2  0
 23 25  1  0
 25 26  2  0
 25 30  1  0
 26 27  1  0
 27 28  2  0
 28 29  1  0
 29 30  2  0
 31 32  2  0
 31 33  1  0
 34 35  1  0
 36 37  1  0
 36 41  2  0
 37 38  2  0
 38 39  1  0
 39 40  2  0
 40 41  1  0
  1 42  1  0
  1 43  1  0
  1 44  1  0
  7 45  1  0
  7 46  1  0
  8 47  1  0
  8 48  1  0
 11 49  1  0
 12 50  1  0
 14 51  1  0
 14 52  1  0
 15 53  1  0
 16 54  1  0
 18 55  1  0
 19 56  1  0
 20 57  1  0
 21 58  1  0
 26 59  1  0
 27 60  1  0
 28 61  1  0
 29 62  1  0
 30 63  1  0
 33 64  1  0
 34 65  1  0
 35 66  1  0
 37 67  1  0
 38 68  1  0
 39 69  1  0
 40 70  1  0
 41 71  1  0
V    1 0
V    2 1
V    3 2
V    4 3
V    5 4
V    6 5
V    7 6
V    8 7
V    9 8
V   10 9
V   11 10
V   12 11
V   13 12
V   14 13
V   15 14
V   16 15
V   17 16
V   18 17
V   19 18
V   20 19
V   21 20
V   22 21
V   23 22
V   24 23
V   25 24
V   26 25
V   27 26
V   28 27
V   29 28
V   30 29
V   31 30
V   32 31
V   33 32
V   34 33
V   35 34
V   36 35
V   37 36
V   38 37
V   39 38
V   40 39
V   41 40
M  END
> <DSSTox_RID>
66256

> <DSSTox_CID>
27310

> <DSSTox_CID_Parent>
27310

> <DSSTox_Generic_SID>
47310

> <DSSTox_FileID>
883_TXCST2_v1a

> <STRUCTURE_Formula>
C34H30N2O5

> <STRUCTURE_MolecularWeight>
546.6124

> <STRUCTURE_ChemicalType>
defined organic

> <STRUCTURE_TestedForm_DefinedOrganic>
parent

> <STRUCTURE_Shown>
tested chemical

> <TestSubstance_ChemicalName>
Farglitazar

> <TestSubstance_CASRN>
196808-45-4

> <TestSubstance_Description>
single chemical compound

> <ChemicalNote>
stereochem

> <STRUCTURE_ChemicalName_IUPAC>
O-[2-(5-methyl-2-phenyl-1,3-oxazol-4-yl)ethyl]-N-[2-(phenylcarbonyl)phenyl]-L-tyrosine

> <STRUCTURE_SMILES>
O=C(C4=CC=CC=C4)C3=C(C=CC=C3)N[C@H]([C@](O)=O)CC2=CC=C(C=C2)OCCC1=C(OC(C5=CC=CC=C5)=N1)C

> <STRUCTURE_Parent_SMILES>
O=C(C4=CC=CC=C4)C3=C(C=CC=C3)N[C@H]([C@](O)=O)CC2=CC=C(C=C2)OCCC1=C(OC(C5=CC=CC=C5)=N1)C

> <STRUCTURE_InChIS>
InChI=1S/C34H30N2O5/c1-23-29(36-33(41-23)26-12-6-3-7-13-26)20-21-40-27-18-16-24(17-19-27)22-31(34(38)39)35-30-15-9-8-14-28(30)32(37)25-10-4-2-5-11-25/h2-19,31,35H,20-22H2,1H3,(H,38,39)/t31-/m0/s1

> <STRUCTURE_InChIKey>
ZZCHHVUQYRMYLW-HKBQPEDESA-N

> <Substance_modify_yyyymmdd>
20100529

> <Coord_Metals>
0

> <Index>
883

> <Canonical_Smiles>
Cc1oc(nc1CCOc2ccc(CC(Nc3ccccc3C(=O)c4ccccc4)C(=O)O)cc2)c5ccccc5

> <Molecular_Weight>
546.61239

> <Frequency>
1

$$$$

  SciTegic          2D

 88 94  0  0  0  0            999 V2000
    0.4194   -3.3109    0.0000 C   0  0
    0.4109   -1.0343    0.0000 C   0  0
    0.3882   -2.1574    0.0000 C   0  0
    1.4453   -3.5994    0.0000 C   0  0
    0.4044   -4.6792    0.0000 N   0  0
   -0.5808   -2.0081    0.0000 C   0  0
    3.0912   -3.5919    0.0000 C   0  0
    1.8525   -3.0748    0.0000 C   0  0
    1.4122    0.0801    0.0000 N   0  0
    1.1020    1.5504    0.0000 C   0  0
   -0.2631    2.1682    0.0000 C   0  0
    2.3797    2.2837    0.0000 N   0  0
    3.4986    1.2946    0.0000 C   0  0
    4.9917    1.4754    0.0000 C   0  0
    5.8858    0.2465    0.0000 C   0  0
    5.2848   -1.1224    0.0000 C   0  0
    3.7750   -1.2958    0.0000 C   0  0
    2.8976   -0.0742    0.0000 C   0  0
  -13.2798   -1.8069    0.0000 C   0  0
  -12.0024   -2.5947    0.0000 N   0  0
  -12.0450   -4.0949    0.0000 S   0  0
  -13.1011   -4.6649    0.0000 O   0  0
  -13.0667   -3.4655    0.0000 O   0  0
  -10.7676   -4.8828    0.0000 C   0  0
   -9.4473   -4.1708    0.0000 C   0  0
   -8.1705   -4.9581    0.0000 C   0  0
   -6.8481   -4.2484    0.0000 C   0  0
   -6.8112   -3.0490    0.0000 O   0  0
   -5.5718   -5.0380    0.0000 N   0  0
   -4.2491   -4.3306    0.0000 C   0  0
   -2.9751   -5.1224    0.0000 C   0  0
   -3.0592   -6.5996    0.0000 C   0  0
   -2.0578   -5.4817    0.0000 C   0  0
   -0.5888   -5.7890    0.0000 C   0  0
   -4.3465   -7.3290    0.0000 C   0  0
   -5.6205   -6.5372    0.0000 C   0  0
   -2.5921   -8.0263    0.0000 C   0  0
   -3.5933   -9.1433    0.0000 C   0  0
   -3.1265  -10.5689    0.0000 C   0  0
   -1.6586  -10.8774    0.0000 C   0  0
   -0.6574   -9.7604    0.0000 C   0  0
    0.5169  -10.0073    0.0000 F   0  0
   -1.1242   -8.3349    0.0000 C   0  0
   -8.2142   -6.4575    0.0000 C   0  0
   -7.1928   -7.0875    0.0000 Cl  0  0
   -9.5344   -7.1695    0.0000 C   0  0
  -10.8111   -6.3821    0.0000 C   0  0
  -11.8673   -6.9517    0.0000 F   0  0
    1.0410   -4.0942    0.0000 H   0  0
   -0.2041   -0.2458    0.0000 H   0  0
    0.2132   -3.1419    0.0000 H   0  0
   -0.3210   -1.4524    0.0000 H   0  0
    1.9937   -4.4357    0.0000 H   0  0
   -1.1337   -2.8414    0.0000 H   0  0
   -1.0124   -1.1060    0.0000 H   0  0
    3.4347   -4.5311    0.0000 H   0  0
    3.7669   -2.8547    0.0000 H   0  0
    1.0236   -2.5153    0.0000 H   0  0
    2.7878   -2.7210    0.0000 H   0  0
   -1.0761    1.5860    0.0000 H   0  0
   -0.3611    3.1634    0.0000 H   0  0
   -1.1739    2.5811    0.0000 H   0  0
    5.3909    2.3922    0.0000 H   0  0
    6.8800    0.3539    0.0000 H   0  0
    5.8785   -1.9270    0.0000 H   0  0
    3.3702   -2.2102    0.0000 H   0  0
  -13.2515   -0.8073    0.0000 H   0  0
  -14.1599   -2.2818    0.0000 H   0  0
  -14.1312   -1.2824    0.0000 H   0  0
  -11.1224   -2.1198    0.0000 H   0  0
   -9.4183   -3.1712    0.0000 H   0  0
   -3.3564   -3.8800    0.0000 H   0  0
   -5.1106   -3.8229    0.0000 H   0  0
   -3.8727   -5.5631    0.0000 H   0  0
   -2.9528   -4.1227    0.0000 H   0  0
   -1.3910   -4.7365    0.0000 H   0  0
   -2.3696   -4.5316    0.0000 H   0  0
    0.3899   -5.9943    0.0000 H   0  0
   -0.2771   -6.7392    0.0000 H   0  0
   -3.4794   -7.8271    0.0000 H   0  0
   -5.2331   -7.7916    0.0000 H   0  0
   -4.7501   -6.0450    0.0000 H   0  0
   -6.4572   -5.9896    0.0000 H   0  0
   -4.5719   -8.9376    0.0000 H   0  0
   -3.7940  -11.3135    0.0000 H   0  0
   -1.3474  -11.8278    0.0000 H   0  0
   -0.4567   -7.5902    0.0000 H   0  0
   -9.5634   -8.1691    0.0000 H   0  0
  1  5  1  0
  1  6  1  0
  1  8  1  0
  2  3  1  0
  2  6  1  0
  2  9  1  0
  3  4  1  0
  4  5  1  0
  4  7  1  0
  5 34  1  0
  7  8  1  0
  9 10  1  0
  9 18  1  0
 10 11  1  0
 10 12  2  0
 12 13  1  0
 13 14  1  0
 13 18  2  0
 14 15  2  0
 15 16  1  0
 16 17  2  0
 17 18  1  0
 19 20  1  0
 20 21  1  0
 21 22  2  0
 21 23  2  0
 21 24  1  0
 24 25  1  0
 24 47  2  0
 25 26  2  0
 26 27  1  0
 26 44  1  0
 27 28  2  0
 27 29  1  0
 29 30  1  0
 29 36  1  0
 30 31  1  0
 31 32  1  0
 32 33  1  0
 32 35  1  0
 32 37  1  0
 33 34  1  0
 35 36  1  0
 37 38  1  0
 37 43  2  0
 38 39  2  0
 39 40  1  0
 40 41  2  0
 41 42  1  0
 41 43  1  0
 44 45  1  0
 44 46  2  0
 46 47  1  0
 47 48  1  0
  1 49  1  0
  2 50  1  0
  3 51  1  0
  3 52  1  0
  4 53  1  0
  6 54  1  0
  6 55  1  0
  7 56  1  0
  7 57  1  0
  8 58  1  0
  8 59  1  0
 11 60  1  0
 11 61  1  0
 11 62  1  0
 14 63  1  0
 15 64  1  0
 16 65  1  0
 17 66  1  0
 19 67  1  0
 19 68  1  0
 19 69  1  0
 20 70  1  0
 25 71  1  0
 30 72  1  0
 30 73  1  0
 31 74  1  0
 31 75  1  0
 33 76  1  0
 33 77  1  0
 34 78  1  0
 34 79  1  0
 35 80  1  0
 35 81  1  0
 36 82  1  0
 36 83  1  0
 38 84  1  0
 39 85  1  0
 40 86  1  0
 43 87  1  0
 46 88  1  0
V    1 0
V    2 1
V    3 2
V    4 3
V    5 4
V    6 5
V    7 6
V    8 7
V    9 8
V   10 9
V   11 10
V   12 11
V   13 12
V   14 13
V   15 14
V   16 15
V   17 16
V   18 17
V   19 18
V   20 19
V   21 20
V   22 21
V   23 22
V   24 23
V   25 24
V   26 25
V   27 26
V   28 27
V   29 28
V   30 29
V   31 30
V   32 31
V   33 32
V   34 33
V   35 34
V   36 35
V   37 36
V   38 37
V   39 38
V   40 39
V   41 40
V   42 41
V   43 42
V   44 43
V   45 44
V   46 45
V   47 46
V   48 47
M  END
> <DSSTox_RID>
66257

> <DSSTox_CID>
27311

> <DSSTox_CID_Parent>
27311

> <DSSTox_Generic_SID>
47311

> <DSSTox_FileID>
884_TXCST2_v1a

> <STRUCTURE_Formula>
C36H40ClF2N5O3S

> <STRUCTURE_MolecularWeight>
696.2493

> <STRUCTURE_ChemicalType>
defined organic

> <STRUCTURE_TestedForm_DefinedOrganic>
parent

> <STRUCTURE_Shown>
tested chemical

> <TestSubstance_ChemicalName>
4-chloro-2-fluoro-5-{[4-(3-fluorophenyl)-4-{2-[3-(2-methyl-1H-benzimidazol-1-yl)-8-azabicyclo[3.2.1]oct-8-yl]ethyl}piperidin-1-yl]carbonyl}-N-methylbenzenesulfonamide

> <TestSubstance_CASRN>
NOCAS_47311

> <TestSubstance_Description>
single chemical compound

> <STRUCTURE_ChemicalName_IUPAC>
4-chloro-2-fluoro-5-{[4-(3-fluorophenyl)-4-{2-[3-(2-methyl-1H-benzimidazol-1-yl)-8-azabicyclo[3.2.1]oct-8-yl]ethyl}piperidin-1-yl]carbonyl}-N-methylbenzenesulfonamide

> <STRUCTURE_SMILES>
O=S(NC)(C1=C(F)C=C(Cl)C(C(N6CCC(CC6)(C7=CC(F)=CC=C7)CCN2C3CC(N4C(C)=NC5=C4C=CC=C5)CC2CC3)=O)=C1)=O

> <STRUCTURE_Parent_SMILES>
O=S(NC)(C1=C(F)C=C(Cl)C(C(N6CCC(CC6)(C7=CC(F)=CC=C7)CCN2C3CC(N4C(C)=NC5=C4C=CC=C5)CC2CC3)=O)=C1)=O

> <STRUCTURE_InChIS>
InChI=1S/C36H40ClF2N5O3S/c1-23-41-32-8-3-4-9-33(32)44(23)28-19-26-10-11-27(20-28)43(26)17-14-36(24-6-5-7-25(38)18-24)12-15-42(16-13-36)35(45)29-21-34(48(46,47)40-2)31(39)22-30(29)37/h3-9,18,21-22,26-2
8,40H,10-17,19-20H2,1-2H3

> <STRUCTURE_InChIKey>
AWXQYTLSBPWDMJ-UHFFFAOYSA-N

> <Substance_modify_yyyymmdd>
20100529

> <Coord_Metals>
0

> <Index>
884

> <Canonical_Smiles>
CNS(=O)(=O)c1cc(C(=O)N2CCC(CCN3C4CCC3CC(C4)n5c(C)nc6ccccc56)(CC2)c7cccc(F)c7)c(Cl)cc1F

> <Molecular_Weight>
696.2493

> <Frequency>
1

$$$$

  SciTegic          2D

 31 31  0  0  0  0            999 V2000
    3.8912   -5.2578    0.0000 N   0  0
    3.8933   -3.7570    0.0000 C   0  0
    4.9336   -3.1588    0.0000 O   0  0
    2.5951   -3.0039    0.0000 C   0  0
    2.5973   -1.5031    0.0000 N   0  0
    3.8968   -0.7523    0.0000 C   0  0
    3.8973    0.7486    0.0000 C   0  0
    4.9363    1.3489    0.0000 F   0  0
    3.8971    1.9486    0.0000 F   0  0
    2.8580    1.3486    0.0000 F   0  0
    1.2990   -0.7500    0.0000 C   0  0
    1.2990    0.7500    0.0000 C   0  0
    0.0000    1.5000    0.0000 C   0  0
   -1.2990    0.7500    0.0000 C   0  0
   -2.5988    1.5004    0.0000 C   0  0
   -3.6380    2.1004    0.0000 N   0  0
   -1.2990   -0.7500    0.0000 C   0  0
    0.0000   -1.5000    0.0000 C   0  0
   -2.5988   -1.5004    0.0000 C   0  0
   -3.6384   -0.9011    0.0000 F   0  0
   -2.5984   -2.7004    0.0000 F   0  0
   -3.6377   -2.1009    0.0000 F   0  0
    4.7562   -5.7596    0.0000 H   0  0
    3.0243   -5.7563    0.0000 H   0  0
    1.7299   -2.5025    0.0000 H   0  0
    1.7282   -3.5024    0.0000 H   0  0
    4.7628   -1.2523    0.0000 H   0  0
    3.8969   -1.7523    0.0000 H   0  0
    2.1651    1.2500    0.0000 H   0  0
    0.0000    2.5000    0.0000 H   0  0
    0.0000   -2.5000    0.0000 H   0  0
  1  2  1  0
  2  3  2  0
  2  4  1  0
  4  5  1  0
  5  6  1  0
  5 11  1  0
  6  7  1  0
  7  8  1  0
  7  9  1  0
  7 10  1  0
 11 12  1  0
 11 18  2  0
 12 13  2  0
 13 14  1  0
 14 15  1  0
 14 17  2  0
 15 16  3  0
 17 18  1  0
 17 19  1  0
 19 20  1  0
 19 21  1  0
 19 22  1  0
  1 23  1  0
  1 24  1  0
  4 25  1  0
  4 26  1  0
  6 27  1  0
  6 28  1  0
 12 29  1  0
 13 30  1  0
 18 31  1  0
V    1 0
V    2 1
V    3 2
V    4 3
V    5 4
V    6 5
V    7 6
V    8 7
V    9 8
V   10 9
V   11 10
V   12 11
V   13 12
V   14 13
V   15 14
V   16 15
V   17 16
V   18 17
V   19 18
V   20 19
V   21 20
V   22 21
M  END
> <DSSTox_RID>
66258

> <DSSTox_CID>
27312

> <DSSTox_CID_Parent>
27312

> <DSSTox_Generic_SID>
47312

> <DSSTox_FileID>
885_TXCST2_v1a

> <STRUCTURE_Formula>
C12H9F6N3O

> <STRUCTURE_MolecularWeight>
325.2098

> <STRUCTURE_ChemicalType>
defined organic

> <STRUCTURE_TestedForm_DefinedOrganic>
parent

> <STRUCTURE_Shown>
tested chemical

> <TestSubstance_ChemicalName>
N2-[4-cyano-3-(trifluoromethyl)phenyl]-N2-(2,2,2-trifluoroethyl)glycinamide

> <TestSubstance_CASRN>
864283-48-7

> <TestSubstance_Description>
single chemical compound

> <STRUCTURE_ChemicalName_IUPAC>
N2-[4-cyano-3-(trifluoromethyl)phenyl]-N2-(2,2,2-trifluoroethyl)glycinamide

> <STRUCTURE_SMILES>
NC(CN(C1=CC(C(F)(F)F)=C(C#N)C=C1)CC(F)(F)F)=O

> <STRUCTURE_Parent_SMILES>
NC(CN(C1=CC(C(F)(F)F)=C(C#N)C=C1)CC(F)(F)F)=O

> <STRUCTURE_InChIS>
InChI=1S/C12H9F6N3O/c13-11(14,15)6-21(5-10(20)22)8-2-1-7(4-19)9(3-8)12(16,17)18/h1-3H,5-6H2,(H2,20,22)

> <STRUCTURE_InChIKey>
ZDYGKWOTFUOWOA-UHFFFAOYSA-N

> <Substance_modify_yyyymmdd>
20100529

> <Coord_Metals>
0

> <Index>
885

> <Canonical_Smiles>
NC(=O)CN(CC(F)(F)F)c1ccc(C#N)c(c1)C(F)(F)F

> <Molecular_Weight>
325.20977

> <Frequency>
1

$$$$

  SciTegic          2D

 55 56  0  0  0  0            999 V2000
    3.8912   -5.2578    0.0000 C   0  0
    3.8933   -3.7570    0.0000 C   0  0
    2.5951   -3.0039    0.0000 N   0  0
    1.2941   -3.7520    0.0000 C   0  0
    1.9967   -5.1321    0.0000 C   0  0
   -0.2526   -3.8279    0.0000 C   0  0
    2.5973   -1.5031    0.0000 C   0  0
    3.6375   -0.9049    0.0000 O   0  0
    1.2990   -0.7500    0.0000 C   0  0
    1.2990    0.7500    0.0000 C   0  0
    0.0000    1.5000    0.0000 C   0  0
    0.0000    3.0008    0.0000 C   0  0
   -1.2990    0.7500    0.0000 C   0  0
   -1.2990   -0.7500    0.0000 C   0  0
   -2.5972   -1.5031    0.0000 O   0  0
   -2.5951   -3.0039    0.0000 C   0  0
   -3.8933   -3.7570    0.0000 C   0  0
   -5.1943   -3.0089    0.0000 C   0  0
   -3.8912   -5.2578    0.0000 N   0  0
   -5.1894   -6.0109    0.0000 C   0  0
   -5.1894   -7.5110    0.0000 C   0  0
   -6.4884   -8.2610    0.0000 C   0  0
   -7.7875   -7.5110    0.0000 N   0  0
   -7.7875   -6.0110    0.0000 C   0  0
   -6.4885   -5.2610    0.0000 C   0  0
    0.0000   -1.5000    0.0000 C   0  0
    4.7562   -5.7596    0.0000 H   0  0
    3.0243   -5.7563    0.0000 H   0  0
    3.8893   -6.2578    0.0000 H   0  0
    4.7602   -3.2585    0.0000 H   0  0
    3.8952   -2.7570    0.0000 H   0  0
    0.4291   -3.2504    0.0000 H   0  0
    2.9967   -5.1342    0.0000 H   0  0
    1.4731   -5.9841    0.0000 H   0  0
    2.4838   -6.0054    0.0000 H   0  0
   -0.7513   -2.9612    0.0000 H   0  0
   -0.7319   -4.7056    0.0000 H   0  0
   -1.2525   -3.8391    0.0000 H   0  0
    2.1651    1.2500    0.0000 H   0  0
    0.8657    3.5014    0.0000 H   0  0
   -0.8662    3.5005    0.0000 H   0  0
   -0.0005    4.0008    0.0000 H   0  0
   -2.1651    1.2500    0.0000 H   0  0
   -1.7299   -2.5025    0.0000 H   0  0
   -1.7282   -3.5024    0.0000 H   0  0
   -3.0264   -4.2555    0.0000 H   0  0
   -6.0598   -3.5099    0.0000 H   0  0
   -5.1957   -2.0089    0.0000 H   0  0
   -6.0610   -2.5100    0.0000 H   0  0
   -3.0243   -5.7563    0.0000 H   0  0
   -4.3234   -8.0110    0.0000 H   0  0
   -6.4884   -9.2610    0.0000 H   0  0
   -8.6536   -5.5110    0.0000 H   0  0
   -6.4886   -4.2610    0.0000 H   0  0
    0.0000   -2.5000    0.0000 H   0  0
  1  2  1  0
  2  3  1  0
  3  4  1  0
  3  7  1  0
  4  5  1  0
  4  6  1  0
  7  8  2  0
  7  9  1  0
  9 10  1  0
  9 26  2  0
 10 11  2  0
 11 12  1  0
 11 13  1  0
 13 14  2  0
 14 15  1  0
 14 26  1  0
 15 16  1  0
 16 17  1  0
 17 18  1  0
 17 19  1  0
 19 20  1  0
 20 21  2  0
 20 25  1  0
 21 22  1  0
 22 23  2  0
 23 24  1  0
 24 25  2  0
  1 27  1  0
  1 28  1  0
  1 29  1  0
  2 30  1  0
  2 31  1  0
  4 32  1  0
  5 33  1  0
  5 34  1  0
  5 35  1  0
  6 36  1  0
  6 37  1  0
  6 38  1  0
 10 39  1  0
 12 40  1  0
 12 41  1  0
 12 42  1  0
 13 43  1  0
 16 44  1  0
 16 45  1  0
 17 46  1  0
 18 47  1  0
 18 48  1  0
 18 49  1  0
 19 50  1  0
 21 51  1  0
 22 52  1  0
 24 53  1  0
 25 54  1  0
 26 55  1  0
V    1 0
V    2 1
V    3 2
V    4 3
V    5 4
V    6 5
V    7 6
V    8 7
V    9 8
V   10 9
V   11 10
V   12 11
V   13 12
V   14 13
V   15 14
V   16 15
V   17 16
V   18 17
V   19 18
V   20 19
V   21 20
V   22 21
V   23 22
V   24 23
V   25 24
V   26 25
M  END
> <DSSTox_RID>
66260

> <DSSTox_CID>
27313

> <DSSTox_CID_Parent>
27314

> <DSSTox_Generic_SID>
47313

> <DSSTox_FileID>
886_TXCST2_v1a

> <STRUCTURE_Formula>
C28H37N3O5S

> <STRUCTURE_MolecularWeight>
527.6755

> <STRUCTURE_ChemicalType>
defined organic

> <STRUCTURE_TestedForm_DefinedOrganic>
complex toluenesulfonic acid

> <STRUCTURE_Shown>
tested chemical

> <TestSubstance_ChemicalName>
N-ethyl-3-methyl-N-(propan-2-yl)-5-{[(2S)-2-(pyridin-4-ylamino)propyl]oxy}benzamide 4-methylbenzenesulfonate

> <TestSubstance_CASRN>
263553-33-9

> <TestSubstance_Description>
single chemical compound

> <ChemicalNote>
stereochem

> <STRUCTURE_ChemicalName_IUPAC>
N-ethyl-3-methyl-N-(propan-2-yl)-5-{[(2S)-2-(pyridin-4-ylamino)propyl]oxy}benzamide 4-methylbenzenesulfonate

> <STRUCTURE_SMILES>
O=C(C1=CC(OC[C@@H](NC2=CC=NC=C2)C)=CC(C)=C1)N(C(C)C)CC.O=S(C3=CC=C(C)C=C3)(O)=O

> <STRUCTURE_Parent_SMILES>
O=C(C1=CC(OC[C@@H](NC2=CC=NC=C2)C)=CC(C)=C1)N(C(C)C)CC

> <STRUCTURE_InChIS>
InChI=1S/C21H29N3O2.C7H8O3S/c1-6-24(15(2)3)21(25)18-11-16(4)12-20(13-18)26-14-17(5)23-19-7-9-22-10-8-19;1-6-2-4-7(5-3-6)11(8,9)10/h7-13,15,17H,6,14H2,1-5H3,(H,22,23);2-5H,1H3,(H,8,9,10)/t17-;/m0./s1

> <STRUCTURE_InChIKey>
DGYJWEFQVJQFIA-LMOVPXPDSA-N

> <Substance_modify_yyyymmdd>
20100529

> <Coord_Metals>
0

> <Index>
886

> <Canonical_Smiles>
CCN(C(C)C)C(=O)c1cc(C)cc(OCC(C)Nc2ccncc2)c1

> <Molecular_Weight>
355.47386

> <Frequency>
1

$$$$

  SciTegic          2D

 79 83  0  0  0  0            999 V2000
   -5.1797   -3.0173    0.0000 C   0  0
   -5.1849   -1.5165    0.0000 C   0  0
   -3.8883   -0.7607    0.0000 C   0  0
   -3.8945    0.7393    0.0000 C   0  0
   -2.5985    1.4946    0.0000 C   0  0
   -2.6016    2.9955    0.0000 S   0  0
   -1.3039    3.7494    0.0000 C   0  0
   -1.3070    5.2502    0.0000 C   0  0
   -2.5223    6.1074    0.0000 S   0  0
   -2.0617    7.5350    0.0000 C   0  0
   -0.5617    7.5381    0.0000 N   0  0
   -0.0953    6.1124    0.0000 C   0  0
    1.3269    5.6415    0.0000 C   0  0
    1.6316    4.1719    0.0000 N   0  0
    0.5118    3.1738    0.0000 C   0  0
    0.8162    1.7050    0.0000 C   0  0
    2.2405    1.2343    0.0000 N   0  0
    3.3602    2.2324    0.0000 C   0  0
    3.0558    3.7011    0.0000 C   0  0
    2.5451   -0.2352    0.0000 C   0  0
    1.4269   -1.2351    0.0000 C   0  0
    1.7337   -2.7034    0.0000 C   0  0
    3.1587   -3.1719    0.0000 C   0  0
    3.4687   -4.6404    0.0000 O   0  0
    4.8951   -5.1071    0.0000 C   0  0
    4.2769   -2.1721    0.0000 C   0  0
    3.9701   -0.7038    0.0000 C   0  0
   -2.9464    8.7473    0.0000 C   0  0
   -4.4406    8.6994    0.0000 C   0  0
   -5.2311    9.9742    0.0000 C   0  0
   -4.5224   11.2962    0.0000 C   0  0
   -3.0231   11.3433    0.0000 C   0  0
   -2.2326   10.0685    0.0000 C   0  0
   -5.3133   12.5717    0.0000 C   0  0
   -6.5127   12.5347    0.0000 F   0  0
   -4.7459   13.6291    0.0000 F   0  0
   -5.9452   13.5918    0.0000 F   0  0
   -1.2964    0.7500    0.0000 C   0  0
   -1.2902   -0.7500    0.0000 C   0  0
   -2.5862   -1.5053    0.0000 C   0  0
   -2.5769   -3.0061    0.0000 O   0  0
   -1.2730   -3.7493    0.0000 C   0  0
   -1.2637   -5.2501    0.0000 C   0  0
   -2.2994   -5.8562    0.0000 O   0  0
    0.0402   -5.9933    0.0000 O   0  0
   -6.0437   -3.5209    0.0000 H   0  0
   -4.3118   -3.5140    0.0000 H   0  0
   -5.1757   -4.0173    0.0000 H   0  0
   -6.0529   -1.0198    0.0000 H   0  0
   -5.1889   -0.5165    0.0000 H   0  0
   -4.7626    1.2357    0.0000 H   0  0
   -0.4367    3.2515    0.0000 H   0  0
   -1.3014    2.7494    0.0000 H   0  0
    2.0737    6.3066    0.0000 H   0  0
    1.1244    6.6207    0.0000 H   0  0
   -0.2188    2.4910    0.0000 H   0  0
    0.3319    4.1575    0.0000 H   0  0
    1.5783    2.3526    0.0000 H   0  0
    1.0422    0.7309    0.0000 H   0  0
    4.0908    2.9152    0.0000 H   0  0
    3.5402    1.2487    0.0000 H   0  0
    2.2938    3.0536    0.0000 H   0  0
    2.8299    4.6753    0.0000 H   0  0
    0.4769   -0.9229    0.0000 H   0  0
    0.9883   -3.3700    0.0000 H   0  0
    5.1016   -6.0855    0.0000 H   0  0
    5.6394   -4.4392    0.0000 H   0  0
    5.8457   -5.4176    0.0000 H   0  0
    5.2268   -2.4844    0.0000 H   0  0
    4.7156   -0.0372    0.0000 H   0  0
   -4.9129    7.8179    0.0000 H   0  0
   -6.2306    9.9427    0.0000 H   0  0
   -2.5506   12.2247    0.0000 H   0  0
   -1.2331   10.0984    0.0000 H   0  0
   -0.4325    1.2536    0.0000 H   0  0
   -0.4222   -1.2464    0.0000 H   0  0
   -1.2787   -2.7493    0.0000 H   0  0
   -0.4099   -3.2443    0.0000 H   0  0
    0.0464   -6.9933    0.0000 H   0  0
  1  2  1  0
  2  3  1  0
  3  4  1  0
  3 40  2  0
  4  5  2  0
  5  6  1  0
  5 38  1  0
  6  7  1  0
  7  8  1  0
  8  9  1  0
  8 12  2  0
  9 10  1  0
 10 11  2  0
 10 28  1  0
 11 12  1  0
 12 13  1  0
 13 14  1  0
 14 15  1  0
 14 19  1  0
 15 16  1  0
 16 17  1  0
 17 18  1  0
 17 20  1  0
 18 19  1  0
 20 21  1  0
 20 27  2  0
 21 22  2  0
 22 23  1  0
 23 24  1  0
 23 26  2  0
 24 25  1  0
 26 27  1  0
 28 29  1  0
 28 33  2  0
 29 30  2  0
 30 31  1  0
 31 32  2  0
 31 34  1  0
 32 33  1  0
 34 35  1  0
 34 36  1  0
 34 37  1  0
 38 39  2  0
 39 40  1  0
 40 41  1  0
 41 42  1  0
 42 43  1  0
 43 44  2  0
 43 45  1  0
  1 46  1  0
  1 47  1  0
  1 48  1  0
  2 49  1  0
  2 50  1  0
  4 51  1  0
  7 52  1  0
  7 53  1  0
 13 54  1  0
 13 55  1  0
 15 56  1  0
 15 57  1  0
 16 58  1  0
 16 59  1  0
 18 60  1  0
 18 61  1  0
 19 62  1  0
 19 63  1  0
 21 64  1  0
 22 65  1  0
 25 66  1  0
 25 67  1  0
 25 68  1  0
 26 69  1  0
 27 70  1  0
 29 71  1  0
 30 72  1  0
 32 73  1  0
 33 74  1  0
 38 75  1  0
 39 76  1  0
 42 77  1  0
 42 78  1  0
 45 79  1  0
V    1 0
V    2 1
V    3 2
V    4 3
V    5 4
V    6 5
V    7 6
V    8 7
V    9 8
V   10 9
V   11 10
V   12 11
V   13 12
V   14 13
V   15 14
V   16 15
V   17 16
V   18 17
V   19 18
V   20 19
V   21 20
V   22 21
V   23 22
V   24 23
V   25 24
V   26 25
V   27 26
V   28 27
V   29 28
V   30 29
V   31 30
V   32 31
V   33 32
V   34 33
V   35 34
V   36 35
V   37 36
V   38 37
V   39 38
V   40 39
V   41 40
V   42 41
V   43 42
V   44 43
V   45 44
M  END
> <DSSTox_RID>
66261

> <DSSTox_CID>
27315

> <DSSTox_CID_Parent>
27315

> <DSSTox_Generic_SID>
47315

> <DSSTox_FileID>
887_TXCST2_v1a

> <STRUCTURE_Formula>
C33H34F3N3O4S2

> <STRUCTURE_MolecularWeight>
657.766

> <STRUCTURE_ChemicalType>
defined organic

> <STRUCTURE_TestedForm_DefinedOrganic>
parent

> <STRUCTURE_Shown>
tested chemical

> <TestSubstance_ChemicalName>
(2-ethyl-4-{[(4-{[4-(4-methoxyphenyl)piperazin-1-yl]methyl}-2-[4-(trifluoromethyl)phenyl]-1,3-thiazol-5-yl)methyl]sulfanyl}phenoxy)acetic acid

> <TestSubstance_CASRN>
444610-91-7

> <TestSubstance_Description>
single chemical compound

> <STRUCTURE_ChemicalName_IUPAC>
(2-ethyl-4-{[(4-{[4-(4-methoxyphenyl)piperazin-1-yl]methyl}-2-[4-(trifluoromethyl)phenyl]-1,3-thiazol-5-yl)methyl]sulfanyl}phenoxy)acetic acid

> <STRUCTURE_SMILES>
FC(F)(F)C5=CC=C(C=C5)C2=NC(CN3CCN(C4=CC=C(OC)C=C4)CC3)=C(S2)CSC1=CC(CC)=C(OCC(O)=O)C=C1

> <STRUCTURE_Parent_SMILES>
FC(F)(F)C5=CC=C(C=C5)C2=NC(CN3CCN(C4=CC=C(OC)C=C4)CC3)=C(S2)CSC1=CC(CC)=C(OCC(O)=O)C=C1

> <STRUCTURE_InChIS>
InChI=1S/C33H34F3N3O4S2/c1-3-22-18-27(12-13-29(22)43-20-31(40)41)44-21-30-28(37-32(45-30)23-4-6-24(7-5-23)33(34,35)36)19-38-14-16-39(17-15-38)25-8-10-26(42-2)11-9-25/h4-13,18H,3,14-17,19-21H2,1-2H3,(H
,40,41)

> <STRUCTURE_InChIKey>
CESIUPFUCGHEPP-UHFFFAOYSA-N

> <Substance_modify_yyyymmdd>
20100530

> <Coord_Metals>
0

> <Index>
887

> <Canonical_Smiles>
CCc1cc(SCc2sc(nc2CN3CCN(CC3)c4ccc(OC)cc4)c5ccc(cc5)C(F)(F)F)ccc1OCC(=O)O

> <Molecular_Weight>
657.76596

> <Frequency>
1

$$$$

  SciTegic          2D

 85 89  0  0  0  0            999 V2000
    2.4057   -1.2935    0.0000 C   0  0
    0.9319   -1.0099    0.0000 C   0  0
    0.4397    0.4079    0.0000 C   0  0
   -1.0422    0.1703    0.0000 C   0  0
   -1.9899    1.3339    0.0000 N   0  0
   -0.9985    2.5154    0.0000 C   0  0
    0.1837    2.3097    0.0000 O   0  0
   -1.5083    3.8969    0.0000 C   0  0
   -2.9728    4.1721    0.0000 N   0  0
   -3.9642    2.9906    0.0000 C   0  0
   -5.1471    3.1923    0.0000 O   0  0
   -3.4389    1.5961    0.0000 C   0  0
   -4.9165    1.8557    0.0000 C   0  0
   -5.8818    0.7053    0.0000 C   0  0
   -5.3825   -0.7203    0.0000 N   0  0
   -6.3395   -1.8759    0.0000 C   0  0
   -7.8194   -1.6259    0.0000 C   0  0
   -8.7753   -2.7819    0.0000 C   0  0
  -10.2543   -2.5320    0.0000 C   0  0
  -10.7774   -1.1262    0.0000 C   0  0
  -12.2568   -0.8731    0.0000 O   0  0
  -12.7782    0.5342    0.0000 C   0  0
  -14.2564    0.7893    0.0000 C   0  0
  -14.7747    2.1969    0.0000 C   0  0
  -13.8148    3.3495    0.0000 C   0  0
  -12.3366    3.0946    0.0000 C   0  0
  -11.8183    1.6869    0.0000 C   0  0
  -14.3305    4.7590    0.0000 C   0  0
  -15.5126    4.9650    0.0000 O   0  0
  -13.3684    5.9109    0.0000 O   0  0
   -9.8215    0.0298    0.0000 C   0  0
   -8.3425   -0.2201    0.0000 C   0  0
   -3.9074   -0.9513    0.0000 C   0  0
   -2.9421    0.1991    0.0000 C   0  0
   -0.0445    4.1134    0.0000 C   0  0
    0.9170    2.9611    0.0000 O   0  0
    0.4732    5.5222    0.0000 C   0  0
    1.9231    5.2269    0.0000 C   0  0
    2.8896    6.3739    0.0000 C   0  0
    2.3795    7.7845    0.0000 C   0  0
    0.9029    8.0481    0.0000 C   0  0
   -0.0637    6.9010    0.0000 C   0  0
    2.7336   -2.2382    0.0000 H   0  0
    3.0601   -0.5374    0.0000 H   0  0
    3.3877   -1.4820    0.0000 H   0  0
    0.2775   -1.7661    0.0000 H   0  0
   -0.0502   -0.8215    0.0000 H   0  0
    0.7960    1.3422    0.0000 H   0  0
   -0.1912    1.1837    0.0000 H   0  0
   -1.3985   -0.7641    0.0000 H   0  0
   -2.0295    0.0115    0.0000 H   0  0
   -1.8698    4.8293    0.0000 H   0  0
   -3.3096    5.1137    0.0000 H   0  0
   -4.5965    0.9083    0.0000 H   0  0
   -5.9051    2.0059    0.0000 H   0  0
   -6.1952    1.6549    0.0000 H   0  0
   -6.5107   -0.0721    0.0000 H   0  0
   -5.9910   -2.8132    0.0000 H   0  0
   -5.3535   -2.0429    0.0000 H   0  0
   -8.4265   -3.7191    0.0000 H   0  0
  -10.8916   -3.3026    0.0000 H   0  0
  -14.8964    0.0208    0.0000 H   0  0
  -15.7601    2.3669    0.0000 H   0  0
  -11.6967    3.8630    0.0000 H   0  0
  -10.8329    1.5170    0.0000 H   0  0
  -13.7120    6.8500    0.0000 H   0  0
  -10.1703    0.9670    0.0000 H   0  0
   -7.7052    0.5506    0.0000 H   0  0
   -2.9173   -1.0914    0.0000 H   0  0
   -4.5614   -1.7078    0.0000 H   0  0
   -2.3150    0.9780    0.0000 H   0  0
   -2.6261   -0.7497    0.0000 H   0  0
   -0.3889    3.1746    0.0000 H   0  0
    1.9024    3.1315    0.0000 H   0  0
   -0.5115    5.6969    0.0000 H   0  0
    1.2525    4.4850    0.0000 H   0  0
    2.9093    5.0613    0.0000 H   0  0
    1.9096    6.5728    0.0000 H   0  0
    3.5159    7.1536    0.0000 H   0  0
    3.3596    7.5857    0.0000 H   0  0
    2.0175    8.7167    0.0000 H   0  0
    1.2206    7.0999    0.0000 H   0  0
   -0.0854    8.2006    0.0000 H   0  0
   -0.6811    6.1144    0.0000 H   0  0
   -0.3941    7.8449    0.0000 H   0  0
  1  2  1  0
  2  3  1  0
  3  4  1  0
  4  5  1  0
  5  6  1  0
  5 12  1  0
  6  7  2  0
  6  8  1  0
  8  9  1  0
  8 35  1  0
  9 10  1  0
 10 11  2  0
 10 12  1  0
 12 13  1  0
 12 34  1  0
 13 14  1  0
 14 15  1  0
 15 16  1  0
 15 33  1  0
 16 17  1  0
 17 18  1  0
 17 32  2  0
 18 19  2  0
 19 20  1  0
 20 21  1  0
 20 31  2  0
 21 22  1  0
 22 23  1  0
 22 27  2  0
 23 24  2  0
 24 25  1  0
 25 26  2  0
 25 28  1  0
 26 27  1  0
 28 29  2  0
 28 30  1  0
 31 32  1  0
 33 34  1  0
 35 36  1  0
 35 37  1  0
 37 38  1  0
 37 42  1  0
 38 39  1  0
 39 40  1  0
 40 41  1  0
 41 42  1  0
  1 43  1  0
  1 44  1  0
  1 45  1  0
  2 46  1  0
  2 47  1  0
  3 48  1  0
  3 49  1  0
  4 50  1  0
  4 51  1  0
  8 52  1  0
  9 53  1  0
 13 54  1  0
 13 55  1  0
 14 56  1  0
 14 57  1  0
 16 58  1  0
 16 59  1  0
 18 60  1  0
 19 61  1  0
 23 62  1  0
 24 63  1  0
 26 64  1  0
 27 65  1  0
 30 66  1  0
 31 67  1  0
 32 68  1  0
 33 69  1  0
 33 70  1  0
 34 71  1  0
 34 72  1  0
 35 73  1  0
 36 74  1  0
 37 75  1  0
 38 76  1  0
 38 77  1  0
 39 78  1  0
 39 79  1  0
 40 80  1  0
 40 81  1  0
 41 82  1  0
 41 83  1  0
 42 84  1  0
 42 85  1  0
V    1 0
V    2 1
V    3 2
V    4 3
V    5 4
V    6 5
V    7 6
V    8 7
V    9 9
V   10 10
V   11 11
V   12 12
V   13 13
V   14 14
V   15 15
V   16 16
V   17 17
V   18 18
V   19 19
V   20 20
V   21 21
V   22 22
V   23 23
V   24 24
V   25 25
V   26 26
V   27 27
V   28 28
V   29 29
V   30 30
V   31 31
V   32 32
V   33 33
V   34 34
V   35 35
V   36 36
V   37 37
V   38 38
V   39 39
V   40 40
V   41 41
V   42 42
M  END
> <DSSTox_RID>
66263

> <DSSTox_CID>
27316

> <DSSTox_CID_Parent>
27317

> <DSSTox_Generic_SID>
47316

> <DSSTox_FileID>
888_TXCST2_v1a

> <STRUCTURE_Formula>
C33H44ClN3O6

> <STRUCTURE_MolecularWeight>
614.172

> <STRUCTURE_ChemicalType>
defined organic

> <STRUCTURE_TestedForm_DefinedOrganic>
complex HCl

> <STRUCTURE_Shown>
tested chemical

> <TestSubstance_ChemicalName>
Aplaviroc hydrochloride

> <TestSubstance_CASRN>
461023-63-2

> <TestSubstance_Description>
single chemical compound

> <ChemicalNote>
stereochem

> <STRUCTURE_ChemicalName_IUPAC>
4-[4-({(3R)-1-butyl-3-[(R)-cyclohexyl(hydroxy)methyl]-2,5-dioxo-1,4,9-triazaspiro[5.5]undec-9-yl}methyl)phenoxy]benzoic acid hydrochloride

> <STRUCTURE_SMILES>
O=C([C@](NC1=O)([C@@H](C5CCCCC5)O)[H])N(C41CCN(CC4)CC2=CC=C(OC3=CC=C(C(O)=O)C=C3)C=C2)CCCC.Cl

> <STRUCTURE_Parent_SMILES>
O=C([C@](NC1=O)([C@@H](C5CCCCC5)O)[H])N(C41CCN(CC4)CC2=CC=C(OC3=CC=C(C(O)=O)C=C3)C=C2)CCCC

> <STRUCTURE_InChIS>
InChI=1S/C33H43N3O6.ClH/c1-2-3-19-36-30(38)28(29(37)24-7-5-4-6-8-24)34-32(41)33(36)17-20-35(21-18-33)22-23-9-13-26(14-10-23)42-27-15-11-25(12-16-27)31(39)40;/h9-16,24,28-29,37H,2-8,17-22H2,1H3,(H,34,4
1)(H,39,40);1H/t28-,29-;/m1./s1

> <STRUCTURE_InChIKey>
QNNBMSGFNQRUEH-PQQSRXGVSA-N

> <Substance_modify_yyyymmdd>
20100530

> <Coord_Metals>
0

> <Index>
888

> <Canonical_Smiles>
CCCCN1C(=O)C(NC(=O)C12CCN(Cc3ccc(Oc4ccc(cc4)C(=O)O)cc3)CC2)C(O)C5CCCCC5

> <Molecular_Weight>
577.71101

> <Frequency>
1

$$$$

  SciTegic          2D

 38 40  0  0  0  0            999 V2000
    1.4353   -5.1600    0.0000 N   0  0
    2.0339   -3.7837    0.0000 C   0  0
    3.2262   -3.6483    0.0000 O   0  0
    1.1420   -2.5766    0.0000 N   0  0
    0.1107   -3.6670    0.0000 O   0  0
    1.7138   -1.2033    0.0000 C   0  0
    2.5889    0.0182    0.0000 C   0  0
    1.7138    1.2033    0.0000 O   0  0
    0.2917    0.7475    0.0000 C   0  0
   -1.0028    1.5132    0.0000 C   0  0
   -2.3155    0.7475    0.0000 C   0  0
   -3.2902    1.8887    0.0000 O   0  0
   -4.7660    1.6160    0.0000 C   0  0
   -5.7409    2.7571    0.0000 C   0  0
   -7.2157    2.4836    0.0000 C   0  0
   -8.1900    3.6241    0.0000 C   0  0
   -7.6895    5.0381    0.0000 C   0  0
   -6.2146    5.3116    0.0000 C   0  0
   -5.2403    4.1711    0.0000 C   0  0
   -2.3155   -0.7475    0.0000 C   0  0
   -1.0028   -1.5132    0.0000 C   0  0
    0.2917   -0.7475    0.0000 C   0  0
    2.0296   -5.9642    0.0000 H   0  0
    0.4417   -5.2728    0.0000 H   0  0
   -0.8622   -3.4358    0.0000 H   0  0
    2.6961   -1.3906    0.0000 H   0  0
    3.0822   -0.8516    0.0000 H   0  0
    3.0698    0.8950    0.0000 H   0  0
   -0.9997    2.5132    0.0000 H   0  0
   -5.1000    0.6734    0.0000 H   0  0
   -4.1168    0.8553    0.0000 H   0  0
   -7.5494    1.5409    0.0000 H   0  0
   -9.1732    3.4417    0.0000 H   0  0
   -8.3390    5.7984    0.0000 H   0  0
   -5.8809    6.2543    0.0000 H   0  0
   -4.2571    4.3535    0.0000 H   0  0
   -3.1826   -1.2456    0.0000 H   0  0
   -0.9997   -2.5132    0.0000 H   0  0
  1  2  1  0
  2  3  2  0
  2  4  1  0
  4  5  1  0
  6  4  1  0
  6  7  1  0
  6 22  1  0
  7  8  1  0
  8  9  1  0
  9 10  1  0
  9 22  2  0
 10 11  2  0
 11 12  1  0
 11 20  1  0
 12 13  1  0
 13 14  1  0
 14 15  1  0
 14 19  2  0
 15 16  2  0
 16 17  1  0
 17 18  2  0
 18 19  1  0
 20 21  2  0
 21 22  1  0
  1 23  1  0
  1 24  1  0
  5 25  1  0
  6 26  1  0
  7 27  1  0
  7 28  1  0
 10 29  1  0
 13 30  1  0
 13 31  1  0
 15 32  1  0
 16 33  1  0
 17 34  1  0
 18 35  1  0
 19 36  1  0
 20 37  1  0
 21 38  1  0
V    1 0
V    2 1
V    3 2
V    4 3
V    5 4
V    6 5
V    7 6
V    8 7
V    9 8
V   10 9
V   11 10
V   12 11
V   13 12
V   14 13
V   15 14
V   16 15
V   17 16
V   18 17
V   19 18
V   20 19
V   21 20
V   22 21
M  END
> <DSSTox_RID>
66264

> <DSSTox_CID>
27318

> <DSSTox_CID_Parent>
27318

> <DSSTox_Generic_SID>
47318

> <DSSTox_FileID>
889_TXCST2_v1a

> <STRUCTURE_Formula>
C16H16N2O4

> <STRUCTURE_MolecularWeight>
300.3092

> <STRUCTURE_ChemicalType>
defined organic

> <STRUCTURE_TestedForm_DefinedOrganic>
parent

> <STRUCTURE_Shown>
tested chemical

> <TestSubstance_ChemicalName>
1-[(3S)-6-(benzyloxy)-2,3-dihydro-1-benzofuran-3-yl]-1-hydroxyurea

> <TestSubstance_CASRN>
139149-55-6

> <TestSubstance_Description>
single chemical compound

> <ChemicalNote>
stereochem

> <STRUCTURE_ChemicalName_IUPAC>
1-[(3S)-6-(benzyloxy)-2,3-dihydro-1-benzofuran-3-yl]-1-hydroxyurea

> <STRUCTURE_SMILES>
NC(N([C@@H]1COC2=C1C=CC(OCC3=CC=CC=C3)=C2)O)=O

> <STRUCTURE_Parent_SMILES>
NC(N([C@@H]1COC2=C1C=CC(OCC3=CC=CC=C3)=C2)O)=O

> <STRUCTURE_InChIS>
InChI=1S/C16H16N2O4/c17-16(19)18(20)14-10-22-15-8-12(6-7-13(14)15)21-9-11-4-2-1-3-5-11/h1-8,14,20H,9-10H2,(H2,17,19)/t14-/m1/s1

> <STRUCTURE_InChIKey>
FYAQEFBDKOWIIL-CQSZACIVSA-N

> <Substance_modify_yyyymmdd>
20100530

> <Coord_Metals>
0

> <Index>
889

> <Canonical_Smiles>
NC(=O)N(O)C1COc2cc(OCc3ccccc3)ccc12

> <Molecular_Weight>
300.30924

> <Frequency>
1

$$$$

  SciTegic          2D

 46 48  0  0  0  0            999 V2000
   -5.2110    0.7553    0.0000 C   0  0
   -3.9091    1.5019    0.0000 C   0  0
   -3.9059    2.7019    0.0000 O   0  0
   -2.6111    0.7486    0.0000 C   0  0
   -2.6111   -0.7486    0.0000 C   0  0
   -1.2964   -1.4973    0.0000 C   0  0
    0.0000   -0.7486    0.0000 C   0  0
    1.2964   -1.4973    0.0000 O   0  0
    2.5929   -0.7486    0.0000 C   0  0
    3.8563    0.0230    0.0000 C   0  0
    2.5566   -2.2290    0.0000 C   0  0
    2.5929    0.7486    0.0000 C   0  0
    3.8563   -0.0230    0.0000 O   0  0
    1.2964    1.4973    0.0000 C   0  0
    0.3172    2.6076    0.0000 N   0  0
    0.7599    4.0417    0.0000 C   0  0
    1.9299    4.3081    0.0000 O   0  0
   -0.2600    5.1427    0.0000 C   0  0
    0.1803    6.5766    0.0000 C   0  0
   -0.8413    7.6750    0.0000 C   0  0
   -2.3033    7.3395    0.0000 C   0  0
   -3.1205    8.2181    0.0000 F   0  0
   -2.7437    5.9056    0.0000 C   0  0
   -1.7221    4.8072    0.0000 C   0  0
    0.0000    0.7486    0.0000 C   0  0
   -1.2964    1.4973    0.0000 C   0  0
   -6.0759    1.2573    0.0000 H   0  0
   -6.0783    0.2575    0.0000 H   0  0
   -5.2137   -0.2447    0.0000 H   0  0
   -3.4756   -1.2512    0.0000 H   0  0
   -1.2934   -2.4973    0.0000 H   0  0
    3.8567    1.0230    0.0000 H   0  0
    4.7224    0.5228    0.0000 H   0  0
    4.7223   -0.4771    0.0000 H   0  0
    3.4223   -2.7296    0.0000 H   0  0
    2.5561   -3.2290    0.0000 H   0  0
    1.6904   -2.7287    0.0000 H   0  0
    2.5684    1.7483    0.0000 H   0  0
    3.8567   -1.0230    0.0000 H   0  0
    2.1744    1.9759    0.0000 H   0  0
   -0.6579    2.3856    0.0000 H   0  0
    1.1550    6.8004    0.0000 H   0  0
   -0.5477    8.6309    0.0000 H   0  0
   -3.7183    5.6819    0.0000 H   0  0
   -2.0157    3.8513    0.0000 H   0  0
   -1.2934    2.4973    0.0000 H   0  0
  1  2  1  0
  2  3  2  0
  2  4  1  0
  4  5  1  0
  4 26  2  0
  5  6  2  0
  6  7  1  0
  7  8  1  0
  7 25  2  0
  8  9  1  0
  9 10  1  0
  9 11  1  0
  9 12  1  0
 12 13  1  0
 12 14  1  0
 14 15  1  0
 14 25  1  0
 15 16  1  0
 16 17  2  0
 16 18  1  0
 18 19  1  0
 18 24  2  0
 19 20  2  0
 20 21  1  0
 21 22  1  0
 21 23  2  0
 23 24  1  0
 25 26  1  0
  1 27  1  0
  1 28  1  0
  1 29  1  0
  5 30  1  0
  6 31  1  0
 10 32  1  0
 10 33  1  0
 10 34  1  0
 11 35  1  0
 11 36  1  0
 11 37  1  0
 12 38  1  0
 13 39  1  0
 14 40  1  0
 15 41  1  0
 19 42  1  0
 20 43  1  0
 23 44  1  0
 24 45  1  0
 26 46  1  0
V    1 0
V    2 1
V    3 2
V    4 3
V    5 4
V    6 5
V    7 6
V    8 7
V    9 8
V   10 9
V   11 10
V   12 11
V   13 12
V   14 13
V   15 14
V   16 15
V   17 16
V   18 17
V   19 18
V   20 19
V   21 20
V   22 21
V   23 22
V   24 23
V   25 24
V   26 25
M  END
> <DSSTox_RID>
66265

> <DSSTox_CID>
27319

> <DSSTox_CID_Parent>
27319

> <DSSTox_Generic_SID>
47319

> <DSSTox_FileID>
890_TXCST2_v1a

> <STRUCTURE_Formula>
C20H20FNO4

> <STRUCTURE_MolecularWeight>
357.3755

> <STRUCTURE_ChemicalType>
defined organic

> <STRUCTURE_TestedForm_DefinedOrganic>
parent

> <STRUCTURE_Shown>
tested chemical

> <TestSubstance_ChemicalName>
Carabersat

> <TestSubstance_CASRN>
184653-84-7

> <TestSubstance_Description>
single chemical compound

> <ChemicalNote>
stereochem

> <Source_ChemicalNote>
tested chemical contained 2.455% water

> <STRUCTURE_ChemicalName_IUPAC>
N-[(3R,4S)-6-acetyl-3-hydroxy-2,2-dimethyl-3,4-dihydro-2H-chromen-4-yl]-4-fluorobenzamide

> <STRUCTURE_SMILES>
O=C(C1=CC2=C(OC([C@@H]([C@H]2NC(C3=CC=C(F)C=C3)=O)O)(C)C)C=C1)C

> <STRUCTURE_Parent_SMILES>
O=C(C1=CC2=C(OC([C@@H]([C@H]2NC(C3=CC=C(F)C=C3)=O)O)(C)C)C=C1)C

> <STRUCTURE_InChIS>
InChI=1S/C20H20FNO4/c1-11(23)13-6-9-16-15(10-13)17(18(24)20(2,3)26-16)22-19(25)12-4-7-14(21)8-5-12/h4-10,17-18,24H,1-3H3,(H,22,25)/t17-,18+/m0/s1

> <STRUCTURE_InChIKey>
RCLXAPJEFHPYEG-ZWKOTPCHSA-N

> <Substance_modify_yyyymmdd>
20100530

> <Coord_Metals>
0

> <Index>
890

> <Canonical_Smiles>
CC(=O)c1ccc2OC(C)(C)C(O)C(NC(=O)c3ccc(F)cc3)c2c1

> <Molecular_Weight>
357.3755

> <Frequency>
1

$$$$

  SciTegic          2D

 74 80  0  0  0  0            999 V2000
    3.8990   -0.7508    0.0000 C   0  0
    2.5988   -1.5004    0.0000 C   0  0
    1.2990   -0.7500    0.0000 N   0  0
    1.2990    0.7500    0.0000 C   0  0
    0.0000    1.5000    0.0000 C   0  0
   -1.2990    0.7500    0.0000 C   0  0
   -2.2503   -0.4635    0.0000 C   0  0
   -3.6769    0.0000    0.0000 O   0  0
   -3.6769    1.5000    0.0000 C   0  0
   -4.7909    2.5025    0.0000 C   0  0
   -4.4790    3.9697    0.0000 C   0  0
   -5.3604    5.1824    0.0000 C   0  0
   -4.4788    6.3959    0.0000 C   0  0
   -3.0522    5.9324    0.0000 N   0  0
   -1.8381    6.8103    0.0000 C   0  0
   -0.7431    6.3194    0.0000 O   0  0
   -1.9906    8.3034    0.0000 C   0  0
   -0.7764    9.1841    0.0000 C   0  0
   -0.9319   10.6760    0.0000 C   0  0
   -2.3017   11.2873    0.0000 C   0  0
   -3.5160   10.4067    0.0000 C   0  0
   -3.3605    8.9148    0.0000 C   0  0
   -2.4572   12.7800    0.0000 C   0  0
   -1.2444   13.6626    0.0000 C   0  0
   -1.4022   15.1543    0.0000 C   0  0
   -2.7730   15.7634    0.0000 C   0  0
   -3.9859   14.8809    0.0000 C   0  0
   -3.8280   13.3892    0.0000 C   0  0
   -5.0416   12.5062    0.0000 C   0  0
   -2.9309   17.2558    0.0000 C   0  0
   -1.8162   18.2404    0.0000 N   0  0
   -2.4295   19.6093    0.0000 N   0  0
   -3.9209   19.4491    0.0000 C   0  0
   -4.9260   20.5602    0.0000 C   0  0
   -4.2294   17.9811    0.0000 O   0  0
   -3.0524    4.4332    0.0000 C   0  0
   -1.9377    3.4296    0.0000 C   0  0
   -2.2503    1.9635    0.0000 C   0  0
   -1.2990   -0.7500    0.0000 C   0  0
    0.0000   -1.5000    0.0000 C   0  0
    4.7650   -1.2508    0.0000 H   0  0
    3.8993    0.2492    0.0000 H   0  0
    4.7651   -0.2510    0.0000 H   0  0
    2.5985   -2.5004    0.0000 H   0  0
    1.7327   -2.0003    0.0000 H   0  0
    1.2754    1.7497    0.0000 H   0  0
    2.1531    0.2298    0.0000 H   0  0
   -0.8776    1.9794    0.0000 H   0  0
   -0.0235    0.5003    0.0000 H   0  0
   -2.5576    0.4881    0.0000 H   0  0
   -2.9447   -1.1831    0.0000 H   0  0
   -5.7419    2.1933    0.0000 H   0  0
   -5.8475    6.0558    0.0000 H   0  0
   -5.8475    4.3090    0.0000 H   0  0
   -5.4599    6.5892    0.0000 H   0  0
   -3.7987    7.1291    0.0000 H   0  0
    0.1368    8.7766    0.0000 H   0  0
   -0.1224   11.2631    0.0000 H   0  0
   -4.4291   10.8142    0.0000 H   0  0
   -4.1700    8.3277    0.0000 H   0  0
   -0.3305   13.2566    0.0000 H   0  0
   -0.5936   15.7427    0.0000 H   0  0
   -4.8997   15.2870    0.0000 H   0  0
   -4.9370   11.5117    0.0000 H   0  0
   -5.9553   12.9126    0.0000 H   0  0
   -5.8505   11.9183    0.0000 H   0  0
   -4.6198   21.5121    0.0000 H   0  0
   -5.9036   20.3497    0.0000 H   0  0
   -5.5972   21.3014    0.0000 H   0  0
   -0.9866    3.7383    0.0000 H   0  0
   -0.4215   -0.2706    0.0000 H   0  0
   -1.2755   -1.7497    0.0000 H   0  0
   -0.8776   -1.9794    0.0000 H   0  0
    0.8775   -1.9795    0.0000 H   0  0
  1  2  1  0
  2  3  1  0
  3  4  1  0
  3 40  1  0
  4  5  1  0
  5  6  1  0
  6  7  1  0
  6 38  1  0
  6 39  1  0
  7  8  1  0
  8  9  1  0
  9 10  1  0
  9 38  2  0
 10 11  2  0
 11 12  1  0
 11 36  1  0
 12 13  1  0
 13 14  1  0
 14 15  1  0
 14 36  1  0
 15 16  2  0
 15 17  1  0
 17 18  2  0
 17 22  1  0
 18 19  1  0
 19 20  2  0
 20 21  1  0
 20 23  1  0
 21 22  2  0
 23 24  2  0
 23 28  1  0
 24 25  1  0
 25 26  2  0
 26 27  1  0
 26 30  1  0
 27 28  2  0
 28 29  1  0
 30 31  2  0
 30 35  1  0
 31 32  1  0
 32 33  2  0
 33 34  1  0
 33 35  1  0
 36 37  2  0
 37 38  1  0
 39 40  1  0
  1 41  1  0
  1 42  1  0
  1 43  1  0
  2 44  1  0
  2 45  1  0
  4 46  1  0
  4 47  1  0
  5 48  1  0
  5 49  1  0
  7 50  1  0
  7 51  1  0
 10 52  1  0
 12 53  1  0
 12 54  1  0
 13 55  1  0
 13 56  1  0
 18 57  1  0
 19 58  1  0
 21 59  1  0
 22 60  1  0
 24 61  1  0
 25 62  1  0
 27 63  1  0
 29 64  1  0
 29 65  1  0
 29 66  1  0
 34 67  1  0
 34 68  1  0
 34 69  1  0
 37 70  1  0
 39 71  1  0
 39 72  1  0
 40 73  1  0
 40 74  1  0
V    1 0
V    2 1
V    3 2
V    4 3
V    5 4
V    6 5
V    7 6
V    8 7
V    9 8
V   10 9
V   11 10
V   12 11
V   13 12
V   14 13
V   15 14
V   16 15
V   17 16
V   18 17
V   19 18
V   20 19
V   21 20
V   22 21
V   23 22
V   24 23
V   25 24
V   26 25
V   27 26
V   28 27
V   29 28
V   30 29
V   31 30
V   32 31
V   33 32
V   34 33
V   35 34
V   36 35
V   37 36
V   38 37
V   39 38
V   40 39
M  END
> <DSSTox_RID>
66267

> <DSSTox_CID>
27320

> <DSSTox_CID_Parent>
27321

> <DSSTox_Generic_SID>
47320

> <DSSTox_FileID>
891_TXCST2_v1a

> <STRUCTURE_Formula>
C33H35ClN4O3

> <STRUCTURE_MolecularWeight>
571.109

> <STRUCTURE_ChemicalType>
defined organic

> <STRUCTURE_TestedForm_DefinedOrganic>
complex HCl

> <STRUCTURE_Shown>
tested chemical

> <TestSubstance_ChemicalName>
(1'-ethyl-6,7-dihydro-5H-spiro[furo[2,3-f]indole-3,4'-piperidin]-5-yl)[2'-methyl-4'-(5-methyl-1,3,4-oxadiazol-2-yl)biphenyl-4-yl]methanone hydrochloride

> <TestSubstance_CASRN>
180084-01-9

> <TestSubstance_Description>
single chemical compound

> <STRUCTURE_ChemicalName_IUPAC>
(1'-ethyl-6,7-dihydro-5H-spiro[furo[2,3-f]indole-3,4'-piperidin]-5-yl)[2'-methyl-4'-(5-methyl-1,3,4-oxadiazol-2-yl)biphenyl-4-yl]methanone hydrochloride

> <STRUCTURE_SMILES>
O=C(C2=CC=C(C3=CC=C(C(O4)=NN=C4C)C=C3C)C=C2)N5CCC(C5=C6)=CC1=C6C(CO1)(CC7)CCN7CC.Cl

> <STRUCTURE_Parent_SMILES>
O=C(C2=CC=C(C3=CC=C(C(O4)=NN=C4C)C=C3C)C=C2)N5CCC(C5=C6)=CC1=C6C(CO1)(CC7)CCN7CC

> <STRUCTURE_InChIS>
InChI=1S/C33H34N4O3.ClH/c1-4-36-15-12-33(13-16-36)20-39-30-18-25-11-14-37(29(25)19-28(30)33)32(38)24-7-5-23(6-8-24)27-10-9-26(17-21(27)2)31-35-34-22(3)40-31;/h5-10,17-19H,4,11-16,20H2,1-3H3;1H

> <STRUCTURE_InChIKey>
LVCMHQCPNBYOGQ-UHFFFAOYSA-N

> <Substance_modify_yyyymmdd>
20100530

> <Coord_Metals>
0

> <Index>
891

> <Canonical_Smiles>
CCN1CCC2(CC1)COc3cc4CCN(C(=O)c5ccc(cc5)c6ccc(cc6C)c7oc(C)nn7)c4cc23

> <Molecular_Weight>
534.64805

> <Frequency>
1

$$$$

  SciTegic          2D

 50 53  0  0  0  0            999 V2000
    1.6329    5.1718    0.0000 C   0  0
    0.6304    6.2876    0.0000 C   0  0
    3.1005    5.4823    0.0000 C   0  0
    1.0953    7.7138    0.0000 N   0  0
    3.5654    6.9084    0.0000 C   0  0
    2.5628    8.0242    0.0000 C   0  0
    2.4803   11.9947    0.0000 C   0  0
    2.0204   10.5669    0.0000 C   0  0
    1.4739   13.1070    0.0000 N   0  0
    0.5539   10.2515    0.0000 C   0  0
    0.0074   12.7915    0.0000 C   0  0
   -0.4526   11.3638    0.0000 C   0  0
    3.0251    9.4520    0.0000 O   0  0
    1.1706    3.7440    0.0000 N   0  0
    2.1753    2.6291    0.0000 C   0  0
    3.3489    2.8794    0.0000 O   0  0
    1.7138    1.2033    0.0000 N   0  0
    0.2917    0.7475    0.0000 C   0  0
    2.5889    0.0182    0.0000 C   0  0
    0.2917   -0.7475    0.0000 C   0  0
    1.7138   -1.2033    0.0000 C   0  0
   -1.0028    1.5132    0.0000 C   0  0
   -2.3155    0.7475    0.0000 C   0  0
   -1.0028   -1.5132    0.0000 C   0  0
   -2.3155   -0.7475    0.0000 C   0  0
    3.9476   12.3104    0.0000 C   0  0
   -3.6202    1.4892    0.0000 C   0  0
   -3.6291    2.6892    0.0000 F   0  0
   -4.6551    0.8818    0.0000 F   0  0
   -4.6637    2.0816    0.0000 F   0  0
   -3.6202   -1.4892    0.0000 C   0  0
   -0.3480    6.0807    0.0000 H   0  0
    3.7689    4.7385    0.0000 H   0  0
    4.5438    7.1154    0.0000 H   0  0
    0.2472    9.2997    0.0000 H   0  0
   -0.6635   13.5330    0.0000 H   0  0
   -1.4302   11.1534    0.0000 H   0  0
    0.1926    3.5354    0.0000 H   0  0
    3.0822   -0.8516    0.0000 H   0  0
    3.0698    0.8950    0.0000 H   0  0
    2.6959   -1.3914    0.0000 H   0  0
    1.0377   -1.9401    0.0000 H   0  0
   -0.9997    2.5132    0.0000 H   0  0
   -0.9997   -2.5132    0.0000 H   0  0
    4.6190   11.5694    0.0000 H   0  0
    4.2539   13.2623    0.0000 H   0  0
    4.9251   12.5212    0.0000 H   0  0
   -4.4831   -0.9839    0.0000 H   0  0
   -3.6266   -2.4892    0.0000 H   0  0
   -4.4893   -1.9837    0.0000 H   0  0
  1  2  1  0
  1  3  2  0
  1 14  1  0
  2  4  2  0
  3  5  1  0
  4  6  1  0
  5  6  2  0
  6 13  1  0
  7  8  1  0
  7  9  2  0
  7 26  1  0
  8 10  2  0
  8 13  1  0
  9 11  1  0
 10 12  1  0
 11 12  2  0
 14 15  1  0
 15 16  2  0
 15 17  1  0
 17 18  1  0
 17 19  1  0
 18 22  1  0
 18 20  2  0
 19 21  1  0
 20 21  1  0
 20 24  1  0
 22 23  2  0
 23 25  1  0
 23 27  1  0
 24 25  2  0
 25 31  1  0
 27 28  1  0
 27 29  1  0
 27 30  1  0
  2 32  1  0
  3 33  1  0
  5 34  1  0
 10 35  1  0
 11 36  1  0
 12 37  1  0
 14 38  1  0
 19 39  1  0
 19 40  1  0
 21 41  1  0
 21 42  1  0
 22 43  1  0
 24 44  1  0
 26 45  1  0
 26 46  1  0
 26 47  1  0
 31 48  1  0
 31 49  1  0
 31 50  1  0
V    1 0
V    2 1
V    3 2
V    4 3
V    5 4
V    6 5
V    7 6
V    8 7
V    9 8
V   10 9
V   11 10
V   12 11
V   13 12
V   14 13
V   15 14
V   16 15
V   17 16
V   18 17
V   19 18
V   20 19
V   21 20
V   22 21
V   23 22
V   24 23
V   25 24
V   26 25
V   27 26
V   28 27
V   29 28
V   30 29
V   31 30
M  END
> <DSSTox_RID>
66269

> <DSSTox_CID>
27322

> <DSSTox_CID_Parent>
27323

> <DSSTox_Generic_SID>
47322

> <DSSTox_FileID>
892_TXCST2_v1a

> <STRUCTURE_Formula>
C22H20ClF3N4O2

> <STRUCTURE_MolecularWeight>
464.868

> <STRUCTURE_ChemicalType>
defined organic

> <STRUCTURE_TestedForm_DefinedOrganic>
complex HCl

> <STRUCTURE_Shown>
tested chemical

> <TestSubstance_ChemicalName>
5-methyl-N-{6-[(2-methylpyridin-3-yl)oxy]pyridin-3-yl}-6-(trifluoromethyl)-2,3-dihydro-1H-indole-1-carboxamide hydrochloride

> <TestSubstance_CASRN>
200940-23-4

> <TestSubstance_Description>
single chemical compound

> <STRUCTURE_ChemicalName_IUPAC>
5-methyl-N-{6-[(2-methylpyridin-3-yl)oxy]pyridin-3-yl}-6-(trifluoromethyl)-2,3-dihydro-1H-indole-1-carboxamide hydrochloride

> <STRUCTURE_SMILES>
O=C(N3C(C=C(C(F)(F)F)C(C)=C4)=C4CC3)NC1=CC=C(OC2=CC=CN=C2C)N=C1.Cl

> <STRUCTURE_Parent_SMILES>
O=C(N3C(C=C(C(F)(F)F)C(C)=C4)=C4CC3)NC1=CC=C(OC2=CC=CN=C2C)N=C1

> <STRUCTURE_InChIS>
InChI=1S/C22H19F3N4O2.ClH/c1-13-10-15-7-9-29(18(15)11-17(13)22(23,24)25)21(30)28-16-5-6-20(27-12-16)31-19-4-3-8-26-14(19)2;/h3-6,8,10-12H,7,9H2,1-2H3,(H,28,30);1H

> <STRUCTURE_InChIKey>
OOOGUILTDUSZPA-UHFFFAOYSA-N

> <Substance_modify_yyyymmdd>
20100530

> <Coord_Metals>
0

> <Index>
892

> <Canonical_Smiles>
Cc1cc2CCN(C(=O)Nc3ccc(Oc4cccnc4C)nc3)c2cc1C(F)(F)F

> <Molecular_Weight>
428.40706

> <Frequency>
1

$$$$

  SciTegic          2D

 49 52  0  0  0  0            999 V2000
    5.9809    2.5291    0.0000 O   0  0
    5.6779    1.0592    0.0000 C   0  0
    4.2537    0.5858    0.0000 C   0  0
    3.1320    1.5828    0.0000 C   0  0
    3.4336    3.0530    0.0000 O   0  0
    3.9511   -0.8815    0.0000 N   0  0
    4.9531   -1.9978    0.0000 C   0  0
    4.2010   -3.2956    0.0000 N   0  0
    2.7343   -2.9815    0.0000 C   0  0
    2.5987   -1.5004    0.0000 C   0  0
    1.2990   -0.7500    0.0000 C   0  0
    0.0000   -1.5000    0.0000 C   0  0
   -1.2990   -0.7500    0.0000 C   0  0
   -1.2990    0.7500    0.0000 N   0  0
    0.0000    1.5000    0.0000 C   0  0
    0.0031    3.0008    0.0000 O   0  0
   -1.2947    3.7547    0.0000 C   0  0
   -1.2938    5.2548    0.0000 C   0  0
   -2.5923    6.0056    0.0000 C   0  0
   -3.8918    5.2565    0.0000 C   0  0
   -3.8928    3.7565    0.0000 C   0  0
   -2.5943    3.0056    0.0000 C   0  0
    1.2990    0.7500    0.0000 N   0  0
    2.0198   -4.3012    0.0000 C   0  0
    0.5334   -4.4597    0.0000 C   0  0
   -0.0737   -5.8314    0.0000 C   0  0
    0.8106   -7.0430    0.0000 C   0  0
    0.3248   -8.1403    0.0000 F   0  0
    2.3020   -6.8830    0.0000 C   0  0
    2.9092   -5.5113    0.0000 C   0  0
    6.9299    2.8446    0.0000 H   0  0
    6.6270    1.3742    0.0000 H   0  0
    6.4253    0.3949    0.0000 H   0  0
    5.0011   -0.0785    0.0000 H   0  0
    2.1830    1.2674    0.0000 H   0  0
    2.3842    2.2468    0.0000 H   0  0
    2.6862    3.7173    0.0000 H   0  0
    5.9477   -1.8948    0.0000 H   0  0
    0.0000   -2.5000    0.0000 H   0  0
   -2.1651   -1.2500    0.0000 H   0  0
   -0.4274    5.7542    0.0000 H   0  0
   -2.5917    7.0056    0.0000 H   0  0
   -4.7575    5.7570    0.0000 H   0  0
   -4.7592    3.2570    0.0000 H   0  0
   -2.5950    2.0056    0.0000 H   0  0
   -0.0558   -3.6518    0.0000 H   0  0
   -1.0680   -5.9380    0.0000 H   0  0
    2.8915   -7.6907    0.0000 H   0  0
    3.9033   -5.4030    0.0000 H   0  0
  1  2  1  0
  2  3  1  0
  3  4  1  0
  3  6  1  0
  4  5  1  0
  6  7  1  0
  6 10  1  0
  7  8  2  0
  8  9  1  0
  9 10  2  0
  9 24  1  0
 10 11  1  0
 11 12  2  0
 11 23  1  0
 12 13  1  0
 13 14  2  0
 14 15  1  0
 15 16  1  0
 15 23  2  0
 16 17  1  0
 17 18  1  0
 17 22  2  0
 18 19  2  0
 19 20  1  0
 20 21  2  0
 21 22  1  0
 24 25  1  0
 24 30  2  0
 25 26  2  0
 26 27  1  0
 27 28  1  0
 27 29  2  0
 29 30  1  0
  1 31  1  0
  2 32  1  0
  2 33  1  0
  3 34  1  0
  4 35  1  0
  4 36  1  0
  5 37  1  0
  7 38  1  0
 12 39  1  0
 13 40  1  0
 18 41  1  0
 19 42  1  0
 20 43  1  0
 21 44  1  0
 22 45  1  0
 25 46  1  0
 26 47  1  0
 29 48  1  0
 30 49  1  0
V    1 0
V    2 1
V    3 2
V    4 3
V    5 4
V    6 5
V    7 6
V    8 7
V    9 8
V   10 9
V   11 10
V   12 11
V   13 12
V   14 13
V   15 14
V   16 15
V   17 16
V   18 17
V   19 18
V   20 19
V   21 20
V   22 21
V   23 22
V   24 23
V   25 24
V   26 25
V   27 26
V   28 27
V   29 28
V   30 29
M  END
> <DSSTox_RID>
66270

> <DSSTox_CID>
27324

> <DSSTox_CID_Parent>
27324

> <DSSTox_Generic_SID>
47324

> <DSSTox_FileID>
893_TXCST2_v1a

> <STRUCTURE_Formula>
C22H19FN4O3

> <STRUCTURE_MolecularWeight>
406.4097

> <STRUCTURE_ChemicalType>
defined organic

> <STRUCTURE_TestedForm_DefinedOrganic>
parent

> <STRUCTURE_Shown>
tested chemical

> <TestSubstance_ChemicalName>
2-[4-(4-fluorophenyl)-5-(2-phenoxypyrimidin-4-yl)-1H-imidazol-1-yl]propane-1,3-diol

> <TestSubstance_CASRN>
219790-72-4

> <TestSubstance_Description>
single chemical compound

> <STRUCTURE_ChemicalName_IUPAC>
2-[4-(4-fluorophenyl)-5-(2-phenoxypyrimidin-4-yl)-1H-imidazol-1-yl]propane-1,3-diol

> <STRUCTURE_SMILES>
OCC(N1C=NC(C4=CC=C(F)C=C4)=C1C2=CC=NC(OC3=CC=CC=C3)=N2)CO

> <STRUCTURE_Parent_SMILES>
OCC(N1C=NC(C4=CC=C(F)C=C4)=C1C2=CC=NC(OC3=CC=CC=C3)=N2)CO

> <STRUCTURE_InChIS>
InChI=1S/C22H19FN4O3/c23-16-8-6-15(7-9-16)20-21(27(14-25-20)17(12-28)13-29)19-10-11-24-22(26-19)30-18-4-2-1-3-5-18/h1-11,14,17,28-29H,12-13H2

> <STRUCTURE_InChIKey>
ZDKIAVFEUPUCMR-UHFFFAOYSA-N

> <Substance_modify_yyyymmdd>
20100530

> <Coord_Metals>
0

> <Index>
893

> <Canonical_Smiles>
OCC(CO)n1cnc(c2ccc(F)cc2)c1c3ccnc(Oc4ccccc4)n3

> <Molecular_Weight>
406.40966

> <Frequency>
1

$$$$

  SciTegic          2D

 72 76  0  0  0  0            999 V2000
   -0.1523    8.3008    0.0000 C   0  0
    0.7039    7.0713    0.0000 C   0  0
    0.2119    5.6543    0.0000 N   0  0
    1.4078    4.7704    0.0000 C   0  0
    2.6385    5.6057    0.0000 N   0  0
    2.2036    7.0412    0.0000 O   0  0
    1.3843    3.2699    0.0000 C   0  0
    0.0548    2.5235    0.0000 C   0  0
    0.0476    0.9791    0.0000 C   0  0
    1.4410    0.0545    0.0000 C   0  0
    1.0298   -1.0298    0.0000 C   0  0
    1.9642   -2.2121    0.0000 C   0  0
    3.5452   -2.1363    0.0000 N   0  0
    3.7915   -3.6178    0.0000 C   0  0
    2.6331   -4.5720    0.0000 C   0  0
    2.3582   -6.0475    0.0000 C   0  0
    0.9860   -5.4941    0.0000 C   0  0
   -0.1726   -6.4469    0.0000 C   0  0
    0.0734   -7.9266    0.0000 C   0  0
    1.4778   -8.4535    0.0000 C   0  0
    2.6363   -7.5007    0.0000 C   0  0
   -0.1622   -9.3882    0.0000 N   0  0
    0.9776  -10.3647    0.0000 C   0  0
    1.9206  -10.0320    0.0000 O   0  0
    0.7027  -11.8401    0.0000 C   0  0
    1.8424  -12.8166    0.0000 C   0  0
    1.5676  -14.2920    0.0000 C   0  0
    2.7053  -15.2697    0.0000 C   0  0
    2.4276  -16.7437    0.0000 C   0  0
    1.0121  -17.2403    0.0000 C   0  0
    0.7900  -18.4195    0.0000 F   0  0
   -0.1256  -16.2627    0.0000 C   0  0
    0.1521  -14.7887    0.0000 C   0  0
    4.4262   -0.8507    0.0000 C   0  0
    3.9597    0.5735    0.0000 C   0  0
    2.7704    0.8009    0.0000 C   0  0
    2.7065    2.4719    0.0000 C   0  0
   -1.1488    8.2169    0.0000 H   0  0
    0.2730    9.2059    0.0000 H   0  0
   -0.7234    9.1217    0.0000 H   0  0
   -0.8070    3.0307    0.0000 H   0  0
   -0.8347    0.5083    0.0000 H   0  0
    0.6905   -1.9705    0.0000 H   0  0
    0.4225   -0.2353    0.0000 H   0  0
    2.4035   -1.3138    0.0000 H   0  0
    2.5677   -3.0095    0.0000 H   0  0
    4.7279   -3.9686    0.0000 H   0  0
    4.5636   -2.9823    0.0000 H   0  0
    1.8731   -3.9221    0.0000 H   0  0
    2.8158   -3.5889    0.0000 H   0  0
    3.2944   -6.3989    0.0000 H   0  0
    1.7799   -4.8861    0.0000 H   0  0
    0.0461   -5.1524    0.0000 H   0  0
   -0.3132   -5.4568    0.0000 H   0  0
   -0.9298   -7.1001    0.0000 H   0  0
   -0.8540   -7.5525    0.0000 H   0  0
    0.6906   -9.0703    0.0000 H   0  0
    2.4220   -8.7827    0.0000 H   0  0
    1.6884   -7.1822    0.0000 H   0  0
    2.7901   -8.4888    0.0000 H   0  0
   -1.1052   -9.7208    0.0000 H   0  0
   -0.2403  -12.1728    0.0000 H   0  0
    2.7855  -12.4839    0.0000 H   0  0
    3.6489  -14.9387    0.0000 H   0  0
    3.1861  -17.3954    0.0000 H   0  0
   -1.0692  -16.5937    0.0000 H   0  0
   -0.6064  -14.1370    0.0000 H   0  0
    5.0205   -0.0464    0.0000 H   0  0
    4.7713   -1.7892    0.0000 H   0  0
    3.2822   -0.1620    0.0000 H   0  0
    3.6184    1.5134    0.0000 H   0  0
    3.5678    2.9800    0.0000 H   0  0
  1  2  1  0
  2  3  2  0
  2  6  1  0
  3  4  1  0
  4  5  2  0
  4  7  1  0
  5  6  1  0
  7  8  1  0
  7 37  2  0
  8  9  2  0
  9 10  1  0
 10 11  1  0
 10 36  2  0
 11 12  1  0
 12 13  1  0
 13 14  1  0
 13 34  1  0
 14 15  1  0
 15 16  1  0
 16 17  1  0
 16 21  1  0
 17 18  1  0
 18 19  1  0
 19 20  1  0
 19 22  1  0
 20 21  1  0
 22 23  1  0
 23 24  2  0
 25 23  1  0
 25 26  2  0
 26 27  1  0
 27 28  1  0
 27 33  2  0
 28 29  2  0
 29 30  1  0
 30 31  1  0
 30 32  2  0
 32 33  1  0
 34 35  1  0
 35 36  1  0
 36 37  1  0
  1 38  1  0
  1 39  1  0
  1 40  1  0
  8 41  1  0
  9 42  1  0
 11 43  1  0
 11 44  1  0
 12 45  1  0
 12 46  1  0
 14 47  1  0
 14 48  1  0
 15 49  1  0
 15 50  1  0
 16 51  1  0
 17 52  1  0
 17 53  1  0
 18 54  1  0
 18 55  1  0
 19 56  1  0
 20 57  1  0
 20 58  1  0
 21 59  1  0
 21 60  1  0
 22 61  1  0
 25 62  1  0
 26 63  1  0
 28 64  1  0
 29 65  1  0
 32 66  1  0
 33 67  1  0
 34 68  1  0
 34 69  1  0
 35 70  1  0
 35 71  1  0
 37 72  1  0
V    1 0
V    2 1
V    3 2
V    4 3
V    5 4
V    6 5
V    7 6
V    8 7
V    9 8
V   10 9
V   11 10
V   12 11
V   13 12
V   14 13
V   15 14
V   16 15
V   17 16
V   18 17
V   19 18
V   20 19
V   21 20
V   22 21
V   23 22
V   24 23
V   25 24
V   26 25
V   27 26
V   28 27
V   29 28
V   30 29
V   31 30
V   32 31
V   33 32
V   34 33
V   35 34
V   36 35
V   37 36
M  END
> <DSSTox_RID>
66272

> <DSSTox_CID>
27325

> <DSSTox_CID_Parent>
27326

> <DSSTox_Generic_SID>
47325

> <DSSTox_FileID>
894_TXCST2_v1a

> <STRUCTURE_Formula>
C30H36ClFN4O2

> <STRUCTURE_MolecularWeight>
539.0838

> <STRUCTURE_ChemicalType>
defined organic

> <STRUCTURE_TestedForm_DefinedOrganic>
complex HCl

> <STRUCTURE_Shown>
tested chemical

> <TestSubstance_ChemicalName>
(2E)-3-(4-fluorophenyl)-N-(4-{2-[7-(5-methyl-1,2,4-oxadiazol-3-yl)-1,2,4,5-tetrahydro-3H-3-benzazepin-3-yl]ethyl}cyclohexyl)prop-2-enamide hydrochloride

> <TestSubstance_CASRN>
NOCAS_47325

> <TestSubstance_Description>
single chemical compound

> <ChemicalNote>
stereochem

> <STRUCTURE_ChemicalName_IUPAC>
(2E)-3-(4-fluorophenyl)-N-(4-{2-[7-(5-methyl-1,2,4-oxadiazol-3-yl)-1,2,4,5-tetrahydro-3H-3-benzazepin-3-yl]ethyl}cyclohexyl)prop-2-enamide hydrochloride

> <STRUCTURE_SMILES>
O=C(/C=C/C5=CC=C(F)C=C5)NC(CC4)CCC4CCN1CCC(C=CC(C3=NOC(C)=N3)=C2)=C2CC1.Cl

> <STRUCTURE_Parent_SMILES>
O=C(/C=C/C5=CC=C(F)C=C5)NC(CC4)CCC4CCN1CCC(C=CC(C3=NOC(C)=N3)=C2)=C2CC1

> <STRUCTURE_InChIS>
InChI=1S/C30H35FN4O2.ClH/c1-21-32-30(34-37-21)26-8-7-24-15-18-35(19-16-25(24)20-26)17-14-23-4-11-28(12-5-23)33-29(36)13-6-22-2-9-27(31)10-3-22;/h2-3,6-10,13,20,23,28H,4-5,11-12,14-19H2,1H3,(H,33,36);1
H/b13-6+;

> <STRUCTURE_InChIKey>
ALRFQTSUTVIUOX-AWFSDRIXSA-N

> <Substance_modify_yyyymmdd>
20100530

> <Coord_Metals>
0

> <Index>
894

> <Canonical_Smiles>
Cc1onc(n1)c2ccc3CCN(CCC4CCC(CC4)NC(=O)C=Cc5ccc(F)cc5)CCc3c2

> <Molecular_Weight>
502.6229

> <Frequency>
1

$$$$

  SciTegic          2D

 89 93  0  0  0  0            999 V2000
    2.2152    5.3489    0.0000 C   0  0
    2.0623    3.8558    0.0000 C   0  0
    3.3104    5.8395    0.0000 O   0  0
    3.2783    2.9761    0.0000 N   0  0
    0.9993    6.2286    0.0000 O   0  0
    0.6927    3.2422    0.0000 C   0  0
   -0.5232    4.1220    0.0000 C   0  0
    0.5398    1.7492    0.0000 C   0  0
    3.1501    1.4942    0.0000 C   0  0
    2.6859    0.0678    0.0000 C   0  0
    3.8990   -0.7508    0.0000 C   0  0
    5.1129    0.0667    0.0000 C   0  0
    4.6501    1.4935    0.0000 C   0  0
    2.9336   -1.8999    0.0000 C   0  0
    3.4451   -3.3109    0.0000 N   0  0
    4.9220   -3.5732    0.0000 C   0  0
    2.4795   -4.4587    0.0000 C   0  0
    5.4332   -4.9834    0.0000 C   0  0
    2.9907   -5.8689    0.0000 C   0  0
    4.4676   -6.1312    0.0000 C   0  0
    3.7899   -9.9115    0.0000 N   0  0
    4.7425   -8.7528    0.0000 N   0  0
    2.4832   -7.8663    0.0000 C   0  0
    3.9269   -7.5092    0.0000 C   0  0
    2.3935   -9.3636    0.0000 C   0  0
    1.1310  -10.1702    0.0000 C   0  0
    1.1974  -11.6696    0.0000 C   0  0
    2.5284  -12.3613    0.0000 C   0  0
   -0.0671  -12.4764    0.0000 C   0  0
    2.5948  -13.8598    0.0000 C   0  0
   -0.0007  -13.9749    0.0000 C   0  0
    1.3303  -14.6666    0.0000 C   0  0
    6.2386   -8.8308    0.0000 C   0  0
    6.9213  -10.1674    0.0000 C   0  0
    8.1042    2.6583    0.0000 C   0  0
    9.2820    1.7295    0.0000 C   0  0
    9.0667    0.2451    0.0000 C   0  0
    7.6734   -0.3107    0.0000 C   0  0
    6.4955    0.6181    0.0000 C   0  0
    6.7109    2.1026    0.0000 C   0  0
    8.2765    3.8458    0.0000 F   0  0
    4.6467    3.5926    0.0000 C   0  0
    2.9749    4.2647    0.0000 H   0  0
    1.1012    7.2234    0.0000 H   0  0
    0.7951    4.2370    0.0000 H   0  0
   -0.4213    5.1167    0.0000 H   0  0
   -1.3337    4.7077    0.0000 H   0  0
   -1.4358    3.7131    0.0000 H   0  0
    1.3500    1.1631    0.0000 H   0  0
    0.4374    0.7545    0.0000 H   0  0
   -0.3728    1.3404    0.0000 H   0  0
    3.5427    2.4139    0.0000 H   0  0
    2.5081   -0.9163    0.0000 H   0  0
    1.9403    0.7342    0.0000 H   0  0
    4.7649   -1.2511    0.0000 H   0  0
    5.2899   -0.9176    0.0000 H   0  0
    5.6429    1.3736    0.0000 H   0  0
    4.2303    2.4011    0.0000 H   0  0
    2.2899   -2.6652    0.0000 H   0  0
    1.9489   -1.7253    0.0000 H   0  0
    5.9022   -3.7713    0.0000 H   0  0
    4.5592   -2.6414    0.0000 H   0  0
    1.8540   -5.2389    0.0000 H   0  0
    2.1608   -3.5108    0.0000 H   0  0
    4.4448   -4.8318    0.0000 H   0  0
    5.7519   -5.9313    0.0000 H   0  0
    3.3536   -6.8007    0.0000 H   0  0
    3.6523   -5.1190    0.0000 H   0  0
    5.4560   -6.2830    0.0000 H   0  0
    1.7145   -7.2266    0.0000 H   0  0
    0.2435   -9.7094    0.0000 H   0  0
    1.0862   -9.1712    0.0000 H   0  0
    3.3715  -11.8235    0.0000 H   0  0
   -0.9544  -12.0152    0.0000 H   0  0
    3.4822  -14.3210    0.0000 H   0  0
   -0.8437  -14.5128    0.0000 H   0  0
    1.3746  -15.6657    0.0000 H   0  0
    6.7827   -7.9918    0.0000 H   0  0
    5.7842   -7.9400    0.0000 H   0  0
    7.9199  -10.2194    0.0000 H   0  0
    6.3772  -11.0064    0.0000 H   0  0
    7.3757  -11.0582    0.0000 H   0  0
   10.2109    2.1000    0.0000 H   0  0
    9.8519   -0.3741    0.0000 H   0  0
    7.5298   -1.3003    0.0000 H   0  0
    5.9256    2.7217    0.0000 H   0  0
    4.7475    4.5875    0.0000 H   0  0
    5.5586    4.0029    0.0000 H   0  0
    5.4581    3.0081    0.0000 H   0  0
  1  2  1  0
  1  3  2  0
  1  5  1  0
  2  4  1  0
  2  6  1  0
  9  4  1  0
  4 42  1  0
  6  7  1  0
  6  8  1  0
  9 10  1  0
  9 13  1  0
 10 11  1  0
 11 12  1  0
 11 14  1  0
 12 13  1  0
 12 39  1  0
 14 15  1  0
 15 16  1  0
 15 17  1  0
 16 18  1  0
 17 19  1  0
 18 20  1  0
 19 20  1  0
 20 24  1  0
 21 22  1  0
 21 25  2  0
 22 24  1  0
 22 33  1  0
 23 24  2  0
 23 25  1  0
 25 26  1  0
 26 27  1  0
 27 28  2  0
 27 29  1  0
 28 30  1  0
 29 31  2  0
 30 32  2  0
 31 32  1  0
 33 34  1  0
 35 40  2  0
 35 36  1  0
 35 41  1  0
 36 37  2  0
 37 38  1  0
 38 39  2  0
 39 40  1  0
  2 43  1  0
  5 44  1  0
  6 45  1  0
  7 46  1  0
  7 47  1  0
  7 48  1  0
  8 49  1  0
  8 50  1  0
  8 51  1  0
  9 52  1  0
 10 53  1  0
 10 54  1  0
 11 55  1  0
 12 56  1  0
 13 57  1  0
 13 58  1  0
 14 59  1  0
 14 60  1  0
 16 61  1  0
 16 62  1  0
 17 63  1  0
 17 64  1  0
 18 65  1  0
 18 66  1  0
 19 67  1  0
 19 68  1  0
 20 69  1  0
 23 70  1  0
 26 71  1  0
 26 72  1  0
 28 73  1  0
 29 74  1  0
 30 75  1  0
 31 76  1  0
 32 77  1  0
 33 78  1  0
 33 79  1  0
 34 80  1  0
 34 81  1  0
 34 82  1  0
 36 83  1  0
 37 84  1  0
 38 85  1  0
 40 86  1  0
 42 87  1  0
 42 88  1  0
 42 89  1  0
V    1 0
V    2 1
V    3 2
V    4 3
V    5 4
V    6 5
V    7 6
V    8 7
V    9 8
V   10 9
V   11 10
V   12 11
V   13 12
V   14 13
V   15 14
V   16 15
V   17 16
V   18 17
V   19 18
V   20 19
V   21 20
V   22 21
V   23 22
V   24 23
V   25 24
V   26 25
V   27 26
V   28 27
V   29 28
V   30 29
V   31 30
V   32 31
V   33 32
V   34 33
V   35 34
V   36 35
V   37 36
V   38 37
V   39 38
V   40 39
V   41 40
V   42 41
M  END
> <DSSTox_RID>
66273

> <DSSTox_CID>
27327

> <DSSTox_CID_Parent>
27327

> <DSSTox_Generic_SID>
47327

> <DSSTox_FileID>
895_TXCST2_v1a

> <STRUCTURE_Formula>
C35H47FN4O2

> <STRUCTURE_MolecularWeight>
574.7717

> <STRUCTURE_ChemicalType>
defined organic

> <STRUCTURE_TestedForm_DefinedOrganic>
parent

> <STRUCTURE_Shown>
tested chemical

> <TestSubstance_ChemicalName>
N-[(1R,3S,4S)-3-{[4-(3-benzyl-1-ethyl-1H-pyrazol-5-yl)piperidin-1-yl]methyl}-4-(3-fluorophenyl)cyclopentyl]-N-methyl-D-valine

> <TestSubstance_CASRN>
313994-79-5

> <TestSubstance_Description>
single chemical compound

> <ChemicalNote>
stereochem

> <STRUCTURE_ChemicalName_IUPAC>
N-[(1R,3S,4S)-3-{[4-(3-benzyl-1-ethyl-1H-pyrazol-5-yl)piperidin-1-yl]methyl}-4-(3-fluorophenyl)cyclopentyl]-N-methyl-D-valine

> <STRUCTURE_SMILES>
O=C(O)[C@@H](C(C)C)N(C)[C@H]1C[C@H](CN2CCC(C3=CC(CC4=CC=CC=C4)=NN3CC)CC2)[C@@H]([C@]5=CC=CC(F)=C5)C1

> <STRUCTURE_Parent_SMILES>
O=C(O)[C@@H](C(C)C)N(C)[C@H]1C[C@H](CN2CCC(C3=CC(CC4=CC=CC=C4)=NN3CC)CC2)[C@@H]([C@]5=CC=CC(F)=C5)C1

> <STRUCTURE_InChIS>
InChI=1S/C35H47FN4O2/c1-5-40-33(21-30(37-40)18-25-10-7-6-8-11-25)26-14-16-39(17-15-26)23-28-20-31(38(4)34(24(2)3)35(41)42)22-32(28)27-12-9-13-29(36)19-27/h6-13,19,21,24,26,28,31-32,34H,5,14-18,20,22-2
3H2,1-4H3,(H,41,42)/t28-,31+,32-,34-/m1/s1

> <STRUCTURE_InChIKey>
ZTENZJJCFACIAK-ADWVOTLJSA-N

> <Substance_modify_yyyymmdd>
20100531

> <Coord_Metals>
0

> <Index>
895

> <Canonical_Smiles>
CCn1nc(Cc2ccccc2)cc1C3CCN(CC4CC(CC4c5cccc(F)c5)N(C)C(C(C)C)C(=O)O)CC3

> <Molecular_Weight>
574.77168

> <Frequency>
1

$$$$

  SciTegic          2D

 42 44  0  0  0  0            999 V2000
    1.2990   -0.7500    0.0000 C   0  0
    1.2990    0.7500    0.0000 C   0  0
    0.0000   -1.5000    0.0000 C   0  0
    0.0000    1.5000    0.0000 C   0  0
   -1.2990   -0.7500    0.0000 C   0  0
   -1.2990    0.7500    0.0000 C   0  0
    2.5987    1.5004    0.0000 C   0  0
    3.8991    0.7525    0.0000 C   0  0
    2.5964    3.0004    0.0000 C   0  0
    5.1969    1.5046    0.0000 C   0  0
    3.8943    3.7525    0.0000 C   0  0
    5.1945    3.0046    0.0000 C   0  0
   -2.5987    1.5004    0.0000 C   0  0
   -2.7390    2.9810    0.0000 N   0  0
   -3.9492    0.8772    0.0000 N   0  0
   -4.2067    3.2905    0.0000 N   0  0
   -4.9546    1.9903    0.0000 C   0  0
    3.9046   -0.7483    0.0000 O   0  0
    5.2066   -1.4947    0.0000 C   0  0
    5.2122   -2.9956    0.0000 C   0  0
    4.1750   -3.5991    0.0000 F   0  0
    6.5142   -3.7420    0.0000 C   0  0
    4.1708   -2.3992    0.0000 F   0  0
    6.5187   -4.9420    0.0000 F   0  0
    7.5514   -3.1385    0.0000 F   0  0
    7.5556   -4.3383    0.0000 F   0  0
    3.8924    4.9525    0.0000 F   0  0
   -6.4447    1.8344    0.0000 C   0  0
   -7.3271    3.0485    0.0000 N   0  0
   -6.9330    0.7383    0.0000 O   0  0
    2.1651   -1.2500    0.0000 H   0  0
    0.0000   -2.5000    0.0000 H   0  0
    0.0000    2.5000    0.0000 H   0  0
   -2.1651   -1.2500    0.0000 H   0  0
    1.7296    3.4991    0.0000 H   0  0
    6.0637    1.0060    0.0000 H   0  0
    6.0597    3.5060    0.0000 H   0  0
   -1.9929    3.6469    0.0000 H   0  0
    6.0710   -0.9918    0.0000 H   0  0
    5.2034   -0.4947    0.0000 H   0  0
   -8.3217    2.9444    0.0000 H   0  0
   -6.9202    3.9620    0.0000 H   0  0
  1  2  2  0
  1  3  1  0
  2  4  1  0
  2  7  1  0
  3  5  2  0
  4  6  2  0
  5  6  1  0
  6 13  1  0
  7  8  2  0
  7  9  1  0
  8 10  1  0
  8 18  1  0
  9 11  2  0
 10 12  2  0
 11 12  1  0
 11 27  1  0
 13 14  1  0
 13 15  2  0
 14 16  1  0
 15 17  1  0
 16 17  2  0
 17 28  1  0
 18 19  1  0
 19 20  1  0
 20 21  1  0
 20 22  1  0
 20 23  1  0
 22 24  1  0
 22 25  1  0
 22 26  1  0
 28 29  1  0
 28 30  2  0
  1 31  1  0
  3 32  1  0
  4 33  1  0
  5 34  1  0
  9 35  1  0
 10 36  1  0
 12 37  1  0
 14 38  1  0
 19 39  1  0
 19 40  1  0
 29 41  1  0
 29 42  1  0
V    1 0
V    2 1
V    3 2
V    4 3
V    5 4
V    6 5
V    7 6
V    8 7
V    9 8
V   10 9
V   11 10
V   12 11
V   13 12
V   14 13
V   15 14
V   16 15
V   17 16
V   18 17
V   19 18
V   20 19
V   21 20
V   22 21
V   23 22
V   24 23
V   25 24
V   26 25
V   27 26
V   28 27
V   29 28
V   30 29
M  END
> <DSSTox_RID>
66275

> <DSSTox_CID>
27328

> <DSSTox_CID_Parent>
27309

> <DSSTox_Generic_SID>
47328

> <DSSTox_FileID>
896_TXCST2_v1a

> <STRUCTURE_Formula>
C18H13F6KN4O3

> <STRUCTURE_MolecularWeight>
486.4095

> <STRUCTURE_ChemicalType>
defined organic

> <STRUCTURE_TestedForm_DefinedOrganic>
salt K complex H2O

> <STRUCTURE_Shown>
tested chemical

> <TestSubstance_ChemicalName>
potassium 5-carbamoyl-3-[5'-fluoro-2'-(2,2,3,3,3-pentafluoropropoxy)biphenyl-3-yl]-1,2,4-triazol-1-ide hydrate

> <TestSubstance_CASRN>
NOCAS_47328

> <TestSubstance_Description>
single chemical compound

> <ChemicalNote>
tautomers

> <STRUCTURE_ChemicalName_IUPAC>
potassium 5-carbamoyl-3-[5'-fluoro-2'-(2,2,3,3,3-pentafluoropropoxy)biphenyl-3-yl]-1,2,4-triazol-1-ide hydrate

> <STRUCTURE_SMILES>
FC(C(F)(F)F)(F)COC1=CC=C(F)C=C1C2=CC(C3=N[N-]C(C(N)=O)=N3)=CC=C2.O.[K+]

> <STRUCTURE_Parent_SMILES>
FC(C(F)(F)F)(F)COC1=CC=C(F)C=C1C2=CC(C3=NNC(C(N)=O)=N3)=CC=C2

> <STRUCTURE_InChIS>
InChI=1S/C18H12F6N4O2.K.H2O/c19-11-4-5-13(30-8-17(20,21)18(22,23)24)12(7-11)9-2-1-3-10(6-9)15-26-16(14(25)29)28-27-15;;/h1-7H,8H2,(H3,25,26,27,28,29);;1H2/q;+1;/p-1

> <STRUCTURE_InChIKey>
HEJCGNRJBFSGRM-UHFFFAOYSA-M

> <Substance_modify_yyyymmdd>
20100531

> <Coord_Metals>
0

> <Index>
896

> <Canonical_Smiles>
NC(=O)c1n[nH]c(n1)c2cccc(c2)c3cc(F)ccc3OCC(F)(F)C(F)(F)F

> <Molecular_Weight>
430.30389

> <Frequency>
1

$$$$

  SciTegic          2D

 44 47  0  0  0  0            999 V2000
   -4.9153    0.7308    0.0000 C   0  0
   -3.6202    1.4892    0.0000 C   0  0
   -3.6299    2.9899    0.0000 C   0  0
   -4.9490    2.2475    0.0000 O   0  0
   -2.3155    0.7475    0.0000 C   0  0
   -2.3155   -0.7475    0.0000 C   0  0
   -1.0028   -1.5132    0.0000 N   0  0
    0.2917   -0.7475    0.0000 N   0  0
    1.7138   -1.2033    0.0000 C   0  0
    2.5889    0.0182    0.0000 C   0  0
    1.7138    1.2033    0.0000 N   0  0
    0.2917    0.7475    0.0000 C   0  0
   -1.0028    1.5132    0.0000 N   0  0
    2.1852   -2.6281    0.0000 C   0  0
    3.6221   -3.0405    0.0000 C   0  0
    3.9838   -4.4963    0.0000 C   0  0
    2.9039   -5.5373    0.0000 C   0  0
    3.1933   -6.7019    0.0000 F   0  0
    1.4624   -5.1227    0.0000 C   0  0
    1.1007   -3.6669    0.0000 C   0  0
    0.3820   -6.1643    0.0000 C   0  0
    0.7412   -7.6207    0.0000 C   0  0
    1.8939   -7.9543    0.0000 F   0  0
   -0.3403   -8.6601    0.0000 C   0  0
   -1.7812   -8.2431    0.0000 C   0  0
   -2.1405   -6.7868    0.0000 C   0  0
   -1.0590   -5.7474    0.0000 C   0  0
   -1.4186   -4.2903    0.0000 C   0  0
   -1.7062   -3.1253    0.0000 N   0  0
   -5.7847    1.2249    0.0000 H   0  0
   -4.9088   -0.2692    0.0000 H   0  0
   -5.7780    0.2251    0.0000 H   0  0
   -4.4988    3.4849    0.0000 H   0  0
   -2.7669    3.4952    0.0000 H   0  0
   -3.6359    3.9899    0.0000 H   0  0
   -4.9547    3.2475    0.0000 H   0  0
   -3.1826   -1.2456    0.0000 H   0  0
    3.5889    0.0254    0.0000 H   0  0
    4.3418   -2.3462    0.0000 H   0  0
    4.9448   -4.7727    0.0000 H   0  0
    0.1401   -3.3890    0.0000 H   0  0
   -0.1007   -9.6310    0.0000 H   0  0
   -2.5022   -8.9361    0.0000 H   0  0
   -3.1011   -6.5089    0.0000 H   0  0
  1  2  1  0
  2  3  1  0
  2  4  1  0
  2  5  1  0
  5  6  1  0
  5 13  2  0
  6  7  2  0
  7  8  1  0
  8  9  1  0
  8 12  1  0
  9 10  2  0
  9 14  1  0
 10 11  1  0
 11 12  2  0
 12 13  1  0
 14 15  1  0
 14 20  2  0
 15 16  2  0
 16 17  1  0
 17 18  1  0
 17 19  2  0
 19 20  1  0
 19 21  1  0
 21 22  1  0
 21 27  2  0
 22 23  1  0
 22 24  2  0
 24 25  1  0
 25 26  2  0
 26 27  1  0
 27 28  1  0
 28 29  3  0
  1 30  1  0
  1 31  1  0
  1 32  1  0
  3 33  1  0
  3 34  1  0
  3 35  1  0
  4 36  1  0
  6 37  1  0
 10 38  1  0
 15 39  1  0
 16 40  1  0
 20 41  1  0
 24 42  1  0
 25 43  1  0
 26 44  1  0
V    1 0
V    2 1
V    3 2
V    4 3
V    5 4
V    6 5
V    7 6
V    8 7
V    9 8
V   10 9
V   11 10
V   12 11
V   13 12
V   14 13
V   15 14
V   16 15
V   17 16
V   18 17
V   19 18
V   20 19
V   21 20
V   22 21
V   23 22
V   24 23
V   25 24
V   26 25
V   27 26
V   28 27
V   29 28
M  END
> <DSSTox_RID>
66276

> <DSSTox_CID>
27330

> <DSSTox_CID_Parent>
27330

> <DSSTox_Generic_SID>
47330

> <DSSTox_FileID>
897_TXCST2_v1a

> <STRUCTURE_Formula>
C21H15F2N5O

> <STRUCTURE_MolecularWeight>
391.3735

> <STRUCTURE_ChemicalType>
defined organic

> <STRUCTURE_TestedForm_DefinedOrganic>
parent

> <STRUCTURE_Shown>
tested chemical

> <TestSubstance_ChemicalName>
2',6-difluoro-5'-[3-(2-hydroxypropan-2-yl)imidazo[1,2-b][1,2,4]triazin-7-yl]biphenyl-2-carbonitrile

> <TestSubstance_CASRN>
NOCAS_47330

> <TestSubstance_Description>
single chemical compound

> <STRUCTURE_ChemicalName_IUPAC>
2',6-difluoro-5'-[3-(2-hydroxypropan-2-yl)imidazo[1,2-b][1,2,4]triazin-7-yl]biphenyl-2-carbonitrile

> <STRUCTURE_SMILES>
OC(C2=NC1=NC=C(C3=CC(C4=C(C#N)C=CC=C4F)=C(F)C=C3)N1N=C2)(C)C

> <STRUCTURE_Parent_SMILES>
OC(C2=NC1=NC=C(C3=CC(C4=C(C#N)C=CC=C4F)=C(F)C=C3)N1N=C2)(C)C

> <STRUCTURE_InChIS>
InChI=1S/C21H15F2N5O/c1-21(2,29)18-11-26-28-17(10-25-20(28)27-18)12-6-7-15(22)14(8-12)19-13(9-24)4-3-5-16(19)23/h3-8,10-11,29H,1-2H3

> <STRUCTURE_InChIKey>
PCZLQMGFNUNVOM-UHFFFAOYSA-N

> <Substance_modify_yyyymmdd>
20100531

> <Coord_Metals>
0

> <Index>
897

> <Canonical_Smiles>
CC(C)(O)c1cnn2c(cnc2n1)c3ccc(F)c(c3)c4c(F)cccc4C#N

> <Molecular_Weight>
391.3735

> <Frequency>
1

$$$$

  SciTegic          2D

 72 76  0  0  0  0            999 V2000
   -1.0028    1.5132    0.0000 N   0  0
   -2.3155    0.7475    0.0000 C   0  0
    0.2917    0.7475    0.0000 C   0  0
    0.2917   -0.7475    0.0000 C   0  0
   -2.3155   -0.7475    0.0000 C   0  0
   -1.0028   -1.5132    0.0000 C   0  0
    1.7138    1.2033    0.0000 C   0  0
    2.5889    0.0182    0.0000 C   0  0
    1.7138   -1.2033    0.0000 C   0  0
    3.3026    1.3234    0.0000 C   0  0
    2.6624    2.3383    0.0000 O   0  0
    4.8023    1.3827    0.0000 O   0  0
    0.2554   -6.3278    0.0000 O   0  0
   -1.0946   -6.9175    0.0000 C   0  0
   -2.0910   -5.7926    0.0000 O   0  0
   -1.3303   -4.5075    0.0000 C   0  0
    0.1272   -4.8399    0.0000 C   0  0
    1.1617   -3.7482    0.0000 C   0  0
    0.7080   -2.2991    0.0000 C   0  0
   -0.7505   -1.9656    0.0000 C   0  0
   -1.7890   -3.0751    0.0000 C   0  0
   -3.6202    1.4892    0.0000 C   0  0
   -4.9154    0.7311    0.0000 C   0  0
   -6.2201    1.4729    0.0000 C   0  0
   -7.5154    0.7147    0.0000 C   0  0
    0.1157    4.8225    0.0000 C   0  0
   -1.3459    4.4852    0.0000 C   0  0
   -1.7846    3.0508    0.0000 C   0  0
   -0.7618    1.9537    0.0000 C   0  0
    0.6998    2.2909    0.0000 C   0  0
    1.1385    3.7253    0.0000 C   0  0
    2.6009    4.0628    0.0000 C   0  0
    3.0408    5.4977    0.0000 C   0  0
    2.0178    6.5957    0.0000 C   0  0
    4.5032    5.8351    0.0000 C   0  0
    4.9431    7.2700    0.0000 O   0  0
    5.3212    4.9571    0.0000 O   0  0
   -2.3716    5.5809    0.0000 O   0  0
   -3.8335    5.2413    0.0000 C   0  0
   -3.1826   -1.2456    0.0000 H   0  0
   -0.9997   -2.5132    0.0000 H   0  0
    2.6947    1.3981    0.0000 H   0  0
    3.0815   -0.8521    0.0000 H   0  0
    2.6959   -1.3916    0.0000 H   0  0
    5.2682    2.2675    0.0000 H   0  0
   -2.0524   -7.2049    0.0000 H   0  0
   -0.3467   -7.5812    0.0000 H   0  0
    2.1359   -3.9737    0.0000 H   0  0
   -1.0430   -1.0093    0.0000 H   0  0
   -2.7647   -2.8557    0.0000 H   0  0
   -3.6265    2.4892    0.0000 H   0  0
   -2.7574    1.9948    0.0000 H   0  0
   -4.9092   -0.2689    0.0000 H   0  0
   -4.0464    0.2364    0.0000 H   0  0
   -6.2264    2.4729    0.0000 H   0  0
   -5.3573    1.9785    0.0000 H   0  0
   -8.3847    1.2090    0.0000 H   0  0
   -7.5091   -0.2852    0.0000 H   0  0
   -8.3782    0.2092    0.0000 H   0  0
    0.4081    5.7787    0.0000 H   0  0
   -2.7590    2.8260    0.0000 H   0  0
   -1.0542    0.9974    0.0000 H   0  0
    3.2826    3.3311    0.0000 H   0  0
    2.3083    3.1065    0.0000 H   0  0
    3.7225    4.7660    0.0000 H   0  0
    1.0432    6.3718    0.0000 H   0  0
    1.3364    7.3277    0.0000 H   0  0
    2.3109    7.5518    0.0000 H   0  0
    5.9175    7.4949    0.0000 H   0  0
   -4.5170    5.9713    0.0000 H   0  0
   -4.1244    4.2845    0.0000 H   0  0
   -4.8075    5.0146    0.0000 H   0  0
  1  2  2  0
  1  3  1  0
  2  5  1  0
  2 22  1  0
  3  4  2  0
  3  7  1  0
  4  6  1  0
  4  9  1  0
  5  6  2  0
  7  8  1  0
  7 30  1  0
  8  9  1  0
  8 10  1  0
  9 19  1  0
 10 11  2  0
 10 12  1  0
 13 14  1  0
 13 17  1  0
 14 15  1  0
 15 16  1  0
 16 17  2  0
 16 21  1  0
 17 18  1  0
 18 19  2  0
 19 20  1  0
 20 21  2  0
 22 23  1  0
 23 24  1  0
 24 25  1  0
 26 31  2  0
 26 27  1  0
 27 28  2  0
 27 38  1  0
 28 29  1  0
 29 30  2  0
 30 31  1  0
 31 32  1  0
 32 33  1  0
 33 34  1  0
 33 35  1  0
 35 36  1  0
 35 37  2  0
 38 39  1  0
  5 40  1  0
  6 41  1  0
  7 42  1  0
  8 43  1  0
  9 44  1  0
 12 45  1  0
 14 46  1  0
 14 47  1  0
 18 48  1  0
 20 49  1  0
 21 50  1  0
 22 51  1  0
 22 52  1  0
 23 53  1  0
 23 54  1  0
 24 55  1  0
 24 56  1  0
 25 57  1  0
 25 58  1  0
 25 59  1  0
 26 60  1  0
 28 61  1  0
 29 62  1  0
 32 63  1  0
 32 64  1  0
 33 65  1  0
 34 66  1  0
 34 67  1  0
 34 68  1  0
 36 69  1  0
 39 70  1  0
 39 71  1  0
 39 72  1  0
V    1 0
V    2 1
V    3 2
V    4 3
V    5 4
V    6 5
V    7 6
V    8 7
V    9 8
V   10 9
V   11 10
V   12 11
V   13 12
V   14 13
V   15 14
V   16 15
V   17 16
V   18 17
V   19 18
V   20 19
V   21 20
V   22 21
V   23 22
V   24 23
V   25 24
V   26 25
V   27 26
V   28 27
V   29 28
V   30 29
V   31 30
V   32 31
V   33 32
V   34 33
V   35 34
V   36 35
V   37 36
V   38 37
V   39 38
M  END
> <DSSTox_RID>
66278

> <DSSTox_CID>
27331

> <DSSTox_CID_Parent>
27332

> <DSSTox_Generic_SID>
47331

> <DSSTox_FileID>
898_TXCST2_v1a

> <STRUCTURE_Formula>
C31H31NNa2O7

> <STRUCTURE_MolecularWeight>
575.5599

> <STRUCTURE_ChemicalType>
defined organic

> <STRUCTURE_TestedForm_DefinedOrganic>
salt 2Na

> <STRUCTURE_Shown>
tested chemical

> <TestSubstance_ChemicalName>
disodium (5S,6R,7R)-5-(1,3-benzodioxol-5-yl)-2-butyl-7-{2-[(2S)-2-carboxylatopropyl]-4-methoxyphenyl}-6,7-dihydro-5H-cyclopenta[b]pyridine-6-carboxylate

> <TestSubstance_CASRN>
331623-06-4

> <TestSubstance_Description>
single chemical compound

> <ChemicalNote>
stereochem

> <STRUCTURE_ChemicalName_IUPAC>
disodium (5S,6R,7R)-5-(1,3-benzodioxol-5-yl)-2-butyl-7-{2-[(2S)-2-carboxylatopropyl]-4-methoxyphenyl}-6,7-dihydro-5H-cyclopenta[b]pyridine-6-carboxylate

> <STRUCTURE_SMILES>
O=[C@@]([O-])[C@H]2[C@H]([C@@]5=CC=C(OC)C=C5C[C@@H](C([O-])=O)C)C1=C([C@@H]2[C@](C=C4)=CC3=C4OCO3)C=CC(CCCC)=N1.[Na+].[Na+]

> <STRUCTURE_Parent_SMILES>
O=[C@@](O)[C@H]2[C@H]([C@@]5=CC=C(OC)C=C5C[C@@H](C(O)=O)C)C1=C([C@@H]2[C@](C=C4)=CC3=C4OCO3)C=CC(CCCC)=N1

> <STRUCTURE_InChIS>
InChI=1S/C31H33NO7.2Na/c1-4-5-6-20-8-10-23-26(18-7-12-24-25(15-18)39-16-38-24)28(31(35)36)27(29(23)32-20)22-11-9-21(37-3)14-19(22)13-17(2)30(33)34;;/h7-12,14-15,17,26-28H,4-6,13,16H2,1-3H3,(H,33,34)(H
,35,36);;/q;2*+1/p-2/t17-,26-,27-,28+;;/m0../s1

> <STRUCTURE_InChIKey>
UYBBLNHJCUVUCT-KODQONTISA-L

> <Substance_modify_yyyymmdd>
20100531

> <Coord_Metals>
0

> <Index>
898

> <Canonical_Smiles>
CCCCc1ccc2C(C(C(c3ccc(OC)cc3CC(C)C(=O)O)c2n1)C(=O)O)c4ccc5OCOc5c4

> <Molecular_Weight>
531.59621

> <Frequency>
1

$$$$

  SciTegic          2D

 58 60  0  0  0  0            999 V2000
   -9.1121    6.0020    0.0000 C   0  0
   -9.1114    7.5028    0.0000 C   0  0
   -7.8118    8.2535    0.0000 C   0  0
   -6.5122    7.5029    0.0000 C   0  0
   -6.5114    6.0021    0.0000 C   0  0
   -5.2118    5.2515    0.0000 C   0  0
   -5.2110    3.7506    0.0000 C   0  0
   -3.9114    3.0001    0.0000 C   0  0
   -2.6110    3.7495    0.0000 C   0  0
   -8.0729    5.4019    0.0000 O   0  0
  -10.4117    5.2514    0.0000 O   0  0
   -9.1128   12.0036    0.0000 N   0  0
   -6.5147   12.0049    0.0000 N   0  0
   -7.8141   12.7543    0.0000 C   0  0
   -7.8126    9.7543    0.0000 C   0  0
   -9.1120   10.5036    0.0000 C   0  0
   -6.5139   10.5049    0.0000 C   0  0
   -7.8148   14.2551    0.0000 C   0  0
   -1.3028    1.4862    0.0000 N   0  0
   -1.3115    2.9990    0.0000 C   0  0
   -0.0146    3.7473    0.0000 C   0  0
    1.2909    2.9828    0.0000 C   0  0
    1.2904    1.4857    0.0000 C   0  0
    2.5867    0.7369    0.0000 C   0  0
    2.5862   -0.7601    0.0000 C   0  0
    1.2893   -1.5084    0.0000 C   0  0
   -0.0070   -0.7597    0.0000 N   0  0
   -0.0065    0.7374    0.0000 C   0  0
   -9.9773    8.0030    0.0000 H   0  0
   -9.9776    7.0031    0.0000 H   0  0
   -6.9459    8.7536    0.0000 H   0  0
   -6.5122    8.5029    0.0000 H   0  0
   -5.6462    8.0030    0.0000 H   0  0
   -7.3776    6.5018    0.0000 H   0  0
   -7.3774    5.5019    0.0000 H   0  0
   -5.2118    6.2515    0.0000 H   0  0
   -4.3458    5.7516    0.0000 H   0  0
   -6.0772    4.2503    0.0000 H   0  0
   -6.0770    3.2505    0.0000 H   0  0
   -4.7775    2.5003    0.0000 H   0  0
   -3.9118    2.0001    0.0000 H   0  0
   -1.7449    4.2492    0.0000 H   0  0
   -2.6106    4.7495    0.0000 H   0  0
  -10.4121    4.2514    0.0000 H   0  0
   -9.9778   10.0032    0.0000 H   0  0
   -5.6477   10.0054    0.0000 H   0  0
   -8.6808   14.7552    0.0000 H   0  0
   -6.9489   14.7553    0.0000 H   0  0
   -7.8149   15.2551    0.0000 H   0  0
   -0.0113    4.7473    0.0000 H   0  0
    2.1586    3.4799    0.0000 H   0  0
    3.4406    0.2164    0.0000 H   0  0
    2.5635    1.7367    0.0000 H   0  0
    2.5623   -1.7598    0.0000 H   0  0
    1.7088   -0.2803    0.0000 H   0  0
    2.1668   -1.9880    0.0000 H   0  0
    0.4117   -1.9877    0.0000 H   0  0
   -0.8732   -1.2594    0.0000 H   0  0
  1  2  1  0
  1 11  1  0
  1 10  2  0
  2  3  1  0
  3  4  1  0
  3 15  1  0
  4  5  1  0
  5  6  1  0
  6  7  1  0
  7  8  1  0
  8  9  1  0
  9 20  1  0
 12 14  2  0
 12 16  1  0
 13 14  1  0
 13 17  2  0
 14 18  1  0
 15 16  2  0
 15 17  1  0
 19 20  2  0
 19 28  1  0
 20 21  1  0
 21 22  2  0
 22 23  1  0
 23 24  1  0
 23 28  2  0
 24 25  1  0
 25 26  1  0
 26 27  1  0
 27 28  1  0
  2 29  1  0
  2 30  1  0
  3 31  1  0
  4 32  1  0
  4 33  1  0
  5 34  1  0
  5 35  1  0
  6 36  1  0
  6 37  1  0
  7 38  1  0
  7 39  1  0
  8 40  1  0
  8 41  1  0
  9 42  1  0
  9 43  1  0
 11 44  1  0
 16 45  1  0
 17 46  1  0
 18 47  1  0
 18 48  1  0
 18 49  1  0
 21 50  1  0
 22 51  1  0
 24 52  1  0
 24 53  1  0
 25 54  1  0
 25 55  1  0
 26 56  1  0
 26 57  1  0
 27 58  1  0
V    1 0
V    2 1
V    3 2
V    4 3
V    5 4
V    6 5
V    7 6
V    8 7
V    9 8
V   10 9
V   11 10
V   12 11
V   13 12
V   14 13
V   15 14
V   16 15
V   17 16
V   18 17
V   19 18
V   20 19
V   21 20
V   22 21
V   23 22
V   24 23
V   25 24
V   26 25
V   27 26
V   28 27
M  END
> <DSSTox_RID>
66279

> <DSSTox_CID>
27333

> <DSSTox_CID_Parent>
27333

> <DSSTox_Generic_SID>
47333

> <DSSTox_FileID>
899_TXCST2_v1a

> <STRUCTURE_Formula>
C22H30N4O2

> <STRUCTURE_MolecularWeight>
382.4992

> <STRUCTURE_ChemicalType>
defined organic

> <STRUCTURE_TestedForm_DefinedOrganic>
parent

> <STRUCTURE_Shown>
tested chemical

> <TestSubstance_ChemicalName>
(3S)-3-(2-methylpyrimidin-5-yl)-9-(5,6,7,8-tetrahydro-1,8-naphthyridin-2-yl)nonanoic acid

> <TestSubstance_CASRN>
NOCAS_47333

> <TestSubstance_Description>
single chemical compound

> <ChemicalNote>
stereochem

> <STRUCTURE_ChemicalName_IUPAC>
(3S)-3-(2-methylpyrimidin-5-yl)-9-(5,6,7,8-tetrahydro-1,8-naphthyridin-2-yl)nonanoic acid

> <STRUCTURE_SMILES>
O=C(O)C[C@@H](C2=CN=C(C)N=C2)CCCCCCC1=NC3=C(CCCN3)C=C1

> <STRUCTURE_Parent_SMILES>
O=C(O)C[C@@H](C2=CN=C(C)N=C2)CCCCCCC1=NC3=C(CCCN3)C=C1

> <STRUCTURE_InChIS>
InChI=1S/C22H30N4O2/c1-16-24-14-19(15-25-16)18(13-21(27)28)7-4-2-3-5-9-20-11-10-17-8-6-12-23-22(17)26-20/h10-11,14-15,18H,2-9,12-13H2,1H3,(H,23,26)(H,27,28)/t18-/m0/s1

> <STRUCTURE_InChIKey>
NJDBZBVQIMZWPP-SFHVURJKSA-N

> <Substance_modify_yyyymmdd>
20100531

> <Coord_Metals>
0

> <Index>
899

> <Canonical_Smiles>
Cc1ncc(cn1)C(CCCCCCc2ccc3CCCNc3n2)CC(=O)O

> <Molecular_Weight>
382.4992

> <Frequency>
1

$$$$

  SciTegic          2D

 48 51  0  0  0  0            999 V2000
   -0.3469    6.0821    0.0000 N   0  0
    2.1197    6.9483    0.0000 N   0  0
    0.6242    7.2188    0.0000 C   0  0
    1.6353    4.3886    0.0000 C   0  0
    0.1537    4.6473    0.0000 C   0  0
    2.6065    5.5252    0.0000 C   0  0
    3.9837    4.9480    0.0000 N   0  0
    3.8556    3.4508    0.0000 N   0  0
    2.4205    3.1183    0.0000 C   0  0
   -0.8167    3.5028    0.0000 N   0  0
   -2.2935    3.7700    0.0000 C   0  0
   -2.2638    2.2906    0.0000 C   0  0
   -3.5660    1.5462    0.0000 C   0  0
   -4.8618    2.3018    0.0000 C   0  0
   -4.8554    3.8018    0.0000 C   0  0
   -3.5531    4.5462    0.0000 C   0  0
   -6.3117    2.6009    0.0000 O   0  0
   -7.3370    1.5049    0.0000 C   0  0
   -8.7991    1.8440    0.0000 C   0  0
   -9.1484    2.9920    0.0000 F   0  0
  -12.3102   -0.0076    0.0000 C   0  0
  -11.8739   -1.4428    0.0000 C   0  0
  -10.4129   -1.7826    0.0000 C   0  0
   -9.3881   -0.6872    0.0000 C   0  0
   -9.8244    0.7480    0.0000 C   0  0
  -11.2854    1.0878    0.0000 C   0  0
  -11.6344    2.2359    0.0000 F   0  0
   -1.3297    6.2668    0.0000 H   0  0
    0.2885    8.1608    0.0000 H   0  0
    2.0359    2.1952    0.0000 H   0  0
   -0.4791    2.5615    0.0000 H   0  0
   -2.2894    4.7699    0.0000 H   0  0
   -1.4134    2.8168    0.0000 H   0  0
   -2.2783    1.2908    0.0000 H   0  0
   -3.5853    2.5460    0.0000 H   0  0
   -4.4456    1.0705    0.0000 H   0  0
   -4.8416    1.3020    0.0000 H   0  0
   -5.7116    3.2852    0.0000 H   0  0
   -4.8276    4.8014    0.0000 H   0  0
   -2.6683    5.0120    0.0000 H   0  0
   -4.4221    5.0410    0.0000 H   0  0
   -7.0459    0.5483    0.0000 H   0  0
   -6.3630    1.2786    0.0000 H   0  0
   -9.7731    2.0703    0.0000 H   0  0
  -13.2842    0.2189    0.0000 H   0  0
  -12.5571   -2.1730    0.0000 H   0  0
  -10.1221   -2.7393    0.0000 H   0  0
   -8.4141   -0.9137    0.0000 H   0  0
  1  3  1  0
  1  5  1  0
  2  3  2  0
  2  6  1  0
  4  5  2  0
  4  6  1  0
  4  9  1  0
  5 10  1  0
  6  7  2  0
  7  8  1  0
  8  9  2  0
 11 10  1  0
 11 12  1  0
 11 16  1  0
 12 13  1  0
 13 14  1  0
 14 15  1  0
 14 17  1  0
 15 16  1  0
 17 18  1  0
 18 19  1  0
 19 20  1  0
 19 25  1  0
 21 26  2  0
 21 22  1  0
 22 23  2  0
 23 24  1  0
 24 25  2  0
 25 26  1  0
 26 27  1  0
  1 28  1  0
  3 29  1  0
  9 30  1  0
 10 31  1  0
 11 32  1  0
 12 33  1  0
 12 34  1  0
 13 35  1  0
 13 36  1  0
 14 37  1  0
 15 38  1  0
 15 39  1  0
 16 40  1  0
 16 41  1  0
 18 42  1  0
 18 43  1  0
 19 44  1  0
 21 45  1  0
 22 46  1  0
 23 47  1  0
 24 48  1  0
V    1 0
V    2 1
V    3 2
V    4 3
V    5 4
V    6 5
V    7 6
V    8 7
V    9 8
V   10 9
V   11 10
V   12 11
V   13 12
V   14 13
V   15 14
V   16 15
V   17 16
V   18 17
V   19 18
V   20 19
V   21 20
V   22 21
V   23 22
V   24 23
V   25 24
V   26 25
V   27 26
M  END
> <DSSTox_RID>
66280

> <DSSTox_CID>
27334

> <DSSTox_CID_Parent>
27334

> <DSSTox_Generic_SID>
47334

> <DSSTox_FileID>
900_TXCST2_v1a

> <STRUCTURE_Formula>
C19H21F2N5O

> <STRUCTURE_MolecularWeight>
373.3997

> <STRUCTURE_ChemicalType>
defined organic

> <STRUCTURE_TestedForm_DefinedOrganic>
parent

> <STRUCTURE_Shown>
tested chemical

> <TestSubstance_ChemicalName>
N-{trans-4-[(2R)-2-fluoro-2-(2-fluorophenyl)ethoxy]cyclohexyl}-5H-pyrazolo[3,4-d]pyrimidin-4-amine

> <TestSubstance_CASRN>
NOCAS_47334

> <TestSubstance_Description>
single chemical compound

> <ChemicalNote>
stereochem; tautomers

> <STRUCTURE_ChemicalName_IUPAC>
N-{trans-4-[(2R)-2-fluoro-2-(2-fluorophenyl)ethoxy]cyclohexyl}-5H-pyrazolo[3,4-d]pyrimidin-4-amine

> <STRUCTURE_SMILES>
F[C@H](C4=CC=CC=C4F)CO[C@@H](CC3)CC[C@H]3NC(NC=N2)=C1C2=NN=C1

> <STRUCTURE_Parent_SMILES>
F[C@H](C4=CC=CC=C4F)CO[C@@H](CC3)CC[C@H]3NC(NC=N2)=C1C2=NN=C1

> <STRUCTURE_InChIS>
InChI=1S/C19H21F2N5O/c20-16-4-2-1-3-14(16)17(21)10-27-13-7-5-12(6-8-13)25-18-15-9-24-26-19(15)23-11-22-18/h1-4,9,11-13,17H,5-8,10H2,(H2,22,23,24,25,26)/t12-,13-,17-/m0/s1

> <STRUCTURE_InChIKey>
GHKNHBRWJYMSHK-DCGLDWPTSA-N

> <Substance_modify_yyyymmdd>
20100531

> <Coord_Metals>
0

> <Index>
900

> <Canonical_Smiles>
FC(COC1CCC(CC1)Nc2[nH]cnc3nncc23)c4ccccc4F

> <Molecular_Weight>
373.39974

> <Frequency>
1

$$$$

  SciTegic          2D

 67 70  0  0  0  0            999 V2000
    5.4275   -2.7445    0.0000 C   0  0
    6.9190   -2.5854    0.0000 C   0  0
    7.7611   -3.8020    0.0000 C   0  0
    7.1945   -5.1689    0.0000 C   0  0
    7.0766   -6.6454    0.0000 O   0  0
    5.7029   -5.3279    0.0000 C   0  0
    4.8194   -4.1157    0.0000 O   0  0
    5.7371   -7.3224    0.0000 C   0  0
    8.8018   -2.7207    0.0000 N   0  0
   10.2514   -3.0544    0.0000 C   0  0
   11.6620   -3.5645    0.0000 C   0  0
   11.5625   -5.0246    0.0000 C   0  0
   10.1717   -5.4801    0.0000 C   0  0
    9.3304   -4.2383    0.0000 C   0  0
   13.1593   -2.9727    0.0000 C   0  0
   12.9528   -4.4593    0.0000 C   0  0
   14.1372   -5.3810    0.0000 C   0  0
   11.3564   -6.5116    0.0000 C   0  0
   10.2445   -6.9629    0.0000 O   0  0
   16.0889  -10.1870    0.0000 N   0  0
   15.8923  -11.6871    0.0000 C   0  0
   14.5059  -12.2526    0.0000 C   0  0
   13.3161  -11.3181    0.0000 C   0  0
   13.5197   -9.8349    0.0000 C   0  0
   12.3368   -8.9173    0.0000 C   0  0
   12.5403   -7.4341    0.0000 N   0  0
   13.9267   -6.8686    0.0000 C   0  0
   15.1096   -7.7862    0.0000 C   0  0
   14.9060   -9.2694    0.0000 C   0  0
   14.3017  -13.7394    0.0000 C   0  0
   15.2492  -14.4757    0.0000 F   0  0
   13.1904  -14.1921    0.0000 F   0  0
   14.1379  -14.9281    0.0000 F   0  0
    5.8543   -1.8401    0.0000 H   0  0
    4.4359   -2.8738    0.0000 H   0  0
    7.9164   -2.5140    0.0000 H   0  0
    6.5230   -3.5037    0.0000 H   0  0
    8.3499   -4.6103    0.0000 H   0  0
    6.5770   -4.3823    0.0000 H   0  0
    6.3109   -6.1219    0.0000 H   0  0
    4.7064   -5.4106    0.0000 H   0  0
    5.6808   -8.3208    0.0000 H   0  0
    4.8443   -7.7730    0.0000 H   0  0
    4.9004   -6.7747    0.0000 H   0  0
    8.5243   -1.7600    0.0000 H   0  0
   10.9559   -2.3447    0.0000 H   0  0
   12.5476   -4.0289    0.0000 H   0  0
   11.5943   -2.5668    0.0000 H   0  0
   10.8396   -6.2244    0.0000 H   0  0
    9.1880   -5.6599    0.0000 H   0  0
    8.8150   -5.0953    0.0000 H   0  0
    8.8722   -3.3495    0.0000 H   0  0
   14.0856   -2.5961    0.0000 H   0  0
   13.2964   -1.9822    0.0000 H   0  0
   12.3701   -2.3586    0.0000 H   0  0
   13.8793   -4.0831    0.0000 H   0  0
   15.0639   -5.0052    0.0000 H   0  0
   14.9261   -5.9955    0.0000 H   0  0
   13.9996   -6.3715    0.0000 H   0  0
   16.6841  -12.2978    0.0000 H   0  0
   12.3891  -11.6930    0.0000 H   0  0
   12.2244   -9.9110    0.0000 H   0  0
   11.5614   -8.2859    0.0000 H   0  0
   14.8613   -6.5128    0.0000 H   0  0
   13.1224   -6.2743    0.0000 H   0  0
   14.1928   -8.1857    0.0000 H   0  0
   15.8850   -8.4176    0.0000 H   0  0
  1  7  1  0
  1  2  1  0
  2  3  1  0
  3  9  1  0
  3  4  1  0
  4  5  1  0
  4  6  1  0
  5  8  1  0
  6  7  1  0
 10  9  1  0
 10 11  1  0
 10 14  1  0
 11 12  1  0
 12 13  1  0
 12 16  1  0
 12 18  1  0
 13 14  1  0
 15 16  1  0
 16 17  1  0
 18 19  2  0
 18 26  1  0
 20 21  2  0
 20 29  1  0
 21 22  1  0
 22 23  2  0
 22 30  1  0
 23 24  1  0
 24 25  1  0
 24 29  2  0
 25 26  1  0
 26 27  1  0
 27 28  1  0
 28 29  1  0
 30 31  1  0
 30 32  1  0
 30 33  1  0
  1 34  1  0
  1 35  1  0
  2 36  1  0
  2 37  1  0
  3 38  1  0
  4 39  1  0
  6 40  1  0
  6 41  1  0
  8 42  1  0
  8 43  1  0
  8 44  1  0
  9 45  1  0
 10 46  1  0
 11 47  1  0
 11 48  1  0
 13 49  1  0
 13 50  1  0
 14 51  1  0
 14 52  1  0
 15 53  1  0
 15 54  1  0
 15 55  1  0
 16 56  1  0
 17 57  1  0
 17 58  1  0
 17 59  1  0
 21 60  1  0
 23 61  1  0
 25 62  1  0
 25 63  1  0
 27 64  1  0
 27 65  1  0
 28 66  1  0
 28 67  1  0
V    1 0
V    2 1
V    3 2
V    4 3
V    5 4
V    6 5
V    7 6
V    8 7
V    9 8
V   10 9
V   11 10
V   12 11
V   13 12
V   14 13
V   15 14
V   16 15
V   17 16
V   18 17
V   19 18
V   20 19
V   21 20
V   22 21
V   23 22
V   24 23
V   25 24
V   26 25
V   27 26
V   28 27
V   29 28
V   30 29
V   31 30
V   32 31
V   33 32
M  END
> <DSSTox_RID>
66282

> <DSSTox_CID>
27335

> <DSSTox_CID_Parent>
27336

> <DSSTox_Generic_SID>
47335

> <DSSTox_FileID>
901_TXCST2_v1a

> <STRUCTURE_Formula>
C28H40F3N3O7

> <STRUCTURE_MolecularWeight>
587.6283

> <STRUCTURE_ChemicalType>
defined organic

> <STRUCTURE_TestedForm_DefinedOrganic>
complex succinate

> <STRUCTURE_Shown>
tested chemical

> <TestSubstance_ChemicalName>
1,5-anhydro-2,3-dideoxy-4-O-methyl-3-{[(1R,3S)-3-(propan-2-yl)-3-{[3-(trifluoromethyl)-7,8-dihydro-1,6-naphthyridin-6(5H)-yl]carbonyl}cyclopentyl]ammonio}-D-erythro-pentitol 3-carboxypropanoate

> <TestSubstance_CASRN>
851916-42-2

> <TestSubstance_Description>
single chemical compound

> <ChemicalNote>
stereochem

> <STRUCTURE_ChemicalName_IUPAC>
1,5-anhydro-2,3-dideoxy-4-O-methyl-3-{[(1R,3S)-3-(propan-2-yl)-3-{[3-(trifluoromethyl)-7,8-dihydro-1,6-naphthyridin-6(5H)-yl]carbonyl}cyclopentyl]ammonio}-D-erythro-pentitol 3-carboxypropanoate

> <STRUCTURE_SMILES>
O=[C@@](N(CC4)CC3=C4N=CC(C(F)(F)F)=C3)[C@](CC2)(C(C)C)C[C@@H]2[NH2+][C@H]1CCOC[C@H]1OC.O=C([O-])CCC(O)=O

> <STRUCTURE_Parent_SMILES>
O=[C@@](N(CC4)CC3=C4N=CC(C(F)(F)F)=C3)[C@](CC2)(C(C)C)C[C@@H]2[NH2+][C@H]1CCOC[C@H]1OC

> <STRUCTURE_InChIS>
InChI=1S/C24H34F3N3O3.C4H6O4/c1-15(2)23(7-4-18(11-23)29-20-6-9-33-14-21(20)32-3)22(31)30-8-5-19-16(13-30)10-17(12-28-19)24(25,26)27;5-3(6)1-2-4(7)8/h10,12,15,18,20-21,29H,4-9,11,13-14H2,1-3H3;1-2H2,(H
,5,6)(H,7,8)/t18-,20+,21-,23+;/m1./s1

> <STRUCTURE_InChIKey>
WPPJJJUIDYHHSM-PXUYIWLPSA-N

> <Substance_modify_yyyymmdd>
20100531

> <Coord_Metals>
0

> <Index>
901

> <Canonical_Smiles>
COC1COCCC1NC2CCC(C2)(C(C)C)C(=O)N3CCc4ncc(cc4C3)C(F)(F)F

> <Molecular_Weight>
469.54026

> <Frequency>
1

$$$$

  SciTegic          2D

 74 79  0  0  0  0            999 V2000
  -12.9539    2.6417    0.0000 C   0  0
  -13.6678    3.9553    0.0000 C   0  0
  -13.7333    1.3580    0.0000 C   0  0
  -15.1673    3.9931    0.0000 C   0  0
  -15.2328    1.3959    0.0000 C   0  0
  -15.9498    2.7134    0.0000 C   0  0
  -11.6023    1.9894    0.0000 N   0  0
  -11.3357    0.5133    0.0000 C   0  0
  -10.2808    2.6992    0.0000 C   0  0
   -9.8597    0.3300    0.0000 C   0  0
   -9.1975    1.6617    0.0000 N   0  0
  -10.0782    4.1862    0.0000 C   0  0
   -8.7405    4.8538    0.0000 C   0  0
  -11.3339    5.0099    0.0000 C   0  0
   -8.6503    6.3510    0.0000 C   0  0
  -11.2437    6.5072    0.0000 C   0  0
   -9.9020    7.1777    0.0000 C   0  0
   -9.1469   -0.9907    0.0000 C   0  0
   -9.7768   -2.0121    0.0000 O   0  0
   -7.6467   -1.0347    0.0000 N   0  0
   -6.9324   -2.3537    0.0000 C   0  0
   -6.8616    0.2434    0.0000 C   0  0
   -5.4329   -2.3945    0.0000 C   0  0
   -5.3622    0.2026    0.0000 C   0  0
   -4.6478   -1.1165    0.0000 N   0  0
   -3.1475   -1.1519    0.0000 C   0  0
   -2.3647    0.1245    0.0000 C   0  0
   -2.4182   -2.4774    0.0000 C   0  0
   -0.8526    0.0753    0.0000 C   0  0
   -0.9216   -2.5170    0.0000 C   0  0
   -0.1389   -1.2406    0.0000 C   0  0
   -0.2079   -3.8330    0.0000 C   0  0
    1.2886   -3.8726    0.0000 C   0  0
    1.3577   -1.2802    0.0000 C   0  0
    2.0714   -2.5962    0.0000 C   0  0
   -0.0630    1.3517    0.0000 C   0  0
   -0.7727    2.6741    0.0000 O   0  0
    1.1364    1.3148    0.0000 O   0  0
   -9.8118    8.6759    0.0000 C   0  0
  -15.8874    5.3099    0.0000 O   0  0
  -17.3878    5.3456    0.0000 C   0  0
  -18.1079    6.6624    0.0000 C   0  0
  -13.1458    4.8083    0.0000 H   0  0
  -13.2539    0.4804    0.0000 H   0  0
  -15.7545    0.5427    0.0000 H   0  0
  -16.9495    2.7386    0.0000 H   0  0
  -12.0230   -0.2130    0.0000 H   0  0
   -7.9062    4.3024    0.0000 H   0  0
  -12.2277    4.5614    0.0000 H   0  0
   -7.7558    6.7981    0.0000 H   0  0
  -12.0781    7.0583    0.0000 H   0  0
   -6.4355   -3.2215    0.0000 H   0  0
   -7.9311   -2.3030    0.0000 H   0  0
   -6.3182    1.0829    0.0000 H   0  0
   -7.8616    0.2472    0.0000 H   0  0
   -5.8883   -1.5042    0.0000 H   0  0
   -4.4329   -2.3983    0.0000 H   0  0
   -5.8653   -0.6616    0.0000 H   0  0
   -4.3634    0.1518    0.0000 H   0  0
   -2.8389    1.0049    0.0000 H   0  0
   -2.9384   -3.3314    0.0000 H   0  0
   -0.7307   -4.6854    0.0000 H   0  0
    1.7655   -4.7515    0.0000 H   0  0
    1.8805   -0.4278    0.0000 H   0  0
    3.0711   -2.6228    0.0000 H   0  0
   -0.2466    3.5246    0.0000 H   0  0
   -8.9175    9.1235    0.0000 H   0  0
  -10.6464    9.2267    0.0000 H   0  0
   -9.7522    9.6741    0.0000 H   0  0
  -17.9080    4.4916    0.0000 H   0  0
  -16.9084    4.4680    0.0000 H   0  0
  -19.1076    6.6862    0.0000 H   0  0
  -17.5877    7.5164    0.0000 H   0  0
  -18.5873    7.5400    0.0000 H   0  0
  1  2  1  0
  1  3  2  0
  1  7  1  0
  2  4  2  0
  3  5  1  0
  4  6  1  0
  4 40  1  0
  5  6  2  0
  7  8  1  0
  7  9  1  0
  8 10  2  0
  9 11  2  0
  9 12  1  0
 10 11  1  0
 10 18  1  0
 12 13  1  0
 12 14  2  0
 13 15  2  0
 14 16  1  0
 15 17  1  0
 16 17  2  0
 17 39  1  0
 18 19  2  0
 18 20  1  0
 20 21  1  0
 20 22  1  0
 21 23  1  0
 22 24  1  0
 23 25  1  0
 24 25  1  0
 25 26  1  0
 26 27  1  0
 26 28  2  0
 27 29  2  0
 28 30  1  0
 29 31  1  0
 29 36  1  0
 30 32  1  0
 30 31  2  0
 31 34  1  0
 32 33  2  0
 33 35  1  0
 34 35  2  0
 36 37  1  0
 36 38  2  0
 40 41  1  0
 41 42  1  0
  2 43  1  0
  3 44  1  0
  5 45  1  0
  6 46  1  0
  8 47  1  0
 13 48  1  0
 14 49  1  0
 15 50  1  0
 16 51  1  0
 21 52  1  0
 21 53  1  0
 22 54  1  0
 22 55  1  0
 23 56  1  0
 23 57  1  0
 24 58  1  0
 24 59  1  0
 27 60  1  0
 28 61  1  0
 32 62  1  0
 33 63  1  0
 34 64  1  0
 35 65  1  0
 37 66  1  0
 39 67  1  0
 39 68  1  0
 39 69  1  0
 41 70  1  0
 41 71  1  0
 42 72  1  0
 42 73  1  0
 42 74  1  0
V    1 0
V    2 1
V    3 2
V    4 3
V    5 4
V    6 5
V    7 6
V    8 7
V    9 8
V   10 9
V   11 10
V   12 11
V   13 12
V   14 13
V   15 14
V   16 15
V   17 16
V   18 17
V   19 18
V   20 19
V   21 20
V   22 21
V   23 22
V   24 23
V   25 24
V   26 25
V   27 26
V   28 27
V   29 28
V   30 29
V   31 30
V   32 31
V   33 32
V   34 33
V   35 34
V   36 35
V   37 36
V   38 37
V   39 38
V   40 39
V   41 40
V   42 41
M  END
> <DSSTox_RID>
66283

> <DSSTox_CID>
27337

> <DSSTox_CID_Parent>
27719

> <DSSTox_Generic_SID>
47337

> <DSSTox_FileID>
902_TXCST2_v1a

> <STRUCTURE_Formula>
C34H31N4NaO4

> <STRUCTURE_MolecularWeight>
582.6241

> <STRUCTURE_ChemicalType>
defined organic

> <STRUCTURE_TestedForm_DefinedOrganic>
salt Na

> <STRUCTURE_Shown>
tested chemical

> <TestSubstance_ChemicalName>
sodium 3-(4-{[1-(3-ethoxyphenyl)-2-(4-methylphenyl)-1H-imidazol-4-yl]carbonyl}piperazin-1-yl)naphthalene-1-carboxylate

> <TestSubstance_CASRN>
1061517-62-1

> <TestSubstance_Description>
single chemical compound

> <STRUCTURE_ChemicalName_IUPAC>
sodium 3-(4-{[1-(3-ethoxyphenyl)-2-(4-methylphenyl)-1H-imidazol-4-yl]carbonyl}piperazin-1-yl)naphthalene-1-carboxylate

> <STRUCTURE_SMILES>
CCOC1=CC(N2C=C(C(N3CCN(C4=CC5=CC=CC=C5C(C([O-])=O)=C4)CC3)=O)N=C2C6=CC=C(C)C=C6)=CC=C1.[Na+]

> <STRUCTURE_Parent_SMILES>
O=C(N4CCN(C6=CC5=CC=CC=C5C(C(O)=O)=C6)CC4)C(N=C2C3=CC=C(C)C=C3)=CN2C1=CC=CC(OCC)=C1

> <STRUCTURE_InChIS>
InChI=1S/C34H32N4O4.Na/c1-3-42-28-9-6-8-26(20-28)38-22-31(35-32(38)24-13-11-23(2)12-14-24)33(39)37-17-15-36(16-18-37)27-19-25-7-4-5-10-29(25)30(21-27)34(40)41;/h4-14,19-22H,3,15-18H2,1-2H3,(H,40,41);/
q;+1/p-1

> <STRUCTURE_InChIKey>
KQJNPHDTBVUCDU-UHFFFAOYSA-M

> <Substance_modify_yyyymmdd>
20110108

> <Coord_Metals>
0

> <Index>
902

> <Canonical_Smiles>
CCOc1cccc(c1)n2cc(nc2c3ccc(C)cc3)C(=O)N4CCN(CC4)c5cc(C(=O)O)c6ccccc6c5

> <Molecular_Weight>
560.64227

> <Frequency>
1

$$$$

  SciTegic          2D

 32 35  0  0  0  0            999 V2000
   -1.2039    0.3704    0.0000 C   0  0
   -1.6669   -1.0186    0.0000 C   0  0
   -2.2225    1.5280    0.0000 C   0  0
   -3.1485   -1.3659    0.0000 C   0  0
   -3.6810    1.1807    0.0000 C   0  0
   -4.1672    0.0000    0.0000 C   0  0
    0.3010    0.3704    0.0000 C   0  0
    0.7408   -1.0186    0.0000 C   0  0
   -0.4399   -1.9215    0.0000 C   0  0
    1.5048    1.2733    0.0000 N   0  0
    2.7318    0.3704    0.0000 C   0  0
    2.2688   -1.0186    0.0000 S   0  0
    4.1622    0.8244    0.0000 C   0  0
    5.3399   -0.0964    0.0000 C   0  0
    4.3662    2.3123    0.0000 C   0  0
    6.7306    0.4658    0.0000 C   0  0
    5.7569    2.8745    0.0000 C   0  0
    6.9391    1.9512    0.0000 C   0  0
   -5.3578   -0.1497    0.0000 Cl  0  0
   -0.1652    1.7918    0.0000 O   0  0
   -1.9196    2.4810    0.0000 H   0  0
   -3.4913   -2.3053    0.0000 H   0  0
   -4.3305    1.9410    0.0000 H   0  0
    1.0615   -1.9658    0.0000 H   0  0
    0.4374   -2.4015    0.0000 H   0  0
   -1.3081   -2.4177    0.0000 H   0  0
    5.2007   -1.0867    0.0000 H   0  0
    3.5771    2.9265    0.0000 H   0  0
    7.5187   -0.1497    0.0000 H   0  0
    5.8959    3.8648    0.0000 H   0  0
    7.8662    2.3260    0.0000 H   0  0
   -1.1438    1.9978    0.0000 H   0  0
  1  3  2  0
  1  7  1  0
  1  2  1  0
  2  4  2  0
  2  9  1  0
  3  5  1  0
  4  6  1  0
  5  6  2  0
  6 19  1  0
  7 10  1  0
  7  8  1  0
  7 20  1  0
  8  9  1  0
  8 12  1  0
 10 11  2  0
 11 12  1  0
 11 13  1  0
 13 14  1  0
 13 15  2  0
 14 16  2  0
 15 17  1  0
 16 18  1  0
 17 18  2  0
  3 21  1  0
  4 22  1  0
  5 23  1  0
  8 24  1  0
  9 25  1  0
  9 26  1  0
 14 27  1  0
 15 28  1  0
 16 29  1  0
 17 30  1  0
 18 31  1  0
 20 32  1  0
V    1 0
V    2 1
V    3 2
V    4 3
V    5 4
V    6 5
V    7 6
V    8 7
V    9 8
V   10 9
V   11 10
V   12 11
V   13 12
V   14 13
V   15 14
V   16 15
V   17 16
V   18 17
V   19 18
V   20 19
M  END
> <DSSTox_RID>
66284

> <DSSTox_CID>
27338

> <DSSTox_CID_Parent>
27338

> <DSSTox_Generic_SID>
47338

> <DSSTox_FileID>
903_TXCST2_v1a

> <STRUCTURE_Formula>
C16H12ClNOS

> <STRUCTURE_MolecularWeight>
301.7906

> <STRUCTURE_ChemicalType>
defined organic

> <STRUCTURE_TestedForm_DefinedOrganic>
parent

> <STRUCTURE_Shown>
tested chemical

> <TestSubstance_ChemicalName>
6-chloro-2-phenyl-8,8a-dihydro-3aH-indeno[1,2-d][1,3]thiazol-3a-ol

> <TestSubstance_CASRN>
NOCAS_47338

> <TestSubstance_Description>
single chemical compound

> <STRUCTURE_ChemicalName_IUPAC>
6-chloro-2-phenyl-8,8a-dihydro-3aH-indeno[1,2-d][1,3]thiazol-3a-ol

> <STRUCTURE_SMILES>
ClC3=CC=C2C1(O)N=C(C4=CC=CC=C4)SC1CC2=C3

> <STRUCTURE_Parent_SMILES>
ClC3=CC=C2C1(O)N=C(C4=CC=CC=C4)SC1CC2=C3

> <STRUCTURE_InChIS>
InChI=1S/C16H12ClNOS/c17-12-6-7-13-11(8-12)9-14-16(13,19)18-15(20-14)10-4-2-1-3-5-10/h1-8,14,19H,9H2

> <STRUCTURE_InChIKey>
RUBKYBIDEVUTQU-UHFFFAOYSA-N

> <Substance_modify_yyyymmdd>
20100531

> <Coord_Metals>
0

> <Index>
903

> <Canonical_Smiles>
OC12N=C(SC1Cc3cc(Cl)ccc23)c4ccccc4

> <Molecular_Weight>
301.79058

> <Frequency>
1

$$$$

  SciTegic          2D

 80 84  0  0  0  0            999 V2000
    1.2990   -0.7500    0.0000 C   0  0
    1.2990    0.7500    0.0000 N   0  0
    0.0000   -1.5000    0.0000 C   0  0
    0.0000    1.5000    0.0000 C   0  0
   -1.2990   -0.7500    0.0000 O   0  0
   -1.2990    0.7500    0.0000 C   0  0
    2.5972    1.5031    0.0000 C   0  0
    3.6375    0.9049    0.0000 O   0  0
    2.5951    3.0039    0.0000 C   0  0
    3.8915    3.7585    0.0000 C   0  0
    1.2934    3.7495    0.0000 C   0  0
    3.8863    5.2585    0.0000 C   0  0
    1.2883    5.2495    0.0000 C   0  0
    2.5847    6.0040    0.0000 C   0  0
    0.9794   -2.6107    0.0000 C   0  0
    2.4497   -2.3141    0.0000 C   0  0
    0.5010   -4.0324    0.0000 C   0  0
    3.4418   -3.4392    0.0000 C   0  0
    1.4931   -5.1575    0.0000 C   0  0
    2.9634   -4.8609    0.0000 C   0  0
   -1.2999   -2.2084    0.0000 C   0  0
   -2.6000   -1.4586    0.0000 C   0  0
   -3.8999   -2.2087    0.0000 N   0  0
   -3.9002   -3.7087    0.0000 C   0  0
   -5.1988   -1.4584    0.0000 C   0  0
   -5.1994   -4.4584    0.0000 C   0  0
   -6.4980   -2.2082    0.0000 C   0  0
   -6.4983   -3.7082    0.0000 C   0  0
   -6.9705   -5.1113    0.0000 N   0  0
   -7.9498   -3.4151    0.0000 C   0  0
   -8.9421   -4.5400    0.0000 C   0  0
   -8.4278   -1.9933    0.0000 C   0  0
  -10.4124   -4.2431    0.0000 C   0  0
   -9.8982   -1.6964    0.0000 C   0  0
  -10.8904   -2.8213    0.0000 C   0  0
   -6.0065   -6.2616    0.0000 C   0  0
   -6.5198   -7.6719    0.0000 N   0  0
   -5.0217   -6.0882    0.0000 O   0  0
    3.7571   -5.7610    0.0000 F   0  0
    1.1104   -6.2948    0.0000 F   0  0
   -5.5559   -8.8222    0.0000 C   0  0
   -7.9985   -7.9290    0.0000 C   0  0
    1.2754   -1.7497    0.0000 H   0  0
    2.1531   -0.2298    0.0000 H   0  0
   -0.8776    1.9794    0.0000 H   0  0
    0.8775    1.9795    0.0000 H   0  0
   -0.4451    0.2297    0.0000 H   0  0
   -2.1531    0.2298    0.0000 H   0  0
    4.7593    3.2615    0.0000 H   0  0
    0.4291    3.2465    0.0000 H   0  0
    4.7506    5.7615    0.0000 H   0  0
    0.4205    5.7465    0.0000 H   0  0
    2.5812    7.0040    0.0000 H   0  0
    2.7686   -1.3663    0.0000 H   0  0
   -0.4792   -4.2301    0.0000 H   0  0
    4.4220   -3.2415    0.0000 H   0  0
   -2.1658   -2.7087    0.0000 H   0  0
   -1.2998   -3.2084    0.0000 H   0  0
   -3.4660   -0.9585    0.0000 H   0  0
   -2.6001   -0.4586    0.0000 H   0  0
   -3.9240   -4.7084    0.0000 H   0  0
   -3.0461   -3.1887    0.0000 H   0  0
   -6.0763   -0.9788    0.0000 H   0  0
   -4.3212   -0.9791    0.0000 H   0  0
   -5.2228   -3.4587    0.0000 H   0  0
   -6.0770   -4.9378    0.0000 H   0  0
   -7.3521   -2.7283    0.0000 H   0  0
   -5.6440   -2.7285    0.0000 H   0  0
   -7.9554   -5.2846    0.0000 H   0  0
   -8.6234   -5.4878    0.0000 H   0  0
   -7.7663   -1.2434    0.0000 H   0  0
  -11.0739   -4.9930    0.0000 H   0  0
  -10.2168   -0.7485    0.0000 H   0  0
  -11.8707   -2.6233    0.0000 H   0  0
   -5.8979   -9.7619    0.0000 H   0  0
   -4.5710   -8.6489    0.0000 H   0  0
   -4.9132   -9.5884    0.0000 H   0  0
   -8.6399   -7.1618    0.0000 H   0  0
   -8.3424   -8.8680    0.0000 H   0  0
   -8.9836   -8.1008    0.0000 H   0  0
  1  2  1  0
  1  3  1  0
  2  4  1  0
  2  7  1  0
  3  5  1  0
  3 15  1  0
  3 21  1  0
  4  6  1  0
  5  6  1  0
  7  8  2  0
  7  9  1  0
  9 10  1  0
  9 11  2  0
 10 12  2  0
 11 13  1  0
 12 14  1  0
 13 14  2  0
 15 16  1  0
 15 17  2  0
 16 18  2  0
 17 19  1  0
 18 20  1  0
 19 20  2  0
 19 40  1  0
 20 39  1  0
 21 22  1  0
 22 23  1  0
 23 24  1  0
 23 25  1  0
 24 26  1  0
 25 27  1  0
 26 28  1  0
 27 28  1  0
 28 29  1  0
 28 30  1  0
 29 36  1  0
 30 31  1  0
 30 32  2  0
 31 33  2  0
 32 34  1  0
 33 35  1  0
 34 35  2  0
 36 37  1  0
 36 38  2  0
 37 41  1  0
 37 42  1  0
  1 43  1  0
  1 44  1  0
  4 45  1  0
  4 46  1  0
  6 47  1  0
  6 48  1  0
 10 49  1  0
 11 50  1  0
 12 51  1  0
 13 52  1  0
 14 53  1  0
 16 54  1  0
 17 55  1  0
 18 56  1  0
 21 57  1  0
 21 58  1  0
 22 59  1  0
 22 60  1  0
 24 61  1  0
 24 62  1  0
 25 63  1  0
 25 64  1  0
 26 65  1  0
 26 66  1  0
 27 67  1  0
 27 68  1  0
 29 69  1  0
 31 70  1  0
 32 71  1  0
 33 72  1  0
 34 73  1  0
 35 74  1  0
 41 75  1  0
 41 76  1  0
 41 77  1  0
 42 78  1  0
 42 79  1  0
 42 80  1  0
V    1 0
V    2 1
V    3 2
V    4 3
V    5 4
V    6 5
V    7 6
V    8 7
V    9 8
V   10 9
V   11 10
V   12 11
V   13 12
V   14 13
V   15 14
V   16 15
V   17 16
V   18 17
V   19 18
V   20 19
V   21 20
V   22 21
V   23 22
V   24 23
V   25 24
V   26 25
V   27 26
V   28 27
V   29 28
V   30 29
V   31 30
V   32 31
V   33 32
V   34 33
V   35 34
V   36 35
V   37 36
V   38 37
V   39 38
V   40 39
V   41 40
V   42 41
M  END
> <DSSTox_RID>
66286

> <DSSTox_CID>
27339

> <DSSTox_CID_Parent>
27340

> <DSSTox_Generic_SID>
47339

> <DSSTox_FileID>
904_TXCST2_v1a

> <STRUCTURE_Formula>
C33H39ClF2N4O3

> <STRUCTURE_MolecularWeight>
613.1376

> <STRUCTURE_ChemicalType>
defined organic

> <STRUCTURE_TestedForm_DefinedOrganic>
parent

> <STRUCTURE_Shown>
tested chemical

> <TestSubstance_ChemicalName>
3-(1-{2-[(2R)-4-benzoyl-2-(3,4-difluorophenyl)morpholin-2-yl]ethyl}-4-phenylpiperidin-4-yl)-1,1-dimethylurea hydrochloride (1:1)

> <TestSubstance_CASRN>
181640-09-5

> <TestSubstance_Description>
single chemical compound

> <ChemicalNote>
stereochem

> <STRUCTURE_ChemicalName_IUPAC>
3-(1-{2-[(2R)-4-benzoyl-2-(3,4-difluorophenyl)morpholin-2-yl]ethyl}-4-phenylpiperidin-4-yl)-1,1-dimethylurea hydrochloride (1:1)

> <STRUCTURE_SMILES>
O=C(C2=CC=CC=C2)N1C[C@]([C@]3=CC(F)=C(F)C=C3)(CCN4CCC(NC(N(C)C)=O)(C5=CC=CC=C5)CC4)OCC1.Cl

> <STRUCTURE_Parent_SMILES>
O=C(C2=CC=CC=C2)N1C[C@]([C@]3=CC(F)=C(F)C=C3)(CCN4CCC(NC(N(C)C)=O)(C5=CC=CC=C5)CC4)OCC1

> <STRUCTURE_InChIS>
InChI=1S/C33H38F2N4O3.ClH/c1-37(2)31(41)36-32(26-11-7-4-8-12-26)15-18-38(19-16-32)20-17-33(27-13-14-28(34)29(35)23-27)24-39(21-22-42-33)30(40)25-9-5-3-6-10-25;/h3-14,23H,15-22,24H2,1-2H3,(H,36,41);1H/
t33-;/m0./s1

> <STRUCTURE_InChIKey>
CUYCXSCEWNTJEZ-WAQYZQTGSA-N

> <Substance_modify_yyyymmdd>
20100531

> <Coord_Metals>
0

> <Index>
904

> <Canonical_Smiles>
CN(C)C(=O)NC1(CCN(CCC2(CN(CCO2)C(=O)c3ccccc3)c4ccc(F)c(F)c4)CC1)c5ccccc5

> <Molecular_Weight>
576.67662

> <Frequency>
1

$$$$

  SciTegic          2D

 85 89  0  0  0  0            999 V2000
    1.2990   -0.7500    0.0000 C   0  0
    1.2990    0.7500    0.0000 C   0  0
    0.0000   -1.5000    0.0000 C   0  0
    0.0000    1.5000    0.0000 C   0  0
   -1.2990   -0.7500    0.0000 C   0  0
   -1.2990    0.7500    0.0000 N   0  0
   -2.6003    1.4977    0.0000 C   0  0
   -3.6381    0.8953    0.0000 O   0  0
   -2.6044    2.9986    0.0000 C   0  0
   -3.9039    3.7478    0.0000 C   0  0
   -1.3058    3.7495    0.0000 C   0  0
   -3.9049    5.2478    0.0000 C   0  0
   -1.3068    5.2495    0.0000 C   0  0
   -2.6064    5.9986    0.0000 C   0  0
   -0.9793   -2.6107    0.0000 C   0  0
   -2.4497   -2.3141    0.0000 C   0  0
   -0.5010   -4.0324    0.0000 C   0  0
   -3.4418   -3.4392    0.0000 C   0  0
   -1.4930   -5.1575    0.0000 C   0  0
   -2.9634   -4.8609    0.0000 C   0  0
    1.4638   -1.7211    0.0000 C   0  0
    2.0466   -3.1042    0.0000 C   0  0
    3.5356   -3.2920    0.0000 C   0  0
    4.1183   -4.6751    0.0000 N   0  0
    5.6066   -4.8619    0.0000 C   0  0
    3.2124   -5.8706    0.0000 C   0  0
    6.1890   -6.2442    0.0000 C   0  0
    3.7948   -7.2530    0.0000 C   0  0
    5.2831   -7.4397    0.0000 C   0  0
    4.8118   -8.8435    0.0000 C   0  0
    3.3416   -9.1411    0.0000 C   0  0
    5.8046   -9.9680    0.0000 C   0  0
    2.8642  -10.5631    0.0000 C   0  0
    5.3272  -11.3900    0.0000 C   0  0
    3.8570  -11.6876    0.0000 C   0  0
    6.6166   -8.0827    0.0000 N   0  0
    7.8778   -7.2692    0.0000 C   0  0
    9.2134   -7.9539    0.0000 N   0  0
    7.8283   -6.2705    0.0000 O   0  0
   10.4746   -7.1404    0.0000 C   0  0
    9.2847   -9.4531    0.0000 C   0  0
   -3.7571   -5.7610    0.0000 Cl  0  0
   -1.1741   -6.1053    0.0000 Cl  0  0
    2.1530   -0.2297    0.0000 H   0  0
    0.4450   -0.2298    0.0000 H   0  0
    2.1530    0.2297    0.0000 H   0  0
    1.2755    1.7497    0.0000 H   0  0
   -0.0236    0.5003    0.0000 H   0  0
   -0.8775    1.9795    0.0000 H   0  0
   -1.2754   -1.7497    0.0000 H   0  0
   -2.1531   -0.2298    0.0000 H   0  0
   -4.7696    3.2472    0.0000 H   0  0
   -0.4395    3.2501    0.0000 H   0  0
   -4.7712    5.7472    0.0000 H   0  0
   -0.4411    5.7501    0.0000 H   0  0
   -2.6070    6.9986    0.0000 H   0  0
   -2.7686   -1.3663    0.0000 H   0  0
    0.4793   -4.2301    0.0000 H   0  0
   -4.4220   -3.2415    0.0000 H   0  0
    2.4560   -1.8458    0.0000 H   0  0
    2.0680   -0.9243    0.0000 H   0  0
    1.0544   -2.9795    0.0000 H   0  0
    1.4423   -3.9010    0.0000 H   0  0
    4.5278   -3.4167    0.0000 H   0  0
    4.1398   -2.4952    0.0000 H   0  0
    6.5956   -5.0098    0.0000 H   0  0
    5.1968   -3.9497    0.0000 H   0  0
    2.6274   -6.6817    0.0000 H   0  0
    2.8458   -4.9402    0.0000 H   0  0
    5.1941   -6.1431    0.0000 H   0  0
    6.5555   -7.1746    0.0000 H   0  0
    4.2047   -8.1651    0.0000 H   0  0
    4.4173   -6.4703    0.0000 H   0  0
    2.6797   -8.3915    0.0000 H   0  0
    6.7847   -9.7696    0.0000 H   0  0
    1.8841  -10.7615    0.0000 H   0  0
    5.9891  -12.1396    0.0000 H   0  0
    3.5388  -12.6356    0.0000 H   0  0
    6.6661   -9.0815    0.0000 H   0  0
   11.3645   -7.5966    0.0000 H   0  0
   10.4251   -6.1416    0.0000 H   0  0
   11.3147   -6.5980    0.0000 H   0  0
    8.4437   -9.9942    0.0000 H   0  0
   10.1736   -9.9111    0.0000 H   0  0
    9.3326  -10.4519    0.0000 H   0  0
  1  2  1  0
  1  3  1  0
  2  4  1  0
  3  5  1  0
  3 15  1  0
  3 21  1  0
  4  6  1  0
  5  6  1  0
  6  7  1  0
  7  8  2  0
  7  9  1  0
  9 10  1  0
  9 11  2  0
 10 12  2  0
 11 13  1  0
 12 14  1  0
 13 14  2  0
 15 16  1  0
 15 17  2  0
 16 18  2  0
 17 19  1  0
 18 20  1  0
 19 20  2  0
 19 43  1  0
 20 42  1  0
 21 22  1  0
 22 23  1  0
 23 24  1  0
 24 25  1  0
 24 26  1  0
 25 27  1  0
 26 28  1  0
 27 29  1  0
 28 29  1  0
 29 30  1  0
 29 36  1  0
 30 31  1  0
 30 32  2  0
 31 33  2  0
 32 34  1  0
 33 35  1  0
 34 35  2  0
 36 37  1  0
 37 38  1  0
 37 39  2  0
 38 40  1  0
 38 41  1  0
  1 44  1  0
  1 45  1  0
  2 46  1  0
  2 47  1  0
  4 48  1  0
  4 49  1  0
  5 50  1  0
  5 51  1  0
 10 52  1  0
 11 53  1  0
 12 54  1  0
 13 55  1  0
 14 56  1  0
 16 57  1  0
 17 58  1  0
 18 59  1  0
 21 60  1  0
 21 61  1  0
 22 62  1  0
 22 63  1  0
 23 64  1  0
 23 65  1  0
 25 66  1  0
 25 67  1  0
 26 68  1  0
 26 69  1  0
 27 70  1  0
 27 71  1  0
 28 72  1  0
 28 73  1  0
 31 74  1  0
 32 75  1  0
 33 76  1  0
 34 77  1  0
 35 78  1  0
 36 79  1  0
 40 80  1  0
 40 81  1  0
 40 82  1  0
 41 83  1  0
 41 84  1  0
 41 85  1  0
V    1 0
V    2 1
V    3 2
V    4 3
V    5 4
V    6 5
V    7 6
V    8 7
V    9 8
V   10 9
V   11 10
V   12 11
V   13 12
V   14 13
V   15 14
V   16 15
V   17 16
V   18 17
V   19 18
V   20 19
V   21 20
V   22 21
V   23 22
V   24 23
V   25 24
V   26 25
V   27 26
V   28 27
V   29 28
V   30 29
V   31 30
V   32 31
V   33 32
V   34 33
V   35 34
V   36 35
V   37 36
V   38 37
V   39 38
V   40 39
V   41 40
V   42 41
V   43 42
M  END
> <DSSTox_RID>
66287

> <DSSTox_CID>
27341

> <DSSTox_CID_Parent>
27341

> <DSSTox_Generic_SID>
47341

> <DSSTox_FileID>
905_TXCST2_v1a

> <STRUCTURE_Formula>
C35H42Cl2N4O2

> <STRUCTURE_MolecularWeight>
621.6396

> <STRUCTURE_ChemicalType>
defined organic

> <STRUCTURE_TestedForm_DefinedOrganic>
parent

> <STRUCTURE_Shown>
tested chemical

> <TestSubstance_ChemicalName>
3-(1-{3-[(3S)-1-benzoyl-3-(3,4-dichlorophenyl)piperidin-3-yl]propyl}-4-phenylpiperidin-4-yl)-1,1-dimethylurea

> <TestSubstance_CASRN>
264618-44-2

> <TestSubstance_Description>
single chemical compound

> <ChemicalNote>
stereochem

> <STRUCTURE_ChemicalName_IUPAC>
3-(1-{3-[(3S)-1-benzoyl-3-(3,4-dichlorophenyl)piperidin-3-yl]propyl}-4-phenylpiperidin-4-yl)-1,1-dimethylurea

> <STRUCTURE_SMILES>
O=C(C2=CC=CC=C2)N1CCC[C@](C3=CC(Cl)=C(Cl)C=C3)(CCCN4CCC(C5=CC=CC=C5)(NC(N(C)C)=O)CC4)C1

> <STRUCTURE_Parent_SMILES>
O=C(C2=CC=CC=C2)N1CCC[C@](C3=CC(Cl)=C(Cl)C=C3)(CCCN4CCC(C5=CC=CC=C5)(NC(N(C)C)=O)CC4)C1

> <STRUCTURE_InChIS>
InChI=1S/C35H42Cl2N4O2/c1-39(2)33(43)38-35(28-13-7-4-8-14-28)19-23-40(24-20-35)21-9-17-34(29-15-16-30(36)31(37)25-29)18-10-22-41(26-34)32(42)27-11-5-3-6-12-27/h3-8,11-16,25H,9-10,17-24,26H2,1-2H3,(H,3
8,43)/t34-/m1/s1

> <STRUCTURE_InChIKey>
XWPBINGFFFZAOZ-UUWRZZSWSA-N

> <Substance_modify_yyyymmdd>
20100601

> <Coord_Metals>
0

> <Index>
905

> <Canonical_Smiles>
CN(C)C(=O)NC1(CCN(CCCC2(CCCN(C2)C(=O)c3ccccc3)c4ccc(Cl)c(Cl)c4)CC1)c5ccccc5

> <Molecular_Weight>
621.63957

> <Frequency>
1

$$$$

  SciTegic          2D

 51 53  0  0  0  0            999 V2000
    1.6852   -0.3846    0.0000 C   0  0
    1.3514    1.0778    0.0000 C   0  0
    0.7500   -1.5574    0.0000 C   0  0
    0.0000    1.7286    0.0000 C   0  0
   -0.7500   -1.5574    0.0000 C   0  0
   -1.6852   -0.3847    0.0000 N   0  0
   -1.3515    1.0777    0.0000 C   0  0
   -3.1503   -0.7191    0.0000 C   0  0
   -3.5936   -2.1529    0.0000 C   0  0
   -5.0568   -2.4869    0.0000 C   0  0
   -5.5001   -3.9208    0.0000 C   0  0
   -6.9620   -4.2567    0.0000 C   0  0
   -4.4783   -5.0190    0.0000 C   0  0
   -7.4021   -5.6907    0.0000 C   0  0
   -4.9184   -6.4530    0.0000 C   0  0
   -6.3803   -6.7888    0.0000 C   0  0
   -6.8207   -8.2235    0.0000 C   0  0
   -8.2821   -8.5618    0.0000 C   0  0
   -5.7972   -9.3201    0.0000 C   0  0
   -8.7199   -9.9965    0.0000 C   0  0
   -6.2350  -10.7548    0.0000 C   0  0
   -7.6964  -11.0930    0.0000 C   0  0
   -4.1010   -7.3315    0.0000 Cl  0  0
   -5.2131  -11.8541    0.0000 O   0  0
   -5.6533  -13.2889    0.0000 C   0  0
    2.3430    0.3686    0.0000 H   0  0
    1.9511   -1.3486    0.0000 H   0  0
    2.2709    0.6845    0.0000 H   0  0
    1.1728    2.0617    0.0000 H   0  0
    0.1620   -2.3663    0.0000 H   0  0
    1.7490   -1.6021    0.0000 H   0  0
   -0.0301    0.7290    0.0000 H   0  0
   -0.8807    2.2023    0.0000 H   0  0
   -0.1620   -2.3663    0.0000 H   0  0
   -1.7490   -1.6021    0.0000 H   0  0
   -0.5888    0.4310    0.0000 H   0  0
   -2.2709    0.6846    0.0000 H   0  0
   -3.8303    0.0142    0.0000 H   0  0
   -4.1254   -0.9411    0.0000 H   0  0
   -2.9137   -2.8862    0.0000 H   0  0
   -5.7367   -1.7536    0.0000 H   0  0
   -7.6432   -3.5246    0.0000 H   0  0
   -3.5037   -4.7951    0.0000 H   0  0
   -8.3767   -5.9146    0.0000 H   0  0
   -8.9645   -7.8308    0.0000 H   0  0
   -4.8229   -9.0947    0.0000 H   0  0
   -9.6942  -10.2219    0.0000 H   0  0
   -7.9883  -12.0494    0.0000 H   0  0
   -4.9724  -14.0213    0.0000 H   0  0
   -6.6279  -13.5126    0.0000 H   0  0
   -5.9470  -14.2448    0.0000 H   0  0
  1  2  1  0
  1  3  1  0
  2  4  1  0
  3  5  1  0
  4  7  1  0
  5  6  1  0
  6  7  1  0
  6  8  1  0
  9  8  1  0
  9 10  2  0
 10 11  1  0
 11 12  1  0
 11 13  2  0
 12 14  2  0
 13 15  1  0
 14 16  1  0
 15 16  2  0
 15 23  1  0
 16 17  1  0
 17 18  1  0
 17 19  2  0
 18 20  2  0
 19 21  1  0
 20 22  1  0
 21 22  2  0
 21 24  1  0
 24 25  1  0
  1 26  1  0
  1 27  1  0
  2 28  1  0
  2 29  1  0
  3 30  1  0
  3 31  1  0
  4 32  1  0
  4 33  1  0
  5 34  1  0
  5 35  1  0
  7 36  1  0
  7 37  1  0
  8 38  1  0
  8 39  1  0
  9 40  1  0
 10 41  1  0
 12 42  1  0
 13 43  1  0
 14 44  1  0
 18 45  1  0
 19 46  1  0
 20 47  1  0
 22 48  1  0
 25 49  1  0
 25 50  1  0
 25 51  1  0
V    1 0
V    2 1
V    3 2
V    4 3
V    5 4
V    6 5
V    7 6
V    8 7
V    9 8
V   10 9
V   11 10
V   12 11
V   13 12
V   14 13
V   15 14
V   16 15
V   17 16
V   18 17
V   19 18
V   20 19
V   21 20
V   22 21
V   23 22
V   24 23
V   25 24
M  END
> <DSSTox_RID>
66289

> <DSSTox_CID>
27342

> <DSSTox_CID_Parent>
27343

> <DSSTox_Generic_SID>
47342

> <DSSTox_FileID>
906_TXCST2_v1a

> <STRUCTURE_Formula>
C22H27Cl2NO

> <STRUCTURE_MolecularWeight>
392.3619

> <STRUCTURE_ChemicalType>
defined organic

> <STRUCTURE_TestedForm_DefinedOrganic>
complex HCl

> <STRUCTURE_Shown>
tested chemical

> <TestSubstance_ChemicalName>
1-[(2Z)-3-(2-chloro-3'-methoxybiphenyl-4-yl)prop-2-en-1-yl]azepane hydrochloride (1:1)

> <TestSubstance_CASRN>
NOCAS_47342

> <TestSubstance_Description>
single chemical compound

> <ChemicalNote>
stereochem

> <STRUCTURE_ChemicalName_IUPAC>
1-[(2Z)-3-(2-chloro-3'-methoxybiphenyl-4-yl)prop-2-en-1-yl]azepane hydrochloride (1:1)

> <STRUCTURE_SMILES>
ClC1=C(C3=CC(OC)=CC=C3)C=CC(/C=C\CN2CCCCCC2)=C1.Cl

> <STRUCTURE_Parent_SMILES>
ClC1=C(C3=CC(OC)=CC=C3)C=CC(/C=C\CN2CCCCCC2)=C1

> <STRUCTURE_InChIS>
InChI=1S/C22H26ClNO.ClH/c1-25-20-10-6-9-19(17-20)21-12-11-18(16-22(21)23)8-7-15-24-13-4-2-3-5-14-24;/h6-12,16-17H,2-5,13-15H2,1H3;1H/b8-7-;

> <STRUCTURE_InChIKey>
PUFYTIICXQIWOC-CFYXSCKTSA-N

> <Substance_modify_yyyymmdd>
20100601

> <Coord_Metals>
0

> <Index>
906

> <Canonical_Smiles>
COc1cccc(c1)c2ccc(C=CCN3CCCCCC3)cc2Cl

> <Molecular_Weight>
355.90094

> <Frequency>
1

$$$$

  SciTegic          2D

 36 36  0  0  0  0            999 V2000
    1.2990   -0.7500    0.0000 C   0  0
    1.2990    0.7500    0.0000 C   0  0
    0.0000   -1.5000    0.0000 C   0  0
    0.0000    1.5000    0.0000 C   0  0
   -1.2990   -0.7500    0.0000 C   0  0
   -1.2990    0.7500    0.0000 C   0  0
   -2.5988    1.5004    0.0000 C   0  0
   -2.5998    3.0012    0.0000 C   0  0
   -3.8982    0.7496    0.0000 C   0  0
    0.0000    3.0008    0.0000 S   0  0
    1.2993    3.7521    0.0000 C   0  0
   -1.0394    3.6005    0.0000 O   0  0
   -1.0391    2.4007    0.0000 O   0  0
    2.5973   -1.5031    0.0000 C   0  0
    3.6375   -0.9049    0.0000 O   0  0
    2.5951   -3.0039    0.0000 N   0  0
    3.8933   -3.7570    0.0000 C   0  0
    3.8912   -5.2578    0.0000 N   0  0
    5.1929   -3.0062    0.0000 N   0  0
    2.1651    1.2500    0.0000 H   0  0
    0.0000   -2.5000    0.0000 H   0  0
   -2.1651   -1.2500    0.0000 H   0  0
   -1.7329    2.0007    0.0000 H   0  0
   -3.4658    3.5012    0.0000 H   0  0
   -1.7339    3.5015    0.0000 H   0  0
   -2.5999    4.0012    0.0000 H   0  0
   -4.7647    1.2488    0.0000 H   0  0
   -3.8976   -0.2504    0.0000 H   0  0
   -4.7639    0.2489    0.0000 H   0  0
    1.2993    4.7521    0.0000 H   0  0
    2.1654    3.2523    0.0000 H   0  0
    2.1652    4.2522    0.0000 H   0  0
    4.7562   -5.7596    0.0000 H   0  0
    3.0243   -5.7563    0.0000 H   0  0
    5.1932   -2.0062    0.0000 H   0  0
    6.0589   -3.5062    0.0000 H   0  0
  1  2  2  0
  1  3  1  0
  1 14  1  0
  2  4  1  0
  3  5  2  0
  4  6  2  0
  4 10  1  0
  5  6  1  0
  6  7  1  0
  7  8  1  0
  7  9  1  0
 10 11  1  0
 10 12  2  0
 10 13  2  0
 14 15  2  0
 14 16  1  0
 16 17  2  0
 17 18  1  0
 17 19  1  0
  2 20  1  0
  3 21  1  0
  5 22  1  0
  7 23  1  0
  8 24  1  0
  8 25  1  0
  8 26  1  0
  9 27  1  0
  9 28  1  0
  9 29  1  0
 11 30  1  0
 11 31  1  0
 11 32  1  0
 18 33  1  0
 18 34  1  0
 19 35  1  0
 19 36  1  0
V    1 0
V    2 1
V    3 2
V    4 3
V    5 4
V    6 5
V    7 6
V    8 7
V    9 8
V   10 9
V   11 10
V   12 11
V   13 12
V   14 13
V   15 14
V   16 15
V   17 16
V   18 17
V   19 18
M  END
> <DSSTox_RID>
66291

> <DSSTox_CID>
27344

> <DSSTox_CID_Parent>
27345

> <DSSTox_Generic_SID>
47344

> <DSSTox_FileID>
907_TXCST2_v1a

> <STRUCTURE_Formula>
C13H21N3O6S2

> <STRUCTURE_MolecularWeight>
379.4523

> <STRUCTURE_ChemicalType>
defined organic

> <STRUCTURE_TestedForm_DefinedOrganic>
complex methanesulfonate

> <STRUCTURE_Shown>
tested chemical

> <TestSubstance_ChemicalName>
Cariporide mesylate (HOE642)

> <TestSubstance_CASRN>
159138-81-5

> <TestSubstance_Description>
single chemical compound

> <STRUCTURE_ChemicalName_IUPAC>
N-(diaminomethylidene)-3-(methylsulfonyl)-4-(propan-2-yl)benzamide methanesulfonate (1:1)

> <STRUCTURE_SMILES>
O=S(C1=CC(C(/N=C(N)/N)=O)=CC=C1C(C)C)(C)=O.O=S(O)(C)=O

> <STRUCTURE_Parent_SMILES>
O=S(C1=CC(C(/N=C(N)/N)=O)=CC=C1C(C)C)(C)=O

> <STRUCTURE_InChIS>
InChI=1S/C12H17N3O3S.CH4O3S/c1-7(2)9-5-4-8(11(16)15-12(13)14)6-10(9)19(3,17)18;1-5(2,3)4/h4-7H,1-3H3,(H4,13,14,15,16);1H3,(H,2,3,4)

> <STRUCTURE_InChIKey>
FNDLQABGYJQJPH-UHFFFAOYSA-N

> <Substance_modify_yyyymmdd>
20100601

> <Coord_Metals>
0

> <Index>
907

> <Canonical_Smiles>
CC(C)c1ccc(cc1S(=O)(=O)C)C(=O)N=C(N)N

> <Molecular_Weight>
283.34668

> <Frequency>
1

$$$$

  SciTegic          2D

 49 52  0  0  0  0            999 V2000
   -3.0274   -1.2154    0.0000 C   0  0
   -2.5691   -3.5651    0.0000 C   0  0
   -2.8635   -2.3577    0.0000 C   0  0
   -2.0648   -0.7579    0.0000 C   0  0
   -3.2730    0.1308    0.0000 N   0  0
   -3.7935   -2.6683    0.0000 C   0  0
   -0.4412   -0.4877    0.0000 C   0  0
   -1.5750   -1.2064    0.0000 C   0  0
   -4.0683    1.4034    0.0000 C   0  0
   -3.9809    2.8783    0.0000 N   0  0
   -5.4140    0.7112    0.0000 N   0  0
   -5.2321    3.7057    0.0000 C   0  0
   -6.6652    1.5386    0.0000 C   0  0
   -6.5742    3.0359    0.0000 C   0  0
   -1.0539   -3.4929    0.0000 N   0  0
   -0.2645   -4.7693    0.0000 C   0  0
    1.2356   -4.7248    0.0000 C   0  0
    1.8042   -3.6681    0.0000 O   0  0
    2.0250   -6.0013    0.0000 N   0  0
    1.4480   -7.3720    0.0000 C   0  0
    3.5096   -6.0912    0.0000 C   0  0
    2.5946   -8.3392    0.0000 C   0  0
    3.8687   -7.5476    0.0000 C   0  0
    1.5070   -8.8462    0.0000 F   0  0
    3.5976   -8.9980    0.0000 F   0  0
    2.9758   -4.7025    0.0000 C   0  0
    2.6315   -3.7637    0.0000 N   0  0
   -2.5468   -0.3385    0.0000 H   0  0
   -2.9953   -4.4697    0.0000 H   0  0
   -3.2275   -1.4263    0.0000 H   0  0
   -3.4252   -3.1850    0.0000 H   0  0
   -1.6654    0.1589    0.0000 H   0  0
   -4.4690   -1.9309    0.0000 H   0  0
   -4.0780   -3.6270    0.0000 H   0  0
   -0.2611    0.4959    0.0000 H   0  0
    0.3491   -1.1004    0.0000 H   0  0
   -2.2976   -1.8977    0.0000 H   0  0
   -0.5934   -1.3973    0.0000 H   0  0
   -5.1715    4.7039    0.0000 H   0  0
   -7.5599    1.0921    0.0000 H   0  0
   -7.4083    3.5875    0.0000 H   0  0
   -0.5801   -2.6123    0.0000 H   0  0
   -1.2641   -4.7994    0.0000 H   0  0
   -0.7384   -5.6499    0.0000 H   0  0
    1.1781   -8.3349    0.0000 H   0  0
    0.7700   -6.6370    0.0000 H   0  0
    4.4924   -6.2757    0.0000 H   0  0
    3.9905   -8.5402    0.0000 H   0  0
    4.6491   -6.9223    0.0000 H   0  0
  1  5  1  0
  1  6  1  0
  1  8  1  0
  2  3  1  0
  2  6  1  0
  2 15  1  0
  3  4  1  0
  4  5  1  0
  4  7  1  0
  5  9  1  0
  7  8  1  0
  9 10  2  0
  9 11  1  0
 10 12  1  0
 11 13  2  0
 12 14  2  0
 13 14  1  0
 15 16  1  0
 16 17  1  0
 17 18  2  0
 17 19  1  0
 19 20  1  0
 19 21  1  0
 20 22  1  0
 21 23  1  0
 21 26  1  0
 22 23  1  0
 22 24  1  0
 22 25  1  0
 26 27  3  0
  1 28  1  0
  2 29  1  0
  3 30  1  0
  3 31  1  0
  4 32  1  0
  6 33  1  0
  6 34  1  0
  7 35  1  0
  7 36  1  0
  8 37  1  0
  8 38  1  0
 12 39  1  0
 13 40  1  0
 14 41  1  0
 15 42  1  0
 16 43  1  0
 16 44  1  0
 20 45  1  0
 20 46  1  0
 21 47  1  0
 23 48  1  0
 23 49  1  0
V    1 0
V    2 1
V    3 2
V    4 3
V    5 4
V    6 5
V    7 6
V    8 7
V    9 8
V   10 9
V   11 10
V   12 11
V   13 12
V   14 13
V   15 14
V   16 15
V   17 16
V   18 17
V   19 18
V   20 19
V   21 20
V   22 21
V   23 22
V   24 23
V   25 24
V   26 25
V   27 26
M  END
> <DSSTox_RID>
66292

> <DSSTox_CID>
27346

> <DSSTox_CID_Parent>
27346

> <DSSTox_Generic_SID>
47346

> <DSSTox_FileID>
908_TXCST2_v1a

> <STRUCTURE_Formula>
C18H22F2N6O

> <STRUCTURE_MolecularWeight>
376.4037

> <STRUCTURE_ChemicalType>
defined organic

> <STRUCTURE_TestedForm_DefinedOrganic>
parent

> <STRUCTURE_Shown>
tested chemical

> <TestSubstance_ChemicalName>
(2S)-4,4-difluoro-1-{N-[8-(pyrimidin-2-yl)-8-azabicyclo[3.2.1]oct-3-yl]glycyl}pyrrolidine-2-carbonitrile

> <TestSubstance_CASRN>
NOCAS_47346

> <TestSubstance_Description>
single chemical compound

> <ChemicalNote>
stereochem

> <STRUCTURE_ChemicalName_IUPAC>
(2S)-4,4-difluoro-1-{N-[8-(pyrimidin-2-yl)-8-azabicyclo[3.2.1]oct-3-yl]glycyl}pyrrolidine-2-carbonitrile

> <STRUCTURE_SMILES>
O=C(N4CC(F)(F)C[C@H]4C#N)CNC1CC(CC2)N(C3=NC=CC=N3)C2C1

> <STRUCTURE_Parent_SMILES>
O=C(N4CC(F)(F)C[C@H]4C#N)CNC1CC(CC2)N(C3=NC=CC=N3)C2C1

> <STRUCTURE_InChIS>
InChI=1S/C18H22F2N6O/c19-18(20)8-15(9-21)25(11-18)16(27)10-24-12-6-13-2-3-14(7-12)26(13)17-22-4-1-5-23-17/h1,4-5,12-15,24H,2-3,6-8,10-11H2/t12?,13?,14?,15-/m0/s1

> <STRUCTURE_InChIKey>
FEUYWSUGGBUMAB-BOADVZGGSA-N

> <Substance_modify_yyyymmdd>
20100601

> <Coord_Metals>
0

> <Index>
908

> <Canonical_Smiles>
FC1(F)CC(C#N)N(C1)C(=O)CNC2CC3CCC(C2)N3c4ncccn4

> <Molecular_Weight>
376.40368

> <Frequency>
1

$$$$

  SciTegic          2D

 56 58  0  0  0  0            999 V2000
   -1.2989    0.7501    0.0000 C   0  0
   -1.2989   -0.7501    0.0000 C   0  0
   -2.5978    1.5002    0.0000 C   0  0
   -2.5978   -1.5002    0.0000 C   0  0
   -3.8968    0.7501    0.0000 C   0  0
   -3.8968   -0.7501    0.0000 C   0  0
    0.0000    1.5002    0.0000 C   0  0
    1.2806    0.7501    0.0000 C   0  0
    0.0000   -1.5002    0.0000 S   0  0
    1.2806   -0.7501    0.0000 C   0  0
    2.5978    1.5002    0.0000 C   0  0
    3.8968    0.7501    0.0000 C   0  0
    2.5978   -1.5002    0.0000 C   0  0
    3.8968   -0.7501    0.0000 C   0  0
    0.0037    2.7002    0.0000 O   0  0
    5.1981    1.4978    0.0000 O   0  0
    6.4967    0.7456    0.0000 C   0  0
   -2.5978   -3.0010    0.0000 C   0  0
   -1.2986   -3.7522    0.0000 N   0  0
   -1.2986   -5.2530    0.0000 C   0  0
   -0.2597   -5.8537    0.0000 O   0  0
   -2.6009    3.0010    0.0000 N   0  0
   -3.9017    3.7496    0.0000 C   0  0
   -3.9048    5.2504    0.0000 C   0  0
   -5.2057    5.9989    0.0000 N   0  0
   -5.2087    7.4998    0.0000 C   0  0
   -6.5057    5.2489    0.0000 C   0  0
   -6.5096    8.2483    0.0000 C   0  0
   -7.8056    5.9989    0.0000 C   0  0
   -4.7628    1.2500    0.0000 H   0  0
   -4.7628   -1.2500    0.0000 H   0  0
    2.6009    2.5002    0.0000 H   0  0
    2.6009   -2.5002    0.0000 H   0  0
    4.7628   -1.2500    0.0000 H   0  0
    7.3638    1.2438    0.0000 H   0  0
    6.4950   -0.2544    0.0000 H   0  0
    7.3618    0.2439    0.0000 H   0  0
   -3.4640   -3.5007    0.0000 H   0  0
   -2.5983   -4.0010    0.0000 H   0  0
   -0.4324   -3.2525    0.0000 H   0  0
   -2.1647   -5.7528    0.0000 H   0  0
   -1.7358    3.5025    0.0000 H   0  0
   -4.7669    3.2480    0.0000 H   0  0
   -3.9002    2.7496    0.0000 H   0  0
   -3.0397    5.7519    0.0000 H   0  0
   -3.9064    6.2504    0.0000 H   0  0
   -4.3436    8.0013    0.0000 H   0  0
   -4.3418    7.0014    0.0000 H   0  0
   -6.5057    4.2489    0.0000 H   0  0
   -5.6397    4.7488    0.0000 H   0  0
   -6.5116    9.2483    0.0000 H   0  0
   -7.3747    7.7468    0.0000 H   0  0
   -7.3765    8.7467    0.0000 H   0  0
   -8.6718    5.4992    0.0000 H   0  0
   -7.8056    6.9989    0.0000 H   0  0
   -8.6716    6.4991    0.0000 H   0  0
  1  3  2  0
  1  7  1  0
  1  2  1  0
  2  4  2  0
  2  9  1  0
  3  5  1  0
  3 22  1  0
  4  6  1  0
  4 18  1  0
  5  6  2  0
  7  8  1  0
  7 15  2  0
  8 11  2  0
  8 10  1  0
  9 10  1  0
 10 13  2  0
 11 12  1  0
 12 14  2  0
 12 16  1  0
 13 14  1  0
 16 17  1  0
 18 19  1  0
 19 20  1  0
 20 21  2  0
 22 23  1  0
 23 24  1  0
 24 25  1  0
 25 26  1  0
 25 27  1  0
 26 28  1  0
 27 29  1  0
  5 30  1  0
  6 31  1  0
 11 32  1  0
 13 33  1  0
 14 34  1  0
 17 35  1  0
 17 36  1  0
 17 37  1  0
 18 38  1  0
 18 39  1  0
 19 40  1  0
 20 41  1  0
 22 42  1  0
 23 43  1  0
 23 44  1  0
 24 45  1  0
 24 46  1  0
 26 47  1  0
 26 48  1  0
 27 49  1  0
 27 50  1  0
 28 51  1  0
 28 52  1  0
 28 53  1  0
 29 54  1  0
 29 55  1  0
 29 56  1  0
V    1 0
V    2 1
V    3 2
V    4 3
V    5 4
V    6 5
V    7 6
V    8 7
V    9 8
V   10 9
V   11 10
V   12 11
V   13 12
V   14 13
V   15 14
V   16 15
V   17 16
V   18 17
V   19 18
V   20 19
V   21 20
V   22 21
V   23 22
V   24 23
V   25 24
V   26 25
V   27 26
V   28 27
V   29 28
M  END
> <DSSTox_RID>
66293

> <DSSTox_CID>
27347

> <DSSTox_CID_Parent>
27347

> <DSSTox_Generic_SID>
47347

> <DSSTox_FileID>
909_TXCST2_v1a

> <STRUCTURE_Formula>
C22H27N3O3S

> <STRUCTURE_MolecularWeight>
413.5331

> <STRUCTURE_ChemicalType>
defined organic

> <STRUCTURE_TestedForm_DefinedOrganic>
parent

> <STRUCTURE_Shown>
tested chemical

> <TestSubstance_ChemicalName>
N-[(1-{[2-(diethylamino)ethyl]amino}-7-methoxy-9-oxo-9H-thioxanthen-4-yl)methyl]formamide

> <TestSubstance_CASRN>
155990-20-8

> <TestSubstance_Description>
single chemical compound

> <STRUCTURE_ChemicalName_IUPAC>
N-[(1-{[2-(diethylamino)ethyl]amino}-7-methoxy-9-oxo-9H-thioxanthen-4-yl)methyl]formamide

> <STRUCTURE_SMILES>
O=C2C1=C(NCCN(CC)CC)C=CC(CNC=O)=C1SC3=C2C=C(OC)C=C3

> <STRUCTURE_Parent_SMILES>
O=C2C1=C(NCCN(CC)CC)C=CC(CNC=O)=C1SC3=C2C=C(OC)C=C3

> <STRUCTURE_InChIS>
InChI=1S/C22H27N3O3S/c1-4-25(5-2)11-10-24-18-8-6-15(13-23-14-26)22-20(18)21(27)17-12-16(28-3)7-9-19(17)29-22/h6-9,12,14,24H,4-5,10-11,13H2,1-3H3,(H,23,26)

> <STRUCTURE_InChIKey>
GWLFIMOOGVXSMZ-UHFFFAOYSA-N

> <Substance_modify_yyyymmdd>
20100601

> <Coord_Metals>
0

> <Index>
909

> <Canonical_Smiles>
CCN(CC)CCNc1ccc(CNC=O)c2Sc3ccc(OC)cc3C(=O)c12

> <Molecular_Weight>
413.53308

> <Frequency>
1

$$$$

  SciTegic          2D

 47 49  0  0  0  0            999 V2000
    2.5987   -1.5004    0.0000 C   0  0
    2.5997   -3.0011    0.0000 C   0  0
    3.8992   -3.7503    0.0000 C   0  0
    1.3011   -3.7519    0.0000 C   0  0
    3.9002   -5.2503    0.0000 C   0  0
    1.3021   -5.2519    0.0000 C   0  0
    2.6016   -6.0011    0.0000 C   0  0
    3.8982   -0.7495    0.0000 C   0  0
    2.5997   -0.0402    0.0000 N   0  0
    5.1978   -0.0419    0.0000 C   0  0
    2.6007    1.4598    0.0000 C   0  0
    5.1988    1.4581    0.0000 C   0  0
    3.9002    2.2089    0.0000 C   0  0
    1.2983   -0.7512    0.0000 N   0  0
   -0.0013   -1.5020    0.0000 C   0  0
   -1.3017   -0.7529    0.0000 C   0  0
   -2.6016   -1.5014    0.0000 C   0  0
   -1.3002    0.7472    0.0000 C   0  0
   -3.8999   -0.7500    0.0000 C   0  0
   -2.5984    1.4986    0.0000 C   0  0
   -3.8982    0.7500    0.0000 C   0  0
   -0.0005   -2.7020    0.0000 O   0  0
   -0.2603    1.3461    0.0000 Cl  0  0
   -2.5968    2.9994    0.0000 C   0  0
   -1.5573    3.5990    0.0000 F   0  0
   -3.6355    3.6002    0.0000 F   0  0
   -2.5960    4.1994    0.0000 F   0  0
    1.7331   -2.0011    0.0000 H   0  0
    4.7649   -3.2498    0.0000 H   0  0
    0.4348   -3.2525    0.0000 H   0  0
    4.7665   -5.7498    0.0000 H   0  0
    0.4364   -5.7525    0.0000 H   0  0
    2.6022   -7.0011    0.0000 H   0  0
    4.7634   -1.2510    0.0000 H   0  0
    1.7394   -0.5501    0.0000 H   0  0
    4.3500    0.4884    0.0000 H   0  0
    6.0589    0.4664    0.0000 H   0  0
    2.6250    2.4595    0.0000 H   0  0
    1.7463    0.9402    0.0000 H   0  0
    5.1758    2.4578    0.0000 H   0  0
    6.0525    0.9373    0.0000 H   0  0
    3.9232    1.2092    0.0000 H   0  0
    4.7781    2.6879    0.0000 H   0  0
    1.2976    0.2488    0.0000 H   0  0
   -2.6028   -2.5014    0.0000 H   0  0
   -4.7664   -1.2490    0.0000 H   0  0
   -4.7637    1.2510    0.0000 H   0  0
  1  2  1  0
  1  8  1  0
  1 14  1  0
  2  3  1  0
  2  4  2  0
  3  5  2  0
  4  6  1  0
  5  7  1  0
  6  7  2  0
  8  9  1  0
  8 10  1  0
  9 11  1  0
 10 12  1  0
 11 13  1  0
 12 13  1  0
 14 15  1  0
 15 16  1  0
 15 22  2  0
 16 17  1  0
 16 18  2  0
 17 19  2  0
 18 20  1  0
 18 23  1  0
 19 21  1  0
 20 21  2  0
 20 24  1  0
 24 25  1  0
 24 26  1  0
 24 27  1  0
  1 28  1  0
  3 29  1  0
  4 30  1  0
  5 31  1  0
  6 32  1  0
  7 33  1  0
  8 34  1  0
  9 35  1  0
 10 36  1  0
 10 37  1  0
 11 38  1  0
 11 39  1  0
 12 40  1  0
 12 41  1  0
 13 42  1  0
 13 43  1  0
 14 44  1  0
 17 45  1  0
 19 46  1  0
 21 47  1  0
V    1 0
V    2 1
V    3 2
V    4 3
V    5 4
V    6 5
V    7 6
V    8 7
V    9 8
V   10 9
V   11 10
V   12 11
V   13 12
V   14 13
V   15 14
V   16 15
V   17 16
V   18 17
V   19 18
V   20 19
V   21 20
V   22 21
V   23 22
V   24 23
V   25 24
V   26 25
V   27 26
M  END
> <DSSTox_RID>
66294

> <DSSTox_CID>
27348

> <DSSTox_CID_Parent>
27348

> <DSSTox_Generic_SID>
47348

> <DSSTox_FileID>
910_TXCST2_v1a

> <STRUCTURE_Formula>
C20H20ClF3N2O

> <STRUCTURE_MolecularWeight>
396.8338

> <STRUCTURE_ChemicalType>
defined organic

> <STRUCTURE_TestedForm_DefinedOrganic>
parent

> <STRUCTURE_Shown>
tested chemical

> <TestSubstance_ChemicalName>
2-chloro-N-{(S)-phenyl[(2S)-piperidin-2-yl]methyl}-3-(trifluoromethyl)benzamide

> <TestSubstance_CASRN>
742693-38-5

> <TestSubstance_Description>
single chemical compound

> <ChemicalNote>
stereochem

> <STRUCTURE_ChemicalName_IUPAC>
2-chloro-N-{(S)-phenyl[(2S)-piperidin-2-yl]methyl}-3-(trifluoromethyl)benzamide

> <STRUCTURE_SMILES>
O=C(C3=C(Cl)C(C(F)(F)F)=CC=C3)N[C@H]([C@H]2NCCCC2)C1=CC=CC=C1

> <STRUCTURE_Parent_SMILES>
O=C(C3=C(Cl)C(C(F)(F)F)=CC=C3)N[C@H]([C@H]2NCCCC2)C1=CC=CC=C1

> <STRUCTURE_InChIS>
InChI=1S/C20H20ClF3N2O/c21-17-14(9-6-10-15(17)20(22,23)24)19(27)26-18(13-7-2-1-3-8-13)16-11-4-5-12-25-16/h1-3,6-10,16,18,25H,4-5,11-12H2,(H,26,27)/t16-,18-/m0/s1

> <STRUCTURE_InChIKey>
MEZRZVWPLXVLSO-WMZOPIPTSA-N

> <Substance_modify_yyyymmdd>
20100601

> <Coord_Metals>
0

> <Index>
910

> <Canonical_Smiles>
FC(F)(F)c1cccc(C(=O)NC(C2CCCCN2)c3ccccc3)c1Cl

> <Molecular_Weight>
396.8338

> <Frequency>
1

$$$$

  SciTegic          2D

 52 56  0  0  0  0            999 V2000
   -9.8399    2.8736    0.0000 C   0  0
   -8.3486    3.0348    0.0000 N   0  0
  -10.7251    4.0845    0.0000 C   0  0
   -7.7425    4.4069    0.0000 C   0  0
  -10.1191    5.4566    0.0000 N   0  0
   -8.6277    5.6178    0.0000 C   0  0
   -6.8973    3.1916    0.0000 C   0  0
   -7.5356    1.8341    0.0000 C   0  0
   -5.4026    3.3175    0.0000 C   0  0
   -6.6792    0.6027    0.0000 C   0  0
   -4.5462    2.0860    0.0000 C   0  0
   -5.1845    0.7286    0.0000 C   0  0
   -7.4628    1.8232    0.0000 C   0  0
   -8.0673    0.4523    0.0000 C   0  0
   -9.5334    0.1352    0.0000 O   0  0
   -7.3127   -0.8441    0.0000 C   0  0
   -9.6849   -1.3572    0.0000 C   0  0
   -8.3171   -1.9411    0.0000 C   0  0
   -7.9997   -3.4079    0.0000 C   0  0
   -9.1276   -4.4264    0.0000 C   0  0
   -6.5751   -3.8615    0.0000 C   0  0
   -8.7907   -5.8922    0.0000 C   0  0
   -6.2438   -5.3447    0.0000 C   0  0
   -7.3662   -6.3458    0.0000 C   0  0
   -9.6565   -7.1089    0.0000 O   0  0
   -8.7929   -8.3024    0.0000 C   0  0
   -7.3634   -7.8392    0.0000 N   0  0
   -4.4994   -0.2566    0.0000 F   0  0
   -9.2606   -9.7259    0.0000 O   0  0
  -11.0048    6.6682    0.0000 C   0  0
  -10.8364    2.7896    0.0000 H   0  0
   -9.2309    2.0804    0.0000 H   0  0
  -11.1075    3.1605    0.0000 H   0  0
  -11.2962    4.9054    0.0000 H   0  0
   -7.3600    5.3308    0.0000 H   0  0
   -7.6313    5.7018    0.0000 H   0  0
   -9.2367    6.4110    0.0000 H   0  0
   -8.5321    1.7502    0.0000 H   0  0
   -4.9771    4.2225    0.0000 H   0  0
   -7.1047   -0.3023    0.0000 H   0  0
   -3.5498    2.1700    0.0000 H   0  0
   -6.4687    1.9309    0.0000 H   0  0
   -7.0589    2.7380    0.0000 H   0  0
   -6.3184   -0.9509    0.0000 H   0  0
  -10.5461   -1.8654    0.0000 H   0  0
  -10.0814   -4.1259    0.0000 H   0  0
   -5.8375   -3.1864    0.0000 H   0  0
   -5.2919   -5.6510    0.0000 H   0  0
   -8.5945  -10.4718    0.0000 H   0  0
  -11.9991    6.5614    0.0000 H   0  0
  -10.6004    7.5828    0.0000 H   0  0
  -11.5946    7.4758    0.0000 H   0  0
  1  2  1  0
  1  3  1  0
  2  4  1  0
  2 13  1  0
  3  5  1  0
  4  6  1  0
  4  7  1  0
  5  6  1  0
  5 30  1  0
  7  8  2  0
  7  9  1  0
  8 10  1  0
  9 11  2  0
 10 12  2  0
 11 12  1  0
 12 28  1  0
 13 14  1  0
 14 15  1  0
 14 16  2  0
 15 17  1  0
 16 18  1  0
 17 18  2  0
 18 19  1  0
 19 20  2  0
 19 21  1  0
 20 22  1  0
 21 23  2  0
 22 25  1  0
 22 24  2  0
 23 24  1  0
 24 27  1  0
 25 26  1  0
 26 27  2  0
 26 29  1  0
  1 31  1  0
  1 32  1  0
  3 33  1  0
  3 34  1  0
  4 35  1  0
  6 36  1  0
  6 37  1  0
  8 38  1  0
  9 39  1  0
 10 40  1  0
 11 41  1  0
 13 42  1  0
 13 43  1  0
 16 44  1  0
 17 45  1  0
 20 46  1  0
 21 47  1  0
 23 48  1  0
 29 49  1  0
 30 50  1  0
 30 51  1  0
 30 52  1  0
V    1 0
V    2 1
V    3 2
V    4 3
V    5 4
V    6 5
V    7 6
V    8 7
V    9 8
V   10 9
V   11 10
V   12 11
V   13 12
V   14 13
V   15 14
V   16 15
V   17 16
V   18 17
V   19 18
V   20 19
V   21 20
V   22 21
V   23 22
V   24 23
V   25 24
V   26 25
V   27 26
V   28 27
V   29 28
V   30 29
M  END
> <DSSTox_RID>
66296

> <DSSTox_CID>
27349

> <DSSTox_CID_Parent>
27350

> <DSSTox_Generic_SID>
47349

> <DSSTox_FileID>
911_TXCST2_v1a

> <STRUCTURE_Formula>
C23H25ClFN3O4

> <STRUCTURE_MolecularWeight>
461.9137

> <STRUCTURE_ChemicalType>
defined organic

> <STRUCTURE_TestedForm_DefinedOrganic>
complex HCl H2O

> <STRUCTURE_Shown>
tested chemical

> <TestSubstance_ChemicalName>
6-(5-{[(2S)-2-(4-fluorophenyl)-4-methylpiperazin-1-yl]methyl}furan-3-yl)-1,3-benzoxazol-2-ol hydrochloride hydrate

> <TestSubstance_CASRN>
NOCAS_47349

> <TestSubstance_Description>
single chemical compound

> <ChemicalNote>
tautomers; stereochem

> <STRUCTURE_ChemicalName_IUPAC>
6-(5-{[(2S)-2-(4-fluorophenyl)-4-methylpiperazin-1-yl]methyl}furan-3-yl)-1,3-benzoxazol-2-ol hydrochloride hydrate

> <STRUCTURE_SMILES>
FC2=CC=[C@](C=C2)[C@@H]1N(CC3=CC(C4=CC=C5C(OC(O)=N5)=C4)=CO3)CCN(C)C1.O.Cl

> <STRUCTURE_Parent_SMILES>
FC2=CC=[C@](C=C2)[C@@H]1N(CC3=CC(C4=CC=C5C(OC(O)=N5)=C4)=CO3)CCN(C)C1

> <STRUCTURE_InChIS>
InChI=1S/C23H22FN3O3.ClH.H2O/c1-26-8-9-27(21(13-26)15-2-5-18(24)6-3-15)12-19-10-17(14-29-19)16-4-7-20-22(11-16)30-23(28)25-20;;/h2-7,10-11,14,21H,8-9,12-13H2,1H3,(H,25,28);1H;1H2/t21-;;/m1../s1

> <STRUCTURE_InChIKey>
BQBQAWXALAGUIW-GHVWMZMZSA-N

> <Substance_modify_yyyymmdd>
20100602

> <Coord_Metals>
0

> <Index>
911

> <Canonical_Smiles>
CN1CCN(Cc2occ(c2)c3ccc4nc(O)oc4c3)C(C1)c5ccc(F)cc5

> <Molecular_Weight>
407.43748

> <Frequency>
1

$$$$

  SciTegic          2D

106111  0  0  0  0            999 V2000
  -26.0219    0.7882    0.0000 C   0  0
  -26.0264   -0.7091    0.0000 C   0  0
  -24.7232    1.5329    0.0000 C   0  0
  -24.7323   -1.4616    0.0000 C   0  0
  -23.4108    0.7803    0.0000 C   0  0
  -23.4153   -0.7170    0.0000 C   0  0
  -27.3160    1.5408    0.0000 C   0  0
  -28.6147    0.7961    0.0000 C   0  0
  -27.3251   -1.4538    0.0000 C   0  0
  -28.6193   -0.7012    0.0000 C   0  0
  -22.1090    1.5269    0.0000 S   0  0
  -29.9198   -1.4503    0.0000 O   0  0
  -29.9222   -2.9512    0.0000 C   0  0
  -20.8109    0.7737    0.0000 N   0  0
  -19.5090    1.5205    0.0000 C   0  0
  -19.5053    3.0212    0.0000 C   0  0
  -20.8035    3.7650    0.0000 C   0  0
  -18.1893    3.7787    0.0000 C   0  0
  -20.8146    5.2847    0.0000 C   0  0
  -18.2095    5.2826    0.0000 C   0  0
  -19.5063    6.0265    0.0000 C   0  0
  -17.1065    6.2893    0.0000 O   0  0
  -17.6990    7.6381    0.0000 C   0  0
  -19.1940    7.4868    0.0000 O   0  0
  -18.2109    0.7673    0.0000 C   0  0
  -16.9091    1.5141    0.0000 C   0  0
  -15.6109    0.7608    0.0000 N   0  0
  -16.9061    2.7141    0.0000 O   0  0
  -14.3091    1.5076    0.0000 C   0  0
  -22.1060    2.7269    0.0000 O   0  0
  -21.0684    2.1245    0.0000 O   0  0
  -13.0110    0.7544    0.0000 C   0  0
  -14.3054    3.0084    0.0000 C   0  0
  -13.0043    3.7564    0.0000 N   0  0
  -12.4875    5.1654    0.0000 C   0  0
  -11.7077    3.0005    0.0000 C   0  0
  -13.4486    6.3181    0.0000 C   0  0
  -13.9944    4.9012    0.0000 C   0  0
  -15.3433    3.6106    0.0000 O   0  0
  -13.0132   -0.7464    0.0000 C   0  0
  -11.7153   -1.4984    0.0000 C   0  0
  -14.3134   -1.4944    0.0000 C   0  0
  -11.7176   -2.9984    0.0000 C   0  0
  -14.3157   -2.9944    0.0000 C   0  0
  -13.0178   -3.7464    0.0000 C   0  0
  -13.0201   -5.2472    0.0000 C   0  0
  -11.7220   -6.0004    0.0000 N   0  0
  -10.4213   -5.2532    0.0000 C   0  0
  -11.7252   -7.5004    0.0000 C   0  0
   -9.1239   -6.0060    0.0000 C   0  0
  -10.4278   -8.2532    0.0000 C   0  0
   -9.1271   -7.5060    0.0000 C   0  0
  -11.7197   -4.5420    0.0000 C   0  0
  -12.9870   -6.7261    0.0000 C   0  0
  -24.7232    2.5329    0.0000 H   0  0
  -24.7384   -2.4616    0.0000 H   0  0
  -22.5523   -1.2222    0.0000 H   0  0
  -27.3130    2.5408    0.0000 H   0  0
  -29.4793    1.2987    0.0000 H   0  0
  -27.3282   -2.4538    0.0000 H   0  0
  -30.7888   -3.4503    0.0000 H   0  0
  -29.0569   -3.4523    0.0000 H   0  0
  -29.9234   -3.9512    0.0000 H   0  0
  -20.8134   -0.2263    0.0000 H   0  0
  -20.3738    2.0228    0.0000 H   0  0
  -21.6669    3.2604    0.0000 H   0  0
  -17.3203    3.2840    0.0000 H   0  0
  -21.6805    5.7849    0.0000 H   0  0
  -18.2081    8.4988    0.0000 H   0  0
  -16.6992    7.6189    0.0000 H   0  0
  -18.2134   -0.2327    0.0000 H   0  0
  -17.3462    0.2650    0.0000 H   0  0
  -15.6134   -0.2392    0.0000 H   0  0
  -15.1738    2.0099    0.0000 H   0  0
  -12.1440    1.2528    0.0000 H   0  0
  -12.1458    0.2530    0.0000 H   0  0
  -11.5022    5.3363    0.0000 H   0  0
  -11.7113    2.0005    0.0000 H   0  0
  -10.8435    2.4973    0.0000 H   0  0
  -10.8397    3.4971    0.0000 H   0  0
  -13.1043    7.2570    0.0000 H   0  0
  -14.0894    7.0859    0.0000 H   0  0
  -14.4339    6.1472    0.0000 H   0  0
  -14.3379    3.9620    0.0000 H   0  0
  -14.6363    5.6680    0.0000 H   0  0
  -14.9795    4.7289    0.0000 H   0  0
  -10.8486   -0.9997    0.0000 H   0  0
  -15.1787   -0.9931    0.0000 H   0  0
  -10.8524   -3.4997    0.0000 H   0  0
  -15.1825   -3.4931    0.0000 H   0  0
  -13.8870   -5.7456    0.0000 H   0  0
  -13.8853   -4.7458    0.0000 H   0  0
   -9.5423   -4.7765    0.0000 H   0  0
  -11.7029   -8.5002    0.0000 H   0  0
   -9.9790   -6.5245    0.0000 H   0  0
   -8.2710   -6.5281    0.0000 H   0  0
   -9.5512   -8.7345    0.0000 H   0  0
  -10.4022   -7.2536    0.0000 H   0  0
   -8.2720   -6.9876    0.0000 H   0  0
   -9.1528   -8.5057    0.0000 H   0  0
  -12.5870   -5.0398    0.0000 H   0  0
  -12.5845   -4.0399    0.0000 H   0  0
  -11.7175   -3.5420    0.0000 H   0  0
  -12.9853   -5.7261    0.0000 H   0  0
  -12.9889   -7.7261    0.0000 H   0  0
  -13.8541   -7.2244    0.0000 H   0  0
  1  3  2  0
  1  7  1  0
  1  2  1  0
  2  4  2  0
  2  9  1  0
  3  5  1  0
  4  6  1  0
  5  6  2  0
  5 11  1  0
  7  8  2  0
  8 10  1  0
  9 10  2  0
 10 12  1  0
 11 14  1  0
 11 30  2  0
 11 31  2  0
 12 13  1  0
 15 14  1  0
 15 16  1  0
 15 25  1  0
 16 17  1  0
 16 18  2  0
 17 19  2  0
 18 20  1  0
 19 21  1  0
 20 21  2  0
 20 22  1  0
 21 24  1  0
 22 23  1  0
 23 24  1  0
 25 26  1  0
 26 27  1  0
 26 28  2  0
 29 27  1  0
 29 32  1  0
 29 33  1  0
 32 40  1  0
 33 34  1  0
 33 39  2  0
 34 35  1  0
 34 36  1  0
 35 37  1  0
 35 38  1  0
 40 41  1  0
 40 42  2  0
 41 43  2  0
 42 44  1  0
 43 45  1  0
 44 45  2  0
 45 46  1  0
 46 47  1  0
 47 48  1  0
 47 49  1  0
 48 50  1  0
 48 53  1  0
 49 51  1  0
 49 54  1  0
 50 52  1  0
 51 52  1  0
  3 55  1  0
  4 56  1  0
  6 57  1  0
  7 58  1  0
  8 59  1  0
  9 60  1  0
 13 61  1  0
 13 62  1  0
 13 63  1  0
 14 64  1  0
 15 65  1  0
 17 66  1  0
 18 67  1  0
 19 68  1  0
 23 69  1  0
 23 70  1  0
 25 71  1  0
 25 72  1  0
 27 73  1  0
 29 74  1  0
 32 75  1  0
 32 76  1  0
 35 77  1  0
 36 78  1  0
 36 79  1  0
 36 80  1  0
 37 81  1  0
 37 82  1  0
 37 83  1  0
 38 84  1  0
 38 85  1  0
 38 86  1  0
 41 87  1  0
 42 88  1  0
 43 89  1  0
 44 90  1  0
 46 91  1  0
 46 92  1  0
 48 93  1  0
 49 94  1  0
 50 95  1  0
 50 96  1  0
 51 97  1  0
 51 98  1  0
 52 99  1  0
 52100  1  0
 53101  1  0
 53102  1  0
 53103  1  0
 54104  1  0
 54105  1  0
 54106  1  0
V    1 0
V    2 1
V    3 2
V    4 3
V    5 4
V    6 5
V    7 6
V    8 7
V    9 8
V   10 9
V   11 10
V   12 11
V   13 12
V   14 13
V   15 14
V   16 15
V   17 16
V   18 17
V   19 18
V   20 19
V   21 20
V   22 21
V   23 22
V   24 23
V   25 24
V   26 25
V   27 26
V   28 27
V   29 28
V   30 29
V   31 30
V   32 31
V   33 32
V   34 33
V   35 34
V   36 35
V   37 36
V   38 37
V   39 38
V   40 39
V   41 40
V   42 41
V   43 42
V   44 43
V   45 44
V   46 45
V   47 46
V   48 47
V   49 48
V   50 49
V   51 50
V   52 51
V   53 52
V   54 53
M  END
> <DSSTox_RID>
66298

> <DSSTox_CID>
27351

> <DSSTox_CID_Parent>
27352

> <DSSTox_Generic_SID>
47351

> <DSSTox_FileID>
912_TXCST2_v1a

> <STRUCTURE_Formula>
C42H53ClN4O7S

> <STRUCTURE_MolecularWeight>
793.4108

> <STRUCTURE_ChemicalType>
defined organic

> <STRUCTURE_TestedForm_DefinedOrganic>
complex HCl

> <STRUCTURE_Shown>
tested chemical

> <TestSubstance_ChemicalName>
Nalpha-[(3R)-3-(1,3-benzodioxol-5-yl)-3-{[(6-methoxynaphthalen-2-yl)sulfonyl]amino}propanoyl]-4-{[(2R,6S)-2,6-dimethylpiperidin-1-yl]methyl}-N-methyl-N-propan-2-yl-D-phenylalaninamide hydrochloride

> <TestSubstance_CASRN>
NOCAS_47351

> <TestSubstance_Description>
single chemical compound

> <ChemicalNote>
stereochem

> <STRUCTURE_ChemicalName_IUPAC>
Nalpha-[(3R)-3-(1,3-benzodioxol-5-yl)-3-{[(6-methoxynaphthalen-2-yl)sulfonyl]amino}propanoyl]-4-{[(2R,6S)-2,6-dimethylpiperidin-1-yl]methyl}-N-methyl-N-propan-2-yl-D-phenylalaninamide hydrochloride

> <STRUCTURE_SMILES>
O=C(N[C@@H](C(N(C)C(C)C)=O)CC5=CC=C(CN6[C@@H](C)CCC[C@H]6C)C=C5)C[C@H](C3=CC(OCO4)=C4C=C3)NS(C1=CC=C2C(C=CC(OC)=C2)=C1)(=O)=O.Cl

> <STRUCTURE_Parent_SMILES>
O=C(N[C@@H](C(N(C)C(C)C)=O)CC5=CC=C(CN6[C@@H](C)CCC[C@H]6C)C=C5)C[C@H](C3=CC(OCO4)=C4C=C3)NS(C1=CC=C2C(C=CC(OC)=C2)=C1)(=O)=O

> <STRUCTURE_InChIS>
InChI=1S/C42H52N4O7S.ClH/c1-27(2)45(5)42(48)38(20-30-10-12-31(13-11-30)25-46-28(3)8-7-9-29(46)4)43-41(47)24-37(34-16-19-39-40(23-34)53-26-52-39)44-54(49,50)36-18-15-32-21-35(51-6)17-14-33(32)22-36;/h1
0-19,21-23,27-29,37-38,44H,7-9,20,24-26H2,1-6H3,(H,43,47);1H/t28-,29+,37-,38-;/m1./s1

> <STRUCTURE_InChIKey>
GLHHFOSVBQQNAW-GDYXXZBVSA-N

> <Substance_modify_yyyymmdd>
20100602

> <Coord_Metals>
0

> <Index>
912

> <Canonical_Smiles>
COc1ccc2cc(ccc2c1)S(=O)(=O)NC(CC(=O)NC(Cc3ccc(CN4C(C)CCCC4C)cc3)C(=O)N(C)C(C)C)c5ccc6OCOc6c5

> <Molecular_Weight>
756.94987

> <Frequency>
1

$$$$

  SciTegic          2D

 83 87  0  0  0  0            999 V2000
    6.7773  -13.2213    0.0000 C   0  0
    7.7378  -14.3734    0.0000 C   0  0
    7.2948  -11.8134    0.0000 N   0  0
    9.2159  -14.1176    0.0000 C   0  0
    8.7728  -11.5576    0.0000 C   0  0
    9.7333  -12.7097    0.0000 C   0  0
   10.6793  -14.3435    0.0000 N   0  0
   11.6188  -13.1741    0.0000 C   0  0
   11.2223  -15.7418    0.0000 C   0  0
   13.1012  -13.4030    0.0000 C   0  0
   12.7047  -15.9707    0.0000 C   0  0
   13.6442  -14.8013    0.0000 C   0  0
    8.2331  -15.2248    0.0000 C   0  0
    7.0639  -14.9546    0.0000 O   0  0
    8.6712  -16.6602    0.0000 N   0  0
    7.6478  -17.7580    0.0000 C   0  0
   10.1342  -16.9951    0.0000 C   0  0
    6.3337  -10.6606    0.0000 C   0  0
    4.8547  -10.9156    0.0000 C   0  0
    3.9253  -11.2421    0.0000 O   0  0
    3.8936   -9.7629    0.0000 C   0  0
    2.6240  -11.9882    0.0000 C   0  0
    2.6330   -8.9882    0.0000 C   0  0
    1.3272  -11.2343    0.0000 C   0  0
    1.3317   -9.7343    0.0000 N   0  0
    0.0327   -8.9827    0.0000 C   0  0
    0.0342   -7.7827    0.0000 O   0  0
   -1.2683   -9.7310    0.0000 C   0  0
   -1.2738  -11.2311    0.0000 C   0  0
   -2.5647   -8.9764    0.0000 C   0  0
   -2.5755  -11.9763    0.0000 C   0  0
   -3.8664   -9.7217    0.0000 C   0  0
   -3.8718  -11.2217    0.0000 C   0  0
    4.4111   -8.3536    0.0000 C   0  0
    3.4502   -7.2018    0.0000 C   0  0
    5.8890   -8.0974    0.0000 C   0  0
    3.9672   -5.7938    0.0000 C   0  0
    6.4061   -6.6893    0.0000 C   0  0
    5.4452   -5.5375    0.0000 C   0  0
    5.8588   -4.4110    0.0000 Cl  0  0
    3.1985   -4.8723    0.0000 Cl  0  0
    6.4545  -14.1677    0.0000 H   0  0
    6.1551  -12.4384    0.0000 H   0  0
    8.1049  -13.4432    0.0000 H   0  0
    8.3961  -15.1262    0.0000 H   0  0
    9.7619  -11.4103    0.0000 H   0  0
    8.1146  -10.8047    0.0000 H   0  0
   10.3554  -13.4926    0.0000 H   0  0
    8.7523  -12.9033    0.0000 H   0  0
   12.2633  -12.4096    0.0000 H   0  0
   10.6272  -13.0448    0.0000 H   0  0
   11.6062  -16.6652    0.0000 H   0  0
   10.2379  -15.5660    0.0000 H   0  0
   12.4935  -14.1972    0.0000 H   0  0
   14.0856  -13.5788    0.0000 H   0  0
   13.6964  -16.0999    0.0000 H   0  0
   12.3647  -15.0303    0.0000 H   0  0
   14.2519  -14.0071    0.0000 H   0  0
   13.9842  -15.7417    0.0000 H   0  0
    7.9397  -18.7145    0.0000 H   0  0
    6.9656  -18.4892    0.0000 H   0  0
    6.6735  -17.5329    0.0000 H   0  0
   10.8153  -16.2629    0.0000 H   0  0
   11.1089  -17.2186    0.0000 H   0  0
   10.4281  -17.9509    0.0000 H   0  0
    7.3191  -10.4902    0.0000 H   0  0
    6.6790   -9.7221    0.0000 H   0  0
    5.4947  -11.6840    0.0000 H   0  0
    4.5094  -11.8541    0.0000 H   0  0
    1.7450  -12.4650    0.0000 H   0  0
    3.5001  -12.4704    0.0000 H   0  0
    3.5173   -8.5213    0.0000 H   0  0
    1.7634   -8.4945    0.0000 H   0  0
    2.1828  -10.7166    0.0000 H   0  0
    0.4747  -10.7115    0.0000 H   0  0
   -0.4096  -11.7342    0.0000 H   0  0
   -2.5611   -7.9764    0.0000 H   0  0
   -2.5791  -12.9763    0.0000 H   0  0
   -4.7306   -9.2185    0.0000 H   0  0
   -4.7397  -11.7185    0.0000 H   0  0
    2.4649   -7.3727    0.0000 H   0  0
    6.5296   -8.8652    0.0000 H   0  0
    7.3914   -6.5184    0.0000 H   0  0
  1  2  1  0
  1  3  1  0
  2  4  1  0
  3  5  1  0
  3 18  1  0
  4  6  1  0
  4  7  1  0
  4 13  1  0
  5  6  1  0
  7  8  1  0
  7  9  1  0
  8 10  1  0
  9 11  1  0
 10 12  1  0
 11 12  1  0
 13 14  2  0
 13 15  1  0
 15 16  1  0
 15 17  1  0
 18 19  1  0
 19 21  1  0
 20 21  1  0
 20 22  1  0
 21 23  1  0
 21 34  1  0
 22 24  1  0
 23 25  1  0
 24 25  1  0
 25 26  1  0
 26 27  2  0
 26 28  1  0
 28 29  1  0
 28 30  2  0
 29 31  2  0
 30 32  1  0
 31 33  1  0
 32 33  2  0
 34 35  1  0
 34 36  2  0
 35 37  2  0
 36 38  1  0
 37 39  1  0
 37 41  1  0
 38 39  2  0
 39 40  1  0
  1 42  1  0
  1 43  1  0
  2 44  1  0
  2 45  1  0
  5 46  1  0
  5 47  1  0
  6 48  1  0
  6 49  1  0
  8 50  1  0
  8 51  1  0
  9 52  1  0
  9 53  1  0
 10 54  1  0
 10 55  1  0
 11 56  1  0
 11 57  1  0
 12 58  1  0
 12 59  1  0
 16 60  1  0
 16 61  1  0
 16 62  1  0
 17 63  1  0
 17 64  1  0
 17 65  1  0
 18 66  1  0
 18 67  1  0
 19 68  1  0
 19 69  1  0
 22 70  1  0
 22 71  1  0
 23 72  1  0
 23 73  1  0
 24 74  1  0
 24 75  1  0
 29 76  1  0
 30 77  1  0
 31 78  1  0
 32 79  1  0
 33 80  1  0
 35 81  1  0
 36 82  1  0
 38 83  1  0
V    1 0
V    2 1
V    3 2
V    4 3
V    5 4
V    6 5
V    7 6
V    8 7
V    9 8
V   10 9
V   11 10
V   12 11
V   13 12
V   14 13
V   15 14
V   16 15
V   17 16
V   18 17
V   19 18
V   20 19
V   21 20
V   22 21
V   23 22
V   24 23
V   25 24
V   26 25
V   27 26
V   28 27
V   29 28
V   30 29
V   31 30
V   32 31
V   33 32
V   34 33
V   35 34
V   36 35
V   37 36
V   38 37
V   39 38
V   40 39
V   41 40
M  END
> <DSSTox_RID>
66300

> <DSSTox_CID>
27353

> <DSSTox_CID_Parent>
27354

> <DSSTox_Generic_SID>
47353

> <DSSTox_FileID>
913_TXCST2_v1a

> <STRUCTURE_Formula>
C32H43Cl3N4O3

> <STRUCTURE_MolecularWeight>
638.0678

> <STRUCTURE_ChemicalType>
defined organic

> <STRUCTURE_TestedForm_DefinedOrganic>
complex HCl

> <STRUCTURE_Shown>
tested chemical

> <TestSubstance_ChemicalName>
1'-{2-[2-(3,4-dichlorophenyl)-4-(phenylcarbonyl)morpholin-2-yl]ethyl}-N,N-dimethyl-1,4'-bipiperidine-4'-carboxamide hydrochloride

> <TestSubstance_CASRN>
NOCAS_47353

> <TestSubstance_Description>
single chemical compound

> <STRUCTURE_ChemicalName_IUPAC>
1'-{2-[2-(3,4-dichlorophenyl)-4-(phenylcarbonyl)morpholin-2-yl]ethyl}-N,N-dimethyl-1,4'-bipiperidine-4'-carboxamide hydrochloride

> <STRUCTURE_SMILES>
O=C(N(C)C)C1(N2CCCCC2)CCN(CCC3(C5=CC=C(Cl)C(Cl)=C5)OCCN(C(C4=CC=CC=C4)=O)C3)CC1.Cl

> <STRUCTURE_Parent_SMILES>
O=C(N(C)C)C1(N2CCCCC2)CCN(CCC3(C5=CC=C(Cl)C(Cl)=C5)OCCN(C(C4=CC=CC=C4)=O)C3)CC1

> <STRUCTURE_InChIS>
InChI=1S/C32H42Cl2N4O3.ClH/c1-35(2)30(40)31(38-16-7-4-8-17-38)13-18-36(19-14-31)20-15-32(26-11-12-27(33)28(34)23-26)24-37(21-22-41-32)29(39)25-9-5-3-6-10-25;/h3,5-6,9-12,23H,4,7-8,13-22,24H2,1-2H3;1H

> <STRUCTURE_InChIKey>
WOWWMEJZBIHYNI-UHFFFAOYSA-N

> <Substance_modify_yyyymmdd>
20100602

> <Coord_Metals>
0

> <Index>
913

> <Canonical_Smiles>
CN(C)C(=O)C1(CCN(CCC2(CN(CCO2)C(=O)c3ccccc3)c4ccc(Cl)c(Cl)c4)CC1)N5CCCCC5

> <Molecular_Weight>
601.60687

> <Frequency>
1

$$$$

  SciTegic          2D

 57 61  0  0  0  0            999 V2000
   -1.2529   10.5184    0.0000 N   0  0
   -1.2390   12.0134    0.0000 C   0  0
    0.0518    9.7431    0.0000 C   0  0
    0.0807   12.7669    0.0000 C   0  0
    1.3542   10.4943    0.0000 C   0  0
    1.3680   11.9892    0.0000 C   0  0
    0.0429    8.2424    0.0000 N   0  0
    1.3374    7.4846    0.0000 C   0  0
   -1.2606    7.5001    0.0000 C   0  0
    1.3285    5.9847    0.0000 C   0  0
   -1.2695    6.0001    0.0000 C   0  0
    0.0250    5.2424    0.0000 N   0  0
    0.0161    3.7416    0.0000 C   0  0
   -1.2876    2.9981    0.0000 C   0  0
   -1.2964    1.4973    0.0000 C   0  0
   -2.6111    0.7486    0.0000 C   0  0
    0.0000    0.7486    0.0000 C   0  0
   -2.6111   -0.7486    0.0000 C   0  0
    0.0000   -0.7486    0.0000 C   0  0
   -1.2964   -1.4973    0.0000 N   0  0
    1.2964    1.4973    0.0000 C   0  0
    2.5929    0.7486    0.0000 C   0  0
    1.2964   -1.4973    0.0000 C   0  0
    2.5929   -0.7486    0.0000 C   0  0
   -1.2876   -2.9981    0.0000 C   0  0
   -2.5824   -3.7570    0.0000 C   0  0
   -3.6254   -3.1636    0.0000 O   0  0
   -2.5735   -5.2578    0.0000 N   0  0
   -3.6486   -1.3517    0.0000 O   0  0
    2.7720   10.0253    0.0000 C   0  0
    3.6580   11.2022    0.0000 C   0  0
    2.7943   12.4318    0.0000 S   0  0
    3.6321   -1.3486    0.0000 F   0  0
   -2.1015   12.5195    0.0000 H   0  0
    0.0930   13.7669    0.0000 H   0  0
    2.1883    6.9593    0.0000 H   0  0
    1.3199    8.4845    0.0000 H   0  0
   -2.1177    6.9849    0.0000 H   0  0
   -1.2312    8.4997    0.0000 H   0  0
    0.4538    6.4693    0.0000 H   0  0
    1.2991    4.9851    0.0000 H   0  0
   -0.3891    6.4743    0.0000 H   0  0
   -1.2520    5.0003    0.0000 H   0  0
    0.8793    3.2367    0.0000 H   0  0
    0.8850    4.2366    0.0000 H   0  0
   -2.1508    3.5030    0.0000 H   0  0
   -2.1565    2.5031    0.0000 H   0  0
   -3.4756    1.2512    0.0000 H   0  0
    1.2964    2.4973    0.0000 H   0  0
    3.4589    1.2486    0.0000 H   0  0
    1.2964   -2.4973    0.0000 H   0  0
   -1.2812   -3.9981    0.0000 H   0  0
   -0.4185   -3.4927    0.0000 H   0  0
   -3.4362   -5.7635    0.0000 H   0  0
   -1.7043   -5.7524    0.0000 H   0  0
    3.0704    9.0709    0.0000 H   0  0
    4.6579   11.1857    0.0000 H   0  0
  1  2  1  0
  1  3  2  0
  2  4  2  0
  3  5  1  0
  3  7  1  0
  4  6  1  0
  5  6  2  0
  5 30  1  0
  6 32  1  0
  7  8  1  0
  7  9  1  0
  8 10  1  0
  9 11  1  0
 10 12  1  0
 11 12  1  0
 12 13  1  0
 13 14  1  0
 14 15  1  0
 15 16  2  0
 15 17  1  0
 16 18  1  0
 17 21  1  0
 17 19  2  0
 18 20  1  0
 18 29  2  0
 19 20  1  0
 19 23  1  0
 20 25  1  0
 21 22  2  0
 22 24  1  0
 23 24  2  0
 24 33  1  0
 25 26  1  0
 26 27  2  0
 26 28  1  0
 30 31  2  0
 31 32  1  0
  2 34  1  0
  4 35  1  0
  8 36  1  0
  8 37  1  0
  9 38  1  0
  9 39  1  0
 10 40  1  0
 10 41  1  0
 11 42  1  0
 11 43  1  0
 13 44  1  0
 13 45  1  0
 14 46  1  0
 14 47  1  0
 16 48  1  0
 21 49  1  0
 22 50  1  0
 23 51  1  0
 25 52  1  0
 25 53  1  0
 28 54  1  0
 28 55  1  0
 30 56  1  0
 31 57  1  0
V    1 0
V    2 1
V    3 2
V    4 3
V    5 4
V    6 5
V    7 6
V    8 7
V    9 8
V   10 9
V   11 10
V   12 11
V   13 12
V   14 13
V   15 14
V   16 15
V   17 16
V   18 17
V   19 18
V   20 19
V   21 20
V   22 21
V   23 22
V   24 23
V   25 24
V   26 25
V   27 26
V   28 27
V   29 28
V   30 29
V   31 30
V   32 31
V   33 32
M  END
> <DSSTox_RID>
66301

> <DSSTox_CID>
27355

> <DSSTox_CID_Parent>
27355

> <DSSTox_Generic_SID>
47355

> <DSSTox_FileID>
914_TXCST2_v1a

> <STRUCTURE_Formula>
C24H24FN5O2S

> <STRUCTURE_MolecularWeight>
465.5431

> <STRUCTURE_ChemicalType>
defined organic

> <STRUCTURE_TestedForm_DefinedOrganic>
parent

> <STRUCTURE_Shown>
tested chemical

> <TestSubstance_ChemicalName>
Trelanserin

> <TestSubstance_CASRN>
189003-92-7

> <TestSubstance_Description>
single chemical compound

> <STRUCTURE_ChemicalName_IUPAC>
2-[7-fluoro-2-oxo-4-{2-[4-(thieno[3,2-c]pyridin-4-yl)piperazin-1-yl]ethyl}quinolin-1(2H)-yl]acetamide

> <STRUCTURE_SMILES>
O=C(N)CN4C(C=C(C5=C4C=C(F)C=C5)CCN3CCN(CC3)C1=NC=CC2=C1C=CS2)=O

> <STRUCTURE_Parent_SMILES>
O=C(N)CN4C(C=C(C5=C4C=C(F)C=C5)CCN3CCN(CC3)C1=NC=CC2=C1C=CS2)=O

> <STRUCTURE_InChIS>
InChI=1S/C24H24FN5O2S/c25-17-1-2-18-16(13-23(32)30(15-22(26)31)20(18)14-17)4-7-28-8-10-29(11-9-28)24-19-5-12-33-21(19)3-6-27-24/h1-3,5-6,12-14H,4,7-11,15H2,(H2,26,31)

> <STRUCTURE_InChIKey>
JDLYOFUDIKMYBL-UHFFFAOYSA-N

> <Substance_modify_yyyymmdd>
20100602

> <Coord_Metals>
0

> <Index>
914

> <Canonical_Smiles>
NC(=O)CN1C(=O)C=C(CCN2CCN(CC2)c3nccc4sccc34)c5ccc(F)cc15

> <Molecular_Weight>
465.54306

> <Frequency>
1

$$$$

  SciTegic          2D

 58 60  0  0  0  0            999 V2000
   -1.8835   -1.8124    0.0000 C   0  0
   -2.1322   -0.3021    0.0000 N   0  0
   -0.5686   -2.5587    0.0000 C   0  0
   -1.1017    0.7996    0.0000 C   0  0
    0.7996   -1.9901    0.0000 C   0  0
    1.2438   -0.5686    0.0000 C   0  0
    0.4087    0.6930    0.0000 C   0  0
   -3.0918   -2.7364    0.0000 C   0  0
   -4.4777   -2.1678    0.0000 C   0  0
   -3.5360    0.2310    0.0000 C   0  0
   -4.6909   -0.7107    0.0000 C   0  0
   -0.8174   -3.9980    0.0000 C   0  0
    0.3554   -4.9752    0.0000 C   0  0
    1.9546   -2.9496    0.0000 C   0  0
    1.7236   -4.4422    0.0000 C   0  0
   -2.3660    1.1381    0.0000 C   0  0
   -2.5321    2.6297    0.0000 O   0  0
   -1.2666    0.6571    0.0000 O   0  0
   -1.5402    1.9166    0.0000 O   0  0
    0.1151    2.1393    0.0000 N   0  0
    1.2085    3.1674    0.0000 C   0  0
    0.8657    4.6286    0.0000 C   0  0
    2.3574    2.8210    0.0000 O   0  0
    1.9600    5.6556    0.0000 C   0  0
   -0.5708    5.0632    0.0000 S   0  0
    3.3965    5.2210    0.0000 C   0  0
    1.6173    7.1168    0.0000 C   0  0
   -0.9135    6.5244    0.0000 C   0  0
   -0.0385    7.3456    0.0000 O   0  0
   -2.3500    6.9591    0.0000 C   0  0
   -1.8152   -2.8101    0.0000 H   0  0
    1.5887    0.3701    0.0000 H   0  0
    1.8362   -1.3742    0.0000 H   0  0
   -0.1213   -0.1551    0.0000 H   0  0
   -3.2467   -1.7485    0.0000 H   0  0
   -3.8988   -3.3269    0.0000 H   0  0
   -5.3957   -1.7711    0.0000 H   0  0
   -4.3147   -3.1544    0.0000 H   0  0
   -4.4792    0.5631    0.0000 H   0  0
   -3.7679   -1.0955    0.0000 H   0  0
   -5.4554   -1.3555    0.0000 H   0  0
   -1.7559   -4.3432    0.0000 H   0  0
    0.1945   -5.9622    0.0000 H   0  0
    2.8897   -2.5954    0.0000 H   0  0
    2.5034   -5.0682    0.0000 H   0  0
   -1.7271    3.2230    0.0000 H   0  0
   -0.8423    2.4280    0.0000 H   0  0
    0.1366    3.9443    0.0000 H   0  0
    2.1880    4.6819    0.0000 H   0  0
    3.6249    4.2474    0.0000 H   0  0
    4.1257    5.9053    0.0000 H   0  0
    4.3538    4.9318    0.0000 H   0  0
    0.6601    7.4064    0.0000 H   0  0
    2.3465    7.8011    0.0000 H   0  0
    1.3894    8.0905    0.0000 H   0  0
   -2.5784    7.9326    0.0000 H   0  0
   -3.0792    6.2747    0.0000 H   0  0
   -3.3073    7.2482    0.0000 H   0  0
  1  3  1  0
  1  8  1  0
  1  2  1  0
  2  4  1  0
  2 10  1  0
  3 12  1  0
  3  5  2  0
  4  7  1  0
  4 19  2  0
  5  6  1  0
  5 14  1  0
  6  7  1  0
  7 20  1  0
  8  9  1  0
  9 11  1  0
 10 11  1  0
 10 16  1  0
 12 13  2  0
 13 15  1  0
 14 15  2  0
 16 17  1  0
 16 18  2  0
 20 21  1  0
 21 22  1  0
 21 23  2  0
 22 24  1  0
 22 25  1  0
 24 26  1  0
 24 27  1  0
 25 28  1  0
 28 29  2  0
 28 30  1  0
  1 31  1  0
  6 32  1  0
  6 33  1  0
  7 34  1  0
  8 35  1  0
  8 36  1  0
  9 37  1  0
  9 38  1  0
 10 39  1  0
 11 40  1  0
 11 41  1  0
 12 42  1  0
 13 43  1  0
 14 44  1  0
 15 45  1  0
 17 46  1  0
 20 47  1  0
 22 48  1  0
 24 49  1  0
 26 50  1  0
 26 51  1  0
 26 52  1  0
 27 53  1  0
 27 54  1  0
 27 55  1  0
 30 56  1  0
 30 57  1  0
 30 58  1  0
V    1 0
V    2 1
V    3 2
V    4 3
V    5 4
V    6 5
V    7 6
V    8 7
V    9 8
V   10 9
V   11 10
V   12 11
V   13 12
V   14 13
V   15 14
V   16 15
V   17 16
V   18 17
V   19 18
V   20 19
V   21 20
V   22 21
V   23 22
V   24 23
V   25 24
V   26 25
V   27 26
V   28 27
V   29 28
V   30 29
M  END
> <DSSTox_RID>
66302

> <DSSTox_CID>
27356

> <DSSTox_CID_Parent>
27356

> <DSSTox_Generic_SID>
47356

> <DSSTox_FileID>
915_TXCST2_v1a

> <STRUCTURE_Formula>
C22H28N2O5S

> <STRUCTURE_MolecularWeight>
432.5331

> <STRUCTURE_ChemicalType>
defined organic

> <STRUCTURE_TestedForm_DefinedOrganic>
parent

> <STRUCTURE_Shown>
tested chemical

> <TestSubstance_ChemicalName>
Ilepatril

> <TestSubstance_CASRN>
473289-62-2

> <TestSubstance_Description>
single chemical compound

> <ChemicalNote>
stereochem

> <STRUCTURE_ChemicalName_IUPAC>
(4S,7S,12bR)-7-{[(2S)-2-(acetylsulfanyl)-3-methylbutanoyl]amino}-6-oxo-1,2,3,4,6,7,8,12b-octahydropyrido[2,1-a][2]benzazepine-4-carboxylic acid

> <STRUCTURE_SMILES>
O[C@]([C@H]2N1[C@H](CCC2)C(C=CC=C3)=C3C[C@H](NC([C@@H](SC(C)=O)C(C)C)=O)C1=O)=O

> <STRUCTURE_Parent_SMILES>
O[C@]([C@H]2N1[C@H](CCC2)C(C=CC=C3)=C3C[C@H](NC([C@@H](SC(C)=O)C(C)C)=O)C1=O)=O

> <STRUCTURE_InChIS>
InChI=1S/C22H28N2O5S/c1-12(2)19(30-13(3)25)20(26)23-16-11-14-7-4-5-8-15(14)17-9-6-10-18(22(28)29)24(17)21(16)27/h4-5,7-8,12,16-19H,6,9-11H2,1-3H3,(H,23,26)(H,28,29)/t16-,17+,18-,19-/m0/s1

> <STRUCTURE_InChIKey>
FXKFFTMLFPWYFH-RDGPPVDQSA-N

> <Substance_modify_yyyymmdd>
20100602

> <Coord_Metals>
0

> <Index>
915

> <Canonical_Smiles>
CC(C)C(SC(=O)C)C(=O)NC1Cc2ccccc2C3CCCC(N3C1=O)C(=O)O

> <Molecular_Weight>
432.53312

> <Frequency>
1

$$$$

  SciTegic          2D

 54 57  0  0  0  0            999 V2000
    3.9511   -0.8815    0.0000 N   0  0
    2.5987   -1.5004    0.0000 C   0  0
    4.9531   -1.9978    0.0000 N   0  0
    2.7343   -2.9815    0.0000 C   0  0
    4.2010   -3.2956    0.0000 C   0  0
    1.6341   -0.3507    0.0000 C   0  0
    2.1471    1.0588    0.0000 C   0  0
    0.1569   -0.6112    0.0000 C   0  0
    1.1829    2.2079    0.0000 C   0  0
   -0.8073    0.5379    0.0000 C   0  0
   -0.2943    1.9474    0.0000 C   0  0
    4.7409    0.3947    0.0000 C   0  0
    4.1393    1.7631    0.0000 C   0  0
    6.2330    0.2248    0.0000 C   0  0
    5.0274    2.9719    0.0000 C   0  0
    7.1212    1.4336    0.0000 C   0  0
    6.5184    2.8071    0.0000 C   0  0
   -1.0657    2.8666    0.0000 Br  0  0
    7.2289    3.7742    0.0000 Cl  0  0
    2.9465    1.8945    0.0000 Cl  0  0
    1.6117   -3.9736    0.0000 C   0  0
    1.9093   -5.4446    0.0000 C   0  0
    5.2423   -4.3729    0.0000 C   0  0
    6.6986   -4.0100    0.0000 N   0  0
    4.9117   -5.5265    0.0000 O   0  0
    7.7417   -5.0891    0.0000 N   0  0
    9.1977   -4.7285    0.0000 C   0  0
    7.3261   -6.5304    0.0000 C   0  0
   10.2381   -5.8092    0.0000 C   0  0
    8.3664   -7.6110    0.0000 C   0  0
    9.8224   -7.2504    0.0000 C   0  0
    3.1319    1.2325    0.0000 H   0  0
   -0.1852   -1.5509    0.0000 H   0  0
    1.5249    3.1476    0.0000 H   0  0
   -1.7921    0.3642    0.0000 H   0  0
    6.6334   -0.6916    0.0000 H   0  0
    4.6256    3.8876    0.0000 H   0  0
    8.1151    1.3238    0.0000 H   0  0
    0.6636   -3.6555    0.0000 H   0  0
    1.4129   -2.9935    0.0000 H   0  0
    1.1600   -6.1069    0.0000 H   0  0
    2.8574   -5.7627    0.0000 H   0  0
    2.1080   -6.4247    0.0000 H   0  0
    6.9741   -3.0487    0.0000 H   0  0
   10.1738   -4.5111    0.0000 H   0  0
    8.4875   -4.0246    0.0000 H   0  0
    7.0717   -7.4975    0.0000 H   0  0
    6.6496   -5.7939    0.0000 H   0  0
   10.4924   -4.8420    0.0000 H   0  0
   10.9145   -6.5457    0.0000 H   0  0
    9.0767   -8.3149    0.0000 H   0  0
    8.6660   -6.6570    0.0000 H   0  0
   10.7871   -6.9871    0.0000 H   0  0
    9.5228   -8.2045    0.0000 H   0  0
  1  2  1  0
  1  3  1  0
  1 12  1  0
  2  4  2  0
  2  6  1  0
  3  5  2  0
  4  5  1  0
  4 21  1  0
  5 23  1  0
  6  7  1  0
  6  8  2  0
  7  9  2  0
  8 10  1  0
  9 11  1  0
 10 11  2  0
 11 18  1  0
 12 13  1  0
 12 14  2  0
 13 15  2  0
 13 20  1  0
 14 16  1  0
 15 17  1  0
 16 17  2  0
 17 19  1  0
 21 22  1  0
 23 24  1  0
 23 25  2  0
 24 26  1  0
 26 27  1  0
 26 28  1  0
 27 29  1  0
 28 30  1  0
 29 31  1  0
 30 31  1  0
  7 32  1  0
  8 33  1  0
  9 34  1  0
 10 35  1  0
 14 36  1  0
 15 37  1  0
 16 38  1  0
 21 39  1  0
 21 40  1  0
 22 41  1  0
 22 42  1  0
 22 43  1  0
 24 44  1  0
 27 45  1  0
 27 46  1  0
 28 47  1  0
 28 48  1  0
 29 49  1  0
 29 50  1  0
 30 51  1  0
 30 52  1  0
 31 53  1  0
 31 54  1  0
V    1 0
V    2 1
V    3 2
V    4 3
V    5 4
V    6 5
V    7 6
V    8 7
V    9 8
V   10 9
V   11 10
V   12 11
V   13 12
V   14 13
V   15 14
V   16 15
V   17 16
V   18 17
V   19 18
V   20 19
V   21 20
V   22 21
V   23 22
V   24 23
V   25 24
V   26 25
V   27 26
V   28 27
V   29 28
V   30 29
V   31 30
M  END
> <DSSTox_RID>
66303

> <DSSTox_CID>
27357

> <DSSTox_CID_Parent>
27357

> <DSSTox_Generic_SID>
47357

> <DSSTox_FileID>
916_TXCST2_v1a

> <STRUCTURE_Formula>
C23H23BrCl2N4O

> <STRUCTURE_MolecularWeight>
522.2649

> <STRUCTURE_ChemicalType>
defined organic

> <STRUCTURE_TestedForm_DefinedOrganic>
parent

> <STRUCTURE_Shown>
tested chemical

> <TestSubstance_ChemicalName>
Surinabant

> <TestSubstance_CASRN>
288104-79-0

> <TestSubstance_Description>
single chemical compound

> <ChemicalNote>
stereochem

> <STRUCTURE_ChemicalName_IUPAC>
5-(4-bromophenyl)-1-(2,4-dichlorophenyl)-4-ethyl-N-(piperidin-1-yl)-1H-pyrazole-3-carboxamide

> <STRUCTURE_SMILES>
BrC3=CC=C(C=C3)C1=C(CC)C(C(NN4CCCCC4)=O)=NN1C2=CC=C(Cl)C=C2Cl

> <STRUCTURE_Parent_SMILES>
BrC3=CC=C(C=C3)C1=C(CC)C(C(NN4CCCCC4)=O)=NN1C2=CC=C(Cl)C=C2Cl

> <STRUCTURE_InChIS>
InChI=1S/C23H23BrCl2N4O/c1-2-18-21(23(31)28-29-12-4-3-5-13-29)27-30(20-11-10-17(25)14-19(20)26)22(18)15-6-8-16(24)9-7-15/h6-11,14H,2-5,12-13H2,1H3,(H,28,31)

> <STRUCTURE_InChIKey>
HMXDWDSNPRNUKI-UHFFFAOYSA-N

> <Substance_modify_yyyymmdd>
20100602

> <Coord_Metals>
0

> <Index>
916

> <Canonical_Smiles>
CCc1c(nn(c2ccc(Cl)cc2Cl)c1c3ccc(Br)cc3)C(=O)NN4CCCCC4

> <Molecular_Weight>
522.26491

> <Frequency>
1

$$$$

  SciTegic          2D

 75 79  0  0  0  0            999 V2000
    5.7496   -4.1210    0.0000 C   0  0
    4.2643   -4.2911    0.0000 C   0  0
    6.6576   -5.3200    0.0000 C   0  0
    3.6508   -5.6643    0.0000 C   0  0
    6.0462   -6.7113    0.0000 C   0  0
    4.5609   -6.8814    0.0000 C   0  0
    6.0406   -2.6563    0.0000 C   0  0
    4.7637   -1.9217    0.0000 C   0  0
    3.6497   -2.9301    0.0000 N   0  0
    7.2366   -3.5400    0.0000 N   0  0
    8.6492   -3.0749    0.0000 C   0  0
    7.2068   -5.0269    0.0000 C   0  0
    9.5211   -4.2955    0.0000 C   0  0
    8.6297   -5.5019    0.0000 C   0  0
    7.6414    0.9621    0.0000 C   0  0
    7.5186   -0.5329    0.0000 C   0  0
    6.4082    1.8159    0.0000 C   0  0
    6.1625   -1.1740    0.0000 C   0  0
    5.0521    1.1748    0.0000 C   0  0
    4.9292   -0.3201    0.0000 C   0  0
    3.4345   -0.4557    0.0000 O   0  0
    2.5689    0.7703    0.0000 C   0  0
    6.7584   -7.6771    0.0000 Cl  0  0
    4.6358   -0.7285    0.0000 O   0  0
    2.3749   -2.1429    0.0000 S   0  0
    2.4109   -0.9434    0.0000 O   0  0
    3.2555   -1.6689    0.0000 O   0  0
    1.0531   -2.8536    0.0000 C   0  0
    1.0077   -4.3529    0.0000 C   0  0
   -0.2227   -2.0647    0.0000 C   0  0
   -0.3134   -5.0633    0.0000 C   0  0
   -1.5438   -2.7750    0.0000 C   0  0
   -1.5892   -4.2743    0.0000 C   0  0
   -0.1804   -0.5644    0.0000 O   0  0
   -1.4579    0.2232    0.0000 C   0  0
   -2.9125   -4.9824    0.0000 O   0  0
   -4.1879   -4.1912    0.0000 C   0  0
    7.6080   -6.5830    0.0000 O   0  0
    7.6388   -1.9827    0.0000 C   0  0
    7.5423   -0.4850    0.0000 N   0  0
    6.4728   -2.2662    0.0000 O   0  0
    6.1975    0.1812    0.0000 C   0  0
    9.0014   -0.1333    0.0000 C   0  0
    7.6508   -5.2031    0.0000 H   0  0
    2.6570   -5.7750    0.0000 H   0  0
    4.1648   -7.7995    0.0000 H   0  0
    9.6308   -2.8841    0.0000 H   0  0
    7.3119   -6.0213    0.0000 H   0  0
    6.3052   -4.5944    0.0000 H   0  0
   10.0150   -3.4260    0.0000 H   0  0
   10.0011   -5.1727    0.0000 H   0  0
    9.6094   -5.7021    0.0000 H   0  0
    8.5455    1.3894    0.0000 H   0  0
    8.3407   -1.1022    0.0000 H   0  0
    6.4901    2.8126    0.0000 H   0  0
    4.2299    1.7441    0.0000 H   0  0
    1.5730    0.6800    0.0000 H   0  0
    2.9884    1.6781    0.0000 H   0  0
    1.9926    1.5875    0.0000 H   0  0
    1.8582   -4.8789    0.0000 H   0  0
   -0.3437   -6.0628    0.0000 H   0  0
   -2.3943   -2.2490    0.0000 H   0  0
   -1.4297    1.2228    0.0000 H   0  0
   -2.3379   -0.2520    0.0000 H   0  0
   -2.3094    0.7475    0.0000 H   0  0
   -5.0696   -4.6629    0.0000 H   0  0
   -4.1559   -3.1917    0.0000 H   0  0
   -5.0374   -3.6636    0.0000 H   0  0
    6.6315   -6.3677    0.0000 H   0  0
    6.1332    1.1792    0.0000 H   0  0
    7.0296    0.7357    0.0000 H   0  0
    5.3652   -0.3731    0.0000 H   0  0
    9.6908   -0.8577    0.0000 H   0  0
    9.2843    0.8258    0.0000 H   0  0
    9.9735    0.1014    0.0000 H   0  0
  1  3  2  0
  1  7  1  0
  1  2  1  0
  2  4  2  0
  2  9  1  0
  3  5  1  0
  4  6  1  0
  5  6  2  0
  5 23  1  0
  7  8  1  0
  7 10  1  0
  7 18  1  0
  8  9  1  0
  8 24  2  0
  9 25  1  0
 10 11  1  0
 10 12  1  0
 11 13  1  0
 11 39  1  0
 12 14  1  0
 13 14  1  0
 14 38  1  0
 15 16  1  0
 15 17  2  0
 16 18  2  0
 17 19  1  0
 18 20  1  0
 19 20  2  0
 20 21  1  0
 21 22  1  0
 25 26  2  0
 25 27  2  0
 25 28  1  0
 28 29  1  0
 28 30  2  0
 29 31  2  0
 30 32  1  0
 30 34  1  0
 31 33  1  0
 32 33  2  0
 33 36  1  0
 34 35  1  0
 36 37  1  0
 39 40  1  0
 39 41  2  0
 40 42  1  0
 40 43  1  0
  3 44  1  0
  4 45  1  0
  6 46  1  0
 11 47  1  0
 12 48  1  0
 12 49  1  0
 13 50  1  0
 13 51  1  0
 14 52  1  0
 15 53  1  0
 16 54  1  0
 17 55  1  0
 19 56  1  0
 22 57  1  0
 22 58  1  0
 22 59  1  0
 29 60  1  0
 31 61  1  0
 32 62  1  0
 35 63  1  0
 35 64  1  0
 35 65  1  0
 37 66  1  0
 37 67  1  0
 37 68  1  0
 38 69  1  0
 42 70  1  0
 42 71  1  0
 42 72  1  0
 43 73  1  0
 43 74  1  0
 43 75  1  0
V    1 0
V    2 1
V    3 2
V    4 3
V    5 4
V    6 5
V    7 6
V    8 7
V    9 8
V   10 9
V   11 10
V   12 11
V   13 12
V   14 13
V   15 14
V   16 15
V   17 16
V   18 17
V   19 18
V   20 19
V   21 20
V   22 21
V   23 22
V   24 23
V   25 24
V   26 25
V   27 26
V   28 27
V   29 28
V   30 29
V   31 30
V   32 31
V   33 32
V   34 33
V   35 34
V   36 35
V   37 36
V   38 37
V   39 38
V   40 39
V   41 40
V   42 41
V   43 42
M  END
> <DSSTox_RID>
66304

> <DSSTox_CID>
27358

> <DSSTox_CID_Parent>
27358

> <DSSTox_Generic_SID>
47358

> <DSSTox_FileID>
917_TXCST2_v1a

> <STRUCTURE_Formula>
C30H32ClN3O8S

> <STRUCTURE_MolecularWeight>
630.1084

> <STRUCTURE_ChemicalType>
defined organic

> <STRUCTURE_TestedForm_DefinedOrganic>
parent

> <STRUCTURE_Shown>
tested chemical

> <TestSubstance_ChemicalName>
Nelivaptan

> <TestSubstance_CASRN>
439687-69-1

> <TestSubstance_Description>
single chemical compound

> <ChemicalNote>
stereochem

> <STRUCTURE_ChemicalName_IUPAC>
(4R)-1-[(3R)-5-chloro-1-[(2,4-dimethoxyphenyl)sulfonyl]-3-(2-methoxyphenyl)-2-oxo-2,3-dihydro-1H-indol-3-yl]-4-hydroxy-N,N-dimethyl-L-prolinamide

> <STRUCTURE_SMILES>
ClC1=CC=C(N2S(=O)(C5=C(OC)C=C(OC)C=C5)=O)C([C@@](N3[C@H]([C@@](N(C)C)=O)C[C@@H](O)C3)([C@]4=CC=CC=C4OC)C2=O)=C1

> <STRUCTURE_Parent_SMILES>
ClC1=CC=C(N2S(=O)(C5=C(OC)C=C(OC)C=C5)=O)C([C@@](N3[C@H]([C@@](N(C)C)=O)C[C@@H](O)C3)([C@]4=CC=CC=C4OC)C2=O)=C1

> <STRUCTURE_InChIS>
InChI=1S/C30H32ClN3O8S/c1-32(2)28(36)24-15-19(35)17-33(24)30(21-8-6-7-9-25(21)41-4)22-14-18(31)10-12-23(22)34(29(30)37)43(38,39)27-13-11-20(40-3)16-26(27)42-5/h6-14,16,19,24,35H,15,17H2,1-5H3/t19-,24+
,30+/m1/s1

> <STRUCTURE_InChIKey>
NJXZWIIMWNEOGJ-WEWKHQNJSA-N

> <Substance_modify_yyyymmdd>
20100602

> <Coord_Metals>
0

> <Index>
917

> <Canonical_Smiles>
COc1ccc(c(OC)c1)S(=O)(=O)N2C(=O)C(N3CC(O)CC3C(=O)N(C)C)(c4ccccc4OC)c5cc(Cl)ccc25

> <Molecular_Weight>
630.10837

> <Frequency>
1

$$$$

  SciTegic          2D

 36 38  0  0  0  0            999 V2000
    0.0183    0.7705    0.0000 N   0  0
    0.0000    2.2749    0.0000 C   0  0
    1.5227    0.1101    0.0000 C   0  0
   -1.3209    0.0367    0.0000 C   0  0
   -0.6788    1.0274    0.0000 C   0  0
    1.9080   -1.4126    0.0000 C   0  0
   -1.6511   -1.4677    0.0000 C   0  0
   -0.6054   -0.7338    0.0000 C   0  0
    0.8439   -0.6604    0.0000 N   0  0
    1.3301    0.7656    0.0000 C   0  0
    0.5404    1.6691    0.0000 O   0  0
    2.8025    1.0564    0.0000 O   0  0
    3.2877    2.4767    0.0000 C   0  0
    4.7588    2.7695    0.0000 C   0  0
    2.2986    3.6045    0.0000 C   0  0
    5.2409    4.1899    0.0000 C   0  0
    2.7807    5.0249    0.0000 C   0  0
    4.2518    5.3176    0.0000 C   0  0
    4.6375    6.4540    0.0000 Br  0  0
   -0.7053    2.9838    0.0000 H   0  0
    0.9547    2.5725    0.0000 H   0  0
    2.4534   -0.2556    0.0000 H   0  0
    1.3158    1.0884    0.0000 H   0  0
   -2.2271   -0.3861    0.0000 H   0  0
   -1.1702    1.0253    0.0000 H   0  0
   -1.3268    0.2658    0.0000 H   0  0
   -0.9246    1.9967    0.0000 H   0  0
    2.9062   -1.3532    0.0000 H   0  0
    1.4941   -2.3230    0.0000 H   0  0
   -1.2236   -2.3717    0.0000 H   0  0
   -2.6501   -1.4221    0.0000 H   0  0
    0.0683    0.0051    0.0000 H   0  0
    5.4183    2.0177    0.0000 H   0  0
    1.3178    3.4093    0.0000 H   0  0
    6.2217    4.3851    0.0000 H   0  0
    2.1213    5.7767    0.0000 H   0  0
  1  2  1  0
  1  3  1  0
  1  4  1  0
  2  5  1  0
  3  6  1  0
  4  7  1  0
  5  8  1  0
  6  9  1  0
  7  8  1  0
  8  9  1  0
  9 10  1  0
 10 11  2  0
 10 12  1  0
 12 13  1  0
 13 14  1  0
 13 15  2  0
 14 16  2  0
 15 17  1  0
 16 18  1  0
 17 18  2  0
 18 19  1  0
  2 20  1  0
  2 21  1  0
  3 22  1  0
  3 23  1  0
  4 24  1  0
  4 25  1  0
  5 26  1  0
  5 27  1  0
  6 28  1  0
  6 29  1  0
  7 30  1  0
  7 31  1  0
  8 32  1  0
 14 33  1  0
 15 34  1  0
 16 35  1  0
 17 36  1  0
V    1 0
V    2 1
V    3 2
V    4 3
V    5 4
V    6 5
V    7 6
V    8 7
V    9 8
V   10 9
V   11 10
V   12 11
V   13 12
V   14 13
V   15 14
V   16 15
V   17 16
V   18 17
V   19 18
M  END
> <DSSTox_RID>
66305

> <DSSTox_CID>
27359

> <DSSTox_CID_Parent>
27359

> <DSSTox_Generic_SID>
47359

> <DSSTox_FileID>
918_TXCST2_v1a

> <STRUCTURE_Formula>
C14H17BrN2O2

> <STRUCTURE_MolecularWeight>
325.201

> <STRUCTURE_ChemicalType>
defined organic

> <STRUCTURE_TestedForm_DefinedOrganic>
parent

> <STRUCTURE_Shown>
tested chemical

> <TestSubstance_ChemicalName>
4-bromophenyl 1,4-diazabicyclo[3.2.2]nonane-4-carboxylate

> <TestSubstance_CASRN>
298198-52-4

> <TestSubstance_Description>
single chemical compound

> <STRUCTURE_ChemicalName_IUPAC>
4-bromophenyl 1,4-diazabicyclo[3.2.2]nonane-4-carboxylate

> <STRUCTURE_SMILES>
O=C(OC3=CC=C(Br)C=C3)N1CCN2CCC1CC2

> <STRUCTURE_Parent_SMILES>
O=C(OC3=CC=C(Br)C=C3)N1CCN2CCC1CC2

> <STRUCTURE_InChIS>
InChI=1S/C14H17BrN2O2/c15-11-1-3-13(4-2-11)19-14(18)17-10-9-16-7-5-12(17)6-8-16/h1-4,12H,5-10H2

> <STRUCTURE_InChIKey>
RXLOZRCLQMJJLC-UHFFFAOYSA-N

> <Substance_modify_yyyymmdd>
20100602

> <Coord_Metals>
0

> <Index>
918

> <Canonical_Smiles>
Brc1ccc(OC(=O)N2CCN3CCC2CC3)cc1

> <Molecular_Weight>
325.20098

> <Frequency>
1

$$$$

  SciTegic          2D

 54 56  0  0  0  0            999 V2000
    0.0000    0.7486    0.0000 C   0  0
    0.0000   -0.7486    0.0000 C   0  0
   -1.2964    1.4973    0.0000 C   0  0
   -1.2964   -1.4973    0.0000 C   0  0
   -2.6111    0.7486    0.0000 C   0  0
   -2.6111   -0.7486    0.0000 C   0  0
    1.2964    1.4973    0.0000 C   0  0
    2.5929    0.7486    0.0000 C   0  0
    1.2964   -1.4973    0.0000 C   0  0
    2.5929   -0.7486    0.0000 C   0  0
   -3.0793    2.1533    0.0000 N   0  0
   -4.5417    2.4906    0.0000 C   0  0
   -4.9817    3.9255    0.0000 C   0  0
   -6.4442    4.2628    0.0000 C   0  0
   -3.9588    5.0236    0.0000 O   0  0
   -7.4669    3.1655    0.0000 C   0  0
   -6.8830    5.6971    0.0000 C   0  0
   -8.9286    3.5026    0.0000 C   0  0
   -8.3447    6.0343    0.0000 C   0  0
   -9.3674    4.9370    0.0000 C   0  0
   -8.6958    7.1817    0.0000 Cl  0  0
    3.8942    1.4964    0.0000 O   0  0
    5.1929    0.7441    0.0000 C   0  0
    6.4942    1.4919    0.0000 C   0  0
    7.7928    0.7396    0.0000 O   0  0
    9.0941    1.4873    0.0000 C   0  0
   10.3928    0.7351    0.0000 C   0  0
    6.4963    2.6919    0.0000 O   0  0
   -2.1727    1.9791    0.0000 H   0  0
   -0.4173    1.9739    0.0000 H   0  0
   -2.1727   -1.9791    0.0000 H   0  0
   -0.4173   -1.9739    0.0000 H   0  0
   -3.4663    0.2303    0.0000 H   0  0
   -1.7351   -0.2664    0.0000 H   0  0
   -2.5849   -1.7483    0.0000 H   0  0
    1.2964    2.4973    0.0000 H   0  0
    1.2964   -2.4973    0.0000 H   0  0
    3.4589   -1.2486    0.0000 H   0  0
   -2.3977    2.8850    0.0000 H   0  0
   -4.2490    1.5344    0.0000 H   0  0
   -5.2233    1.7589    0.0000 H   0  0
   -5.2745    4.8817    0.0000 H   0  0
   -4.2511    5.9799    0.0000 H   0  0
   -7.1744    2.2093    0.0000 H   0  0
   -6.2012    6.4286    0.0000 H   0  0
   -9.6104    2.7711    0.0000 H   0  0
  -10.3418    5.1617    0.0000 H   0  0
    4.3260    0.2455    0.0000 H   0  0
    5.1911   -0.2559    0.0000 H   0  0
    8.2291    1.9890    0.0000 H   0  0
    9.0959    2.4873    0.0000 H   0  0
   11.2599    1.2333    0.0000 H   0  0
   11.2579    0.2334    0.0000 H   0  0
   10.3911   -0.2649    0.0000 H   0  0
  1  3  1  0
  1  7  1  0
  1  2  2  0
  2  4  1  0
  2  9  1  0
  3  5  1  0
  4  6  1  0
  5  6  1  0
  5 11  1  0
  7  8  2  0
  8 10  1  0
  8 22  1  0
  9 10  2  0
 11 12  1  0
 12 13  1  0
 13 14  1  0
 13 15  1  0
 14 16  1  0
 14 17  2  0
 16 18  2  0
 17 19  1  0
 18 20  1  0
 19 20  2  0
 19 21  1  0
 22 23  1  0
 23 24  1  0
 24 25  1  0
 24 28  2  0
 25 26  1  0
 26 27  1  0
  3 29  1  0
  3 30  1  0
  4 31  1  0
  4 32  1  0
  5 33  1  0
  6 34  1  0
  6 35  1  0
  7 36  1  0
  9 37  1  0
 10 38  1  0
 11 39  1  0
 12 40  1  0
 12 41  1  0
 13 42  1  0
 15 43  1  0
 16 44  1  0
 17 45  1  0
 18 46  1  0
 20 47  1  0
 23 48  1  0
 23 49  1  0
 26 50  1  0
 26 51  1  0
 27 52  1  0
 27 53  1  0
 27 54  1  0
V    1 0
V    2 1
V    3 2
V    4 3
V    5 4
V    6 5
V    7 6
V    8 7
V    9 8
V   10 9
V   11 10
V   12 11
V   13 12
V   14 13
V   15 14
V   16 15
V   17 16
V   18 17
V   19 18
V   20 19
V   21 20
V   22 21
V   23 22
V   24 23
V   25 24
V   26 25
V   27 26
V   28 27
M  END
> <DSSTox_RID>
66307

> <DSSTox_CID>
27360

> <DSSTox_CID_Parent>
27361

> <DSSTox_Generic_SID>
47360

> <DSSTox_FileID>
919_TXCST2_v1a

> <STRUCTURE_Formula>
C22H27Cl2NO4

> <STRUCTURE_MolecularWeight>
440.3601

> <STRUCTURE_ChemicalType>
defined organic

> <STRUCTURE_TestedForm_DefinedOrganic>
complex HCl

> <STRUCTURE_Shown>
tested chemical

> <TestSubstance_ChemicalName>
ethyl [(7-{[2-(3-chlorophenyl)-2-hydroxyethyl]amino}-5,6,7,8-tetrahydronaphthalen-2-yl)oxy]acetate hydrochloride

> <TestSubstance_CASRN>
929601-09-2

> <TestSubstance_Description>
single chemical compound

> <STRUCTURE_ChemicalName_IUPAC>
ethyl [(7-{[2-(3-chlorophenyl)-2-hydroxyethyl]amino}-5,6,7,8-tetrahydronaphthalen-2-yl)oxy]acetate hydrochloride

> <STRUCTURE_SMILES>
OC(C3=CC(Cl)=CC=C3)CNC1CC(C=C(OCC(OCC)=O)C=C2)=C2CC1.Cl

> <STRUCTURE_Parent_SMILES>
OC(C3=CC(Cl)=CC=C3)CNC1CC(C=C(OCC(OCC)=O)C=C2)=C2CC1

> <STRUCTURE_InChIS>
InChI=1S/C22H26ClNO4.ClH/c1-2-27-22(26)14-28-20-9-7-15-6-8-19(11-17(15)12-20)24-13-21(25)16-4-3-5-18(23)10-16;/h3-5,7,9-10,12,19,21,24-25H,2,6,8,11,13-14H2,1H3;1H

> <STRUCTURE_InChIKey>
NQIZCDQCNYCVAS-UHFFFAOYSA-N

> <Substance_modify_yyyymmdd>
20100602

> <Coord_Metals>
0

> <Index>
919

> <Canonical_Smiles>
CCOC(=O)COc1ccc2CCC(Cc2c1)NCC(O)c3cccc(Cl)c3

> <Molecular_Weight>
403.89914

> <Frequency>
1

$$$$

  SciTegic          2D

 38 40  0  0  0  0            999 V2000
    0.2917    0.7475    0.0000 C   0  0
    0.2917   -0.7475    0.0000 C   0  0
   -1.0028    1.5132    0.0000 C   0  0
   -1.0028   -1.5132    0.0000 C   0  0
   -2.3155    0.7475    0.0000 C   0  0
   -2.3155   -0.7475    0.0000 C   0  0
    1.7138    1.2033    0.0000 C   0  0
    2.5889    0.0182    0.0000 C   0  0
    1.7138   -1.2033    0.0000 O   0  0
    3.3218   -1.2767    0.0000 C   0  0
    3.3026    1.3234    0.0000 C   0  0
    2.5606   -2.5692    0.0000 C   0  0
    3.2994   -3.8747    0.0000 C   0  0
    4.7994   -3.8876    0.0000 C   0  0
    4.8217   -1.2896    0.0000 C   0  0
    5.5605   -2.5950    0.0000 C   0  0
    0.6986    2.2900    0.0000 N   0  0
    2.5434    2.6180    0.0000 O   0  0
    3.2841    3.9233    0.0000 C   0  0
    4.5026    1.3319    0.0000 O   0  0
    2.5249    5.2179    0.0000 C   0  0
   -0.9997    2.5132    0.0000 H   0  0
   -0.9997   -2.5132    0.0000 H   0  0
   -3.1826    1.2456    0.0000 H   0  0
   -3.1826   -1.2456    0.0000 H   0  0
    2.6948    1.3971    0.0000 H   0  0
    1.5607   -2.5606    0.0000 H   0  0
    2.7920   -4.7363    0.0000 H   0  0
    5.2919   -4.7578    0.0000 H   0  0
    5.3291   -0.4279    0.0000 H   0  0
    6.5605   -2.6036    0.0000 H   0  0
   -0.2792    2.0806    0.0000 H   0  0
    1.0059    3.2416    0.0000 H   0  0
    4.2841    3.9304    0.0000 H   0  0
    3.7904    3.0609    0.0000 H   0  0
    3.0185    6.0876    0.0000 H   0  0
    1.5249    5.2108    0.0000 H   0  0
    2.0186    6.0803    0.0000 H   0  0
  1  3  2  0
  1  7  1  0
  1  2  1  0
  2  4  2  0
  2  9  1  0
  3  5  1  0
  4  6  1  0
  5  6  2  0
  7  8  1  0
  7 17  1  0
  8  9  1  0
  8 10  1  0
  8 11  1  0
 10 12  2  0
 10 15  1  0
 11 18  1  0
 11 20  2  0
 12 13  1  0
 13 14  2  0
 14 16  1  0
 15 16  2  0
 18 19  1  0
 19 21  1  0
  3 22  1  0
  4 23  1  0
  5 24  1  0
  6 25  1  0
  7 26  1  0
 12 27  1  0
 13 28  1  0
 14 29  1  0
 15 30  1  0
 16 31  1  0
 17 32  1  0
 17 33  1  0
 19 34  1  0
 19 35  1  0
 21 36  1  0
 21 37  1  0
 21 38  1  0
V    1 0
V    2 1
V    3 2
V    4 3
V    5 4
V    6 5
V    7 6
V    8 7
V    9 8
V   10 9
V   11 10
V   12 11
V   13 12
V   14 13
V   15 14
V   16 15
V   17 16
V   18 17
V   19 18
V   20 19
V   21 20
M  END
> <DSSTox_RID>
66308

> <DSSTox_CID>
27362

> <DSSTox_CID_Parent>
27362

> <DSSTox_Generic_SID>
47362

> <DSSTox_FileID>
920_TXCST2_v1a

> <STRUCTURE_Formula>
C17H17NO3

> <STRUCTURE_MolecularWeight>
283.3218

> <STRUCTURE_ChemicalType>
defined organic

> <STRUCTURE_TestedForm_DefinedOrganic>
parent

> <STRUCTURE_Shown>
tested chemical

> <TestSubstance_ChemicalName>
ethyl (2R,3S)-3-amino-2-phenyl-2,3-dihydro-1-benzofuran-2-carboxylate

> <TestSubstance_CASRN>
NOCAS_47362

> <TestSubstance_Description>
single chemical compound

> <STRUCTURE_ChemicalName_IUPAC>
ethyl (2R,3S)-3-amino-2-phenyl-2,3-dihydro-1-benzofuran-2-carboxylate

> <STRUCTURE_SMILES>
N[C@H]2C1=CC=CC=C1O[C@@]([C@](OCC)=O)2C3=CC=CC=C3

> <STRUCTURE_Parent_SMILES>
N[C@H]2C1=CC=CC=C1O[C@@]([C@](OCC)=O)2C3=CC=CC=C3

> <STRUCTURE_InChIS>
InChI=1S/C17H17NO3/c1-2-20-16(19)17(12-8-4-3-5-9-12)15(18)13-10-6-7-11-14(13)21-17/h3-11,15H,2,18H2,1H3/t15-,17+/m0/s1

> <STRUCTURE_InChIKey>
MFYQEXGNAIUHIE-DOTOQJQBSA-N

> <Substance_modify_yyyymmdd>
20100602

> <Coord_Metals>
0

> <Index>
920

> <Canonical_Smiles>
CCOC(=O)C1(Oc2ccccc2C1N)c3ccccc3

> <Molecular_Weight>
283.32178

> <Frequency>
1

$$$$

  SciTegic          2D

 55 57  0  0  0  0            999 V2000
   -0.9819    4.9008    0.0000 C   0  0
    0.3193    4.1545    0.0000 C   0  0
   -0.9862    6.4007    0.0000 C   0  0
    1.6162    4.9082    0.0000 C   0  0
    0.3107    7.1545    0.0000 C   0  0
    1.6119    6.4082    0.0000 C   0  0
   -2.2865    7.1501    0.0000 O   0  0
   -2.2887    8.6510    0.0000 C   0  0
   -2.2810    4.1493    0.0000 O   0  0
   -3.5819    4.8979    0.0000 C   0  0
   -0.1900    2.7427    0.0000 C   0  0
    0.7773    1.5951    0.0000 C   0  0
   -1.6673    2.4783    0.0000 O   0  0
   -0.5203    0.8841    0.0000 C   0  0
   -0.5172   -0.6159    0.0000 C   0  0
    0.7834   -1.3632    0.0000 N   0  0
    2.0778    0.8895    0.0000 C   0  0
    2.0809   -0.6105    0.0000 C   0  0
    0.7865   -2.8640    0.0000 C   0  0
   -0.5112   -3.6179    0.0000 C   0  0
    0.4584   -6.2658    0.0000 C   0  0
   -0.0517   -7.6764    0.0000 C   0  0
   -0.5081   -5.1187    0.0000 C   0  0
   -1.5283   -7.9399    0.0000 C   0  0
   -1.9848   -5.3823    0.0000 C   0  0
   -2.4949   -6.7928    0.0000 C   0  0
   -1.9364   -9.0684    0.0000 F   0  0
    2.4836    4.4107    0.0000 H   0  0
    0.3079    8.1545    0.0000 H   0  0
    2.4765    6.9106    0.0000 H   0  0
   -3.1551    9.1503    0.0000 H   0  0
   -1.4232    9.1519    0.0000 H   0  0
   -2.2896    9.6510    0.0000 H   0  0
   -4.4475    4.3972    0.0000 H   0  0
   -3.5830    5.8979    0.0000 H   0  0
   -4.4484    5.3970    0.0000 H   0  0
   -0.8348    3.5070    0.0000 H   0  0
    1.6424    2.0968    0.0000 H   0  0
   -2.0075    1.5380    0.0000 H   0  0
   -0.4876    1.8836    0.0000 H   0  0
   -1.3801    0.3735    0.0000 H   0  0
   -1.3722   -0.0973    0.0000 H   0  0
   -0.4916   -1.6155    0.0000 H   0  0
    1.2308    0.3580    0.0000 H   0  0
    2.9397    0.3825    0.0000 H   0  0
    2.9338   -0.0884    0.0000 H   0  0
    2.0595   -1.6103    0.0000 H   0  0
    1.6537   -3.3619    0.0000 H   0  0
    1.6514   -2.3621    0.0000 H   0  0
   -1.3784   -3.1200    0.0000 H   0  0
   -1.3761   -4.1198    0.0000 H   0  0
    1.4429   -6.0901    0.0000 H   0  0
    0.5927   -8.4411    0.0000 H   0  0
   -2.6291   -4.6175    0.0000 H   0  0
   -3.4793   -6.9685    0.0000 H   0  0
  1  2  1  0
  1  3  2  0
  1  9  1  0
  2  4  2  0
  2 11  1  0
  3  5  1  0
  3  7  1  0
  4  6  1  0
  5  6  2  0
  7  8  1  0
  9 10  1  0
 11 12  1  0
 11 13  1  0
 12 14  1  0
 12 17  1  0
 14 15  1  0
 15 16  1  0
 16 18  1  0
 16 19  1  0
 17 18  1  0
 19 20  1  0
 20 23  1  0
 21 22  1  0
 21 23  2  0
 22 24  2  0
 23 25  1  0
 24 26  1  0
 24 27  1  0
 25 26  2  0
  4 28  1  0
  5 29  1  0
  6 30  1  0
  8 31  1  0
  8 32  1  0
  8 33  1  0
 10 34  1  0
 10 35  1  0
 10 36  1  0
 11 37  1  0
 12 38  1  0
 13 39  1  0
 14 40  1  0
 14 41  1  0
 15 42  1  0
 15 43  1  0
 17 44  1  0
 17 45  1  0
 18 46  1  0
 18 47  1  0
 19 48  1  0
 19 49  1  0
 20 50  1  0
 20 51  1  0
 21 52  1  0
 22 53  1  0
 25 54  1  0
 26 55  1  0
V    1 0
V    2 1
V    3 2
V    4 3
V    5 4
V    6 5
V    7 6
V    8 7
V    9 8
V   10 9
V   11 10
V   12 11
V   13 12
V   14 13
V   15 14
V   16 15
V   17 16
V   18 17
V   19 18
V   20 19
V   21 20
V   22 21
V   23 22
V   24 23
V   25 24
V   26 25
V   27 26
M  END
> <DSSTox_RID>
66309

> <DSSTox_CID>
27363

> <DSSTox_CID_Parent>
27363

> <DSSTox_Generic_SID>
47363

> <DSSTox_FileID>
921_TXCST2_v1a

> <STRUCTURE_Formula>
C22H28FNO3

> <STRUCTURE_MolecularWeight>
373.461

> <STRUCTURE_ChemicalType>
defined organic

> <STRUCTURE_TestedForm_DefinedOrganic>
parent

> <STRUCTURE_Shown>
tested chemical

> <TestSubstance_ChemicalName>
Volinanserin

> <TestSubstance_CASRN>
139290-65-6

> <TestSubstance_Description>
single chemical compound

> <ChemicalNote>
stereochem

> <STRUCTURE_ChemicalName_IUPAC>
(R)-(2,3-dimethoxyphenyl){1-[2-(4-fluorophenyl)ethyl]piperidin-4-yl}methanol

> <STRUCTURE_SMILES>
O[C@H](C2CCN(CCC3=CC=C(F)C=C3)CC2)C1=CC=CC(OC)=C1OC

> <STRUCTURE_Parent_SMILES>
O[C@H](C2CCN(CCC3=CC=C(F)C=C3)CC2)C1=CC=CC(OC)=C1OC

> <STRUCTURE_InChIS>
InChI=1S/C22H28FNO3/c1-26-20-5-3-4-19(22(20)27-2)21(25)17-11-14-24(15-12-17)13-10-16-6-8-18(23)9-7-16/h3-9,17,21,25H,10-15H2,1-2H3/t21-/m1/s1

> <STRUCTURE_InChIKey>
HXTGXYRHXAGCFP-OAQYLSRUSA-N

> <Substance_modify_yyyymmdd>
20100602

> <Coord_Metals>
0

> <Index>
921

> <Canonical_Smiles>
COc1cccc(C(O)C2CCN(CCc3ccc(F)cc3)CC2)c1OC

> <Molecular_Weight>
373.46102

> <Frequency>
1

$$$$

  SciTegic          2D

 51 54  0  0  0  0            999 V2000
    0.1097   -0.7859    0.0000 N   0  0
    1.4439   -1.4074    0.0000 C   0  0
   -1.3708   -1.4256    0.0000 C   0  0
    0.3655    1.0418    0.0000 C   0  0
    0.0000    0.5483    0.0000 C   0  0
    1.1880    0.0000    0.0000 C   0  0
   -1.5536    0.0000    0.0000 C   0  0
    0.0000    2.1385    0.0000 C   0  0
    1.1568    3.1259    0.0000 C   0  0
    0.9164    4.6073    0.0000 C   0  0
   -0.4859    5.1396    0.0000 C   0  0
    2.0786    5.5557    0.0000 C   0  0
   -0.7261    6.6202    0.0000 C   0  0
    1.8384    7.0363    0.0000 C   0  0
    0.4360    7.5686    0.0000 C   0  0
    2.5601    2.5938    0.0000 N   0  0
    3.7232    3.5423    0.0000 C   0  0
    3.5310    4.7268    0.0000 O   0  0
    5.1265    3.0102    0.0000 C   0  0
    6.2904    3.9565    0.0000 C   0  0
    5.3643    1.5291    0.0000 C   0  0
    7.6919    3.4218    0.0000 C   0  0
    6.7657    0.9944    0.0000 C   0  0
    7.9295    1.9407    0.0000 C   0  0
    4.4333    0.7719    0.0000 Cl  0  0
    6.1003    5.1413    0.0000 Cl  0  0
    7.0036   -0.4875    0.0000 C   0  0
    6.0730   -1.2452    0.0000 F   0  0
    8.1249   -0.9149    0.0000 F   0  0
    7.1943   -1.6723    0.0000 F   0  0
    2.4367   -1.2877    0.0000 H   0  0
    1.0770   -2.3376    0.0000 H   0  0
   -2.3707   -1.4369    0.0000 H   0  0
   -0.8706   -2.2915    0.0000 H   0  0
    0.7379    1.9699    0.0000 H   0  0
    0.9003    0.1968    0.0000 H   0  0
   -0.8163    1.1259    0.0000 H   0  0
    1.0258    0.9867    0.0000 H   0  0
    2.1030   -0.4036    0.0000 H   0  0
   -1.5142    0.9992    0.0000 H   0  0
   -2.4282   -0.4847    0.0000 H   0  0
   -0.9267    2.5142    0.0000 H   0  0
    1.9315    3.7583    0.0000 H   0  0
   -1.2607    4.5074    0.0000 H   0  0
    3.0135    5.2008    0.0000 H   0  0
   -1.6611    6.9751    0.0000 H   0  0
    2.6132    7.6685    0.0000 H   0  0
    0.2759    8.5557    0.0000 H   0  0
    2.7203    1.6067    0.0000 H   0  0
    8.4677    4.0527    0.0000 H   0  0
    8.8638    1.5843    0.0000 H   0  0
  1  2  1  0
  1  3  1  0
  1  4  1  0
  2  6  1  0
  3  7  1  0
  4  8  1  0
  5  6  1  0
  5  7  1  0
  8  5  1  0
  8  9  1  0
  9 10  1  0
  9 16  1  0
 10 11  1  0
 10 12  2  0
 11 13  2  0
 12 14  1  0
 13 15  1  0
 14 15  2  0
 16 17  1  0
 17 18  2  0
 17 19  1  0
 19 20  1  0
 19 21  2  0
 20 22  2  0
 20 26  1  0
 21 23  1  0
 21 25  1  0
 22 24  1  0
 23 24  2  0
 23 27  1  0
 27 28  1  0
 27 29  1  0
 27 30  1  0
  2 31  1  0
  2 32  1  0
  3 33  1  0
  3 34  1  0
  4 35  1  0
  4 36  1  0
  5 37  1  0
  6 38  1  0
  6 39  1  0
  7 40  1  0
  7 41  1  0
  8 42  1  0
  9 43  1  0
 11 44  1  0
 12 45  1  0
 13 46  1  0
 14 47  1  0
 15 48  1  0
 16 49  1  0
 22 50  1  0
 24 51  1  0
V    1 1
V    2 2
V    3 3
V    4 4
V    5 5
V    6 6
V    7 7
V    8 8
V    9 9
V   10 10
V   11 11
V   12 12
V   13 13
V   14 14
V   15 15
V   16 16
V   17 17
V   18 18
V   19 19
V   20 20
V   21 21
V   22 22
V   23 23
V   24 24
V   25 25
V   26 26
V   27 27
V   28 28
V   29 29
V   30 30
M  END
> <DSSTox_RID>
66311

> <DSSTox_CID>
27364

> <DSSTox_CID_Parent>
27365

> <DSSTox_Generic_SID>
47364

> <DSSTox_FileID>
922_TXCST2_v1a

> <STRUCTURE_Formula>
C22H22Cl3F3N2O

> <STRUCTURE_MolecularWeight>
493.7771

> <STRUCTURE_ChemicalType>
defined organic

> <STRUCTURE_TestedForm_DefinedOrganic>
complex HCl

> <STRUCTURE_Shown>
tested chemical

> <TestSubstance_ChemicalName>
N-[(S)-(3S)-1-azabicyclo[2.2.2]oct-3-yl(phenyl)methyl]-2,6-dichloro-3-(trifluoromethyl)benzamide hydrochloride (1:1)

> <TestSubstance_CASRN>
NOCAS_47364

> <TestSubstance_Description>
single chemical compound

> <ChemicalNote>
stereochem

> <STRUCTURE_ChemicalName_IUPAC>
N-[(S)-(3S)-1-azabicyclo[2.2.2]oct-3-yl(phenyl)methyl]-2,6-dichloro-3-(trifluoromethyl)benzamide hydrochloride (1:1)

> <STRUCTURE_SMILES>
O=C(C1=C(Cl)C(C(F)(F)F)=CC=C1Cl)N[C@H](C2=CC=CC=C2)C3C[N@@]4CC[C@H]3CC4.Cl

> <STRUCTURE_Parent_SMILES>
O=C(C1=C(Cl)C(C(F)(F)F)=CC=C1Cl)N[C@H](C2=CC=CC=C2)C3C[N@@]4CC[C@H]3CC4

> <STRUCTURE_InChIS>
InChI=1S/C22H21Cl2F3N2O.ClH/c23-17-7-6-16(22(25,26)27)19(24)18(17)21(30)28-20(14-4-2-1-3-5-14)15-12-29-10-8-13(15)9-11-29;/h1-7,13,15,20H,8-12H2,(H,28,30);1H/t15-,20-;/m1./s1

> <STRUCTURE_InChIKey>
QVUNQDRANLXLAJ-FOWJKZASSA-N

> <Substance_modify_yyyymmdd>
20100602

> <Coord_Metals>
0

> <Index>
922

> <Canonical_Smiles>
FC(F)(F)c1ccc(Cl)c(C(=O)NC(C2CN3CCC2CC3)c4ccccc4)c1Cl

> <Molecular_Weight>
457.31614

> <Frequency>
1

$$$$

  SciTegic          2D

 47 51  0  0  0  0            999 V2000
    0.2917    0.7475    0.0000 C   0  0
    0.2917   -0.7475    0.0000 C   0  0
   -1.0028    1.5132    0.0000 C   0  0
   -1.0028   -1.5132    0.0000 C   0  0
   -2.3155    0.7475    0.0000 C   0  0
   -2.3155   -0.7475    0.0000 C   0  0
    1.7138    1.2033    0.0000 C   0  0
    2.5889    0.0182    0.0000 C   0  0
    1.7138   -1.2033    0.0000 N   0  0
   -3.3560    1.3452    0.0000 F   0  0
    4.0872    0.0320    0.0000 C   0  0
    2.6410   -2.3802    0.0000 C   0  0
    2.0852   -3.7743    0.0000 C   0  0
    2.4588   -6.3454    0.0000 C   0  0
    0.9744   -6.5611    0.0000 C   0  0
    3.0142   -4.9520    0.0000 C   0  0
    0.0454   -5.3834    0.0000 C   0  0
    0.6008   -3.9900    0.0000 C   0  0
   -1.1421   -5.5559    0.0000 F   0  0
    4.6772    1.0770    0.0000 O   0  0
    4.8506   -1.2602    0.0000 N   0  0
    6.3513   -1.2462    0.0000 C   0  0
    9.3564   -1.2037    0.0000 C   0  0
    8.6305   -2.5107    0.0000 C   0  0
    8.5965    0.0942    0.0000 C   0  0
    7.1270   -2.5516    0.0000 C   0  0
    7.0772    0.0622    0.0000 C   0  0
   10.8209   -1.4958    0.0000 N   0  0
   10.9928   -2.9886    0.0000 C   0  0
    9.6524   -3.5996    0.0000 C   0  0
   -0.9997    2.5132    0.0000 H   0  0
   -0.9997   -2.5132    0.0000 H   0  0
   -3.1826   -1.2456    0.0000 H   0  0
    2.0210    2.1549    0.0000 H   0  0
    3.6306   -2.2367    0.0000 H   0  0
    3.0117   -1.4514    0.0000 H   0  0
    3.0781   -7.1306    0.0000 H   0  0
    0.6041   -7.4900    0.0000 H   0  0
    4.0038   -4.8083    0.0000 H   0  0
   -0.0185   -3.2049    0.0000 H   0  0
    4.3589   -2.1310    0.0000 H   0  0
    9.0847    0.9669    0.0000 H   0  0
    6.6444   -3.4274    0.0000 H   0  0
    6.5607    0.9185    0.0000 H   0  0
   11.5564   -0.8183    0.0000 H   0  0
   11.8635   -3.4804    0.0000 H   0  0
    9.4589   -4.5808    0.0000 H   0  0
  1  3  2  0
  1  7  1  0
  1  2  1  0
  2  4  2  0
  2  9  1  0
  3  5  1  0
  4  6  1  0
  5  6  2  0
  5 10  1  0
  7  8  2  0
  8  9  1  0
  8 11  1  0
  9 12  1  0
 11 20  2  0
 11 21  1  0
 12 13  1  0
 13 16  1  0
 13 18  2  0
 14 15  1  0
 14 16  2  0
 15 17  2  0
 17 18  1  0
 17 19  1  0
 21 22  1  0
 22 26  2  0
 22 27  1  0
 23 25  1  0
 23 28  1  0
 23 24  2  0
 24 26  1  0
 24 30  1  0
 25 27  2  0
 28 29  1  0
 29 30  2  0
  3 31  1  0
  4 32  1  0
  6 33  1  0
  7 34  1  0
 12 35  1  0
 12 36  1  0
 14 37  1  0
 15 38  1  0
 16 39  1  0
 18 40  1  0
 21 41  1  0
 25 42  1  0
 26 43  1  0
 27 44  1  0
 28 45  1  0
 29 46  1  0
 30 47  1  0
V    1 0
V    2 1
V    3 2
V    4 3
V    5 4
V    6 5
V    7 6
V    8 7
V    9 8
V   10 9
V   11 10
V   12 11
V   13 12
V   14 13
V   15 14
V   16 15
V   17 16
V   18 17
V   19 18
V   20 19
V   21 20
V   22 21
V   23 22
V   24 23
V   25 24
V   26 25
V   27 26
V   28 27
V   29 28
V   30 29
M  END
> <DSSTox_RID>
66312

> <DSSTox_CID>
27366

> <DSSTox_CID_Parent>
27366

> <DSSTox_Generic_SID>
47366

> <DSSTox_FileID>
923_TXCST2_v1a

> <STRUCTURE_Formula>
C24H17F2N3O

> <STRUCTURE_MolecularWeight>
401.4081

> <STRUCTURE_ChemicalType>
defined organic

> <STRUCTURE_TestedForm_DefinedOrganic>
parent

> <STRUCTURE_Shown>
tested chemical

> <TestSubstance_ChemicalName>
5-fluoro-1-(3-fluorobenzyl)-N-(1H-indol-5-yl)-1H-indole-2-carboxamide

> <TestSubstance_CASRN>
NOCAS_47366

> <TestSubstance_Description>
single chemical compound

> <STRUCTURE_ChemicalName_IUPAC>
5-fluoro-1-(3-fluorobenzyl)-N-(1H-indol-5-yl)-1H-indole-2-carboxamide

> <STRUCTURE_SMILES>
FC1=CC=C2C(C=C(C(NC5=CC=C4NC=CC4=C5)=O)N2CC3=CC(F)=CC=C3)=C1

> <STRUCTURE_Parent_SMILES>
FC1=CC=C2C(C=C(C(NC5=CC=C4NC=CC4=C5)=O)N2CC3=CC(F)=CC=C3)=C1

> <STRUCTURE_InChIS>
InChI=1S/C24H17F2N3O/c25-18-3-1-2-15(10-18)14-29-22-7-4-19(26)11-17(22)13-23(29)24(30)28-20-5-6-21-16(12-20)8-9-27-21/h1-13,27H,14H2,(H,28,30)

> <STRUCTURE_InChIKey>
OCSHTBUKRNOLMC-UHFFFAOYSA-N

> <Substance_modify_yyyymmdd>
20100602

> <Coord_Metals>
0

> <Index>
923

> <Canonical_Smiles>
Fc1cccc(Cn2c(cc3cc(F)ccc23)C(=O)Nc4ccc5[nH]ccc5c4)c1

> <Molecular_Weight>
401.40808

> <Frequency>
1

$$$$

  SciTegic          2D

 91 94  0  0  0  0            999 V2000
    1.2990   -0.7500    0.0000 C   0  0
    1.2990    0.7500    0.0000 C   0  0
    0.0000   -1.5000    0.0000 C   0  0
    0.0000    1.5000    0.0000 C   0  0
   -1.2990   -0.7500    0.0000 C   0  0
   -1.2990    0.7500    0.0000 C   0  0
    2.5987    1.5004    0.0000 N   0  0
    2.6012    3.0005    0.0000 C   0  0
    3.8967    0.7484    0.0000 C   0  0
    3.9014    3.7484    0.0000 C   0  0
    5.1969    1.4963    0.0000 C   0  0
    5.1993    2.9963    0.0000 C   0  0
    6.6501    2.7027    0.0000 C   0  0
    7.1275    1.2806    0.0000 C   0  0
    7.6429    3.8271    0.0000 C   0  0
    8.5977    0.9830    0.0000 C   0  0
    9.1131    3.5295    0.0000 C   0  0
    9.5905    2.1075    0.0000 C   0  0
   -0.0031   -3.0008    0.0000 N   0  0
   -1.3039   -3.7494    0.0000 C   0  0
    1.2969   -3.7508    0.0000 C   0  0
    2.5969   -3.0008    0.0000 C   0  0
   -1.3070   -5.2502    0.0000 C   0  0
   -2.6078   -5.9988    0.0000 N   0  0
   -2.6109   -7.4996    0.0000 C   0  0
   -3.9078   -5.2488    0.0000 C   0  0
   -2.6003   -1.4978    0.0000 C   0  0
   -2.6024   -2.6978    0.0000 O   0  0
   -3.8990   -0.7455    0.0000 N   0  0
   -3.8978    0.7553    0.0000 C   0  0
   -5.1981   -1.4972    0.0000 C   0  0
   -5.1976   -2.9980    0.0000 C   0  0
   -5.1965    1.5076    0.0000 C   0  0
    0.0000    3.0008    0.0000 S   0  0
   -1.0394    3.6005    0.0000 O   0  0
    1.2993    3.7521    0.0000 C   0  0
   -1.0391    2.4007    0.0000 O   0  0
    1.2992    5.2529    0.0000 C   0  0
    0.0002    6.0029    0.0000 C   0  0
    0.0002    7.5029    0.0000 C   0  0
    1.2992    8.2529    0.0000 C   0  0
    2.5983    6.0029    0.0000 C   0  0
    2.5983    7.5029    0.0000 C   0  0
    2.1651   -1.2500    0.0000 H   0  0
   -2.1651    1.2500    0.0000 H   0  0
    2.6264    4.0001    0.0000 H   0  0
    1.7463    2.4816    0.0000 H   0  0
    4.7735    0.2676    0.0000 H   0  0
    3.0184    0.2702    0.0000 H   0  0
    3.0246    4.2292    0.0000 H   0  0
    4.7797    4.2265    0.0000 H   0  0
    6.0517    2.0153    0.0000 H   0  0
    5.1718    0.4967    0.0000 H   0  0
    5.1773    3.9961    0.0000 H   0  0
    6.4656    0.5310    0.0000 H   0  0
    7.3247    4.7751    0.0000 H   0  0
    8.9159    0.0350    0.0000 H   0  0
    9.7750    4.2791    0.0000 H   0  0
   10.5706    1.9091    0.0000 H   0  0
   -2.1691   -3.2479    0.0000 H   0  0
   -1.3023   -2.7494    0.0000 H   0  0
    1.2969   -4.7508    0.0000 H   0  0
    0.4310   -4.2510    0.0000 H   0  0
    3.4631   -3.5006    0.0000 H   0  0
    2.5969   -2.0008    0.0000 H   0  0
    3.4629   -2.5007    0.0000 H   0  0
   -0.4418   -5.7517    0.0000 H   0  0
   -1.3086   -6.2502    0.0000 H   0  0
   -3.4776   -7.9984    0.0000 H   0  0
   -1.7457   -8.0011    0.0000 H   0  0
   -2.6125   -8.4996    0.0000 H   0  0
   -4.7740   -5.7485    0.0000 H   0  0
   -3.9078   -4.2488    0.0000 H   0  0
   -4.7737   -4.7486    0.0000 H   0  0
   -3.0313    1.2544    0.0000 H   0  0
   -3.0323    0.2545    0.0000 H   0  0
   -6.0644   -0.9977    0.0000 H   0  0
   -5.1989   -0.4972    0.0000 H   0  0
   -6.0631   -3.4988    0.0000 H   0  0
   -4.3312   -3.4974    0.0000 H   0  0
   -5.1968   -3.9980    0.0000 H   0  0
   -5.1957    2.5076    0.0000 H   0  0
   -6.0631    1.0085    0.0000 H   0  0
   -6.0621    2.0084    0.0000 H   0  0
    2.1654    3.2523    0.0000 H   0  0
    2.1652    4.2522    0.0000 H   0  0
   -0.8658    5.5029    0.0000 H   0  0
   -0.8658    8.0029    0.0000 H   0  0
    1.2992    9.2529    0.0000 H   0  0
    3.4643    5.5029    0.0000 H   0  0
    3.4643    8.0029    0.0000 H   0  0
  1  2  1  0
  1  3  2  0
  2  4  2  0
  2  7  1  0
  3  5  1  0
  3 19  1  0
  4  6  1  0
  4 34  1  0
  5  6  2  0
  5 27  1  0
  7  8  1  0
  7  9  1  0
  8 10  1  0
  9 11  1  0
 10 12  1  0
 11 12  1  0
 12 13  1  0
 13 14  1  0
 13 15  2  0
 14 16  2  0
 15 17  1  0
 16 18  1  0
 17 18  2  0
 19 20  1  0
 19 21  1  0
 20 23  1  0
 21 22  1  0
 23 24  1  0
 24 25  1  0
 24 26  1  0
 27 28  2  0
 27 29  1  0
 29 30  1  0
 29 31  1  0
 30 33  1  0
 31 32  1  0
 34 35  2  0
 34 36  1  0
 34 37  2  0
 36 38  1  0
 38 39  2  0
 38 42  1  0
 39 40  1  0
 40 41  2  0
 41 43  1  0
 42 43  2  0
  1 44  1  0
  6 45  1  0
  8 46  1  0
  8 47  1  0
  9 48  1  0
  9 49  1  0
 10 50  1  0
 10 51  1  0
 11 52  1  0
 11 53  1  0
 12 54  1  0
 14 55  1  0
 15 56  1  0
 16 57  1  0
 17 58  1  0
 18 59  1  0
 20 60  1  0
 20 61  1  0
 21 62  1  0
 21 63  1  0
 22 64  1  0
 22 65  1  0
 22 66  1  0
 23 67  1  0
 23 68  1  0
 25 69  1  0
 25 70  1  0
 25 71  1  0
 26 72  1  0
 26 73  1  0
 26 74  1  0
 30 75  1  0
 30 76  1  0
 31 77  1  0
 31 78  1  0
 32 79  1  0
 32 80  1  0
 32 81  1  0
 33 82  1  0
 33 83  1  0
 33 84  1  0
 36 85  1  0
 36 86  1  0
 39 87  1  0
 40 88  1  0
 41 89  1  0
 42 90  1  0
 43 91  1  0
V    1 0
V    2 1
V    3 2
V    4 3
V    5 4
V    6 5
V    7 6
V    8 7
V    9 8
V   10 9
V   11 10
V   12 11
V   13 12
V   14 13
V   15 14
V   16 15
V   17 16
V   18 17
V   19 18
V   20 19
V   21 20
V   22 21
V   23 22
V   24 23
V   25 24
V   26 25
V   27 26
V   28 27
V   29 28
V   30 29
V   31 30
V   32 31
V   33 32
V   34 33
V   35 34
V   36 35
V   37 36
V   38 37
V   39 38
V   40 39
V   41 40
V   42 41
V   43 42
M  END
> <DSSTox_RID>
66313

> <DSSTox_CID>
27367

> <DSSTox_CID_Parent>
27367

> <DSSTox_Generic_SID>
47367

> <DSSTox_FileID>
924_TXCST2_v1a

> <STRUCTURE_Formula>
C35H48N4O3S

> <STRUCTURE_MolecularWeight>
604.8456

> <STRUCTURE_ChemicalType>
defined organic

> <STRUCTURE_TestedForm_DefinedOrganic>
parent

> <STRUCTURE_Shown>
tested chemical

> <TestSubstance_ChemicalName>
5-(benzylsulfonyl)-2-{[2-(dimethylamino)ethyl](ethyl)amino}-N,N-diethyl-4-(4-phenylpiperidin-1-yl)benzamide

> <TestSubstance_CASRN>
NOCAS_47367

> <TestSubstance_Description>
single chemical compound

> <STRUCTURE_ChemicalName_IUPAC>
5-(benzylsulfonyl)-2-{[2-(dimethylamino)ethyl](ethyl)amino}-N,N-diethyl-4-(4-phenylpiperidin-1-yl)benzamide

> <STRUCTURE_SMILES>
O=C(N(CC)CC)C1=CC(S(=O)(CC4=CC=CC=C4)=O)=C(N2CCC(C3=CC=CC=C3)CC2)C=C1N(CC)CCN(C)C

> <STRUCTURE_Parent_SMILES>
O=C(N(CC)CC)C1=CC(S(=O)(CC4=CC=CC=C4)=O)=C(N2CCC(C3=CC=CC=C3)CC2)C=C1N(CC)CCN(C)C

> <STRUCTURE_InChIS>
InChI=1S/C35H48N4O3S/c1-6-37(7-2)35(40)31-25-34(43(41,42)27-28-15-11-9-12-16-28)33(26-32(31)38(8-3)24-23-36(4)5)39-21-19-30(20-22-39)29-17-13-10-14-18-29/h9-18,25-26,30H,6-8,19-24,27H2,1-5H3

> <STRUCTURE_InChIKey>
AUEUBSJNKBZSKK-UHFFFAOYSA-N

> <Substance_modify_yyyymmdd>
20100602

> <Coord_Metals>
0

> <Index>
924

> <Canonical_Smiles>
CCN(CC)C(=O)c1cc(c(cc1N(CC)CCN(C)C)N2CCC(CC2)c3ccccc3)S(=O)(=O)Cc4ccccc4

> <Molecular_Weight>
604.84561

> <Frequency>
1

$$$$

  SciTegic          2D

 71 75  0  0  0  0            999 V2000
    0.0000    0.7486    0.0000 C   0  0
    0.0000   -0.7486    0.0000 N   0  0
   -1.2964    1.4973    0.0000 N   0  0
   -1.2964   -1.4973    0.0000 C   0  0
   -2.6111    0.7486    0.0000 C   0  0
   -2.6111   -0.7486    0.0000 C   0  0
    1.2964    1.4973    0.0000 C   0  0
    2.5929    0.7486    0.0000 C   0  0
    1.2964   -1.4973    0.0000 C   0  0
    2.5929   -0.7486    0.0000 C   0  0
   -1.2928   -2.6973    0.0000 O   0  0
   -3.9091    1.5019    0.0000 O   0  0
   -3.9067    3.0027    0.0000 C   0  0
   -5.2049    3.7560    0.0000 N   0  0
   -9.0493    4.2162    0.0000 C   0  0
   -7.5455    4.2435    0.0000 C   0  0
   -9.8131    5.5301    0.0000 C   0  0
   -6.8077    5.5438    0.0000 C   0  0
   -9.0753    6.8303    0.0000 C   0  0
   -7.5557    6.8486    0.0000 C   0  0
   -6.5336    3.1452    0.0000 S   0  0
   -5.3459    5.2384    0.0000 C   0  0
   -4.4516    6.0386    0.0000 O   0  0
   -6.8077    8.1493    0.0000 C   0  0
   -5.3069    8.1527    0.0000 C   0  0
   -7.5606    9.4475    0.0000 C   0  0
   -7.6760    2.7781    0.0000 O   0  0
   -5.6208    2.3663    0.0000 O   0  0
  -11.3139    5.5319    0.0000 O   0  0
  -12.0634    6.8322    0.0000 C   0  0
    1.2995    2.9981    0.0000 O   0  0
    2.6003    3.7467    0.0000 C   0  0
    2.6034    5.2475    0.0000 C   0  0
    3.9042    5.9961    0.0000 N   0  0
    6.5045    7.4924    0.0000 C   0  0
    6.5023    5.9924    0.0000 C   0  0
    5.2065    8.2442    0.0000 C   0  0
    5.2022    5.2442    0.0000 C   0  0
    3.9064    7.4961    0.0000 C   0  0
   -3.4756   -1.2512    0.0000 H   0  0
    3.4589    1.2486    0.0000 H   0  0
    1.2964   -2.4973    0.0000 H   0  0
    3.4589   -1.2486    0.0000 H   0  0
   -3.0398    3.5011    0.0000 H   0  0
   -3.0416    2.5013    0.0000 H   0  0
   -9.5401    3.3450    0.0000 H   0  0
   -9.5838    7.6915    0.0000 H   0  0
   -6.3060    7.2843    0.0000 H   0  0
   -4.8083    9.0196    0.0000 H   0  0
   -4.8052    7.2877    0.0000 H   0  0
   -4.3069    8.1545    0.0000 H   0  0
   -7.0628   10.3149    0.0000 H   0  0
   -8.5606    9.4453    0.0000 H   0  0
   -8.0627   10.3123    0.0000 H   0  0
  -13.0634    6.8335    0.0000 H   0  0
  -11.5625    7.6977    0.0000 H   0  0
  -12.5624    7.6988    0.0000 H   0  0
    3.4655    3.2452    0.0000 H   0  0
    2.5988    2.7467    0.0000 H   0  0
    1.7383    5.7490    0.0000 H   0  0
    2.6050    6.2475    0.0000 H   0  0
    7.3577    6.9709    0.0000 H   0  0
    6.4824    8.4921    0.0000 H   0  0
    6.4773    4.9927    0.0000 H   0  0
    7.3571    6.5114    0.0000 H   0  0
    5.1815    7.2445    0.0000 H   0  0
    4.3296    8.7250    0.0000 H   0  0
    6.0791    4.7636    0.0000 H   0  0
    4.3240    4.7660    0.0000 H   0  0
    3.9314    8.4958    0.0000 H   0  0
    3.0516    6.9771    0.0000 H   0  0
  1  3  2  0
  1  7  1  0
  1  2  1  0
  2  4  1  0
  2  9  1  0
  3  5  1  0
  4  6  1  0
  4 11  2  0
  5  6  2  0
  5 12  1  0
  7  8  2  0
  7 31  1  0
  8 10  1  0
  9 10  2  0
 12 13  1  0
 13 14  1  0
 14 21  1  0
 14 22  1  0
 15 16  1  0
 15 17  2  0
 16 18  2  0
 16 21  1  0
 17 19  1  0
 17 29  1  0
 18 20  1  0
 18 22  1  0
 19 20  2  0
 20 24  1  0
 21 27  2  0
 21 28  2  0
 22 23  2  0
 24 25  1  0
 24 26  1  0
 29 30  1  0
 31 32  1  0
 32 33  1  0
 33 34  1  0
 34 38  1  0
 34 39  1  0
 35 36  1  0
 35 37  1  0
 36 38  1  0
 37 39  1  0
  6 40  1  0
  8 41  1  0
  9 42  1  0
 10 43  1  0
 13 44  1  0
 13 45  1  0
 15 46  1  0
 19 47  1  0
 24 48  1  0
 25 49  1  0
 25 50  1  0
 25 51  1  0
 26 52  1  0
 26 53  1  0
 26 54  1  0
 30 55  1  0
 30 56  1  0
 30 57  1  0
 32 58  1  0
 32 59  1  0
 33 60  1  0
 33 61  1  0
 35 62  1  0
 35 63  1  0
 36 64  1  0
 36 65  1  0
 37 66  1  0
 37 67  1  0
 38 68  1  0
 38 69  1  0
 39 70  1  0
 39 71  1  0
V    1 0
V    2 1
V    3 2
V    4 3
V    5 4
V    6 5
V    7 6
V    8 7
V    9 8
V   10 9
V   11 10
V   12 11
V   13 12
V   14 13
V   15 14
V   16 15
V   17 16
V   18 17
V   19 18
V   20 19
V   21 20
V   22 21
V   23 22
V   24 23
V   25 24
V   26 25
V   27 26
V   28 27
V   29 28
V   30 29
V   31 30
V   32 31
V   33 32
V   34 33
V   35 34
V   36 35
V   37 36
V   38 37
V   39 38
M  END
> <DSSTox_RID>
66314

> <DSSTox_CID>
27368

> <DSSTox_CID_Parent>
27368

> <DSSTox_Generic_SID>
47368

> <DSSTox_FileID>
925_TXCST2_v1a

> <STRUCTURE_Formula>
C27H32N4O7S

> <STRUCTURE_MolecularWeight>
556.6306

> <STRUCTURE_ChemicalType>
defined organic

> <STRUCTURE_TestedForm_DefinedOrganic>
parent

> <STRUCTURE_Shown>
tested chemical

> <TestSubstance_ChemicalName>
2-{[6-methoxy-1,1-dioxido-3-oxo-4-(propan-2-yl)-1,2-benzothiazol-2(3H)-yl]methoxy}-9-[2-(piperidin-1-yl)ethoxy]-4H-pyrido[1,2-a]pyrimidin-4-one

> <TestSubstance_CASRN>
344930-95-6

> <TestSubstance_Description>
single chemical compound

> <STRUCTURE_ChemicalName_IUPAC>
2-{[6-methoxy-1,1-dioxido-3-oxo-4-(propan-2-yl)-1,2-benzothiazol-2(3H)-yl]methoxy}-9-[2-(piperidin-1-yl)ethoxy]-4H-pyrido[1,2-a]pyrimidin-4-one

> <STRUCTURE_SMILES>
O=C1N2C(C(OCCN5CCCCC5)=CC=C2)=NC(OCN(C4=O)S(C3=C4C(C(C)C)=CC(OC)=C3)(=O)=O)=C1

> <STRUCTURE_Parent_SMILES>
O=C1N2C(C(OCCN5CCCCC5)=CC=C2)=NC(OCN(C4=O)S(C3=C4C(C(C)C)=CC(OC)=C3)(=O)=O)=C1

> <STRUCTURE_InChIS>
InChI=1S/C27H32N4O7S/c1-18(2)20-14-19(36-3)15-22-25(20)27(33)31(39(22,34)35)17-38-23-16-24(32)30-11-7-8-21(26(30)28-23)37-13-12-29-9-5-4-6-10-29/h7-8,11,14-16,18H,4-6,9-10,12-13,17H2,1-3H3

> <STRUCTURE_InChIKey>
DRZXDZYWZSKFDL-UHFFFAOYSA-N

> <Substance_modify_yyyymmdd>
20100602

> <Coord_Metals>
0

> <Index>
925

> <Canonical_Smiles>
COc1cc(C(C)C)c2C(=O)N(COC3=CC(=O)N4C=CC=C(OCCN5CCCCC5)C4=N3)S(=O)(=O)c2c1

> <Molecular_Weight>
556.63057

> <Frequency>
1

$$$$

  SciTegic          2D

 78 82  0  0  0  0            999 V2000
   -0.4019   -0.7166    0.0000 C   0  0
    0.7550    0.2304    0.0000 C   0  0
   -1.8144   -0.2000    0.0000 C   0  0
    0.5276    1.7171    0.0000 C   0  0
   -2.0533    1.3009    0.0000 C   0  0
   -0.8965    2.2478    0.0000 C   0  0
    0.1462   -2.1057    0.0000 N   0  0
    1.6175   -2.0323    0.0000 C   0  0
    2.0084   -0.5814    0.0000 C   0  0
   -1.1489    3.7272    0.0000 C   0  0
   -2.9699   -1.1571    0.0000 C   0  0
   -0.6622   -3.3676    0.0000 C   0  0
    0.0266   -4.7011    0.0000 C   0  0
    1.2253   -4.7569    0.0000 O   0  0
   -0.7830   -5.9648    0.0000 O   0  0
    2.5559   -3.2004    0.0000 C   0  0
    4.0393   -2.9726    0.0000 N   0  0
    4.9791   -4.1427    0.0000 C   0  0
    6.4638   -4.0563    0.0000 S   0  0
    4.5684   -5.5722    0.0000 N   0  0
    6.9929   -5.4599    0.0000 C   0  0
    5.8214   -6.3968    0.0000 C   0  0
    5.8908   -7.8959    0.0000 C   0  0
    7.1202  -10.1793    0.0000 C   0  0
    5.8000  -10.8913    0.0000 C   0  0
    7.1638   -8.6800    0.0000 C   0  0
    4.5233  -10.1039    0.0000 C   0  0
    4.5668   -8.6045    0.0000 C   0  0
    8.4377   -5.8565    0.0000 C   0  0
    9.5060   -4.8024    0.0000 C   0  0
   10.9533   -5.1997    0.0000 C   0  0
   12.4182   -3.0977    0.0000 C   0  0
   11.0550   -3.7236    0.0000 C   0  0
   13.6418   -3.9653    0.0000 C   0  0
   13.5022   -5.4588    0.0000 C   0  0
   12.1390   -6.0847    0.0000 C   0  0
    3.2888   -7.8177    0.0000 O   0  0
    1.9679   -8.5303    0.0000 C   0  0
    5.7651  -12.0908    0.0000 Cl  0  0
    8.3993  -10.9646    0.0000 O   0  0
    9.7193  -10.2503    0.0000 C   0  0
    2.1210   -4.3189    0.0000 O   0  0
    1.3033    2.3481    0.0000 H   0  0
   -2.9880    1.6564    0.0000 H   0  0
    2.9420   -0.2230    0.0000 H   0  0
   -0.3799    4.3664    0.0000 H   0  0
   -2.0869    4.0740    0.0000 H   0  0
   -1.3178    4.7129    0.0000 H   0  0
   -2.8031   -2.1431    0.0000 H   0  0
   -3.9074   -0.8089    0.0000 H   0  0
   -3.7403   -1.7947    0.0000 H   0  0
   -1.2020   -4.2094    0.0000 H   0  0
   -1.6611   -3.3211    0.0000 H   0  0
   -0.3241   -6.8533    0.0000 H   0  0
    4.4018   -2.0406    0.0000 H   0  0
    8.0438   -8.2051    0.0000 H   0  0
    3.6431  -10.5785    0.0000 H   0  0
    8.6903   -6.8241    0.0000 H   0  0
    7.7262   -6.5592    0.0000 H   0  0
    9.2534   -3.8348    0.0000 H   0  0
    8.5418   -4.5373    0.0000 H   0  0
   10.8604   -6.1953    0.0000 H   0  0
   11.5891   -2.5387    0.0000 H   0  0
   13.3366   -2.7019    0.0000 H   0  0
   10.1613   -4.1721    0.0000 H   0  0
   11.8648   -4.3103    0.0000 H   0  0
   13.7113   -2.9678    0.0000 H   0  0
   14.4437   -4.5628    0.0000 H   0  0
   14.4009   -5.0202    0.0000 H   0  0
   13.3858   -6.4520    0.0000 H   0  0
   11.2163   -6.4701    0.0000 H   0  0
   12.2219   -5.0881    0.0000 H   0  0
    1.1164   -8.0060    0.0000 H   0  0
    1.9394   -9.5299    0.0000 H   0  0
    1.0881   -9.0055    0.0000 H   0  0
   10.5715  -10.7735    0.0000 H   0  0
    9.7466   -9.2507    0.0000 H   0  0
   10.5985   -9.7740    0.0000 H   0  0
  1  3  2  0
  1  7  1  0
  1  2  1  0
  2  4  2  0
  2  9  1  0
  3  5  1  0
  3 11  1  0
  4  6  1  0
  5  6  2  0
  6 10  1  0
  7  8  1  0
  7 12  1  0
  8  9  2  0
  8 16  1  0
 12 13  1  0
 13 14  2  0
 13 15  1  0
 16 17  1  0
 16 42  2  0
 17 18  1  0
 18 19  1  0
 18 20  2  0
 19 21  1  0
 20 22  1  0
 21 22  2  0
 21 29  1  0
 22 23  1  0
 23 26  2  0
 23 28  1  0
 24 25  2  0
 24 26  1  0
 24 40  1  0
 25 27  1  0
 25 39  1  0
 27 28  2  0
 28 37  1  0
 29 30  1  0
 30 31  1  0
 31 33  1  0
 31 36  1  0
 32 33  1  0
 32 34  1  0
 34 35  1  0
 35 36  1  0
 37 38  1  0
 40 41  1  0
  4 43  1  0
  5 44  1  0
  9 45  1  0
 10 46  1  0
 10 47  1  0
 10 48  1  0
 11 49  1  0
 11 50  1  0
 11 51  1  0
 12 52  1  0
 12 53  1  0
 15 54  1  0
 17 55  1  0
 26 56  1  0
 27 57  1  0
 29 58  1  0
 29 59  1  0
 30 60  1  0
 30 61  1  0
 31 62  1  0
 32 63  1  0
 32 64  1  0
 33 65  1  0
 33 66  1  0
 34 67  1  0
 34 68  1  0
 35 69  1  0
 35 70  1  0
 36 71  1  0
 36 72  1  0
 38 73  1  0
 38 74  1  0
 38 75  1  0
 41 76  1  0
 41 77  1  0
 41 78  1  0
V    1 0
V    2 1
V    3 2
V    4 3
V    5 4
V    6 5
V    7 6
V    8 7
V    9 8
V   10 9
V   11 10
V   12 11
V   13 12
V   14 13
V   15 14
V   16 15
V   17 16
V   18 17
V   19 18
V   20 19
V   21 20
V   22 21
V   23 22
V   24 23
V   25 24
V   26 25
V   27 26
V   28 27
V   29 28
V   30 29
V   31 30
V   32 31
V   33 32
V   34 33
V   35 34
V   36 35
V   37 36
V   38 37
V   39 38
V   40 39
V   41 40
V   42 41
M  END
> <DSSTox_RID>
66316

> <DSSTox_CID>
27369

> <DSSTox_CID_Parent>
27370

> <DSSTox_Generic_SID>
47369

> <DSSTox_FileID>
926_TXCST2_v1a

> <STRUCTURE_Formula>
C34H37ClF3N3O7S

> <STRUCTURE_MolecularWeight>
724.1867

> <STRUCTURE_ChemicalType>
defined organic

> <STRUCTURE_TestedForm_DefinedOrganic>
complex trifluoroacetic acid

> <STRUCTURE_Shown>
tested chemical

> <TestSubstance_ChemicalName>
(2-{[4-(4-chloro-2,5-dimethoxyphenyl)-5-(2-cyclohexylethyl)-1,3-thiazol-2-yl]carbamoyl}-5,7-dimethyl-1H-indol-1-yl)acetic acid trifluoroacetate

> <TestSubstance_CASRN>
221671-62-1

> <TestSubstance_Description>
single chemical compound

> <STRUCTURE_ChemicalName_IUPAC>
(2-{[4-(4-chloro-2,5-dimethoxyphenyl)-5-(2-cyclohexylethyl)-1,3-thiazol-2-yl]carbamoyl}-5,7-dimethyl-1H-indol-1-yl)acetic acid trifluoroacetate

> <STRUCTURE_SMILES>
O=C(O)CN2C1=C(C)C=C(C)C=C1C=C2C(NC3=NC(C4=C(OC)C=C(Cl)C(OC)=C4)=C(CCC5CCCCC5)S3)=O.O=C(C(F)(F)F)O

> <STRUCTURE_Parent_SMILES>
O=C(O)CN2C1=C(C)C=C(C)C=C1C=C2C(NC3=NC(C4=C(OC)C=C(Cl)C(OC)=C4)=C(CCC5CCCCC5)S3)=O

> <STRUCTURE_InChIS>
InChI=1S/C32H36ClN3O5S.C2HF3O2/c1-18-12-19(2)30-21(13-18)14-24(36(30)17-28(37)38)31(39)35-32-34-29(22-15-26(41-4)23(33)16-25(22)40-3)27(42-32)11-10-20-8-6-5-7-9-20;3-2(4,5)1(6)7/h12-16,20H,5-11,17H2,1
-4H3,(H,37,38)(H,34,35,39);(H,6,7)

> <STRUCTURE_InChIKey>
UJGBTZUTZSMGCO-UHFFFAOYSA-N

> <Substance_modify_yyyymmdd>
20100602

> <Coord_Metals>
0

> <Index>
926

> <Canonical_Smiles>
COc1cc(c(OC)cc1Cl)c2nc(NC(=O)c3cc4cc(C)cc(C)c4n3CC(=O)O)sc2CCC5CCCCC5

> <Molecular_Weight>
610.16333

> <Frequency>
1

$$$$

  SciTegic          2D

 53 56  0  0  0  0            999 V2000
    4.2750    1.3115    0.0000 C   0  0
    3.7620    2.7211    0.0000 C   0  0
    3.3109    0.1625    0.0000 C   0  0
    2.2848    2.9815    0.0000 C   0  0
    1.8336    0.4229    0.0000 C   0  0
    1.3206    1.8325    0.0000 C   0  0
    5.0617    3.4717    0.0000 C   0  0
    3.7632    4.1813    0.0000 C   0  0
    6.3613    4.1790    0.0000 C   0  0
    3.7646    5.6813    0.0000 C   0  0
    6.3626    5.6790    0.0000 C   0  0
    5.0642    6.4301    0.0000 N   0  0
   -0.1574    2.0931    0.0000 C   0  0
   -0.6716    3.5031    0.0000 N   0  0
    5.0686    7.9310    0.0000 C   0  0
    6.1098    8.5276    0.0000 O   0  0
    3.7716    8.6860    0.0000 C   0  0
    3.6359   10.1670    0.0000 C   0  0
    2.1692   10.4811    0.0000 C   0  0
    1.4172    9.1832    0.0000 C   0  0
    2.4192    8.0670    0.0000 O   0  0
   -0.0731    9.0289    0.0000 C   0  0
   -1.5659    8.8742    0.0000 C   0  0
   -3.0587    8.7196    0.0000 C   0  0
   -5.9685    9.4498    0.0000 C   0  0
   -4.9249   10.5272    0.0000 C   0  0
   -5.5572    8.0072    0.0000 C   0  0
   -3.4700   10.1621    0.0000 C   0  0
   -4.1023    7.6422    0.0000 C   0  0
   -2.6351   11.0241    0.0000 F   0  0
    5.2598    1.1379    0.0000 H   0  0
    3.6529   -0.7772    0.0000 H   0  0
    1.9428    3.9212    0.0000 H   0  0
    1.1909   -0.3431    0.0000 H   0  0
    5.9268    2.9701    0.0000 H   0  0
    4.6118    4.7103    0.0000 H   0  0
    2.9029    4.6909    0.0000 H   0  0
    6.3258    3.1796    0.0000 H   0  0
    7.2226    4.6872    0.0000 H   0  0
    2.9101    5.1617    0.0000 H   0  0
    3.7889    6.6810    0.0000 H   0  0
    7.2162    5.1580    0.0000 H   0  0
    6.3400    6.6788    0.0000 H   0  0
   -0.8000    1.3268    0.0000 H   0  0
   -1.1423    2.2663    0.0000 H   0  0
   -1.6564    3.6767    0.0000 H   0  0
   -0.0291    4.2693    0.0000 H   0  0
    4.3840   10.8306    0.0000 H   0  0
    1.7638   11.3953    0.0000 H   0  0
   -6.9385    9.6931    0.0000 H   0  0
   -5.1991   11.4889    0.0000 H   0  0
   -6.2530    7.2890    0.0000 H   0  0
   -3.8282    6.6805    0.0000 H   0  0
  1  2  1  0
  1  3  2  0
  2  4  2  0
  2  7  1  0
  3  5  1  0
  4  6  1  0
  5  6  2  0
  6 13  1  0
  7  8  1  0
  7  9  1  0
  8 10  1  0
  9 11  1  0
 10 12  1  0
 11 12  1  0
 12 15  1  0
 13 14  1  0
 15 16  2  0
 15 17  1  0
 17 18  2  0
 17 21  1  0
 18 19  1  0
 19 20  2  0
 20 21  1  0
 20 22  1  0
 22 23  3  0
 23 24  1  0
 24 28  1  0
 24 29  2  0
 25 26  1  0
 25 27  2  0
 26 28  2  0
 27 29  1  0
 28 30  1  0
  1 31  1  0
  3 32  1  0
  4 33  1  0
  5 34  1  0
  7 35  1  0
  8 36  1  0
  8 37  1  0
  9 38  1  0
  9 39  1  0
 10 40  1  0
 10 41  1  0
 11 42  1  0
 11 43  1  0
 13 44  1  0
 13 45  1  0
 14 46  1  0
 14 47  1  0
 18 48  1  0
 19 49  1  0
 25 50  1  0
 26 51  1  0
 27 52  1  0
 29 53  1  0
V    1 0
V    2 1
V    3 2
V    4 3
V    5 4
V    6 5
V    7 6
V    8 7
V    9 8
V   10 9
V   11 10
V   12 11
V   13 12
V   14 13
V   15 14
V   16 15
V   17 16
V   18 17
V   19 18
V   20 19
V   21 20
V   22 21
V   23 22
V   24 23
V   25 24
V   26 25
V   27 26
V   28 27
V   29 28
V   30 29
M  END
> <DSSTox_RID>
66317

> <DSSTox_CID>
27371

> <DSSTox_CID_Parent>
27371

> <DSSTox_Generic_SID>
47371

> <DSSTox_FileID>
927_TXCST2_v1a

> <STRUCTURE_Formula>
C25H23FN2O2

> <STRUCTURE_MolecularWeight>
402.4607

> <STRUCTURE_ChemicalType>
defined organic

> <STRUCTURE_TestedForm_DefinedOrganic>
parent

> <STRUCTURE_Shown>
tested chemical

> <TestSubstance_ChemicalName>
{4-[3-(aminomethyl)phenyl]piperidin-1-yl}{5-[(2-fluorophenyl)ethynyl]furan-2-yl}methanone

> <TestSubstance_CASRN>
725228-45-5

> <TestSubstance_Description>
single chemical compound

> <STRUCTURE_ChemicalName_IUPAC>
{4-[3-(aminomethyl)phenyl]piperidin-1-yl}{5-[(2-fluorophenyl)ethynyl]furan-2-yl}methanone

> <STRUCTURE_SMILES>
NCC1=CC=CC(C2CCN(C(C3=CC=C(C#CC4=CC=CC=C4F)O3)=O)CC2)=C1

> <STRUCTURE_Parent_SMILES>
NCC1=CC=CC(C2CCN(C(C3=CC=C(C#CC4=CC=CC=C4F)O3)=O)CC2)=C1

> <STRUCTURE_InChIS>
InChI=1S/C25H23FN2O2/c26-23-7-2-1-5-20(23)8-9-22-10-11-24(30-22)25(29)28-14-12-19(13-15-28)21-6-3-4-18(16-21)17-27/h1-7,10-11,16,19H,12-15,17,27H2

> <STRUCTURE_InChIKey>
FTLQSQQQFMZPKO-UHFFFAOYSA-N

> <Substance_modify_yyyymmdd>
20100602

> <Coord_Metals>
0

> <Index>
927

> <Canonical_Smiles>
NCc1cccc(c1)C2CCN(CC2)C(=O)c3oc(cc3)C#Cc4ccccc4F

> <Molecular_Weight>
402.46072

> <Frequency>
1

$$$$

  SciTegic          2D

 55 58  0  0  0  0            999 V2000
    0.0000    0.7486    0.0000 C   0  0
    0.0000   -0.7486    0.0000 C   0  0
   -1.2964    1.4973    0.0000 C   0  0
   -1.2964   -1.4973    0.0000 C   0  0
   -2.6111    0.7486    0.0000 C   0  0
   -2.6111   -0.7486    0.0000 C   0  0
    1.2964    1.4973    0.0000 N   0  0
    2.5929    0.7486    0.0000 C   0  0
    1.2964   -1.4973    0.0000 C   0  0
    2.5929   -0.7486    0.0000 C   0  0
   -1.2876    2.9981    0.0000 S   0  0
    0.0161    3.7416    0.0000 N   0  0
   -2.3234    3.6039    0.0000 O   0  0
   -1.2810    4.1981    0.0000 O   0  0
    0.0250    5.2424    0.0000 C   0  0
    1.3328    7.4874    0.0000 C   0  0
    1.3270    5.9874    0.0000 C   0  0
    0.0367    8.2425    0.0000 C   0  0
   -1.2652    7.4976    0.0000 C   0  0
   -1.2711    5.9976    0.0000 C   0  0
    2.6254    5.2346    0.0000 C   0  0
    2.6228    4.0347    0.0000 O   0  0
    3.9270    5.9819    0.0000 N   0  0
    5.2253    5.2291    0.0000 C   0  0
    6.5269    5.9763    0.0000 C   0  0
    5.2222    3.7284    0.0000 C   0  0
    6.5198    2.9744    0.0000 C   0  0
    9.1287    7.4700    0.0000 C   0  0
    9.1250    5.9700    0.0000 C   0  0
    7.8315    8.2232    0.0000 C   0  0
    7.8241    5.2232    0.0000 C   0  0
    6.5306    7.4763    0.0000 C   0  0
    0.0414    9.4425    0.0000 F   0  0
   -1.2934   -2.4973    0.0000 H   0  0
   -3.4756    1.2512    0.0000 H   0  0
   -3.4756   -1.2512    0.0000 H   0  0
    3.4589    1.2486    0.0000 H   0  0
    1.2964   -2.4973    0.0000 H   0  0
    3.4589   -1.2486    0.0000 H   0  0
    0.8793    3.2367    0.0000 H   0  0
    2.2008    7.9840    0.0000 H   0  0
   -2.1293    8.0009    0.0000 H   0  0
   -2.1391    5.5010    0.0000 H   0  0
    3.9291    6.9819    0.0000 H   0  0
    5.2275    6.2291    0.0000 H   0  0
    4.3549    3.2305    0.0000 H   0  0
    5.2195    2.7284    0.0000 H   0  0
    6.5177    1.9744    0.0000 H   0  0
    7.3871    3.4722    0.0000 H   0  0
    7.3847    2.4724    0.0000 H   0  0
    9.9959    7.9679    0.0000 H   0  0
    9.9898    5.4679    0.0000 H   0  0
    7.8339    9.2232    0.0000 H   0  0
    7.8217    4.2232    0.0000 H   0  0
    5.6658    7.9785    0.0000 H   0  0
  1  3  1  0
  1  7  2  0
  1  2  1  0
  2  4  1  0
  2  9  2  0
  3  5  2  0
  3 11  1  0
  4  6  2  0
  5  6  1  0
  7  8  1  0
  8 10  2  0
  9 10  1  0
 11 12  1  0
 11 13  2  0
 11 14  2  0
 12 15  1  0
 15 17  2  0
 15 20  1  0
 16 17  1  0
 16 18  2  0
 17 21  1  0
 18 19  1  0
 18 33  1  0
 19 20  2  0
 21 22  2  0
 21 23  1  0
 24 23  1  0
 24 25  1  0
 24 26  1  0
 25 31  1  0
 25 32  2  0
 26 27  1  0
 28 29  1  0
 28 30  2  0
 29 31  2  0
 30 32  1  0
  4 34  1  0
  5 35  1  0
  6 36  1  0
  8 37  1  0
  9 38  1  0
 10 39  1  0
 12 40  1  0
 16 41  1  0
 19 42  1  0
 20 43  1  0
 23 44  1  0
 24 45  1  0
 26 46  1  0
 26 47  1  0
 27 48  1  0
 27 49  1  0
 27 50  1  0
 28 51  1  0
 29 52  1  0
 30 53  1  0
 31 54  1  0
 32 55  1  0
V    1 0
V    2 1
V    3 2
V    4 3
V    5 4
V    6 5
V    7 6
V    8 7
V    9 8
V   10 9
V   11 10
V   12 11
V   13 12
V   14 13
V   15 14
V   16 15
V   17 16
V   18 17
V   19 18
V   20 19
V   21 20
V   22 21
V   23 22
V   24 23
V   25 24
V   26 25
V   27 26
V   28 27
V   29 28
V   30 29
V   31 30
V   32 31
V   33 32
M  END
> <DSSTox_RID>
66319

> <DSSTox_CID>
27372

> <DSSTox_CID_Parent>
27373

> <DSSTox_Generic_SID>
47372

> <DSSTox_FileID>
928_TXCST2_v1a

> <STRUCTURE_Formula>
C25H21FN3NaO3S

> <STRUCTURE_MolecularWeight>
485.5057

> <STRUCTURE_ChemicalType>
defined organic

> <STRUCTURE_TestedForm_DefinedOrganic>
salt Na

> <STRUCTURE_Shown>
tested chemical

> <TestSubstance_ChemicalName>
sodium (4-fluoro-2-{[(1S)-1-phenylpropyl]carbamoyl}phenyl)(quinolin-8-ylsulfonyl)azanide

> <TestSubstance_CASRN>
478263-98-8

> <TestSubstance_Description>
single chemical compound

> <ChemicalNote>
stereochem

> <STRUCTURE_ChemicalName_IUPAC>
sodium (4-fluoro-2-{[(1S)-1-phenylpropyl]carbamoyl}phenyl)(quinolin-8-ylsulfonyl)azanide

> <STRUCTURE_SMILES>
O=S(C1=CC=CC2=CC=CN=C12)([N-]C3=C(C(N[C@@H](CC)C4=CC=CC=C4)=O)C=C(F)C=C3)=O.[Na+]

> <STRUCTURE_Parent_SMILES>
O=S(C1=CC=CC2=CC=CN=C12)(NC3=C(C(N[C@@H](CC)C4=CC=CC=C4)=O)C=C(F)C=C3)=O

> <STRUCTURE_InChIS>
InChI=1S/C25H22FN3O3S.Na/c1-2-21(17-8-4-3-5-9-17)28-25(30)20-16-19(26)13-14-22(20)29-33(31,32)23-12-6-10-18-11-7-15-27-24(18)23;/h3-16,21H,2H2,1H3,(H2,28,29,30);/q;+1/p-1/t21-;/m0./s1

> <STRUCTURE_InChIKey>
USXOYRFFKSZUAN-BOXHHOBZSA-M

> <Substance_modify_yyyymmdd>
20100602

> <Coord_Metals>
0

> <Index>
928

> <Canonical_Smiles>
CCC(NC(=O)c1cc(F)ccc1NS(=O)(=O)c2cccc3cccnc23)c4ccccc4

> <Molecular_Weight>
463.52388

> <Frequency>
1

$$$$

  SciTegic          2D

 51 54  0  0  0  0            999 V2000
    0.0000    0.7486    0.0000 C   0  0
    0.0000   -0.7486    0.0000 C   0  0
   -1.2964    1.4973    0.0000 N   0  0
   -1.2964   -1.4973    0.0000 C   0  0
   -2.6111    0.7486    0.0000 C   0  0
   -2.6111   -0.7486    0.0000 C   0  0
    1.2964    1.4973    0.0000 C   0  0
    2.5929    0.7486    0.0000 C   0  0
    1.2964   -1.4973    0.0000 C   0  0
    2.5929   -0.7486    0.0000 C   0  0
   -3.9106   -1.4992    0.0000 C   0  0
   -4.9498   -2.0994    0.0000 N   0  0
   -1.2907   -2.9981    0.0000 N   0  0
   -2.5870   -3.7544    0.0000 C   0  0
   -2.5812   -5.2552    0.0000 C   0  0
   -3.9091    1.5019    0.0000 N   0  0
   -3.9067    3.0027    0.0000 C   0  0
   -5.2049    3.7560    0.0000 C   0  0
   -2.8664    3.6008    0.0000 O   0  0
   -6.5036    6.0062    0.0000 C   0  0
   -5.2047    5.2560    0.0000 C   0  0
   -7.8028    5.2564    0.0000 C   0  0
   -7.8030    3.7564    0.0000 C   0  0
   -6.5041    3.0062    0.0000 C   0  0
   -9.1040    6.0044    0.0000 O   0  0
  -10.4028    5.2523    0.0000 C   0  0
   -3.8773   -6.0103    0.0000 C   0  0
   -3.8715   -7.5103    0.0000 C   0  0
   -2.5695   -8.2552    0.0000 C   0  0
   -1.2793   -6.0002    0.0000 C   0  0
   -1.2734   -7.5002    0.0000 C   0  0
    1.2964    2.4973    0.0000 H   0  0
    3.4589    1.2486    0.0000 H   0  0
    1.2964   -2.4973    0.0000 H   0  0
    3.4589   -1.2486    0.0000 H   0  0
   -0.4226   -3.4945    0.0000 H   0  0
   -2.5914   -2.7544    0.0000 H   0  0
   -3.4551   -3.2581    0.0000 H   0  0
   -4.7760    1.0035    0.0000 H   0  0
   -6.5035    7.0062    0.0000 H   0  0
   -4.3386    5.7559    0.0000 H   0  0
   -8.6691    3.2566    0.0000 H   0  0
   -6.5043    2.0062    0.0000 H   0  0
  -11.2697    5.7506    0.0000 H   0  0
  -10.4012    4.2523    0.0000 H   0  0
  -11.2679    4.7508    0.0000 H   0  0
   -4.7453   -5.5136    0.0000 H   0  0
   -4.7356   -8.0136    0.0000 H   0  0
   -2.5656   -9.2552    0.0000 H   0  0
   -0.4152   -5.4968    0.0000 H   0  0
   -0.4055   -7.9968    0.0000 H   0  0
  1  3  2  0
  1  7  1  0
  1  2  1  0
  2  4  2  0
  2  9  1  0
  3  5  1  0
  4  6  1  0
  4 13  1  0
  5  6  2  0
  5 16  1  0
  6 11  1  0
  7  8  2  0
  8 10  1  0
  9 10  2  0
 11 12  3  0
 13 14  1  0
 14 15  1  0
 15 27  2  0
 15 30  1  0
 16 17  1  0
 17 18  1  0
 17 19  2  0
 18 21  2  0
 18 24  1  0
 20 21  1  0
 20 22  2  0
 22 23  1  0
 22 25  1  0
 23 24  2  0
 25 26  1  0
 27 28  1  0
 28 29  2  0
 29 31  1  0
 30 31  2  0
  7 32  1  0
  8 33  1  0
  9 34  1  0
 10 35  1  0
 13 36  1  0
 14 37  1  0
 14 38  1  0
 16 39  1  0
 20 40  1  0
 21 41  1  0
 23 42  1  0
 24 43  1  0
 26 44  1  0
 26 45  1  0
 26 46  1  0
 27 47  1  0
 28 48  1  0
 29 49  1  0
 30 50  1  0
 31 51  1  0
V    1 0
V    2 1
V    3 2
V    4 3
V    5 4
V    6 5
V    7 6
V    8 7
V    9 8
V   10 9
V   11 10
V   12 11
V   13 12
V   14 13
V   15 14
V   16 15
V   17 16
V   18 17
V   19 18
V   20 19
V   21 20
V   22 21
V   23 22
V   24 23
V   25 24
V   26 25
V   27 26
V   28 27
V   29 28
V   30 29
V   31 30
M  END
> <DSSTox_RID>
66320

> <DSSTox_CID>
27374

> <DSSTox_CID_Parent>
27374

> <DSSTox_Generic_SID>
47374

> <DSSTox_FileID>
929_TXCST2_v1a

> <STRUCTURE_Formula>
C25H20N4O2

> <STRUCTURE_MolecularWeight>
408.4519

> <STRUCTURE_ChemicalType>
defined organic

> <STRUCTURE_TestedForm_DefinedOrganic>
parent

> <STRUCTURE_Shown>
tested chemical

> <TestSubstance_ChemicalName>
N-[4-(benzylamino)-3-cyanoquinolin-2-yl]-4-methoxybenzamide

> <TestSubstance_CASRN>
NOCAS_47374

> <TestSubstance_Description>
single chemical compound

> <STRUCTURE_ChemicalName_IUPAC>
N-[4-(benzylamino)-3-cyanoquinolin-2-yl]-4-methoxybenzamide

> <STRUCTURE_SMILES>
N#CC2=C(NC(C4=CC=C(OC)C=C4)=O)N=C1C=CC=CC1=C2NCC3=CC=CC=C3

> <STRUCTURE_Parent_SMILES>
N#CC2=C(NC(C4=CC=C(OC)C=C4)=O)N=C1C=CC=CC1=C2NCC3=CC=CC=C3

> <STRUCTURE_InChIS>
InChI=1S/C25H20N4O2/c1-31-19-13-11-18(12-14-19)25(30)29-24-21(15-26)23(20-9-5-6-10-22(20)28-24)27-16-17-7-3-2-4-8-17/h2-14H,16H2,1H3,(H2,27,28,29,30)

> <STRUCTURE_InChIKey>
FFHQNQNMELQOEF-UHFFFAOYSA-N

> <Substance_modify_yyyymmdd>
20100602

> <Coord_Metals>
0

> <Index>
929

> <Canonical_Smiles>
COc1ccc(cc1)C(=O)Nc2nc3ccccc3c(NCc4ccccc4)c2C#N

> <Molecular_Weight>
408.4519

> <Frequency>
1

$$$$

  SciTegic          2D

 46 49  0  0  0  0            999 V2000
    0.0000    0.7486    0.0000 C   0  0
    0.0000   -0.7486    0.0000 C   0  0
   -1.2964    1.4973    0.0000 C   0  0
   -1.2964   -1.4973    0.0000 N   0  0
   -2.6111    0.7486    0.0000 C   0  0
   -2.6111   -0.7486    0.0000 C   0  0
    1.2964    1.4973    0.0000 C   0  0
    2.5929    0.7486    0.0000 C   0  0
    1.2964   -1.4973    0.0000 C   0  0
    2.5929   -0.7486    0.0000 C   0  0
   -1.2928    2.6973    0.0000 O   0  0
   -3.9122    1.4966    0.0000 C   0  0
   -5.2109    0.7445    0.0000 O   0  0
   -3.9141    2.6966    0.0000 O   0  0
   -1.2919   -2.9980    0.0000 C   0  0
    3.6321   -1.3486    0.0000 Cl  0  0
    3.8942    1.4964    0.0000 N   0  0
    5.1929    0.7441    0.0000 C   0  0
    0.0099   -3.7437    0.0000 C   0  0
    0.0151   -5.2437    0.0000 C   0  0
   -1.2813   -5.9982    0.0000 C   0  0
   -2.5882   -3.7528    0.0000 C   0  0
   -2.5830   -5.2528    0.0000 C   0  0
   -3.8922   -3.0097    0.0000 C   0  0
   -5.1882   -3.7666    0.0000 O   0  0
   -3.8986   -1.8097    0.0000 O   0  0
    7.7910    0.7351    0.0000 C   0  0
    6.4946    1.4896    0.0000 C   0  0
    7.7858   -0.7649    0.0000 C   0  0
    6.4842   -1.5104    0.0000 C   0  0
    5.1877   -0.7559    0.0000 C   0  0
    4.1465   -1.3524    0.0000 Cl  0  0
    8.8230   -1.3685    0.0000 F   0  0
    6.4988    2.6896    0.0000 F   0  0
   -3.4756   -1.2512    0.0000 H   0  0
    1.2964    2.4973    0.0000 H   0  0
    1.2964   -2.4973    0.0000 H   0  0
   -6.0779    1.2428    0.0000 H   0  0
    3.8959    2.4964    0.0000 H   0  0
    0.8742   -3.2407    0.0000 H   0  0
    0.8829   -5.7407    0.0000 H   0  0
   -1.2778   -6.9982    0.0000 H   0  0
   -3.4472   -5.7558    0.0000 H   0  0
   -6.0570   -3.2715    0.0000 H   0  0
    8.6587    1.2321    0.0000 H   0  0
    6.4807   -2.5104    0.0000 H   0  0
  1  3  1  0
  1  7  1  0
  1  2  2  0
  2  4  1  0
  2  9  1  0
  3  5  1  0
  3 11  2  0
  4  6  1  0
  4 15  1  0
  5  6  2  0
  5 12  1  0
  7  8  2  0
  8 10  1  0
  8 17  1  0
  9 10  2  0
 10 16  1  0
 12 13  1  0
 12 14  2  0
 15 19  2  0
 15 22  1  0
 17 18  1  0
 18 28  2  0
 18 31  1  0
 19 20  1  0
 20 21  2  0
 21 23  1  0
 22 23  2  0
 22 24  1  0
 24 25  1  0
 24 26  2  0
 27 28  1  0
 27 29  2  0
 28 34  1  0
 29 30  1  0
 29 33  1  0
 30 31  2  0
 31 32  1  0
  6 35  1  0
  7 36  1  0
  9 37  1  0
 13 38  1  0
 17 39  1  0
 19 40  1  0
 20 41  1  0
 21 42  1  0
 23 43  1  0
 25 44  1  0
 27 45  1  0
 30 46  1  0
V    1 0
V    2 1
V    3 2
V    4 3
V    5 4
V    6 5
V    7 6
V    8 7
V    9 8
V   10 9
V   11 10
V   12 11
V   13 12
V   14 13
V   15 14
V   16 15
V   17 16
V   18 17
V   19 18
V   20 19
V   21 20
V   22 21
V   23 22
V   24 23
V   25 24
V   26 25
V   27 26
V   28 27
V   29 28
V   30 29
V   31 30
V   32 31
V   33 32
V   34 33
M  END
> <DSSTox_RID>
66321

> <DSSTox_CID>
27375

> <DSSTox_CID_Parent>
27375

> <DSSTox_Generic_SID>
47375

> <DSSTox_FileID>
930_TXCST2_v1a

> <STRUCTURE_Formula>
C23H12Cl2F2N2O5

> <STRUCTURE_MolecularWeight>
505.2546

> <STRUCTURE_ChemicalType>
defined organic

> <STRUCTURE_TestedForm_DefinedOrganic>
parent

> <STRUCTURE_Shown>
tested chemical

> <TestSubstance_ChemicalName>
1-(2-carboxyphenyl)-7-chloro-6-[(2-chloro-4,6-difluorophenyl)amino]-4-oxo-1,4-dihydroquinoline-3-carboxylic acid

> <TestSubstance_CASRN>
862243-29-6

> <TestSubstance_Description>
single chemical compound

> <STRUCTURE_ChemicalName_IUPAC>
1-(2-carboxyphenyl)-7-chloro-6-[(2-chloro-4,6-difluorophenyl)amino]-4-oxo-1,4-dihydroquinoline-3-carboxylic acid

> <STRUCTURE_SMILES>
O=C1C(C=C(NC4=C(F)C=C(F)C=C4Cl)C(Cl)=C2)=C2N(C3=CC=CC=C3C(O)=O)C=C1C(O)=O

> <STRUCTURE_Parent_SMILES>
O=C1C(C=C(NC4=C(F)C=C(F)C=C4Cl)C(Cl)=C2)=C2N(C3=CC=CC=C3C(O)=O)C=C1C(O)=O

> <STRUCTURE_InChIS>
InChI=1S/C23H12Cl2F2N2O5/c24-14-8-19-12(7-17(14)28-20-15(25)5-10(26)6-16(20)27)21(30)13(23(33)34)9-29(19)18-4-2-1-3-11(18)22(31)32/h1-9,28H,(H,31,32)(H,33,34)

> <STRUCTURE_InChIKey>
OEMJXSVJXPIFMA-UHFFFAOYSA-N

> <Substance_modify_yyyymmdd>
20100602

> <Coord_Metals>
0

> <Index>
930

> <Canonical_Smiles>
OC(=O)C1=CN(c2ccccc2C(=O)O)c3cc(Cl)c(Nc4c(F)cc(F)cc4Cl)cc3C1=O

> <Molecular_Weight>
505.25458

> <Frequency>
1

$$$$

  SciTegic          2D

 48 50  0  0  0  0            999 V2000
    1.2990   -0.7500    0.0000 C   0  0
    1.2990    0.7500    0.0000 C   0  0
    0.0000   -1.5000    0.0000 C   0  0
    0.0000    1.5000    0.0000 C   0  0
   -1.2990   -0.7500    0.0000 C   0  0
   -1.2990    0.7500    0.0000 C   0  0
   -2.5987    1.5004    0.0000 N   0  0
   -2.6012    3.0004    0.0000 C   0  0
   -3.8967    0.7484    0.0000 C   0  0
   -3.9015    3.7484    0.0000 C   0  0
   -5.1969    1.4963    0.0000 C   0  0
   -5.1993    2.9963    0.0000 C   0  0
   -6.6500    2.7011    0.0000 C   0  0
   -7.1617    1.2902    0.0000 O   0  0
   -7.4227    3.6192    0.0000 O   0  0
   -2.6003   -1.4978    0.0000 N   0  0
   -2.6044   -2.9986    0.0000 C   0  0
   -3.9057   -3.7463    0.0000 N   0  0
   -1.7395   -3.5006    0.0000 O   0  0
   -3.9097   -5.2471    0.0000 C   0  0
   -5.2110   -5.9949    0.0000 C   0  0
   -3.0448   -5.7492    0.0000 O   0  0
   -5.2172   -7.4949    0.0000 C   0  0
   -6.5193   -8.2396    0.0000 C   0  0
   -6.5070   -5.2396    0.0000 C   0  0
   -7.8153   -7.4843    0.0000 C   0  0
   -7.8091   -5.9843    0.0000 C   0  0
   -8.8459   -5.3800    0.0000 F   0  0
   -8.8569   -8.0800    0.0000 F   0  0
   -4.1804   -8.0992    0.0000 Cl  0  0
    2.3383   -1.3500    0.0000 F   0  0
    2.1651    1.2500    0.0000 H   0  0
    0.0000   -2.5000    0.0000 H   0  0
    0.0000    2.5000    0.0000 H   0  0
   -2.6265    4.0001    0.0000 H   0  0
   -1.7463    2.4816    0.0000 H   0  0
   -4.7735    0.2676    0.0000 H   0  0
   -3.0184    0.2702    0.0000 H   0  0
   -3.9235    2.7486    0.0000 H   0  0
   -4.7797    4.2265    0.0000 H   0  0
   -6.0517    2.0152    0.0000 H   0  0
   -5.1718    0.4966    0.0000 H   0  0
   -5.1764    3.9960    0.0000 H   0  0
   -8.1462    1.1147    0.0000 H   0  0
   -3.4652   -0.9957    0.0000 H   0  0
   -4.7705   -3.2443    0.0000 H   0  0
   -6.5234   -9.2396    0.0000 H   0  0
   -6.5030   -4.2396    0.0000 H   0  0
  1  2  2  0
  1  3  1  0
  1 31  1  0
  2  4  1  0
  3  5  2  0
  4  6  2  0
  5  6  1  0
  5 16  1  0
  6  7  1  0
  7  8  1  0
  7  9  1  0
  8 10  1  0
  9 11  1  0
 10 12  1  0
 11 12  1  0
 12 13  1  0
 13 14  1  0
 13 15  2  0
 16 17  1  0
 17 18  1  0
 17 19  2  0
 18 20  1  0
 20 21  1  0
 20 22  2  0
 21 23  2  0
 21 25  1  0
 23 24  1  0
 23 30  1  0
 24 26  2  0
 25 27  2  0
 26 27  1  0
 26 29  1  0
 27 28  1  0
  2 32  1  0
  3 33  1  0
  4 34  1  0
  8 35  1  0
  8 36  1  0
  9 37  1  0
  9 38  1  0
 10 39  1  0
 10 40  1  0
 11 41  1  0
 11 42  1  0
 12 43  1  0
 14 44  1  0
 16 45  1  0
 18 46  1  0
 24 47  1  0
 25 48  1  0
V    1 0
V    2 1
V    3 2
V    4 3
V    5 4
V    6 5
V    7 6
V    8 7
V    9 8
V   10 9
V   11 10
V   12 11
V   13 12
V   14 13
V   15 14
V   16 15
V   17 16
V   18 17
V   19 18
V   20 19
V   21 20
V   22 21
V   23 22
V   24 23
V   25 24
V   26 25
V   27 26
V   28 27
V   29 28
V   30 29
V   31 30
M  END
> <DSSTox_RID>
66322

> <DSSTox_CID>
27376

> <DSSTox_CID_Parent>
27376

> <DSSTox_Generic_SID>
47376

> <DSSTox_FileID>
931_TXCST2_v1a

> <STRUCTURE_Formula>
C20H17ClF3N3O4

> <STRUCTURE_MolecularWeight>
455.8149

> <STRUCTURE_ChemicalType>
defined organic

> <STRUCTURE_TestedForm_DefinedOrganic>
parent

> <STRUCTURE_Shown>
tested chemical

> <TestSubstance_ChemicalName>
1-[2-({[(2-chloro-4,5-difluorophenyl)carbonyl]carbamoyl}amino)-4-fluorophenyl]piperidine-4-carboxylic acid

> <TestSubstance_CASRN>
648917-13-9

> <TestSubstance_Description>
single chemical compound

> <STRUCTURE_ChemicalName_IUPAC>
1-[2-({[(2-chloro-4,5-difluorophenyl)carbonyl]carbamoyl}amino)-4-fluorophenyl]piperidine-4-carboxylic acid

> <STRUCTURE_SMILES>
OC(C2CCN(CC2)C1=C(NC(NC(C3=CC(F)=C(F)C=C3Cl)=O)=O)C=C(F)C=C1)=O

> <STRUCTURE_Parent_SMILES>
OC(C2CCN(CC2)C1=C(NC(NC(C3=CC(F)=C(F)C=C3Cl)=O)=O)C=C(F)C=C1)=O

> <STRUCTURE_InChIS>
InChI=1S/C20H17ClF3N3O4/c21-13-9-15(24)14(23)8-12(13)18(28)26-20(31)25-16-7-11(22)1-2-17(16)27-5-3-10(4-6-27)19(29)30/h1-2,7-10H,3-6H2,(H,29,30)(H2,25,26,28,31)

> <STRUCTURE_InChIKey>
KAJJGOCSAXKXBD-UHFFFAOYSA-N

> <Substance_modify_yyyymmdd>
20100602

> <Coord_Metals>
0

> <Index>
931

> <Canonical_Smiles>
OC(=O)C1CCN(CC1)c2ccc(F)cc2NC(=O)NC(=O)c3cc(F)c(F)cc3Cl

> <Molecular_Weight>
455.81488

> <Frequency>
1

$$$$

  SciTegic          2D

 79 83  0  0  0  0            999 V2000
    1.4134   -5.2849    0.0000 C   0  0
    0.8760   -3.8898    0.0000 C   0  0
    0.4807   -6.4648    0.0000 C   0  0
   -0.6072   -3.6406    0.0000 C   0  0
   -1.0195   -6.2221    0.0000 C   0  0
   -1.5569   -4.8270    0.0000 C   0  0
    2.9043   -5.1990    0.0000 C   0  0
    3.2949   -3.7786    0.0000 C   0  0
    2.0392   -2.9533    0.0000 N   0  0
    4.6981   -3.2529    0.0000 C   0  0
    5.6242   -4.0159    0.0000 O   0  0
    4.9458   -1.7726    0.0000 N   0  0
    6.3513   -1.2462    0.0000 C   0  0
    7.8061    1.3296    0.0000 N   0  0
    6.3062    1.3154    0.0000 C   0  0
    8.5684    0.0378    0.0000 C   0  0
    5.5685    0.0094    0.0000 C   0  0
    7.8307   -1.2683    0.0000 C   0  0
    8.5442    2.6364    0.0000 C   0  0
    7.7823    3.9295    0.0000 C   0  0
   10.0449    2.6502    0.0000 C   0  0
   -1.9728   -7.3812    0.0000 C   0  0
   -3.4535   -7.1360    0.0000 O   0  0
   -1.5510   -8.5047    0.0000 O   0  0
   -4.4069   -8.2951    0.0000 C   0  0
   -5.8875   -8.0499    0.0000 O   0  0
   -3.8794   -9.7001    0.0000 C   0  0
   -6.8409   -9.2090    0.0000 C   0  0
   -8.3216   -8.9638    0.0000 O   0  0
   -6.4192  -10.3324    0.0000 O   0  0
   -9.2750  -10.1229    0.0000 C   0  0
  -10.7557   -9.8777    0.0000 C   0  0
    1.9651   -1.4569    0.0000 C   0  0
    0.6302   -0.7709    0.0000 C   0  0
    0.4202    0.7014    0.0000 C   0  0
   -0.6891   -1.4572    0.0000 N   0  0
   -1.0605    0.9412    0.0000 C   0  0
   -1.7461   -0.3929    0.0000 O   0  0
   -1.7371    2.2808    0.0000 C   0  0
   -1.1479    3.6411    0.0000 C   0  0
   -3.2220    2.3807    0.0000 S   0  0
   -2.2849    4.6195    0.0000 C   0  0
   -3.5667    3.8405    0.0000 C   0  0
   -4.6737    4.3038    0.0000 Cl  0  0
    0.8430   -7.3968    0.0000 H   0  0
   -0.9638   -2.7063    0.0000 H   0  0
   -2.5451   -4.6739    0.0000 H   0  0
    3.5331   -5.9766    0.0000 H   0  0
    4.1740   -1.1368    0.0000 H   0  0
    6.8596   -2.1074    0.0000 H   0  0
    5.3067    1.2824    0.0000 H   0  0
    6.8183    2.1744    0.0000 H   0  0
    9.0561   -0.8352    0.0000 H   0  0
    9.0396    0.9198    0.0000 H   0  0
    5.1073   -0.8779    0.0000 H   0  0
    6.5685    0.0086    0.0000 H   0  0
    7.3528   -0.3899    0.0000 H   0  0
    8.8305   -1.2486    0.0000 H   0  0
    7.5442    2.6273    0.0000 H   0  0
    8.2741    4.8002    0.0000 H   0  0
    6.7824    3.9204    0.0000 H   0  0
    7.2743    4.7908    0.0000 H   0  0
   10.5375    3.5204    0.0000 H   0  0
   10.5525    1.7886    0.0000 H   0  0
   11.0449    2.6589    0.0000 H   0  0
   -4.7584   -7.3589    0.0000 H   0  0
   -4.5139  -10.4730    0.0000 H   0  0
   -2.8928   -9.8635    0.0000 H   0  0
   -3.5274  -10.6361    0.0000 H   0  0
   -8.9235  -11.0591    0.0000 H   0  0
   -8.2885  -10.2867    0.0000 H   0  0
  -11.3909  -10.6500    0.0000 H   0  0
  -11.1072   -8.9415    0.0000 H   0  0
  -11.7422   -9.7138    0.0000 H   0  0
    2.8055   -0.9149    0.0000 H   0  0
    2.8547   -1.9136    0.0000 H   0  0
    1.1340    1.4018    0.0000 H   0  0
   -0.1732    3.8649    0.0000 H   0  0
   -2.2027    5.6161    0.0000 H   0  0
  1  3  2  0
  1  7  1  0
  1  2  1  0
  2  4  2  0
  2  9  1  0
  3  5  1  0
  4  6  1  0
  5  6  2  0
  5 22  1  0
  7  8  2  0
  8  9  1  0
  8 10  1  0
  9 33  1  0
 10 11  2  0
 10 12  1  0
 12 13  1  0
 13 17  1  0
 13 18  1  0
 14 15  1  0
 14 16  1  0
 14 19  1  0
 15 17  1  0
 16 18  1  0
 19 20  1  0
 19 21  1  0
 22 23  1  0
 22 24  2  0
 23 25  1  0
 25 26  1  0
 25 27  1  0
 26 28  1  0
 28 29  1  0
 28 30  2  0
 29 31  1  0
 31 32  1  0
 33 34  1  0
 34 35  1  0
 34 36  2  0
 35 37  2  0
 36 38  1  0
 37 38  1  0
 37 39  1  0
 39 40  2  0
 39 41  1  0
 40 42  1  0
 41 43  1  0
 42 43  2  0
 43 44  1  0
  3 45  1  0
  4 46  1  0
  6 47  1  0
  7 48  1  0
 12 49  1  0
 13 50  1  0
 15 51  1  0
 15 52  1  0
 16 53  1  0
 16 54  1  0
 17 55  1  0
 17 56  1  0
 18 57  1  0
 18 58  1  0
 19 59  1  0
 20 60  1  0
 20 61  1  0
 20 62  1  0
 21 63  1  0
 21 64  1  0
 21 65  1  0
 25 66  1  0
 27 67  1  0
 27 68  1  0
 27 69  1  0
 31 70  1  0
 31 71  1  0
 32 72  1  0
 32 73  1  0
 32 74  1  0
 33 75  1  0
 33 76  1  0
 35 77  1  0
 40 78  1  0
 42 79  1  0
V    1 0
V    2 1
V    3 2
V    4 3
V    5 4
V    6 5
V    7 6
V    8 7
V    9 8
V   10 9
V   11 10
V   12 11
V   13 12
V   14 13
V   15 14
V   16 15
V   17 16
V   18 17
V   19 18
V   20 19
V   21 20
V   22 21
V   23 22
V   24 23
V   25 24
V   26 25
V   27 26
V   28 27
V   29 28
V   30 29
V   31 30
V   32 31
V   33 32
V   34 33
V   35 34
V   36 35
V   37 36
V   38 37
V   39 38
V   40 39
V   41 40
V   42 41
V   43 42
V   44 43
M  END
> <DSSTox_RID>
66324

> <DSSTox_CID>
27377

> <DSSTox_CID_Parent>
27378

> <DSSTox_Generic_SID>
47377

> <DSSTox_FileID>
932_TXCST2_v1a

> <STRUCTURE_Formula>
C31H36Cl2N4O7S

> <STRUCTURE_MolecularWeight>
679.6111

> <STRUCTURE_ChemicalType>
defined organic

> <STRUCTURE_TestedForm_DefinedOrganic>
complex HCl

> <STRUCTURE_Shown>
tested chemical

> <TestSubstance_ChemicalName>
(1R)-1-[(ethoxycarbonyl)oxy]ethyl 1-{[5-(5-chlorothiophen-2-yl)-1,2-oxazol-3-yl]methyl}-2-{[1-(propan-2-yl)piperidin-4-yl]carbamoyl}-1H-indole-5-carboxylate hydrochloride

> <TestSubstance_CASRN>
NOCAS_47377

> <TestSubstance_Description>
single chemical compound

> <ChemicalNote>
stereochem

> <STRUCTURE_ChemicalName_IUPAC>
(1R)-1-[(ethoxycarbonyl)oxy]ethyl 1-{[5-(5-chlorothiophen-2-yl)-1,2-oxazol-3-yl]methyl}-2-{[1-(propan-2-yl)piperidin-4-yl]carbamoyl}-1H-indole-5-carboxylate hydrochloride

> <STRUCTURE_SMILES>
O=C(NC4CCN(C(C)C)CC4)C2=CC1=CC(C(O[C@@H](C)OC(OCC)=O)=O)=CC=C1N2CC3=NOC(C5=CC=C(Cl)S5)=C3.Cl

> <STRUCTURE_Parent_SMILES>
O=C(NC4CCN(CC)CC4)C2=CC1=CC(C(O[C@@H](C)OC(OCC)=O)=O)=CC=C1N2CC3=NOC(C5=CC=C(Cl)S5)=C3

> <STRUCTURE_InChIS>
InChI=1S/C31H35ClN4O7S.ClH/c1-5-40-31(39)42-19(4)41-30(38)20-6-7-24-21(14-20)15-25(29(37)33-22-10-12-35(13-11-22)18(2)3)36(24)17-23-16-26(43-34-23)27-8-9-28(32)44-27;/h6-9,14-16,18-19,22H,5,10-13,17H2
,1-4H3,(H,33,37);1H/t19-;/m1./s1

> <STRUCTURE_InChIKey>
KXZHIBIURCLFBV-FSRHSHDFSA-N

> <Substance_modify_yyyymmdd>
20100602

> <Coord_Metals>
0

> <Index>
932

> <Canonical_Smiles>
CCOC(=O)OC(C)OC(=O)c1ccc2c(c1)cc(C(=O)NC3CCN(CC3)C(C)C)n2Cc4cc(on4)c5ccc(Cl)s5

> <Molecular_Weight>
643.15019

> <Frequency>
1

$$$$

  SciTegic          2D

 73 77  0  0  0  0            999 V2000
    0.2917    0.7475    0.0000 C   0  0
    0.2917   -0.7475    0.0000 C   0  0
   -1.0028    1.5132    0.0000 C   0  0
   -1.0028   -1.5132    0.0000 C   0  0
   -2.3155    0.7475    0.0000 C   0  0
   -2.3155   -0.7475    0.0000 C   0  0
    1.7138    1.2033    0.0000 C   0  0
    2.5889    0.0182    0.0000 C   0  0
    1.7138   -1.2033    0.0000 N   0  0
   -3.1826    1.2456    0.0000 Cl  0  0
    2.1825   -2.6263    0.0000 C   0  0
    3.6516   -2.9333    0.0000 C   0  0
    5.5884   -4.6651    0.0000 C   0  0
    6.5882   -3.5469    0.0000 C   0  0
    4.1201   -4.3583    0.0000 C   0  0
    6.1198   -2.1219    0.0000 C   0  0
    4.6515   -1.8151    0.0000 C   0  0
    4.1857   -0.3884    0.0000 O   0  0
    5.1877    0.7290    0.0000 C   0  0
    8.0580   -3.8508    0.0000 O   0  0
    9.0568   -2.7306    0.0000 C   0  0
    3.7889    0.0269    0.0000 O   0  0
    0.6985    2.2904    0.0000 C   0  0
    3.1728    1.4912    0.0000 C   0  0
   -1.3491    4.4829    0.0000 C   0  0
    0.1122    4.8215    0.0000 C   0  0
   -1.7866    3.0481    0.0000 C   0  0
    1.1360    3.7252    0.0000 C   0  0
   -0.7628    1.9519    0.0000 C   0  0
   -1.1128    0.8041    0.0000 Cl  0  0
    2.5974    4.0669    0.0000 C   0  0
    3.0331    5.5031    0.0000 N   0  0
    3.4180    3.1913    0.0000 O   0  0
    2.0078    6.5992    0.0000 C   0  0
    4.4955    5.8405    0.0000 C   0  0
    5.5196    4.7433    0.0000 C   0  0
    2.4435    8.0354    0.0000 C   0  0
    1.8536   10.5656    0.0000 N   0  0
    3.3144   10.9062    0.0000 C   0  0
    1.4181    9.1302    0.0000 C   0  0
    4.3398    9.8114    0.0000 C   0  0
    3.9043    8.3760    0.0000 C   0  0
   -0.9997    2.5132    0.0000 H   0  0
   -0.9997   -2.5132    0.0000 H   0  0
   -3.1826   -1.2456    0.0000 H   0  0
    1.5162   -3.3720    0.0000 H   0  0
    1.2036   -2.4223    0.0000 H   0  0
    5.9007   -5.6151    0.0000 H   0  0
    3.4535   -5.1037    0.0000 H   0  0
    6.7863   -1.3765    0.0000 H   0  0
    4.8774    1.6796    0.0000 H   0  0
    6.1662    0.5227    0.0000 H   0  0
    5.8557    1.4732    0.0000 H   0  0
   10.0360   -2.9332    0.0000 H   0  0
    8.7428   -1.7812    0.0000 H   0  0
    9.7219   -1.9839    0.0000 H   0  0
    3.8436    0.7496    0.0000 H   0  0
    4.1505    1.7012    0.0000 H   0  0
    3.4799    2.4429    0.0000 H   0  0
   -2.0317    5.2138    0.0000 H   0  0
    0.4038    5.7780    0.0000 H   0  0
   -2.7608    2.8225    0.0000 H   0  0
    1.0339    6.3724    0.0000 H   0  0
    1.7171    5.6424    0.0000 H   0  0
    4.7878    6.7968    0.0000 H   0  0
    3.8136    6.5718    0.0000 H   0  0
    6.4940    4.9680    0.0000 H   0  0
    5.2273    3.7869    0.0000 H   0  0
    6.2015    4.0119    0.0000 H   0  0
    3.6047   11.8631    0.0000 H   0  0
    0.4442    8.9031    0.0000 H   0  0
    5.3136   10.0385    0.0000 H   0  0
    4.5879    7.6461    0.0000 H   0  0
  1  3  2  0
  1  7  1  0
  1  2  1  0
  2  4  2  0
  2  9  1  0
  3  5  1  0
  4  6  1  0
  5  6  2  0
  5 10  1  0
  7  8  1  0
  7 23  1  0
  7 24  1  0
  8  9  1  0
  8 22  2  0
  9 11  1  0
 11 12  1  0
 12 15  1  0
 12 17  2  0
 13 14  1  0
 13 15  2  0
 14 16  2  0
 14 20  1  0
 16 17  1  0
 17 18  1  0
 18 19  1  0
 20 21  1  0
 23 28  1  0
 23 29  2  0
 25 26  1  0
 25 27  2  0
 26 28  2  0
 27 29  1  0
 28 31  1  0
 29 30  1  0
 31 32  1  0
 31 33  2  0
 32 34  1  0
 32 35  1  0
 34 37  1  0
 35 36  1  0
 37 40  1  0
 37 42  2  0
 38 39  1  0
 38 40  2  0
 39 41  2  0
 41 42  1  0
  3 43  1  0
  4 44  1  0
  6 45  1  0
 11 46  1  0
 11 47  1  0
 13 48  1  0
 15 49  1  0
 16 50  1  0
 19 51  1  0
 19 52  1  0
 19 53  1  0
 21 54  1  0
 21 55  1  0
 21 56  1  0
 24 57  1  0
 24 58  1  0
 24 59  1  0
 25 60  1  0
 26 61  1  0
 27 62  1  0
 34 63  1  0
 34 64  1  0
 35 65  1  0
 35 66  1  0
 36 67  1  0
 36 68  1  0
 36 69  1  0
 39 70  1  0
 40 71  1  0
 41 72  1  0
 42 73  1  0
V    1 1
V    2 2
V    3 3
V    4 4
V    5 5
V    6 6
V    7 7
V    8 8
V    9 9
V   10 10
V   11 11
V   12 12
V   13 13
V   14 14
V   15 15
V   16 16
V   17 17
V   18 18
V   19 19
V   20 20
V   21 21
V   22 22
V   23 23
V   24 24
V   25 25
V   26 26
V   27 27
V   28 28
V   29 29
V   30 30
V   31 31
V   32 32
V   33 33
V   34 34
V   35 35
V   36 36
V   37 37
V   38 38
V   39 39
V   40 40
V   41 41
V   42 42
M  END
> <DSSTox_RID>
66326

> <DSSTox_CID>
27379

> <DSSTox_CID_Parent>
27380

> <DSSTox_Generic_SID>
47379

> <DSSTox_FileID>
933_TXCST2_v1a

> <STRUCTURE_Formula>
C33H32Cl3N3O4

> <STRUCTURE_MolecularWeight>
640.9839

> <STRUCTURE_ChemicalType>
defined organic

> <STRUCTURE_TestedForm_DefinedOrganic>
complex HCl

> <STRUCTURE_Shown>
tested chemical

> <TestSubstance_ChemicalName>
3-chloro-2-[(3R)-5-chloro-1-(2,4-dimethoxybenzyl)-3-methyl-2-oxo-2,3-dihydro-1H-indol-3-yl]-N-ethyl-N-(pyridin-3-ylmethyl)benzamide hydrochloride

> <TestSubstance_CASRN>
NOCAS_47379

> <TestSubstance_Description>
single chemical compound

> <ChemicalNote>
stereochem

> <STRUCTURE_ChemicalName_IUPAC>
3-chloro-2-[(3R)-5-chloro-1-(2,4-dimethoxybenzyl)-3-methyl-2-oxo-2,3-dihydro-1H-indol-3-yl]-N-ethyl-N-(pyridin-3-ylmethyl)benzamide hydrochloride

> <STRUCTURE_SMILES>
ClC1=CC=C(N2CC3=C(OC)C=C(OC)C=C3)C([C@@](C4=C(Cl)C=CC=C4C(N(CC)CC5=CC=CN=C5)=O)(C)C2=O)=C1.Cl

> <STRUCTURE_Parent_SMILES>
ClC1=CC=C(N2CC3=C(OC)C=C(OC)C=C3)C([C@@](C4=C(Cl)C=CC=C4C(N(CC)CC5=CC=CN=C5)=O)(C)C2=O)=C1

> <STRUCTURE_InChIS>
InChI=1S/C33H31Cl2N3O4.ClH/c1-5-37(19-21-8-7-15-36-18-21)31(39)25-9-6-10-27(35)30(25)33(2)26-16-23(34)12-14-28(26)38(32(33)40)20-22-11-13-24(41-3)17-29(22)42-4;/h6-18H,5,19-20H2,1-4H3;1H/t33-;/m1./s1

> <STRUCTURE_InChIKey>
DRQOXZJWZHECAP-MGDILKBHSA-N

> <Substance_modify_yyyymmdd>
20100602

> <Coord_Metals>
0

> <Index>
933

> <Canonical_Smiles>
CCN(Cc1cccnc1)C(=O)c2cccc(Cl)c2C3(C)C(=O)N(Cc4ccc(OC)cc4OC)c5ccc(Cl)cc35

> <Molecular_Weight>
604.52293

> <Frequency>
1

$$$$

  SciTegic          2D

 54 56  0  0  0  0            999 V2000
    3.8516   -1.0225    0.0000 C   0  0
    3.3386    0.3870    0.0000 C   0  0
    2.8874   -2.1716    0.0000 C   0  0
    1.8614    0.6475    0.0000 C   0  0
    1.4102   -1.9111    0.0000 C   0  0
    0.8972   -0.5016    0.0000 C   0  0
    4.6383    1.1376    0.0000 C   0  0
    3.3398    1.8472    0.0000 C   0  0
    5.9379    1.8449    0.0000 C   0  0
    3.3411    3.3472    0.0000 C   0  0
    5.9392    3.3449    0.0000 C   0  0
    4.6408    4.0961    0.0000 N   0  0
   -0.5808   -0.2410    0.0000 C   0  0
   -1.0950    1.1690    0.0000 N   0  0
    5.0334   -1.2309    0.0000 F   0  0
    4.6452    5.5969    0.0000 C   0  0
    3.3482    6.3519    0.0000 C   0  0
    5.6864    6.1935    0.0000 O   0  0
    1.8656    6.2328    0.0000 S   0  0
    1.3058    7.6244    0.0000 C   0  0
    3.7272    7.7900    0.0000 C   0  0
    2.4564    8.5868    0.0000 C   0  0
    5.1214    8.3385    0.0000 C   0  0
    2.3745    9.7840    0.0000 Br  0  0
   -0.1481    7.9860    0.0000 O   0  0
   -1.1907    6.9065    0.0000 C   0  0
   -2.6472    7.2688    0.0000 C   0  0
   -3.6898    6.1892    0.0000 C   0  0
    3.2295   -3.1113    0.0000 H   0  0
    1.5193    1.5872    0.0000 H   0  0
    0.7674   -2.6772    0.0000 H   0  0
    5.5034    0.6360    0.0000 H   0  0
    4.1884    2.3762    0.0000 H   0  0
    2.4794    2.3568    0.0000 H   0  0
    5.0902    2.3754    0.0000 H   0  0
    6.7992    2.3531    0.0000 H   0  0
    2.4867    2.8276    0.0000 H   0  0
    3.3655    4.3469    0.0000 H   0  0
    6.7927    2.8239    0.0000 H   0  0
    5.9166    4.3447    0.0000 H   0  0
   -1.2234   -1.0072    0.0000 H   0  0
   -1.5657   -0.0678    0.0000 H   0  0
   -2.0799    1.3426    0.0000 H   0  0
   -0.4525    1.9352    0.0000 H   0  0
    5.9041    7.7161    0.0000 H   0  0
    5.2694    9.3275    0.0000 H   0  0
    6.0518    8.7050    0.0000 H   0  0
   -0.9149    5.9453    0.0000 H   0  0
   -0.2204    6.6647    0.0000 H   0  0
   -2.9231    8.2300    0.0000 H   0  0
   -1.9528    7.9884    0.0000 H   0  0
   -4.6603    6.4306    0.0000 H   0  0
   -3.4140    5.2280    0.0000 H   0  0
   -4.3842    5.4696    0.0000 H   0  0
  1  2  1  0
  1  3  2  0
  1 15  1  0
  2  4  2  0
  2  7  1  0
  3  5  1  0
  4  6  1  0
  5  6  2  0
  6 13  1  0
  7  8  1  0
  7  9  1  0
  8 10  1  0
  9 11  1  0
 10 12  1  0
 11 12  1  0
 12 16  1  0
 13 14  1  0
 16 17  1  0
 16 18  2  0
 17 19  1  0
 17 21  2  0
 19 20  1  0
 20 22  2  0
 20 25  1  0
 21 22  1  0
 21 23  1  0
 22 24  1  0
 25 26  1  0
 26 27  1  0
 27 28  1  0
  3 29  1  0
  4 30  1  0
  5 31  1  0
  7 32  1  0
  8 33  1  0
  8 34  1  0
  9 35  1  0
  9 36  1  0
 10 37  1  0
 10 38  1  0
 11 39  1  0
 11 40  1  0
 13 41  1  0
 13 42  1  0
 14 43  1  0
 14 44  1  0
 23 45  1  0
 23 46  1  0
 23 47  1  0
 26 48  1  0
 26 49  1  0
 27 50  1  0
 27 51  1  0
 28 52  1  0
 28 53  1  0
 28 54  1  0
V    1 0
V    2 1
V    3 2
V    4 3
V    5 4
V    6 5
V    7 6
V    8 7
V    9 8
V   10 9
V   11 10
V   12 11
V   13 12
V   14 13
V   15 14
V   16 15
V   17 16
V   18 17
V   19 18
V   20 19
V   21 20
V   22 21
V   23 22
V   24 23
V   25 24
V   26 25
V   27 26
V   28 27
M  END
> <DSSTox_RID>
66328

> <DSSTox_CID>
27381

> <DSSTox_CID_Parent>
27382

> <DSSTox_Generic_SID>
47381

> <DSSTox_FileID>
934_TXCST2_v1a

> <STRUCTURE_Formula>
C21H27BrClFN2O2S

> <STRUCTURE_MolecularWeight>
505.8717

> <STRUCTURE_ChemicalType>
defined organic

> <STRUCTURE_TestedForm_DefinedOrganic>
complex HCl

> <STRUCTURE_Shown>
tested chemical

> <TestSubstance_ChemicalName>
{4-[5-(aminomethyl)-2-fluorophenyl]piperidin-1-yl}(4-bromo-3-methyl-5-propoxythiophen-2-yl)methanone hydrochloride

> <TestSubstance_CASRN>
NOCAS_47381

> <TestSubstance_Description>
single chemical compound

> <STRUCTURE_ChemicalName_IUPAC>
{4-[5-(aminomethyl)-2-fluorophenyl]piperidin-1-yl}(4-bromo-3-methyl-5-propoxythiophen-2-yl)methanone hydrochloride

> <STRUCTURE_SMILES>
NCC1=CC=C(F)C(C2CCN(C(C3=C(C)C(Br)=C(OCCC)S3)=O)CC2)=C1.Cl

> <STRUCTURE_Parent_SMILES>
NCC1=CC=C(F)C(C2CCN(C(C3=C(C)C(Br)=C(OCCC)S3)=O)CC2)=C1

> <STRUCTURE_InChIS>
InChI=1S/C21H26BrFN2O2S.ClH/c1-3-10-27-21-18(22)13(2)19(28-21)20(26)25-8-6-15(7-9-25)16-11-14(12-24)4-5-17(16)23;/h4-5,11,15H,3,6-10,12,24H2,1-2H3;1H

> <STRUCTURE_InChIKey>
XRGUAUFOUNIQRI-UHFFFAOYSA-N

> <Substance_modify_yyyymmdd>
20100602

> <Coord_Metals>
0

> <Index>
934

> <Canonical_Smiles>
CCCOc1sc(C(=O)N2CCC(CC2)c3cc(CN)ccc3F)c(C)c1Br

> <Molecular_Weight>
469.41074

> <Frequency>
1

$$$$

  SciTegic          2D

 60 65  0  0  0  0            999 V2000
    1.1737    3.5681    0.0000 C   0  0
    1.6471    4.9862    0.0000 C   0  0
   -0.2966    3.2516    0.0000 C   0  0
    0.6616    6.1224    0.0000 C   0  0
   -1.2993    4.3935    0.0000 C   0  0
   -0.8260    5.8116    0.0000 C   0  0
    2.3784    2.6855    0.0000 N   0  0
    3.5837    3.5326    0.0000 C   0  0
    3.1403    4.9684    0.0000 N   0  0
   -2.7723    4.1061    0.0000 C   0  0
   -3.7584    5.2375    0.0000 O   0  0
   -3.1619    2.9711    0.0000 O   0  0
    4.7445    2.5851    0.0000 C   0  0
    5.8663    3.0111    0.0000 O   0  0
    4.5047    1.1036    0.0000 N   0  0
    5.6673    0.1544    0.0000 C   0  0
    6.2197   -2.7518    0.0000 N   0  0
    4.8035   -2.2576    0.0000 C   0  0
    7.3559   -1.7725    0.0000 C   0  0
    4.5234   -0.7840    0.0000 C   0  0
    7.0758   -0.2988    0.0000 C   0  0
    4.0355    6.1698    0.0000 C   0  0
    3.4424    7.5485    0.0000 C   0  0
    4.2174    8.8178    0.0000 C   0  0
    1.9879    7.8587    0.0000 N   0  0
    3.2278    9.9451    0.0000 C   0  0
    1.8499    9.3523    0.0000 O   0  0
    3.5584   11.4090    0.0000 C   0  0
    2.4766   12.4310    0.0000 S   0  0
    4.8786   12.0833    0.0000 C   0  0
    3.1397   13.7764    0.0000 C   0  0
    4.6243   13.5615    0.0000 C   0  0
    2.5808   14.8383    0.0000 Cl  0  0
    6.9875   -4.0414    0.0000 C   0  0
    5.7643   -4.6939    0.0000 C   0  0
    7.0740   -5.4251    0.0000 C   0  0
   -0.6103    2.3021    0.0000 H   0  0
    0.9811    7.0700    0.0000 H   0  0
   -1.4909    6.5586    0.0000 H   0  0
   -4.7399    5.0461    0.0000 H   0  0
    3.5698    0.7486    0.0000 H   0  0
    6.4248    0.8072    0.0000 H   0  0
    3.8674   -1.9059    0.0000 H   0  0
    5.0133   -3.2354    0.0000 H   0  0
    8.0977   -1.1018    0.0000 H   0  0
    7.5195   -2.7590    0.0000 H   0  0
    4.3709    0.2043    0.0000 H   0  0
    5.4709   -1.1038    0.0000 H   0  0
    6.3415   -0.9777    0.0000 H   0  0
    8.0165   -0.6380    0.0000 H   0  0
    5.0286    6.0530    0.0000 H   0  0
    4.4311    5.2514    0.0000 H   0  0
    5.2137    8.9038    0.0000 H   0  0
    5.7728   11.6356    0.0000 H   0  0
    5.3219   14.2780    0.0000 H   0  0
    7.9874   -4.0260    0.0000 H   0  0
    5.2614   -3.8295    0.0000 H   0  0
    5.2447   -5.5483    0.0000 H   0  0
    8.0737   -5.3996    0.0000 H   0  0
    6.6193   -6.3158    0.0000 H   0  0
  1  3  2  0
  1  7  1  0
  1  2  1  0
  2  4  2  0
  2  9  1  0
  3  5  1  0
  4  6  1  0
  5  6  2  0
  5 10  1  0
  7  8  2  0
  8  9  1  0
  8 13  1  0
  9 22  1  0
 10 11  1  0
 10 12  2  0
 13 14  2  0
 13 15  1  0
 15 16  1  0
 16 20  1  0
 16 21  1  0
 17 18  1  0
 17 19  1  0
 17 34  1  0
 18 20  1  0
 19 21  1  0
 22 23  1  0
 23 24  1  0
 23 25  2  0
 24 26  2  0
 25 27  1  0
 26 27  1  0
 26 28  1  0
 28 29  1  0
 28 30  2  0
 29 31  1  0
 30 32  1  0
 31 32  2  0
 31 33  1  0
 34 35  1  0
 34 36  1  0
 35 36  1  0
  3 37  1  0
  4 38  1  0
  6 39  1  0
 11 40  1  0
 15 41  1  0
 16 42  1  0
 18 43  1  0
 18 44  1  0
 19 45  1  0
 19 46  1  0
 20 47  1  0
 20 48  1  0
 21 49  1  0
 21 50  1  0
 22 51  1  0
 22 52  1  0
 24 53  1  0
 30 54  1  0
 32 55  1  0
 34 56  1  0
 35 57  1  0
 35 58  1  0
 36 59  1  0
 36 60  1  0
V    1 0
V    2 1
V    3 2
V    4 3
V    5 4
V    6 5
V    7 6
V    8 7
V    9 8
V   10 9
V   11 10
V   12 11
V   13 12
V   14 13
V   15 14
V   16 15
V   17 16
V   18 17
V   19 18
V   20 19
V   21 20
V   22 21
V   23 22
V   24 23
V   25 24
V   26 25
V   27 26
V   28 27
V   29 28
V   30 29
V   31 30
V   32 31
V   33 32
V   34 33
V   35 34
V   36 35
M  END
> <DSSTox_RID>
66330

> <DSSTox_CID>
27383

> <DSSTox_CID_Parent>
27384

> <DSSTox_Generic_SID>
47383

> <DSSTox_FileID>
935_TXCST2_v1a

> <STRUCTURE_Formula>
C25H23ClN5NaO4S

> <STRUCTURE_MolecularWeight>
547.989

> <STRUCTURE_ChemicalType>
defined organic

> <STRUCTURE_TestedForm_DefinedOrganic>
salt Na

> <STRUCTURE_Shown>
tested chemical

> <TestSubstance_ChemicalName>
sodium 1-{[5-(5-chlorothiophen-2-yl)-1,2-oxazol-3-yl]methyl}-2-[(1-cyclopropylpiperidin-4-yl)carbamoyl]-1H-benzimidazole-5-carboxylate

> <TestSubstance_CASRN>
NOCAS_47383

> <TestSubstance_Description>
single chemical compound

> <STRUCTURE_ChemicalName_IUPAC>
sodium 1-{[5-(5-chlorothiophen-2-yl)-1,2-oxazol-3-yl]methyl}-2-[(1-cyclopropylpiperidin-4-yl)carbamoyl]-1H-benzimidazole-5-carboxylate

> <STRUCTURE_SMILES>
[O-]C(C1=CC=C2C(N=C(C(NC4CCN(C6CC6)CC4)=O)N2CC3=NOC(C5=CC=C(Cl)S5)=C3)=C1)=O.[Na+]

> <STRUCTURE_Parent_SMILES>
OC(C1=CC=C2C(N=C(C(NC4CCN(C6CC6)CC4)=O)N2CC3=NOC(C5=CC=C(Cl)S5)=C3)=C1)=O

> <STRUCTURE_InChIS>
InChI=1S/C25H24ClN5O4S.Na/c26-22-6-5-21(36-22)20-12-16(29-35-20)13-31-19-4-1-14(25(33)34)11-18(19)28-23(31)24(32)27-15-7-9-30(10-8-15)17-2-3-17;/h1,4-6,11-12,15,17H,2-3,7-10,13H2,(H,27,32)(H,33,34);/q
;+1/p-1

> <STRUCTURE_InChIKey>
RPRGCEXAPSMSJT-UHFFFAOYSA-M

> <Substance_modify_yyyymmdd>
20100602

> <Coord_Metals>
0

> <Index>
935

> <Canonical_Smiles>
OC(=O)c1ccc2c(c1)nc(C(=O)NC3CCN(CC3)C4CC4)n2Cc5cc(on5)c6ccc(Cl)s6

> <Molecular_Weight>
526.00715

> <Frequency>
1

$$$$

  SciTegic          2D

 70 73  0  0  0  0            999 V2000
    1.4134   -5.2849    0.0000 C   0  0
    0.8760   -3.8898    0.0000 C   0  0
    0.4807   -6.4648    0.0000 C   0  0
   -0.6072   -3.6406    0.0000 C   0  0
   -1.0195   -6.2221    0.0000 C   0  0
   -1.5569   -4.8270    0.0000 N   0  0
    2.9043   -5.1990    0.0000 C   0  0
    3.2949   -3.7786    0.0000 C   0  0
    2.0392   -2.9533    0.0000 N   0  0
   -1.9728   -7.3812    0.0000 O   0  0
    4.6981   -3.2529    0.0000 C   0  0
    5.6242   -4.0159    0.0000 O   0  0
    4.9458   -1.7726    0.0000 N   0  0
    6.3513   -1.2462    0.0000 C   0  0
    7.8061    1.3296    0.0000 N   0  0
    6.3062    1.3154    0.0000 C   0  0
    8.5684    0.0378    0.0000 C   0  0
    5.5685    0.0094    0.0000 C   0  0
    7.8307   -1.2683    0.0000 C   0  0
    1.9651   -1.4569    0.0000 C   0  0
    0.6302   -0.7709    0.0000 C   0  0
    8.5442    2.6364    0.0000 C   0  0
    7.7823    3.9295    0.0000 C   0  0
   10.0449    2.6502    0.0000 C   0  0
   -3.4535   -7.1360    0.0000 C   0  0
   -4.4069   -8.2951    0.0000 C   0  0
   -5.8875   -8.0499    0.0000 O   0  0
   -6.8409   -9.2090    0.0000 C   0  0
    0.5559    0.7281    0.0000 N   0  0
   -0.3782   -1.4213    0.0000 O   0  0
   -0.7789    1.4141    0.0000 C   0  0
   -0.8554    2.9122    0.0000 C   0  0
   -2.0382    0.5990    0.0000 N   0  0
   -2.1909    3.5951    0.0000 C   0  0
   -3.3737    1.2819    0.0000 C   0  0
   -3.4501    2.7800    0.0000 C   0  0
   -4.5185    3.3263    0.0000 Cl  0  0
    0.8430   -7.3968    0.0000 H   0  0
   -0.9638   -2.7063    0.0000 H   0  0
    3.5331   -5.9766    0.0000 H   0  0
    4.1740   -1.1368    0.0000 H   0  0
    6.8596   -2.1074    0.0000 H   0  0
    5.3067    1.2824    0.0000 H   0  0
    6.8183    2.1744    0.0000 H   0  0
    9.0561   -0.8352    0.0000 H   0  0
    9.0396    0.9198    0.0000 H   0  0
    5.1073   -0.8779    0.0000 H   0  0
    6.5685    0.0086    0.0000 H   0  0
    7.3528   -0.3899    0.0000 H   0  0
    8.8305   -1.2486    0.0000 H   0  0
    1.9161   -0.4581    0.0000 H   0  0
    2.8055   -0.9149    0.0000 H   0  0
    7.5442    2.6273    0.0000 H   0  0
    8.2741    4.8002    0.0000 H   0  0
    6.7824    3.9204    0.0000 H   0  0
    7.2743    4.7908    0.0000 H   0  0
   10.5375    3.5204    0.0000 H   0  0
   10.5525    1.7886    0.0000 H   0  0
   11.0449    2.6589    0.0000 H   0  0
   -3.8049   -6.1998    0.0000 H   0  0
   -2.8186   -6.3634    0.0000 H   0  0
   -4.0554   -9.2313    0.0000 H   0  0
   -5.0418   -9.0677    0.0000 H   0  0
   -7.8275   -9.0456    0.0000 H   0  0
   -6.4895  -10.1452    0.0000 H   0  0
   -7.4758   -9.9816    0.0000 H   0  0
    1.3963    1.2701    0.0000 H   0  0
   -0.0159    3.4556    0.0000 H   0  0
   -2.2418    4.5938    0.0000 H   0  0
   -4.2132    0.7385    0.0000 H   0  0
  1  3  2  0
  1  7  1  0
  1  2  1  0
  2  4  2  0
  2  9  1  0
  3  5  1  0
  4  6  1  0
  5  6  2  0
  5 10  1  0
  7  8  2  0
  8  9  1  0
  8 11  1  0
  9 20  1  0
 10 25  1  0
 11 12  2  0
 11 13  1  0
 13 14  1  0
 14 18  1  0
 14 19  1  0
 15 16  1  0
 15 17  1  0
 15 22  1  0
 16 18  1  0
 17 19  1  0
 20 21  1  0
 21 29  1  0
 21 30  2  0
 22 23  1  0
 22 24  1  0
 25 26  1  0
 26 27  1  0
 27 28  1  0
 29 31  1  0
 31 32  1  0
 31 33  2  0
 32 34  2  0
 33 35  1  0
 34 36  1  0
 35 36  2  0
 36 37  1  0
  3 38  1  0
  4 39  1  0
  7 40  1  0
 13 41  1  0
 14 42  1  0
 16 43  1  0
 16 44  1  0
 17 45  1  0
 17 46  1  0
 18 47  1  0
 18 48  1  0
 19 49  1  0
 19 50  1  0
 20 51  1  0
 20 52  1  0
 22 53  1  0
 23 54  1  0
 23 55  1  0
 23 56  1  0
 24 57  1  0
 24 58  1  0
 24 59  1  0
 25 60  1  0
 25 61  1  0
 26 62  1  0
 26 63  1  0
 28 64  1  0
 28 65  1  0
 28 66  1  0
 29 67  1  0
 32 68  1  0
 34 69  1  0
 35 70  1  0
V    1 0
V    2 1
V    3 2
V    4 3
V    5 4
V    6 5
V    7 6
V    8 7
V    9 8
V   10 9
V   11 10
V   12 11
V   13 12
V   14 13
V   15 14
V   16 15
V   17 16
V   18 17
V   19 18
V   20 19
V   21 20
V   22 21
V   23 22
V   24 23
V   25 24
V   26 25
V   27 26
V   28 27
V   29 28
V   30 29
V   31 30
V   32 31
V   33 32
V   34 33
V   35 34
V   36 35
V   37 36
M  END
> <DSSTox_RID>
66332

> <DSSTox_CID>
27385

> <DSSTox_CID_Parent>
27386

> <DSSTox_Generic_SID>
47385

> <DSSTox_FileID>
936_TXCST2_v1a

> <STRUCTURE_Formula>
C28H37ClN6O6

> <STRUCTURE_MolecularWeight>
589.083

> <STRUCTURE_ChemicalType>
defined organic

> <STRUCTURE_TestedForm_DefinedOrganic>
complex acetic acid

> <STRUCTURE_Shown>
tested chemical

> <TestSubstance_ChemicalName>
1-{2-[(5-chloropyridin-2-yl)amino]-2-oxoethyl}-5-(2-methoxyethoxy)-N-[1-(propan-2-yl)piperidin-4-yl]-1H-pyrrolo[2,3-c]pyridine-2-carboxamide acetate

> <TestSubstance_CASRN>
NOCAS_47385

> <TestSubstance_Description>
single chemical compound

> <STRUCTURE_ChemicalName_IUPAC>
1-{2-[(5-chloropyridin-2-yl)amino]-2-oxoethyl}-5-(2-methoxyethoxy)-N-[1-(propan-2-yl)piperidin-4-yl]-1H-pyrrolo[2,3-c]pyridine-2-carboxamide acetate

> <STRUCTURE_SMILES>
O=C(NC3CCN(C(C)C)CC3)C2=CC1=CC(OCCOC)=NC=C1N2CC(NC4=NC=C(Cl)C=C4)=O.OC(C)=O

> <STRUCTURE_Parent_SMILES>
O=C(NC3CCN(C(C)C)CC3)C2=CC1=CC(OCCOC)=NC=C1N2CC(NC4=NC=C(Cl)C=C4)=O

> <STRUCTURE_InChIS>
InChI=1S/C26H33ClN6O4.C2H4O2/c1-17(2)32-8-6-20(7-9-32)30-26(35)21-12-18-13-25(37-11-10-36-3)29-15-22(18)33(21)16-24(34)31-23-5-4-19(27)14-28-23;1-2(3)4/h4-5,12-15,17,20H,6-11,16H2,1-3H3,(H,30,35)(H,28
,31,34);1H3,(H,3,4)

> <STRUCTURE_InChIKey>
XGGRLKVDUXPILZ-UHFFFAOYSA-N

> <Substance_modify_yyyymmdd>
20100602

> <Coord_Metals>
0

> <Index>
936

> <Canonical_Smiles>
COCCOc1cc2cc(C(=O)NC3CCN(CC3)C(C)C)n(CC(=O)Nc4ccc(Cl)cn4)c2cn1

> <Molecular_Weight>
529.03101

> <Frequency>
1

$$$$

  SciTegic          2D

 72 76  0  0  0  0            999 V2000
    1.2990   -0.7500    0.0000 C   0  0
    1.2990    0.7500    0.0000 C   0  0
    0.0000   -1.5000    0.0000 N   0  0
    0.0000    1.5000    0.0000 O   0  0
   -1.2990   -0.7500    0.0000 C   0  0
   -1.2990    0.7500    0.0000 C   0  0
    1.2626    2.2300    0.0000 C   0  0
    2.7506    0.4572    0.0000 C   0  0
    0.0000   -3.0008    0.0000 C   0  0
   -1.2978   -3.7529    0.0000 C   0  0
    1.3002   -3.7488    0.0000 C   0  0
   -1.2955   -5.2529    0.0000 C   0  0
    1.3026   -5.2488    0.0000 C   0  0
    0.0048   -6.0009    0.0000 C   0  0
    5.6914   -0.1359    0.0000 C   0  0
    4.6993   -1.2610    0.0000 C   0  0
    5.2130    1.2857    0.0000 C   0  0
    3.2289   -0.9645    0.0000 C   0  0
    3.7426    1.5823    0.0000 C   0  0
    6.8677   -0.3732    0.0000 Cl  0  0
    5.0820   -2.3984    0.0000 Cl  0  0
    2.1690    3.4262    0.0000 C   0  0
    1.5872    4.8096    0.0000 N   0  0
    2.4938    6.0046    0.0000 C   0  0
    0.0990    4.9974    0.0000 C   0  0
    1.9123    7.3873    0.0000 C   0  0
   -0.4826    6.3801    0.0000 C   0  0
    0.4241    7.5750    0.0000 C   0  0
   -0.9092    8.2192    0.0000 C   0  0
   -2.1497    7.3757    0.0000 C   0  0
   -1.0195    9.7151    0.0000 C   0  0
   -3.5003    8.0282    0.0000 C   0  0
   -2.3701   10.3676    0.0000 C   0  0
   -3.6105    9.5242    0.0000 C   0  0
    0.8963    8.9781    0.0000 N   0  0
    2.3597    9.3115    0.0000 C   0  0
    3.0393    8.5780    0.0000 O   0  0
    2.8035   10.7452    0.0000 C   0  0
   -2.4583   11.5644    0.0000 F   0  0
   -2.3383   -1.3500    0.0000 O   0  0
    2.1530   -0.2297    0.0000 H   0  0
    1.2756   -1.7497    0.0000 H   0  0
   -2.1530    0.2297    0.0000 H   0  0
   -1.2756    1.7497    0.0000 H   0  0
    1.2131    3.2288    0.0000 H   0  0
    0.3729    2.6867    0.0000 H   0  0
   -2.1647   -3.2543    0.0000 H   0  0
    2.1655   -3.2475    0.0000 H   0  0
   -2.1607   -5.7543    0.0000 H   0  0
    2.1694   -5.7474    0.0000 H   0  0
    0.0064   -7.0009    0.0000 H   0  0
    5.8744    2.0358    0.0000 H   0  0
    2.5676   -1.7145    0.0000 H   0  0
    3.4237    2.5301    0.0000 H   0  0
    2.7733    4.2229    0.0000 H   0  0
    3.1612    3.3013    0.0000 H   0  0
    3.0793    6.8153    0.0000 H   0  0
    2.8598    5.0740    0.0000 H   0  0
   -0.8900    5.1459    0.0000 H   0  0
    0.5082    4.0849    0.0000 H   0  0
    2.9012    7.2388    0.0000 H   0  0
    1.5031    8.2997    0.0000 H   0  0
   -0.8484    7.3107    0.0000 H   0  0
   -1.0681    5.5694    0.0000 H   0  0
   -2.0762    6.3784    0.0000 H   0  0
   -0.1925   10.2774    0.0000 H   0  0
   -4.3272    7.4659    0.0000 H   0  0
   -4.5109    9.9592    0.0000 H   0  0
    0.2167    9.7117    0.0000 H   0  0
    3.7785   10.9673    0.0000 H   0  0
    3.0988   11.7006    0.0000 H   0  0
    2.1238   11.4787    0.0000 H   0  0
  1  2  1  0
  1  3  1  0
  2  4  1  0
  2  7  1  0
  2  8  1  0
  3  5  1  0
  3  9  1  0
  4  6  1  0
  5  6  1  0
  5 40  2  0
  7 22  1  0
  8 18  1  0
  8 19  2  0
  9 10  1  0
  9 11  2  0
 10 12  2  0
 11 13  1  0
 12 14  1  0
 13 14  2  0
 15 16  1  0
 15 17  2  0
 15 20  1  0
 16 18  2  0
 16 21  1  0
 17 19  1  0
 22 23  1  0
 23 24  1  0
 23 25  1  0
 24 26  1  0
 25 27  1  0
 26 28  1  0
 27 28  1  0
 28 29  1  0
 28 35  1  0
 29 30  2  0
 29 31  1  0
 30 32  1  0
 31 33  2  0
 32 34  2  0
 33 34  1  0
 33 39  1  0
 35 36  1  0
 36 37  2  0
 36 38  1  0
  1 41  1  0
  1 42  1  0
  6 43  1  0
  6 44  1  0
  7 45  1  0
  7 46  1  0
 10 47  1  0
 11 48  1  0
 12 49  1  0
 13 50  1  0
 14 51  1  0
 17 52  1  0
 18 53  1  0
 19 54  1  0
 22 55  1  0
 22 56  1  0
 24 57  1  0
 24 58  1  0
 25 59  1  0
 25 60  1  0
 26 61  1  0
 26 62  1  0
 27 63  1  0
 27 64  1  0
 30 65  1  0
 31 66  1  0
 32 67  1  0
 34 68  1  0
 35 69  1  0
 38 70  1  0
 38 71  1  0
 38 72  1  0
V    1 0
V    2 1
V    3 2
V    4 3
V    5 4
V    6 5
V    7 6
V    8 7
V    9 8
V   10 9
V   11 10
V   12 11
V   13 12
V   14 13
V   15 14
V   16 15
V   17 16
V   18 17
V   19 18
V   20 19
V   21 20
V   22 21
V   23 22
V   24 23
V   25 24
V   26 25
V   27 26
V   28 27
V   29 28
V   30 29
V   31 30
V   32 31
V   33 32
V   34 33
V   35 34
V   36 35
V   37 36
V   38 37
V   39 38
V   40 39
M  END
> <DSSTox_RID>
66334

> <DSSTox_CID>
27387

> <DSSTox_CID_Parent>
27388

> <DSSTox_Generic_SID>
47387

> <DSSTox_FileID>
937_TXCST2_v1a

> <STRUCTURE_Formula>
C35H38Cl2FN3O7

> <STRUCTURE_MolecularWeight>
702.5965

> <STRUCTURE_ChemicalType>
defined organic

> <STRUCTURE_TestedForm_DefinedOrganic>
complex succinic acid

> <STRUCTURE_Shown>
tested chemical

> <TestSubstance_ChemicalName>
N-[1-{2-[(2R)-2-(3,4-dichlorophenyl)-5-oxo-4-phenylmorpholin-2-yl]ethyl}-4-(3-fluorophenyl)piperidin-4-yl]acetamide butanedioate

> <TestSubstance_CASRN>
NOCAS_47387

> <TestSubstance_Description>
single chemical compound

> <STRUCTURE_ChemicalName_IUPAC>
N-[1-{2-[(2R)-2-(3,4-dichlorophenyl)-5-oxo-4-phenylmorpholin-2-yl]ethyl}-4-(3-fluorophenyl)piperidin-4-yl]acetamide butanedioate

> <STRUCTURE_SMILES>
ClC(C(Cl)=C4)=CC=C4[C@](OC1)(CCN2CCC(C5=CC=CC(F)=C5)(NC(C)=O)CC2)CN(C3=CC=CC=C3)C1=O.O=C(CCC(O)=O)O

> <STRUCTURE_Parent_SMILES>
ClC(C(Cl)=C4)=CC=C4[C@](OC1)(CCN2CCC(C5=CC=CC(F)=C5)(NC(C)=O)CC2)CN(C3=CC=CC=C3)C1=O

> <STRUCTURE_InChIS>
InChI=1S/C31H32Cl2FN3O3.C4H6O4/c1-22(38)35-30(23-6-5-7-25(34)18-23)12-15-36(16-13-30)17-14-31(24-10-11-27(32)28(33)19-24)21-37(29(39)20-40-31)26-8-3-2-4-9-26;5-3(6)1-2-4(7)8/h2-11,18-19H,12-17,20-21H2
,1H3,(H,35,38);1-2H2,(H,5,6)(H,7,8)/t31-;/m0./s1

> <STRUCTURE_InChIKey>
XGCWGIQCKROJJU-YNMZEGNTSA-N

> <Substance_modify_yyyymmdd>
20100602

> <Coord_Metals>
0

> <Index>
937

> <Canonical_Smiles>
CC(=O)NC1(CCN(CCC2(CN(C(=O)CO2)c3ccccc3)c4ccc(Cl)c(Cl)c4)CC1)c5cccc(F)c5

> <Molecular_Weight>
584.50848

> <Frequency>
1

$$$$

  SciTegic          2D

 69 71  0  0  0  0            999 V2000
    1.2990   -0.7500    0.0000 C   0  0
    1.2990    0.7500    0.0000 C   0  0
    0.0000   -1.5000    0.0000 C   0  0
    0.0000    1.5000    0.0000 C   0  0
   -1.2990   -0.7500    0.0000 C   0  0
   -1.2990    0.7500    0.0000 C   0  0
    2.2636    1.8998    0.0000 C   0  0
    2.7373    0.4980    0.0000 C   0  0
    3.1856    3.0571    0.0000 C   0  0
    4.2148    0.2392    0.0000 C   0  0
    4.6631    2.7983    0.0000 C   0  0
    5.1777    1.3893    0.0000 C   0  0
   -2.6003   -1.4978    0.0000 C   0  0
   -3.8990   -0.7455    0.0000 O   0  0
   -2.6024   -2.6978    0.0000 O   0  0
   -5.2003   -1.4932    0.0000 C   0  0
   -6.4990   -0.7410    0.0000 C   0  0
    6.4403    2.1623    0.0000 N   0  0
    7.7765    1.4788    0.0000 C   0  0
    9.0370    2.2935    0.0000 C   0  0
   10.3732    1.6100    0.0000 C   0  0
    8.9613    3.7923    0.0000 O   0  0
   11.6337    2.4246    0.0000 O   0  0
   12.9699    1.7412    0.0000 C   0  0
   15.6380    0.3695    0.0000 C   0  0
   15.5649    1.8677    0.0000 C   0  0
   14.3771   -0.4429    0.0000 C   0  0
   14.2309    2.5535    0.0000 C   0  0
   13.0430    0.2429    0.0000 C   0  0
   16.9714   -0.3194    0.0000 O   0  0
   16.8249    2.6832    0.0000 N   0  0
   16.7496    4.1821    0.0000 S   0  0
   15.6814    4.7289    0.0000 O   0  0
   18.0096    4.9976    0.0000 C   0  0
   15.7419    3.5306    0.0000 O   0  0
    2.1651   -1.2500    0.0000 H   0  0
    0.0000   -2.5000    0.0000 H   0  0
    0.0000    2.5000    0.0000 H   0  0
   -2.1651    1.2500    0.0000 H   0  0
    1.9196    2.8388    0.0000 H   0  0
    3.4055    1.2420    0.0000 H   0  0
    3.0900   -0.4377    0.0000 H   0  0
    3.5611    2.1303    0.0000 H   0  0
    3.8354    3.8172    0.0000 H   0  0
    3.5550   -0.5122    0.0000 H   0  0
    5.2036    0.0898    0.0000 H   0  0
    5.6438    2.6025    0.0000 H   0  0
    4.2981    3.7293    0.0000 H   0  0
    4.1972    1.5860    0.0000 H   0  0
   -4.3352   -1.9949    0.0000 H   0  0
   -5.2020   -2.4932    0.0000 H   0  0
   -7.3660   -1.2392    0.0000 H   0  0
   -7.3641   -0.2393    0.0000 H   0  0
   -6.4973    0.2590    0.0000 H   0  0
    6.3899    3.1610    0.0000 H   0  0
    6.9369    0.9357    0.0000 H   0  0
    7.8270    0.4801    0.0000 H   0  0
    8.1469    2.7493    0.0000 H   0  0
   10.4236    0.6113    0.0000 H   0  0
   11.2633    1.1542    0.0000 H   0  0
    9.8007    4.3359    0.0000 H   0  0
   14.4258   -1.4417    0.0000 H   0  0
   14.1822    3.5523    0.0000 H   0  0
   12.2024   -0.2987    0.0000 H   0  0
   17.0187   -1.3183    0.0000 H   0  0
   17.7150    2.2275    0.0000 H   0  0
   17.9594    5.9963    0.0000 H   0  0
   18.8494    5.5405    0.0000 H   0  0
   18.8997    4.5419    0.0000 H   0  0
  1  2  1  0
  1  3  2  0
  2  4  2  0
  2  7  1  0
  3  5  1  0
  4  6  1  0
  5  6  2  0
  5 13  1  0
  7  8  1  0
  7  9  1  0
  8 10  1  0
  9 11  1  0
 10 12  1  0
 11 12  1  0
 12 18  1  0
 13 14  1  0
 13 15  2  0
 14 16  1  0
 16 17  1  0
 18 19  1  0
 19 20  1  0
 20 21  1  0
 20 22  1  0
 21 23  1  0
 23 24  1  0
 24 28  1  0
 24 29  2  0
 25 26  1  0
 25 27  2  0
 25 30  1  0
 26 28  2  0
 26 31  1  0
 27 29  1  0
 31 32  1  0
 32 33  2  0
 32 34  1  0
 32 35  2  0
  1 36  1  0
  3 37  1  0
  4 38  1  0
  6 39  1  0
  7 40  1  0
  8 41  1  0
  8 42  1  0
  9 43  1  0
  9 44  1  0
 10 45  1  0
 10 46  1  0
 11 47  1  0
 11 48  1  0
 12 49  1  0
 16 50  1  0
 16 51  1  0
 17 52  1  0
 17 53  1  0
 17 54  1  0
 18 55  1  0
 19 56  1  0
 19 57  1  0
 20 58  1  0
 21 59  1  0
 21 60  1  0
 22 61  1  0
 27 62  1  0
 28 63  1  0
 29 64  1  0
 30 65  1  0
 31 66  1  0
 34 67  1  0
 34 68  1  0
 34 69  1  0
V    1 0
V    2 1
V    3 2
V    4 3
V    5 4
V    6 5
V    7 6
V    8 7
V    9 8
V   10 9
V   11 10
V   12 11
V   13 12
V   14 13
V   15 14
V   16 15
V   17 16
V   18 17
V   19 18
V   20 19
V   21 20
V   22 21
V   23 22
V   24 23
V   25 24
V   26 25
V   27 26
V   28 27
V   29 28
V   30 29
V   31 30
V   32 31
V   33 32
V   34 33
V   35 34
M  END
> <DSSTox_RID>
66336

> <DSSTox_CID>
27389

> <DSSTox_CID_Parent>
27390

> <DSSTox_Generic_SID>
47389

> <DSSTox_FileID>
938_TXCST2_v1a

> <STRUCTURE_Formula>
C25H35ClN2O7S

> <STRUCTURE_MolecularWeight>
543.0726

> <STRUCTURE_ChemicalType>
defined organic

> <STRUCTURE_TestedForm_DefinedOrganic>
complex HCl

> <STRUCTURE_Shown>
tested chemical

> <TestSubstance_ChemicalName>
ethyl 4-(4-{[(2S)-2-hydroxy-3-{4-hydroxy-3-[(methylsulfonyl)amino]phenoxy}propyl]amino}cyclohexyl)benzoate hydrochloride

> <TestSubstance_CASRN>
NOCAS_47389

> <TestSubstance_Description>
single chemical compound

> <STRUCTURE_ChemicalName_IUPAC>
ethyl 4-(trans-4-{[(2S)-2-hydroxy-3-{4-hydroxy-3-[(methylsulfonyl)amino]phenoxy}propyl]amino}cyclohexyl)benzoate hydrochloride (1:1)

> <STRUCTURE_SMILES>
O=C(OCC)C1=CC=C([C@@H]2CC[C@@H](NC[C@H](O)COC3=CC=C(O)C(NS(=O)(C)=O)=C3)CC2)C=C1.Cl

> <STRUCTURE_Parent_SMILES>
O=C(OCC)C1=CC=C([C@@H]2CC[C@@H](NC[C@H](O)COC3=CC=C(O)C(NS(=O)(C)=O)=C3)CC2)C=C1

> <STRUCTURE_InChIS>
InChI=1S/C25H34N2O7S.ClH/c1-3-33-25(30)19-6-4-17(5-7-19)18-8-10-20(11-9-18)26-15-21(28)16-34-22-12-13-24(29)23(14-22)27-35(2,31)32;/h4-7,12-14,18,20-21,26-29H,3,8-11,15-16H2,1-2H3;1H/t18-,20-,21-;/m0.
/s1

> <STRUCTURE_InChIKey>
VEZDPEGPNPRTOH-PSLBYKFTSA-N

> <Substance_modify_yyyymmdd>
20100602

> <Coord_Metals>
0

> <Index>
938

> <Canonical_Smiles>
CCOC(=O)c1ccc(cc1)C2CCC(CC2)NCC(O)COc3ccc(O)c(NS(=O)(=O)C)c3

> <Molecular_Weight>
506.61166

> <Frequency>
1

$$$$

  SciTegic          2D

 43 46  0  0  0  0            999 V2000
    0.2917    0.7475    0.0000 C   0  0
    0.2917   -0.7475    0.0000 C   0  0
   -1.0028    1.5132    0.0000 C   0  0
   -1.0028   -1.5132    0.0000 C   0  0
   -2.3155    0.7475    0.0000 C   0  0
   -2.3155   -0.7475    0.0000 C   0  0
    1.7138    1.2033    0.0000 N   0  0
    2.5889    0.0182    0.0000 C   0  0
    1.7138   -1.2033    0.0000 C   0  0
    2.1812    2.6271    0.0000 N   0  0
   -3.3560   -1.3452    0.0000 F   0  0
    2.1825   -2.6263    0.0000 C   0  0
    3.6500    2.9355    0.0000 C   0  0
    4.1182    4.3614    0.0000 C   0  0
    4.4505    2.0415    0.0000 O   0  0
    6.0509    6.0979    0.0000 N   0  0
    5.5858    4.6718    0.0000 C   0  0
    5.0484    7.2137    0.0000 C   0  0
    3.5808    6.9034    0.0000 N   0  0
    3.1158    5.4773    0.0000 C   0  0
    5.5137    8.6405    0.0000 C   0  0
    4.5094    9.7548    0.0000 N   0  0
    6.9808    8.9532    0.0000 C   0  0
    4.9722   11.1816    0.0000 C   0  0
    7.4436   10.3800    0.0000 C   0  0
    6.4393   11.4943    0.0000 C   0  0
    6.5889    3.5555    0.0000 C   0  0
   -0.9997    2.5132    0.0000 H   0  0
   -0.9997   -2.5132    0.0000 H   0  0
   -3.1826    1.2456    0.0000 H   0  0
    3.5889    0.0254    0.0000 H   0  0
    1.5142    3.3721    0.0000 H   0  0
    1.5169   -3.3726    0.0000 H   0  0
    3.1616   -2.8300    0.0000 H   0  0
    2.4958   -3.5760    0.0000 H   0  0
    2.1374    5.2705    0.0000 H   0  0
    7.6503    8.2104    0.0000 H   0  0
    4.3027   11.9245    0.0000 H   0  0
    8.4216   10.5885    0.0000 H   0  0
    6.7478   12.4455    0.0000 H   0  0
    6.2795    2.6045    0.0000 H   0  0
    7.5672    3.7627    0.0000 H   0  0
    7.2576    2.8119    0.0000 H   0  0
  1  3  2  0
  1  7  1  0
  1  2  1  0
  2  4  2  0
  2  9  1  0
  3  5  1  0
  4  6  1  0
  5  6  2  0
  6 11  1  0
  7  8  1  0
  7 10  1  0
  8  9  2  0
  9 12  1  0
 10 13  1  0
 13 14  1  0
 13 15  2  0
 14 17  2  0
 14 20  1  0
 16 17  1  0
 16 18  2  0
 17 27  1  0
 18 19  1  0
 18 21  1  0
 19 20  2  0
 21 22  1  0
 21 23  2  0
 22 24  2  0
 23 25  1  0
 24 26  1  0
 25 26  2  0
  3 28  1  0
  4 29  1  0
  5 30  1  0
  8 31  1  0
 10 32  1  0
 12 33  1  0
 12 34  1  0
 12 35  1  0
 20 36  1  0
 23 37  1  0
 24 38  1  0
 25 39  1  0
 26 40  1  0
 27 41  1  0
 27 42  1  0
 27 43  1  0
V    1 0
V    2 1
V    3 2
V    4 3
V    5 4
V    6 5
V    7 6
V    8 7
V    9 8
V   10 9
V   11 10
V   12 11
V   13 12
V   14 13
V   15 14
V   16 15
V   17 16
V   18 17
V   19 18
V   20 19
V   21 20
V   22 21
V   23 22
V   24 23
V   25 24
V   26 25
V   27 26
M  END
> <DSSTox_RID>
66339

> <DSSTox_CID>
27391

> <DSSTox_CID_Parent>
27391

> <DSSTox_Generic_SID>
47391

> <DSSTox_FileID>
939_TXCST2_v1a

> <STRUCTURE_Formula>
C20H16FN5O

> <STRUCTURE_MolecularWeight>
361.3723

> <STRUCTURE_ChemicalType>
defined organic

> <STRUCTURE_TestedForm_DefinedOrganic>
parent

> <STRUCTURE_Shown>
tested chemical

> <TestSubstance_ChemicalName>
N-(5-fluoro-3-methyl-1H-indol-1-yl)-4-methyl-2-(pyridin-2-yl)pyrimidine-5-carboxamide

> <TestSubstance_CASRN>
1068967-96-3

> <TestSubstance_Description>
single chemical compound

> <STRUCTURE_ChemicalName_IUPAC>
N-(5-fluoro-3-methyl-1H-indol-1-yl)-4-methyl-2-(pyridin-2-yl)pyrimidine-5-carboxamide

> <STRUCTURE_SMILES>
FC2=CC=C1N(NC(C3=C(C)N=C(C4=CC=CC=N4)N=C3)=O)C=C(C)C1=C2

> <STRUCTURE_Parent_SMILES>
FC2=CC=C1N(NC(C3=C(C)N=C(C4=CC=CC=N4)N=C3)=O)C=C(C)C1=C2

> <STRUCTURE_InChIS>
InChI=1S/C20H16FN5O/c1-12-11-26(18-7-6-14(21)9-15(12)18)25-20(27)16-10-23-19(24-13(16)2)17-5-3-4-8-22-17/h3-11H,1-2H3,(H,25,27)

> <STRUCTURE_InChIKey>
YNVKAENVJKEMOU-UHFFFAOYSA-N

> <Substance_modify_yyyymmdd>
20100602

> <Coord_Metals>
0

> <Index>
939

> <Canonical_Smiles>
Cc1cn(NC(=O)c2cnc(nc2C)c3ccccn3)c4ccc(F)cc14

> <Molecular_Weight>
361.37234

> <Frequency>
1

$$$$

  SciTegic          2D

 83 82  0  0  0  0            999 V2000
    7.7999    0.0000    0.0000 C   0  0
    6.5000    0.7500    0.0000 C   0  0
    5.2000    0.0000    0.0000 C   0  0
    6.5000    2.2507    0.0000 O   0  0
    7.7992    3.0020    0.0000 C   0  0
    7.7992    4.5028    0.0000 C   0  0
    8.8386    2.4023    0.0000 O   0  0
    9.0999    0.7500    0.0000 O   0  0
   10.3999    0.0000    0.0000 C   0  0
   10.3999   -1.2000    0.0000 O   0  0
   11.6999    0.7500    0.0000 C   0  0
   12.9999    0.0000    0.0000 C   0  0
   14.2999    0.7500    0.0000 C   0  0
   15.5999    0.0000    0.0000 C   0  0
   16.8999    0.7500    0.0000 C   0  0
   18.1999    0.0000    0.0000 C   0  0
   19.4998    0.7500    0.0000 C   0  0
   20.7998    0.0000    0.0000 C   0  0
   22.0998    0.7500    0.0000 C   0  0
   23.3998    0.0000    0.0000 C   0  0
   24.6998    0.7500    0.0000 C   0  0
   24.7027   -0.7800    0.0000 O   0  0
   26.0034   -1.5287    0.0000 C   0  0
   27.0416   -0.9271    0.0000 O   0  0
   26.0062   -3.0295    0.0000 C   0  0
   25.9998    0.0000    0.0000 C   0  0
    3.9000    0.7500    0.0000 O   0  0
    2.6000    0.0000    0.0000 C   0  0
    2.6000   -1.2000    0.0000 O   0  0
    1.3000    0.7500    0.0000 C   0  0
   27.2998    0.7500    0.0000 C   0  0
   28.5998    0.0000    0.0000 C   0  0
   29.8998    0.7500    0.0000 C   0  0
   31.1998    0.0000    0.0000 C   0  0
   32.4998    0.7500    0.0000 C   0  0
    8.6659   -0.5001    0.0000 H   0  0
    7.7999   -1.0000    0.0000 H   0  0
    5.6340    1.2501    0.0000 H   0  0
    5.2000   -1.0000    0.0000 H   0  0
    4.3340   -0.5001    0.0000 H   0  0
    8.6649    5.0034    0.0000 H   0  0
    6.9330    5.0025    0.0000 H   0  0
    7.7988    5.5028    0.0000 H   0  0
   11.6999    1.7500    0.0000 H   0  0
   10.8340    1.2501    0.0000 H   0  0
   12.9999   -1.0000    0.0000 H   0  0
   12.1340   -0.5001    0.0000 H   0  0
   14.2999    1.7500    0.0000 H   0  0
   13.4339    1.2501    0.0000 H   0  0
   15.5999   -1.0000    0.0000 H   0  0
   14.7339   -0.5001    0.0000 H   0  0
   16.8999    1.7500    0.0000 H   0  0
   16.0339    1.2501    0.0000 H   0  0
   18.1999   -1.0000    0.0000 H   0  0
   17.3339   -0.5001    0.0000 H   0  0
   19.4998    1.7500    0.0000 H   0  0
   18.6339    1.2501    0.0000 H   0  0
   20.7998   -1.0000    0.0000 H   0  0
   19.9339   -0.5001    0.0000 H   0  0
   22.0998    1.7500    0.0000 H   0  0
   21.2339    1.2501    0.0000 H   0  0
   23.3998   -1.0000    0.0000 H   0  0
   22.5339   -0.5001    0.0000 H   0  0
   24.6998    1.7500    0.0000 H   0  0
   26.8729   -3.5284    0.0000 H   0  0
   26.0077   -4.0295    0.0000 H   0  0
   25.1410   -3.5309    0.0000 H   0  0
   25.9998   -1.0000    0.0000 H   0  0
   25.1339   -0.5001    0.0000 H   0  0
    0.4338    0.2503    0.0000 H   0  0
    1.3000    1.7500    0.0000 H   0  0
    0.4340    1.2501    0.0000 H   0  0
   27.2998    1.7500    0.0000 H   0  0
   26.4338    1.2501    0.0000 H   0  0
   28.5998   -1.0000    0.0000 H   0  0
   27.7338   -0.5001    0.0000 H   0  0
   29.8998    1.7500    0.0000 H   0  0
   29.0338    1.2501    0.0000 H   0  0
   31.1998   -1.0000    0.0000 H   0  0
   30.3338   -0.5001    0.0000 H   0  0
   33.3659    0.2503    0.0000 H   0  0
   32.4997    1.7500    0.0000 H   0  0
   33.3657    1.2501    0.0000 H   0  0
  1  2  1  0
  1  8  1  0
  2  3  1  0
  2  4  1  0
  3 27  1  0
  4  5  1  0
  5  6  1  0
  5  7  2  0
  8  9  1  0
  9 10  2  0
  9 11  1  0
 11 12  1  0
 12 13  1  0
 13 14  1  0
 14 15  1  0
 15 16  1  0
 16 17  1  0
 17 18  1  0
 18 19  1  0
 19 20  1  0
 20 21  1  0
 21 22  1  0
 21 26  1  0
 22 23  1  0
 23 24  2  0
 23 25  1  0
 26 31  1  0
 27 28  1  0
 28 29  2  0
 28 30  1  0
 31 32  1  0
 32 33  1  0
 33 34  1  0
 34 35  1  0
  1 36  1  0
  1 37  1  0
  2 38  1  0
  3 39  1  0
  3 40  1  0
  6 41  1  0
  6 42  1  0
  6 43  1  0
 11 44  1  0
 11 45  1  0
 12 46  1  0
 12 47  1  0
 13 48  1  0
 13 49  1  0
 14 50  1  0
 14 51  1  0
 15 52  1  0
 15 53  1  0
 16 54  1  0
 16 55  1  0
 17 56  1  0
 17 57  1  0
 18 58  1  0
 18 59  1  0
 19 60  1  0
 19 61  1  0
 20 62  1  0
 20 63  1  0
 21 64  1  0
 25 65  1  0
 25 66  1  0
 25 67  1  0
 26 68  1  0
 26 69  1  0
 30 70  1  0
 30 71  1  0
 30 72  1  0
 31 73  1  0
 31 74  1  0
 32 75  1  0
 32 76  1  0
 33 77  1  0
 33 78  1  0
 34 79  1  0
 34 80  1  0
 35 81  1  0
 35 82  1  0
 35 83  1  0
V    1 0
V    2 1
V    3 2
V    4 3
V    5 4
V    6 5
V    7 6
V    8 7
V    9 8
V   10 9
V   11 10
V   12 11
V   13 12
V   14 13
V   15 14
V   16 15
V   17 16
V   18 17
V   19 18
V   20 19
V   21 20
V   22 21
V   23 22
V   24 23
V   25 24
V   26 25
V   27 26
V   28 27
V   29 28
V   30 29
V   31 30
V   32 31
V   33 32
V   34 33
V   35 34
M  END
> <DSSTox_RID>
66340

> <DSSTox_CID>
27394

> <DSSTox_CID_Parent>
27394

> <DSSTox_Generic_SID>
47394

> <DSSTox_FileID>
940_TXCST2_v1a

> <STRUCTURE_Formula>
C27H48O8

> <STRUCTURE_MolecularWeight>
500.6652

> <STRUCTURE_ChemicalType>
defined organic

> <STRUCTURE_TestedForm_DefinedOrganic>
parent

> <STRUCTURE_Shown>
representative component in mixture

> <TestSubstance_ChemicalName>
Fully acetylated glycerol monoester on 12-Hydroxystearic acid (85%); Fully acetylated glycerol monostearate represents (10%)

> <TestSubstance_CASRN>
330198-91-9

> <TestSubstance_Description>
mixture or formulation

> <ChemicalNote>
2 main components are 2,3-bis(acetyloxy)propyl 12-(acetyloxy)octadecanoate (85%) and 2,3-bis(acetyloxy)propyl octadecanoate (10%); structure shown 2,3-bis(acetyloxy)propyl 12-(acetyloxy)octadecanoate

> <STRUCTURE_ChemicalName_IUPAC>
2,3-bis(acetyloxy)propyl 12-(acetyloxy)octadecanoate

> <STRUCTURE_SMILES>
CC(OC(COC(C)=O)COC(CCCCCCCCCCC(CCCCCC)OC(C)=O)=O)=O

> <STRUCTURE_Parent_SMILES>
CC(OC(COC(C)=O)COC(CCCCCCCCCCC(CCCCCC)OC(C)=O)=O)=O

> <STRUCTURE_InChIS>
InChI=1S/C27H48O8/c1-5-6-7-14-17-25(34-23(3)29)18-15-12-10-8-9-11-13-16-19-27(31)33-21-26(35-24(4)30)20-32-22(2)28/h25-26H,5-21H2,1-4H3

> <STRUCTURE_InChIKey>
YOFNHFCYYYNJPN-UHFFFAOYSA-N

> <Substance_modify_yyyymmdd>
20100614

> <Coord_Metals>
0

> <Index>
940

> <Canonical_Smiles>
CCCCCCC(CCCCCCCCCCC(=O)OCC(COC(=O)C)OC(=O)C)OC(=O)C

> <Molecular_Weight>
500.66522

> <Frequency>
1

$$$$

  SciTegic          2D

 78 78  0  0  0  0            999 V2000
    1.2990   -0.7500    0.0000 C   0  0
    1.2990    0.7500    0.0000 C   0  0
    0.0000   -1.5000    0.0000 C   0  0
    0.0000    1.5000    0.0000 C   0  0
   -1.2990   -0.7500    0.0000 C   0  0
   -1.2990    0.7500    0.0000 C   0  0
    1.7710   -2.1532    0.0000 C   0  0
    0.8068   -3.3033    0.0000 O   0  0
    1.3198   -4.7137    0.0000 C   0  0
    2.9528   -2.3614    0.0000 O   0  0
    0.3556   -5.8638    0.0000 C   0  0
    0.8686   -7.2743    0.0000 C   0  0
   -0.0956   -8.4244    0.0000 C   0  0
    0.4174   -9.8348    0.0000 C   0  0
   -0.5468  -10.9849    0.0000 C   0  0
   -0.0338  -12.3953    0.0000 C   0  0
   -0.9980  -13.5454    0.0000 C   0  0
    1.4442  -12.6558    0.0000 C   0  0
    1.7710    2.1532    0.0000 C   0  0
    2.9527    2.3615    0.0000 O   0  0
    0.8067    3.3033    0.0000 O   0  0
    1.3197    4.7137    0.0000 C   0  0
    0.3555    5.8638    0.0000 C   0  0
    0.8685    7.2743    0.0000 C   0  0
   -0.0957    8.4244    0.0000 C   0  0
    0.4173    9.8348    0.0000 C   0  0
   -0.5469   10.9849    0.0000 C   0  0
   -0.0339   12.3953    0.0000 C   0  0
   -0.9981   13.5454    0.0000 C   0  0
    1.4441   12.6558    0.0000 C   0  0
    2.1526   -0.2289    0.0000 H   0  0
    0.4210    0.2714    0.0000 H   0  0
   -0.8776   -1.9794    0.0000 H   0  0
    0.8775   -1.9795    0.0000 H   0  0
    0.8776    1.9794    0.0000 H   0  0
   -0.8775    1.9795    0.0000 H   0  0
   -2.1530   -0.2297    0.0000 H   0  0
   -0.4450   -0.2298    0.0000 H   0  0
   -1.2755    1.7497    0.0000 H   0  0
   -2.1531    0.2298    0.0000 H   0  0
    1.9626   -3.9477    0.0000 H   0  0
    2.3046   -4.8873    0.0000 H   0  0
    0.0133   -4.9242    0.0000 H   0  0
   -0.6293   -5.6903    0.0000 H   0  0
    1.5114   -6.5082    0.0000 H   0  0
    1.8534   -7.4478    0.0000 H   0  0
   -0.4379   -7.4848    0.0000 H   0  0
   -1.0805   -8.2508    0.0000 H   0  0
    1.0602   -9.0688    0.0000 H   0  0
    1.4022  -10.0083    0.0000 H   0  0
   -0.8891  -10.0453    0.0000 H   0  0
   -1.5317  -10.8114    0.0000 H   0  0
   -1.0186  -12.2218    0.0000 H   0  0
   -0.6562  -14.4852    0.0000 H   0  0
   -1.9829  -13.3719    0.0000 H   0  0
   -1.6409  -14.3114    0.0000 H   0  0
    1.7869  -13.5952    0.0000 H   0  0
    2.4291  -12.8288    0.0000 H   0  0
    2.0866  -11.8894    0.0000 H   0  0
    1.9626    3.9477    0.0000 H   0  0
    2.3046    4.8873    0.0000 H   0  0
    0.0132    4.9242    0.0000 H   0  0
   -0.6293    5.6903    0.0000 H   0  0
    1.5113    6.5083    0.0000 H   0  0
    1.8533    7.4478    0.0000 H   0  0
   -0.4380    7.4848    0.0000 H   0  0
   -1.0805    8.2508    0.0000 H   0  0
    1.0601    9.0688    0.0000 H   0  0
    1.4021   10.0083    0.0000 H   0  0
   -0.8892   10.0453    0.0000 H   0  0
   -1.5318   10.8113    0.0000 H   0  0
   -1.0187   12.2218    0.0000 H   0  0
   -0.6563   14.4852    0.0000 H   0  0
   -1.9830   13.3719    0.0000 H   0  0
   -1.6410   14.3114    0.0000 H   0  0
    1.7868   13.5952    0.0000 H   0  0
    2.4290   12.8288    0.0000 H   0  0
    2.0865   11.8895    0.0000 H   0  0
  1  2  1  0
  1  3  1  0
  1  7  1  0
  2  4  1  0
  2 19  1  0
  3  5  1  0
  4  6  1  0
  5  6  1  0
  7  8  1  0
  7 10  2  0
  8  9  1  0
  9 11  1  0
 11 12  1  0
 12 13  1  0
 13 14  1  0
 14 15  1  0
 15 16  1  0
 16 17  1  0
 16 18  1  0
 19 20  2  0
 19 21  1  0
 21 22  1  0
 22 23  1  0
 23 24  1  0
 24 25  1  0
 25 26  1  0
 26 27  1  0
 27 28  1  0
 28 29  1  0
 28 30  1  0
  1 31  1  0
  2 32  1  0
  3 33  1  0
  3 34  1  0
  4 35  1  0
  4 36  1  0
  5 37  1  0
  5 38  1  0
  6 39  1  0
  6 40  1  0
  9 41  1  0
  9 42  1  0
 11 43  1  0
 11 44  1  0
 12 45  1  0
 12 46  1  0
 13 47  1  0
 13 48  1  0
 14 49  1  0
 14 50  1  0
 15 51  1  0
 15 52  1  0
 16 53  1  0
 17 54  1  0
 17 55  1  0
 17 56  1  0
 18 57  1  0
 18 58  1  0
 18 59  1  0
 22 60  1  0
 22 61  1  0
 23 62  1  0
 23 63  1  0
 24 64  1  0
 24 65  1  0
 25 66  1  0
 25 67  1  0
 26 68  1  0
 26 69  1  0
 27 70  1  0
 27 71  1  0
 28 72  1  0
 29 73  1  0
 29 74  1  0
 29 75  1  0
 30 76  1  0
 30 77  1  0
 30 78  1  0
V    1 0
V    2 1
V    3 2
V    4 3
V    5 4
V    6 5
V    7 6
V    8 7
V    9 8
V   10 9
V   11 10
V   12 11
V   13 12
V   14 13
V   15 14
V   16 15
V   17 16
V   18 17
V   19 18
V   20 19
V   21 20
V   22 21
V   23 22
V   24 23
V   25 24
V   26 25
V   27 26
V   28 27
V   29 28
V   30 29
M  END
> <DSSTox_RID>
66495

> <DSSTox_CID>
27395

> <DSSTox_CID_Parent>
27395

> <DSSTox_Generic_SID>
47395

> <DSSTox_FileID>
941_TXCST2_v1a

> <STRUCTURE_Formula>
C26H48O4

> <STRUCTURE_MolecularWeight>
424.6569

> <STRUCTURE_ChemicalType>
defined organic

> <STRUCTURE_TestedForm_DefinedOrganic>
parent

> <STRUCTURE_Shown>
tested chemical

> <TestSubstance_ChemicalName>
1,2-cyclohexane dicarboxylic acid diisononyl ester

> <TestSubstance_CASRN>
166412-78-8

> <TestSubstance_Description>
mixture or formulation

> <ChemicalNote>
mixture of C9 isomers; structure shown 7-methyloctyl

> <STRUCTURE_ChemicalName_IUPAC>
bis(7-methyloctyl) cyclohexane-1,2-dicarboxylate

> <STRUCTURE_SMILES>
O=C(OCCCCCCC(C)C)C1C(C(OCCCCCCC(C)C)=O)CCCC1

> <STRUCTURE_Parent_SMILES>
O=C(OCCCCCCC(C)C)C1C(C(OCCCCCCC(C)C)=O)CCCC1

> <STRUCTURE_InChIS>
InChI=1S/C26H48O4/c1-21(2)15-9-5-7-13-19-29-25(27)23-17-11-12-18-24(23)26(28)30-20-14-8-6-10-16-22(3)4/h21-24H,5-20H2,1-4H3

> <STRUCTURE_InChIKey>
HORIEOQXBKUKGQ-UHFFFAOYSA-N

> <Substance_modify_yyyymmdd>
20100615

> <Coord_Metals>
0

> <Index>
941

> <Canonical_Smiles>
CC(C)CCCCCCOC(=O)C1CCCCC1C(=O)OCCCCCCC(C)C

> <Molecular_Weight>
424.65692

> <Frequency>
1

$$$$

  SciTegic          2D

 20 22  0  0  0  0            999 V2000
    0.5431   -0.4029    0.0000 C   0  0
    0.5431    1.2263    0.0000 C   0  0
    3.0482    0.3854    0.0000 O   0  0
    2.0672   -0.9285    0.0000 C   0  0
    2.0672    1.7168    0.0000 C   0  0
   -0.9986   -0.9285    0.0000 C   0  0
   -0.9986    1.7168    0.0000 C   0  0
   -0.1752    1.0336    0.0000 C   0  0
   -0.1752    0.0000    0.0000 C   0  0
   -1.9621    0.3854    0.0000 C   0  0
    2.4358    2.8588    0.0000 O   0  0
    2.4203   -2.0754    0.0000 O   0  0
    0.5413   -1.4029    0.0000 H   0  0
    0.5414    2.2263    0.0000 H   0  0
   -0.9353   -1.9265    0.0000 H   0  0
   -1.0218    2.7166    0.0000 H   0  0
    0.7300    1.4587    0.0000 H   0  0
    0.7597   -0.3548    0.0000 H   0  0
   -2.4519    1.2572    0.0000 H   0  0
   -2.4465   -0.4894    0.0000 H   0  0
  1  2  1  0
  1  4  1  0
  1  6  1  0
  2  5  1  0
  2  7  1  0
  3  4  1  0
  3  5  1  0
  4 12  2  0
  5 11  2  0
  6  9  1  0
  6 10  1  0
  7  8  1  0
  7 10  1  0
  8  9  2  0
  1 13  1  0
  2 14  1  0
  6 15  1  0
  7 16  1  0
  8 17  1  0
  9 18  1  0
 10 19  1  0
 10 20  1  0
V    1 0
V    2 1
V    3 2
V    4 3
V    5 4
V    6 5
V    7 6
V    8 7
V    9 8
V   10 9
V   11 10
V   12 11
M  END
> <DSSTox_RID>
66978

> <DSSTox_CID>
27456

> <DSSTox_CID_Parent>
27456

> <DSSTox_Generic_SID>
47456

> <DSSTox_FileID>
942_TXCST2_v1a

> <STRUCTURE_Formula>
C9H8O3

> <STRUCTURE_MolecularWeight>
164.158

> <STRUCTURE_ChemicalType>
defined organic

> <STRUCTURE_TestedForm_DefinedOrganic>
parent

> <STRUCTURE_Shown>
tested chemical

> <TestSubstance_ChemicalName>
4,7-Methanoisobenzofuran-1,3-dione, 3a,4,7,7a-tetrahydro-

> <TestSubstance_CASRN>
826-62-0

> <TestSubstance_Description>
single chemical compound

> <STRUCTURE_ChemicalName_IUPAC>
3a,4,7,7a-tetrahydro-4,7-methano-2-benzofuran-1,3-dione

> <STRUCTURE_SMILES>
O=C1C2C(C3C=CC2C3)C(O1)=O

> <STRUCTURE_Parent_SMILES>
O=C1C2C(C3C=CC2C3)C(O1)=O

> <STRUCTURE_InChIS>
InChI=1S/C9H8O3/c10-8-6-4-1-2-5(3-4)7(6)9(11)12-8/h1-2,4-7H,3H2

> <STRUCTURE_InChIKey>
KNDQHSIWLOJIGP-UHFFFAOYSA-N

> <Substance_modify_yyyymmdd>
20100621

> <Coord_Metals>
0

> <Index>
942

> <Canonical_Smiles>
O=C1OC(=O)C2C3CC(C=C3)C12

> <Molecular_Weight>
164.15801

> <Frequency>
1

$$$$

  SciTegic          2D

 66 67  0  0  0  0            999 V2000
    0.0000    0.7486    0.0000 C   0  0
    0.0000   -0.7486    0.0000 C   0  0
    1.2964   -1.4973    0.0000 C   0  0
    0.9304   -4.0717    0.0000 C   0  0
   -1.2964    1.4973    0.0000 C   0  0
    1.2964    1.4973    0.0000 C   0  0
    1.8369   -2.8756    0.0000 O   0  0
   -1.2964   -1.4973    0.0000 C   0  0
   -2.6111    0.7486    0.0000 C   0  0
    2.5929   -0.7486    0.0000 C   0  0
   -3.9851  -10.2197    0.0000 C   0  0
   -2.9680   -9.1161    0.0000 C   0  0
   -2.2725   -2.6101    0.0000 C   0  0
    2.5929    0.7486    0.0000 C   0  0
   -2.6111   -0.7486    0.0000 C   0  0
   -0.0618   -3.9469    0.0000 O   0  0
   -3.5389  -11.6527    0.0000 O   0  0
   -5.1558   -9.9562    0.0000 O   0  0
   -3.4142   -7.6832    0.0000 C   0  0
   -2.3971   -6.5796    0.0000 C   0  0
    1.0040   -5.5707    0.0000 C   0  0
   -1.8262   -4.0431    0.0000 C   0  0
    2.5565    2.2286    0.0000 O   0  0
   -2.8433   -5.1467    0.0000 C   0  0
   -1.9210   -8.0164    0.0000 O   0  0
   -4.3075   -4.8171    0.0000 O   0  0
   -3.8773    0.0189    0.0000 C   0  0
   -0.2569   -6.3848    0.0000 C   0  0
    2.3391   -6.2561    0.0000 C   0  0
   -0.1834   -7.8838    0.0000 C   0  0
    0.0000   -1.7486    0.0000 H   0  0
    1.3209   -0.4976    0.0000 H   0  0
   -1.2934    2.4973    0.0000 H   0  0
    1.2964    2.4973    0.0000 H   0  0
   -1.3242   -0.4977    0.0000 H   0  0
   -3.4756    1.2512    0.0000 H   0  0
    3.4468   -0.2283    0.0000 H   0  0
    2.5694   -1.7484    0.0000 H   0  0
   -1.9924   -9.3357    0.0000 H   0  0
   -2.6702  -10.0708    0.0000 H   0  0
   -3.2481   -2.3906    0.0000 H   0  0
   -2.9505   -3.3451    0.0000 H   0  0
    3.4463    0.2275    0.0000 H   0  0
   -2.5839   -1.7483    0.0000 H   0  0
   -4.2166  -12.3880    0.0000 H   0  0
   -4.3898   -7.4636    0.0000 H   0  0
   -1.7190   -5.8446    0.0000 H   0  0
   -1.4215   -6.7992    0.0000 H   0  0
    0.1143   -5.1141    0.0000 H   0  0
   -1.1481   -3.3081    0.0000 H   0  0
   -0.8506   -4.2627    0.0000 H   0  0
    1.6907    2.7290    0.0000 H   0  0
   -3.1411   -4.1920    0.0000 H   0  0
   -1.2440   -7.2804    0.0000 H   0  0
   -4.9859   -5.5518    0.0000 H   0  0
   -3.8807    1.0189    0.0000 H   0  0
   -4.7449    0.5161    0.0000 H   0  0
   -4.7417   -0.4837    0.0000 H   0  0
   -1.1466   -5.9281    0.0000 H   0  0
   -0.3064   -5.3860    0.0000 H   0  0
    2.3890   -7.2549    0.0000 H   0  0
    3.2289   -6.7124    0.0000 H   0  0
    3.1792   -5.7137    0.0000 H   0  0
   -1.0235   -8.4262    0.0000 H   0  0
    0.7063   -8.3405    0.0000 H   0  0
   -0.1339   -8.8826    0.0000 H   0  0
  1  2  1  0
  1  5  1  0
  1  6  2  0
  2  3  1  0
  2  8  1  0
  3  7  1  0
  3 10  1  0
  4  7  1  0
  4 16  2  0
  4 21  1  0
  5  9  2  0
  6 14  1  0
  8 13  1  0
  8 15  1  0
  9 15  1  0
 10 14  1  0
 11 12  1  0
 11 17  1  0
 11 18  2  0
 12 19  1  0
 13 22  1  0
 14 23  1  0
 15 27  1  0
 19 20  1  0
 19 25  1  0
 20 24  1  0
 21 28  1  0
 21 29  1  0
 22 24  1  0
 24 26  1  0
 28 30  1  0
  2 31  1  0
  3 32  1  0
  5 33  1  0
  6 34  1  0
  8 35  1  0
  9 36  1  0
 10 37  1  0
 10 38  1  0
 12 39  1  0
 12 40  1  0
 13 41  1  0
 13 42  1  0
 14 43  1  0
 15 44  1  0
 17 45  1  0
 19 46  1  0
 20 47  1  0
 20 48  1  0
 21 49  1  0
 22 50  1  0
 22 51  1  0
 23 52  1  0
 24 53  1  0
 25 54  1  0
 26 55  1  0
 27 56  1  0
 27 57  1  0
 27 58  1  0
 28 59  1  0
 28 60  1  0
 29 61  1  0
 29 62  1  0
 29 63  1  0
 30 64  1  0
 30 65  1  0
 30 66  1  0
V    1 0
V    2 1
V    3 2
V    4 3
V    5 4
V    6 5
V    7 6
V    8 7
V    9 8
V   10 9
V   11 10
V   12 11
V   13 12
V   14 13
V   15 14
V   16 15
V   17 16
V   18 17
V   19 18
V   20 19
V   21 20
V   22 21
V   23 22
V   24 23
V   25 24
V   26 25
V   27 26
V   28 27
V   29 28
V   30 29
M  END
> <DSSTox_RID>
66979

> <DSSTox_CID>
27525

> <DSSTox_CID_Parent>
3498

> <DSSTox_Generic_SID>
47525

> <DSSTox_FileID>
943_TXCST2_v1a

> <STRUCTURE_Formula>
C23H35NaO7

> <STRUCTURE_MolecularWeight>
446.5096

> <STRUCTURE_ChemicalType>
defined organic

> <STRUCTURE_TestedForm_DefinedOrganic>
salt Na

> <STRUCTURE_Shown>
tested chemical

> <TestSubstance_ChemicalName>
Pravastatin sodium

> <TestSubstance_CASRN>
81131-70-6

> <TestSubstance_Description>
single chemical compound

> <ChemicalNote>
stereochem; parent [81093-37-0]

> <STRUCTURE_ChemicalName_IUPAC>
sodium (3R,5R)-3,5-dihydroxy-7-[(1S,2S,6S,8S,8aR)-6-hydroxy-2-methyl-8-{[(2S)-2-methylbutanoyl]oxy}-1,2,6,7,8,8a-hexahydronaphthalen-1-yl]heptanoate

> <STRUCTURE_SMILES>
O=C([C@@H](C)CC)O[C@@H]1[C@@]2([H])C(C=C[C@H](C)[C@@H]2CC[C@@H](O)C[C@@H](O)CC([O-])=O)=C[C@@H](O)C1.[Na+]

> <STRUCTURE_Parent_SMILES>
O=C([C@@H](C)CC)O[C@@H]1[C@@]2([H])C(C=C[C@H](C)[C@@H]2CC[C@@H](O)C[C@@H](O)CC(O)=O)=C[C@@H](O)C1

> <STRUCTURE_InChIS>
InChI=1S/C23H36O7.Na/c1-4-13(2)23(29)30-20-11-17(25)9-15-6-5-14(3)19(22(15)20)8-7-16(24)10-18(26)12-21(27)28;/h5-6,9,13-14,16-20,22,24-26H,4,7-8,10-12H2,1-3H3,(H,27,28);/q;+1/p-1/t13-,14-,16+,17+,18+,
19-,20-,22-;/m0./s1

> <STRUCTURE_InChIKey>
VWBQYTRBTXKKOG-IYNICTALSA-M

> <Substance_modify_yyyymmdd>
20100831

> <Coord_Metals>
0

> <Index>
943

> <Canonical_Smiles>
CCC(C)C(=O)OC1CC(O)C=C2C=CC(C)C(CCC(O)CC(O)CC(=O)O)C12

> <Molecular_Weight>
424.52774

> <Frequency>
1

$$$$

  SciTegic          2D

 61 61  0  0  0  0            999 V2000
    1.2990   -0.7500    0.0000 C   0  0
    1.2990    0.7500    0.0000 C   0  0
    0.0000   -1.5000    0.0000 C   0  0
    0.0000    1.5000    0.0000 C   0  0
   -1.2990   -0.7500    0.0000 C   0  0
   -1.2990    0.7500    0.0000 C   0  0
    2.5973   -1.5031    0.0000 O   0  0
    2.5951   -3.0039    0.0000 S   0  0
    3.8933   -3.7570    0.0000 C   0  0
    3.8912   -5.2578    0.0000 C   0  0
    5.1894   -6.0109    0.0000 C   0  0
    5.1873   -7.5117    0.0000 C   0  0
    6.4855   -8.2648    0.0000 C   0  0
    6.4833   -9.7656    0.0000 C   0  0
    7.7815  -10.5187    0.0000 C   0  0
    7.7794  -12.0195    0.0000 C   0  0
    9.0776  -12.7726    0.0000 C   0  0
    9.0755  -14.2734    0.0000 C   0  0
    1.5548   -3.6021    0.0000 O   0  0
    1.5568   -2.4023    0.0000 O   0  0
   10.3737  -15.0265    0.0000 C   0  0
   10.3716  -16.5273    0.0000 C   0  0
   11.6698  -17.2804    0.0000 C   0  0
   11.6676  -18.7813    0.0000 C   0  0
   12.9658  -19.5343    0.0000 C   0  0
    2.1651    1.2500    0.0000 H   0  0
    0.0000   -2.5000    0.0000 H   0  0
    0.0000    2.5000    0.0000 H   0  0
   -2.1651   -1.2500    0.0000 H   0  0
   -2.1651    1.2500    0.0000 H   0  0
    4.7602   -3.2585    0.0000 H   0  0
    3.8952   -2.7570    0.0000 H   0  0
    3.0243   -5.7563    0.0000 H   0  0
    3.0260   -4.7564    0.0000 H   0  0
    6.0563   -5.5124    0.0000 H   0  0
    5.1913   -5.0109    0.0000 H   0  0
    4.3204   -8.0102    0.0000 H   0  0
    4.3220   -7.0104    0.0000 H   0  0
    7.3524   -7.7663    0.0000 H   0  0
    6.4874   -7.2648    0.0000 H   0  0
    5.6164  -10.2641    0.0000 H   0  0
    5.6181   -9.2643    0.0000 H   0  0
    8.6484  -10.0202    0.0000 H   0  0
    7.7834   -9.5187    0.0000 H   0  0
    6.9125  -12.5180    0.0000 H   0  0
    6.9142  -11.5182    0.0000 H   0  0
    9.9445  -12.2741    0.0000 H   0  0
    9.0795  -11.7726    0.0000 H   0  0
    8.2086  -14.7719    0.0000 H   0  0
    8.2102  -13.7721    0.0000 H   0  0
   11.2406  -14.5280    0.0000 H   0  0
   10.3756  -14.0265    0.0000 H   0  0
    9.5047  -17.0258    0.0000 H   0  0
    9.5063  -16.0260    0.0000 H   0  0
   12.5367  -16.7819    0.0000 H   0  0
   11.6717  -16.2804    0.0000 H   0  0
   10.8007  -19.2797    0.0000 H   0  0
   10.8024  -18.2799    0.0000 H   0  0
   12.9644  -20.5343    0.0000 H   0  0
   13.8327  -19.0358    0.0000 H   0  0
   13.8311  -20.0357    0.0000 H   0  0
  1  2  1  0
  1  3  2  0
  1  7  1  0
  2  4  2  0
  3  5  1  0
  4  6  1  0
  5  6  2  0
  7  8  1  0
  8  9  1  0
  8 19  2  0
  8 20  2  0
  9 10  1  0
 10 11  1  0
 11 12  1  0
 12 13  1  0
 13 14  1  0
 14 15  1  0
 15 16  1  0
 16 17  1  0
 17 18  1  0
 18 21  1  0
 21 22  1  0
 22 23  1  0
 23 24  1  0
 24 25  1  0
  2 26  1  0
  3 27  1  0
  4 28  1  0
  5 29  1  0
  6 30  1  0
  9 31  1  0
  9 32  1  0
 10 33  1  0
 10 34  1  0
 11 35  1  0
 11 36  1  0
 12 37  1  0
 12 38  1  0
 13 39  1  0
 13 40  1  0
 14 41  1  0
 14 42  1  0
 15 43  1  0
 15 44  1  0
 16 45  1  0
 16 46  1  0
 17 47  1  0
 17 48  1  0
 18 49  1  0
 18 50  1  0
 21 51  1  0
 21 52  1  0
 22 53  1  0
 22 54  1  0
 23 55  1  0
 23 56  1  0
 24 57  1  0
 24 58  1  0
 25 59  1  0
 25 60  1  0
 25 61  1  0
V    1 0
V    2 1
V    3 2
V    4 3
V    5 4
V    6 5
V    7 6
V    8 7
V    9 8
V   10 9
V   11 10
V   12 11
V   13 12
V   14 13
V   15 14
V   16 15
V   17 16
V   18 17
V   19 18
V   20 19
V   21 20
V   22 21
V   23 22
V   24 23
V   25 24
M  END
> <DSSTox_RID>
66980

> <DSSTox_CID>
27526

> <DSSTox_CID_Parent>
27526

> <DSSTox_Generic_SID>
47526

> <DSSTox_FileID>
944_TXCST2_v1a

> <STRUCTURE_Formula>
C21H36O3S

> <STRUCTURE_MolecularWeight>
368.5737

> <STRUCTURE_ChemicalType>
defined organic

> <STRUCTURE_TestedForm_DefinedOrganic>
parent

> <STRUCTURE_Shown>
representative component in mixture

> <TestSubstance_ChemicalName>
C10-21 sulfonic acids phenyl esters

> <TestSubstance_CASRN>
91082-17-6

> <TestSubstance_Description>
mixture or formulation

> <ChemicalNote>
complex mixture of mono-, di-, tri- linear alkyl esters; structure shown mono-C15

> <STRUCTURE_ChemicalName_IUPAC>
phenyl pentadecane-1-sulfonate

> <STRUCTURE_SMILES>
O=S(OC1=CC=CC=C1)(CCCCCCCCCCCCCCC)=O

> <STRUCTURE_Parent_SMILES>
O=S(OC1=CC=CC=C1)(CCCCCCCCCCCCCCC)=O

> <STRUCTURE_InChIS>
InChI=1S/C21H36O3S/c1-2-3-4-5-6-7-8-9-10-11-12-13-17-20-25(22,23)24-21-18-15-14-16-19-21/h14-16,18-19H,2-13,17,20H2,1H3

> <STRUCTURE_InChIKey>
UDKSLGIUCGAZTK-UHFFFAOYSA-N

> <Substance_modify_yyyymmdd>
20100831

> <Coord_Metals>
0

> <Index>
944

> <Canonical_Smiles>
CCCCCCCCCCCCCCCS(=O)(=O)Oc1ccccc1

> <Molecular_Weight>
368.57374

> <Frequency>
1

$$$$

  SciTegic          2D

 65 64  0  0  0  0            999 V2000
    2.6000    0.0000    0.0000 C   0  0
    9.0999    0.7500    0.0000 C   0  0
    2.6000   -1.2000    0.0000 O   0  0
    9.0999    1.9500    0.0000 O   0  0
    1.3000    0.7500    0.0000 O   0  0
    7.7999    0.0000    0.0000 C   0  0
    3.9000    0.7500    0.0000 C   0  0
    5.2000    0.0000    0.0000 C   0  0
    6.5000    0.7500    0.0000 C   0  0
   10.3999    0.0000    0.0000 O   0  0
   14.2999    0.7500    0.0000 O   0  0
   11.6999    0.7500    0.0000 C   0  0
   12.9999    0.0000    0.0000 C   0  0
   11.6999    2.2507    0.0000 C   0  0
   15.5999    0.0000    0.0000 C   0  0
   15.5999   -1.2000    0.0000 O   0  0
   16.8999    0.7500    0.0000 C   0  0
   18.1999    0.0000    0.0000 C   0  0
   28.5998    0.0000    0.0000 C   0  0
   27.2998    0.7500    0.0000 C   0  0
   25.9998    0.0000    0.0000 C   0  0
   24.6998    0.7500    0.0000 C   0  0
   23.3998    0.0000    0.0000 C   0  0
   22.0998    0.7500    0.0000 C   0  0
   20.7998    0.0000    0.0000 C   0  0
   19.4998    0.7500    0.0000 C   0  0
   29.8998    0.7500    0.0000 C   0  0
    0.4338    0.2503    0.0000 H   0  0
    7.7999   -1.0000    0.0000 H   0  0
    8.6659   -0.5001    0.0000 H   0  0
    3.9000    1.7500    0.0000 H   0  0
    3.0340    1.2501    0.0000 H   0  0
    5.2000   -1.0000    0.0000 H   0  0
    4.3340   -0.5001    0.0000 H   0  0
    6.5000    1.7500    0.0000 H   0  0
    5.6340    1.2501    0.0000 H   0  0
   11.6999   -0.2500    0.0000 H   0  0
   13.8658   -0.5001    0.0000 H   0  0
   12.9999   -1.0000    0.0000 H   0  0
   12.5656    2.7513    0.0000 H   0  0
   11.6994    3.2507    0.0000 H   0  0
   10.8337    2.7505    0.0000 H   0  0
   16.0339    1.2501    0.0000 H   0  0
   16.8999    1.7500    0.0000 H   0  0
   17.3339   -0.5001    0.0000 H   0  0
   18.1999   -1.0000    0.0000 H   0  0
   27.7338   -0.5001    0.0000 H   0  0
   28.5998   -1.0000    0.0000 H   0  0
   26.4338    1.2501    0.0000 H   0  0
   27.2998    1.7500    0.0000 H   0  0
   25.1339   -0.5001    0.0000 H   0  0
   25.9998   -1.0000    0.0000 H   0  0
   23.8339    1.2501    0.0000 H   0  0
   24.6998    1.7500    0.0000 H   0  0
   22.5339   -0.5001    0.0000 H   0  0
   23.3998   -1.0000    0.0000 H   0  0
   21.2339    1.2501    0.0000 H   0  0
   22.0998    1.7500    0.0000 H   0  0
   19.9339   -0.5001    0.0000 H   0  0
   20.7998   -1.0000    0.0000 H   0  0
   18.6339    1.2501    0.0000 H   0  0
   19.4998    1.7500    0.0000 H   0  0
   30.7660    0.2503    0.0000 H   0  0
   30.7657    1.2501    0.0000 H   0  0
   29.8998    1.7500    0.0000 H   0  0
  1  3  2  0
  1  5  1  0
  1  7  1  0
  2  6  1  0
  2  4  2  0
  2 10  1  0
  6  9  1  0
  7  8  1  0
  8  9  1  0
 10 12  1  0
 11 13  1  0
 11 15  1  0
 12 13  1  0
 12 14  1  0
 15 16  2  0
 15 17  1  0
 17 18  1  0
 18 26  1  0
 19 20  1  0
 19 27  1  0
 20 21  1  0
 21 22  1  0
 22 23  1  0
 23 24  1  0
 24 25  1  0
 25 26  1  0
  5 28  1  0
  6 29  1  0
  6 30  1  0
  7 31  1  0
  7 32  1  0
  8 33  1  0
  8 34  1  0
  9 35  1  0
  9 36  1  0
 12 37  1  0
 13 38  1  0
 13 39  1  0
 14 40  1  0
 14 41  1  0
 14 42  1  0
 17 43  1  0
 17 44  1  0
 18 45  1  0
 18 46  1  0
 19 47  1  0
 19 48  1  0
 20 49  1  0
 20 50  1  0
 21 51  1  0
 21 52  1  0
 22 53  1  0
 22 54  1  0
 23 55  1  0
 23 56  1  0
 24 57  1  0
 24 58  1  0
 25 59  1  0
 25 60  1  0
 26 61  1  0
 26 62  1  0
 27 63  1  0
 27 64  1  0
 27 65  1  0
V    1 0
V    2 1
V    3 2
V    4 3
V    5 4
V    6 5
V    7 6
V    8 7
V    9 8
V   10 9
V   11 10
V   12 11
V   13 12
V   14 13
V   15 14
V   16 15
V   17 16
V   18 17
V   19 18
V   20 19
V   21 20
V   22 21
V   23 22
V   24 23
V   25 24
V   26 25
V   27 26
M  END
> <DSSTox_RID>
66981

> <DSSTox_CID>
27527

> <DSSTox_CID_Parent>
27527

> <DSSTox_Generic_SID>
47527

> <DSSTox_FileID>
945_TXCST2_v1a

> <STRUCTURE_Formula>
C21H38O6

> <STRUCTURE_MolecularWeight>
386.5228

> <STRUCTURE_ChemicalType>
defined organic

> <STRUCTURE_TestedForm_DefinedOrganic>
parent

> <STRUCTURE_Shown>
monomer of polymer

> <TestSubstance_ChemicalName>
Adipic acid, polypropyleneglycol, laurate

> <TestSubstance_CASRN>
66456-53-9

> <TestSubstance_Description>
macromolecule

> <STRUCTURE_ChemicalName_IUPAC>
6-{[1-(dodecanoyloxy)propan-2-yl]oxy}-6-oxohexanoic acid

> <STRUCTURE_SMILES>
O=C(CCCCC(OC(C)COC(CCCCCCCCCCC)=O)=O)O

> <STRUCTURE_Parent_SMILES>
O=C(CCCCC(OC(C)COC(CCCCCCCCCCC)=O)=O)O

> <STRUCTURE_InChIS>
InChI=1S/C21H38O6/c1-3-4-5-6-7-8-9-10-11-15-20(24)26-17-18(2)27-21(25)16-13-12-14-19(22)23/h18H,3-17H2,1-2H3,(H,22,23)

> <STRUCTURE_InChIKey>
RLXONRYGFSAXHK-UHFFFAOYSA-N

> <Substance_modify_yyyymmdd>
20100901

> <Coord_Metals>
0

> <Index>
945

> <Canonical_Smiles>
CCCCCCCCCCCC(=O)OCC(C)OC(=O)CCCCC(=O)O

> <Molecular_Weight>
386.52282

> <Frequency>
1

$$$$

  SciTegic          2D

 57 57  0  0  0  0            999 V2000
    9.0950  -17.2644    0.0000 C   0  0
    7.7957  -16.5132    0.0000 C   0  0
    7.7957  -15.0123    0.0000 C   0  0
    6.4964  -14.2611    0.0000 C   0  0
    6.4964  -12.7603    0.0000 C   0  0
    9.0950  -18.7652    0.0000 C   0  0
    5.1971  -10.5082    0.0000 C   0  0
    1.2993   -5.2529    0.0000 C   0  0
    6.2366   -9.9086    0.0000 O   0  0
    0.2599   -5.8526    0.0000 O   0  0
    5.1971  -12.0091    0.0000 O   0  0
    1.2993   -3.7521    0.0000 O   0  0
    2.5986   -6.0041    0.0000 C   0  0
    3.8979   -9.7570    0.0000 C   0  0
    3.8978   -8.2562    0.0000 C   0  0
    2.5986   -7.5049    0.0000 C   0  0
    1.2990   -0.7500    0.0000 C   0  0
    1.2990    0.7500    0.0000 C   0  0
    0.0000   -1.5000    0.0000 C   0  0
    0.0000    1.5000    0.0000 C   0  0
   -1.2990   -0.7500    0.0000 C   0  0
   -1.2990    0.7500    0.0000 C   0  0
    0.0000   -3.0008    0.0000 C   0  0
    5.1965  -15.0111    0.0000 C   0  0
    5.1951  -16.5119    0.0000 C   0  0
    9.0955  -16.2644    0.0000 H   0  0
    9.9612  -16.7647    0.0000 H   0  0
    6.9298  -16.0130    0.0000 H   0  0
    6.9295  -17.0129    0.0000 H   0  0
    7.7962  -14.0123    0.0000 H   0  0
    8.6619  -14.5126    0.0000 H   0  0
    7.3626  -13.7614    0.0000 H   0  0
    7.3626  -12.2606    0.0000 H   0  0
    6.4969  -11.7603    0.0000 H   0  0
    9.9607  -19.2658    0.0000 H   0  0
    8.2288  -19.2650    0.0000 H   0  0
    9.0945  -19.7652    0.0000 H   0  0
    3.4648   -5.5044    0.0000 H   0  0
    2.5990   -5.0041    0.0000 H   0  0
    3.0317  -10.2567    0.0000 H   0  0
    3.8974  -10.7570    0.0000 H   0  0
    4.7640   -7.7564    0.0000 H   0  0
    3.8983   -7.2562    0.0000 H   0  0
    1.7324   -8.0047    0.0000 H   0  0
    1.7326   -7.0048    0.0000 H   0  0
    2.1651   -1.2500    0.0000 H   0  0
    2.1651    1.2500    0.0000 H   0  0
    0.0000    2.5000    0.0000 H   0  0
   -2.1651   -1.2500    0.0000 H   0  0
   -2.1651    1.2500    0.0000 H   0  0
   -0.8662   -3.5006    0.0000 H   0  0
   -0.0005   -4.0008    0.0000 H   0  0
    4.3308  -14.5105    0.0000 H   0  0
    4.3301  -15.5104    0.0000 H   0  0
    4.3289  -17.0116    0.0000 H   0  0
    6.0608  -17.0124    0.0000 H   0  0
    5.1946  -17.5119    0.0000 H   0  0
  1  2  1  0
  1  6  1  0
  2  3  1  0
  3  4  1  0
  4  5  1  0
  4 24  1  0
  5 11  1  0
  7  9  2  0
  7 11  1  0
  7 14  1  0
  8 13  1  0
  8 10  2  0
  8 12  1  0
 12 23  1  0
 13 16  1  0
 14 15  1  0
 15 16  1  0
 17 18  1  0
 17 19  2  0
 18 20  2  0
 19 21  1  0
 19 23  1  0
 20 22  1  0
 21 22  2  0
 24 25  1  0
  1 26  1  0
  1 27  1  0
  2 28  1  0
  2 29  1  0
  3 30  1  0
  3 31  1  0
  4 32  1  0
  5 33  1  0
  5 34  1  0
  6 35  1  0
  6 36  1  0
  6 37  1  0
 13 38  1  0
 13 39  1  0
 14 40  1  0
 14 41  1  0
 15 42  1  0
 15 43  1  0
 16 44  1  0
 16 45  1  0
 17 46  1  0
 18 47  1  0
 20 48  1  0
 21 49  1  0
 22 50  1  0
 23 51  1  0
 23 52  1  0
 24 53  1  0
 24 54  1  0
 25 55  1  0
 25 56  1  0
 25 57  1  0
V    1 0
V    2 1
V    3 2
V    4 3
V    5 4
V    6 5
V    7 6
V    8 7
V    9 8
V   10 9
V   11 10
V   12 11
V   13 12
V   14 13
V   15 14
V   16 15
V   17 16
V   18 17
V   19 18
V   20 19
V   21 20
V   22 21
V   23 22
V   24 23
V   25 24
M  END
> <DSSTox_RID>
66984

> <DSSTox_CID>
27528

> <DSSTox_CID_Parent>
27528

> <DSSTox_Generic_SID>
47528

> <DSSTox_FileID>
946_TXCST2_v1a

> <STRUCTURE_Formula>
C21H32O4

> <STRUCTURE_MolecularWeight>
348.4764

> <STRUCTURE_ChemicalType>
defined organic

> <STRUCTURE_TestedForm_DefinedOrganic>
parent

> <STRUCTURE_Shown>
representative component in mixture

> <TestSubstance_ChemicalName>
Benzyloctyl adipate

> <TestSubstance_CASRN>
58394-64-2

> <TestSubstance_Description>
mixture or formulation

> <ChemicalNote>
mixture of adipic acid esters of 2-ethyl hexanol and benzyl alcohol, predominantly consisting of benzyloctyl adipate

> <STRUCTURE_ChemicalName_IUPAC>
benzyl 2-ethylhexyl hexanedioate

> <STRUCTURE_SMILES>
O=C(CCCCC(OCC1=CC=CC=C1)=O)OCC(CC)CCCC

> <STRUCTURE_Parent_SMILES>
O=C(CCCCC(OCC1=CC=CC=C1)=O)OCC(CC)CCCC

> <STRUCTURE_InChIS>
InChI=1S/C21H32O4/c1-3-5-11-18(4-2)16-24-20(22)14-9-10-15-21(23)25-17-19-12-7-6-8-13-19/h6-8,12-13,18H,3-5,9-11,14-17H2,1-2H3

> <STRUCTURE_InChIKey>
OOUQSWGHJPCRLI-UHFFFAOYSA-N

> <Substance_modify_yyyymmdd>
20100901

> <Coord_Metals>
0

> <Index>
946

> <Canonical_Smiles>
CCCCC(CC)COC(=O)CCCCC(=O)OCc1ccccc1

> <Molecular_Weight>
348.47638

> <Frequency>
1

$$$$

  SciTegic          2D

 93 93  0  0  0  0            999 V2000
   -1.2916    5.2556    0.0000 C   0  0
   -2.5893    6.0095    0.0000 C   0  0
   -2.5862    7.5103    0.0000 C   0  0
   -3.8840    8.2642    0.0000 C   0  0
   -3.8809    9.7650    0.0000 C   0  0
   -5.1786   10.5189    0.0000 C   0  0
   -5.1756   12.0197    0.0000 C   0  0
   -6.4733   12.7736    0.0000 C   0  0
   -5.2003   -1.4932    0.0000 C   0  0
   -6.4990   -0.7410    0.0000 C   0  0
   -7.8003   -1.4887    0.0000 C   0  0
   -9.0990   -0.7365    0.0000 C   0  0
  -10.4003   -1.4842    0.0000 C   0  0
  -11.6989   -0.7319    0.0000 C   0  0
  -13.0002   -1.4797    0.0000 C   0  0
  -14.2989   -0.7274    0.0000 C   0  0
    1.2990   -0.7500    0.0000 C   0  0
    0.0000   -1.5000    0.0000 C   0  0
   -1.2990    0.7500    0.0000 C   0  0
    0.0000    1.5000    0.0000 C   0  0
   -1.2990   -0.7500    0.0000 C   0  0
    1.2990    0.7500    0.0000 C   0  0
    2.5972    1.5031    0.0000 C   0  0
    2.5951    3.0039    0.0000 O   0  0
    3.6375    0.9049    0.0000 O   0  0
    0.0031    3.0008    0.0000 C   0  0
   -1.2947    3.7547    0.0000 O   0  0
    1.0437    3.5984    0.0000 O   0  0
   -2.6003   -1.4978    0.0000 C   0  0
   -2.6024   -2.6978    0.0000 O   0  0
   -3.8990   -0.7455    0.0000 O   0  0
    3.8933    3.7570    0.0000 C   0  0
    3.8912    5.2578    0.0000 C   0  0
    5.1894    6.0109    0.0000 C   0  0
    5.1872    7.5118    0.0000 C   0  0
    6.4854    8.2649    0.0000 C   0  0
    6.4833    9.7657    0.0000 C   0  0
    7.7815   10.5188    0.0000 C   0  0
    7.7793   12.0196    0.0000 C   0  0
   -0.4267    4.7536    0.0000 H   0  0
   -0.4244    5.7535    0.0000 H   0  0
   -2.5918    5.0095    0.0000 H   0  0
   -3.4565    5.5115    0.0000 H   0  0
   -1.7213    7.0084    0.0000 H   0  0
   -1.7190    8.0082    0.0000 H   0  0
   -3.8865    7.2642    0.0000 H   0  0
   -4.7512    7.7662    0.0000 H   0  0
   -3.0160    9.2631    0.0000 H   0  0
   -3.0137   10.2629    0.0000 H   0  0
   -5.1812    9.5189    0.0000 H   0  0
   -6.0458   10.0209    0.0000 H   0  0
   -4.3106   11.5178    0.0000 H   0  0
   -4.3083   12.5177    0.0000 H   0  0
   -6.4712   13.7736    0.0000 H   0  0
   -7.3382   13.2755    0.0000 H   0  0
   -7.3405   12.2757    0.0000 H   0  0
   -4.3352   -1.9949    0.0000 H   0  0
   -5.2020   -2.4932    0.0000 H   0  0
   -5.6322   -0.2423    0.0000 H   0  0
   -6.4973    0.2590    0.0000 H   0  0
   -6.9352   -1.9904    0.0000 H   0  0
   -7.8020   -2.4887    0.0000 H   0  0
   -8.2322   -0.2378    0.0000 H   0  0
   -9.0972    0.2635    0.0000 H   0  0
   -9.5352   -1.9858    0.0000 H   0  0
  -10.4020   -2.4842    0.0000 H   0  0
  -10.8321   -0.2333    0.0000 H   0  0
  -11.6972    0.2681    0.0000 H   0  0
  -12.1352   -1.9813    0.0000 H   0  0
  -13.0020   -2.4797    0.0000 H   0  0
  -15.1660   -1.2256    0.0000 H   0  0
  -15.1640   -0.2258    0.0000 H   0  0
  -14.2972    0.2726    0.0000 H   0  0
    2.1651   -1.2500    0.0000 H   0  0
    0.0000   -2.5000    0.0000 H   0  0
   -2.1651    1.2500    0.0000 H   0  0
    3.8952    2.7570    0.0000 H   0  0
    4.7602    3.2585    0.0000 H   0  0
    3.0259    4.7565    0.0000 H   0  0
    3.0243    5.7563    0.0000 H   0  0
    5.1913    5.0109    0.0000 H   0  0
    6.0563    5.5125    0.0000 H   0  0
    4.3220    7.0104    0.0000 H   0  0
    4.3203    8.0102    0.0000 H   0  0
    6.4873    7.2649    0.0000 H   0  0
    7.3523    7.7664    0.0000 H   0  0
    5.6180    9.2643    0.0000 H   0  0
    5.6164   10.2642    0.0000 H   0  0
    7.7834    9.5188    0.0000 H   0  0
    8.6484   10.0203    0.0000 H   0  0
    8.6443   12.5214    0.0000 H   0  0
    7.7774   13.0196    0.0000 H   0  0
    6.9124   12.5181    0.0000 H   0  0
  1  2  1  0
  1 27  1  0
  2  3  1  0
  3  4  1  0
  4  5  1  0
  5  6  1  0
  6  7  1  0
  7  8  1  0
  9 10  1  0
  9 31  1  0
 10 11  1  0
 11 12  1  0
 12 13  1  0
 13 14  1  0
 14 15  1  0
 15 16  1  0
 17 22  2  0
 17 18  1  0
 18 21  2  0
 19 20  2  0
 19 21  1  0
 20 26  1  0
 20 22  1  0
 21 29  1  0
 22 23  1  0
 23 24  1  0
 23 25  2  0
 24 32  1  0
 26 27  1  0
 26 28  2  0
 29 30  2  0
 29 31  1  0
 32 33  1  0
 33 34  1  0
 34 35  1  0
 35 36  1  0
 36 37  1  0
 37 38  1  0
 38 39  1  0
  1 40  1  0
  1 41  1  0
  2 42  1  0
  2 43  1  0
  3 44  1  0
  3 45  1  0
  4 46  1  0
  4 47  1  0
  5 48  1  0
  5 49  1  0
  6 50  1  0
  6 51  1  0
  7 52  1  0
  7 53  1  0
  8 54  1  0
  8 55  1  0
  8 56  1  0
  9 57  1  0
  9 58  1  0
 10 59  1  0
 10 60  1  0
 11 61  1  0
 11 62  1  0
 12 63  1  0
 12 64  1  0
 13 65  1  0
 13 66  1  0
 14 67  1  0
 14 68  1  0
 15 69  1  0
 15 70  1  0
 16 71  1  0
 16 72  1  0
 16 73  1  0
 17 74  1  0
 18 75  1  0
 19 76  1  0
 32 77  1  0
 32 78  1  0
 33 79  1  0
 33 80  1  0
 34 81  1  0
 34 82  1  0
 35 83  1  0
 35 84  1  0
 36 85  1  0
 36 86  1  0
 37 87  1  0
 37 88  1  0
 38 89  1  0
 38 90  1  0
 39 91  1  0
 39 92  1  0
 39 93  1  0
V    1 0
V    2 1
V    3 2
V    4 3
V    5 4
V    6 5
V    7 6
V    8 7
V    9 8
V   10 9
V   11 10
V   12 11
V   13 12
V   14 13
V   15 14
V   16 15
V   17 16
V   18 17
V   19 18
V   20 19
V   21 20
V   22 21
V   23 22
V   24 23
V   25 24
V   26 25
V   27 26
V   28 27
V   29 28
V   30 29
V   31 30
V   32 31
V   33 32
V   34 33
V   35 34
V   36 35
V   37 36
V   38 37
V   39 38
M  END
> <DSSTox_RID>
67002

> <DSSTox_CID>
27533

> <DSSTox_CID_Parent>
27533

> <DSSTox_Generic_SID>
47533

> <DSSTox_FileID>
947_TXCST2_v1a

> <STRUCTURE_Formula>
C33H54O6

> <STRUCTURE_MolecularWeight>
546.7783

> <STRUCTURE_ChemicalType>
defined organic

> <STRUCTURE_TestedForm_DefinedOrganic>
parent

> <STRUCTURE_Shown>
tested chemical

> <TestSubstance_ChemicalName>
Tri (n-octyl) trimellitate

> <TestSubstance_CASRN>
89-04-3

> <TestSubstance_Description>
single chemical compound

> <STRUCTURE_ChemicalName_IUPAC>
trioctyl benzene-1,2,4-tricarboxylate

> <STRUCTURE_SMILES>
O=C(OCCCCCCCC)C1=CC=C(C(OCCCCCCCC)=O)C=C1C(OCCCCCCCC)=O

> <STRUCTURE_Parent_SMILES>
O=C(OCCCCCCCC)C1=CC=C(C(OCCCCCCCC)=O)C=C1C(OCCCCCCCC)=O

> <STRUCTURE_InChIS>
InChI=1S/C33H54O6/c1-4-7-10-13-16-19-24-37-31(34)28-22-23-29(32(35)38-25-20-17-14-11-8-5-2)30(27-28)33(36)39-26-21-18-15-12-9-6-3/h22-23,27H,4-21,24-26H2,1-3H3

> <STRUCTURE_InChIKey>
JNXDCMUUZNIWPQ-UHFFFAOYSA-N

> <Substance_modify_yyyymmdd>
20100921

> <Coord_Metals>
0

> <Index>
947

> <Canonical_Smiles>
CCCCCCCCOC(=O)c1ccc(C(=O)OCCCCCCCC)c(c1)C(=O)OCCCCCCCC

> <Molecular_Weight>
546.77825

> <Frequency>
1

$$$$

  SciTegic          2D

 86 85  0  0  0  0            999 V2000
   12.9999    0.0000    0.0000 C   0  0
   11.6999    0.7500    0.0000 C   0  0
   14.2999    0.7500    0.0000 C   0  0
   12.9999   -1.5007    0.0000 C   0  0
   11.7006   -2.2520    0.0000 O   0  0
   15.5999    0.0000    0.0000 C   0  0
   16.8999    0.7500    0.0000 O   0  0
   15.5999   -1.2000    0.0000 O   0  0
   10.3999    0.0000    0.0000 C   0  0
   10.3999   -1.2000    0.0000 O   0  0
    9.0999    0.7500    0.0000 O   0  0
   14.3238   -0.7669    0.0000 O   0  0
   13.8661   -2.0005    0.0000 O   0  0
    7.7999    0.0000    0.0000 C   0  0
    6.5000    0.7500    0.0000 C   0  0
    5.2000    0.0000    0.0000 C   0  0
    3.9000    0.7500    0.0000 C   0  0
    2.6000    0.0000    0.0000 C   0  0
    1.3000    0.7500    0.0000 C   0  0
   11.7006   -3.7528    0.0000 C   0  0
   10.4013   -4.5040    0.0000 C   0  0
   10.4013   -6.0049    0.0000 C   0  0
    9.1021   -6.7561    0.0000 C   0  0
    9.1021   -8.2569    0.0000 C   0  0
    7.8028   -9.0082    0.0000 C   0  0
   18.1999    0.0000    0.0000 C   0  0
   19.4998    0.7500    0.0000 C   0  0
   20.7998    0.0000    0.0000 C   0  0
   22.0998    0.7500    0.0000 C   0  0
   23.3998    0.0000    0.0000 C   0  0
   24.6998    0.7500    0.0000 C   0  0
   14.3226   -2.2677    0.0000 C   0  0
   13.2827   -2.8665    0.0000 O   0  0
   15.6213   -3.0200    0.0000 C   0  0
   15.6200   -4.5208    0.0000 C   0  0
   16.9187   -5.2731    0.0000 C   0  0
   11.6999    1.7500    0.0000 H   0  0
   10.8340    1.2501    0.0000 H   0  0
   14.2999    1.7500    0.0000 H   0  0
   15.1658    1.2501    0.0000 H   0  0
    7.7999   -1.0000    0.0000 H   0  0
    8.6659   -0.5001    0.0000 H   0  0
    6.5000    1.7500    0.0000 H   0  0
    5.6340    1.2501    0.0000 H   0  0
    5.2000   -1.0000    0.0000 H   0  0
    4.3340   -0.5001    0.0000 H   0  0
    3.9000    1.7500    0.0000 H   0  0
    3.0340    1.2501    0.0000 H   0  0
    2.6000   -1.0000    0.0000 H   0  0
    1.7340   -0.5001    0.0000 H   0  0
    0.4338    0.2503    0.0000 H   0  0
    1.3000    1.7500    0.0000 H   0  0
    0.4340    1.2501    0.0000 H   0  0
   12.5668   -4.2525    0.0000 H   0  0
   12.5666   -3.2527    0.0000 H   0  0
    9.5352   -4.0043    0.0000 H   0  0
   10.4009   -3.5040    0.0000 H   0  0
   11.2675   -6.5046    0.0000 H   0  0
   11.2673   -5.5047    0.0000 H   0  0
    8.2359   -6.2564    0.0000 H   0  0
    9.1016   -5.7561    0.0000 H   0  0
    9.9683   -8.7567    0.0000 H   0  0
    9.9680   -7.7568    0.0000 H   0  0
    7.8028  -10.0082    0.0000 H   0  0
    6.9366   -8.5084    0.0000 H   0  0
    6.9369   -9.5083    0.0000 H   0  0
   18.1999   -1.0000    0.0000 H   0  0
   17.3339   -0.5001    0.0000 H   0  0
   19.4998    1.7500    0.0000 H   0  0
   18.6339    1.2501    0.0000 H   0  0
   20.7998   -1.0000    0.0000 H   0  0
   19.9339   -0.5001    0.0000 H   0  0
   22.0998    1.7500    0.0000 H   0  0
   21.2339    1.2501    0.0000 H   0  0
   23.3998   -1.0000    0.0000 H   0  0
   22.5339   -0.5001    0.0000 H   0  0
   25.5660    0.2503    0.0000 H   0  0
   24.6998    1.7500    0.0000 H   0  0
   25.5658    1.2501    0.0000 H   0  0
   15.6225   -2.0200    0.0000 H   0  0
   16.4878   -2.5210    0.0000 H   0  0
   14.7545   -4.0200    0.0000 H   0  0
   14.7534   -5.0198    0.0000 H   0  0
   16.9179   -6.2731    0.0000 H   0  0
   17.7842   -5.7739    0.0000 H   0  0
   17.7853   -4.7741    0.0000 H   0  0
  1  4  1  0
  1  3  1  0
  1 12  1  0
  1  2  1  0
  2  9  1  0
  3  6  1  0
  4  5  1  0
  4 13  2  0
  5 20  1  0
  6  7  1  0
  6  8  2  0
  7 26  1  0
  9 10  2  0
  9 11  1  0
 11 14  1  0
 12 32  1  0
 14 15  1  0
 15 16  1  0
 16 17  1  0
 17 18  1  0
 18 19  1  0
 20 21  1  0
 21 22  1  0
 22 23  1  0
 23 24  1  0
 24 25  1  0
 26 27  1  0
 27 28  1  0
 28 29  1  0
 29 30  1  0
 30 31  1  0
 32 33  2  0
 32 34  1  0
 34 35  1  0
 35 36  1  0
  2 37  1  0
  2 38  1  0
  3 39  1  0
  3 40  1  0
 14 41  1  0
 14 42  1  0
 15 43  1  0
 15 44  1  0
 16 45  1  0
 16 46  1  0
 17 47  1  0
 17 48  1  0
 18 49  1  0
 18 50  1  0
 19 51  1  0
 19 52  1  0
 19 53  1  0
 20 54  1  0
 20 55  1  0
 21 56  1  0
 21 57  1  0
 22 58  1  0
 22 59  1  0
 23 60  1  0
 23 61  1  0
 24 62  1  0
 24 63  1  0
 25 64  1  0
 25 65  1  0
 25 66  1  0
 26 67  1  0
 26 68  1  0
 27 69  1  0
 27 70  1  0
 28 71  1  0
 28 72  1  0
 29 73  1  0
 29 74  1  0
 30 75  1  0
 30 76  1  0
 31 77  1  0
 31 78  1  0
 31 79  1  0
 34 80  1  0
 34 81  1  0
 35 82  1  0
 35 83  1  0
 36 84  1  0
 36 85  1  0
 36 86  1  0
V    1 0
V    2 1
V    3 2
V    4 3
V    5 4
V    6 5
V    7 6
V    8 7
V    9 8
V   10 9
V   11 10
V   12 11
V   13 12
V   14 13
V   15 14
V   16 15
V   17 16
V   18 17
V   19 18
V   20 19
V   21 20
V   22 21
V   23 22
V   24 23
V   25 24
V   26 25
V   27 26
V   28 27
V   29 28
V   30 29
V   31 30
V   32 31
V   33 32
V   34 33
V   35 34
V   36 35
M  END
> <DSSTox_RID>
67006

> <DSSTox_CID>
27535

> <DSSTox_CID_Parent>
27535

> <DSSTox_Generic_SID>
47535

> <DSSTox_FileID>
948_TXCST2_v1a

> <STRUCTURE_Formula>
C28H50O8

> <STRUCTURE_MolecularWeight>
514.6918

> <STRUCTURE_ChemicalType>
defined organic

> <STRUCTURE_TestedForm_DefinedOrganic>
parent

> <STRUCTURE_Shown>
tested chemical

> <TestSubstance_ChemicalName>
N-BUTYRYL TRI-N-HEXYL CITRATE

> <TestSubstance_CASRN>
82469-79-2

> <TestSubstance_Description>
single chemical compound

> <STRUCTURE_ChemicalName_IUPAC>
trihexyl 2-(butanoyloxy)propane-1,2,3-tricarboxylate

> <STRUCTURE_SMILES>
O=C(OCCCCCC)CC(CC(OCCCCCC)=O)(OC(CCC)=O)C(OCCCCCC)=O

> <STRUCTURE_Parent_SMILES>
O=C(OCCCCCC)CC(CC(OCCCCCC)=O)(OC(CCC)=O)C(OCCCCCC)=O

> <STRUCTURE_InChIS>
InChI=1S/C28H50O8/c1-5-9-12-15-19-33-25(30)22-28(36-24(29)18-8-4,27(32)35-21-17-14-11-7-3)23-26(31)34-20-16-13-10-6-2/h5-23H2,1-4H3

> <STRUCTURE_InChIKey>
GWVUTNGDMGTPFE-UHFFFAOYSA-N

> <Substance_modify_yyyymmdd>
20100921

> <Coord_Metals>
0

> <Index>
948

> <Canonical_Smiles>
CCCCCCOC(=O)CC(CC(=O)OCCCCCC)(OC(=O)CCC)C(=O)OCCCCCC

> <Molecular_Weight>
514.6918

> <Frequency>
1

$$$$

  SciTegic          2D

 80 79  0  0  0  0            999 V2000
   12.9999    0.0000    0.0000 C   0  0
   24.6998    0.7500    0.0000 C   0  0
   12.9999   -1.2000    0.0000 O   0  0
   24.6998    1.9500    0.0000 O   0  0
   11.6999    0.7500    0.0000 O   0  0
   25.9998    0.0000    0.0000 O   0  0
   23.3998    0.0000    0.0000 C   0  0
   14.2999    0.7500    0.0000 C   0  0
   15.5999    0.0000    0.0000 C   0  0
   22.0998    0.7500    0.0000 C   0  0
   18.1999    0.0000    0.0000 C   0  0
   19.4998    0.7500    0.0000 C   0  0
   20.7998    0.0000    0.0000 C   0  0
   16.8999    0.7500    0.0000 C   0  0
   10.3999    0.0000    0.0000 C   0  0
    9.0999    0.7500    0.0000 C   0  0
    7.7999    0.0000    0.0000 C   0  0
    6.5000    0.7500    0.0000 C   0  0
    5.2000    0.0000    0.0000 C   0  0
    3.9000    0.7500    0.0000 C   0  0
    2.6000    0.0000    0.0000 C   0  0
    1.3000    0.7500    0.0000 C   0  0
   27.2998    0.7500    0.0000 C   0  0
   28.5998    0.0000    0.0000 C   0  0
   29.8998    0.7500    0.0000 C   0  0
   31.1998    0.0000    0.0000 C   0  0
   32.4998    0.7500    0.0000 C   0  0
   33.7997    0.0000    0.0000 C   0  0
   35.0997    0.7500    0.0000 C   0  0
   36.3997    0.0000    0.0000 C   0  0
   23.3998   -1.0000    0.0000 H   0  0
   24.2658   -0.5001    0.0000 H   0  0
   14.2999    1.7500    0.0000 H   0  0
   13.4339    1.2501    0.0000 H   0  0
   15.5999   -1.0000    0.0000 H   0  0
   14.7339   -0.5001    0.0000 H   0  0
   22.0998    1.7500    0.0000 H   0  0
   21.2339    1.2501    0.0000 H   0  0
   18.1999   -1.0000    0.0000 H   0  0
   17.3339   -0.5001    0.0000 H   0  0
   19.4998    1.7500    0.0000 H   0  0
   18.6339    1.2501    0.0000 H   0  0
   20.7998   -1.0000    0.0000 H   0  0
   19.9339   -0.5001    0.0000 H   0  0
   16.8999    1.7500    0.0000 H   0  0
   16.0339    1.2501    0.0000 H   0  0
   10.3999   -1.0000    0.0000 H   0  0
   11.2659   -0.5001    0.0000 H   0  0
    9.0999    1.7500    0.0000 H   0  0
    8.2340    1.2501    0.0000 H   0  0
    7.7999   -1.0000    0.0000 H   0  0
    6.9340   -0.5001    0.0000 H   0  0
    6.5000    1.7500    0.0000 H   0  0
    5.6340    1.2501    0.0000 H   0  0
    5.2000   -1.0000    0.0000 H   0  0
    4.3340   -0.5001    0.0000 H   0  0
    3.9000    1.7500    0.0000 H   0  0
    3.0340    1.2501    0.0000 H   0  0
    2.6000   -1.0000    0.0000 H   0  0
    1.7340   -0.5001    0.0000 H   0  0
    0.4338    0.2503    0.0000 H   0  0
    1.3000    1.7500    0.0000 H   0  0
    0.4340    1.2501    0.0000 H   0  0
   27.2998    1.7500    0.0000 H   0  0
   26.4338    1.2501    0.0000 H   0  0
   28.5998   -1.0000    0.0000 H   0  0
   27.7338   -0.5001    0.0000 H   0  0
   29.8998    1.7500    0.0000 H   0  0
   29.0338    1.2501    0.0000 H   0  0
   31.1998   -1.0000    0.0000 H   0  0
   30.3338   -0.5001    0.0000 H   0  0
   32.4997    1.7500    0.0000 H   0  0
   31.6338    1.2501    0.0000 H   0  0
   33.7997   -1.0000    0.0000 H   0  0
   32.9338   -0.5001    0.0000 H   0  0
   35.0997    1.7500    0.0000 H   0  0
   34.2338    1.2501    0.0000 H   0  0
   37.2659    0.4997    0.0000 H   0  0
   36.3997   -1.0000    0.0000 H   0  0
   37.2657   -0.5001    0.0000 H   0  0
  1  3  2  0
  1  5  1  0
  1  8  1  0
  2  7  1  0
  2  4  2  0
  2  6  1  0
  5 15  1  0
  6 23  1  0
  7 10  1  0
  8  9  1  0
  9 14  1  0
 10 13  1  0
 11 14  1  0
 11 12  1  0
 12 13  1  0
 15 16  1  0
 16 17  1  0
 17 18  1  0
 18 19  1  0
 19 20  1  0
 20 21  1  0
 21 22  1  0
 23 24  1  0
 24 25  1  0
 25 26  1  0
 26 27  1  0
 27 28  1  0
 28 29  1  0
 29 30  1  0
  7 31  1  0
  7 32  1  0
  8 33  1  0
  8 34  1  0
  9 35  1  0
  9 36  1  0
 10 37  1  0
 10 38  1  0
 11 39  1  0
 11 40  1  0
 12 41  1  0
 12 42  1  0
 13 43  1  0
 13 44  1  0
 14 45  1  0
 14 46  1  0
 15 47  1  0
 15 48  1  0
 16 49  1  0
 16 50  1  0
 17 51  1  0
 17 52  1  0
 18 53  1  0
 18 54  1  0
 19 55  1  0
 19 56  1  0
 20 57  1  0
 20 58  1  0
 21 59  1  0
 21 60  1  0
 22 61  1  0
 22 62  1  0
 22 63  1  0
 23 64  1  0
 23 65  1  0
 24 66  1  0
 24 67  1  0
 25 68  1  0
 25 69  1  0
 26 70  1  0
 26 71  1  0
 27 72  1  0
 27 73  1  0
 28 74  1  0
 28 75  1  0
 29 76  1  0
 29 77  1  0
 30 78  1  0
 30 79  1  0
 30 80  1  0
V    1 0
V    2 1
V    3 2
V    4 3
V    5 4
V    6 5
V    7 6
V    8 7
V    9 8
V   10 9
V   11 10
V   12 11
V   13 12
V   14 13
V   15 14
V   16 15
V   17 16
V   18 17
V   19 18
V   20 19
V   21 20
V   22 21
V   23 22
V   24 23
V   25 24
V   26 25
V   27 26
V   28 27
V   29 28
V   30 29
M  END
> <DSSTox_RID>
67007

> <DSSTox_CID>
27537

> <DSSTox_CID_Parent>
27537

> <DSSTox_Generic_SID>
47537

> <DSSTox_FileID>
949_TXCST2_v1a

> <STRUCTURE_Formula>
C26H50O4

> <STRUCTURE_MolecularWeight>
426.6728

> <STRUCTURE_ChemicalType>
defined organic

> <STRUCTURE_TestedForm_DefinedOrganic>
parent

> <STRUCTURE_Shown>
tested chemical

> <TestSubstance_ChemicalName>
SEBACIC ACID DI-N-OCTYL ESTER [2432-87-3] / dioctyl succinate [14491-66-8]

> <TestSubstance_CASRN>
2432-87-3

> <TestSubstance_Description>
single chemical compound

> <STRUCTURE_ChemicalName_IUPAC>
dioctyl decanedioate

> <STRUCTURE_SMILES>
O=C(CCCCCCCCC(OCCCCCCCC)=O)OCCCCCCCC

> <STRUCTURE_Parent_SMILES>
O=C(CCCCCCCCC(OCCCCCCCC)=O)OCCCCCCCC

> <STRUCTURE_InChIS>
InChI=1S/C26H50O4/c1-3-5-7-9-15-19-23-29-25(27)21-17-13-11-12-14-18-22-26(28)30-24-20-16-10-8-6-4-2/h3-24H2,1-2H3

> <STRUCTURE_InChIKey>
MIMDHDXOBDPUQW-UHFFFAOYSA-N

> <Substance_modify_yyyymmdd>
20100921

> <Coord_Metals>
0

> <Index>
949

> <Canonical_Smiles>
CCCCCCCCOC(=O)CCCCCCCCC(=O)OCCCCCCCC

> <Molecular_Weight>
426.6728

> <Frequency>
1

$$$$

  SciTegic          2D

 43 44  0  0  0  0            999 V2000
    2.5951   -3.0039    0.0000 O   0  0
    3.8933   -3.7570    0.0000 C   0  0
    2.5973   -1.5031    0.0000 C   0  0
    1.2990   -0.7500    0.0000 C   0  0
    1.2990    0.7500    0.0000 C   0  0
    0.0000   -1.5000    0.0000 C   0  0
    0.0000    1.5000    0.0000 C   0  0
   -1.2990   -0.7500    0.0000 C   0  0
   -1.2990    0.7500    0.0000 C   0  0
    3.6375   -0.9049    0.0000 O   0  0
    3.8912   -5.2578    0.0000 C   0  0
    5.1873   -7.5117    0.0000 C   0  0
    6.4855   -8.2648    0.0000 C   0  0
    6.4833   -9.7656    0.0000 O   0  0
    7.7815  -10.5187    0.0000 C   0  0
    7.7794  -12.0195    0.0000 C   0  0
    9.0758  -12.7741    0.0000 C   0  0
    6.4778  -12.7651    0.0000 C   0  0
    9.0706  -14.2741    0.0000 C   0  0
    6.4726  -14.2651    0.0000 C   0  0
    7.7690  -15.0196    0.0000 C   0  0
    8.8218   -9.9205    0.0000 O   0  0
    5.1894   -6.0109    0.0000 C   0  0
    4.7602   -3.2585    0.0000 H   0  0
    3.8952   -2.7570    0.0000 H   0  0
    2.1651    1.2500    0.0000 H   0  0
    0.0000   -2.5000    0.0000 H   0  0
    0.0000    2.5000    0.0000 H   0  0
   -2.1651   -1.2500    0.0000 H   0  0
   -2.1651    1.2500    0.0000 H   0  0
    3.0243   -5.7563    0.0000 H   0  0
    3.0260   -4.7564    0.0000 H   0  0
    4.3204   -8.0102    0.0000 H   0  0
    4.3220   -7.0104    0.0000 H   0  0
    7.3524   -7.7663    0.0000 H   0  0
    7.3507   -8.7662    0.0000 H   0  0
    9.9436  -12.2771    0.0000 H   0  0
    5.6135  -12.2622    0.0000 H   0  0
    9.9349  -14.7771    0.0000 H   0  0
    5.6048  -14.7621    0.0000 H   0  0
    7.7656  -16.0196    0.0000 H   0  0
    6.0563   -5.5124    0.0000 H   0  0
    5.1913   -5.0109    0.0000 H   0  0
  1  2  1  0
  1  3  1  0
  2 11  1  0
  3  4  1  0
  3 10  2  0
  4  5  1  0
  4  6  2  0
  5  7  2  0
  6  8  1  0
  7  9  1  0
  8  9  2  0
 11 23  1  0
 12 13  1  0
 12 23  1  0
 13 14  1  0
 14 15  1  0
 15 16  1  0
 15 22  2  0
 16 17  1  0
 16 18  2  0
 17 19  2  0
 18 20  1  0
 19 21  1  0
 20 21  2  0
  2 24  1  0
  2 25  1  0
  5 26  1  0
  6 27  1  0
  7 28  1  0
  8 29  1  0
  9 30  1  0
 11 31  1  0
 11 32  1  0
 12 33  1  0
 12 34  1  0
 13 35  1  0
 13 36  1  0
 17 37  1  0
 18 38  1  0
 19 39  1  0
 20 40  1  0
 21 41  1  0
 23 42  1  0
 23 43  1  0
V    1 0
V    2 1
V    3 2
V    4 3
V    5 4
V    6 5
V    7 6
V    8 7
V    9 8
V   10 9
V   11 10
V   12 11
V   13 12
V   14 13
V   15 14
V   16 15
V   17 16
V   18 17
V   19 18
V   20 19
V   21 20
V   22 21
V   23 22
M  END
> <DSSTox_RID>
67008

> <DSSTox_CID>
27538

> <DSSTox_CID_Parent>
27538

> <DSSTox_Generic_SID>
47538

> <DSSTox_FileID>
950_TXCST2_v1a

> <STRUCTURE_Formula>
C19H20O4

> <STRUCTURE_MolecularWeight>
312.3597

> <STRUCTURE_ChemicalType>
defined organic

> <STRUCTURE_TestedForm_DefinedOrganic>
parent

> <STRUCTURE_Shown>
tested chemical

> <TestSubstance_ChemicalName>
Pentane-1,5-diyl dibenzoate

> <TestSubstance_CASRN>
6624-73-3

> <TestSubstance_Description>
single chemical compound

> <STRUCTURE_ChemicalName_IUPAC>
pentane-1,5-diyl dibenzoate

> <STRUCTURE_SMILES>
O=C(C1=CC=CC=C1)OCCCCCOC(C2=CC=CC=C2)=O

> <STRUCTURE_Parent_SMILES>
O=C(C1=CC=CC=C1)OCCCCCOC(C2=CC=CC=C2)=O

> <STRUCTURE_InChIS>
InChI=1S/C19H20O4/c20-18(16-10-4-1-5-11-16)22-14-8-3-9-15-23-19(21)17-12-6-2-7-13-17/h1-2,4-7,10-13H,3,8-9,14-15H2

> <STRUCTURE_InChIKey>
UMNVFYKZOXQOLL-UHFFFAOYSA-N

> <Substance_modify_yyyymmdd>
20100921

> <Coord_Metals>
0

> <Index>
950

> <Canonical_Smiles>
O=C(OCCCCCOC(=O)c1ccccc1)c2ccccc2

> <Molecular_Weight>
312.3597

> <Frequency>
1

$$$$

  SciTegic          2D

 46 47  0  0  0  0            999 V2000
    3.8933   -3.7570    0.0000 C   0  0
    3.8912   -5.2578    0.0000 C   0  0
    5.1894   -6.0109    0.0000 C   0  0
    5.1873   -7.5117    0.0000 C   0  0
    6.4855   -8.2648    0.0000 C   0  0
    6.4833   -9.7656    0.0000 C   0  0
    2.5951   -3.0039    0.0000 O   0  0
    7.7815  -10.5187    0.0000 O   0  0
    2.5973   -1.5031    0.0000 C   0  0
    3.6375   -0.9049    0.0000 O   0  0
    1.2990   -0.7500    0.0000 C   0  0
    1.2990    0.7500    0.0000 C   0  0
    0.0000   -1.5000    0.0000 C   0  0
    0.0000    1.5000    0.0000 C   0  0
   -1.2990   -0.7500    0.0000 C   0  0
   -1.2990    0.7500    0.0000 C   0  0
    7.7794  -12.0195    0.0000 C   0  0
    6.7391  -12.6177    0.0000 O   0  0
    9.0776  -12.7726    0.0000 C   0  0
    9.0777  -14.2726    0.0000 C   0  0
   10.3768  -12.0227    0.0000 C   0  0
   10.3767  -15.0227    0.0000 C   0  0
   11.6758  -12.7727    0.0000 C   0  0
   11.6758  -14.2727    0.0000 C   0  0
    4.7602   -3.2585    0.0000 H   0  0
    3.8952   -2.7570    0.0000 H   0  0
    3.0243   -5.7563    0.0000 H   0  0
    3.0260   -4.7564    0.0000 H   0  0
    6.0563   -5.5124    0.0000 H   0  0
    5.1913   -5.0109    0.0000 H   0  0
    4.3204   -8.0102    0.0000 H   0  0
    4.3220   -7.0104    0.0000 H   0  0
    7.3524   -7.7663    0.0000 H   0  0
    6.4874   -7.2648    0.0000 H   0  0
    5.6164  -10.2641    0.0000 H   0  0
    6.4814  -10.7656    0.0000 H   0  0
    2.1651    1.2500    0.0000 H   0  0
    0.0000   -2.5000    0.0000 H   0  0
    0.0000    2.5000    0.0000 H   0  0
   -2.1651   -1.2500    0.0000 H   0  0
   -2.1651    1.2500    0.0000 H   0  0
    8.2117  -14.7727    0.0000 H   0  0
   10.3768  -11.0227    0.0000 H   0  0
   10.3767  -16.0227    0.0000 H   0  0
   12.5418  -12.2727    0.0000 H   0  0
   12.5418  -14.7727    0.0000 H   0  0
  1  2  1  0
  1  7  1  0
  2  3  1  0
  3  4  1  0
  4  5  1  0
  5  6  1  0
  6  8  1  0
  7  9  1  0
  8 17  1  0
  9 10  2  0
  9 11  1  0
 11 12  2  0
 11 13  1  0
 12 14  1  0
 13 15  2  0
 14 16  2  0
 15 16  1  0
 17 18  2  0
 17 19  1  0
 19 20  2  0
 19 21  1  0
 20 22  1  0
 21 23  2  0
 22 24  2  0
 23 24  1  0
  1 25  1  0
  1 26  1  0
  2 27  1  0
  2 28  1  0
  3 29  1  0
  3 30  1  0
  4 31  1  0
  4 32  1  0
  5 33  1  0
  5 34  1  0
  6 35  1  0
  6 36  1  0
 12 37  1  0
 13 38  1  0
 14 39  1  0
 15 40  1  0
 16 41  1  0
 20 42  1  0
 21 43  1  0
 22 44  1  0
 23 45  1  0
 24 46  1  0
V    1 0
V    2 1
V    3 2
V    4 3
V    5 4
V    6 5
V    7 6
V    8 7
V    9 8
V   10 9
V   11 10
V   12 11
V   13 12
V   14 13
V   15 14
V   16 15
V   17 16
V   18 17
V   19 18
V   20 19
V   21 20
V   22 21
V   23 22
V   24 23
M  END
> <DSSTox_RID>
67009

> <DSSTox_CID>
27539

> <DSSTox_CID_Parent>
27539

> <DSSTox_Generic_SID>
47539

> <DSSTox_FileID>
951_TXCST2_v1a

> <STRUCTURE_Formula>
C20H22O4

> <STRUCTURE_MolecularWeight>
326.3863

> <STRUCTURE_ChemicalType>
defined organic

> <STRUCTURE_TestedForm_DefinedOrganic>
parent

> <STRUCTURE_Shown>
tested chemical

> <TestSubstance_ChemicalName>
Hexane-1,6-diyl dibenzoate

> <TestSubstance_CASRN>
22915-73-7

> <TestSubstance_Description>
single chemical compound

> <STRUCTURE_ChemicalName_IUPAC>
hexane-1,6-diyl dibenzoate

> <STRUCTURE_SMILES>
O=C(C1=CC=CC=C1)OCCCCCCOC(C2=CC=CC=C2)=O

> <STRUCTURE_Parent_SMILES>
O=C(C1=CC=CC=C1)OCCCCCCOC(C2=CC=CC=C2)=O

> <STRUCTURE_InChIS>
InChI=1S/C20H22O4/c21-19(17-11-5-3-6-12-17)23-15-9-1-2-10-16-24-20(22)18-13-7-4-8-14-18/h3-8,11-14H,1-2,9-10,15-16H2

> <STRUCTURE_InChIKey>
TYTTZVDFWCBYPG-UHFFFAOYSA-N

> <Substance_modify_yyyymmdd>
20100921

> <Coord_Metals>
0

> <Index>
951

> <Canonical_Smiles>
O=C(OCCCCCCOC(=O)c1ccccc1)c2ccccc2

> <Molecular_Weight>
326.38628

> <Frequency>
1

$$$$

  SciTegic          2D

 24 26  0  0  0  0            999 V2000
   -1.2274   -0.6045    0.0000 C   0  0
   -1.2274    0.8244    0.0000 C   0  0
   -2.4915   -1.3190    0.0000 C   0  0
   -2.4915    1.5389    0.0000 C   0  0
   -3.7006   -0.6045    0.0000 C   0  0
   -3.7006    0.8244    0.0000 C   0  0
    0.0000   -1.3190    0.0000 C   0  0
    1.2274   -0.6045    0.0000 C   0  0
    1.2274    0.8244    0.0000 C   0  0
    2.4732   -1.3190    0.0000 C   0  0
    3.7372   -0.6045    0.0000 C   0  0
    2.4732    1.5389    0.0000 C   0  0
    3.7372    0.8244    0.0000 C   0  0
    5.0356    1.5781    0.0000 O   0  0
   -2.5011   -2.3190    0.0000 H   0  0
   -2.5011    2.5388    0.0000 H   0  0
   -4.5691   -1.1002    0.0000 H   0  0
   -4.5691    1.3200    0.0000 H   0  0
    0.8774   -1.7987    0.0000 H   0  0
   -0.8774   -1.7988    0.0000 H   0  0
    2.4700   -2.3190    0.0000 H   0  0
    4.6009   -1.1085    0.0000 H   0  0
    2.4700    2.5388    0.0000 H   0  0
    5.0340    2.5781    0.0000 H   0  0
  1  3  2  0
  1  7  1  0
  1  2  1  0
  2  4  2  0
  2  9  1  0
  3  5  1  0
  4  6  1  0
  5  6  2  0
  7  8  1  0
  8 10  1  0
  8  9  2  0
  9 12  1  0
 10 11  2  0
 11 13  1  0
 12 13  2  0
 13 14  1  0
  3 15  1  0
  4 16  1  0
  5 17  1  0
  6 18  1  0
  7 19  1  0
  7 20  1  0
 10 21  1  0
 11 22  1  0
 12 23  1  0
 14 24  1  0
V    1 0
V    2 1
V    3 2
V    4 3
V    5 4
V    6 5
V    7 6
V    8 7
V    9 8
V   10 9
V   11 10
V   12 11
V   13 12
V   14 13
M  END
> <DSSTox_RID>
67020

> <DSSTox_CID>
27540

> <DSSTox_CID_Parent>
27540

> <DSSTox_Generic_SID>
47540

> <DSSTox_FileID>
952_TXCST2_v1a

> <STRUCTURE_Formula>
C13H10O

> <STRUCTURE_MolecularWeight>
182.2179

> <STRUCTURE_ChemicalType>
defined organic

> <STRUCTURE_TestedForm_DefinedOrganic>
parent

> <STRUCTURE_Shown>
tested chemical

> <TestSubstance_ChemicalName>
3-Hydroxyfluorene

> <TestSubstance_CASRN>
6344-67-8

> <TestSubstance_Description>
single chemical compound

> <STRUCTURE_ChemicalName_IUPAC>
9H-fluoren-3-ol

> <STRUCTURE_SMILES>
OC3=CC2=C(C=C3)CC1=CC=CC=C12

> <STRUCTURE_Parent_SMILES>
OC3=CC2=C(C=C3)CC1=CC=CC=C12

> <STRUCTURE_InChIS>
InChI=1S/C13H10O/c14-11-6-5-10-7-9-3-1-2-4-12(9)13(10)8-11/h1-6,8,14H,7H2

> <STRUCTURE_InChIKey>
PVUBSZGNXLNTLX-UHFFFAOYSA-N

> <Substance_modify_yyyymmdd>
20100921

> <Coord_Metals>
0

> <Index>
952

> <Canonical_Smiles>
Oc1ccc2Cc3ccccc3c2c1

> <Molecular_Weight>
182.21789

> <Frequency>
1

$$$$

  SciTegic          2D

 42 43  0  0  0  0            999 V2000
    1.2990   -0.7500    0.0000 C   0  0
    1.2990    0.7500    0.0000 C   0  0
    0.0000    1.5000    0.0000 C   0  0
   -1.2990    0.7500    0.0000 C   0  0
   -1.2990   -0.7500    0.0000 C   0  0
    0.0000   -1.5000    0.0000 C   0  0
    2.5951   -3.0039    0.0000 C   0  0
    1.5548   -3.6021    0.0000 O   0  0
    3.8933   -3.7570    0.0000 O   0  0
    2.5973   -1.5031    0.0000 C   0  0
    0.0000   -3.0008    0.0000 C   0  0
   -1.2993   -3.7521    0.0000 O   0  0
    0.0013   -6.0003    0.0000 N   0  0
    0.0044   -7.5003    0.0000 C   0  0
   -1.2993   -5.2529    0.0000 C   0  0
   -2.5967   -6.0056    0.0000 C   0  0
   -1.2931   -8.2530    0.0000 C   0  0
   -2.5937   -7.5056    0.0000 C   0  0
    1.3057   -8.2481    0.0000 C   0  0
    2.3440   -7.6467    0.0000 F   0  0
    1.3077   -9.4481    0.0000 F   0  0
    2.3458   -8.8465    0.0000 F   0  0
    3.8999   -0.7576    0.0000 C   0  0
    5.1972   -1.5121    0.0000 O   0  0
    6.4998   -0.7667    0.0000 C   0  0
    3.8912   -5.2578    0.0000 C   0  0
    2.1651    1.2500    0.0000 H   0  0
    0.0000    2.5000    0.0000 H   0  0
   -2.1651    1.2500    0.0000 H   0  0
   -2.1651   -1.2500    0.0000 H   0  0
    0.8662   -3.5005    0.0000 H   0  0
    0.0005   -4.0008    0.0000 H   0  0
   -3.4638   -5.5074    0.0000 H   0  0
   -1.2911   -9.2530    0.0000 H   0  0
   -3.4587   -8.0074    0.0000 H   0  0
    3.9033    0.2424    0.0000 H   0  0
    7.3643   -1.2694    0.0000 H   0  0
    6.5033    0.2333    0.0000 H   0  0
    7.3675   -0.2695    0.0000 H   0  0
    4.7562   -5.7596    0.0000 H   0  0
    3.0243   -5.7563    0.0000 H   0  0
    3.8893   -6.2578    0.0000 H   0  0
  1  2  1  0
  1  6  2  0
  1 10  1  0
  2  3  2  0
  3  4  1  0
  4  5  2  0
  5  6  1  0
  6 11  1  0
  7  8  2  0
  7  9  1  0
  7 10  1  0
  9 26  1  0
 10 23  2  0
 11 12  1  0
 12 15  1  0
 13 14  1  0
 13 15  2  0
 14 17  2  0
 14 19  1  0
 15 16  1  0
 16 18  2  0
 17 18  1  0
 19 20  1  0
 19 21  1  0
 19 22  1  0
 23 24  1  0
 24 25  1  0
  2 27  1  0
  3 28  1  0
  4 29  1  0
  5 30  1  0
 11 31  1  0
 11 32  1  0
 16 33  1  0
 17 34  1  0
 18 35  1  0
 23 36  1  0
 25 37  1  0
 25 38  1  0
 25 39  1  0
 26 40  1  0
 26 41  1  0
 26 42  1  0
V    1 0
V    2 1
V    3 2
V    4 3
V    5 4
V    6 5
V    7 6
V    8 7
V    9 8
V   10 9
V   11 10
V   12 11
V   13 12
V   14 13
V   15 14
V   16 15
V   17 16
V   18 17
V   19 18
V   20 19
V   21 20
V   22 21
V   23 22
V   24 23
V   25 24
V   26 25
M  END
> <DSSTox_RID>
67038

> <DSSTox_CID>
27542

> <DSSTox_CID_Parent>
27542

> <DSSTox_Generic_SID>
47542

> <DSSTox_FileID>
953_TXCST2_v1a

> <STRUCTURE_Formula>
C18H16F3NO4

> <STRUCTURE_MolecularWeight>
367.3191

> <STRUCTURE_ChemicalType>
defined organic

> <STRUCTURE_TestedForm_DefinedOrganic>
parent

> <STRUCTURE_Shown>
tested chemical

> <TestSubstance_ChemicalName>
Picoxystrobin

> <TestSubstance_CASRN>
117428-22-5

> <TestSubstance_Description>
single chemical compound

> <ChemicalNote>
stereochem

> <Source_ChemicalNote>
tested chemical contained 0.09% water (0.02 moles H2O)

> <STRUCTURE_ChemicalName_IUPAC>
methyl (2E)-3-methoxy-2-[2-({[6-(trifluoromethyl)pyridin-2-yl]oxy}methyl)phenyl]prop-2-enoate

> <STRUCTURE_SMILES>
O=C(/C(C1=C(COC2=NC(C(F)(F)F)=CC=C2)C=CC=C1)=C/OC)OC

> <STRUCTURE_Parent_SMILES>
O=C(/C(C1=C(COC2=NC(C(F)(F)F)=CC=C2)C=CC=C1)=C/OC)OC

> <STRUCTURE_InChIS>
InChI=1S/C18H16F3NO4/c1-24-11-14(17(23)25-2)13-7-4-3-6-12(13)10-26-16-9-5-8-15(22-16)18(19,20)21/h3-9,11H,10H2,1-2H3/b14-11+

> <STRUCTURE_InChIKey>
IBSNKSODLGJUMQ-SDNWHVSQSA-N

> <Substance_modify_yyyymmdd>
20100921

> <Coord_Metals>
0

> <Index>
953

> <Canonical_Smiles>
COC=C(C(=O)OC)c1ccccc1COc2cccc(n2)C(F)(F)F

> <Molecular_Weight>
367.31914

> <Frequency>
1

$$$$

  SciTegic          2D

 35 34  0  0  0  0            999 V2000
   14.2999    0.7500    0.0000 C   0  0
   12.9999    0.0000    0.0000 C   0  0
   11.6999    0.7500    0.0000 C   0  0
   10.3999    0.0000    0.0000 C   0  0
    9.0999    0.7500    0.0000 C   0  0
    7.7999    0.0000    0.0000 C   0  0
    6.5000    0.7500    0.0000 C   0  0
    5.2000    0.0000    0.0000 C   0  0
    3.9000    0.7500    0.0000 C   0  0
    2.6000    0.0000    0.0000 C   0  0
    1.3000    0.7500    0.0000 C   0  0
   14.2999    1.9500    0.0000 O   0  0
   15.5999    0.0000    0.0000 O   0  0
   14.0390   -0.6002    0.0000 F   0  0
   12.9999   -1.2000    0.0000 F   0  0
   10.6608    1.3502    0.0000 F   0  0
   11.6999    1.9500    0.0000 F   0  0
    9.3608   -0.6002    0.0000 F   0  0
   10.3999   -1.2000    0.0000 F   0  0
    8.0608    1.3502    0.0000 F   0  0
    9.0999    1.9500    0.0000 F   0  0
    6.7608   -0.6002    0.0000 F   0  0
    7.7999   -1.2000    0.0000 F   0  0
    5.4608    1.3502    0.0000 F   0  0
    6.5000    1.9500    0.0000 F   0  0
    4.1608   -0.6002    0.0000 F   0  0
    5.2000   -1.2000    0.0000 F   0  0
    2.8608    1.3502    0.0000 F   0  0
    3.9000    1.9500    0.0000 F   0  0
    1.5608   -0.6002    0.0000 F   0  0
    2.6000   -1.2000    0.0000 F   0  0
    0.2606    0.1503    0.0000 F   0  0
    0.2609    1.3502    0.0000 F   0  0
    1.3000    1.9500    0.0000 F   0  0
   16.4661    0.4997    0.0000 H   0  0
  1  2  1  0
  1 13  1  0
  1 12  2  0
  2  3  1  0
  2 14  1  0
  2 15  1  0
  3  4  1  0
  3 16  1  0
  3 17  1  0
  4  5  1  0
  4 18  1  0
  4 19  1  0
  5  6  1  0
  5 20  1  0
  5 21  1  0
  6  7  1  0
  6 22  1  0
  6 23  1  0
  7  8  1  0
  7 24  1  0
  7 25  1  0
  8  9  1  0
  8 26  1  0
  8 27  1  0
  9 10  1  0
  9 28  1  0
  9 29  1  0
 10 11  1  0
 10 30  1  0
 10 31  1  0
 11 32  1  0
 11 33  1  0
 11 34  1  0
 13 35  1  0
V    1 0
V    2 1
V    3 2
V    4 3
V    5 4
V    6 5
V    7 6
V    8 7
V    9 8
V   10 9
V   11 10
V   12 11
V   13 12
V   14 13
V   15 14
V   16 15
V   17 16
V   18 17
V   19 18
V   20 19
V   21 20
V   22 21
V   23 22
V   24 23
V   25 24
V   26 25
V   27 26
V   28 27
V   29 28
V   30 29
V   31 30
V   32 31
V   33 32
V   34 33
M  END
> <DSSTox_RID>
67043

> <DSSTox_CID>
27553

> <DSSTox_CID_Parent>
27553

> <DSSTox_Generic_SID>
47553

> <DSSTox_FileID>
954_TXCST2_v1a

> <STRUCTURE_Formula>
C11HF21O2

> <STRUCTURE_MolecularWeight>
564.0909

> <STRUCTURE_ChemicalType>
defined organic

> <STRUCTURE_TestedForm_DefinedOrganic>
parent

> <STRUCTURE_Shown>
tested chemical

> <TestSubstance_ChemicalName>
Perfluoroundecanoic acid

> <TestSubstance_CASRN>
2058-94-8

> <TestSubstance_Description>
single chemical compound

> <STRUCTURE_ChemicalName_IUPAC>
henicosafluoroundecanoic acid

> <STRUCTURE_SMILES>
O=C(O)C(F)(F)C(F)(F)C(F)(F)C(F)(F)C(F)(F)C(F)(F)C(F)(F)C(F)(F)C(F)(F)C(F)(F)F

> <STRUCTURE_Parent_SMILES>
O=C(O)C(F)(F)C(F)(F)C(F)(F)C(F)(F)C(F)(F)C(F)(F)C(F)(F)C(F)(F)C(F)(F)C(F)(F)F

> <STRUCTURE_InChIS>
InChI=1S/C11HF21O2/c12-2(13,1(33)34)3(14,15)4(16,17)5(18,19)6(20,21)7(22,23)8(24,25)9(26,27)10(28,29)11(30,31)32/h(H,33,34)

> <STRUCTURE_InChIKey>
SIDINRCMMRKXGQ-UHFFFAOYSA-N

> <Substance_modify_yyyymmdd>
20100929

> <Coord_Metals>
0

> <Index>
954

> <Canonical_Smiles>
OC(=O)C(F)(F)C(F)(F)C(F)(F)C(F)(F)C(F)(F)C(F)(F)C(F)(F)C(F)(F)C(F)(F)C(F)(F)F

> <Molecular_Weight>
564.0909

> <Frequency>
1

$$$$

  SciTegic          2D

 36 35  0  0  0  0            999 V2000
   12.9999    0.0000    0.0000 C   0  0
   14.2999    0.7500    0.0000 C   0  0
   12.9999   -1.2000    0.0000 O   0  0
   15.5999    0.0000    0.0000 C   0  0
   11.6999    0.7500    0.0000 O   0  0
   14.3030    2.2508    0.0000 C   0  0
   10.3999    0.0000    0.0000 C   0  0
    9.0999    0.7500    0.0000 C   0  0
    7.7999    0.0000    0.0000 C   0  0
    6.5000    0.7500    0.0000 C   0  0
    5.2000    0.0000    0.0000 C   0  0
    3.9000    0.7500    0.0000 C   0  0
    2.6000    0.0000    0.0000 C   0  0
    1.3000    0.7500    0.0000 C   0  0
    7.7999   -1.2000    0.0000 F   0  0
    6.7608   -0.6002    0.0000 F   0  0
    6.5000    1.9500    0.0000 F   0  0
    5.4608    1.3502    0.0000 F   0  0
    5.2000   -1.2000    0.0000 F   0  0
    4.1608   -0.6002    0.0000 F   0  0
    3.9000    1.9500    0.0000 F   0  0
    2.8608    1.3502    0.0000 F   0  0
    2.6000   -1.2000    0.0000 F   0  0
    1.5608   -0.6002    0.0000 F   0  0
    0.2606    0.1503    0.0000 F   0  0
    1.3000    1.9500    0.0000 F   0  0
    0.2609    1.3502    0.0000 F   0  0
   16.4661    0.4997    0.0000 H   0  0
   15.5999   -1.0000    0.0000 H   0  0
   15.1697    2.7496    0.0000 H   0  0
   14.3046    3.2508    0.0000 H   0  0
   13.4378    2.7523    0.0000 H   0  0
   10.3999   -1.0000    0.0000 H   0  0
   11.2659   -0.5001    0.0000 H   0  0
    9.0999    1.7500    0.0000 H   0  0
    8.2340    1.2501    0.0000 H   0  0
  1  2  1  0
  1  3  2  0
  1  5  1  0
  2  4  2  0
  2  6  1  0
  5  7  1  0
  7  8  1  0
  8  9  1  0
  9 10  1  0
  9 15  1  0
  9 16  1  0
 10 11  1  0
 10 17  1  0
 10 18  1  0
 11 12  1  0
 11 19  1  0
 11 20  1  0
 12 13  1  0
 12 21  1  0
 12 22  1  0
 13 14  1  0
 13 23  1  0
 13 24  1  0
 14 25  1  0
 14 26  1  0
 14 27  1  0
  4 28  1  0
  4 29  1  0
  6 30  1  0
  6 31  1  0
  6 32  1  0
  7 33  1  0
  7 34  1  0
  8 35  1  0
  8 36  1  0
V    1 0
V    2 1
V    3 2
V    4 3
V    5 4
V    6 5
V    7 6
V    8 7
V    9 8
V   10 9
V   11 10
V   12 11
V   13 12
V   14 13
V   15 14
V   16 15
V   17 16
V   18 17
V   19 18
V   20 19
V   21 20
V   22 21
V   23 22
V   24 23
V   25 24
V   26 25
V   27 26
M  END
> <DSSTox_RID>
67051

> <DSSTox_CID>
27558

> <DSSTox_CID_Parent>
27558

> <DSSTox_Generic_SID>
47558

> <DSSTox_FileID>
955_TXCST2_v1a

> <STRUCTURE_Formula>
C12H9F13O2

> <STRUCTURE_MolecularWeight>
432.1779

> <STRUCTURE_ChemicalType>
defined organic

> <STRUCTURE_TestedForm_DefinedOrganic>
parent

> <STRUCTURE_Shown>
tested chemical

> <TestSubstance_ChemicalName>
3,3,4,4,5,5,6,6,7,7,8,8,8-Tridecafluorooctyl methacrylate

> <TestSubstance_CASRN>
2144-53-8

> <TestSubstance_Description>
single chemical compound

> <STRUCTURE_ChemicalName_IUPAC>
3,3,4,4,5,5,6,6,7,7,8,8,8-tridecafluorooctyl 2-methylprop-2-enoate

> <STRUCTURE_SMILES>
O=C(OCCC(F)(F)C(F)(F)C(F)(F)C(F)(F)C(F)(F)C(F)(F)F)C(C)=C

> <STRUCTURE_Parent_SMILES>
O=C(OCCC(F)(F)C(F)(F)C(F)(F)C(F)(F)C(F)(F)C(F)(F)F)C(C)=C

> <STRUCTURE_InChIS>
InChI=1S/C12H9F13O2/c1-5(2)6(26)27-4-3-7(13,14)8(15,16)9(17,18)10(19,20)11(21,22)12(23,24)25/h1,3-4H2,2H3

> <STRUCTURE_InChIKey>
CDXFIRXEAJABAZ-UHFFFAOYSA-N

> <Substance_modify_yyyymmdd>
20100929

> <Coord_Metals>
0

> <Index>
955

> <Canonical_Smiles>
CC(=C)C(=O)OCCC(F)(F)C(F)(F)C(F)(F)C(F)(F)C(F)(F)C(F)(F)F

> <Molecular_Weight>
432.1779

> <Frequency>
1

$$$$

  SciTegic          2D

 26 25  0  0  0  0            999 V2000
    1.3000    0.7500    0.0000 C   0  0
    2.6000    0.0000    0.0000 C   0  0
    3.9000    0.7500    0.0000 C   0  0
    5.2000    0.0000    0.0000 C   0  0
    6.5000    0.7500    0.0000 C   0  0
    7.7999    0.0000    0.0000 C   0  0
    9.0999    0.7500    0.0000 C   0  0
   10.3999    0.0000    0.0000 C   0  0
    0.2606    0.1503    0.0000 F   0  0
    1.3000    1.9500    0.0000 F   0  0
    0.2609    1.3502    0.0000 F   0  0
    2.6000   -1.2000    0.0000 F   0  0
    1.5608   -0.6002    0.0000 F   0  0
    3.9000    1.9500    0.0000 F   0  0
    2.8608    1.3502    0.0000 F   0  0
    5.2000   -1.2000    0.0000 F   0  0
    4.1608   -0.6002    0.0000 F   0  0
    6.5000    1.9500    0.0000 F   0  0
    5.4608    1.3502    0.0000 F   0  0
   11.4393    0.5997    0.0000 I   0  0
    7.7999   -1.2000    0.0000 F   0  0
    6.7608   -0.6002    0.0000 F   0  0
    9.0999    1.7500    0.0000 H   0  0
    8.2340    1.2501    0.0000 H   0  0
   10.3999   -1.0000    0.0000 H   0  0
   11.2659   -0.5001    0.0000 H   0  0
  1  2  1  0
  1  9  1  0
  1 10  1  0
  1 11  1  0
  2  3  1  0
  2 12  1  0
  2 13  1  0
  3  4  1  0
  3 14  1  0
  3 15  1  0
  4  5  1  0
  4 16  1  0
  4 17  1  0
  5  6  1  0
  5 18  1  0
  5 19  1  0
  6  7  1  0
  6 21  1  0
  6 22  1  0
  7  8  1  0
  8 20  1  0
  7 23  1  0
  7 24  1  0
  8 25  1  0
  8 26  1  0
V    1 0
V    2 1
V    3 2
V    4 3
V    5 4
V    6 5
V    7 6
V    8 7
V    9 8
V   10 9
V   11 10
V   12 11
V   13 12
V   14 13
V   15 14
V   16 15
V   17 16
V   18 17
V   19 18
V   20 19
V   21 20
V   22 21
M  END
> <DSSTox_RID>
67070

> <DSSTox_CID>
27565

> <DSSTox_CID_Parent>
27565

> <DSSTox_Generic_SID>
47565

> <DSSTox_FileID>
956_TXCST2_v1a

> <STRUCTURE_Formula>
C8H4F13I

> <STRUCTURE_MolecularWeight>
474.0011

> <STRUCTURE_ChemicalType>
defined organic

> <STRUCTURE_TestedForm_DefinedOrganic>
parent

> <STRUCTURE_Shown>
tested chemical

> <TestSubstance_ChemicalName>
1H,1H,2H,2H-Perfluorooctyl iodide

> <TestSubstance_CASRN>
2043-57-4

> <TestSubstance_Description>
single chemical compound

> <STRUCTURE_ChemicalName_IUPAC>
1,1,1,2,2,3,3,4,4,5,5,6,6-tridecafluoro-8-iodooctane

> <STRUCTURE_SMILES>
FC(F)(C(F)(F)CCI)C(F)(F)C(F)(F)C(F)(F)C(F)(F)F

> <STRUCTURE_Parent_SMILES>
FC(F)(C(F)(F)CCI)C(F)(F)C(F)(F)C(F)(F)C(F)(F)F

> <STRUCTURE_InChIS>
InChI=1S/C8H4F13I/c9-3(10,1-2-22)4(11,12)5(13,14)6(15,16)7(17,18)8(19,20)21/h1-2H2

> <STRUCTURE_InChIKey>
NVVZEKTVIXIUKW-UHFFFAOYSA-N

> <Substance_modify_yyyymmdd>
20100929

> <Coord_Metals>
0

> <Index>
956

> <Canonical_Smiles>
FC(F)(F)C(F)(F)C(F)(F)C(F)(F)C(F)(F)C(F)(F)CCI

> <Molecular_Weight>
474.00107

> <Frequency>
1

$$$$

  SciTegic          2D

 25 26  0  0  0  0            999 V2000
    2.7022   -0.0406    0.0000 N   0  0
    2.5987   -1.5006    0.0000 C   0  0
    4.1697    0.2696    0.0000 C   0  0
    3.9134   -2.1439    0.0000 C   0  0
    1.6341   -0.3507    0.0000 C   0  0
    4.9183   -1.0302    0.0000 C   0  0
    4.6590    1.3653    0.0000 O   0  0
    1.1830    2.2079    0.0000 N   0  0
    1.5679    0.9379    0.0000 C   0  0
    2.1472    1.0588    0.0000 C   0  0
    0.1569   -0.6112    0.0000 C   0  0
   -0.2942    1.9474    0.0000 C   0  0
   -0.8073    0.5378    0.0000 C   0  0
    2.5966   -2.5006    0.0000 H   0  0
    3.1490   -2.7887    0.0000 H   0  0
    4.8628   -2.4578    0.0000 H   0  0
    5.3103   -1.9502    0.0000 H   0  0
    5.4949   -0.2132    0.0000 H   0  0
    0.6234    0.6092    0.0000 H   0  0
    1.7551    1.9202    0.0000 H   0  0
    0.8109    1.5913    0.0000 H   0  0
    3.1320    1.2325    0.0000 H   0  0
   -0.1851   -1.5509    0.0000 H   0  0
   -0.9370    2.7134    0.0000 H   0  0
   -1.7921    0.3642    0.0000 H   0  0
  1  2  1  0
  1  3  1  0
  1  9  1  0
  2  4  1  0
  2  5  1  0
  3  6  1  0
  3  7  2  0
  4  6  1  0
  5 10  2  0
  5 11  1  0
  8 10  1  0
  8 12  2  0
 11 13  2  0
 12 13  1  0
  2 14  1  0
  4 15  1  0
  4 16  1  0
  6 17  1  0
  6 18  1  0
  9 19  1  0
  9 20  1  0
  9 21  1  0
 10 22  1  0
 11 23  1  0
 12 24  1  0
 13 25  1  0
V    1 0
V    2 1
V    3 2
V    4 3
V    5 4
V    6 5
V    7 6
V    8 7
V    9 8
V   10 9
V   11 10
V   12 11
V   13 12
M  END
> <DSSTox_RID>
67090

> <DSSTox_CID>
27576

> <DSSTox_CID_Parent>
27577

> <DSSTox_Generic_SID>
47576

> <DSSTox_FileID>
957_TXCST2_v1a

> <STRUCTURE_Formula>
C10H12N2O

> <STRUCTURE_MolecularWeight>
176.2151

> <STRUCTURE_ChemicalType>
defined organic

> <STRUCTURE_TestedForm_DefinedOrganic>
parent

> <STRUCTURE_Shown>
tested chemical

> <TestSubstance_ChemicalName>
(-)-Cotinine

> <TestSubstance_CASRN>
486-56-6

> <TestSubstance_Description>
single chemical compound

> <ChemicalNote>
stereochem

> <Source_ChemicalNote>
tested chemical contained 3% water (0.3 moles H2O)

> <STRUCTURE_ChemicalName_IUPAC>
(5S)-1-methyl-5-(pyridin-3-yl)pyrrolidin-2-one

> <STRUCTURE_SMILES>
O=C1N(C)[C@H](C2=CN=CC=C2)CC1

> <STRUCTURE_Parent_SMILES>
O=C1N(C)[C@H](C2=CN=CC=C2)CC1

> <STRUCTURE_InChIS>
InChI=1S/C10H12N2O/c1-12-9(4-5-10(12)13)8-3-2-6-11-7-8/h2-3,6-7,9H,4-5H2,1H3/t9-/m0/s1

> <STRUCTURE_InChIKey>
UIKROCXWUNQSPJ-VIFPVBQESA-N

> <Substance_modify_yyyymmdd>
20100930

> <Coord_Metals>
0

> <Index>
957

> <Canonical_Smiles>
CN1C(CCC1=O)c2cccnc2

> <Molecular_Weight>
176.21507

> <Frequency>
1

$$$$

  SciTegic          2D

 25 27  0  0  0  0            999 V2000
   -0.8205    0.0000    0.0000 C   0  0
   -0.8205   -1.5498    0.0000 C   0  0
   -2.1332    0.6928    0.0000 C   0  0
   -2.1332   -2.2973    0.0000 C   0  0
   -3.4277    0.0000    0.0000 C   0  0
   -3.4277   -1.5498    0.0000 C   0  0
    0.4558    0.6928    0.0000 C   0  0
    1.7503    0.0000    0.0000 C   0  0
    0.4558   -2.2973    0.0000 C   0  0
    1.7503   -1.5498    0.0000 C   0  0
    0.4558    2.1879    0.0000 C   0  0
    1.7503    2.9537    0.0000 C   0  0
    3.0631    0.6928    0.0000 C   0  0
    3.0631    2.1879    0.0000 C   0  0
    0.4500   -3.7982    0.0000 O   0  0
   -2.1361    1.6928    0.0000 H   0  0
   -2.1362   -3.2973    0.0000 H   0  0
   -4.2856    0.5139    0.0000 H   0  0
   -4.2937   -2.0497    0.0000 H   0  0
    2.6164   -2.0497    0.0000 H   0  0
   -0.4128    2.6833    0.0000 H   0  0
    1.7473    3.9537    0.0000 H   0  0
    3.9194    0.1765    0.0000 H   0  0
    3.9302    2.6860    0.0000 H   0  0
    1.3137   -4.3021    0.0000 H   0  0
  1  3  2  0
  1  7  1  0
  1  2  1  0
  2  4  2  0
  2  9  1  0
  3  5  1  0
  4  6  1  0
  5  6  2  0
  7 11  1  0
  7  8  2  0
  8 10  1  0
  8 13  1  0
  9 10  2  0
  9 15  1  0
 11 12  2  0
 12 14  1  0
 13 14  2  0
  3 16  1  0
  4 17  1  0
  5 18  1  0
  6 19  1  0
 10 20  1  0
 11 21  1  0
 12 22  1  0
 13 23  1  0
 14 24  1  0
 15 25  1  0
V    1 0
V    2 1
V    3 2
V    4 3
V    5 4
V    6 5
V    7 6
V    8 7
V    9 8
V   10 9
V   11 10
V   12 11
V   13 12
V   14 13
V   15 14
M  END
> <DSSTox_RID>
67100

> <DSSTox_CID>
27592

> <DSSTox_CID_Parent>
27592

> <DSSTox_Generic_SID>
47592

> <DSSTox_FileID>
958_TXCST2_v1a

> <STRUCTURE_Formula>
C14H10O

> <STRUCTURE_MolecularWeight>
194.2286

> <STRUCTURE_ChemicalType>
defined organic

> <STRUCTURE_TestedForm_DefinedOrganic>
parent

> <STRUCTURE_Shown>
tested chemical

> <TestSubstance_ChemicalName>
9-Phenanthrol

> <TestSubstance_CASRN>
484-17-3

> <TestSubstance_Description>
single chemical compound

> <STRUCTURE_ChemicalName_IUPAC>
phenanthren-9-ol

> <STRUCTURE_SMILES>
OC1=CC2=C(C=CC=C2)C3=CC=CC=C31

> <STRUCTURE_Parent_SMILES>
OC1=CC2=C(C=CC=C2)C3=CC=CC=C31

> <STRUCTURE_InChIS>
InChI=1S/C14H10O/c15-14-9-10-5-1-2-6-11(10)12-7-3-4-8-13(12)14/h1-9,15H

> <STRUCTURE_InChIKey>
DZKIUEHLEXLYKM-UHFFFAOYSA-N

> <Substance_modify_yyyymmdd>
20101001

> <Coord_Metals>
0

> <Index>
958

> <Canonical_Smiles>
Oc1cc2ccccc2c3ccccc13

> <Molecular_Weight>
194.22859

> <Frequency>
1

$$$$

  SciTegic          2D

 41 42  0  0  0  0            999 V2000
    1.2990   -0.7500    0.0000 C   0  0
    2.5973   -1.5031    0.0000 O   0  0
    1.2990    0.7500    0.0000 C   0  0
    0.0000   -1.5000    0.0000 C   0  0
   -1.2990   -0.7500    0.0000 C   0  0
    0.0000    1.5000    0.0000 C   0  0
   -1.2990    0.7500    0.0000 C   0  0
    2.5988    1.5004    0.0000 C   0  0
    3.8990    0.7508    0.0000 C   0  0
    5.1988    1.5013    0.0000 C   0  0
   -6.4980   -0.7476    0.0000 C   0  0
   -7.7967   -1.4998    0.0000 O   0  0
   -6.4971    0.7524    0.0000 C   0  0
   -5.1995   -1.4984    0.0000 C   0  0
   -3.9000   -0.7492    0.0000 C   0  0
   -5.1976    1.5016    0.0000 C   0  0
   -3.8990    0.7508    0.0000 C   0  0
   -7.7964    1.5037    0.0000 C   0  0
   -9.0971    0.7549    0.0000 C   0  0
  -10.3964    1.5061    0.0000 C   0  0
   -2.5988    1.5004    0.0000 S   0  0
   -2.5984    2.7004    0.0000 O   0  0
   -1.5595    2.1002    0.0000 O   0  0
    2.5958   -2.5031    0.0000 H   0  0
    0.0000   -2.5000    0.0000 H   0  0
   -2.1651   -1.2500    0.0000 H   0  0
    0.0000    2.5000    0.0000 H   0  0
    2.5985    2.5004    0.0000 H   0  0
    3.4646    2.0008    0.0000 H   0  0
    3.8993   -0.2492    0.0000 H   0  0
    6.0651    1.0018    0.0000 H   0  0
    5.1984    2.5013    0.0000 H   0  0
   -7.7959   -2.4998    0.0000 H   0  0
   -5.2001   -2.4984    0.0000 H   0  0
   -3.0343   -1.2497    0.0000 H   0  0
   -5.1970    2.5016    0.0000 H   0  0
   -7.7954    2.5037    0.0000 H   0  0
   -8.6618    2.0046    0.0000 H   0  0
   -9.0980   -0.2451    0.0000 H   0  0
  -11.2630    1.0072    0.0000 H   0  0
  -10.3954    2.5061    0.0000 H   0  0
  1  2  1  0
  1  3  2  0
  1  4  1  0
  3  6  1  0
  3  8  1  0
  4  5  2  0
  5  7  1  0
  6  7  2  0
  7 21  1  0
  8  9  1  0
  9 10  2  0
 11 12  1  0
 11 13  2  0
 11 14  1  0
 13 16  1  0
 13 18  1  0
 14 15  2  0
 15 17  1  0
 16 17  2  0
 17 21  1  0
 18 19  1  0
 19 20  2  0
 21 22  2  0
 21 23  2  0
  2 24  1  0
  4 25  1  0
  5 26  1  0
  6 27  1  0
  8 28  1  0
  8 29  1  0
  9 30  1  0
 10 31  1  0
 10 32  1  0
 12 33  1  0
 14 34  1  0
 15 35  1  0
 16 36  1  0
 18 37  1  0
 18 38  1  0
 19 39  1  0
 20 40  1  0
 20 41  1  0
V    1 0
V    2 1
V    3 2
V    4 3
V    5 4
V    6 5
V    7 6
V    8 7
V    9 8
V   10 9
V   11 10
V   12 11
V   13 12
V   14 13
V   15 14
V   16 15
V   17 16
V   18 17
V   19 18
V   20 19
V   21 20
V   22 21
V   23 22
M  END
> <DSSTox_RID>
67946

> <DSSTox_CID>
27598

> <DSSTox_CID_Parent>
27598

> <DSSTox_Generic_SID>
47598

> <DSSTox_FileID>
959_TXCST2_v1a

> <STRUCTURE_Formula>
C18H18O4S

> <STRUCTURE_MolecularWeight>
330.3981

> <STRUCTURE_ChemicalType>
defined organic

> <STRUCTURE_TestedForm_DefinedOrganic>
parent

> <STRUCTURE_Shown>
tested chemical

> <TestSubstance_ChemicalName>
4,4'-sulfonylbis[2-(prop-2-en-1-yl)phenol]

> <TestSubstance_CASRN>
41481-66-7

> <TestSubstance_Description>
single chemical compound

> <Source_ChemicalNote>
tested chemical contained 0.09% water (0.02 moles H2O)

> <STRUCTURE_ChemicalName_IUPAC>
4,4'-sulfonylbis[2-(prop-2-en-1-yl)phenol]

> <STRUCTURE_SMILES>
OC1=C(CC=C)C=C(S(C2=CC(CC=C)=C(C=C2)O)(=O)=O)C=C1

> <STRUCTURE_Parent_SMILES>
OC1=C(CC=C)C=C(S(C2=CC(CC=C)=C(C=C2)O)(=O)=O)C=C1

> <STRUCTURE_InChIS>
InChI=1S/C18H18O4S/c1-3-5-13-11-15(7-9-17(13)19)23(21,22)16-8-10-18(20)14(12-16)6-4-2/h3-4,7-12,19-20H,1-2,5-6H2

> <STRUCTURE_InChIKey>
MTMKZABGIQJAEX-UHFFFAOYSA-N

> <Substance_modify_yyyymmdd>
20101001

> <Coord_Metals>
0

> <Index>
959

> <Canonical_Smiles>
Oc1ccc(cc1CC=C)S(=O)(=O)c2ccc(O)c(CC=C)c2

> <Molecular_Weight>
330.39812

> <Frequency>
1

$$$$

  SciTegic          2D

 36 37  0  0  0  0            999 V2000
    0.8655   -1.6752    0.0000 S   0  0
   -0.0987   -2.8253    0.0000 S   0  0
   -0.0579   -0.5180    0.0000 C   0  0
   -0.5709    0.8915    0.0000 C   0  0
   -2.0481    1.1520    0.0000 C   0  0
   -3.0123    0.0029    0.0000 C   0  0
   -2.4993   -1.4066    0.0000 C   0  0
   -1.0221   -1.6671    0.0000 C   0  0
    0.4143   -4.2357    0.0000 C   0  0
    1.6773   -3.4650    0.0000 C   0  0
    2.9763   -4.2150    0.0000 C   0  0
    2.9762   -5.7150    0.0000 C   0  0
    1.6771   -6.4650    0.0000 C   0  0
    0.3781   -5.7149    0.0000 C   0  0
    0.5659    0.2635    0.0000 H   0  0
   -1.2316    0.1408    0.0000 H   0  0
   -0.9349    1.8229    0.0000 H   0  0
   -1.3875    1.9026    0.0000 H   0  0
   -3.0368    1.3024    0.0000 H   0  0
   -3.3321    0.9504    0.0000 H   0  0
   -3.6369   -0.7780    0.0000 H   0  0
   -3.4797   -1.2098    0.0000 H   0  0
   -2.1353   -2.3380    0.0000 H   0  0
   -1.6827   -2.4178    0.0000 H   0  0
   -0.0334   -1.8176    0.0000 H   0  0
   -0.4517   -4.7358    0.0000 H   0  0
    0.7944   -2.9953    0.0000 H   0  0
    2.5484   -2.9739    0.0000 H   0  0
    2.1223   -4.7353    0.0000 H   0  0
    3.8303   -4.7353    0.0000 H   0  0
    3.8302   -5.1947    0.0000 H   0  0
    2.9527   -6.7147    0.0000 H   0  0
    2.5547   -6.9444    0.0000 H   0  0
    0.7996   -6.9444    0.0000 H   0  0
   -0.4700   -5.1851    0.0000 H   0  0
    0.3883   -6.7148    0.0000 H   0  0
  1  2  1  0
  1  3  1  0
  2  9  1  0
  3  4  1  0
  3  8  1  0
  4  5  1  0
  5  6  1  0
  6  7  1  0
  7  8  1  0
  9 10  1  0
  9 14  1  0
 10 11  1  0
 11 12  1  0
 12 13  1  0
 13 14  1  0
  3 15  1  0
  4 16  1  0
  4 17  1  0
  5 18  1  0
  5 19  1  0
  6 20  1  0
  6 21  1  0
  7 22  1  0
  7 23  1  0
  8 24  1  0
  8 25  1  0
  9 26  1  0
 10 27  1  0
 10 28  1  0
 11 29  1  0
 11 30  1  0
 12 31  1  0
 12 32  1  0
 13 33  1  0
 13 34  1  0
 14 35  1  0
 14 36  1  0
V    1 0
V    2 1
V    3 2
V    4 3
V    5 4
V    6 5
V    7 6
V    8 7
V    9 8
V   10 9
V   11 10
V   12 11
V   13 12
V   14 13
M  END

> <DSSTox_RID>
NA_0

> <DSSTox_CID>
27628

> <DSSTox_CID_Parent>
27628

> <DSSTox_Generic_SID>
47628

> <DSSTox_FileID>
960_TXCST2_v1a

> <STRUCTURE_Formula>
C12H22S2

> <STRUCTURE_MolecularWeight>
230.4331

> <STRUCTURE_ChemicalType>
defined organic

> <STRUCTURE_TestedForm_DefinedOrganic>
parent

> <STRUCTURE_Shown>
tested chemical

> <TestSubstance_ChemicalName>
Dicyclohexyl disulfide

> <TestSubstance_CASRN>
2550-40-5

> <TestSubstance_Description>
single chemical compound

> <STRUCTURE_ChemicalName_IUPAC>
dicyclohexyl disulfide

> <STRUCTURE_SMILES>
C1(CCCCC1)SSC2CCCCC2

> <STRUCTURE_Parent_SMILES>
C1(CCCCC1)SSC2CCCCC2

> <STRUCTURE_InChIS>
InChI=1S/C12H22S2/c1-3-7-11(8-4-1)13-14-12-9-5-2-6-10-12/h11-12H,1-10H2

> <STRUCTURE_InChIKey>
ODHAQPXNQDBHSH-UHFFFAOYSA-N

> <Substance_modify_yyyymmdd>
20101211

> <Coord_Metals>
0

> <Index>
960

> <Canonical_Smiles>
C1CCC(CC1)SSC2CCCCC2

> <Molecular_Weight>
230.43307

> <Frequency>
1

$$$$
