
  SciTegic          2D

 30 31  0  0  0  0            999 V2000
    2.5983   -3.0012    0.0000 C   0  0
    2.5988   -1.5004    0.0000 C   0  0
    1.2990   -0.7500    0.0000 C   0  0
    1.2990    0.7500    0.0000 C   0  0
    0.0000    1.5000    0.0000 C   0  0
   -1.2990    0.7500    0.0000 C   0  0
   -1.2990   -0.7500    0.0000 C   0  0
    0.0000   -1.5000    0.0000 C   0  0
   -2.6003    1.4977    0.0000 O   0  0
    3.8990   -0.7508    0.0000 C   0  0
    5.1976   -1.5016    0.0000 C   0  0
    6.4971   -0.7525    0.0000 C   0  0
    6.4980    0.7475    0.0000 C   0  0
    5.1995    1.4984    0.0000 C   0  0
    3.9000    0.7492    0.0000 C   0  0
    7.7967    1.4998    0.0000 O   0  0
    3.6370   -3.6021    0.0000 Cl  0  0
    2.5974   -4.2012    0.0000 Cl  0  0
    1.5587   -3.6005    0.0000 Cl  0  0
    2.5991   -0.5004    0.0000 H   0  0
    2.1651    1.2500    0.0000 H   0  0
    0.0000    2.5000    0.0000 H   0  0
   -2.1651   -1.2500    0.0000 H   0  0
    0.0000   -2.5000    0.0000 H   0  0
   -3.4657    0.9965    0.0000 H   0  0
    5.1970   -2.5016    0.0000 H   0  0
    7.3628   -1.2530    0.0000 H   0  0
    5.2001    2.4984    0.0000 H   0  0
    3.0343    1.2497    0.0000 H   0  0
    7.7959    2.4998    0.0000 H   0  0
  1  2  1  0
  1 17  1  0
  1 18  1  0
  1 19  1  0
  2  3  1  0
  2 10  1  0
  3  4  1  0
  3  8  2  0
  4  5  2  0
  5  6  1  0
  6  7  2  0
  6  9  1  0
  7  8  1  0
 10 11  1  0
 10 15  2  0
 11 12  2  0
 12 13  1  0
 13 14  2  0
 13 16  1  0
 14 15  1  0
  2 20  1  0
  4 21  1  0
  5 22  1  0
  7 23  1  0
  8 24  1  0
  9 25  1  0
 11 26  1  0
 12 27  1  0
 14 28  1  0
 15 29  1  0
 16 30  1  0
M  END
> <DSSTox_RID>
40307

> <DSSTox_CID>
2325

> <DSSTox_Generic_SID>
22325

> <DSSTox_FileID>
1_TOXCST_v3a

> <STRUCTURE_Formula>
C14H11Cl3O2

> <STRUCTURE_MolecularWeight>
317.5949

> <STRUCTURE_ChemicalType>
defined organic

> <STRUCTURE_TestedForm_DefinedOrganic>
parent

> <STRUCTURE_Shown>
tested chemical

> <TestSubstance_ChemicalName>
2,2-Bis(4-hydroxyphenyl)-1,1,1-trichloroethane

> <Source_ChemicalName>
2,2-Bis(4-hydroxyphenyl)-1,1,1-trichloroethane (HPTE)

> <TestSubstance_CASRN>
2971-36-0

> <TestSubstance_Description>
single chemical compound

> <ChemicalNote>
blank

> <STRUCTURE_ChemicalName_IUPAC>
4,4'-(2,2,2-trichloroethane-1,1-diyl)diphenol

> <STRUCTURE_SMILES>
C(C(C1C=CC(=CC=1)O)C2C=CC(=CC=2)O)(Cl)(Cl)Cl

> <STRUCTURE_Parent_SMILES>
C(C(C1C=CC(=CC=1)O)C2C=CC(=CC=2)O)(Cl)(Cl)Cl

> <STRUCTURE_InChI>
InChI=1S/C14H11Cl3O2/c15-14(16,17)13(9-1-5-11(18)6-2-9)10-3-7-12(19)8-4-10/h1-8,13,18-19H

> <STRUCTURE_InChIKey>
IUGDILGOLSSKNE-UHFFFAOYSA-N

> <Substance_modify_yyyymmdd>
20080429

> <DSSTox_CID_Parent>
2325

> <ChemicalReplicateCount>
1

> <Relationship_CID>
metabolite of parent0 827

> <Note_TOXCST>
blank

> <Coord_Metals>
0

> <Index>
1

> <Canonical_Smiles>
Oc1ccc(cc1)C(c2ccc(O)cc2)C(Cl)(Cl)Cl

> <Molecular_Weight>
317.59494

> <Frequency>
1

$$$$

  SciTegic          2D

 19 19  0  0  0  0            999 V2000
    2.3383   -1.3500    0.0000 Cl  0  0
    1.2990   -0.7500    0.0000 C   0  0
    1.2990    0.7500    0.0000 C   0  0
    0.0000    1.5000    0.0000 C   0  0
   -1.2990    0.7500    0.0000 C   0  0
   -1.2990   -0.7500    0.0000 C   0  0
    0.0000   -1.5000    0.0000 C   0  0
   -2.3383   -1.3500    0.0000 Cl  0  0
    2.5972    1.5031    0.0000 O   0  0
    2.5951    3.0039    0.0000 C   0  0
    3.8933    3.7570    0.0000 C   0  0
    4.9336    3.1588    0.0000 O   0  0
    3.8912    5.2578    0.0000 O   0  0
    0.0000    2.5000    0.0000 H   0  0
   -2.1651    1.2500    0.0000 H   0  0
    0.0000   -2.5000    0.0000 H   0  0
    1.7299    2.5026    0.0000 H   0  0
    1.7282    3.5024    0.0000 H   0  0
    4.7561    5.7596    0.0000 H   0  0
  1  2  1  0
  2  3  2  0
  2  7  1  0
  3  4  1  0
  3  9  1  0
  4  5  2  0
  5  6  1  0
  6  7  2  0
  6  8  1  0
  9 10  1  0
 10 11  1  0
 11 12  2  0
 11 13  1  0
  4 14  1  0
  5 15  1  0
  7 16  1  0
 10 17  1  0
 10 18  1  0
 13 19  1  0
M  END
> <DSSTox_RID>
40308

> <DSSTox_CID>
442

> <DSSTox_Generic_SID>
20442

> <DSSTox_FileID>
2_TOXCST_v3a

> <STRUCTURE_Formula>
C8H6Cl2O3

> <STRUCTURE_MolecularWeight>
221.0374

> <STRUCTURE_ChemicalType>
defined organic

> <STRUCTURE_TestedForm_DefinedOrganic>
parent

> <STRUCTURE_Shown>
tested chemical

> <TestSubstance_ChemicalName>
2,4-Dichlorophenoxyacetic acid

> <Source_ChemicalName>
2,4-Dichlorophenoxyacetic acid (2,4-D)

> <TestSubstance_CASRN>
94-75-7

> <TestSubstance_Description>
single chemical compound

> <STRUCTURE_ChemicalName_IUPAC>
(2,4-dichlorophenoxy)acetic acid

> <STRUCTURE_SMILES>
ClC1=C(C=CC(=C1)Cl)OCC(=O)O

> <STRUCTURE_Parent_SMILES>
ClC1=C(C=CC(=C1)Cl)OCC(=O)O

> <STRUCTURE_InChI>
InChI=1S/C8H6Cl2O3/c9-5-1-2-7(6(10)3-5)13-4-8(11)12/h1-3H,4H2,(H,11,12)

> <STRUCTURE_InChIKey>
OVSKIKFHRZPJSS-UHFFFAOYSA-N

> <Substance_modify_yyyymmdd>
20080429

> <DSSTox_CID_Parent>
442

> <ChemicalReplicateCount>
1

> <Coord_Metals>
0

> <Index>
2

> <Canonical_Smiles>
OC(=O)COc1ccc(Cl)cc1Cl

> <Molecular_Weight>
221.03743

> <Frequency>
1

$$$$

  SciTegic          2D

 25 25  0  0  0  0            999 V2000
    1.2990   -0.7500    0.0000 C   0  0
    1.2990    0.7500    0.0000 C   0  0
   -2.6109   -7.4996    0.0000 C   0  0
    0.0000   -1.5000    0.0000 C   0  0
   -3.9117   -8.2482    0.0000 O   0  0
   -1.2990   -0.7500    0.0000 C   0  0
    0.0000    1.5000    0.0000 C   0  0
    2.3383   -1.3500    0.0000 Cl  0  0
   -1.5727   -8.1014    0.0000 O   0  0
   -1.2990    0.7500    0.0000 C   0  0
    0.0000    2.7000    0.0000 Cl  0  0
   -0.0031   -3.0008    0.0000 O   0  0
   -2.6078   -5.9988    0.0000 C   0  0
   -1.3039   -3.7494    0.0000 C   0  0
   -1.3070   -5.2502    0.0000 C   0  0
    2.1651    1.2500    0.0000 H   0  0
   -3.9138   -9.2482    0.0000 H   0  0
   -2.1651   -1.2500    0.0000 H   0  0
   -2.1651    1.2500    0.0000 H   0  0
   -3.4748   -6.4971    0.0000 H   0  0
   -3.4730   -5.4973    0.0000 H   0  0
   -1.3023   -2.7494    0.0000 H   0  0
   -2.1691   -3.2479    0.0000 H   0  0
   -0.4400   -4.7519    0.0000 H   0  0
   -0.4418   -5.7517    0.0000 H   0  0
  1  2  2  0
  1  4  1  0
  1  8  1  0
  2  7  1  0
  3 13  1  0
  3  5  1  0
  3  9  2  0
  4  6  2  0
  4 12  1  0
  6 10  1  0
  7 11  1  0
  7 10  2  0
 12 14  1  0
 13 15  1  0
 14 15  1  0
  2 16  1  0
  5 17  1  0
  6 18  1  0
 10 19  1  0
 13 20  1  0
 13 21  1  0
 14 22  1  0
 14 23  1  0
 15 24  1  0
 15 25  1  0
M  END
> <DSSTox_RID>
40326

> <DSSTox_CID>
4035

> <DSSTox_Generic_SID>
24035

> <DSSTox_FileID>
3_TOXCST_v3a

> <STRUCTURE_Formula>
C10H10Cl2O3

> <STRUCTURE_MolecularWeight>
249.0906

> <STRUCTURE_ChemicalType>
defined organic

> <STRUCTURE_TestedForm_DefinedOrganic>
parent

> <STRUCTURE_Shown>
tested chemical

> <TestSubstance_ChemicalName>
4-(2,4-Dichlorophenoxy)butyric acid

> <Source_ChemicalName>
2,4-DB

> <TestSubstance_CASRN>
94-82-6

> <TestSubstance_Description>
single chemical compound

> <STRUCTURE_ChemicalName_IUPAC>
4-(2,4-dichlorophenoxy)butanoic acid

> <STRUCTURE_SMILES>
OC(CCCOC1=CC=C(Cl)C=C1Cl)=O

> <STRUCTURE_Parent_SMILES>
OC(CCCOC1=CC=C(Cl)C=C1Cl)=O

> <STRUCTURE_InChI>
InChI=1S/C10H10Cl2O3/c11-7-3-4-9(8(12)6-7)15-5-1-2-10(13)14/h3-4,6H,1-2,5H2,(H,13,14)

> <STRUCTURE_InChIKey>
YIVXMZJTEQBPQO-UHFFFAOYSA-N

> <Substance_modify_yyyymmdd>
20080429

> <DSSTox_CID_Parent>
4035

> <ChemicalReplicateCount>
1

> <Coord_Metals>
0

> <Index>
3

> <Canonical_Smiles>
OC(=O)CCCOc1ccc(Cl)cc1Cl

> <Molecular_Weight>
249.09059

> <Frequency>
1

$$$$

  SciTegic          2D

 35 35  0  0  0  0            999 V2000
    3.6375   -0.9049    0.0000 O   0  0
    2.5973   -1.5031    0.0000 C   0  0
    1.2990   -0.7500    0.0000 C   0  0
    1.2990    0.7500    0.0000 C   0  0
    0.0000    1.5000    0.0000 N   0  0
   -1.2990    0.7500    0.0000 C   0  0
   -1.2990   -0.7500    0.0000 C   0  0
    0.0000   -1.5000    0.0000 C   0  0
   -2.5973    1.5031    0.0000 C   0  0
   -3.6375    0.9049    0.0000 O   0  0
   -2.5951    3.0039    0.0000 O   0  0
   -3.8933    3.7570    0.0000 C   0  0
   -3.8912    5.2578    0.0000 C   0  0
   -5.1894    6.0109    0.0000 C   0  0
    2.5951   -3.0039    0.0000 O   0  0
    3.8933   -3.7570    0.0000 C   0  0
    3.8912   -5.2578    0.0000 C   0  0
    5.1894   -6.0109    0.0000 C   0  0
    2.1651    1.2500    0.0000 H   0  0
   -2.1651   -1.2500    0.0000 H   0  0
    0.0000   -2.5000    0.0000 H   0  0
   -3.8952    2.7570    0.0000 H   0  0
   -4.7602    3.2585    0.0000 H   0  0
   -3.0260    4.7564    0.0000 H   0  0
   -3.0243    5.7563    0.0000 H   0  0
   -5.1880    7.0109    0.0000 H   0  0
   -6.0547    6.5123    0.0000 H   0  0
   -6.0563    5.5124    0.0000 H   0  0
    3.8952   -2.7570    0.0000 H   0  0
    4.7602   -3.2585    0.0000 H   0  0
    3.0260   -4.7564    0.0000 H   0  0
    3.0243   -5.7563    0.0000 H   0  0
    5.1880   -7.0109    0.0000 H   0  0
    6.0546   -6.5123    0.0000 H   0  0
    6.0563   -5.5124    0.0000 H   0  0
  1  2  2  0
  2  3  1  0
  2 15  1  0
  3  4  1  0
  3  8  2  0
  4  5  2  0
  5  6  1  0
  6  7  2  0
  6  9  1  0
  7  8  1  0
  9 10  2  0
  9 11  1  0
 11 12  1  0
 12 13  1  0
 13 14  1  0
 15 16  1  0
 16 17  1  0
 17 18  1  0
  4 19  1  0
  7 20  1  0
  8 21  1  0
 12 22  1  0
 12 23  1  0
 13 24  1  0
 13 25  1  0
 14 26  1  0
 14 27  1  0
 14 28  1  0
 16 29  1  0
 16 30  1  0
 17 31  1  0
 17 32  1  0
 18 33  1  0
 18 34  1  0
 18 35  1  0
M  END
> <DSSTox_RID>
40310

> <DSSTox_CID>
12544

> <DSSTox_Generic_SID>
32544

> <DSSTox_FileID>
4_TOXCST_v3a

> <STRUCTURE_Formula>
C13H17NO4

> <STRUCTURE_MolecularWeight>
251.2784

> <STRUCTURE_ChemicalType>
defined organic

> <STRUCTURE_TestedForm_DefinedOrganic>
parent

> <STRUCTURE_Shown>
tested chemical

> <TestSubstance_ChemicalName>
Dipropyl pyridine-2,5-dicarboxylate

> <Source_ChemicalName>
2,5-Pyridinedicarboxylic acid, dipropyl ester

> <TestSubstance_CASRN>
136-45-8

> <TestSubstance_Description>
single chemical compound

> <STRUCTURE_ChemicalName_IUPAC>
dipropyl pyridine-2,5-dicarboxylate

> <STRUCTURE_SMILES>
O=C(OCCC)C1=CC=C(C(OCCC)=O)N=C1

> <STRUCTURE_Parent_SMILES>
O=C(OCCC)C1=CC=C(C(OCCC)=O)N=C1

> <STRUCTURE_InChI>
InChI=1S/C13H17NO4/c1-3-7-17-12(15)10-5-6-11(14-9-10)13(16)18-8-4-2/h5-6,9H,3-4,7-8H2,1-2H3

> <STRUCTURE_InChIKey>
IITCWRFYJWUUPC-UHFFFAOYSA-N

> <Substance_modify_yyyymmdd>
20080429

> <DSSTox_CID_Parent>
12544

> <ChemicalReplicateCount>
1

> <Coord_Metals>
0

> <Index>
4

> <Canonical_Smiles>
CCCOC(=O)c1ccc(nc1)C(=O)OCCC

> <Molecular_Weight>
251.27837

> <Frequency>
1

$$$$

  SciTegic          2D

 23 24  0  0  0  0            999 V2000
    2.5973   -1.5031    0.0000 O   0  0
    1.2990   -0.7500    0.0000 C   0  0
    1.2990    0.7500    0.0000 C   0  0
    0.0000    1.5000    0.0000 C   0  0
   -1.2990    0.7500    0.0000 C   0  0
   -1.2990   -0.7500    0.0000 C   0  0
    0.0000   -1.5000    0.0000 C   0  0
    2.5987    1.5004    0.0000 C   0  0
    3.8991    0.7525    0.0000 C   0  0
    5.1969    1.5046    0.0000 C   0  0
    5.1945    3.0046    0.0000 C   0  0
    3.8943    3.7525    0.0000 C   0  0
    2.5964    3.0004    0.0000 C   0  0
    2.5958   -2.5031    0.0000 H   0  0
    0.0000    2.5000    0.0000 H   0  0
   -2.1651    1.2500    0.0000 H   0  0
   -2.1651   -1.2500    0.0000 H   0  0
    0.0000   -2.5000    0.0000 H   0  0
    3.9007   -0.2475    0.0000 H   0  0
    6.0637    1.0060    0.0000 H   0  0
    6.0597    3.5060    0.0000 H   0  0
    3.8927    4.7525    0.0000 H   0  0
    1.7296    3.4991    0.0000 H   0  0
  1  2  1  0
  2  3  2  0
  2  7  1  0
  3  4  1  0
  3  8  1  0
  4  5  2  0
  5  6  1  0
  6  7  2  0
  8  9  2  0
  8 13  1  0
  9 10  1  0
 10 11  2  0
 11 12  1  0
 12 13  2  0
  1 14  1  0
  4 15  1  0
  5 16  1  0
  6 17  1  0
  7 18  1  0
  9 19  1  0
 10 20  1  0
 11 21  1  0
 12 22  1  0
 13 23  1  0
M  END
> <DSSTox_RID>
40542

> <DSSTox_CID>
1151

> <DSSTox_Generic_SID>
21151

> <DSSTox_FileID>
5_TOXCST_v3a

> <STRUCTURE_Formula>
C12H10O

> <STRUCTURE_MolecularWeight>
170.2072

> <STRUCTURE_ChemicalType>
defined organic

> <STRUCTURE_TestedForm_DefinedOrganic>
parent

> <STRUCTURE_Shown>
tested chemical

> <TestSubstance_ChemicalName>
2-Phenylphenol

> <Source_ChemicalName>
2-Phenylphenol

> <TestSubstance_CASRN>
90-43-7

> <TestSubstance_Description>
single chemical compound

> <STRUCTURE_ChemicalName_IUPAC>
biphenyl-2-ol

> <STRUCTURE_SMILES>
OC1=C(C=CC=C1)C2=CC=CC=C2

> <STRUCTURE_Parent_SMILES>
OC1=C(C=CC=C1)C2=CC=CC=C2

> <STRUCTURE_InChI>
InChI=1S/C12H10O/c13-12-9-5-4-8-11(12)10-6-2-1-3-7-10/h1-9,13H

> <STRUCTURE_InChIKey>
LLEMOWNGBBNAJR-UHFFFAOYSA-N

> <Substance_modify_yyyymmdd>
20080429

> <DSSTox_CID_Parent>
1151

> <ChemicalReplicateCount>
1

> <Coord_Metals>
0

> <Index>
5

> <Canonical_Smiles>
Oc1ccccc1c2ccccc2

> <Molecular_Weight>
170.20719

> <Frequency>
1

$$$$

  SciTegic          2D

 24 23  0  0  0  0            999 V2000
    6.5000    2.2500    0.0000 C   0  0
    6.5000    3.4500    0.0000 O   0  0
    5.2000    1.5000    0.0000 O   0  0
    7.7999    1.5000    0.0000 N   0  0
    9.0999    2.2500    0.0000 C   0  0
   10.3999    1.5000    0.0000 C   0  0
   11.6999    2.2500    0.0000 C   0  0
   12.9999    1.5000    0.0000 C   0  0
    3.9000    2.2500    0.0000 C   0  0
    2.6000    1.5000    0.0000 C   0  0
    1.3000    0.7500    0.0000 C   0  0
    0.2606    0.1503    0.0000 I   0  0
    7.7999    0.5000    0.0000 H   0  0
    9.0999    3.2500    0.0000 H   0  0
    8.2340    2.7501    0.0000 H   0  0
   10.3999    0.5000    0.0000 H   0  0
    9.5340    0.9999    0.0000 H   0  0
   11.6999    3.2500    0.0000 H   0  0
   10.8340    2.7501    0.0000 H   0  0
   13.8661    1.9997    0.0000 H   0  0
   12.9999    0.5000    0.0000 H   0  0
   13.8658    0.9999    0.0000 H   0  0
    3.9000    3.2500    0.0000 H   0  0
    3.0340    2.7501    0.0000 H   0  0
  1  2  2  0
  1  3  1  0
  1  4  1  0
  3  9  1  0
  4  5  1  0
  5  6  1  0
  6  7  1  0
  7  8  1  0
  9 10  1  0
 10 11  3  0
 11 12  1  0
  4 13  1  0
  5 14  1  0
  5 15  1  0
  6 16  1  0
  6 17  1  0
  7 18  1  0
  7 19  1  0
  8 20  1  0
  8 21  1  0
  8 22  1  0
  9 23  1  0
  9 24  1  0
M  END
> <DSSTox_RID>
40375
40760

> <DSSTox_CID>
8038
8038

> <DSSTox_Generic_SID>
28038
28038

> <DSSTox_FileID>
6_TOXCST_v3a
7_TOXCST_v3a

> <STRUCTURE_Formula>
C8H12INO2
C8H12INO2

> <STRUCTURE_MolecularWeight>
281.0909
281.0909

> <STRUCTURE_ChemicalType>
defined organic
defined organic

> <STRUCTURE_TestedForm_DefinedOrganic>
parent
parent

> <STRUCTURE_Shown>
tested chemical
tested chemical

> <TestSubstance_ChemicalName>
3-Iodo-2-propynyl butylcarbamate
3-Iodo-2-propynyl butylcarbamate

> <Source_ChemicalName>
3-Iodo-2-propynylbutylcarbamate
3-Iodo-2-propynylbutylcarbamate

> <TestSubstance_CASRN>
55406-53-6
55406-53-6

> <TestSubstance_Description>
single chemical compound
single chemical compound

> <STRUCTURE_ChemicalName_IUPAC>
3-iodoprop-2-yn-1-yl butylcarbamate
3-iodoprop-2-yn-1-yl butylcarbamate

> <STRUCTURE_SMILES>
O=C(NCCCC)OCC#CI
O=C(NCCCC)OCC#CI

> <STRUCTURE_Parent_SMILES>
O=C(NCCCC)OCC#CI
O=C(NCCCC)OCC#CI

> <STRUCTURE_InChI>
InChI=1S/C8H12INO2/c1-2-3-6-10-8(11)12-7-4-5-9/h2-3,6-7H2,1H3,(H,10,11)
InChI=1S/C8H12INO2/c1-2-3-6-10-8(11)12-7-4-5-9/h2-3,6-7H2,1H3,(H,10,11)

> <STRUCTURE_InChIKey>
WYVVKGNFXHOCQV-UHFFFAOYSA-N
WYVVKGNFXHOCQV-UHFFFAOYSA-N

> <Substance_modify_yyyymmdd>
20080429
20080429

> <DSSTox_CID_Parent>
8038
8038

> <ChemicalReplicateCount>
1 of 2
2 of 2

> <Relationship_CID>
duplicate of 8038
duplicate of 8038

> <Coord_Metals>
0
0

> <Index>
6
7

> <Canonical_Smiles>
CCCCNC(=O)OCC#CI

> <Molecular_Weight>
281.09085
281.09085

> <Frequency>
2

$$$$

  SciTegic          2D

 19 19  0  0  0  0            999 V2000
   -5.2003    1.4932    0.0000 C   0  0
   -3.8990    0.7455    0.0000 C   0  0
    0.0000   -2.7000    0.0000 Cl  0  0
    2.5972    1.5031    0.0000 N   0  0
   -2.6003    1.4977    0.0000 N   0  0
    1.2990   -0.7500    0.0000 N   0  0
    1.2990    0.7500    0.0000 C   0  0
    0.0000   -1.5000    0.0000 C   0  0
    0.0000    1.5000    0.0000 N   0  0
   -1.2990   -0.7500    0.0000 N   0  0
   -1.2990    0.7500    0.0000 C   0  0
   -6.0656    0.9920    0.0000 H   0  0
   -5.2021    2.4932    0.0000 H   0  0
   -6.0671    1.9918    0.0000 H   0  0
   -3.8973   -0.2545    0.0000 H   0  0
   -3.0322    0.2468    0.0000 H   0  0
    2.5958    2.5031    0.0000 H   0  0
    3.4641    1.0046    0.0000 H   0  0
   -2.6021    2.4977    0.0000 H   0  0
  1  2  1  0
  2  5  1  0
  3  8  1  0
  4  7  1  0
  5 11  1  0
  6  7  2  0
  6  8  1  0
  7  9  1  0
  8 10  2  0
  9 11  2  0
 10 11  1  0
  1 12  1  0
  1 13  1  0
  1 14  1  0
  2 15  1  0
  2 16  1  0
  4 17  1  0
  4 18  1  0
  5 19  1  0
M  END
> <DSSTox_RID>
40314

> <DSSTox_CID>
17495

> <DSSTox_Generic_SID>
37495

> <DSSTox_FileID>
8_TOXCST_v3a

> <STRUCTURE_Formula>
C5H8ClN5

> <STRUCTURE_MolecularWeight>
173.6035

> <STRUCTURE_ChemicalType>
defined organic

> <STRUCTURE_TestedForm_DefinedOrganic>
parent

> <STRUCTURE_Shown>
tested chemical

> <TestSubstance_ChemicalName>
Deisopropylatrazine

> <Source_ChemicalName>
6-Deisopropylatrazine

> <TestSubstance_CASRN>
1007-28-9

> <TestSubstance_Description>
single chemical compound

> <STRUCTURE_ChemicalName_IUPAC>
6-chloro-N-ethyl-1,3,5-triazine-2,4-diamine

> <STRUCTURE_SMILES>
ClC1=NC(NCC)=NC(N)=N1

> <STRUCTURE_Parent_SMILES>
ClC1=NC(NCC)=NC(N)=N1

> <STRUCTURE_InChI>
InChI=1S/C5H8ClN5/c1-2-8-5-10-3(6)9-4(7)11-5/h2H2,1H3,(H3,7,8,9,10,11)

> <STRUCTURE_InChIKey>
IVENSCMCQBJAKW-UHFFFAOYSA-N

> <Substance_modify_yyyymmdd>
20080429

> <DSSTox_CID_Parent>
17495

> <ChemicalReplicateCount>
1

> <Relationship_CID>
metabolite of parent0 112

> <Coord_Metals>
0

> <Index>
8

> <Canonical_Smiles>
CCNc1nc(N)nc(Cl)n1

> <Molecular_Weight>
173.60351

> <Frequency>
1

$$$$

  SciTegic          2D

134140  0  0  0  0            999 V2000
    4.8486   12.4416    0.0000 C   0  0
    6.1477   13.3755    0.0000 C   0  0
    3.4810   12.9734    0.0000 C   0  0
    4.9169   10.9759    0.0000 C   0  0
    3.6299   11.5656    0.0000 O   0  0
    7.5836   11.3781    0.0000 O   0  0
    6.1686   14.9054    0.0000 C   0  0
    2.0926   11.9752    0.0000 C   0  0
    3.4068   14.4472    0.0000 C   0  0
    6.2845   10.4442    0.0000 C   0  0
    3.5285    9.9778    0.0000 C   0  0
    4.7060   15.3811    0.0000 C   0  0
    6.0005   16.3838    0.0000 O   0  0
    0.7192   12.5151    0.0000 O   0  0
    2.2414   10.7845    0.0000 O   0  0
    3.5968    8.5121    0.0000 C   0  0
    4.4929   16.8675    0.0000 C   0  0
   -0.6449   11.5345    0.0000 C   0  0
    2.2327    7.5315    0.0000 C   0  0
   -1.9312   12.1246    0.0000 C   0  0
   -0.4895   10.1191    0.0000 C   0  0
    2.3823    6.1242    0.0000 C   0  0
   -3.3197   11.1265    0.0000 C   0  0
   -1.8780    9.1209    0.0000 C   0  0
    0.9938    5.1260    0.0000 C   0  0
    3.5604    7.0211    0.0000 C   0  0
   -3.2513    9.6608    0.0000 O   0  0
   -4.6107   10.1984    0.0000 O   0  0
   -3.3881   12.5922    0.0000 C   0  0
   -1.8096    7.6553    0.0000 C   0  0
   -0.2071    4.2635    0.0000 O   0  0
   -0.3737    5.6578    0.0000 C   0  0
   -5.9783   10.7302    0.0000 C   0  0
   -4.7498   13.1158    0.0000 C   0  0
   -0.4421    7.1235    0.0000 C   0  0
   -1.5912    4.8437    0.0000 C   0  0
   -1.5915    4.7823    0.0000 C   0  0
   -6.0408   12.1877    0.0000 C   0  0
   -5.8053    9.2563    0.0000 C   0  0
   -2.9415    5.4486    0.0000 C   0  0
   -1.3683    3.3810    0.0000 O   0  0
   -6.1061   13.6648    0.0000 C   0  0
   -7.0258    8.3829    0.0000 C   0  0
   -4.4389    8.6356    0.0000 C   0  0
   -4.1352    4.5404    0.0000 C   0  0
   -2.5621    2.4727    0.0000 C   0  0
   -8.3929    9.0023    0.0000 C   0  0
   -3.9455    3.0524    0.0000 C   0  0
   -5.5377    4.0663    0.0000 O   0  0
   -1.1830    1.9344    0.0000 C   0  0
   -4.2362    1.6008    0.0000 O   0  0
   -6.6893    5.0288    0.0000 C   0  0
   -5.6455    1.0847    0.0000 C   0  0
   -7.0468    0.6098    0.0000 C   0  0
   -4.4873    0.1641    0.0000 O   0  0
   -7.3042   -0.8679    0.0000 C   0  0
   -4.7446   -1.3137    0.0000 C   0  0
   -6.1531   -1.8297    0.0000 C   0  0
   -8.0099   -2.1694    0.0000 O   0  0
   -3.3675   -0.7704    0.0000 C   0  0
   -4.9940   -2.7506    0.0000 O   0  0
   -9.5087   -2.2471    0.0000 C   0  0
    7.1016   13.6756    0.0000 H   0  0
    2.5800   13.4071    0.0000 H   0  0
    3.7288   10.5705    0.0000 H   0  0
    7.0729   14.4784    0.0000 H   0  0
    2.5058   14.8809    0.0000 H   0  0
    5.4729    9.8599    0.0000 H   0  0
    7.2162   10.0810    0.0000 H   0  0
    2.6282   10.4132    0.0000 H   0  0
    5.0900   16.7973    0.0000 H   0  0
    4.4971    8.0767    0.0000 H   0  0
    5.2790   17.4856    0.0000 H   0  0
    3.5647   17.2396    0.0000 H   0  0
    4.3509   17.8574    0.0000 H   0  0
   -0.7413   12.5298    0.0000 H   0  0
    1.3200    7.9400    0.0000 H   0  0
   -2.8509   12.5174    0.0000 H   0  0
   -1.8579   11.1273    0.0000 H   0  0
   -0.4083    9.1224    0.0000 H   0  0
    0.3059   10.7252    0.0000 H   0  0
    2.4608    5.1273    0.0000 H   0  0
   -2.6910    8.5387    0.0000 H   0  0
    1.9260    4.7639    0.0000 H   0  0
    3.4582    8.0159    0.0000 H   0  0
    3.6627    6.0264    0.0000 H   0  0
    4.4731    6.6125    0.0000 H   0  0
   -2.5772   13.1774    0.0000 H   0  0
   -0.9866    8.2233    0.0000 H   0  0
   -1.6912    6.6623    0.0000 H   0  0
   -6.8810   11.1603    0.0000 H   0  0
   -4.8775   14.1076    0.0000 H   0  0
    0.3699    7.7072    0.0000 H   0  0
   -1.7178    5.8356    0.0000 H   0  0
   -1.4926    3.7873    0.0000 H   0  0
   -2.5029    5.1940    0.0000 H   0  0
   -2.4038    4.1990    0.0000 H   0  0
   -5.1299   11.7751    0.0000 H   0  0
   -5.7081    8.2610    0.0000 H   0  0
   -2.1251    6.0261    0.0000 H   0  0
   -3.8677    5.8256    0.0000 H   0  0
   -5.2782   14.2255    0.0000 H   0  0
   -6.1776   14.6622    0.0000 H   0  0
   -7.0056   14.1017    0.0000 H   0  0
   -7.1233    9.3781    0.0000 H   0  0
   -6.9281    7.3877    0.0000 H   0  0
   -4.3413    7.6403    0.0000 H   0  0
   -3.5283    8.2224    0.0000 H   0  0
   -3.6257    9.2175    0.0000 H   0  0
   -3.2227    4.1314    0.0000 H   0  0
   -3.3725    1.8869    0.0000 H   0  0
   -9.2061    8.4204    0.0000 H   0  0
   -9.3035    9.4155    0.0000 H   0  0
   -8.4905    9.9975    0.0000 H   0  0
   -4.8581    3.4614    0.0000 H   0  0
   -0.3869    2.5395    0.0000 H   0  0
   -0.2608    1.5477    0.0000 H   0  0
   -1.0566    0.9424    0.0000 H   0  0
   -7.6285    4.6855    0.0000 H   0  0
   -7.4563    5.6704    0.0000 H   0  0
   -6.5172    6.0139    0.0000 H   0  0
   -6.4130    1.7258    0.0000 H   0  0
   -6.3022   -0.0576    0.0000 H   0  0
   -7.9822    0.2562    0.0000 H   0  0
   -8.0557   -0.2082    0.0000 H   0  0
   -5.4961   -0.6539    0.0000 H   0  0
   -7.1002   -2.1506    0.0000 H   0  0
   -3.1955    0.2147    0.0000 H   0  0
   -2.4284   -0.4266    0.0000 H   0  0
   -2.6002   -1.4116    0.0000 H   0  0
   -4.0549   -2.4070    0.0000 H   0  0
   -9.9637   -3.1375    0.0000 H   0  0
  -10.5074   -2.2984    0.0000 H   0  0
  -10.0526   -1.4079    0.0000 H   0  0
  1  2  1  0
  1  3  1  0
  1  4  1  0
  1  5  1  0
  2  6  1  0
  2  7  1  0
  3  8  1  0
  3  9  1  0
  4 10  1  0
  4 11  2  0
  6 10  1  0
  7 12  1  0
  7 13  1  0
  8 14  1  0
  8 15  2  0
  9 12  2  0
 11 16  1  0
 12 17  1  0
 18 14  1  0
 16 19  2  0
 18 20  1  0
 18 21  1  0
 19 22  1  0
 20 23  1  0
 21 24  1  0
 22 25  1  0
 22 26  1  0
 23 27  1  0
 23 28  1  0
 23 29  1  0
 24 30  1  0
 24 27  1  0
 25 31  1  0
 25 32  1  0
 28 33  1  0
 29 34  2  0
 35 30  1  0
 36 31  1  0
 32 37  1  0
 32 35  2  0
 33 38  1  0
 33 39  1  0
 34 38  1  0
 36 40  1  0
 36 41  1  0
 38 42  1  0
 39 43  1  0
 39 44  1  0
 40 45  1  0
 41 46  1  0
 43 47  1  0
 45 48  1  0
 45 49  1  0
 46 50  1  0
 46 48  1  0
 48 51  1  0
 49 52  1  0
 53 51  1  0
 53 54  1  0
 53 55  1  0
 54 56  1  0
 55 57  1  0
 56 58  1  0
 56 59  1  0
 57 60  1  0
 57 58  1  0
 58 61  1  0
 59 62  1  0
  2 63  1  0
  3 64  1  0
  5 65  1  0
  7 66  1  0
  9 67  1  0
 10 68  1  0
 10 69  1  0
 11 70  1  0
 13 71  1  0
 16 72  1  0
 17 73  1  0
 17 74  1  0
 17 75  1  0
 18 76  1  0
 19 77  1  0
 20 78  1  0
 20 79  1  0
 21 80  1  0
 21 81  1  0
 22 82  1  0
 24 83  1  0
 25 84  1  0
 26 85  1  0
 26 86  1  0
 26 87  1  0
 29 88  1  0
 30 89  1  0
 30 90  1  0
 33 91  1  0
 34 92  1  0
 35 93  1  0
 36 94  1  0
 37 95  1  0
 37 96  1  0
 37 97  1  0
 38 98  1  0
 39 99  1  0
 40100  1  0
 40101  1  0
 42102  1  0
 42103  1  0
 42104  1  0
 43105  1  0
 43106  1  0
 44107  1  0
 44108  1  0
 44109  1  0
 45110  1  0
 46111  1  0
 47112  1  0
 47113  1  0
 47114  1  0
 48115  1  0
 50116  1  0
 50117  1  0
 50118  1  0
 52119  1  0
 52120  1  0
 52121  1  0
 53122  1  0
 54123  1  0
 54124  1  0
 56125  1  0
 57126  1  0
 58127  1  0
 60128  1  0
 60129  1  0
 60130  1  0
 61131  1  0
 62132  1  0
 62133  1  0
 62134  1  0
M  END
> <DSSTox_RID>
40331

> <DSSTox_CID>
3892

> <DSSTox_Generic_SID>
23892

> <DSSTox_FileID>
9_TOXCST_v3a

> <STRUCTURE_Formula>
C48H72O14

> <STRUCTURE_MolecularWeight>
873.0769

> <STRUCTURE_ChemicalType>
defined organic

> <STRUCTURE_TestedForm_DefinedOrganic>
parent

> <STRUCTURE_Shown>
representative component in mixture

> <TestSubstance_ChemicalName>
Abamectin

> <Source_ChemicalName>
Abamectin

> <TestSubstance_CASRN>
71751-41-2

> <TestSubstance_Description>
mixture or formulation

> <ChemicalNote>
mixture of B1a [65195-55-3] ethyl form and B1b [65195-56-4] methyl form (4:1); structure shown B1a; stereochem

> <STRUCTURE_ChemicalName_IUPAC>
(2aE,4E,8E)-(5'S,6S,6'R,7S,11R,13S,15S,17aR,20R,20aR,20bS)-6'-((S)-sec-Butyl)-5',6,6',7,10,11,14,15,17a,20,20a,20b-dodecahydro-20,20b-dihydroxy-5',6,8,19-tetramethyl-17-oxospiro(11,15-methano-2H,13H,1
7H-furo(4,3,2-pq)(2,6)benzodioxacyclooctadecin-13,2'-(2H)pyran)-7-yl 2,6-dideoxy-4-O-(2,6-dideoxy-3-O-methyl-alpha-L-arabino-hexopyranosyl)-3-O-methyl-alpha-L-arabino-hexopyranoside

> <STRUCTURE_SMILES>
CO[C@H]1C[C@@H](O[C@@H](C)[C@@H]1O)O[C@@H]2[C@@H](OC)C[C@@H](O[C@H]2C)O[C@@H]3C(\C)=C\C[C@@H]7C[C@H](OC(=O)[C@@H]4/C=C(/C)[C@@H](O)[C@H]5OC/C(=C\C=C\[C@@H]3C)[C@@]45O)C[C@]6(/C=C\[C@H](C)[C@H](O6)[C@@
H](C)CC)O7

> <STRUCTURE_Parent_SMILES>
CO[C@H]1C[C@@H](O[C@@H](C)[C@@H]1O)O[C@@H]2[C@@H](OC)C[C@@H](O[C@H]2C)O[C@@H]3C(\C)=C\C[C@@H]7C[C@H](OC(=O)[C@@H]4/C=C(/C)[C@@H](O)[C@H]5OC/C(=C\C=C\[C@@H]3C)[C@@]45O)C[C@]6(/C=C\[C@H](C)[C@H](O6)[C@@
H](C)CC)O7

> <STRUCTURE_InChI>
InChI=1S/C48H72O14/c1-11-25(2)43-28(5)17-18-47(62-43)23-34-20-33(61-47)16-15-27(4)42(26(3)13-12-14-32-24-55-45-40(49)29(6)19-35(46(51)58-34)48(32,45)52)59-39-22-37(54-10)44(31(8)57-39)60-38-21-36(53-9
)41(50)30(7)56-38/h12-15,17-19,25-26,28,30-31,33-45,49-50,52H,11,16,20-24H2,1-10H3/b13-12+,27-15+,32-14+/t25-,26-,28-,30-,31-,33+,34-,35-,36-,37-,38-,39-,40+,41-,42-,43+,44-,45+,47+,48+/m0/s1

> <STRUCTURE_InChIKey>
RRZXIRBKKLTSOM-XPNPUAGNSA-N

> <Substance_modify_yyyymmdd>
20080429

> <DSSTox_CID_Parent>
3892

> <ChemicalReplicateCount>
1

> <Coord_Metals>
0

> <Index>
9

> <Canonical_Smiles>
CCC(C)C1OC2(CC3CC(CC=C(C)C(OC4CC(OC)C(OC5CC(OC)C(O)C(C)O5)C(C)O4)C(C)C=CC=C6COC7C(O)C(=CC(C(=O)O3)C67O)C)O2)C=CC1C

> <Molecular_Weight>
873.07687

> <Frequency>
1

$$$$

  SciTegic          2D

 20 19  0  0  0  0            999 V2000
    5.2000    0.0000    0.0000 P   0  0
    3.9000    0.7500    0.0000 N   0  0
    2.6000    0.0000    0.0000 C   0  0
    5.2000   -1.2000    0.0000 O   0  0
    6.5000    0.7500    0.0000 S   0  0
    2.6000   -1.2000    0.0000 O   0  0
    3.8760   -0.7669    0.0000 O   0  0
    1.3000    0.7500    0.0000 C   0  0
    7.7999    0.0000    0.0000 C   0  0
    3.8773   -2.2677    0.0000 C   0  0
    3.9000    1.7500    0.0000 H   0  0
    0.4338    0.2503    0.0000 H   0  0
    1.3000    1.7500    0.0000 H   0  0
    0.4340    1.2501    0.0000 H   0  0
    8.6661    0.4997    0.0000 H   0  0
    7.7999   -1.0000    0.0000 H   0  0
    8.6659   -0.5001    0.0000 H   0  0
    3.0120   -2.7689    0.0000 H   0  0
    4.7439   -2.7667    0.0000 H   0  0
    3.8786   -3.2677    0.0000 H   0  0
  1  2  1  0
  1  4  2  0
  1  5  1  0
  1  7  1  0
  2  3  1  0
  3  6  2  0
  3  8  1  0
  5  9  1  0
  7 10  1  0
  2 11  1  0
  8 12  1  0
  8 13  1  0
  8 14  1  0
  9 15  1  0
  9 16  1  0
  9 17  1  0
 10 18  1  0
 10 19  1  0
 10 20  1  0
M  END
> <DSSTox_RID>
40332

> <DSSTox_CID>
3846

> <DSSTox_Generic_SID>
23846

> <DSSTox_FileID>
10_TOXCST_v3a

> <STRUCTURE_Formula>
C4H10NO3PS

> <STRUCTURE_MolecularWeight>
183.1659

> <STRUCTURE_ChemicalType>
defined organic

> <STRUCTURE_TestedForm_DefinedOrganic>
parent

> <STRUCTURE_Shown>
tested chemical

> <TestSubstance_ChemicalName>
Acephate

> <Source_ChemicalName>
Acephate

> <TestSubstance_CASRN>
30560-19-1

> <TestSubstance_Description>
single chemical compound

> <STRUCTURE_ChemicalName_IUPAC>
O,S-dimethyl acetylamidothiophosphate

> <STRUCTURE_SMILES>
O=C(C)NP(=O)(OC)SC

> <STRUCTURE_Parent_SMILES>
O=C(C)NP(=O)(OC)SC

> <STRUCTURE_InChI>
InChI=1S/C4H10NO3PS/c1-4(6)5-9(7,8-2)10-3/h1-3H3,(H,5,6,7)

> <STRUCTURE_InChIKey>
YASYVMFAVPKPKE-UHFFFAOYSA-N

> <Substance_modify_yyyymmdd>
20080429

> <DSSTox_CID_Parent>
3846

> <ChemicalReplicateCount>
1

> <Coord_Metals>
0

> <Index>
10

> <Canonical_Smiles>
COP(=O)(NC(=O)C)SC

> <Molecular_Weight>
183.16586

> <Frequency>
1

$$$$

  SciTegic          2D

 26 26  0  0  0  0            999 V2000
    1.2992    5.2529    0.0000 C   0  0
    0.0008    6.0056    0.0000 C   0  0
    1.2993    3.7521    0.0000 N   0  0
    2.5985    6.0041    0.0000 N   0  0
    0.0000    3.0008    0.0000 C   0  0
    1.2990   -0.7500    0.0000 N   0  0
    1.2990    0.7500    0.0000 C   0  0
    0.0000   -1.5000    0.0000 C   0  0
   -1.2990   -0.7500    0.0000 C   0  0
    0.0000    1.5000    0.0000 C   0  0
   -1.2990    0.7500    0.0000 C   0  0
    0.0000   -2.7000    0.0000 Cl  0  0
    2.5985    7.5050    0.0000 C   0  0
    2.5985    8.7050    0.0000 N   0  0
    2.6008    3.0047    0.0000 C   0  0
    0.0019    7.0056    0.0000 H   0  0
   -0.8659    5.5068    0.0000 H   0  0
   -0.8646    6.5067    0.0000 H   0  0
   -0.8662    3.5005    0.0000 H   0  0
   -0.0005    4.0008    0.0000 H   0  0
    2.1651    1.2500    0.0000 H   0  0
   -2.1651   -1.2500    0.0000 H   0  0
   -2.1651    1.2500    0.0000 H   0  0
    3.4659    3.5063    0.0000 H   0  0
    3.4678    2.5064    0.0000 H   0  0
    2.6029    2.0047    0.0000 H   0  0
  1  2  1  0
  1  3  1  0
  1  4  2  0
  3  5  1  0
  3 15  1  0
  4 13  1  0
  5 10  1  0
  6  7  1  0
  6  8  2  0
  7 10  2  0
  8  9  1  0
  8 12  1  0
  9 11  2  0
 10 11  1  0
 13 14  3  0
  2 16  1  0
  2 17  1  0
  2 18  1  0
  5 19  1  0
  5 20  1  0
  7 21  1  0
  9 22  1  0
 11 23  1  0
 15 24  1  0
 15 25  1  0
 15 26  1  0
M  END
> <DSSTox_RID>
40333

> <DSSTox_CID>
14300

> <DSSTox_Generic_SID>
34300

> <DSSTox_FileID>
11_TOXCST_v3a

> <STRUCTURE_Formula>
C10H11ClN4

> <STRUCTURE_MolecularWeight>
222.6741

> <STRUCTURE_ChemicalType>
defined organic

> <STRUCTURE_TestedForm_DefinedOrganic>
parent

> <STRUCTURE_Shown>
tested chemical

> <TestSubstance_ChemicalName>
Acetamiprid

> <Source_ChemicalName>
Acetamiprid

> <TestSubstance_CASRN>
135410-20-7

> <TestSubstance_Description>
single chemical compound

> <ChemicalNote>
tautomers

> <STRUCTURE_ChemicalName_IUPAC>
(1E)-N-[(6-chloropyridin-3-yl)methyl]-N'-cyano-N-methylethanimidamide

> <STRUCTURE_SMILES>
ClC(C=C1)=NC=C1CN(C)/C(C)=N/C#N

> <STRUCTURE_Parent_SMILES>
ClC(C=C1)=NC=C1CN(C)/C(C)=N/C#N

> <STRUCTURE_InChI>
InChI=1S/C10H11ClN4/c1-8(14-7-12)15(2)6-9-3-4-10(11)13-5-9/h3-5H,6H2,1-2H3/b14-8+

> <STRUCTURE_InChIKey>
WCXDHFDTOYPNIE-RIYZIHGNSA-N

> <Substance_modify_yyyymmdd>
20080429

> <DSSTox_CID_Parent>
14300

> <ChemicalReplicateCount>
1

> <Coord_Metals>
0

> <Index>
11

> <Canonical_Smiles>
CN(Cc1ccc(Cl)nc1)C(=NC#N)C

> <Molecular_Weight>
222.67413

> <Frequency>
1

$$$$

  SciTegic          2D

 38 38  0  0  0  0            999 V2000
    3.8968   -0.7523    0.0000 C   0  0
    3.8960    0.4477    0.0000 O   0  0
    5.1972   -1.5014    0.0000 C   0  0
    2.5973   -1.5031    0.0000 N   0  0
    6.2363   -0.9011    0.0000 Cl  0  0
    2.5951   -3.0039    0.0000 C   0  0
    3.8933   -3.7570    0.0000 O   0  0
    3.8912   -5.2578    0.0000 C   0  0
    5.1894   -6.0109    0.0000 C   0  0
    1.2990   -0.7500    0.0000 C   0  0
    1.2990    0.7500    0.0000 C   0  0
    0.0000   -1.5000    0.0000 C   0  0
    0.0000    1.5000    0.0000 C   0  0
   -1.2990   -0.7500    0.0000 C   0  0
   -1.2990    0.7500    0.0000 C   0  0
    2.5988    1.5004    0.0000 C   0  0
    2.5997    3.0013    0.0000 C   0  0
    0.0000   -3.0008    0.0000 C   0  0
    5.1979   -2.5014    0.0000 H   0  0
    6.0635   -2.0010    0.0000 H   0  0
    1.7282   -3.5024    0.0000 H   0  0
    2.5932   -4.0039    0.0000 H   0  0
    3.0243   -5.7563    0.0000 H   0  0
    3.0260   -4.7564    0.0000 H   0  0
    5.1880   -7.0109    0.0000 H   0  0
    6.0563   -5.5124    0.0000 H   0  0
    6.0546   -6.5123    0.0000 H   0  0
    0.0000    2.5000    0.0000 H   0  0
   -2.1651   -1.2500    0.0000 H   0  0
   -2.1651    1.2500    0.0000 H   0  0
    3.4647    1.0002    0.0000 H   0  0
    2.5986    0.5004    0.0000 H   0  0
    3.4657    3.5013    0.0000 H   0  0
    1.7339    3.5015    0.0000 H   0  0
    2.5999    4.0013    0.0000 H   0  0
    0.8657   -3.5014    0.0000 H   0  0
   -0.8662   -3.5006    0.0000 H   0  0
   -0.0005   -4.0008    0.0000 H   0  0
  1  2  2  0
  1  4  1  0
  1  3  1  0
  3  5  1  0
  4  6  1  0
  4 10  1  0
  6  7  1  0
  7  8  1  0
  8  9  1  0
 10 11  2  0
 10 12  1  0
 11 13  1  0
 11 16  1  0
 12 14  2  0
 12 18  1  0
 13 15  2  0
 14 15  1  0
 16 17  1  0
  3 19  1  0
  3 20  1  0
  6 21  1  0
  6 22  1  0
  8 23  1  0
  8 24  1  0
  9 25  1  0
  9 26  1  0
  9 27  1  0
 13 28  1  0
 14 29  1  0
 15 30  1  0
 16 31  1  0
 16 32  1  0
 17 33  1  0
 17 34  1  0
 17 35  1  0
 18 36  1  0
 18 37  1  0
 18 38  1  0
M  END
> <DSSTox_RID>
40337

> <DSSTox_CID>
3848

> <DSSTox_Generic_SID>
23848

> <DSSTox_FileID>
12_TOXCST_v3a

> <STRUCTURE_Formula>
C14H20ClNO2

> <STRUCTURE_MolecularWeight>
269.7671

> <STRUCTURE_ChemicalType>
defined organic

> <STRUCTURE_TestedForm_DefinedOrganic>
parent

> <STRUCTURE_Shown>
tested chemical

> <TestSubstance_ChemicalName>
Acetochlor

> <Source_ChemicalName>
Acetochlor

> <TestSubstance_CASRN>
34256-82-1

> <TestSubstance_Description>
single chemical compound

> <STRUCTURE_ChemicalName_IUPAC>
2-chloro-N-(ethoxymethyl)-N-(2-ethyl-6-methylphenyl)acetamide

> <STRUCTURE_SMILES>
ClCC(=O)N(COCC)c1c(C)cccc1CC

> <STRUCTURE_Parent_SMILES>
ClCC(=O)N(COCC)c1c(C)cccc1CC

> <STRUCTURE_InChI>
InChI=1S/C14H20ClNO2/c1-4-12-8-6-7-11(3)14(12)16(10-18-5-2)13(17)9-15/h6-8H,4-5,9-10H2,1-3H3

> <STRUCTURE_InChIKey>
VTNQPKFIQCLBDU-UHFFFAOYSA-N

> <Substance_modify_yyyymmdd>
20080429

> <DSSTox_CID_Parent>
3848

> <ChemicalReplicateCount>
1

> <Coord_Metals>
0

> <Index>
12

> <Canonical_Smiles>
CCOCN(C(=O)CCl)c1c(C)cccc1CC

> <Molecular_Weight>
269.7671

> <Frequency>
1

$$$$

  SciTegic          2D

 19 20  0  0  0  0            999 V2000
    0.0446   -3.6095    0.0000 O   0  0
   -0.9971   -3.0138    0.0000 C   0  0
   -1.0028   -1.5132    0.0000 C   0  0
    0.2917   -0.7475    0.0000 C   0  0
    0.2917    0.7475    0.0000 C   0  0
   -1.0028    1.5132    0.0000 C   0  0
   -2.3155    0.7475    0.0000 C   0  0
   -2.3155   -0.7475    0.0000 C   0  0
    1.7138    1.2033    0.0000 N   0  0
    2.5889    0.0182    0.0000 N   0  0
    1.7138   -1.2033    0.0000 S   0  0
   -2.2935   -3.7700    0.0000 S   0  0
   -2.2878   -5.2708    0.0000 C   0  0
   -0.9997    2.5132    0.0000 H   0  0
   -3.1826    1.2456    0.0000 H   0  0
   -3.1826   -1.2456    0.0000 H   0  0
   -3.1516   -5.7746    0.0000 H   0  0
   -2.2835   -6.2708    0.0000 H   0  0
   -1.4197   -5.7672    0.0000 H   0  0
  1  2  2  0
  2  3  1  0
  2 12  1  0
  3  4  1  0
  3  8  2  0
  4  5  2  0
  4 11  1  0
  5  6  1  0
  5  9  1  0
  6  7  2  0
  7  8  1  0
  9 10  2  0
 10 11  1  0
 12 13  1  0
  6 14  1  0
  7 15  1  0
  8 16  1  0
 13 17  1  0
 13 18  1  0
 13 19  1  0
M  END
> <DSSTox_RID>
40294

> <DSSTox_CID>
12519

> <DSSTox_Generic_SID>
32519

> <DSSTox_FileID>
13_TOXCST_v3a

> <STRUCTURE_Formula>
C8H6N2OS2

> <STRUCTURE_MolecularWeight>
210.276

> <STRUCTURE_ChemicalType>
defined organic

> <STRUCTURE_TestedForm_DefinedOrganic>
parent

> <STRUCTURE_Shown>
tested chemical

> <TestSubstance_ChemicalName>
Acibenzolar-S-methyl

> <Source_ChemicalName>
Acibenzolar-S-Methyl

> <TestSubstance_CASRN>
135158-54-2

> <TestSubstance_Description>
single chemical compound

> <STRUCTURE_ChemicalName_IUPAC>
S-methyl 1,2,3-benzothiadiazole-7-carbothioate

> <STRUCTURE_SMILES>
O=C(SC)C1=CC=CC2=C1SN=N2

> <STRUCTURE_Parent_SMILES>
O=C(SC)C1=CC=CC2=C1SN=N2

> <STRUCTURE_InChI>
InChI=1S/C8H6N2OS2/c1-12-8(11)5-3-2-4-6-7(5)13-10-9-6/h2-4H,1H3

> <STRUCTURE_InChIKey>
UELITFHSCLAHKR-UHFFFAOYSA-N

> <Substance_modify_yyyymmdd>
20080429

> <DSSTox_CID_Parent>
12519

> <ChemicalReplicateCount>
1

> <Coord_Metals>
0

> <Index>
13

> <Canonical_Smiles>
CSC(=O)c1cccc2nnsc12

> <Molecular_Weight>
210.27603

> <Frequency>
1

$$$$

  SciTegic          2D

 31 32  0  0  0  0            999 V2000
    2.5951   -3.0039    0.0000 O   0  0
    2.5973   -1.5031    0.0000 C   0  0
    3.6375   -0.9049    0.0000 O   0  0
    1.2990   -0.7500    0.0000 C   0  0
    1.2990    0.7500    0.0000 C   0  0
    0.0000    1.5000    0.0000 C   0  0
   -1.2990    0.7500    0.0000 C   0  0
   -1.2990   -0.7500    0.0000 C   0  0
    0.0000   -1.5000    0.0000 C   0  0
   -2.5972   -1.5031    0.0000 O   0  0
   -2.5951   -3.0039    0.0000 C   0  0
   -3.8915   -3.7585    0.0000 C   0  0
   -3.8863   -5.2585    0.0000 C   0  0
   -2.5847   -6.0040    0.0000 C   0  0
   -1.2883   -5.2495    0.0000 C   0  0
   -1.2935   -3.7495    0.0000 C   0  0
   -0.2563   -3.1459    0.0000 Cl  0  0
   -2.5795   -7.5048    0.0000 C   0  0
   -3.6163   -8.1091    0.0000 F   0  0
   -1.5380   -8.1009    0.0000 F   0  0
   -2.5748   -8.7048    0.0000 F   0  0
    2.5972    1.5031    0.0000 N   0  0
    2.5955    2.7031    0.0000 O   0  0
    3.6375    0.9049    0.0000 O   0  0
    3.4601   -3.5057    0.0000 H   0  0
    0.0000    2.5000    0.0000 H   0  0
   -2.1651    1.2500    0.0000 H   0  0
    0.0000   -2.5000    0.0000 H   0  0
   -4.7593   -3.2615    0.0000 H   0  0
   -4.7506   -5.7615    0.0000 H   0  0
   -0.4205   -5.7465    0.0000 H   0  0
  1  2  1  0
  2  3  2  0
  2  4  1  0
  4  5  2  0
  4  9  1  0
  5  6  1  0
  5 22  1  0
  6  7  2  0
  7  8  1  0
  8  9  2  0
  8 10  1  0
 10 11  1  0
 11 12  2  0
 11 16  1  0
 12 13  1  0
 13 14  2  0
 14 15  1  0
 14 18  1  0
 15 16  2  0
 16 17  1  0
 18 19  1  0
 18 20  1  0
 18 21  1  0
 22 23  2  0
 22 24  2  0
  1 25  1  0
  6 26  1  0
  7 27  1  0
  9 28  1  0
 12 29  1  0
 13 30  1  0
 15 31  1  0
M  END
> <DSSTox_RID>
40338

> <DSSTox_CID>
22

> <DSSTox_Generic_SID>
20022

> <DSSTox_FileID>
14_TOXCST_v3a

> <STRUCTURE_Formula>
C14H7ClF3NO5

> <STRUCTURE_MolecularWeight>
361.6573

> <STRUCTURE_ChemicalType>
defined organic

> <STRUCTURE_TestedForm_DefinedOrganic>
parent

> <STRUCTURE_Shown>
tested chemical

> <TestSubstance_ChemicalName>
Acifluorfen

> <Source_ChemicalName>
Acifluorfen

> <TestSubstance_CASRN>
50594-66-6

> <TestSubstance_Description>
single chemical compound

> <STRUCTURE_ChemicalName_IUPAC>
5-{[2-chloro-4-(trifluoromethyl)phenyl]oxy}-2-nitrobenzoic acid

> <STRUCTURE_SMILES>
OC(=O)C1=C(C=CC(=C1)OC2=CC=C(C=C2Cl)C(F)(F)F)[N+](=O)[O-]

> <STRUCTURE_Parent_SMILES>
OC(=O)C1=C(C=CC(=C1)OC2=CC=C(C=C2Cl)C(F)(F)F)[N+](=O)[O-]

> <STRUCTURE_InChI>
InChI=1S/C14H7ClF3NO5/c15-10-5-7(14(16,17)18)1-4-12(10)24-8-2-3-11(19(22)23)9(6-8)13(20)21/h1-6H,(H,20,21)

> <STRUCTURE_InChIKey>
NUFNQYOELLVIPL-UHFFFAOYSA-N

> <Substance_modify_yyyymmdd>
20080429

> <DSSTox_CID_Parent>
22

> <ChemicalReplicateCount>
1

> <Coord_Metals>
0

> <Index>
14

> <Canonical_Smiles>
OC(=O)c1cc(Oc2ccc(cc2Cl)C(F)(F)F)ccc1N(=O)=O

> <Molecular_Weight>
361.65728

> <Frequency>
1

$$$$

  SciTegic          2D

 38 38  0  0  0  0            999 V2000
    1.2990   -0.7500    0.0000 C   0  0
    2.5988   -1.5004    0.0000 C   0  0
    3.8990   -0.7508    0.0000 C   0  0
    1.2990    0.7500    0.0000 C   0  0
    0.0000    1.5000    0.0000 C   0  0
   -1.2990    0.7500    0.0000 C   0  0
   -1.2990   -0.7500    0.0000 C   0  0
   -2.5988   -1.5004    0.0000 C   0  0
   -3.8990   -0.7508    0.0000 C   0  0
    0.0000   -1.5000    0.0000 C   0  0
   -0.0031   -3.0008    0.0000 N   0  0
   -1.3039   -3.7494    0.0000 C   0  0
   -1.3070   -5.2502    0.0000 O   0  0
   -2.6078   -5.9988    0.0000 C   0  0
    1.2969   -3.7508    0.0000 C   0  0
    2.3358   -3.1502    0.0000 O   0  0
    1.2983   -5.2517    0.0000 C   0  0
    2.3378   -5.8513    0.0000 Cl  0  0
    2.5985   -2.5004    0.0000 H   0  0
    1.7327   -2.0003    0.0000 H   0  0
    4.7650   -1.2508    0.0000 H   0  0
    3.8993    0.2492    0.0000 H   0  0
    4.7651   -0.2510    0.0000 H   0  0
    2.1651    1.2500    0.0000 H   0  0
    0.0000    2.5000    0.0000 H   0  0
   -2.1651    1.2500    0.0000 H   0  0
   -2.5985   -2.5004    0.0000 H   0  0
   -1.7327   -2.0003    0.0000 H   0  0
   -4.7650   -1.2508    0.0000 H   0  0
   -3.8993    0.2492    0.0000 H   0  0
   -4.7651   -0.2510    0.0000 H   0  0
   -2.1691   -3.2479    0.0000 H   0  0
   -2.1709   -4.2478    0.0000 H   0  0
   -2.6099   -6.9988    0.0000 H   0  0
   -3.4730   -5.4973    0.0000 H   0  0
   -3.4748   -6.4971    0.0000 H   0  0
    0.4326   -5.7522    0.0000 H   0  0
    1.2988   -6.2517    0.0000 H   0  0
  1  2  1  0
  1  4  2  0
  1 10  1  0
  2  3  1  0
  4  5  1  0
  5  6  2  0
  6  7  1  0
  7  8  1  0
  7 10  2  0
  8  9  1  0
 10 11  1  0
 11 12  1  0
 11 15  1  0
 12 13  1  0
 13 14  1  0
 15 16  2  0
 15 17  1  0
 17 18  1  0
  2 19  1  0
  2 20  1  0
  3 21  1  0
  3 22  1  0
  3 23  1  0
  4 24  1  0
  5 25  1  0
  6 26  1  0
  8 27  1  0
  8 28  1  0
  9 29  1  0
  9 30  1  0
  9 31  1  0
 12 32  1  0
 12 33  1  0
 14 34  1  0
 14 35  1  0
 14 36  1  0
 17 37  1  0
 17 38  1  0
M  END
> <DSSTox_RID>
40339

> <DSSTox_CID>
2265

> <DSSTox_Generic_SID>
22265

> <DSSTox_FileID>
15_TOXCST_v3a

> <STRUCTURE_Formula>
C14H20ClNO2

> <STRUCTURE_MolecularWeight>
269.7671

> <STRUCTURE_ChemicalType>
defined organic

> <STRUCTURE_TestedForm_DefinedOrganic>
parent

> <STRUCTURE_Shown>
tested chemical

> <TestSubstance_ChemicalName>
Alachlor

> <Source_ChemicalName>
Alachlor

> <TestSubstance_CASRN>
15972-60-8

> <TestSubstance_Description>
single chemical compound

> <STRUCTURE_ChemicalName_IUPAC>
2-chloro-N-(2,6-diethylphenyl)-N-[(methyloxy)methyl]acetamide

> <STRUCTURE_SMILES>
C1(CC)=CC=CC(CC)=C1N(COC)C(=O)CCl

> <STRUCTURE_Parent_SMILES>
C1(CC)=CC=CC(CC)=C1N(COC)C(=O)CCl

> <STRUCTURE_InChI>
InChI=1S/C14H20ClNO2/c1-4-11-7-6-8-12(5-2)14(11)16(10-18-3)13(17)9-15/h6-8H,4-5,9-10H2,1-3H3

> <STRUCTURE_InChIKey>
XCSGPAVHZFQHGE-UHFFFAOYSA-N

> <Substance_modify_yyyymmdd>
20080429

> <DSSTox_CID_Parent>
2265

> <ChemicalReplicateCount>
1

> <Coord_Metals>
0

> <Index>
15

> <Canonical_Smiles>
CCc1cccc(CC)c1N(COC)C(=O)CCl

> <Molecular_Weight>
269.7671

> <Frequency>
1

$$$$

  SciTegic          2D

 26 25  0  0  0  0            999 V2000
    9.0999    2.2507    0.0000 C   0  0
    9.0999    0.7500    0.0000 C   0  0
    7.7999    0.0000    0.0000 C   0  0
    7.7985   -1.5008    0.0000 N   0  0
    6.4985   -2.2508    0.0000 O   0  0
    6.4971   -3.7516    0.0000 C   0  0
    7.5359   -4.3523    0.0000 O   0  0
    5.1971   -4.5016    0.0000 N   0  0
    5.1957   -6.0025    0.0000 C   0  0
   10.3999    0.0000    0.0000 S   0  0
   11.6999    0.7500    0.0000 C   0  0
    7.7732    1.5119    0.0000 C   0  0
    9.9656    2.7513    0.0000 H   0  0
    9.0995    3.2507    0.0000 H   0  0
    8.2337    2.7505    0.0000 H   0  0
    6.9342    0.5005    0.0000 H   0  0
    4.3314   -4.0011    0.0000 H   0  0
    4.3295   -6.5022    0.0000 H   0  0
    5.1952   -7.0025    0.0000 H   0  0
    6.0614   -6.5030    0.0000 H   0  0
   12.5661    0.2503    0.0000 H   0  0
   12.5659    1.2501    0.0000 H   0  0
   11.6999    1.7500    0.0000 H   0  0
    6.9080    1.0104    0.0000 H   0  0
    6.9062    2.0103    0.0000 H   0  0
    7.7711    2.5119    0.0000 H   0  0
  1  2  1  0
  3  2  1  0
  2 10  1  0
  2 12  1  0
  3  4  2  0
  4  5  1  0
  5  6  1  0
  6  7  2  0
  6  8  1  0
  8  9  1  0
 10 11  1  0
  1 13  1  0
  1 14  1  0
  1 15  1  0
  3 16  1  0
  8 17  1  0
  9 18  1  0
  9 19  1  0
  9 20  1  0
 11 21  1  0
 11 22  1  0
 11 23  1  0
 12 24  1  0
 12 25  1  0
 12 26  1  0
M  END
> <DSSTox_RID>
40340

> <DSSTox_CID>
39

> <DSSTox_Generic_SID>
39223

> <DSSTox_FileID>
16_TOXCST_v3a

> <STRUCTURE_Formula>
C7H14N2O2S

> <STRUCTURE_MolecularWeight>
190.2633

> <STRUCTURE_ChemicalType>
defined organic

> <STRUCTURE_TestedForm_DefinedOrganic>
parent

> <STRUCTURE_Shown>
tested chemical

> <TestSubstance_ChemicalName>
Aldicarb

> <Source_ChemicalName>
Aldicarb

> <TestSubstance_CASRN>
116-06-3

> <TestSubstance_Description>
single chemical compound

> <STRUCTURE_ChemicalName_IUPAC>
(1E)-2-methyl-2-(methylthio)propanal O-[(methylamino)carbonyl]oxime

> <STRUCTURE_SMILES>
CC(C=NOC(=O)NC)(SC)C

> <STRUCTURE_Parent_SMILES>
CC(C=NOC(=O)NC)(SC)C

> <STRUCTURE_InChI>
InChI=1S/C7H14N2O2S/c1-7(2,12-4)5-9-11-6(10)8-3/h5H,1-4H3,(H,8,10)/b9-5+

> <STRUCTURE_InChIKey>
QGLZXHRNAYXIBU-WEVVVXLNSA-N

> <Substance_modify_yyyymmdd>
20080429

> <DSSTox_CID_Parent>
39

> <ChemicalReplicateCount>
1

> <Coord_Metals>
0

> <Index>
16

> <Canonical_Smiles>
CNC(=O)ON=CC(C)(C)SC

> <Molecular_Weight>
190.26325

> <Frequency>
1

$$$$

  SciTegic          2D

 32 32  0  0  0  0            999 V2000
   -5.2003    1.4932    0.0000 C   0  0
   -3.8964   -0.7553    0.0000 C   0  0
    3.8933    3.7570    0.0000 C   0  0
   -1.3039   -3.7494    0.0000 C   0  0
   -3.8990    0.7455    0.0000 C   0  0
    2.5951    3.0039    0.0000 C   0  0
   -0.0031   -3.0008    0.0000 S   0  0
    2.5972    1.5031    0.0000 N   0  0
   -2.6003    1.4977    0.0000 N   0  0
    1.2990   -0.7500    0.0000 N   0  0
    1.2990    0.7500    0.0000 C   0  0
    0.0000   -1.5000    0.0000 C   0  0
    0.0000    1.5000    0.0000 N   0  0
   -1.2990   -0.7500    0.0000 N   0  0
   -1.2990    0.7500    0.0000 C   0  0
   -6.0656    0.9920    0.0000 H   0  0
   -6.0671    1.9918    0.0000 H   0  0
   -5.2021    2.4932    0.0000 H   0  0
   -3.0298   -1.2543    0.0000 H   0  0
   -3.8951   -1.7553    0.0000 H   0  0
   -4.7617   -1.2565    0.0000 H   0  0
    3.8919    4.7570    0.0000 H   0  0
    4.7602    3.2585    0.0000 H   0  0
    4.7585    4.2584    0.0000 H   0  0
   -1.3060   -4.7494    0.0000 H   0  0
   -2.1691   -3.2479    0.0000 H   0  0
   -2.1709   -4.2478    0.0000 H   0  0
   -3.9008    1.7455    0.0000 H   0  0
    1.7282    3.5024    0.0000 H   0  0
    1.7299    2.5026    0.0000 H   0  0
    3.4641    1.0046    0.0000 H   0  0
   -2.6021    2.4977    0.0000 H   0  0
  1  5  1  0
  2  5  1  0
  3  6  1  0
  4  7  1  0
  5  9  1  0
  6  8  1  0
  7 12  1  0
  8 11  1  0
  9 15  1  0
 10 11  2  0
 10 12  1  0
 11 13  1  0
 12 14  2  0
 13 15  2  0
 14 15  1  0
  1 16  1  0
  1 17  1  0
  1 18  1  0
  2 19  1  0
  2 20  1  0
  2 21  1  0
  3 22  1  0
  3 23  1  0
  3 24  1  0
  4 25  1  0
  4 26  1  0
  4 27  1  0
  5 28  1  0
  6 29  1  0
  6 30  1  0
  8 31  1  0
  9 32  1  0
M  END
> <DSSTox_RID>
40343

> <DSSTox_CID>
3869

> <DSSTox_Generic_SID>
23869

> <DSSTox_FileID>
17_TOXCST_v3a

> <STRUCTURE_Formula>
C9H17N5S

> <STRUCTURE_MolecularWeight>
227.3298

> <STRUCTURE_ChemicalType>
defined organic

> <STRUCTURE_TestedForm_DefinedOrganic>
parent

> <STRUCTURE_Shown>
tested chemical

> <TestSubstance_ChemicalName>
Ametryn

> <Source_ChemicalName>
Ametryn

> <TestSubstance_CASRN>
834-12-8

> <TestSubstance_Description>
single chemical compound

> <STRUCTURE_ChemicalName_IUPAC>
N-ethyl-N'-isopropyl-6-(methylthio)-1,3,5-triazine-2,4-diamine

> <STRUCTURE_SMILES>
CSc1nc(NCC)nc(NC(C)C)n1

> <STRUCTURE_Parent_SMILES>
CSc1nc(NCC)nc(NC(C)C)n1

> <STRUCTURE_InChI>
InChI=1S/C9H17N5S/c1-5-10-7-12-8(11-6(2)3)14-9(13-7)15-4/h6H,5H2,1-4H3,(H2,10,11,12,13,14)

> <STRUCTURE_InChIKey>
RQVYBGPQFYCBGX-UHFFFAOYSA-N

> <Substance_modify_yyyymmdd>
20080429

> <DSSTox_CID_Parent>
3869

> <ChemicalReplicateCount>
1

> <Coord_Metals>
0

> <Index>
17

> <Canonical_Smiles>
CCNc1nc(NC(C)C)nc(SC)n1

> <Molecular_Weight>
227.32977

> <Frequency>
1

$$$$

  SciTegic          2D

 45 46  0  0  0  0            999 V2000
    5.1894   -6.0109    0.0000 N   0  0
    2.5973   -1.5031    0.0000 N   0  0
    2.5951   -3.0039    0.0000 C   0  0
    3.8912   -5.2578    0.0000 C   0  0
    3.8933   -3.7570    0.0000 N   0  0
    1.2990   -0.7500    0.0000 C   0  0
    5.1873   -7.5117    0.0000 C   0  0
    6.4837   -8.2663    0.0000 C   0  0
    1.2990    0.7500    0.0000 C   0  0
    0.0000    1.5000    0.0000 C   0  0
    6.4785   -9.7663    0.0000 C   0  0
    0.0000   -1.5000    0.0000 C   0  0
    3.8856   -8.2573    0.0000 C   0  0
   -1.2990    0.7500    0.0000 C   0  0
    5.1769  -10.5118    0.0000 C   0  0
   -1.2990   -0.7500    0.0000 C   0  0
    3.8804   -9.7573    0.0000 C   0  0
    5.1959   -3.0115    0.0000 C   0  0
    7.7861   -7.5204    0.0000 C   0  0
    2.5988    1.5004    0.0000 C   0  0
    5.1717  -12.0126    0.0000 C   0  0
   -2.5988    1.5004    0.0000 C   0  0
    1.7282   -3.5024    0.0000 H   0  0
    3.0243   -5.7563    0.0000 H   0  0
    0.0000    2.5000    0.0000 H   0  0
    7.3428  -10.2693    0.0000 H   0  0
    0.0000   -2.5000    0.0000 H   0  0
    3.0213   -7.7543    0.0000 H   0  0
   -2.1651   -1.2500    0.0000 H   0  0
    3.0127  -10.2543    0.0000 H   0  0
    6.0604   -3.5143    0.0000 H   0  0
    6.0636   -2.5144    0.0000 H   0  0
    5.1994   -2.0115    0.0000 H   0  0
    7.7902   -6.5204    0.0000 H   0  0
    8.6502   -8.0237    0.0000 H   0  0
    8.6541   -7.0239    0.0000 H   0  0
    3.4651    1.0010    0.0000 H   0  0
    2.5985    2.5004    0.0000 H   0  0
    3.4646    2.0008    0.0000 H   0  0
    6.0357  -12.5162    0.0000 H   0  0
    4.3038  -12.5093    0.0000 H   0  0
    5.1678  -13.0126    0.0000 H   0  0
   -2.5994    2.5004    0.0000 H   0  0
   -3.4647    1.0001    0.0000 H   0  0
   -3.4651    2.0000    0.0000 H   0  0
  1  4  2  0
  1  7  1  0
  2  3  2  0
  2  6  1  0
  3  5  1  0
  4  5  1  0
  5 18  1  0
  6  9  2  0
  6 12  1  0
  7  8  2  0
  7 13  1  0
  8 11  1  0
  8 19  1  0
  9 10  1  0
  9 20  1  0
 10 14  2  0
 11 15  2  0
 12 16  2  0
 13 17  2  0
 14 16  1  0
 14 22  1  0
 15 17  1  0
 15 21  1  0
  3 23  1  0
  4 24  1  0
 10 25  1  0
 11 26  1  0
 12 27  1  0
 13 28  1  0
 16 29  1  0
 17 30  1  0
 18 31  1  0
 18 32  1  0
 18 33  1  0
 19 34  1  0
 19 35  1  0
 19 36  1  0
 20 37  1  0
 20 38  1  0
 20 39  1  0
 21 40  1  0
 21 41  1  0
 21 42  1  0
 22 43  1  0
 22 44  1  0
 22 45  1  0
M  END
> <DSSTox_RID>
40344

> <DSSTox_CID>
3871

> <DSSTox_Generic_SID>
23871

> <DSSTox_FileID>
18_TOXCST_v3a

> <STRUCTURE_Formula>
C19H23N3

> <STRUCTURE_MolecularWeight>
293.406

> <STRUCTURE_ChemicalType>
defined organic

> <STRUCTURE_TestedForm_DefinedOrganic>
parent

> <STRUCTURE_Shown>
tested chemical

> <TestSubstance_ChemicalName>
Amitraz

> <Source_ChemicalName>
Amitraz

> <TestSubstance_CASRN>
33089-61-1

> <TestSubstance_Description>
single chemical compound

> <STRUCTURE_ChemicalName_IUPAC>
N'-(2,4-dimethylphenyl)-N-{(E)-[(2,4-dimethylphenyl)imino]methyl}-N-methylimidoformamide

> <STRUCTURE_SMILES>
Cc2cc(C)ccc2/N=C/N(C)/C=N/c1ccc(C)cc1C

> <STRUCTURE_Parent_SMILES>
Cc2cc(C)ccc2/N=C/N(C)/C=N/c1ccc(C)cc1C

> <STRUCTURE_InChI>
InChI=1S/C19H23N3/c1-14-6-8-18(16(3)10-14)20-12-22(5)13-21-19-9-7-15(2)11-17(19)4/h6-13H,1-5H3/b20-12+,21-13+

> <STRUCTURE_InChIKey>
QXAITBQSYVNQDR-ZIOPAAQOSA-N

> <Substance_modify_yyyymmdd>
20080429

> <DSSTox_CID_Parent>
3871

> <ChemicalReplicateCount>
1

> <Coord_Metals>
0

> <Index>
18

> <Canonical_Smiles>
CN(C=Nc1ccc(C)cc1C)C=Nc2ccc(C)cc2C

> <Molecular_Weight>
293.40602

> <Frequency>
1

$$$$

  SciTegic          2D

 21 22  0  0  0  0            999 V2000
    2.3383   -1.3500    0.0000 Cl  0  0
    1.2990   -0.7500    0.0000 C   0  0
    1.2990    0.7500    0.0000 N   0  0
    0.0000    1.5000    0.0000 C   0  0
   -1.2990    0.7500    0.0000 N   0  0
   -1.2990   -0.7500    0.0000 C   0  0
    0.0000   -1.5000    0.0000 N   0  0
   -2.5972   -1.5031    0.0000 N   0  0
   -2.5951   -3.0039    0.0000 C   0  0
   -3.8915   -3.7585    0.0000 C   0  0
   -3.8863   -5.2585    0.0000 C   0  0
   -2.5847   -6.0040    0.0000 C   0  0
   -1.2883   -5.2495    0.0000 C   0  0
   -1.2935   -3.7495    0.0000 C   0  0
   -0.2563   -3.1459    0.0000 Cl  0  0
    0.0000    2.7000    0.0000 Cl  0  0
   -3.4641   -1.0046    0.0000 H   0  0
   -4.7593   -3.2615    0.0000 H   0  0
   -4.7506   -5.7615    0.0000 H   0  0
   -2.5812   -7.0040    0.0000 H   0  0
   -0.4205   -5.7465    0.0000 H   0  0
  1  2  1  0
  2  3  2  0
  2  7  1  0
  3  4  1  0
  4  5  2  0
  4 16  1  0
  5  6  1  0
  6  7  2  0
  6  8  1  0
  8  9  1  0
  9 10  2  0
  9 14  1  0
 10 11  1  0
 11 12  2  0
 12 13  1  0
 13 14  2  0
 14 15  1  0
  8 17  1  0
 10 18  1  0
 11 19  1  0
 12 20  1  0
 13 21  1  0
M  END
> <DSSTox_RID>
40299

> <DSSTox_CID>
89

> <DSSTox_Generic_SID>
20089

> <DSSTox_FileID>
19_TOXCST_v3a

> <STRUCTURE_Formula>
C9H5Cl3N4

> <STRUCTURE_MolecularWeight>
275.5218

> <STRUCTURE_ChemicalType>
defined organic

> <STRUCTURE_TestedForm_DefinedOrganic>
parent

> <STRUCTURE_Shown>
tested chemical

> <TestSubstance_ChemicalName>
Anilazine

> <Source_ChemicalName>
Anilazine

> <TestSubstance_CASRN>
101-05-3

> <TestSubstance_Description>
single chemical compound

> <STRUCTURE_ChemicalName_IUPAC>
4,6-dichloro-N-(2-chlorophenyl)-1,3,5-triazin-2-amine

> <STRUCTURE_SMILES>
ClC1=NC(=NC(=N1)NC2=CC=CC=C2Cl)Cl

> <STRUCTURE_Parent_SMILES>
ClC1=NC(=NC(=N1)NC2=CC=CC=C2Cl)Cl

> <STRUCTURE_InChI>
InChI=1S/C9H5Cl3N4/c10-5-3-1-2-4-6(5)13-9-15-7(11)14-8(12)16-9/h1-4H,(H,13,14,15,16)

> <STRUCTURE_InChIKey>
IMHBYKMAHXWHRP-UHFFFAOYSA-N

> <Substance_modify_yyyymmdd>
20080429

> <DSSTox_CID_Parent>
89

> <ChemicalReplicateCount>
1

> <Coord_Metals>
0

> <Index>
19

> <Canonical_Smiles>
Clc1ccccc1Nc2nc(Cl)nc(Cl)n2

> <Molecular_Weight>
275.5218

> <Frequency>
1

$$$$

  SciTegic          2D

 25 25  0  0  0  0            999 V2000
    5.1988   -1.5012    0.0000 C   0  0
    5.1984   -2.7012    0.0000 O   0  0
    6.4990   -0.7516    0.0000 O   0  0
    3.8990   -0.7508    0.0000 N   0  0
    2.5988   -1.5004    0.0000 S   0  0
    3.6377   -2.1009    0.0000 O   0  0
    2.5984   -2.7004    0.0000 O   0  0
    1.2990   -0.7500    0.0000 C   0  0
    1.2990    0.7500    0.0000 C   0  0
    0.0000   -1.5000    0.0000 C   0  0
    0.0000    1.5000    0.0000 C   0  0
   -1.2990   -0.7500    0.0000 C   0  0
   -1.2990    0.7500    0.0000 C   0  0
   -2.6003    1.4977    0.0000 N   0  0
    7.7988   -1.5020    0.0000 C   0  0
    3.8993    0.2492    0.0000 H   0  0
    2.1651    1.2500    0.0000 H   0  0
    0.0000   -2.5000    0.0000 H   0  0
    0.0000    2.5000    0.0000 H   0  0
   -2.1651   -1.2500    0.0000 H   0  0
   -3.4657    0.9965    0.0000 H   0  0
   -2.6021    2.4977    0.0000 H   0  0
    8.6651   -1.0026    0.0000 H   0  0
    7.7984   -2.5020    0.0000 H   0  0
    8.6645   -2.0025    0.0000 H   0  0
  1  2  2  0
  1  3  1  0
  1  4  1  0
  3 15  1  0
  4  5  1  0
  5  6  2  0
  5  7  2  0
  5  8  1  0
  8  9  2  0
  8 10  1  0
  9 11  1  0
 10 12  2  0
 11 13  2  0
 12 13  1  0
 13 14  1  0
  4 16  1  0
  9 17  1  0
 10 18  1  0
 11 19  1  0
 12 20  1  0
 14 21  1  0
 14 22  1  0
 15 23  1  0
 15 24  1  0
 15 25  1  0
M  END
> <DSSTox_RID>
40374

> <DSSTox_CID>
3890

> <DSSTox_Generic_SID>
23890

> <DSSTox_FileID>
20_TOXCST_v3a

> <STRUCTURE_Formula>
C8H10N2O4S

> <STRUCTURE_MolecularWeight>
230.241

> <STRUCTURE_ChemicalType>
defined organic

> <STRUCTURE_TestedForm_DefinedOrganic>
parent

> <STRUCTURE_Shown>
tested chemical

> <TestSubstance_ChemicalName>
Asulam

> <Source_ChemicalName>
Asulam

> <TestSubstance_CASRN>
3337-71-1

> <TestSubstance_Description>
single chemical compound

> <STRUCTURE_ChemicalName_IUPAC>
methyl [(4-aminophenyl)sulfonyl]carbamate

> <STRUCTURE_SMILES>
O=C(NS(=O)(C1=CC=C(N)C=C1)=O)OC

> <STRUCTURE_Parent_SMILES>
O=C(NS(=O)(C1=CC=C(N)C=C1)=O)OC

> <STRUCTURE_InChI>
InChI=1S/C8H10N2O4S/c1-14-8(11)10-15(12,13)7-4-2-6(9)3-5-7/h2-5H,9H2,1H3,(H,10,11)

> <STRUCTURE_InChIKey>
VGPYEHKOIGNJKV-UHFFFAOYSA-N

> <Substance_modify_yyyymmdd>
20080429

> <DSSTox_CID_Parent>
3890

> <ChemicalReplicateCount>
1

> <Note_TOXCST>
changed from Na salt to parent v2c

> <Coord_Metals>
0

> <Index>
20

> <Canonical_Smiles>
COC(=O)NS(=O)(=O)c1ccc(N)cc1

> <Molecular_Weight>
230.24099

> <Frequency>
1

$$$$

  SciTegic          2D

 28 28  0  0  0  0            999 V2000
    2.3383   -1.3500    0.0000 Cl  0  0
    1.2990   -0.7500    0.0000 C   0  0
    1.2990    0.7500    0.0000 N   0  0
    0.0000    1.5000    0.0000 C   0  0
   -1.2990    0.7500    0.0000 N   0  0
   -1.2990   -0.7500    0.0000 C   0  0
    0.0000   -1.5000    0.0000 N   0  0
   -2.5972   -1.5031    0.0000 N   0  0
   -2.5951   -3.0039    0.0000 C   0  0
   -3.8933   -3.7570    0.0000 C   0  0
   -1.2941   -3.7520    0.0000 C   0  0
   -0.0031    3.0008    0.0000 N   0  0
   -1.3039    3.7494    0.0000 C   0  0
   -1.3070    5.2502    0.0000 C   0  0
   -3.4641   -1.0046    0.0000 H   0  0
   -3.4620   -2.5054    0.0000 H   0  0
   -3.8919   -4.7570    0.0000 H   0  0
   -4.7585   -4.2584    0.0000 H   0  0
   -4.7602   -3.2585    0.0000 H   0  0
   -0.4286   -3.2511    0.0000 H   0  0
   -0.4275   -4.2509    0.0000 H   0  0
   -1.2927   -4.7520    0.0000 H   0  0
    0.8620    3.5023    0.0000 H   0  0
   -1.3023    2.7494    0.0000 H   0  0
   -2.1691    3.2479    0.0000 H   0  0
   -2.1738    5.7490    0.0000 H   0  0
   -1.3086    6.2502    0.0000 H   0  0
   -0.4419    5.7517    0.0000 H   0  0
  1  2  1  0
  2  3  2  0
  2  7  1  0
  3  4  1  0
  4  5  2  0
  4 12  1  0
  5  6  1  0
  6  7  2  0
  6  8  1  0
  8  9  1  0
  9 10  1  0
  9 11  1  0
 12 13  1  0
 13 14  1  0
  8 15  1  0
  9 16  1  0
 10 17  1  0
 10 18  1  0
 10 19  1  0
 11 20  1  0
 11 21  1  0
 11 22  1  0
 12 23  1  0
 13 24  1  0
 13 25  1  0
 14 26  1  0
 14 27  1  0
 14 28  1  0
M  END
> <DSSTox_RID>
40346

> <DSSTox_CID>
112

> <DSSTox_Generic_SID>
20112

> <DSSTox_FileID>
21_TOXCST_v3a

> <STRUCTURE_Formula>
C8H14ClN5

> <STRUCTURE_MolecularWeight>
215.6833

> <STRUCTURE_ChemicalType>
defined organic

> <STRUCTURE_TestedForm_DefinedOrganic>
parent

> <STRUCTURE_Shown>
tested chemical

> <TestSubstance_ChemicalName>
Atrazine

> <Source_ChemicalName>
Atrazine

> <TestSubstance_CASRN>
1912-24-9

> <TestSubstance_Description>
single chemical compound

> <STRUCTURE_ChemicalName_IUPAC>
6-chloro-N-ethyl-N'-isopropyl-1,3,5-triazine-2,4-diamine

> <STRUCTURE_SMILES>
ClC1=NC(=NC(=N1)NC(C)C)NCC

> <STRUCTURE_Parent_SMILES>
ClC1=NC(=NC(=N1)NC(C)C)NCC

> <STRUCTURE_InChI>
InChI=1S/C8H14ClN5/c1-4-10-7-12-6(9)13-8(14-7)11-5(2)3/h5H,4H2,1-3H3,(H2,10,11,12,13,14)

> <STRUCTURE_InChIKey>
MXWJVTOOROXGIU-UHFFFAOYSA-N

> <Substance_modify_yyyymmdd>
20080429

> <DSSTox_CID_Parent>
112

> <ChemicalReplicateCount>
1

> <Relationship_CID>
parent0 of metabolite 17495

> <Coord_Metals>
0

> <Index>
21

> <Canonical_Smiles>
CCNc1nc(Cl)nc(NC(C)C)n1

> <Molecular_Weight>
215.68325

> <Frequency>
1

$$$$

  SciTegic          2D

 29 30  0  0  0  0            999 V2000
    1.6411    5.1720    0.0000 P   0  0
    2.8152    5.4199    0.0000 O   0  0
    0.6387    6.2890    0.0000 O   0  0
    2.1179    6.6258    0.0000 O   0  0
    1.1759    3.7451    0.0000 S   0  0
    3.5866    6.9346    0.0000 C   0  0
    1.1040    7.7159    0.0000 C   0  0
    2.1783    2.6281    0.0000 C   0  0
   -1.0028    1.5132    0.0000 N   0  0
   -2.3155    0.7475    0.0000 C   0  0
    0.2917    0.7475    0.0000 C   0  0
    0.2917   -0.7475    0.0000 C   0  0
   -2.3155   -0.7475    0.0000 C   0  0
   -1.0028   -1.5132    0.0000 C   0  0
    1.7138   -1.2033    0.0000 O   0  0
    2.5889    0.0182    0.0000 C   0  0
    1.7138    1.2033    0.0000 N   0  0
    3.7889    0.0269    0.0000 O   0  0
   -3.3560   -1.3452    0.0000 Cl  0  0
    3.8983    7.8848    0.0000 H   0  0
    4.5653    7.1399    0.0000 H   0  0
    4.2539    6.1898    0.0000 H   0  0
    0.4361    8.4601    0.0000 H   0  0
    2.0824    7.9225    0.0000 H   0  0
    1.4145    8.6665    0.0000 H   0  0
    3.1567    2.8347    0.0000 H   0  0
    2.4887    3.5787    0.0000 H   0  0
   -3.1826    1.2456    0.0000 H   0  0
   -0.9997   -2.5132    0.0000 H   0  0
  1  2  2  0
  1  3  1  0
  1  4  1  0
  1  5  1  0
  3  7  1  0
  4  6  1  0
  5  8  1  0
  8 17  1  0
  9 10  1  0
  9 11  2  0
 10 13  2  0
 11 12  1  0
 11 17  1  0
 12 14  2  0
 12 15  1  0
 13 14  1  0
 13 19  1  0
 15 16  1  0
 16 17  1  0
 16 18  2  0
  6 20  1  0
  6 21  1  0
  6 22  1  0
  7 23  1  0
  7 24  1  0
  7 25  1  0
  8 26  1  0
  8 27  1  0
 10 28  1  0
 14 29  1  0
M  END
> <DSSTox_RID>
40557

> <DSSTox_CID>
14818

> <DSSTox_Generic_SID>
34818

> <DSSTox_FileID>
22_TOXCST_v3a

> <STRUCTURE_Formula>
C9H10ClN2O5PS

> <STRUCTURE_MolecularWeight>
324.6779

> <STRUCTURE_ChemicalType>
defined organic

> <STRUCTURE_TestedForm_DefinedOrganic>
parent

> <STRUCTURE_Shown>
tested chemical

> <TestSubstance_ChemicalName>
Azamethiphos

> <Source_ChemicalName>
Azamethiphos

> <TestSubstance_CASRN>
35575-96-3

> <TestSubstance_Description>
single chemical compound

> <STRUCTURE_ChemicalName_IUPAC>
S-[(6-chloro-2-oxo[1,3]oxazolo[4,5-b]pyridin-3(2H)-yl)methyl] O,O-dimethyl thiophosphate

> <STRUCTURE_SMILES>
O=P(OC)(SCN2C1=NC=C(Cl)C=C1OC2=O)OC

> <STRUCTURE_Parent_SMILES>
O=P(OC)(SCN2C1=NC=C(Cl)C=C1OC2=O)OC

> <STRUCTURE_InChI>
InChI=1S/C9H10ClN2O5PS/c1-15-18(14,16-2)19-5-12-8-7(17-9(12)13)3-6(10)4-11-8/h3-4H,5H2,1-2H3

> <STRUCTURE_InChIKey>
VNKBTWQZTQIWDV-UHFFFAOYSA-N

> <Substance_modify_yyyymmdd>
20080429

> <DSSTox_CID_Parent>
14818

> <ChemicalReplicateCount>
1

> <Coord_Metals>
0

> <Index>
22

> <Canonical_Smiles>
COP(=O)(OC)SCN1C(=O)Oc2cc(Cl)cnc12

> <Molecular_Weight>
324.67786

> <Frequency>
1

$$$$

  SciTegic          2D

 31 32  0  0  0  0            999 V2000
    1.2964   -2.6973    0.0000 O   0  0
    1.2964   -1.4973    0.0000 C   0  0
    0.0000   -0.7486    0.0000 C   0  0
    0.0000    0.7486    0.0000 C   0  0
   -1.2964    1.4973    0.0000 C   0  0
   -2.6111    0.7486    0.0000 C   0  0
   -2.6111   -0.7486    0.0000 C   0  0
   -1.2964   -1.4973    0.0000 C   0  0
    1.2964    1.4973    0.0000 N   0  0
    2.5929    0.7486    0.0000 N   0  0
    2.5929   -0.7486    0.0000 N   0  0
    3.8926   -1.4991    0.0000 C   0  0
    3.8936   -2.9999    0.0000 S   0  0
    5.1933   -3.7503    0.0000 P   0  0
    5.1930   -4.9503    0.0000 S   0  0
    6.4936   -3.0007    0.0000 O   0  0
    7.7933   -3.7511    0.0000 C   0  0
    3.8692   -4.5167    0.0000 O   0  0
    3.8699   -6.0176    0.0000 C   0  0
   -1.2934    2.4973    0.0000 H   0  0
   -3.4756    1.2512    0.0000 H   0  0
   -3.4756   -1.2512    0.0000 H   0  0
   -1.2934   -2.4973    0.0000 H   0  0
    4.7585   -0.9988    0.0000 H   0  0
    4.7589   -1.9987    0.0000 H   0  0
    8.6597   -3.2517    0.0000 H   0  0
    7.7930   -4.7511    0.0000 H   0  0
    8.6591   -4.2515    0.0000 H   0  0
    3.0045   -6.5185    0.0000 H   0  0
    3.8709   -7.0176    0.0000 H   0  0
    4.7364   -6.5169    0.0000 H   0  0
  1  2  2  0
  2  3  1  0
  2 11  1  0
  3  4  2  0
  3  8  1  0
  4  5  1  0
  4  9  1  0
  5  6  2  0
  6  7  1  0
  7  8  2  0
  9 10  2  0
 10 11  1  0
 11 12  1  0
 12 13  1  0
 13 14  1  0
 14 15  2  0
 14 16  1  0
 14 18  1  0
 16 17  1  0
 18 19  1  0
  5 20  1  0
  6 21  1  0
  7 22  1  0
  8 23  1  0
 12 24  1  0
 12 25  1  0
 17 26  1  0
 17 27  1  0
 17 28  1  0
 19 29  1  0
 19 30  1  0
 19 31  1  0
M  END
> <DSSTox_RID>
40347

> <DSSTox_CID>
122

> <DSSTox_Generic_SID>
20122

> <DSSTox_FileID>
23_TOXCST_v3a

> <STRUCTURE_Formula>
C10H12N3O3PS2

> <STRUCTURE_MolecularWeight>
317.3243

> <STRUCTURE_ChemicalType>
defined organic

> <STRUCTURE_TestedForm_DefinedOrganic>
parent

> <STRUCTURE_Shown>
tested chemical

> <TestSubstance_ChemicalName>
Azinphos-methyl

> <Source_ChemicalName>
Azinphos-methyl

> <TestSubstance_CASRN>
86-50-0

> <TestSubstance_Description>
single chemical compound

> <STRUCTURE_ChemicalName_IUPAC>
O,O-dimethyl S-[(4-oxo-1,2,3-benzotriazin-3(4H)-yl)methyl] dithiophosphate

> <STRUCTURE_SMILES>
O=C1C2=C(C=CC=C2)N=NN1CSP(=S)(OC)OC

> <STRUCTURE_Parent_SMILES>
O=C1C2=C(C=CC=C2)N=NN1CSP(=S)(OC)OC

> <STRUCTURE_InChI>
InChI=1S/C10H12N3O3PS2/c1-15-17(18,16-2)19-7-13-10(14)8-5-3-4-6-9(8)11-12-13/h3-6H,7H2,1-2H3

> <STRUCTURE_InChIKey>
CJJOSEISRRTUQB-UHFFFAOYSA-N

> <Substance_modify_yyyymmdd>
20080429

> <DSSTox_CID_Parent>
122

> <ChemicalReplicateCount>
1

> <Coord_Metals>
0

> <Index>
23

> <Canonical_Smiles>
COP(=S)(OC)SCN1N=Nc2ccccc2C1=O

> <Molecular_Weight>
317.32434

> <Frequency>
1

$$$$

  SciTegic          2D

 47 49  0  0  0  0            999 V2000
    3.6380   -2.1004    0.0000 N   0  0
    2.5988   -1.5004    0.0000 C   0  0
    1.2990   -0.7500    0.0000 C   0  0
    1.2990    0.7500    0.0000 C   0  0
    0.0000    1.5000    0.0000 C   0  0
   -1.2990    0.7500    0.0000 C   0  0
   -1.2990   -0.7500    0.0000 C   0  0
    0.0000   -1.5000    0.0000 C   0  0
    2.5972    1.5031    0.0000 O   0  0
    2.5951    3.0039    0.0000 C   0  0
    3.8915    3.7585    0.0000 C   0  0
    3.8863    5.2585    0.0000 C   0  0
    2.5847    6.0040    0.0000 N   0  0
    1.2883    5.2495    0.0000 C   0  0
    1.2934    3.7495    0.0000 N   0  0
    5.1819    6.0161    0.0000 O   0  0
    5.1746    7.5169    0.0000 C   0  0
    6.4684    8.2760    0.0000 C   0  0
    6.4580    9.7759    0.0000 C   0  0
    5.1538   10.5169    0.0000 C   0  0
    3.8600    9.7579    0.0000 C   0  0
    3.8704    8.2580    0.0000 C   0  0
    7.7748    7.5373    0.0000 C   0  0
    9.0683    8.2986    0.0000 C   0  0
   10.3747    7.5599    0.0000 O   0  0
   11.6681    8.3212    0.0000 C   0  0
    7.7910    6.0366    0.0000 C   0  0
    6.7581    5.4257    0.0000 O   0  0
    9.0983    5.2993    0.0000 O   0  0
    9.1144    3.7986    0.0000 C   0  0
    0.0000    2.5000    0.0000 H   0  0
   -2.1651    1.2500    0.0000 H   0  0
   -2.1651   -1.2500    0.0000 H   0  0
    0.0000   -2.5000    0.0000 H   0  0
    4.7593    3.2615    0.0000 H   0  0
    0.4205    5.7465    0.0000 H   0  0
    7.3205   10.2819    0.0000 H   0  0
    5.1469   11.5169    0.0000 H   0  0
    2.9905   10.2519    0.0000 H   0  0
    3.0078    7.7520    0.0000 H   0  0
    9.0596    9.2985    0.0000 H   0  0
   12.5386    7.8290    0.0000 H   0  0
   12.5297    8.8289    0.0000 H   0  0
   11.6594    9.3212    0.0000 H   0  0
    9.9855    3.3074    0.0000 H   0  0
    9.1247    2.7987    0.0000 H   0  0
    8.2537    3.2896    0.0000 H   0  0
  1  2  3  0
  2  3  1  0
  3  4  1  0
  3  8  2  0
  4  5  2  0
  4  9  1  0
  5  6  1  0
  6  7  2  0
  7  8  1  0
  9 10  1  0
 10 11  1  0
 10 15  2  0
 11 12  2  0
 12 13  1  0
 12 16  1  0
 13 14  2  0
 14 15  1  0
 16 17  1  0
 17 18  1  0
 17 22  2  0
 18 19  2  0
 18 23  1  0
 19 20  1  0
 20 21  2  0
 21 22  1  0
 23 24  2  0
 23 27  1  0
 24 25  1  0
 25 26  1  0
 27 28  2  0
 27 29  1  0
 29 30  1  0
  5 31  1  0
  6 32  1  0
  7 33  1  0
  8 34  1  0
 11 35  1  0
 14 36  1  0
 19 37  1  0
 20 38  1  0
 21 39  1  0
 22 40  1  0
 24 41  1  0
 26 42  1  0
 26 43  1  0
 26 44  1  0
 30 45  1  0
 30 46  1  0
 30 47  1  0
M  END
> <DSSTox_RID>
40348

> <DSSTox_CID>
12520

> <DSSTox_Generic_SID>
32520

> <DSSTox_FileID>
24_TOXCST_v3a

> <STRUCTURE_Formula>
C22H17N3O5

> <STRUCTURE_MolecularWeight>
403.3875

> <STRUCTURE_ChemicalType>
defined organic

> <STRUCTURE_TestedForm_DefinedOrganic>
parent

> <STRUCTURE_Shown>
tested chemical

> <TestSubstance_ChemicalName>
Azoxystrobin

> <Source_ChemicalName>
Azoxystrobin

> <TestSubstance_CASRN>
131860-33-8

> <TestSubstance_Description>
single chemical compound

> <ChemicalNote>
stereochem

> <STRUCTURE_ChemicalName_IUPAC>
methyl (2E)-2-(2-{[6-(2-cyanophenoxy)pyrimidin-4-yl]oxy}phenyl)-3-methoxyacrylate

> <STRUCTURE_SMILES>
N#CC1=CC=CC=C1OC2=NC=NC(OC3=CC=CC=C3/C(C(OC)=O)=C\OC)=C2

> <STRUCTURE_Parent_SMILES>
N#CC1=CC=CC=C1OC2=NC=NC(OC3=CC=CC=C3/C(C(OC)=O)=C\OC)=C2

> <STRUCTURE_InChI>
InChI=1S/C22H17N3O5/c1-27-13-17(22(26)28-2)16-8-4-6-10-19(16)30-21-11-20(24-14-25-21)29-18-9-5-3-7-15(18)12-23/h3-11,13-14H,1-2H3/b17-13+

> <STRUCTURE_InChIKey>
WFDXOXNFNRHQEC-GHRIWEEISA-N

> <Substance_modify_yyyymmdd>
20080429

> <DSSTox_CID_Parent>
12520

> <ChemicalReplicateCount>
1

> <Coord_Metals>
0

> <Index>
24

> <Canonical_Smiles>
COC=C(C(=O)OC)c1ccccc1Oc2cc(Oc3ccccc3C#N)ncn2

> <Molecular_Weight>
403.38748

> <Frequency>
1

$$$$

  SciTegic          2D

 29 30  0  0  0  0            999 V2000
    1.7138    1.2033    0.0000 O   0  0
    2.5889    0.0182    0.0000 C   0  0
    1.7138   -1.2033    0.0000 O   0  0
    0.2917   -0.7475    0.0000 C   0  0
    0.2917    0.7475    0.0000 C   0  0
   -1.0028    1.5132    0.0000 C   0  0
   -2.3155    0.7475    0.0000 C   0  0
   -2.3155   -0.7475    0.0000 C   0  0
   -1.0028   -1.5132    0.0000 C   0  0
   -0.9971    3.0138    0.0000 O   0  0
    3.3214   -1.2765    0.0000 C   0  0
    3.3030    1.3236    0.0000 C   0  0
   -2.2935    3.7700    0.0000 C   0  0
   -3.3352    3.1743    0.0000 O   0  0
   -2.2878    5.2708    0.0000 N   0  0
   -3.5842    6.0270    0.0000 C   0  0
   -3.1826    1.2456    0.0000 H   0  0
   -3.1826   -1.2456    0.0000 H   0  0
   -0.9997   -2.5132    0.0000 H   0  0
    2.8280   -2.1463    0.0000 H   0  0
    3.8278   -2.1387    0.0000 H   0  0
    4.3214   -1.2692    0.0000 H   0  0
    4.3030    1.3315    0.0000 H   0  0
    3.7963    2.1934    0.0000 H   0  0
    2.7964    2.1858    0.0000 H   0  0
   -1.4197    5.7672    0.0000 H   0  0
   -3.5804    7.0269    0.0000 H   0  0
   -4.4523    5.5305    0.0000 H   0  0
   -4.4482    6.5304    0.0000 H   0  0
  1  2  1  0
  1  5  1  0
  2  3  1  0
  2 11  1  0
  2 12  1  0
  3  4  1  0
  4  5  2  0
  4  9  1  0
  5  6  1  0
  6  7  2  0
  6 10  1  0
  7  8  1  0
  8  9  2  0
 10 13  1  0
 13 14  2  0
 13 15  1  0
 15 16  1  0
  7 17  1  0
  8 18  1  0
  9 19  1  0
 11 20  1  0
 11 21  1  0
 11 22  1  0
 12 23  1  0
 12 24  1  0
 12 25  1  0
 15 26  1  0
 16 27  1  0
 16 28  1  0
 16 29  1  0
M  END
> <DSSTox_RID>
40349

> <DSSTox_CID>
12327

> <DSSTox_Generic_SID>
32327

> <DSSTox_FileID>
25_TOXCST_v3a

> <STRUCTURE_Formula>
C11H13NO4

> <STRUCTURE_MolecularWeight>
223.2252

> <STRUCTURE_ChemicalType>
defined organic

> <STRUCTURE_TestedForm_DefinedOrganic>
parent

> <STRUCTURE_Shown>
tested chemical

> <TestSubstance_ChemicalName>
Bendiocarb

> <Source_ChemicalName>
Bendiocarb

> <TestSubstance_CASRN>
22781-23-3

> <TestSubstance_Description>
single chemical compound

> <STRUCTURE_ChemicalName_IUPAC>
2,2-dimethyl-1,3-benzodioxol-4-yl methylcarbamate

> <STRUCTURE_SMILES>
O=C(NC)OC1=CC=CC2=C1OC(C)(C)O2

> <STRUCTURE_Parent_SMILES>
O=C(NC)OC1=CC=CC2=C1OC(C)(C)O2

> <STRUCTURE_InChI>
InChI=1S/C11H13NO4/c1-11(2)15-8-6-4-5-7(9(8)16-11)14-10(13)12-3/h4-6H,1-3H3,(H,12,13)

> <STRUCTURE_InChIKey>
XEGGRYVFLWGFHI-UHFFFAOYSA-N

> <Substance_modify_yyyymmdd>
20080429

> <DSSTox_CID_Parent>
12327

> <ChemicalReplicateCount>
1

> <Coord_Metals>
0

> <Index>
25

> <Canonical_Smiles>
CNC(=O)Oc1cccc2OC(C)(C)Oc12

> <Molecular_Weight>
223.22521

> <Frequency>
1

$$$$

  SciTegic          2D

 39 39  0  0  0  0            999 V2000
    1.2990   -0.7500    0.0000 C   0  0
    0.0000    1.5000    0.0000 C   0  0
    1.2990    0.7500    0.0000 C   0  0
   -0.0031    3.0008    0.0000 N   0  0
    2.5973   -1.5031    0.0000 N   0  0
   -2.5988   -1.5004    0.0000 C   0  0
   -1.2990   -0.7500    0.0000 C   0  0
    0.0000   -1.5000    0.0000 C   0  0
   -1.2990    0.7500    0.0000 C   0  0
    2.5972    1.5031    0.0000 N   0  0
    1.0345    3.6036    0.0000 O   0  0
    2.5956   -2.7031    0.0000 O   0  0
    3.4642   -1.0046    0.0000 O   0  0
   -1.0438    3.5984    0.0000 O   0  0
   -2.5995   -2.7004    0.0000 F   0  0
   -3.6378   -0.9001    0.0000 F   0  0
   -3.6383   -2.0999    0.0000 F   0  0
    3.8968    0.7523    0.0000 C   0  0
    2.5951    3.0039    0.0000 C   0  0
    3.8933    3.7570    0.0000 C   0  0
    3.8912    5.2578    0.0000 C   0  0
    5.1972    1.5015    0.0000 C   0  0
    5.1894    6.0109    0.0000 C   0  0
    0.0000   -2.5000    0.0000 H   0  0
   -2.1651    1.2500    0.0000 H   0  0
    3.0305    0.2527    0.0000 H   0  0
    3.8961   -0.2477    0.0000 H   0  0
    1.7299    2.5026    0.0000 H   0  0
    1.7282    3.5024    0.0000 H   0  0
    3.8952    2.7570    0.0000 H   0  0
    4.7602    3.2585    0.0000 H   0  0
    3.0259    4.7565    0.0000 H   0  0
    3.0243    5.7563    0.0000 H   0  0
    6.0631    1.0012    0.0000 H   0  0
    6.0635    2.0011    0.0000 H   0  0
    5.1979    2.5015    0.0000 H   0  0
    5.1879    7.0109    0.0000 H   0  0
    6.0546    6.5123    0.0000 H   0  0
    6.0563    5.5125    0.0000 H   0  0
  1  3  2  0
  1  5  1  0
  1  8  1  0
  2  3  1  0
  2  4  1  0
  2  9  2  0
  3 10  1  0
  4 11  2  0
  4 14  2  0
  5 12  2  0
  5 13  2  0
  6  7  1  0
  6 15  1  0
  6 16  1  0
  6 17  1  0
  7  8  2  0
  7  9  1  0
 10 18  1  0
 10 19  1  0
 18 22  1  0
 19 20  1  0
 20 21  1  0
 21 23  1  0
  8 24  1  0
  9 25  1  0
 18 26  1  0
 18 27  1  0
 19 28  1  0
 19 29  1  0
 20 30  1  0
 20 31  1  0
 21 32  1  0
 21 33  1  0
 22 34  1  0
 22 35  1  0
 22 36  1  0
 23 37  1  0
 23 38  1  0
 23 39  1  0
M  END
> <DSSTox_RID>
40350

> <DSSTox_CID>
3899

> <DSSTox_Generic_SID>
23899

> <DSSTox_FileID>
26_TOXCST_v3a

> <STRUCTURE_Formula>
C13H16F3N3O4

> <STRUCTURE_MolecularWeight>
335.279

> <STRUCTURE_ChemicalType>
defined organic

> <STRUCTURE_TestedForm_DefinedOrganic>
parent

> <STRUCTURE_Shown>
tested chemical

> <TestSubstance_ChemicalName>
Benfluralin

> <Source_ChemicalName>
Benfluralin

> <TestSubstance_CASRN>
1861-40-1

> <TestSubstance_Description>
single chemical compound

> <STRUCTURE_ChemicalName_IUPAC>
N-butyl-N-ethyl-2,6-dinitro-4-(trifluoromethyl)aniline

> <STRUCTURE_SMILES>
[O-][N+](=O)c1cc(cc([N+]([O-])=O)c1N(CCCC)CC)C(F)(F)F

> <STRUCTURE_Parent_SMILES>
[O-][N+](=O)c1cc(cc([N+]([O-])=O)c1N(CCCC)CC)C(F)(F)F

> <STRUCTURE_InChI>
InChI=1S/C13H16F3N3O4/c1-3-5-6-17(4-2)12-10(18(20)21)7-9(13(14,15)16)8-11(12)19(22)23/h7-8H,3-6H2,1-2H3

> <STRUCTURE_InChIKey>
SMDHCQAYESWHAE-UHFFFAOYSA-N

> <Substance_modify_yyyymmdd>
20080429

> <DSSTox_CID_Parent>
3899

> <ChemicalReplicateCount>
1

> <Coord_Metals>
0

> <Index>
26

> <Canonical_Smiles>
CCCCN(CC)c1c(cc(cc1N(=O)=O)C(F)(F)F)N(=O)=O

> <Molecular_Weight>
335.27904

> <Frequency>
1

$$$$

  SciTegic          2D

 39 40  0  0  0  0            999 V2000
    2.5889    0.0182    0.0000 C   0  0
    1.7138    1.2033    0.0000 N   0  0
    1.7138   -1.2033    0.0000 N   0  0
    4.0872    0.0320    0.0000 N   0  0
    2.1812    2.6271    0.0000 C   0  0
    0.2917    0.7475    0.0000 C   0  0
    0.2917   -0.7475    0.0000 C   0  0
    4.8506   -1.2602    0.0000 C   0  0
    1.3808    3.5211    0.0000 O   0  0
    4.2606   -2.3052    0.0000 O   0  0
    3.6500    2.9355    0.0000 N   0  0
    6.3513   -1.2462    0.0000 O   0  0
   -1.0028    1.5132    0.0000 C   0  0
   -1.0028   -1.5132    0.0000 C   0  0
    4.1182    4.3614    0.0000 C   0  0
    7.1146   -2.5384    0.0000 C   0  0
    5.5870    4.6698    0.0000 C   0  0
    6.0553    6.0958    0.0000 C   0  0
   -2.3155    0.7475    0.0000 C   0  0
   -2.3155   -0.7475    0.0000 C   0  0
    7.5241    6.4042    0.0000 C   0  0
    4.5789    0.9028    0.0000 H   0  0
    4.3171    2.1905    0.0000 H   0  0
   -0.9997    2.5132    0.0000 H   0  0
   -0.9997   -2.5132    0.0000 H   0  0
    3.4512    5.1065    0.0000 H   0  0
    3.1395    4.1564    0.0000 H   0  0
    8.1146   -2.5291    0.0000 H   0  0
    6.6230   -3.4092    0.0000 H   0  0
    7.6228   -3.3997    0.0000 H   0  0
    6.2541    3.9248    0.0000 H   0  0
    5.2755    3.7196    0.0000 H   0  0
    5.3882    6.8408    0.0000 H   0  0
    5.0765    5.8907    0.0000 H   0  0
   -3.1826    1.2456    0.0000 H   0  0
   -3.1826   -1.2456    0.0000 H   0  0
    7.8360    7.3543    0.0000 H   0  0
    8.1911    5.6592    0.0000 H   0  0
    8.5028    6.6092    0.0000 H   0  0
  1  2  1  0
  1  3  2  0
  1  4  1  0
  2  5  1  0
  2  6  1  0
  3  7  1  0
  4  8  1  0
  5  9  2  0
  5 11  1  0
  6 13  2  0
  6  7  1  0
  7 14  2  0
  8 10  2  0
  8 12  1  0
 11 15  1  0
 12 16  1  0
 13 19  1  0
 14 20  1  0
 15 17  1  0
 17 18  1  0
 18 21  1  0
 19 20  2  0
  4 22  1  0
 11 23  1  0
 13 24  1  0
 14 25  1  0
 15 26  1  0
 15 27  1  0
 16 28  1  0
 16 29  1  0
 16 30  1  0
 17 31  1  0
 17 32  1  0
 18 33  1  0
 18 34  1  0
 19 35  1  0
 20 36  1  0
 21 37  1  0
 21 38  1  0
 21 39  1  0
M  END
> <DSSTox_RID>
40351

> <DSSTox_CID>
3900

> <DSSTox_Generic_SID>
23900

> <DSSTox_FileID>
27_TOXCST_v3a

> <STRUCTURE_Formula>
C14H18N4O3

> <STRUCTURE_MolecularWeight>
290.3177

> <STRUCTURE_ChemicalType>
defined organic

> <STRUCTURE_TestedForm_DefinedOrganic>
parent

> <STRUCTURE_Shown>
tested chemical

> <TestSubstance_ChemicalName>
Benomyl

> <Source_ChemicalName>
Benomyl

> <TestSubstance_CASRN>
17804-35-2

> <TestSubstance_Description>
single chemical compound

> <STRUCTURE_ChemicalName_IUPAC>
methyl {1-[(butylamino)carbonyl]-1H-benzimidazol-2-yl}carbamate

> <STRUCTURE_SMILES>
CCCCNC(=O)n1c2ccccc2nc1NC(=O)OC

> <STRUCTURE_Parent_SMILES>
CCCCNC(=O)n1c2ccccc2nc1NC(=O)OC

> <STRUCTURE_InChI>
InChI=1S/C14H18N4O3/c1-3-4-9-15-13(19)18-11-8-6-5-7-10(11)16-12(18)17-14(20)21-2/h5-8H,3-4,9H2,1-2H3,(H,15,19)(H,16,17,20)

> <STRUCTURE_InChIKey>
RIOXQFHNBCKOKP-UHFFFAOYSA-N

> <Substance_modify_yyyymmdd>
20080429

> <DSSTox_CID_Parent>
3900

> <ChemicalReplicateCount>
1

> <Coord_Metals>
0

> <Index>
27

> <Canonical_Smiles>
CCCCNC(=O)n1c(NC(=O)OC)nc2ccccc12

> <Molecular_Weight>
290.31772

> <Frequency>
1

$$$$

  SciTegic          2D

 46 47  0  0  0  0            999 V2000
    1.2990   -0.7500    0.0000 C   0  0
    1.2990    0.7500    0.0000 C   0  0
    0.0000   -1.5000    0.0000 C   0  0
    2.5973   -1.5031    0.0000 C   0  0
    2.5988    1.5004    0.0000 C   0  0
    0.0000    1.5000    0.0000 C   0  0
   -1.2990   -0.7500    0.0000 C   0  0
    2.5951   -3.0039    0.0000 O   0  0
    3.6375   -0.9049    0.0000 O   0  0
    3.8990    0.7508    0.0000 S   0  0
   -1.2990    0.7500    0.0000 C   0  0
    3.8933   -3.7570    0.0000 C   0  0
    5.1988    1.5013    0.0000 N   0  0
    3.8994   -0.4492    0.0000 O   0  0
    4.9383    0.1510    0.0000 O   0  0
    6.4990    0.7517    0.0000 C   0  0
    7.7987    1.5021    0.0000 N   0  0
    6.4994   -0.4483    0.0000 O   0  0
    9.0990    0.7525    0.0000 C   0  0
   10.3991    1.5007    0.0000 N   0  0
    9.0970   -0.7475    0.0000 N   0  0
   11.6971    0.7488    0.0000 C   0  0
   10.3949   -1.4993    0.0000 C   0  0
   11.6950   -0.7512    0.0000 C   0  0
   12.9964    1.5001    0.0000 O   0  0
   10.3898   -3.0002    0.0000 O   0  0
   12.9963    3.0009    0.0000 C   0  0
    9.0879   -3.7469    0.0000 C   0  0
    0.0000   -2.5000    0.0000 H   0  0
    1.7327    2.0003    0.0000 H   0  0
    2.5985    2.5004    0.0000 H   0  0
    0.0000    2.5000    0.0000 H   0  0
   -2.1651   -1.2500    0.0000 H   0  0
   -2.1651    1.2500    0.0000 H   0  0
    3.8919   -4.7570    0.0000 H   0  0
    4.7586   -4.2584    0.0000 H   0  0
    4.7602   -3.2585    0.0000 H   0  0
    5.1984    2.5013    0.0000 H   0  0
    7.7984    2.5021    0.0000 H   0  0
   12.5604   -1.2524    0.0000 H   0  0
   13.8620    3.5015    0.0000 H   0  0
   12.1301    3.5006    0.0000 H   0  0
   12.9958    4.0009    0.0000 H   0  0
    9.0845   -4.7469    0.0000 H   0  0
    8.2234   -3.2442    0.0000 H   0  0
    8.2202   -4.2441    0.0000 H   0  0
  1  2  2  0
  1  3  1  0
  1  4  1  0
  2  5  1  0
  2  6  1  0
  3  7  2  0
  4  8  1  0
  4  9  2  0
  5 10  1  0
  6 11  2  0
  7 11  1  0
  8 12  1  0
 10 13  1  0
 10 14  2  0
 10 15  2  0
 13 16  1  0
 16 17  1  0
 16 18  2  0
 17 19  1  0
 19 20  2  0
 19 21  1  0
 20 22  1  0
 21 23  2  0
 22 24  2  0
 22 25  1  0
 23 26  1  0
 23 24  1  0
 25 27  1  0
 26 28  1  0
  3 29  1  0
  5 30  1  0
  5 31  1  0
  6 32  1  0
  7 33  1  0
 11 34  1  0
 12 35  1  0
 12 36  1  0
 12 37  1  0
 13 38  1  0
 17 39  1  0
 24 40  1  0
 27 41  1  0
 27 42  1  0
 27 43  1  0
 28 44  1  0
 28 45  1  0
 28 46  1  0
M  END
> <DSSTox_RID>
40352

> <DSSTox_CID>
4164

> <DSSTox_Generic_SID>
24164

> <DSSTox_FileID>
28_TOXCST_v3a

> <STRUCTURE_Formula>
C16H18N4O7S

> <STRUCTURE_MolecularWeight>
410.4017

> <STRUCTURE_ChemicalType>
defined organic

> <STRUCTURE_TestedForm_DefinedOrganic>
parent

> <STRUCTURE_Shown>
tested chemical

> <TestSubstance_ChemicalName>
Bensulfuron-methyl

> <Source_ChemicalName>
Bensulfuron-methyl

> <TestSubstance_CASRN>
83055-99-6

> <TestSubstance_Description>
single chemical compound

> <STRUCTURE_ChemicalName_IUPAC>
methyl 2-{[({[(4,6-dimethoxypyrimidin-2-yl)amino]carbonyl}amino)sulfonyl]methyl}benzoate

> <STRUCTURE_SMILES>
O=C(Nc1nc(cc(OC)n1)OC)NS(=O)(=O)Cc2ccccc2C(=O)OC

> <STRUCTURE_Parent_SMILES>
O=C(Nc1nc(cc(OC)n1)OC)NS(=O)(=O)Cc2ccccc2C(=O)OC

> <STRUCTURE_InChI>
InChI=1S/C16H18N4O7S/c1-25-12-8-13(26-2)18-15(17-12)19-16(22)20-28(23,24)9-10-6-4-5-7-11(10)14(21)27-3/h4-8H,9H2,1-3H3,(H2,17,18,19,20,22)

> <STRUCTURE_InChIKey>
XMQFTWRPUQYINF-UHFFFAOYSA-N

> <Substance_modify_yyyymmdd>
20080429

> <DSSTox_CID_Parent>
4164

> <ChemicalReplicateCount>
1

> <Coord_Metals>
0

> <Index>
28

> <Canonical_Smiles>
COC(=O)c1ccccc1CS(=O)(=O)NC(=O)Nc2nc(OC)cc(OC)n2

> <Molecular_Weight>
410.40172

> <Frequency>
1

$$$$

  SciTegic          2D

 47 47  0  0  0  0            999 V2000
    9.0990   -0.7525    0.0000 P   0  0
   10.3987   -1.5029    0.0000 O   0  0
    9.0995    0.7483    0.0000 O   0  0
    7.7988   -1.5020    0.0000 S   0  0
    9.0986   -1.9525    0.0000 S   0  0
    7.8004    1.4999    0.0000 C   0  0
    7.8009    3.0008    0.0000 C   0  0
    6.5003    0.7504    0.0000 C   0  0
   11.6990   -0.7533    0.0000 C   0  0
   12.9987   -1.5037    0.0000 C   0  0
   11.6994    0.7475    0.0000 C   0  0
    7.7969   -3.0029    0.0000 C   0  0
    6.4966   -3.7525    0.0000 C   0  0
    6.4947   -5.2533    0.0000 N   0  0
    5.1945   -6.0029    0.0000 S   0  0
    4.1558   -5.4019    0.0000 O   0  0
    5.1954   -4.8029    0.0000 O   0  0
    5.1926   -7.5037    0.0000 C   0  0
    6.4907   -8.2553    0.0000 C   0  0
    3.8926   -8.2521    0.0000 C   0  0
    6.4888   -9.7553    0.0000 C   0  0
    3.8907   -9.7520    0.0000 C   0  0
    5.1888  -10.5037    0.0000 C   0  0
    8.6668    1.9994    0.0000 H   0  0
    6.9353    3.5016    0.0000 H   0  0
    7.8017    4.0008    0.0000 H   0  0
    8.6672    3.5002    0.0000 H   0  0
    6.4990   -0.2496    0.0000 H   0  0
    5.6337    0.2513    0.0000 H   0  0
    5.6347    1.2512    0.0000 H   0  0
   11.6986   -1.7533    0.0000 H   0  0
   13.8651   -1.0042    0.0000 H   0  0
   12.9984   -2.5037    0.0000 H   0  0
   13.8645   -2.0041    0.0000 H   0  0
   10.8339    1.2483    0.0000 H   0  0
   11.7002    1.7475    0.0000 H   0  0
   12.5658    1.2469    0.0000 H   0  0
    8.6624   -3.5037    0.0000 H   0  0
    8.6634   -2.5038    0.0000 H   0  0
    5.6311   -3.2516    0.0000 H   0  0
    5.6300   -4.2515    0.0000 H   0  0
    7.3603   -5.7541    0.0000 H   0  0
    7.3573   -7.7564    0.0000 H   0  0
    3.0272   -7.7510    0.0000 H   0  0
    7.3542  -10.2564    0.0000 H   0  0
    3.0240  -10.2510    0.0000 H   0  0
    5.1875  -11.5037    0.0000 H   0  0
  1  2  1  0
  1  3  1  0
  1  5  2  0
  1  4  1  0
  2  9  1  0
  3  6  1  0
  4 12  1  0
  6  7  1  0
  6  8  1  0
  9 10  1  0
  9 11  1  0
 12 13  1  0
 13 14  1  0
 14 15  1  0
 15 16  2  0
 15 17  2  0
 15 18  1  0
 18 19  2  0
 18 20  1  0
 19 21  1  0
 20 22  2  0
 21 23  2  0
 22 23  1  0
  6 24  1  0
  7 25  1  0
  7 26  1  0
  7 27  1  0
  8 28  1  0
  8 29  1  0
  8 30  1  0
  9 31  1  0
 10 32  1  0
 10 33  1  0
 10 34  1  0
 11 35  1  0
 11 36  1  0
 11 37  1  0
 12 38  1  0
 12 39  1  0
 13 40  1  0
 13 41  1  0
 14 42  1  0
 19 43  1  0
 20 44  1  0
 21 45  1  0
 22 46  1  0
 23 47  1  0
M  END
> <DSSTox_RID>
40353
40757
40758

> <DSSTox_CID>
12329
12329
12329

> <DSSTox_Generic_SID>
32329
32329
32329

> <DSSTox_FileID>
29_TOXCST_v3a
30_TOXCST_v3a
31_TOXCST_v3a

> <STRUCTURE_Formula>
C14H24NO4PS3
C14H24NO4PS3
C14H24NO4PS3

> <STRUCTURE_MolecularWeight>
397.5134
397.5134
397.5134

> <STRUCTURE_ChemicalType>
defined organic
defined organic
defined organic

> <STRUCTURE_TestedForm_DefinedOrganic>
parent
parent
parent

> <STRUCTURE_Shown>
tested chemical
tested chemical
tested chemical

> <TestSubstance_ChemicalName>
Bensulide
Bensulide
Bensulide

> <Source_ChemicalName>
Bensulide
Bensulide
Bensulide

> <TestSubstance_CASRN>
741-58-2
741-58-2
741-58-2

> <TestSubstance_Description>
single chemical compound
single chemical compound
single chemical compound

> <STRUCTURE_ChemicalName_IUPAC>
O,O-diisopropyl S-{2-[(phenylsulfonyl)amino]ethyl} dithiophosphate
O,O-diisopropyl S-{2-[(phenylsulfonyl)amino]ethyl} dithiophosphate
O,O-diisopropyl S-{2-[(phenylsulfonyl)amino]ethyl} dithiophosphate

> <STRUCTURE_SMILES>
S(=O)(=O)(C1=CC=CC=C1)NCCSP(=S)(OC(C)C)OC(C)C
S(=O)(=O)(C1=CC=CC=C1)NCCSP(=S)(OC(C)C)OC(C)C
S(=O)(=O)(C1=CC=CC=C1)NCCSP(=S)(OC(C)C)OC(C)C

> <STRUCTURE_Parent_SMILES>
S(=O)(=O)(C1=CC=CC=C1)NCCSP(=S)(OC(C)C)OC(C)C
S(=O)(=O)(C1=CC=CC=C1)NCCSP(=S)(OC(C)C)OC(C)C
S(=O)(=O)(C1=CC=CC=C1)NCCSP(=S)(OC(C)C)OC(C)C

> <STRUCTURE_InChI>
InChI=1S/C14H24NO4PS3/c1-12(2)18-20(21,19-13(3)4)22-11-10-15-23(16,17)14-8-6-5-7-9-14/h5-9,12-13,15H,10-11H2,1-4H3
InChI=1S/C14H24NO4PS3/c1-12(2)18-20(21,19-13(3)4)22-11-10-15-23(16,17)14-8-6-5-7-9-14/h5-9,12-13,15H,10-11H2,1-4H3
InChI=1S/C14H24NO4PS3/c1-12(2)18-20(21,19-13(3)4)22-11-10-15-23(16,17)14-8-6-5-7-9-14/h5-9,12-13,15H,10-11H2,1-4H3

> <STRUCTURE_InChIKey>
RRNIZKPFKNDSRS-UHFFFAOYSA-N
RRNIZKPFKNDSRS-UHFFFAOYSA-N
RRNIZKPFKNDSRS-UHFFFAOYSA-N

> <Substance_modify_yyyymmdd>
20080429
20080429
20080429

> <DSSTox_CID_Parent>
12329
12329
12329

> <ChemicalReplicateCount>
1 of 3
2 of 3
3 of 3

> <Relationship_CID>
triplicate of 12329
triplicate of 12329
triplicate of 12329

> <Coord_Metals>
0
0
0

> <Index>
29
30
31

> <Canonical_Smiles>
CC(C)OP(=S)(OC(C)C)SCCNS(=O)(=O)c1ccccc1

> <Molecular_Weight>
397.51342
397.51342
397.51342

> <Frequency>
3

$$$$

  SciTegic          2D

 28 29  0  0  0  0            999 V2000
   -2.6111    0.7486    0.0000 S   0  0
   -2.6111   -0.7486    0.0000 N   0  0
   -1.2964   -1.4973    0.0000 C   0  0
   -1.2964    1.4973    0.0000 N   0  0
    0.0000   -0.7486    0.0000 C   0  0
    0.0000    0.7486    0.0000 C   0  0
   -2.5795    1.9482    0.0000 O   0  0
   -3.6380    0.1277    0.0000 O   0  0
   -1.2928   -2.6973    0.0000 O   0  0
   -3.9106   -1.4992    0.0000 C   0  0
    1.2964   -1.4973    0.0000 C   0  0
    1.2964    1.4973    0.0000 C   0  0
   -5.2109   -0.7498    0.0000 C   0  0
   -3.9099   -3.0000    0.0000 C   0  0
    2.5929   -0.7486    0.0000 C   0  0
    2.5929    0.7486    0.0000 C   0  0
   -1.2934    2.4973    0.0000 H   0  0
   -3.9111   -0.4992    0.0000 H   0  0
    1.2964   -2.4973    0.0000 H   0  0
    1.2964    2.4973    0.0000 H   0  0
   -6.0769   -1.2499    0.0000 H   0  0
   -5.2114    0.2502    0.0000 H   0  0
   -6.0771   -0.2501    0.0000 H   0  0
   -4.7754   -3.5009    0.0000 H   0  0
   -3.0435   -3.4993    0.0000 H   0  0
   -3.9090   -4.0000    0.0000 H   0  0
    3.4589   -1.2486    0.0000 H   0  0
    3.4589    1.2486    0.0000 H   0  0
  1  2  1  0
  1  4  1  0
  1  7  2  0
  1  8  2  0
  2  3  1  0
  2 10  1  0
  3  9  2  0
  3  5  1  0
  4  6  1  0
  5  6  2  0
  5 11  1  0
  6 12  1  0
 10 13  1  0
 10 14  1  0
 11 15  2  0
 12 16  2  0
 15 16  1  0
  4 17  1  0
 10 18  1  0
 11 19  1  0
 12 20  1  0
 13 21  1  0
 13 22  1  0
 13 23  1  0
 14 24  1  0
 14 25  1  0
 14 26  1  0
 15 27  1  0
 16 28  1  0
M  END
> <DSSTox_RID>
40354

> <DSSTox_CID>
3901

> <DSSTox_Generic_SID>
23901

> <DSSTox_FileID>
32_TOXCST_v3a

> <STRUCTURE_Formula>
C10H12N2O3S

> <STRUCTURE_MolecularWeight>
240.2789

> <STRUCTURE_ChemicalType>
defined organic

> <STRUCTURE_TestedForm_DefinedOrganic>
parent

> <STRUCTURE_Shown>
tested chemical

> <TestSubstance_ChemicalName>
Bentazone

> <Source_ChemicalName>
Bentazone

> <TestSubstance_CASRN>
25057-89-0

> <TestSubstance_Description>
single chemical compound

> <STRUCTURE_ChemicalName_IUPAC>
3-isopropyl-1H-2,1,3-benzothiadiazin-4(3H)-one 2,2-dioxide

> <STRUCTURE_SMILES>
CC(C)N1C(=O)c2ccccc2NS1(=O)=O

> <STRUCTURE_Parent_SMILES>
CC(C)N1C(=O)c2ccccc2NS1(=O)=O

> <STRUCTURE_InChI>
InChI=1S/C10H12N2O3S/c1-7(2)12-10(13)8-5-3-4-6-9(8)11-16(12,14)15/h3-7,11H,1-2H3

> <STRUCTURE_InChIKey>
ZOMSMJKLGFBRBS-UHFFFAOYSA-N

> <Substance_modify_yyyymmdd>
20080429

> <DSSTox_CID_Parent>
3901

> <ChemicalReplicateCount>
1

> <Coord_Metals>
0

> <Index>
32

> <Canonical_Smiles>
CC(C)N1C(=O)c2ccccc2NS1(=O)=O

> <Molecular_Weight>
240.27887

> <Frequency>
1

$$$$

  SciTegic          2D

 42 43  0  0  0  0            999 V2000
   -2.6078    5.9988    0.0000 O   0  0
   -1.3070    5.2502    0.0000 C   0  0
   -1.3039    3.7494    0.0000 N   0  0
   -0.0031    3.0008    0.0000 N   0  0
    1.2990   -0.7500    0.0000 C   0  0
    1.2990    0.7500    0.0000 C   0  0
    0.0000   -1.5000    0.0000 C   0  0
    0.0000    1.5000    0.0000 C   0  0
   -1.2990   -0.7500    0.0000 C   0  0
   -1.2990    0.7500    0.0000 C   0  0
    2.5987   -1.5004    0.0000 C   0  0
    3.8991   -0.7525    0.0000 C   0  0
    2.5965   -3.0004    0.0000 C   0  0
    5.1969   -1.5045    0.0000 C   0  0
    3.8943   -3.7525    0.0000 C   0  0
    5.1945   -3.0045    0.0000 C   0  0
   -2.6003    1.4977    0.0000 O   0  0
   -3.8990    0.7455    0.0000 C   0  0
   -0.2688    5.8520    0.0000 O   0  0
   -2.6109    7.4996    0.0000 C   0  0
   -3.9118    8.2481    0.0000 C   0  0
   -3.9332    6.7298    0.0000 C   0  0
   -2.1691    3.2479    0.0000 H   0  0
    0.8620    3.5023    0.0000 H   0  0
    2.1651    1.2500    0.0000 H   0  0
    0.0000   -2.5000    0.0000 H   0  0
   -2.1651   -1.2500    0.0000 H   0  0
    3.9007    0.2475    0.0000 H   0  0
    1.7297   -3.4991    0.0000 H   0  0
    6.0637   -1.0059    0.0000 H   0  0
    3.8927   -4.7525    0.0000 H   0  0
    6.0598   -3.5059    0.0000 H   0  0
   -4.7661    1.2437    0.0000 H   0  0
   -3.8973   -0.2545    0.0000 H   0  0
   -4.7641    0.2438    0.0000 H   0  0
   -1.7458    8.0011    0.0000 H   0  0
   -3.9138    9.2481    0.0000 H   0  0
   -4.7787    8.7465    0.0000 H   0  0
   -4.7769    7.7466    0.0000 H   0  0
   -3.9301    5.7298    0.0000 H   0  0
   -4.7976    6.2271    0.0000 H   0  0
   -4.8008    7.2270    0.0000 H   0  0
  1  2  1  0
  1 20  1  0
  2  3  1  0
  2 19  2  0
  3  4  1  0
  4  8  1  0
  5 11  1  0
  5  6  2  0
  5  7  1  0
  6  8  1  0
  7  9  2  0
  8 10  2  0
  9 10  1  0
 10 17  1  0
 11 12  2  0
 11 13  1  0
 12 14  1  0
 13 15  2  0
 14 16  2  0
 15 16  1  0
 17 18  1  0
 20 21  1  0
 20 22  1  0
  3 23  1  0
  4 24  1  0
  6 25  1  0
  7 26  1  0
  9 27  1  0
 12 28  1  0
 13 29  1  0
 14 30  1  0
 15 31  1  0
 16 32  1  0
 18 33  1  0
 18 34  1  0
 18 35  1  0
 20 36  1  0
 21 37  1  0
 21 38  1  0
 21 39  1  0
 22 40  1  0
 22 41  1  0
 22 42  1  0
M  END
> <DSSTox_RID>
40359

> <DSSTox_CID>
12525

> <DSSTox_Generic_SID>
32525

> <DSSTox_FileID>
33_TOXCST_v3a

> <STRUCTURE_Formula>
C17H20N2O3

> <STRUCTURE_MolecularWeight>
300.3523

> <STRUCTURE_ChemicalType>
defined organic

> <STRUCTURE_TestedForm_DefinedOrganic>
parent

> <STRUCTURE_Shown>
tested chemical

> <TestSubstance_ChemicalName>
Bifenazate

> <Source_ChemicalName>
Bifenazate

> <TestSubstance_CASRN>
149877-41-8

> <TestSubstance_Description>
single chemical compound

> <STRUCTURE_ChemicalName_IUPAC>
isopropyl 2-(4-methoxybiphenyl-3-yl)hydrazinecarboxylate

> <STRUCTURE_SMILES>
O=C(NNC1=C(OC)C=CC(C2=CC=CC=C2)=C1)OC(C)C

> <STRUCTURE_Parent_SMILES>
O=C(NNC1=C(OC)C=CC(C2=CC=CC=C2)=C1)OC(C)C

> <STRUCTURE_InChI>
InChI=1S/C17H20N2O3/c1-12(2)22-17(20)19-18-15-11-14(9-10-16(15)21-3)13-7-5-4-6-8-13/h4-12,18H,1-3H3,(H,19,20)

> <STRUCTURE_InChIKey>
VHLKTXFWDRXILV-UHFFFAOYSA-N

> <Substance_modify_yyyymmdd>
20080429

> <DSSTox_CID_Parent>
12525

> <ChemicalReplicateCount>
1

> <Coord_Metals>
0

> <Index>
33

> <Canonical_Smiles>
COc1ccc(cc1NNC(=O)OC(C)C)c2ccccc2

> <Molecular_Weight>
300.3523

> <Frequency>
1

$$$$

  SciTegic          2D

 51 53  0  0  0  0            999 V2000
    5.7496   -0.4145    0.0000 C   0  0
    7.2496   -0.4138    0.0000 C   0  0
    6.4990    0.7517    0.0000 C   0  0
    8.2627   -1.5356    0.0000 C   0  0
   10.7459   -2.3060    0.0000 C   0  0
    9.7265   -1.2045    0.0000 C   0  0
    5.9848    2.1617    0.0000 C   0  0
    8.8746    5.6149    0.0000 C   0  0
    9.8373    6.7652    0.0000 C   0  0
    6.9480    3.3126    0.0000 O   0  0
    7.3971    5.8735    0.0000 C   0  0
    4.8028    2.3689    0.0000 O   0  0
   11.3156    6.5065    0.0000 C   0  0
    6.4338    4.7226    0.0000 C   0  0
   11.9163   -2.0412    0.0000 F   0  0
   10.3903   -3.4521    0.0000 F   0  0
   11.5605   -3.1871    0.0000 F   0  0
    4.4494    0.3565    0.0000 C   0  0
    5.6956   -1.9255    0.0000 C   0  0
   10.0821   -0.0584    0.0000 Cl  0  0
    9.3225    8.1741    0.0000 C   0  0
    9.3897    4.2053    0.0000 C   0  0
    7.8449    8.4327    0.0000 C   0  0
    6.8822    7.2824    0.0000 C   0  0
   12.2803    7.6553    0.0000 C   0  0
   11.8283    5.0968    0.0000 C   0  0
   13.3054    4.8359    0.0000 C   0  0
   13.7574    7.3943    0.0000 C   0  0
   14.2700    5.9846    0.0000 C   0  0
    8.1093    0.0969    0.0000 H   0  0
    7.3649    1.2520    0.0000 H   0  0
    7.9663   -2.4907    0.0000 H   0  0
    5.4488    4.8953    0.0000 H   0  0
    5.7916    3.9560    0.0000 H   0  0
    4.4726    1.3562    0.0000 H   0  0
    3.5953    0.8766    0.0000 H   0  0
    3.5719   -0.1230    0.0000 H   0  0
    4.8183   -2.4055    0.0000 H   0  0
    5.6725   -2.9252    0.0000 H   0  0
    6.5498   -2.4455    0.0000 H   0  0
    9.9643    8.9410    0.0000 H   0  0
    8.7484    3.4380    0.0000 H   0  0
   10.3748    4.0332    0.0000 H   0  0
    9.7334    3.2662    0.0000 H   0  0
    7.5017    9.3719    0.0000 H   0  0
    5.8972    7.4548    0.0000 H   0  0
   11.9386    8.5951    0.0000 H   0  0
   11.1853    4.3309    0.0000 H   0  0
   13.6472    3.8961    0.0000 H   0  0
   14.4004    8.1602    0.0000 H   0  0
   15.2547    5.8107    0.0000 H   0  0
  1  2  1  0
  1  3  1  0
  1 18  1  0
  1 19  1  0
  4  2  1  0
  2  3  1  0
  3  7  1  0
  4  6  2  0
  5  6  1  0
  5 15  1  0
  5 16  1  0
  5 17  1  0
  6 20  1  0
  7 10  1  0
  7 12  2  0
  8 11  1  0
  8  9  2  0
  8 22  1  0
  9 13  1  0
  9 21  1  0
 10 14  1  0
 11 14  1  0
 11 24  2  0
 13 25  2  0
 13 26  1  0
 21 23  2  0
 23 24  1  0
 25 28  1  0
 26 27  2  0
 27 29  1  0
 28 29  2  0
  2 30  1  0
  3 31  1  0
  4 32  1  0
 14 33  1  0
 14 34  1  0
 18 35  1  0
 18 36  1  0
 18 37  1  0
 19 38  1  0
 19 39  1  0
 19 40  1  0
 21 41  1  0
 22 42  1  0
 22 43  1  0
 22 44  1  0
 23 45  1  0
 24 46  1  0
 25 47  1  0
 26 48  1  0
 27 49  1  0
 28 50  1  0
 29 51  1  0
M  END
> <DSSTox_RID>
40360

> <DSSTox_CID>
160

> <DSSTox_Generic_SID>
20160

> <DSSTox_FileID>
34_TOXCST_v3a

> <STRUCTURE_Formula>
C23H22ClF3O2

> <STRUCTURE_MolecularWeight>
422.8678

> <STRUCTURE_ChemicalType>
defined organic

> <STRUCTURE_TestedForm_DefinedOrganic>
parent

> <STRUCTURE_Shown>
tested chemical

> <TestSubstance_ChemicalName>
Bifenthrin

> <Source_ChemicalName>
Bifenthrin

> <TestSubstance_CASRN>
82657-04-3

> <TestSubstance_Description>
single chemical compound

> <ChemicalNote>
mixture of (1R,S) stereoisomers; = 97% Z isomer; stereochem

> <STRUCTURE_ChemicalName_IUPAC>
(2-methylbiphenyl-3-yl)methyl 3-[(1Z)-2-chloro-3,3,3-trifluoroprop-1-en-1-yl]-2,2-dimethylcyclopropanecarboxylate

> <STRUCTURE_SMILES>
O=C(OCC2=CC=CC(C3=CC=CC=C3)=C2C)C1C(C)(C)C1/C=C(Cl)/C(F)(F)F

> <STRUCTURE_Parent_SMILES>
O=C(OCC2=CC=CC(C3=CC=CC=C3)=C2C)C1C(C)(C)C1/C=C(Cl)/C(F)(F)F

> <STRUCTURE_InChI>
InChI=1S/C23H22ClF3O2/c1-14-16(10-7-11-17(14)15-8-5-4-6-9-15)13-29-21(28)20-18(22(20,2)3)12-19(24)23(25,26)27/h4-12,18,20H,13H2,1-3H3/b19-12-

> <STRUCTURE_InChIKey>
OMFRMAHOUUJSGP-UNOMPAQXSA-N

> <Substance_modify_yyyymmdd>
20080429

> <DSSTox_CID_Parent>
160

> <ChemicalReplicateCount>
1

> <Coord_Metals>
0

> <Index>
34

> <Canonical_Smiles>
Cc1c(COC(=O)C2C(C=C(Cl)C(F)(F)F)C2(C)C)cccc1c3ccccc3

> <Molecular_Weight>
422.86778

> <Frequency>
1

$$$$

  SciTegic          2D

 33 34  0  0  0  0            999 V2000
    4.1926   -2.4215    0.0000 C   0  0
    3.2283   -1.2715    0.0000 C   0  0
    1.7503   -1.5321    0.0000 C   0  0
    1.2372   -0.1226    0.0000 C   0  0
   -0.2400    0.1379    0.0000 C   0  0
   -1.2042   -1.0112    0.0000 C   0  0
   -0.6911   -2.4207    0.0000 C   0  0
    0.7861   -2.6812    0.0000 C   0  0
   -2.6827   -0.7536    0.0000 O   0  0
    3.7425    0.1385    0.0000 C   0  0
    5.2196   -0.1229    0.0000 C   0  0
    6.1845    1.0255    0.0000 C   0  0
    5.6723    2.4354    0.0000 C   0  0
    4.1953    2.6968    0.0000 C   0  0
    3.2304    1.5483    0.0000 C   0  0
    6.6354    3.5865    0.0000 O   0  0
    2.7012   -2.7078    0.0000 C   0  0
    5.1776   -2.2487    0.0000 H   0  0
    3.8500   -3.3609    0.0000 H   0  0
    4.8348   -3.1880    0.0000 H   0  0
    1.8800    0.6435    0.0000 H   0  0
   -0.5820    1.0776    0.0000 H   0  0
   -1.3339   -3.1868    0.0000 H   0  0
    1.1281   -3.6209    0.0000 H   0  0
   -3.3244   -1.5206    0.0000 H   0  0
    5.5610   -1.0628    0.0000 H   0  0
    7.1692    0.8513    0.0000 H   0  0
    3.8538    3.6367    0.0000 H   0  0
    2.2457    1.7226    0.0000 H   0  0
    6.2926    4.5259    0.0000 H   0  0
    1.7161   -2.8795    0.0000 H   0  0
    3.3422   -3.4754    0.0000 H   0  0
    2.3572   -3.6468    0.0000 H   0  0
  1  2  1  0
  2  3  1  0
  2 10  1  0
  2 17  1  0
  3  4  2  0
  3  8  1  0
  4  5  1  0
  5  6  2  0
  6  7  1  0
  6  9  1  0
  7  8  2  0
 10 11  2  0
 10 15  1  0
 11 12  1  0
 12 13  2  0
 13 14  1  0
 13 16  1  0
 14 15  2  0
  1 18  1  0
  1 19  1  0
  1 20  1  0
  4 21  1  0
  5 22  1  0
  7 23  1  0
  8 24  1  0
  9 25  1  0
 11 26  1  0
 12 27  1  0
 14 28  1  0
 15 29  1  0
 16 30  1  0
 17 31  1  0
 17 32  1  0
 17 33  1  0
M  END
> <DSSTox_RID>
40362

> <DSSTox_CID>
182

> <DSSTox_Generic_SID>
20182

> <DSSTox_FileID>
35_TOXCST_v3a

> <STRUCTURE_Formula>
C15H16O2

> <STRUCTURE_MolecularWeight>
228.2863

> <STRUCTURE_ChemicalType>
defined organic

> <STRUCTURE_TestedForm_DefinedOrganic>
parent

> <STRUCTURE_Shown>
tested chemical

> <TestSubstance_ChemicalName>
Bisphenol A

> <Source_ChemicalName>
Bisphenol A

> <TestSubstance_CASRN>
80-05-7

> <TestSubstance_Description>
single chemical compound

> <STRUCTURE_ChemicalName_IUPAC>
4,4'-propane-2,2-diyldiphenol

> <STRUCTURE_SMILES>
C(C1C=CC(=CC=1)O)(C2=CC=C(C=C2)O)(C)C

> <STRUCTURE_Parent_SMILES>
C(C1C=CC(=CC=1)O)(C2=CC=C(C=C2)O)(C)C

> <STRUCTURE_InChI>
InChI=1S/C15H16O2/c1-15(2,11-3-7-13(16)8-4-11)12-5-9-14(17)10-6-12/h3-10,16-17H,1-2H3

> <STRUCTURE_InChIKey>
IISBACLAFKSPIT-UHFFFAOYSA-N

> <Substance_modify_yyyymmdd>
20080429

> <DSSTox_CID_Parent>
182

> <ChemicalReplicateCount>
1

> <Coord_Metals>
0

> <Index>
35

> <Canonical_Smiles>
CC(C)(c1ccc(O)cc1)c2ccc(O)cc2

> <Molecular_Weight>
228.28633

> <Frequency>
1

$$$$

  SciTegic          2D

  7  6  0  0  0  0            999 V2000
    1.3000    0.7500    0.0000 O   0  0
    2.6000    0.0000    0.0000 B   0  0
    3.9000    0.7500    0.0000 O   0  0
    2.6031   -1.5008    0.0000 O   0  0
    0.4338    0.2503    0.0000 H   0  0
    4.7662    0.2503    0.0000 H   0  0
    3.4698   -1.9996    0.0000 H   0  0
  1  2  1  0
  2  3  1  0
  2  4  1  0
  1  5  1  0
  3  6  1  0
  4  7  1  0
M  END
> <DSSTox_RID>
40364

> <DSSTox_CID>
194

> <DSSTox_Generic_SID>
20194

> <DSSTox_FileID>
36_TOXCST_v3a

> <STRUCTURE_Formula>
H3BO3

> <STRUCTURE_MolecularWeight>
61.833

> <STRUCTURE_ChemicalType>
inorganic

> <STRUCTURE_Shown>
tested chemical

> <TestSubstance_ChemicalName>
Boric acid

> <Source_ChemicalName>
Boric acid

> <TestSubstance_CASRN>
10043-35-3

> <TestSubstance_Description>
single chemical compound

> <STRUCTURE_ChemicalName_IUPAC>
boric acid

> <STRUCTURE_SMILES>
OB(O)O

> <STRUCTURE_InChI>
InChI=1S/BH3O3/c2-1(3)4/h2-4H

> <STRUCTURE_InChIKey>
KGBXLFKZBHKPEV-UHFFFAOYSA-N

> <Substance_modify_yyyymmdd>
20080429

> <ChemicalReplicateCount>
1

> <Coord_Metals>
0

> <Index>
36

> <Canonical_Smiles>
OB(O)O

> <Molecular_Weight>
61.83302

> <Frequency>
1

$$$$

  SciTegic          2D

 35 37  0  0  0  0            999 V2000
    2.5973   -1.5031    0.0000 C   0  0
    1.2990   -0.7500    0.0000 C   0  0
    3.6375   -0.9049    0.0000 O   0  0
    0.0000    1.5000    0.0000 N   0  0
    1.2990    0.7500    0.0000 C   0  0
    0.0000   -1.5000    0.0000 C   0  0
   -1.2990    0.7500    0.0000 C   0  0
   -1.2990   -0.7500    0.0000 C   0  0
    2.5951   -3.0039    0.0000 N   0  0
    2.3383    1.3500    0.0000 Cl  0  0
    3.8934   -5.2570    0.0000 C   0  0
    2.5937   -6.0074    0.0000 C   0  0
    3.8933   -3.7570    0.0000 C   0  0
    5.1924   -6.0070    0.0000 C   0  0
    1.2934   -5.2595    0.0000 C   0  0
    2.5960   -7.5075    0.0000 C   0  0
    5.1925   -3.0070    0.0000 C   0  0
   -0.0045   -6.0116    0.0000 C   0  0
    1.2981   -8.2595    0.0000 C   0  0
    6.4915   -5.2571    0.0000 C   0  0
    6.4915   -3.7571    0.0000 C   0  0
   -0.0021   -7.5116    0.0000 C   0  0
   -1.0404   -8.1132    0.0000 Cl  0  0
    0.0000   -2.5000    0.0000 H   0  0
   -2.1651    1.2500    0.0000 H   0  0
   -2.1651   -1.2500    0.0000 H   0  0
    1.7282   -3.5024    0.0000 H   0  0
    5.1924   -7.0070    0.0000 H   0  0
    1.2918   -4.2595    0.0000 H   0  0
    3.4628   -8.0061    0.0000 H   0  0
    5.1925   -2.0070    0.0000 H   0  0
   -0.8713   -5.5129    0.0000 H   0  0
    1.2997   -9.2595    0.0000 H   0  0
    7.3575   -5.7571    0.0000 H   0  0
    7.3575   -3.2571    0.0000 H   0  0
  1  2  1  0
  1  3  2  0
  1  9  1  0
  2  5  1  0
  2  6  2  0
  4  5  2  0
  4  7  1  0
  5 10  1  0
  6  8  1  0
  7  8  2  0
  9 13  1  0
 11 12  1  0
 11 13  2  0
 11 14  1  0
 12 15  2  0
 12 16  1  0
 13 17  1  0
 14 20  2  0
 15 18  1  0
 16 19  2  0
 17 21  2  0
 18 22  2  0
 19 22  1  0
 20 21  1  0
 22 23  1  0
  6 24  1  0
  7 25  1  0
  8 26  1  0
  9 27  1  0
 14 28  1  0
 15 29  1  0
 16 30  1  0
 17 31  1  0
 18 32  1  0
 19 33  1  0
 20 34  1  0
 21 35  1  0
M  END
> <DSSTox_RID>
40365

> <DSSTox_CID>
14392

> <DSSTox_Generic_SID>
34392

> <DSSTox_FileID>
37_TOXCST_v3a

> <STRUCTURE_Formula>
C18H12Cl2N2O

> <STRUCTURE_MolecularWeight>
343.2067

> <STRUCTURE_ChemicalType>
defined organic

> <STRUCTURE_TestedForm_DefinedOrganic>
parent

> <STRUCTURE_Shown>
tested chemical

> <TestSubstance_ChemicalName>
Boscalid

> <Source_ChemicalName>
Boscalid

> <TestSubstance_CASRN>
188425-85-6

> <TestSubstance_Description>
single chemical compound

> <STRUCTURE_ChemicalName_IUPAC>
2-chloro-N-(4'-chlorobiphenyl-2-yl)nicotinamide

> <STRUCTURE_SMILES>
O=C(NC3=C(C=CC=C3)C2=CC=C(Cl)C=C2)C1=C(Cl)N=CC=C1

> <STRUCTURE_Parent_SMILES>
O=C(NC3=C(C=CC=C3)C2=CC=C(Cl)C=C2)C1=C(Cl)N=CC=C1

> <STRUCTURE_InChI>
InChI=1S/C18H12Cl2N2O/c19-13-9-7-12(8-10-13)14-4-1-2-6-16(14)22-18(23)15-5-3-11-21-17(15)20/h1-11H,(H,22,23)

> <STRUCTURE_InChIKey>
WYEMLYFITZORAB-UHFFFAOYSA-N

> <Substance_modify_yyyymmdd>
20080429

> <DSSTox_CID_Parent>
14392

> <ChemicalReplicateCount>
1

> <Coord_Metals>
0

> <Index>
37

> <Canonical_Smiles>
Clc1ccc(cc1)c2ccccc2NC(=O)c3cccnc3Cl

> <Molecular_Weight>
343.20668

> <Frequency>
1

$$$$

  SciTegic          2D

 27 27  0  0  0  0            999 V2000
    2.3383   -1.3500    0.0000 Br  0  0
    1.2990   -0.7500    0.0000 C   0  0
    1.2990    0.7500    0.0000 C   0  0
    2.5988    1.5004    0.0000 C   0  0
    0.0000    1.5000    0.0000 N   0  0
   -1.2990    0.7500    0.0000 C   0  0
   -2.3383    1.3500    0.0000 O   0  0
   -1.2990   -0.7500    0.0000 N   0  0
   -2.5988   -1.5004    0.0000 C   0  0
   -2.5983   -3.0012    0.0000 C   0  0
   -3.8990   -0.7508    0.0000 C   0  0
   -5.1988   -1.5013    0.0000 C   0  0
    0.0000   -1.5000    0.0000 C   0  0
    0.0000   -2.7000    0.0000 O   0  0
    3.4651    1.0010    0.0000 H   0  0
    2.5985    2.5004    0.0000 H   0  0
    3.4646    2.0008    0.0000 H   0  0
    0.0000    2.5000    0.0000 H   0  0
   -2.5991   -0.5004    0.0000 H   0  0
   -3.4639   -3.5020    0.0000 H   0  0
   -1.7320   -3.5006    0.0000 H   0  0
   -2.5975   -4.0012    0.0000 H   0  0
   -3.8993    0.2492    0.0000 H   0  0
   -3.0332   -0.2504    0.0000 H   0  0
   -6.0651   -1.0018    0.0000 H   0  0
   -5.1984   -2.5013    0.0000 H   0  0
   -6.0646   -2.0017    0.0000 H   0  0
  1  2  1  0
  2  3  2  0
  2 13  1  0
  3  4  1  0
  3  5  1  0
  5  6  1  0
  6  7  2  0
  6  8  1  0
  8  9  1  0
  8 13  1  0
  9 10  1  0
  9 11  1  0
 11 12  1  0
 13 14  2  0
  4 15  1  0
  4 16  1  0
  4 17  1  0
  5 18  1  0
  9 19  1  0
 10 20  1  0
 10 21  1  0
 10 22  1  0
 11 23  1  0
 11 24  1  0
 12 25  1  0
 12 26  1  0
 12 27  1  0
M  END
> <DSSTox_RID>
40366

> <DSSTox_CID>
2020

> <DSSTox_Generic_SID>
22020

> <DSSTox_FileID>
38_TOXCST_v3a

> <STRUCTURE_Formula>
C9H13BrN2O2

> <STRUCTURE_MolecularWeight>
261.1157

> <STRUCTURE_ChemicalType>
defined organic

> <STRUCTURE_TestedForm_DefinedOrganic>
parent

> <STRUCTURE_Shown>
tested chemical

> <TestSubstance_ChemicalName>
Bromacil

> <Source_ChemicalName>
Bromacil

> <TestSubstance_CASRN>
314-40-9

> <TestSubstance_Description>
single chemical compound

> <STRUCTURE_ChemicalName_IUPAC>
5-bromo-6-methyl-3-(1-methylpropyl)pyrimidine-2,4(1H,3H)-dione

> <STRUCTURE_SMILES>
BrC1=C(C)NC(=O)N(C(C)CC)C1=O

> <STRUCTURE_Parent_SMILES>
BrC1=C(C)NC(=O)N(C(C)CC)C1=O

> <STRUCTURE_InChI>
InChI=1S/C9H13BrN2O2/c1-4-5(2)12-8(13)7(10)6(3)11-9(12)14/h5H,4H2,1-3H3,(H,11,14)

> <STRUCTURE_InChIKey>
CTSLUCNDVMMDHG-UHFFFAOYSA-N

> <Substance_modify_yyyymmdd>
20080429

> <DSSTox_CID_Parent>
2020

> <ChemicalReplicateCount>
1

> <Coord_Metals>
0

> <Index>
38

> <Canonical_Smiles>
CCC(C)N1C(=O)NC(=C(Br)C1=O)C

> <Molecular_Weight>
261.11572

> <Frequency>
1

$$$$

  SciTegic          2D

 14 14  0  0  0  0            999 V2000
    1.2990   -0.7500    0.0000 C   0  0
    1.2990    0.7500    0.0000 C   0  0
    2.3383    1.3500    0.0000 Br  0  0
    0.0000    1.5000    0.0000 C   0  0
   -0.0031    3.0008    0.0000 O   0  0
   -1.2990    0.7500    0.0000 C   0  0
   -2.3383    1.3500    0.0000 Br  0  0
   -1.2990   -0.7500    0.0000 C   0  0
    0.0000   -1.5000    0.0000 C   0  0
    0.0000   -3.0008    0.0000 C   0  0
    0.0000   -4.2008    0.0000 N   0  0
    2.1651   -1.2500    0.0000 H   0  0
   -0.8698    3.4996    0.0000 H   0  0
   -2.1651   -1.2500    0.0000 H   0  0
  1  2  2  0
  1  9  1  0
  2  3  1  0
  2  4  1  0
  4  5  1  0
  4  6  2  0
  6  7  1  0
  6  8  1  0
  8  9  2  0
  9 10  1  0
 10 11  3  0
  1 12  1  0
  5 13  1  0
  8 14  1  0
M  END
> <DSSTox_RID>
40319

> <DSSTox_CID>
2162

> <DSSTox_Generic_SID>
22162

> <DSSTox_FileID>
39_TOXCST_v3a

> <STRUCTURE_Formula>
C7H3Br2NO

> <STRUCTURE_MolecularWeight>
276.9128

> <STRUCTURE_ChemicalType>
defined organic

> <STRUCTURE_TestedForm_DefinedOrganic>
parent

> <STRUCTURE_Shown>
tested chemical

> <TestSubstance_ChemicalName>
Bromoxynil

> <Source_ChemicalName>
Bromoxynil

> <TestSubstance_CASRN>
1689-84-5

> <TestSubstance_Description>
single chemical compound

> <STRUCTURE_ChemicalName_IUPAC>
3,5-dibromo-4-hydroxybenzonitrile

> <STRUCTURE_SMILES>
C1=C(Br)C(O)=C(Br)C=C1C#N

> <STRUCTURE_Parent_SMILES>
C1=C(Br)C(O)=C(Br)C=C1C#N

> <STRUCTURE_InChI>
InChI=1S/C7H3Br2NO/c8-5-1-4(3-10)2-6(9)7(5)11/h1-2,11H

> <STRUCTURE_InChIKey>
UPMXNNIRAGDFEH-UHFFFAOYSA-N

> <Substance_modify_yyyymmdd>
20080429

> <DSSTox_CID_Parent>
2162

> <ChemicalReplicateCount>
1

> <Coord_Metals>
0

> <Index>
39

> <Canonical_Smiles>
Oc1c(Br)cc(cc1Br)C#N

> <Molecular_Weight>
276.91282

> <Frequency>
1

$$$$

  SciTegic          2D

 44 45  0  0  0  0            999 V2000
    1.2990   -0.7500    0.0000 S   0  0
    1.2990    0.7500    0.0000 C   0  0
    0.0000    1.5000    0.0000 N   0  0
   -1.2990    0.7500    0.0000 C   0  0
   -1.2990   -0.7500    0.0000 N   0  0
    0.0000   -1.5000    0.0000 C   0  0
   -2.3383    1.3500    0.0000 O   0  0
    2.6003    1.4978    0.0000 N   0  0
    3.8990    0.7455    0.0000 C   0  0
    5.2003    1.4932    0.0000 C   0  0
    3.8964   -0.7552    0.0000 C   0  0
    3.8988    2.2755    0.0000 C   0  0
    0.0000    3.0008    0.0000 C   0  0
    1.2993    3.7521    0.0000 C   0  0
   -1.2999    3.7508    0.0000 C   0  0
   -2.5987   -1.5004    0.0000 C   0  0
   -3.8991   -0.7525    0.0000 C   0  0
   -2.5964   -3.0004    0.0000 C   0  0
   -5.1969   -1.5046    0.0000 C   0  0
   -3.8943   -3.7525    0.0000 C   0  0
   -5.1945   -3.0046    0.0000 C   0  0
   -0.8776   -1.9794    0.0000 H   0  0
    0.8775   -1.9795    0.0000 H   0  0
    6.0656    0.9920    0.0000 H   0  0
    5.2020    2.4932    0.0000 H   0  0
    6.0671    1.9919    0.0000 H   0  0
    3.0298   -1.2543    0.0000 H   0  0
    4.7617   -1.2565    0.0000 H   0  0
    3.8952   -1.7552    0.0000 H   0  0
    3.0330    2.7759    0.0000 H   0  0
    3.8991    3.2755    0.0000 H   0  0
    4.7649    2.7753    0.0000 H   0  0
    0.8662    2.5011    0.0000 H   0  0
    1.2993    4.7521    0.0000 H   0  0
    2.1654    3.2523    0.0000 H   0  0
    2.1652    4.2522    0.0000 H   0  0
   -1.3009    4.7508    0.0000 H   0  0
   -2.1657    3.2502    0.0000 H   0  0
   -2.1664    4.2501    0.0000 H   0  0
   -3.9007    0.2475    0.0000 H   0  0
   -1.7296   -3.4991    0.0000 H   0  0
   -6.0637   -1.0060    0.0000 H   0  0
   -3.8927   -4.7525    0.0000 H   0  0
   -6.0597   -3.5059    0.0000 H   0  0
  1  2  1  0
  1  6  1  0
  2  3  1  0
  2  8  2  0
  3  4  1  0
  3 13  1  0
  4  5  1  0
  4  7  2  0
  5  6  1  0
  5 16  1  0
  8  9  1  0
  9 10  1  0
  9 11  1  0
  9 12  1  0
 13 14  1  0
 13 15  1  0
 16 17  2  0
 16 18  1  0
 17 19  1  0
 18 20  2  0
 19 21  2  0
 20 21  1  0
  6 22  1  0
  6 23  1  0
 10 24  1  0
 10 25  1  0
 10 26  1  0
 11 27  1  0
 11 28  1  0
 11 29  1  0
 12 30  1  0
 12 31  1  0
 12 32  1  0
 13 33  1  0
 14 34  1  0
 14 35  1  0
 14 36  1  0
 15 37  1  0
 15 38  1  0
 15 39  1  0
 17 40  1  0
 18 41  1  0
 19 42  1  0
 20 43  1  0
 21 44  1  0
M  END
> <DSSTox_RID>
40367

> <DSSTox_CID>
14401

> <DSSTox_Generic_SID>
34401

> <DSSTox_FileID>
40_TOXCST_v3a

> <STRUCTURE_Formula>
C16H23N3OS

> <STRUCTURE_MolecularWeight>
305.4383

> <STRUCTURE_ChemicalType>
defined organic

> <STRUCTURE_TestedForm_DefinedOrganic>
parent

> <STRUCTURE_Shown>
tested chemical

> <TestSubstance_ChemicalName>
Buprofezin

> <Source_ChemicalName>
Buprofezin

> <TestSubstance_CASRN>
69327-76-0

> <TestSubstance_Description>
single chemical compound

> <STRUCTURE_ChemicalName_IUPAC>
(2Z)-2-(tert-butylimino)-3-isopropyl-5-phenyl-1,3,5-thiadiazinan-4-one

> <STRUCTURE_SMILES>
O=C1N(C(C)C)/C(SCN1C2=CC=CC=C2)=N/C(C)(C)C

> <STRUCTURE_Parent_SMILES>
O=C1N(C(C)C)/C(SCN1C2=CC=CC=C2)=N/C(C)(C)C

> <STRUCTURE_InChI>
InChI=1S/C16H23N3OS/c1-12(2)19-14(17-16(3,4)5)21-11-18(15(19)20)13-9-7-6-8-10-13/h6-10,12H,11H2,1-5H3/b17-14-

> <STRUCTURE_InChIKey>
PRLVTUNWOQKEAI-VKAVYKQESA-N

> <Substance_modify_yyyymmdd>
20080429

> <DSSTox_CID_Parent>
14401

> <ChemicalReplicateCount>
1

> <Coord_Metals>
0

> <Index>
40

> <Canonical_Smiles>
CC(C)N1C(=NC(C)(C)C)SCN(C1=O)c2ccccc2

> <Molecular_Weight>
305.43832

> <Frequency>
1

$$$$

  SciTegic          2D

 47 47  0  0  0  0            999 V2000
    2.5973   -1.5031    0.0000 N   0  0
    1.2990   -0.7500    0.0000 C   0  0
    2.5906   -3.0039    0.0000 C   0  0
    1.5485   -3.5990    0.0000 O   0  0
    1.2990    0.7500    0.0000 C   0  0
    0.0000   -1.5000    0.0000 C   0  0
    3.8990   -0.7562    0.0000 C   0  0
    3.8866   -3.7609    0.0000 C   0  0
    3.8812   -4.9609    0.0000 Cl  0  0
    5.1972   -1.5092    0.0000 O   0  0
   -1.2990    0.7500    0.0000 C   0  0
   -1.2990   -0.7500    0.0000 C   0  0
    0.0000    1.5000    0.0000 C   0  0
    0.0000   -3.0008    0.0000 C   0  0
    2.5988    1.5004    0.0000 C   0  0
    6.4990   -0.7623    0.0000 C   0  0
    7.7972   -1.5154    0.0000 C   0  0
    9.0990   -0.7685    0.0000 C   0  0
    2.5997    3.0013    0.0000 C   0  0
   -1.2993   -3.7521    0.0000 C   0  0
   10.3972   -1.5216    0.0000 C   0  0
    3.9014    0.2438    0.0000 H   0  0
    4.7662   -0.2581    0.0000 H   0  0
    4.7549   -3.2650    0.0000 H   0  0
    4.7503   -4.2648    0.0000 H   0  0
   -2.1651    1.2500    0.0000 H   0  0
   -2.1651   -1.2500    0.0000 H   0  0
    0.0000    2.5000    0.0000 H   0  0
    0.8662   -3.5005    0.0000 H   0  0
    0.8660   -2.5007    0.0000 H   0  0
    3.4647    1.0002    0.0000 H   0  0
    2.5986    0.5004    0.0000 H   0  0
    6.5014    0.2377    0.0000 H   0  0
    5.6342   -0.2601    0.0000 H   0  0
    7.7948   -2.5154    0.0000 H   0  0
    6.9301   -2.0135    0.0000 H   0  0
    9.1013    0.2315    0.0000 H   0  0
    8.2342   -0.2663    0.0000 H   0  0
    3.4657    3.5013    0.0000 H   0  0
    1.7339    3.5015    0.0000 H   0  0
    2.5999    4.0013    0.0000 H   0  0
   -1.2993   -4.7521    0.0000 H   0  0
   -2.1655   -3.2523    0.0000 H   0  0
   -2.1652   -4.2522    0.0000 H   0  0
   11.2645   -1.0239    0.0000 H   0  0
   10.3948   -2.5216    0.0000 H   0  0
   11.2619   -2.0238    0.0000 H   0  0
  1  2  1  0
  1  3  1  0
  1  7  1  0
  2  5  1  0
  2  6  2  0
  3  4  2  0
  3  8  1  0
  5 13  2  0
  5 15  1  0
  6 12  1  0
  6 14  1  0
  7 10  1  0
  8  9  1  0
 10 16  1  0
 11 12  2  0
 11 13  1  0
 14 20  1  0
 15 19  1  0
 16 17  1  0
 17 18  1  0
 18 21  1  0
  7 22  1  0
  7 23  1  0
  8 24  1  0
  8 25  1  0
 11 26  1  0
 12 27  1  0
 13 28  1  0
 14 29  1  0
 14 30  1  0
 15 31  1  0
 15 32  1  0
 16 33  1  0
 16 34  1  0
 17 35  1  0
 17 36  1  0
 18 37  1  0
 18 38  1  0
 19 39  1  0
 19 40  1  0
 19 41  1  0
 20 42  1  0
 20 43  1  0
 20 44  1  0
 21 45  1  0
 21 46  1  0
 21 47  1  0
M  END
> <DSSTox_RID>
40368

> <DSSTox_CID>
14402

> <DSSTox_Generic_SID>
34402

> <DSSTox_FileID>
41_TOXCST_v3a

> <STRUCTURE_Formula>
C17H26ClNO2

> <STRUCTURE_MolecularWeight>
311.8468

> <STRUCTURE_ChemicalType>
defined organic

> <STRUCTURE_TestedForm_DefinedOrganic>
parent

> <STRUCTURE_Shown>
tested chemical

> <TestSubstance_ChemicalName>
Butachlor

> <Source_ChemicalName>
Butachlor

> <TestSubstance_CASRN>
23184-66-9

> <TestSubstance_Description>
single chemical compound

> <STRUCTURE_ChemicalName_IUPAC>
N-(butoxymethyl)-2-chloro-N-(2,6-diethylphenyl)acetamide

> <STRUCTURE_SMILES>
O=C(CCl)N(COCCCC)C1=C(CC)C=CC=C1CC

> <STRUCTURE_Parent_SMILES>
O=C(CCl)N(COCCCC)C1=C(CC)C=CC=C1CC

> <STRUCTURE_InChI>
InChI=1S/C17H26ClNO2/c1-4-7-11-21-13-19(16(20)12-18)17-14(5-2)9-8-10-15(17)6-3/h8-10H,4-7,11-13H2,1-3H3

> <STRUCTURE_InChIKey>
HKPHPIREJKHECO-UHFFFAOYSA-N

> <Substance_modify_yyyymmdd>
20080429

> <DSSTox_CID_Parent>
14402

> <ChemicalReplicateCount>
1

> <Coord_Metals>
0

> <Index>
41

> <Canonical_Smiles>
CCCCOCN(C(=O)CCl)c1c(CC)cccc1CC

> <Molecular_Weight>
311.84684

> <Frequency>
1

$$$$

  SciTegic          2D

 50 51  0  0  0  0            999 V2000
    2.5973   -1.5031    0.0000 C   0  0
    3.6375   -0.9049    0.0000 O   0  0
    1.2990   -0.7500    0.0000 C   0  0
    2.5951   -3.0039    0.0000 O   0  0
    1.2990    0.7500    0.0000 C   0  0
    0.0000   -1.5000    0.0000 C   0  0
    0.0000    1.5000    0.0000 C   0  0
   -1.2990   -0.7500    0.0000 C   0  0
   -1.2990    0.7500    0.0000 C   0  0
    2.3383    1.3500    0.0000 Cl  0  0
   -2.5987   -1.5004    0.0000 N   0  0
   -5.1969   -1.5046    0.0000 N   0  0
   -3.8991   -0.7525    0.0000 C   0  0
   -3.8943   -3.7525    0.0000 C   0  0
   -2.5964   -3.0004    0.0000 C   0  0
   -5.1945   -3.0046    0.0000 C   0  0
   -6.4978   -0.7562    0.0000 C   0  0
   -3.9010    0.4475    0.0000 O   0  0
   -1.5563   -3.5988    0.0000 O   0  0
   -6.4931   -3.7571    0.0000 C   0  0
   -7.5336   -3.1594    0.0000 F   0  0
   -6.4908   -4.9570    0.0000 F   0  0
   -7.5311   -4.3592    0.0000 F   0  0
    3.8933   -3.7570    0.0000 C   0  0
    2.5656   -4.5172    0.0000 C   0  0
    3.8912   -5.2578    0.0000 C   0  0
    3.0243   -5.7563    0.0000 O   0  0
    5.1894   -6.0109    0.0000 O   0  0
    6.4833   -9.7656    0.0000 C   0  0
    6.4855   -8.2648    0.0000 C   0  0
    5.1873   -7.5117    0.0000 C   0  0
    5.1943   -3.0089    0.0000 C   0  0
    0.0000   -2.5000    0.0000 H   0  0
    0.0000    2.5000    0.0000 H   0  0
   -2.1651    1.2500    0.0000 H   0  0
   -3.8927   -4.7525    0.0000 H   0  0
   -6.5001    0.2438    0.0000 H   0  0
   -7.3629   -1.2579    0.0000 H   0  0
   -7.3649   -0.2580    0.0000 H   0  0
    1.7011   -4.0146    0.0000 H   0  0
    2.5623   -5.5172    0.0000 H   0  0
    1.6980   -5.0145    0.0000 H   0  0
    7.3483  -10.2674    0.0000 H   0  0
    5.6164  -10.2641    0.0000 H   0  0
    7.3524   -7.7663    0.0000 H   0  0
    4.3204   -8.0102    0.0000 H   0  0
    4.3220   -7.0104    0.0000 H   0  0
    6.0598   -3.5098    0.0000 H   0  0
    5.1957   -2.0089    0.0000 H   0  0
    6.0610   -2.5100    0.0000 H   0  0
  1  2  2  0
  1  3  1  0
  1  4  1  0
  3  5  2  0
  3  6  1  0
  4 24  1  0
  5  7  1  0
  5 10  1  0
  6  8  2  0
  7  9  2  0
  8  9  1  0
  8 11  1  0
 11 13  1  0
 11 15  1  0
 12 13  1  0
 12 16  1  0
 12 17  1  0
 13 18  2  0
 14 15  1  0
 14 16  2  0
 15 19  2  0
 16 20  1  0
 20 21  1  0
 20 22  1  0
 20 23  1  0
 24 25  1  0
 24 26  1  0
 24 32  1  0
 26 27  2  0
 26 28  1  0
 28 31  1  0
 29 30  2  0
 30 31  1  0
  6 33  1  0
  7 34  1  0
  9 35  1  0
 14 36  1  0
 17 37  1  0
 17 38  1  0
 17 39  1  0
 25 40  1  0
 25 41  1  0
 25 42  1  0
 29 43  1  0
 29 44  1  0
 30 45  1  0
 31 46  1  0
 31 47  1  0
 32 48  1  0
 32 49  1  0
 32 50  1  0
M  END
> <DSSTox_RID>
40357

> <DSSTox_CID>
14365

> <DSSTox_Generic_SID>
34365

> <DSSTox_FileID>
42_TOXCST_v3a

> <STRUCTURE_Formula>
C20H18ClF3N2O6

> <STRUCTURE_MolecularWeight>
474.8149

> <STRUCTURE_ChemicalType>
defined organic

> <STRUCTURE_TestedForm_DefinedOrganic>
parent

> <STRUCTURE_Shown>
tested chemical

> <TestSubstance_ChemicalName>
Butafenacil

> <Source_ChemicalName>
Butafenacil

> <TestSubstance_CASRN>
134605-64-4

> <TestSubstance_Description>
single chemical compound

> <STRUCTURE_ChemicalName_IUPAC>
2-(allyloxy)-1,1-dimethyl-2-oxoethyl 2-chloro-5-[3-methyl-2,6-dioxo-4-(trifluoromethyl)-3,6-dihydropyrimidin-1(2H)-yl]benzoate

> <STRUCTURE_SMILES>
O=C(OC(C(OCC=C)=O)(C)C)C1=C(Cl)C=CC(N2C(N(C)C(C(F)(F)F)=CC2=O)=O)=C1

> <STRUCTURE_Parent_SMILES>
O=C(OC(C(OCC=C)=O)(C)C)C1=C(Cl)C=CC(N2C(N(C)C(C(F)(F)F)=CC2=O)=O)=C1

> <STRUCTURE_InChI>
InChI=1S/C20H18ClF3N2O6/c1-5-8-31-17(29)19(2,3)32-16(28)12-9-11(6-7-13(12)21)26-15(27)10-14(20(22,23)24)25(4)18(26)30/h5-7,9-10H,1,8H2,2-4H3

> <STRUCTURE_InChIKey>
JEDYYFXHPAIBGR-UHFFFAOYSA-N

> <Substance_modify_yyyymmdd>
20080429

> <DSSTox_CID_Parent>
14365

> <ChemicalReplicateCount>
1

> <Coord_Metals>
0

> <Index>
42

> <Canonical_Smiles>
CN1C(=O)N(C(=O)C=C1C(F)(F)F)c2ccc(Cl)c(c2)C(=O)OC(C)(C)C(=O)OCC=C

> <Molecular_Weight>
474.81492

> <Frequency>
1

$$$$

  SciTegic          2D

 42 42  0  0  0  0            999 V2000
    1.2990   -0.7500    0.0000 C   0  0
    0.0000    1.5000    0.0000 C   0  0
    1.2990    0.7500    0.0000 C   0  0
   -0.0031    3.0008    0.0000 N   0  0
    2.2614   -1.9017    0.0000 N   0  0
   -1.2990    0.7500    0.0000 C   0  0
    0.0000   -1.5000    0.0000 C   0  0
   -1.2990   -0.7500    0.0000 C   0  0
    2.2614    1.9017    0.0000 N   0  0
   -1.0432    3.5993    0.0000 O   0  0
    1.8494   -3.0287    0.0000 O   0  0
   -2.2637   -1.8997    0.0000 C   0  0
    1.0351    3.6026    0.0000 O   0  0
    3.4435   -1.6954    0.0000 O   0  0
    3.7401    1.6451    0.0000 C   0  0
   -3.7419   -1.6400    0.0000 C   0  0
   -1.7500   -3.3098    0.0000 C   0  0
   -2.7848   -0.4612    0.0000 C   0  0
    4.7024    2.7968    0.0000 C   0  0
    4.2567    0.2361    0.0000 C   0  0
    6.1812    2.5401    0.0000 C   0  0
   -2.1651    1.2500    0.0000 H   0  0
    0.0000   -2.5000    0.0000 H   0  0
    1.9171    2.8406    0.0000 H   0  0
    3.3958    2.5839    0.0000 H   0  0
   -4.3847   -2.4061    0.0000 H   0  0
   -4.0843   -0.7005    0.0000 H   0  0
   -4.7268   -1.4665    0.0000 H   0  0
   -2.3921   -4.0764    0.0000 H   0  0
   -0.7651   -3.4828    0.0000 H   0  0
   -1.4072   -4.2492    0.0000 H   0  0
   -2.1413    0.3042    0.0000 H   0  0
   -3.1258    0.4789    0.0000 H   0  0
   -3.7694   -0.2863    0.0000 H   0  0
    3.7172    2.9682    0.0000 H   0  0
    4.3582    3.7356    0.0000 H   0  0
    3.6163   -0.5319    0.0000 H   0  0
    4.6014   -0.7027    0.0000 H   0  0
    5.2420    0.0651    0.0000 H   0  0
    6.8224    3.3075    0.0000 H   0  0
    7.1664    2.3687    0.0000 H   0  0
    6.5254    1.6013    0.0000 H   0  0
  1  3  2  0
  1  5  1  0
  1  7  1  0
  2  3  1  0
  2  4  1  0
  2  6  2  0
  3  9  1  0
  4 10  2  0
  4 13  2  0
  5 11  2  0
  5 14  2  0
  6  8  1  0
  7  8  2  0
  8 12  1  0
  9 15  1  0
 12 16  1  0
 12 17  1  0
 12 18  1  0
 15 19  1  0
 15 20  1  0
 19 21  1  0
  6 22  1  0
  7 23  1  0
  9 24  1  0
 15 25  1  0
 16 26  1  0
 16 27  1  0
 16 28  1  0
 17 29  1  0
 17 30  1  0
 17 31  1  0
 18 32  1  0
 18 33  1  0
 18 34  1  0
 19 35  1  0
 19 36  1  0
 20 37  1  0
 20 38  1  0
 20 39  1  0
 21 40  1  0
 21 41  1  0
 21 42  1  0
M  END
> <DSSTox_RID>
40369

> <DSSTox_CID>
12337

> <DSSTox_Generic_SID>
32337

> <DSSTox_FileID>
43_TOXCST_v3a

> <STRUCTURE_Formula>
C14H21N3O4

> <STRUCTURE_MolecularWeight>
295.3342

> <STRUCTURE_ChemicalType>
defined organic

> <STRUCTURE_TestedForm_DefinedOrganic>
parent

> <STRUCTURE_Shown>
tested chemical

> <TestSubstance_ChemicalName>
Butralin

> <Source_ChemicalName>
Butralin

> <TestSubstance_CASRN>
33629-47-9

> <TestSubstance_Description>
single chemical compound

> <STRUCTURE_ChemicalName_IUPAC>
N-sec-butyl-4-tert-butyl-2,6-dinitroaniline

> <STRUCTURE_SMILES>
[O-][N+](C1=CC(C(C)(C)C)=CC([N+]([O-])=O)=C1NC(C)CC)=O

> <STRUCTURE_Parent_SMILES>
[O-][N+](C1=CC(C(C)(C)C)=CC([N+]([O-])=O)=C1NC(C)CC)=O

> <STRUCTURE_InChI>
InChI=1S/C14H21N3O4/c1-6-9(2)15-13-11(16(18)19)7-10(14(3,4)5)8-12(13)17(20)21/h7-9,15H,6H2,1-5H3

> <STRUCTURE_InChIKey>
SPNQRCTZKIBOAX-UHFFFAOYSA-N

> <Substance_modify_yyyymmdd>
20080429

> <DSSTox_CID_Parent>
12337

> <ChemicalReplicateCount>
1

> <Coord_Metals>
0

> <Index>
43

> <Canonical_Smiles>
CCC(C)Nc1c(cc(cc1N(=O)=O)C(C)(C)C)N(=O)=O

> <Molecular_Weight>
295.33424

> <Frequency>
1

$$$$

  SciTegic          2D

 37 36  0  0  0  0            999 V2000
    6.5000    0.7500    0.0000 C   0  0
    5.2000    0.0000    0.0000 N   0  0
    7.5388    0.1493    0.0000 O   0  0
    3.9000    0.7500    0.0000 C   0  0
    5.2030   -1.5008    0.0000 C   0  0
    6.5014    2.2508    0.0000 S   0  0
    6.5039   -2.2494    0.0000 C   0  0
    2.6000    0.0000    0.0000 C   0  0
    7.8014    3.0008    0.0000 C   0  0
    6.5070   -3.7502    0.0000 C   0  0
    1.3000    0.7500    0.0000 C   0  0
    7.8022   -1.4968    0.0000 C   0  0
    2.6000   -1.5007    0.0000 C   0  0
    7.8028    4.5016    0.0000 C   0  0
    4.7659    1.2501    0.0000 H   0  0
    3.9000    1.7500    0.0000 H   0  0
    4.3361   -1.0025    0.0000 H   0  0
    4.3379   -2.0023    0.0000 H   0  0
    5.6387   -2.7509    0.0000 H   0  0
    2.6000    1.0000    0.0000 H   0  0
    7.8009    2.0008    0.0000 H   0  0
    8.6671    2.5003    0.0000 H   0  0
    7.3737   -4.2490    0.0000 H   0  0
    6.5085   -4.7502    0.0000 H   0  0
    5.6418   -4.2517    0.0000 H   0  0
    0.4338    0.2503    0.0000 H   0  0
    1.3000    1.7500    0.0000 H   0  0
    0.4340    1.2501    0.0000 H   0  0
    7.8011   -0.4968    0.0000 H   0  0
    8.6676   -0.9957    0.0000 H   0  0
    8.6690   -1.9955    0.0000 H   0  0
    1.7343   -2.0013    0.0000 H   0  0
    3.4662   -2.0005    0.0000 H   0  0
    2.6005   -2.5007    0.0000 H   0  0
    8.6690    5.0014    0.0000 H   0  0
    6.9371    5.0022    0.0000 H   0  0
    7.8033    5.5016    0.0000 H   0  0
  1  2  1  0
  1  3  2  0
  1  6  1  0
  2  4  1  0
  2  5  1  0
  4  8  1  0
  5  7  1  0
  6  9  1  0
  7 10  1  0
  7 12  1  0
  8 11  1  0
  8 13  1  0
  9 14  1  0
  4 15  1  0
  4 16  1  0
  5 17  1  0
  5 18  1  0
  7 19  1  0
  8 20  1  0
  9 21  1  0
  9 22  1  0
 10 23  1  0
 10 24  1  0
 10 25  1  0
 11 26  1  0
 11 27  1  0
 11 28  1  0
 12 29  1  0
 12 30  1  0
 12 31  1  0
 13 32  1  0
 13 33  1  0
 13 34  1  0
 14 35  1  0
 14 36  1  0
 14 37  1  0
M  END
> <DSSTox_RID>
40370

> <DSSTox_CID>
3936

> <DSSTox_Generic_SID>
23936

> <DSSTox_FileID>
44_TOXCST_v3a

> <STRUCTURE_Formula>
C11H23NOS

> <STRUCTURE_MolecularWeight>
217.3714

> <STRUCTURE_ChemicalType>
defined organic

> <STRUCTURE_TestedForm_DefinedOrganic>
parent

> <STRUCTURE_Shown>
tested chemical

> <TestSubstance_ChemicalName>
Butylate

> <Source_ChemicalName>
Butylate

> <TestSubstance_CASRN>
2008-41-5

> <TestSubstance_Description>
single chemical compound

> <STRUCTURE_ChemicalName_IUPAC>
S-ethyl diisobutylthiocarbamate

> <STRUCTURE_SMILES>
CC(C)CN(CC(C)C)C(=O)SCC

> <STRUCTURE_Parent_SMILES>
CC(C)CN(CC(C)C)C(=O)SCC

> <STRUCTURE_InChI>
InChI=1S/C11H23NOS/c1-6-14-11(13)12(7-9(2)3)8-10(4)5/h9-10H,6-8H2,1-5H3

> <STRUCTURE_InChIKey>
BMTAFVWTTFSTOG-UHFFFAOYSA-N

> <Substance_modify_yyyymmdd>
20080429

> <DSSTox_CID_Parent>
3936

> <ChemicalReplicateCount>
1

> <Coord_Metals>
0

> <Index>
44

> <Canonical_Smiles>
CCSC(=O)N(CC(C)C)CC(C)C

> <Molecular_Weight>
217.37141

> <Frequency>
1

$$$$

  SciTegic          2D

 12 11  0  0  0  0            999 V2000
    1.3000    0.7500    0.0000 C   0  0
    2.6000    0.0000    0.0000 As  0  0
    2.6000   -1.2000    0.0000 O   0  0
    3.9000    0.7500    0.0000 C   0  0
    1.2761   -0.7669    0.0000 O   0  0
    0.4338    0.2503    0.0000 H   0  0
    1.3000    1.7500    0.0000 H   0  0
    0.4340    1.2501    0.0000 H   0  0
    4.7662    0.2503    0.0000 H   0  0
    3.9000    1.7500    0.0000 H   0  0
    4.7659    1.2501    0.0000 H   0  0
    1.2769   -1.7669    0.0000 H   0  0
  1  2  1  0
  2  3  2  0
  2  4  1  0
  2  5  1  0
  1  6  1  0
  1  7  1  0
  1  8  1  0
  4  9  1  0
  4 10  1  0
  4 11  1  0
  5 12  1  0
M  END
> <DSSTox_RID>
40371

> <DSSTox_CID>
508

> <DSSTox_Generic_SID>
20508

> <DSSTox_FileID>
45_TOXCST_v3a

> <STRUCTURE_Formula>
C2H7AsO2

> <STRUCTURE_MolecularWeight>
137.9974

> <STRUCTURE_ChemicalType>
organometallic

> <STRUCTURE_Shown>
tested chemical

> <TestSubstance_ChemicalName>
Dimethylarsinic acid

> <Source_ChemicalName>
Cacodylic acid

> <TestSubstance_CASRN>
75-60-5

> <TestSubstance_Description>
single chemical compound

> <STRUCTURE_ChemicalName_IUPAC>
dimethylarsinic acid

> <STRUCTURE_SMILES>
C[As](=O)(C)O

> <STRUCTURE_InChI>
InChI=1S/C2H7AsO2/c1-3(2,4)5/h1-2H3,(H,4,5)

> <STRUCTURE_InChIKey>
OGGXGZAMXPVRFZ-UHFFFAOYSA-N

> <Substance_modify_yyyymmdd>
20080429

> <ChemicalReplicateCount>
1

> <Coord_Metals>
0

> <Index>
45

> <Canonical_Smiles>
C[As](=O)(C)O

> <Molecular_Weight>
137.99737

> <Frequency>
1

$$$$

  SciTegic          2D

 24 25  0  0  0  0            999 V2000
    2.0825    2.3453    0.0000 O   0  0
    1.7138    1.2033    0.0000 C   0  0
    2.5889    0.0182    0.0000 N   0  0
    1.7138   -1.2033    0.0000 C   0  0
    2.0907   -2.3426    0.0000 O   0  0
    0.2917   -0.7475    0.0000 C   0  0
    0.2917    0.7475    0.0000 C   0  0
   -1.0028    1.5132    0.0000 C   0  0
   -2.3155    0.7475    0.0000 C   0  0
   -2.3155   -0.7475    0.0000 C   0  0
   -1.0028   -1.5132    0.0000 C   0  0
    4.0872    0.0320    0.0000 S   0  0
    4.8506   -1.2602    0.0000 C   0  0
    6.0505   -1.2490    0.0000 Cl  0  0
    4.2606   -2.3052    0.0000 Cl  0  0
    5.4604   -2.2937    0.0000 Cl  0  0
    0.4035   -1.7412    0.0000 H   0  0
    0.4035    1.7412    0.0000 H   0  0
   -0.1240    1.9905    0.0000 H   0  0
   -1.8785    1.9960    0.0000 H   0  0
   -3.1826    1.2456    0.0000 H   0  0
   -3.1826   -1.2456    0.0000 H   0  0
   -0.1240   -1.9905    0.0000 H   0  0
   -1.8785   -1.9960    0.0000 H   0  0
  1  2  2  0
  2  3  1  0
  2  7  1  0
  3  4  1  0
  3 12  1  0
  4  5  2  0
  4  6  1  0
  6  7  1  0
  6 11  1  0
  7  8  1  0
  8  9  1  0
  9 10  2  0
 10 11  1  0
 12 13  1  0
 13 14  1  0
 13 15  1  0
 13 16  1  0
  6 17  1  0
  7 18  1  0
  8 19  1  0
  8 20  1  0
  9 21  1  0
 10 22  1  0
 11 23  1  0
 11 24  1  0
M  END
> <DSSTox_RID>
40373

> <DSSTox_CID>
243

> <DSSTox_Generic_SID>
20243

> <DSSTox_FileID>
46_TOXCST_v3a

> <STRUCTURE_Formula>
C9H8Cl3NO2S

> <STRUCTURE_MolecularWeight>
300.5893

> <STRUCTURE_ChemicalType>
defined organic

> <STRUCTURE_TestedForm_DefinedOrganic>
parent

> <STRUCTURE_Shown>
tested chemical

> <TestSubstance_ChemicalName>
Captan

> <Source_ChemicalName>
Captan

> <TestSubstance_CASRN>
133-06-2

> <TestSubstance_Description>
single chemical compound

> <STRUCTURE_ChemicalName_IUPAC>
2-[(trichloromethyl)thio]-3a,4,7,7a-tetrahydro-1H-isoindole-1,3(2H)-dione

> <STRUCTURE_SMILES>
O=C1N(C(=O)C2C1CC=CC2)SC(Cl)(Cl)Cl

> <STRUCTURE_Parent_SMILES>
O=C1N(C(=O)C2C1CC=CC2)SC(Cl)(Cl)Cl

> <STRUCTURE_InChI>
InChI=1S/C9H8Cl3NO2S/c10-9(11,12)16-13-7(14)5-3-1-2-4-6(5)8(13)15/h1-2,5-6H,3-4H2

> <STRUCTURE_InChIKey>
LDVVMCZRFWMZSG-UHFFFAOYSA-N

> <Substance_modify_yyyymmdd>
20080429

> <DSSTox_CID_Parent>
243

> <ChemicalReplicateCount>
1

> <Coord_Metals>
0

> <Index>
46

> <Canonical_Smiles>
ClC(Cl)(Cl)SN1C(=O)C2CC=CCC2C1=O

> <Molecular_Weight>
300.58932

> <Frequency>
1

$$$$

  SciTegic          2D

 26 27  0  0  0  0            999 V2000
   -3.6288   -3.1588    0.0000 O   0  0
   -2.5870   -3.7544    0.0000 C   0  0
   -1.2907   -2.9981    0.0000 O   0  0
   -1.2964   -1.4973    0.0000 C   0  0
    0.0000   -0.7486    0.0000 C   0  0
    0.0000    0.7486    0.0000 C   0  0
   -1.2964    1.4973    0.0000 C   0  0
   -2.6111    0.7486    0.0000 C   0  0
   -2.6111   -0.7486    0.0000 C   0  0
    1.2964    1.4973    0.0000 C   0  0
    2.5929    0.7486    0.0000 C   0  0
    2.5929   -0.7486    0.0000 C   0  0
    1.2964   -1.4973    0.0000 C   0  0
   -2.5812   -5.2552    0.0000 N   0  0
   -3.8775   -6.0115    0.0000 C   0  0
   -1.2934    2.4973    0.0000 H   0  0
   -3.4756    1.2512    0.0000 H   0  0
   -3.4756   -1.2512    0.0000 H   0  0
    1.2964    2.4973    0.0000 H   0  0
    3.4589    1.2486    0.0000 H   0  0
    3.4589   -1.2486    0.0000 H   0  0
    1.2964   -2.4973    0.0000 H   0  0
   -1.7131   -5.7516    0.0000 H   0  0
   -3.8737   -7.0115    0.0000 H   0  0
   -4.7457   -5.5152    0.0000 H   0  0
   -4.7415   -6.5150    0.0000 H   0  0
  1  2  2  0
  2  3  1  0
  2 14  1  0
  3  4  1  0
  4  5  2  0
  4  9  1  0
  5  6  1  0
  5 13  1  0
  6  7  2  0
  6 10  1  0
  7  8  1  0
  8  9  2  0
 10 11  2  0
 11 12  1  0
 12 13  2  0
 14 15  1  0
  7 16  1  0
  8 17  1  0
  9 18  1  0
 10 19  1  0
 11 20  1  0
 12 21  1  0
 13 22  1  0
 14 23  1  0
 15 24  1  0
 15 25  1  0
 15 26  1  0
M  END
> <DSSTox_RID>
40377

> <DSSTox_CID>
247

> <DSSTox_Generic_SID>
20247

> <DSSTox_FileID>
47_TOXCST_v3a

> <STRUCTURE_Formula>
C12H11NO2

> <STRUCTURE_MolecularWeight>
201.2212

> <STRUCTURE_ChemicalType>
defined organic

> <STRUCTURE_TestedForm_DefinedOrganic>
parent

> <STRUCTURE_Shown>
tested chemical

> <TestSubstance_ChemicalName>
Carbaryl

> <Source_ChemicalName>
Carbaryl

> <TestSubstance_CASRN>
63-25-2

> <TestSubstance_Description>
single chemical compound

> <STRUCTURE_ChemicalName_IUPAC>
naphthalen-1-yl methylcarbamate

> <STRUCTURE_SMILES>
O=C(OC1=C2C(=CC=C1)C=CC=C2)NC

> <STRUCTURE_Parent_SMILES>
O=C(OC1=C2C(=CC=C1)C=CC=C2)NC

> <STRUCTURE_InChI>
InChI=1S/C12H11NO2/c1-13-12(14)15-11-8-4-6-9-5-2-3-7-10(9)11/h2-8H,1H3,(H,13,14)

> <STRUCTURE_InChIKey>
CVXBEEMKQHEXEN-UHFFFAOYSA-N

> <Substance_modify_yyyymmdd>
20080429

> <DSSTox_CID_Parent>
247

> <ChemicalReplicateCount>
1

> <Coord_Metals>
0

> <Index>
47

> <Canonical_Smiles>
CNC(=O)Oc1cccc2ccccc12

> <Molecular_Weight>
201.22123

> <Frequency>
1

$$$$

  SciTegic          2D

 29 30  0  0  0  0            999 V2000
    1.2990   -0.7500    0.0000 C   0  0
    2.5973   -1.5031    0.0000 C   0  0
    1.2990    0.7500    0.0000 C   0  0
    2.5951   -3.0039    0.0000 N   0  0
    0.0000   -1.5000    0.0000 S   0  0
    3.6375   -0.9049    0.0000 O   0  0
    0.0000    1.5000    0.0000 O   0  0
    3.8933   -3.7570    0.0000 C   0  0
    2.5988    1.5004    0.0000 C   0  0
   -1.2990   -0.7500    0.0000 C   0  0
   -1.2990    0.7500    0.0000 C   0  0
    3.8934   -5.2570    0.0000 C   0  0
    5.1925   -3.0070    0.0000 C   0  0
    6.4915   -3.7571    0.0000 C   0  0
    5.1924   -6.0070    0.0000 C   0  0
    6.4915   -5.2571    0.0000 C   0  0
    1.7282   -3.5024    0.0000 H   0  0
    3.4651    1.0010    0.0000 H   0  0
    2.5985    2.5004    0.0000 H   0  0
    3.4646    2.0008    0.0000 H   0  0
   -2.1530   -0.2297    0.0000 H   0  0
   -1.2755   -1.7497    0.0000 H   0  0
   -0.4215    0.2706    0.0000 H   0  0
   -1.2756    1.7497    0.0000 H   0  0
    3.0274   -5.7570    0.0000 H   0  0
    5.1925   -2.0070    0.0000 H   0  0
    7.3575   -3.2571    0.0000 H   0  0
    5.1924   -7.0070    0.0000 H   0  0
    7.3575   -5.7571    0.0000 H   0  0
  1  2  1  0
  1  3  2  0
  1  5  1  0
  2  4  1  0
  2  6  2  0
  3  7  1  0
  3  9  1  0
  4  8  1  0
  5 10  1  0
  7 11  1  0
  8 12  2  0
  8 13  1  0
 10 11  1  0
 12 15  1  0
 13 14  2  0
 14 16  1  0
 15 16  2  0
  4 17  1  0
  9 18  1  0
  9 19  1  0
  9 20  1  0
 10 21  1  0
 10 22  1  0
 11 23  1  0
 11 24  1  0
 12 25  1  0
 13 26  1  0
 14 27  1  0
 15 28  1  0
 16 29  1  0
M  END
> <DSSTox_RID>
40378

> <DSSTox_CID>
3951

> <DSSTox_Generic_SID>
23951

> <DSSTox_FileID>
48_TOXCST_v3a

> <STRUCTURE_Formula>
C12H13NO2S

> <STRUCTURE_MolecularWeight>
235.3021

> <STRUCTURE_ChemicalType>
defined organic

> <STRUCTURE_TestedForm_DefinedOrganic>
parent

> <STRUCTURE_Shown>
tested chemical

> <TestSubstance_ChemicalName>
Carboxin

> <Source_ChemicalName>
Carboxin

> <TestSubstance_CASRN>
5234-68-4

> <TestSubstance_Description>
single chemical compound

> <STRUCTURE_ChemicalName_IUPAC>
2-methyl-N-phenyl-5,6-dihydro-1,4-oxathiine-3-carboxamide

> <STRUCTURE_SMILES>
O=C(Nc1ccccc1)C=2SCCOC=2C

> <STRUCTURE_Parent_SMILES>
O=C(Nc1ccccc1)C=2SCCOC=2C

> <STRUCTURE_InChI>
InChI=1S/C12H13NO2S/c1-9-11(16-8-7-15-9)12(14)13-10-5-3-2-4-6-10/h2-6H,7-8H2,1H3,(H,13,14)

> <STRUCTURE_InChIKey>
GYSSRZJIHXQEHQ-UHFFFAOYSA-N

> <Substance_modify_yyyymmdd>
20080429

> <DSSTox_CID_Parent>
3951

> <ChemicalReplicateCount>
1

> <Coord_Metals>
0

> <Index>
48

> <Canonical_Smiles>
CC1=C(SCCO1)C(=O)Nc2ccccc2

> <Molecular_Weight>
235.30211

> <Frequency>
1

$$$$

  SciTegic          2D

 40 41  0  0  0  0            999 V2000
    2.5987   -1.5004    0.0000 N   0  0
    1.2990   -0.7500    0.0000 C   0  0
    3.9511   -0.8815    0.0000 C   0  0
    2.7343   -2.9815    0.0000 N   0  0
    1.2990    0.7500    0.0000 C   0  0
    0.0000   -1.5000    0.0000 C   0  0
    4.9531   -1.9978    0.0000 N   0  0
    4.1955    0.2934    0.0000 O   0  0
    4.2010   -3.2956    0.0000 C   0  0
    0.0000    1.5000    0.0000 C   0  0
   -1.2990   -0.7500    0.0000 C   0  0
    0.0000   -2.7000    0.0000 F   0  0
    6.4433   -1.8435    0.0000 C   0  0
    4.8082   -4.6653    0.0000 C   0  0
   -1.2990    0.7500    0.0000 C   0  0
    0.0000    3.0008    0.0000 C   0  0
    6.9339   -0.7484    0.0000 F   0  0
    7.1468   -2.8157    0.0000 F   0  0
   -2.3383    1.3500    0.0000 Cl  0  0
    1.2993    3.7521    0.0000 C   0  0
    1.2992    5.2529    0.0000 C   0  0
    2.3387    3.1524    0.0000 Cl  0  0
    2.5985    6.0041    0.0000 O   0  0
    0.2598    5.8526    0.0000 O   0  0
    2.5985    7.5050    0.0000 C   0  0
    3.8978    8.2562    0.0000 C   0  0
    2.1651    1.2500    0.0000 H   0  0
   -2.1651   -1.2500    0.0000 H   0  0
    7.4381   -1.7411    0.0000 H   0  0
    4.2197   -5.4738    0.0000 H   0  0
    5.8026   -4.7711    0.0000 H   0  0
    5.2139   -5.5793    0.0000 H   0  0
   -0.8662    3.5005    0.0000 H   0  0
   -0.8660    2.5007    0.0000 H   0  0
    2.1652    4.2522    0.0000 H   0  0
    1.7326    7.0048    0.0000 H   0  0
    1.7323    8.0047    0.0000 H   0  0
    3.8978    9.2562    0.0000 H   0  0
    4.7637    8.7563    0.0000 H   0  0
    4.7640    7.7565    0.0000 H   0  0
  1  2  1  0
  1  3  1  0
  1  4  1  0
  2  5  2  0
  2  6  1  0
  3  7  1  0
  3  8  2  0
  4  9  2  0
  5 10  1  0
  6 11  2  0
  6 12  1  0
  7 13  1  0
  7  9  1  0
  9 14  1  0
 10 15  2  0
 10 16  1  0
 11 15  1  0
 13 17  1  0
 13 18  1  0
 15 19  1  0
 16 20  1  0
 20 21  1  0
 20 22  1  0
 21 23  1  0
 21 24  2  0
 23 25  1  0
 25 26  1  0
  5 27  1  0
 11 28  1  0
 13 29  1  0
 14 30  1  0
 14 31  1  0
 14 32  1  0
 16 33  1  0
 16 34  1  0
 20 35  1  0
 25 36  1  0
 25 37  1  0
 26 38  1  0
 26 39  1  0
 26 40  1  0
M  END
> <DSSTox_RID>
40379

> <DSSTox_CID>
12532

> <DSSTox_Generic_SID>
32532

> <DSSTox_FileID>
49_TOXCST_v3a

> <STRUCTURE_Formula>
C15H14Cl2F3N3O3

> <STRUCTURE_MolecularWeight>
412.1912

> <STRUCTURE_ChemicalType>
defined organic

> <STRUCTURE_TestedForm_DefinedOrganic>
parent

> <STRUCTURE_Shown>
tested chemical

> <TestSubstance_ChemicalName>
Carfentrazone-ethyl

> <Source_ChemicalName>
Carfentrazone-ethyl

> <TestSubstance_CASRN>
128639-02-1

> <TestSubstance_Description>
single chemical compound

> <STRUCTURE_ChemicalName_IUPAC>
ethyl 2-chloro-3-{2-chloro-5-[4-(difluoromethyl)-3-methyl-5-oxo-4,5-dihydro-1H-1,2,4-triazol-1-yl]-4-fluorophenyl}propanoate

> <STRUCTURE_SMILES>
O=C2N(N=C(C)N2C(F)F)C1=CC(CC(Cl)C(OCC)=O)=C(Cl)C=C1F

> <STRUCTURE_Parent_SMILES>
O=C2N(N=C(C)N2C(F)F)C1=CC(CC(Cl)C(OCC)=O)=C(Cl)C=C1F

> <STRUCTURE_InChI>
InChI=1S/C15H14Cl2F3N3O3/c1-3-26-13(24)10(17)4-8-5-12(11(18)6-9(8)16)23-15(25)22(14(19)20)7(2)21-23/h5-6,10,14H,3-4H2,1-2H3

> <STRUCTURE_InChIKey>
MLKCGVHIFJBRCD-UHFFFAOYSA-N

> <Substance_modify_yyyymmdd>
20080429

> <DSSTox_CID_Parent>
12532

> <ChemicalReplicateCount>
1

> <Coord_Metals>
0

> <Index>
49

> <Canonical_Smiles>
CCOC(=O)C(Cl)Cc1cc(N2N=C(C)N(C(F)F)C2=O)c(F)cc1Cl

> <Molecular_Weight>
412.19116

> <Frequency>
1

$$$$

  SciTegic          2D

 26 25  0  0  0  0            999 V2000
    5.2000   -1.2000    0.0000 S   0  0
    5.2000    0.0000    0.0000 P   0  0
    6.5000    0.7500    0.0000 O   0  0
    6.5239   -0.7669    0.0000 O   0  0
    3.9000    0.7500    0.0000 O   0  0
    6.5014    2.2508    0.0000 C   0  0
    7.8014    3.0008    0.0000 C   0  0
    6.5226   -2.2677    0.0000 C   0  0
    7.8213   -3.0200    0.0000 C   0  0
    2.6000    0.0000    0.0000 C   0  0
    1.3000    0.7500    0.0000 C   0  0
    2.6000   -1.2000    0.0000 Cl  0  0
    0.2606    0.1503    0.0000 Cl  0  0
    0.2609    1.3502    0.0000 Cl  0  0
    1.3000    1.9500    0.0000 Cl  0  0
    5.6350    1.7515    0.0000 H   0  0
    5.6357    2.7514    0.0000 H   0  0
    7.8023    4.0008    0.0000 H   0  0
    8.6678    3.5001    0.0000 H   0  0
    8.6671    2.5003    0.0000 H   0  0
    5.6561   -2.7667    0.0000 H   0  0
    5.6571   -1.7668    0.0000 H   0  0
    7.8205   -4.0200    0.0000 H   0  0
    8.6879   -2.5210    0.0000 H   0  0
    8.6868   -3.5208    0.0000 H   0  0
    3.4659   -0.5001    0.0000 H   0  0
  1  2  2  0
  2  3  1  0
  2  4  1  0
  2  5  1  0
  3  6  1  0
  4  8  1  0
  5 10  1  0
  6  7  1  0
  8  9  1  0
 10 11  1  0
 10 12  1  0
 11 13  1  0
 11 14  1  0
 11 15  1  0
  6 16  1  0
  6 17  1  0
  7 18  1  0
  7 19  1  0
  7 20  1  0
  8 21  1  0
  8 22  1  0
  9 23  1  0
  9 24  1  0
  9 25  1  0
 10 26  1  0
M  END
> <DSSTox_RID>
40380

> <DSSTox_CID>
12344

> <DSSTox_Generic_SID>
32344

> <DSSTox_FileID>
50_TOXCST_v3a

> <STRUCTURE_Formula>
C6H11Cl4O3PS

> <STRUCTURE_MolecularWeight>
336.0005

> <STRUCTURE_ChemicalType>
defined organic

> <STRUCTURE_TestedForm_DefinedOrganic>
parent

> <STRUCTURE_Shown>
tested chemical

> <TestSubstance_ChemicalName>
Chlorethoxyfos

> <Source_ChemicalName>
Chlorethoxyfos

> <TestSubstance_CASRN>
54593-83-8

> <TestSubstance_Description>
single chemical compound

> <ChemicalNote>
mixture of (R,S) isomers; structure shown without stereochem

> <STRUCTURE_ChemicalName_IUPAC>
O,O-diethyl O-(1,2,2,2-tetrachloroethyl) thiophosphate

> <STRUCTURE_SMILES>
P(OC(C(Cl)(Cl)Cl)Cl)(=S)(OCC)OCC

> <STRUCTURE_Parent_SMILES>
P(OC(C(Cl)(Cl)Cl)Cl)(=S)(OCC)OCC

> <STRUCTURE_InChI>
InChI=1S/C6H11Cl4O3PS/c1-3-11-14(15,12-4-2)13-5(7)6(8,9)10/h5H,3-4H2,1-2H3

> <STRUCTURE_InChIKey>
XFDJMIHUAHSGKG-UHFFFAOYSA-N

> <Substance_modify_yyyymmdd>
20080429

> <DSSTox_CID_Parent>
12344

> <ChemicalReplicateCount>
1

> <Coord_Metals>
0

> <Index>
50

> <Canonical_Smiles>
CCOP(=S)(OCC)OC(Cl)C(Cl)(Cl)Cl

> <Molecular_Weight>
336.0005

> <Frequency>
1

$$$$

  SciTegic          2D

 23 24  0  0  0  0            999 V2000
    1.2990   -0.7500    0.0000 N   0  0
    1.2990    0.7500    0.0000 N   0  0
    0.0000    1.5000    0.0000 C   0  0
    0.0000   -1.5000    0.0000 C   0  0
   -1.2990    0.7500    0.0000 C   0  0
   -1.2990   -0.7500    0.0000 C   0  0
    0.0000    2.7000    0.0000 O   0  0
   -2.6003   -1.4978    0.0000 N   0  0
   -2.3383    1.3500    0.0000 Cl  0  0
    2.5987    1.5004    0.0000 C   0  0
    3.8991    0.7525    0.0000 C   0  0
    2.5964    3.0004    0.0000 C   0  0
    5.1969    1.5046    0.0000 C   0  0
    3.8943    3.7525    0.0000 C   0  0
    5.1945    3.0046    0.0000 C   0  0
    0.0000   -2.5000    0.0000 H   0  0
   -3.4657   -0.9965    0.0000 H   0  0
   -2.6021   -2.4978    0.0000 H   0  0
    3.9007   -0.2475    0.0000 H   0  0
    1.7296    3.4991    0.0000 H   0  0
    6.0637    1.0060    0.0000 H   0  0
    3.8927    4.7525    0.0000 H   0  0
    6.0597    3.5060    0.0000 H   0  0
  1  2  1  0
  1  4  2  0
  2  3  1  0
  2 10  1  0
  3  5  1  0
  3  7  2  0
  4  6  1  0
  5  6  2  0
  5  9  1  0
  6  8  1  0
 10 11  2  0
 10 12  1  0
 11 13  1  0
 12 14  2  0
 13 15  2  0
 14 15  1  0
  4 16  1  0
  8 17  1  0
  8 18  1  0
 11 19  1  0
 12 20  1  0
 13 21  1  0
 14 22  1  0
 15 23  1  0
M  END
> <DSSTox_RID>
40582

> <DSSTox_CID>
14872

> <DSSTox_Generic_SID>
34872

> <DSSTox_FileID>
51_TOXCST_v3a

> <STRUCTURE_Formula>
C10H8ClN3O

> <STRUCTURE_MolecularWeight>
221.643

> <STRUCTURE_ChemicalType>
defined organic

> <STRUCTURE_TestedForm_DefinedOrganic>
parent

> <STRUCTURE_Shown>
tested chemical

> <TestSubstance_ChemicalName>
Chloridazon

> <Source_ChemicalName>
Chloridazon

> <TestSubstance_CASRN>
1698-60-8

> <TestSubstance_Description>
single chemical compound

> <STRUCTURE_ChemicalName_IUPAC>
5-amino-4-chloro-2-phenylpyridazin-3(2H)-one

> <STRUCTURE_SMILES>
O=C1N(C2=CC=CC=C2)N=CC(N)=C1Cl

> <STRUCTURE_Parent_SMILES>
O=C1N(C2=CC=CC=C2)N=CC(N)=C1Cl

> <STRUCTURE_InChI>
InChI=1S/C10H8ClN3O/c11-9-8(12)6-13-14(10(9)15)7-4-2-1-3-5-7/h1-6H,12H2

> <STRUCTURE_InChIKey>
WYKYKTKDBLFHCY-UHFFFAOYSA-N

> <Substance_modify_yyyymmdd>
20080429

> <DSSTox_CID_Parent>
14872

> <ChemicalReplicateCount>
1

> <Coord_Metals>
0

> <Index>
51

> <Canonical_Smiles>
NC1=C(Cl)C(=O)N(N=C1)c2ccccc2

> <Molecular_Weight>
221.64301

> <Frequency>
1

$$$$

  SciTegic          2D

 20 20  0  0  0  0            999 V2000
    2.5973   -1.5031    0.0000 O   0  0
    2.5951   -3.0039    0.0000 C   0  0
    1.2990   -0.7500    0.0000 C   0  0
    1.2990    0.7500    0.0000 C   0  0
    0.0000    1.5000    0.0000 C   0  0
    0.0000    2.7000    0.0000 Cl  0  0
   -1.2990    0.7500    0.0000 C   0  0
   -2.6003    1.4977    0.0000 O   0  0
   -3.8990    0.7455    0.0000 C   0  0
   -1.2990   -0.7500    0.0000 C   0  0
    0.0000   -1.5000    0.0000 C   0  0
    0.0000   -2.7000    0.0000 Cl  0  0
    3.4601   -3.5057    0.0000 H   0  0
    1.7282   -3.5024    0.0000 H   0  0
    2.5932   -4.0039    0.0000 H   0  0
    2.1651    1.2500    0.0000 H   0  0
   -4.7661    1.2437    0.0000 H   0  0
   -3.8973   -0.2545    0.0000 H   0  0
   -4.7641    0.2438    0.0000 H   0  0
   -2.1651   -1.2500    0.0000 H   0  0
  1  2  1  0
  1  3  1  0
  3  4  2  0
  3 11  1  0
  4  5  1  0
  5  6  1  0
  5  7  2  0
  7  8  1  0
  7 10  1  0
  8  9  1  0
 10 11  2  0
 11 12  1  0
  2 13  1  0
  2 14  1  0
  2 15  1  0
  4 16  1  0
  9 17  1  0
  9 18  1  0
  9 19  1  0
 10 20  1  0
M  END
> <DSSTox_RID>
40382

> <DSSTox_CID>
4793

> <DSSTox_Generic_SID>
24793

> <DSSTox_FileID>
52_TOXCST_v3a

> <STRUCTURE_Formula>
C8H8Cl2O2

> <STRUCTURE_MolecularWeight>
207.0539

> <STRUCTURE_ChemicalType>
defined organic

> <STRUCTURE_TestedForm_DefinedOrganic>
parent

> <STRUCTURE_Shown>
tested chemical

> <TestSubstance_ChemicalName>
Chloroneb

> <Source_ChemicalName>
Chloroneb

> <TestSubstance_CASRN>
2675-77-6

> <TestSubstance_Description>
single chemical compound

> <STRUCTURE_ChemicalName_IUPAC>
1,4-dichloro-2,5-dimethoxybenzene

> <STRUCTURE_SMILES>
O(C)c1cc(Cl)c(OC)cc1Cl

> <STRUCTURE_Parent_SMILES>
O(C)c1cc(Cl)c(OC)cc1Cl

> <STRUCTURE_InChI>
InChI=1S/C8H8Cl2O2/c1-11-7-3-6(10)8(12-2)4-5(7)9/h3-4H,1-2H3

> <STRUCTURE_InChIKey>
PFIADAMVCJPXSF-UHFFFAOYSA-N

> <Substance_modify_yyyymmdd>
20080429

> <DSSTox_CID_Parent>
4793

> <ChemicalReplicateCount>
1

> <Coord_Metals>
0

> <Index>
52

> <Canonical_Smiles>
COc1cc(Cl)c(OC)cc1Cl

> <Molecular_Weight>
207.05391

> <Frequency>
1

$$$$

  SciTegic          2D

 14 14  0  0  0  0            999 V2000
    2.3383   -1.3500    0.0000 Cl  0  0
    1.2990   -0.7500    0.0000 C   0  0
    1.2990    0.7500    0.0000 C   0  0
    0.0000    1.5000    0.0000 C   0  0
   -1.2990    0.7500    0.0000 C   0  0
   -1.2990   -0.7500    0.0000 C   0  0
    0.0000   -1.5000    0.0000 C   0  0
    0.0000   -3.0008    0.0000 C   0  0
    0.0000   -4.2008    0.0000 N   0  0
   -2.3383   -1.3500    0.0000 Cl  0  0
   -2.3383    1.3500    0.0000 Cl  0  0
    0.0000    2.7000    0.0000 Cl  0  0
    2.5988    1.5004    0.0000 C   0  0
    3.6380    2.1004    0.0000 N   0  0
  1  2  1  0
  2  3  2  0
  2  7  1  0
  3  4  1  0
  3 13  1  0
  4  5  2  0
  4 12  1  0
  5  6  1  0
  5 11  1  0
  6  7  2  0
  6 10  1  0
  7  8  1  0
  8  9  3  0
 13 14  3  0
M  END
> <DSSTox_RID>
40384

> <DSSTox_CID>
319

> <DSSTox_Generic_SID>
20319

> <DSSTox_FileID>
53_TOXCST_v3a

> <STRUCTURE_Formula>
C8Cl4N2

> <STRUCTURE_MolecularWeight>
265.911

> <STRUCTURE_ChemicalType>
defined organic

> <STRUCTURE_TestedForm_DefinedOrganic>
parent

> <STRUCTURE_Shown>
tested chemical

> <TestSubstance_ChemicalName>
Chlorothalonil

> <Source_ChemicalName>
Chlorothalonil

> <TestSubstance_CASRN>
1897-45-6

> <TestSubstance_Description>
single chemical compound

> <STRUCTURE_ChemicalName_IUPAC>
2,4,5,6-tetrachloroisophthalonitrile

> <STRUCTURE_SMILES>
ClC1=C(C(=C(C(=C1C#N)Cl)Cl)Cl)C#N

> <STRUCTURE_Parent_SMILES>
ClC1=C(C(=C(C(=C1C#N)Cl)Cl)Cl)C#N

> <STRUCTURE_InChI>
InChI=1S/C8Cl4N2/c9-5-3(1-13)6(10)8(12)7(11)4(5)2-14

> <STRUCTURE_InChIKey>
CRQQGFGUEAVUIL-UHFFFAOYSA-N

> <Substance_modify_yyyymmdd>
20080429

> <DSSTox_CID_Parent>
319

> <ChemicalReplicateCount>
1

> <Coord_Metals>
0

> <Index>
53

> <Canonical_Smiles>
Clc1c(Cl)c(C#N)c(Cl)c(C#N)c1Cl

> <Molecular_Weight>
265.911

> <Frequency>
1

$$$$

  SciTegic          2D

 26 26  0  0  0  0            999 V2000
    1.5548   -3.6021    0.0000 O   0  0
    2.5951   -3.0039    0.0000 C   0  0
    2.5973   -1.5031    0.0000 N   0  0
    1.2990   -0.7500    0.0000 C   0  0
    1.2990    0.7500    0.0000 C   0  0
    0.0000    1.5000    0.0000 C   0  0
   -1.2990    0.7500    0.0000 C   0  0
   -1.2990   -0.7500    0.0000 C   0  0
    0.0000   -1.5000    0.0000 C   0  0
   -2.3383   -1.3500    0.0000 Cl  0  0
    3.8933   -3.7570    0.0000 O   0  0
    3.8912   -5.2578    0.0000 C   0  0
    5.1894   -6.0109    0.0000 C   0  0
    2.5902   -6.0059    0.0000 C   0  0
    3.4642   -1.0046    0.0000 H   0  0
    2.1651    1.2500    0.0000 H   0  0
    0.0000    2.5000    0.0000 H   0  0
   -2.1651    1.2500    0.0000 H   0  0
    0.0000   -2.5000    0.0000 H   0  0
    4.7581   -4.7593    0.0000 H   0  0
    5.1880   -7.0109    0.0000 H   0  0
    6.0563   -5.5124    0.0000 H   0  0
    6.0546   -6.5123    0.0000 H   0  0
    1.7247   -5.5050    0.0000 H   0  0
    1.7235   -6.5048    0.0000 H   0  0
    2.5888   -7.0059    0.0000 H   0  0
  1  2  2  0
  2  3  1  0
  2 11  1  0
  3  4  1  0
  4  5  2  0
  4  9  1  0
  5  6  1  0
  6  7  2  0
  7  8  1  0
  8  9  2  0
  8 10  1  0
 11 12  1  0
 12 13  1  0
 12 14  1  0
  3 15  1  0
  5 16  1  0
  6 17  1  0
  7 18  1  0
  9 19  1  0
 12 20  1  0
 13 21  1  0
 13 22  1  0
 13 23  1  0
 14 24  1  0
 14 25  1  0
 14 26  1  0
M  END
> <DSSTox_RID>
40385

> <DSSTox_CID>
764

> <DSSTox_Generic_SID>
20764

> <DSSTox_FileID>
54_TOXCST_v3a

> <STRUCTURE_Formula>
C10H12ClNO2

> <STRUCTURE_MolecularWeight>
213.6608

> <STRUCTURE_ChemicalType>
defined organic

> <STRUCTURE_TestedForm_DefinedOrganic>
parent

> <STRUCTURE_Shown>
tested chemical

> <TestSubstance_ChemicalName>
Chlorpropham

> <Source_ChemicalName>
Chlorpropham

> <TestSubstance_CASRN>
101-21-3

> <TestSubstance_Description>
single chemical compound

> <STRUCTURE_ChemicalName_IUPAC>
1-methylethyl (3-chlorophenyl)carbamate

> <STRUCTURE_SMILES>
O=C(NC1=CC=CC(=C1)Cl)OC(C)C

> <STRUCTURE_Parent_SMILES>
O=C(NC1=CC=CC(=C1)Cl)OC(C)C

> <STRUCTURE_InChI>
InChI=1S/C10H12ClNO2/c1-7(2)14-10(13)12-9-5-3-4-8(11)6-9/h3-7H,1-2H3,(H,12,13)

> <STRUCTURE_InChIKey>
CWJSHJJYOPWUGX-UHFFFAOYSA-N

> <Substance_modify_yyyymmdd>
20080429

> <DSSTox_CID_Parent>
764

> <ChemicalReplicateCount>
1

> <Coord_Metals>
0

> <Index>
54

> <Canonical_Smiles>
CC(C)OC(=O)Nc1cccc(Cl)c1

> <Molecular_Weight>
213.66077

> <Frequency>
1

$$$$

  SciTegic          2D

 29 29  0  0  0  0            999 V2000
    2.6015   -2.9986    0.0000 C   0  0
    3.9027   -3.7449    0.0000 N   0  0
    3.8990   -0.7455    0.0000 P   0  0
    2.6003   -1.4977    0.0000 O   0  0
    3.9070   -5.2449    0.0000 C   0  0
    1.3046   -3.7523    0.0000 C   0  0
    1.3089   -5.2523    0.0000 C   0  0
    2.6101   -5.9986    0.0000 C   0  0
    3.8969    0.4545    0.0000 O   0  0
    5.2003   -1.4932    0.0000 O   0  0
    2.5738    0.0191    0.0000 O   0  0
    4.9479   -5.8419    0.0000 Cl  0  0
    0.2637   -3.1552    0.0000 Cl  0  0
    2.6135   -7.1986    0.0000 Cl  0  0
    6.4990   -0.7409    0.0000 C   0  0
    2.5724    1.5199    0.0000 C   0  0
    1.2724    2.2699    0.0000 C   0  0
    7.8003   -1.4887    0.0000 C   0  0
    0.4443   -5.7547    0.0000 H   0  0
    6.4973    0.2591    0.0000 H   0  0
    5.6322   -0.2423    0.0000 H   0  0
    3.4381    2.0204    0.0000 H   0  0
    3.4388    1.0206    0.0000 H   0  0
    1.2715    3.2699    0.0000 H   0  0
    0.4067    1.7694    0.0000 H   0  0
    0.4060    2.7693    0.0000 H   0  0
    8.6656   -0.9874    0.0000 H   0  0
    7.8020   -2.4887    0.0000 H   0  0
    8.6671   -1.9873    0.0000 H   0  0
  1  2  2  0
  1  4  1  0
  1  6  1  0
  2  5  1  0
  3  4  1  0
  3  9  2  0
  3 10  1  0
  3 11  1  0
  5 12  1  0
  5  8  2  0
  6  7  2  0
  6 13  1  0
  7  8  1  0
  8 14  1  0
 10 15  1  0
 11 16  1  0
 15 18  1  0
 16 17  1  0
  7 19  1  0
 15 20  1  0
 15 21  1  0
 16 22  1  0
 16 23  1  0
 17 24  1  0
 17 25  1  0
 17 26  1  0
 18 27  1  0
 18 28  1  0
 18 29  1  0
M  END
> <DSSTox_RID>
40386

> <DSSTox_CID>
18666

> <DSSTox_Generic_SID>
38666

> <DSSTox_FileID>
55_TOXCST_v3a

> <STRUCTURE_Formula>
C9H11Cl3NO4P

> <STRUCTURE_MolecularWeight>
334.5207

> <STRUCTURE_ChemicalType>
defined organic

> <STRUCTURE_TestedForm_DefinedOrganic>
parent

> <STRUCTURE_Shown>
tested chemical

> <TestSubstance_ChemicalName>
Chlorpyrifos oxon

> <Source_ChemicalName>
Chlorpyrifos oxon

> <TestSubstance_CASRN>
5598-15-2

> <TestSubstance_Description>
single chemical compound

> <STRUCTURE_ChemicalName_IUPAC>
diethyl 3,5,6-trichloropyridin-2-yl phosphate

> <STRUCTURE_SMILES>
O=P(OCC)(OCC)OC1=NC(Cl)=C(Cl)C=C1Cl

> <STRUCTURE_Parent_SMILES>
O=P(OCC)(OCC)OC1=NC(Cl)=C(Cl)C=C1Cl

> <STRUCTURE_InChI>
InChI=1S/C9H11Cl3NO4P/c1-3-15-18(14,16-4-2)17-9-7(11)5-6(10)8(12)13-9/h5H,3-4H2,1-2H3

> <STRUCTURE_InChIKey>
OTMOUPHCTWPNSL-UHFFFAOYSA-N

> <Substance_modify_yyyymmdd>
20080429

> <DSSTox_CID_Parent>
18666

> <ChemicalReplicateCount>
1

> <Relationship_CID>
oxon analog of 12352; metabolite of TOXREF parent0 458

> <Coord_Metals>
0

> <Index>
55

> <Canonical_Smiles>
CCOP(=O)(OCC)Oc1nc(Cl)c(Cl)cc1Cl

> <Molecular_Weight>
334.5207

> <Frequency>
1

$$$$

  SciTegic          2D

 23 23  0  0  0  0            999 V2000
    1.2990   -0.7500    0.0000 C   0  0
    1.2990    0.7500    0.0000 N   0  0
    3.8990   -0.7455    0.0000 P   0  0
    2.6003   -1.4977    0.0000 O   0  0
    0.0000    1.5000    0.0000 C   0  0
    0.0000   -1.5000    0.0000 C   0  0
   -1.2990   -0.7500    0.0000 C   0  0
   -1.2990    0.7500    0.0000 C   0  0
    3.8969    0.4545    0.0000 S   0  0
    5.2003   -1.4932    0.0000 O   0  0
    2.5738    0.0191    0.0000 O   0  0
    0.0000    2.7000    0.0000 Cl  0  0
    0.0000   -2.7000    0.0000 Cl  0  0
   -2.3383    1.3500    0.0000 Cl  0  0
    6.4990   -0.7409    0.0000 C   0  0
    2.5724    1.5199    0.0000 C   0  0
   -2.1651   -1.2500    0.0000 H   0  0
    7.3661   -1.2392    0.0000 H   0  0
    6.4973    0.2591    0.0000 H   0  0
    7.3641   -0.2393    0.0000 H   0  0
    1.7062    2.0196    0.0000 H   0  0
    3.4381    2.0204    0.0000 H   0  0
    2.5719    2.5199    0.0000 H   0  0
  1  2  2  0
  1  4  1  0
  1  6  1  0
  2  5  1  0
  3  4  1  0
  3  9  2  0
  3 10  1  0
  3 11  1  0
  5 12  1  0
  5  8  2  0
  6  7  2  0
  6 13  1  0
  7  8  1  0
  8 14  1  0
 10 15  1  0
 11 16  1  0
  7 17  1  0
 15 18  1  0
 15 19  1  0
 15 20  1  0
 16 21  1  0
 16 22  1  0
 16 23  1  0
M  END
> <DSSTox_RID>
40387

> <DSSTox_CID>
12352

> <DSSTox_Generic_SID>
32352

> <DSSTox_FileID>
56_TOXCST_v3a

> <STRUCTURE_Formula>
C7H7Cl3NO3PS

> <STRUCTURE_MolecularWeight>
322.5331

> <STRUCTURE_ChemicalType>
defined organic

> <STRUCTURE_TestedForm_DefinedOrganic>
parent

> <STRUCTURE_Shown>
tested chemical

> <TestSubstance_ChemicalName>
Chlorpyrifos-methyl

> <Source_ChemicalName>
Chlorpyrifos-methyl

> <TestSubstance_CASRN>
5598-13-0

> <TestSubstance_Description>
single chemical compound

> <STRUCTURE_ChemicalName_IUPAC>
O,O-dimethyl O-(3,5,6-trichloropyridin-2-yl) thiophosphate

> <STRUCTURE_SMILES>
S=P(OC)(OC)OC1=NC(Cl)=C(Cl)C=C1Cl

> <STRUCTURE_Parent_SMILES>
S=P(OC)(OC)OC1=NC(Cl)=C(Cl)C=C1Cl

> <STRUCTURE_InChI>
InChI=1S/C7H7Cl3NO3PS/c1-12-15(16,13-2)14-7-5(9)3-4(8)6(10)11-7/h3H,1-2H3

> <STRUCTURE_InChIKey>
HRBKVYFZANMGRE-UHFFFAOYSA-N

> <Substance_modify_yyyymmdd>
20080429

> <DSSTox_CID_Parent>
12352

> <ChemicalReplicateCount>
1

> <Relationship_CID>
methyl analog of 18666

> <Coord_Metals>
0

> <Index>
56

> <Canonical_Smiles>
COP(=S)(OC)Oc1nc(Cl)c(Cl)cc1Cl

> <Molecular_Weight>
322.53314

> <Frequency>
1

$$$$

  SciTegic          2D

 35 36  0  0  0  0            999 V2000
    3.8912   -5.2578    0.0000 S   0  0
    1.2990   -0.7500    0.0000 C   0  0
    3.8933   -3.7570    0.0000 N   0  0
    1.2990    0.7500    0.0000 N   0  0
    0.0000   -1.5000    0.0000 N   0  0
    5.1894   -6.0109    0.0000 C   0  0
   -1.2990    0.7500    0.0000 N   0  0
    2.5951   -3.0039    0.0000 C   0  0
    0.0000    1.5000    0.0000 C   0  0
    2.5973   -1.5031    0.0000 N   0  0
   -1.2990   -0.7500    0.0000 C   0  0
    2.8509   -5.8560    0.0000 O   0  0
    2.8529   -4.6562    0.0000 O   0  0
    5.1863   -7.5109    0.0000 C   0  0
    1.5548   -3.6021    0.0000 O   0  0
   -0.0031    3.0008    0.0000 O   0  0
    4.1459   -8.1088    0.0000 Cl  0  0
    6.4900   -5.2636    0.0000 C   0  0
   -2.5988   -1.5004    0.0000 C   0  0
    6.4838   -8.2636    0.0000 C   0  0
   -1.3039    3.7494    0.0000 C   0  0
    7.7875   -6.0162    0.0000 C   0  0
    7.7844   -7.5162    0.0000 C   0  0
    4.7602   -3.2585    0.0000 H   0  0
    3.4642   -1.0046    0.0000 H   0  0
    6.4920   -4.2636    0.0000 H   0  0
   -2.5994   -2.5004    0.0000 H   0  0
   -3.4647   -1.0002    0.0000 H   0  0
   -3.4650   -2.0000    0.0000 H   0  0
    6.4818   -9.2636    0.0000 H   0  0
   -1.3060    4.7494    0.0000 H   0  0
   -2.1691    3.2479    0.0000 H   0  0
   -2.1709    4.2477    0.0000 H   0  0
    8.6545   -5.5180    0.0000 H   0  0
    8.6494   -8.0180    0.0000 H   0  0
  1  3  1  0
  1  6  1  0
  1 12  2  0
  1 13  2  0
  2 10  1  0
  2  4  2  0
  2  5  1  0
  3  8  1  0
  4  9  1  0
  5 11  2  0
  6 14  2  0
  6 18  1  0
  7 11  1  0
  7  9  2  0
  8 10  1  0
  8 15  2  0
  9 16  1  0
 11 19  1  0
 14 17  1  0
 14 20  1  0
 16 21  1  0
 18 22  2  0
 20 23  2  0
 22 23  1  0
  3 24  1  0
 10 25  1  0
 18 26  1  0
 19 27  1  0
 19 28  1  0
 19 29  1  0
 20 30  1  0
 21 31  1  0
 21 32  1  0
 21 33  1  0
 22 34  1  0
 23 35  1  0
M  END
> <DSSTox_RID>
40388
40762

> <DSSTox_CID>
3980
3980

> <DSSTox_Generic_SID>
23980
23980

> <DSSTox_FileID>
57_TOXCST_v3a
58_TOXCST_v3a

> <STRUCTURE_Formula>
C12H12ClN5O4S
C12H12ClN5O4S

> <STRUCTURE_MolecularWeight>
357.7728
357.7728

> <STRUCTURE_ChemicalType>
defined organic
defined organic

> <STRUCTURE_TestedForm_DefinedOrganic>
parent
parent

> <STRUCTURE_Shown>
tested chemical
tested chemical

> <TestSubstance_ChemicalName>
Chlorsulfuron
Chlorsulfuron

> <Source_ChemicalName>
Chlorsulfuron
Chlorsulfuron

> <TestSubstance_CASRN>
64902-72-3
64902-72-3

> <TestSubstance_Description>
single chemical compound
single chemical compound

> <STRUCTURE_ChemicalName_IUPAC>
2-chloro-N-{[(4-methoxy-6-methyl-1,3,5-triazin-2-yl)amino]carbonyl}benzenesulfonamide
2-chloro-N-{[(4-methoxy-6-methyl-1,3,5-triazin-2-yl)amino]carbonyl}benzenesulfonamide

> <STRUCTURE_SMILES>
Cc2nc(NC(=O)NS(=O)(=O)c1ccccc1Cl)nc(OC)n2
Cc2nc(NC(=O)NS(=O)(=O)c1ccccc1Cl)nc(OC)n2

> <STRUCTURE_Parent_SMILES>
Cc2nc(NC(=O)NS(=O)(=O)c1ccccc1Cl)nc(OC)n2
Cc2nc(NC(=O)NS(=O)(=O)c1ccccc1Cl)nc(OC)n2

> <STRUCTURE_InChI>
InChI=1S/C12H12ClN5O4S/c1-7-14-10(17-12(15-7)22-2)16-11(19)18-23(20,21)9-6-4-3-5-8(9)13/h3-6H,1-2H3,(H2,14,15,16,17,18,19)
InChI=1S/C12H12ClN5O4S/c1-7-14-10(17-12(15-7)22-2)16-11(19)18-23(20,21)9-6-4-3-5-8(9)13/h3-6H,1-2H3,(H2,14,15,16,17,18,19)

> <STRUCTURE_InChIKey>
VJYIFXVZLXQVHO-UHFFFAOYSA-N
VJYIFXVZLXQVHO-UHFFFAOYSA-N

> <Substance_modify_yyyymmdd>
20080429
20080429

> <DSSTox_CID_Parent>
3980
3980

> <ChemicalReplicateCount>
1 of 2
2 of 2

> <Relationship_CID>
duplicate of 3980
duplicate of 3980

> <Coord_Metals>
0
0

> <Index>
57
58

> <Canonical_Smiles>
COc1nc(C)nc(NC(=O)NS(=O)(=O)c2ccccc2Cl)n1

> <Molecular_Weight>
357.77278
357.77278

> <Frequency>
2

$$$$

  SciTegic          2D

 46 48  0  0  0  0            999 V2000
   -0.9509    0.0731    0.0000 C   0  0
   -1.4995   -1.0789    0.0000 C   0  0
   -0.2194   -0.6035    0.0000 C   0  0
    0.3109    0.7498    0.0000 C   0  0
    0.0000    2.0116    0.0000 O   0  0
    0.8595   -1.1887    0.0000 C   0  0
    1.4995    0.0549    0.0000 C   0  0
   -1.4554    0.2628    0.0000 C   0  0
   -0.2943    2.1263    0.0000 C   0  0
   -1.7858    2.2936    0.0000 C   0  0
    0.5959    3.3345    0.0000 C   0  0
    2.1208   -1.9966    0.0000 O   0  0
    2.0577   -3.4961    0.0000 C   0  0
    3.3242   -4.3013    0.0000 C   0  0
    4.6541   -3.6075    0.0000 C   0  0
    3.2602   -5.8000    0.0000 C   0  0
    5.9199   -4.4122    0.0000 C   0  0
    4.5260   -6.6047    0.0000 C   0  0
    5.8559   -5.9109    0.0000 C   0  0
    1.9296   -6.4942    0.0000 C   0  0
   -0.6743    1.0341    0.0000 H   0  0
   -1.8976   -0.2490    0.0000 H   0  0
   -1.3009   -2.0590    0.0000 H   0  0
   -2.4582   -0.7945    0.0000 H   0  0
    0.1768   -1.9194    0.0000 H   0  0
    1.7325    1.0273    0.0000 H   0  0
    2.2181   -0.6406    0.0000 H   0  0
   -2.3586   -0.1664    0.0000 H   0  0
   -1.3757    1.2596    0.0000 H   0  0
   -2.2787    0.8303    0.0000 H   0  0
   -0.6948    3.0426    0.0000 H   0  0
   -2.1867    3.2098    0.0000 H   0  0
   -2.3790    1.4886    0.0000 H   0  0
   -2.7796    2.4047    0.0000 H   0  0
    0.1959    4.2510    0.0000 H   0  0
    1.5897    3.2230    0.0000 H   0  0
    1.1895    4.1393    0.0000 H   0  0
    1.2135   -2.9600    0.0000 H   0  0
    1.1712   -3.9590    0.0000 H   0  0
    4.6968   -2.6084    0.0000 H   0  0
    6.8065   -3.9497    0.0000 H   0  0
    4.4833   -7.6038    0.0000 H   0  0
    6.6998   -6.4474    0.0000 H   0  0
    1.0853   -5.9582    0.0000 H   0  0
    1.8872   -7.4933    0.0000 H   0  0
    1.0432   -6.9572    0.0000 H   0  0
  1  2  1  0
  1  4  1  0
  2  3  1  0
  3  5  1  0
  3  6  1  0
  3  8  1  0
  4  5  1  0
  4  7  1  0
  4  9  1  0
  6  7  1  0
  6 12  1  0
  9 10  1  0
  9 11  1  0
 12 13  1  0
 13 14  1  0
 14 15  1  0
 14 16  2  0
 15 17  2  0
 16 18  1  0
 16 20  1  0
 17 19  1  0
 18 19  2  0
  1 21  1  0
  1 22  1  0
  2 23  1  0
  2 24  1  0
  6 25  1  0
  7 26  1  0
  7 27  1  0
  8 28  1  0
  8 29  1  0
  8 30  1  0
  9 31  1  0
 10 32  1  0
 10 33  1  0
 10 34  1  0
 11 35  1  0
 11 36  1  0
 11 37  1  0
 13 38  1  0
 13 39  1  0
 15 40  1  0
 17 41  1  0
 18 42  1  0
 19 43  1  0
 20 44  1  0
 20 45  1  0
 20 46  1  0
M  END
> <DSSTox_RID>
40389

> <DSSTox_CID>
14456

> <DSSTox_Generic_SID>
34456

> <DSSTox_FileID>
59_TOXCST_v3a

> <STRUCTURE_Formula>
C18H26O2

> <STRUCTURE_MolecularWeight>
274.3978

> <STRUCTURE_ChemicalType>
defined organic

> <STRUCTURE_TestedForm_DefinedOrganic>
parent

> <STRUCTURE_Shown>
tested chemical

> <TestSubstance_ChemicalName>
Cinmethylin

> <Source_ChemicalName>
Cinmethylin

> <TestSubstance_CASRN>
87818-31-3

> <TestSubstance_Description>
single chemical compound

> <ChemicalNote>
relative stereochem

> <STRUCTURE_ChemicalName_IUPAC>
(1S,2R,4R)-1-methyl-2-[(2-methylbenzyl)oxy]-4-(propan-2-yl)-7-oxabicyclo[2.2.1]heptane

> <STRUCTURE_SMILES>
C[C@@]1([C@H](OCC3=C(C)C=CC=C3)C2)CC[C@@]2(C(C)C)O1

> <STRUCTURE_Parent_SMILES>
C[C@@]1([C@H](OCC3=C(C)C=CC=C3)C2)CC[C@@]2(C(C)C)O1

> <STRUCTURE_InChI>
InChI=1S/C18H26O2/c1-13(2)18-10-9-17(4,20-18)16(11-18)19-12-15-8-6-5-7-14(15)3/h5-8,13,16H,9-12H2,1-4H3/t16-,17+,18-/m1/s1

> <STRUCTURE_InChIKey>
QMTNOLKHSWIQBE-FGTMMUONSA-N

> <Substance_modify_yyyymmdd>
20080815

> <DSSTox_CID_Parent>
14456

> <ChemicalReplicateCount>
1

> <Note_TOXCST>
stereochem added v3a

> <Coord_Metals>
0

> <Index>
59

> <Canonical_Smiles>
CC(C)C12CCC(C)(O1)C(C2)OCc3ccccc3C

> <Molecular_Weight>
274.39784

> <Frequency>
1

$$$$

  SciTegic          2D

 27 28  0  0  0  0            999 V2000
    0.2917   -0.7475    0.0000 C   0  0
    0.2917    0.7475    0.0000 C   0  0
    1.7138    1.2033    0.0000 C   0  0
    2.0825    2.3453    0.0000 O   0  0
    2.5889    0.0182    0.0000 N   0  0
    1.7138   -1.2033    0.0000 C   0  0
    2.0907   -2.3426    0.0000 O   0  0
    4.0872    0.0320    0.0000 S   0  0
    4.8506   -1.2602    0.0000 C   0  0
    6.3513   -1.2462    0.0000 C   0  0
    6.9616   -2.2794    0.0000 Cl  0  0
    6.9413   -0.2013    0.0000 Cl  0  0
    4.2606   -2.3052    0.0000 Cl  0  0
    3.6506   -1.2719    0.0000 Cl  0  0
   -1.0028    1.5132    0.0000 C   0  0
   -2.3155    0.7475    0.0000 C   0  0
   -2.3155   -0.7475    0.0000 C   0  0
   -1.0028   -1.5132    0.0000 C   0  0
    0.4035   -1.7412    0.0000 H   0  0
    0.4035    1.7412    0.0000 H   0  0
    7.3513   -1.2364    0.0000 H   0  0
   -0.1240    1.9905    0.0000 H   0  0
   -1.8785    1.9960    0.0000 H   0  0
   -3.1826    1.2456    0.0000 H   0  0
   -3.1826   -1.2456    0.0000 H   0  0
   -0.1240   -1.9905    0.0000 H   0  0
   -1.8785   -1.9960    0.0000 H   0  0
  1  2  1  0
  1  6  1  0
  1 18  1  0
  2  3  1  0
  2 15  1  0
  3  4  2  0
  3  5  1  0
  5  6  1  0
  5  8  1  0
  6  7  2  0
  8  9  1  0
  9 10  1  0
  9 13  1  0
  9 14  1  0
 10 11  1  0
 10 12  1  0
 15 16  1  0
 16 17  2  0
 17 18  1  0
  1 19  1  0
  2 20  1  0
 10 21  1  0
 15 22  1  0
 15 23  1  0
 16 24  1  0
 17 25  1  0
 18 26  1  0
 18 27  1  0
M  END
> <DSSTox_RID>
40372

> <DSSTox_CID>
242

> <DSSTox_Generic_SID>
20242

> <DSSTox_FileID>
60_TOXCST_v3a

> <STRUCTURE_Formula>
C10H9Cl4NO2S

> <STRUCTURE_MolecularWeight>
349.061

> <STRUCTURE_ChemicalType>
defined organic

> <STRUCTURE_TestedForm_DefinedOrganic>
parent

> <STRUCTURE_Shown>
tested chemical

> <TestSubstance_ChemicalName>
Captafol

> <Source_ChemicalName>
Captafol

> <TestSubstance_CASRN>
2425-06-1

> <TestSubstance_Description>
single chemical compound

> <ChemicalNote>
mixture Z- [2939-80-2] and E-isomers; structure shown without stereochem

> <STRUCTURE_ChemicalName_IUPAC>
2-[(1,1,2,2-tetrachloroethyl)thio]-3a,4,7,7a-tetrahydro-1H-isoindole-1,3(2H)-dione

> <STRUCTURE_SMILES>
C12C(C(=O)N(C1=O)SC(C(Cl)Cl)(Cl)Cl)C\C=C/C2

> <STRUCTURE_Parent_SMILES>
C12C(C(=O)N(C1=O)SC(C(Cl)Cl)(Cl)Cl)C\C=C/C2

> <STRUCTURE_InChI>
InChI=1S/C10H9Cl4NO2S/c11-9(12)10(13,14)18-15-7(16)5-3-1-2-4-6(5)8(15)17/h1-2,5-6,9H,3-4H2

> <STRUCTURE_InChIKey>
JHRWWRDRBPCWTF-UHFFFAOYSA-N

> <Substance_modify_yyyymmdd>
20080429

> <DSSTox_CID_Parent>
242

> <ChemicalReplicateCount>
1

> <Note_TOXCST>
stereochem removed v2b; CofA indicated no stereochem so CASRN corrected v3a

> <Coord_Metals>
0

> <Index>
60

> <Canonical_Smiles>
ClC(Cl)C(Cl)(Cl)SN1C(=O)C2CC=CCC2C1=O

> <Molecular_Weight>
349.06096

> <Frequency>
1

$$$$

  SciTegic          2D

 37 38  0  0  0  0            999 V2000
    3.8933   -3.7570    0.0000 C   0  0
    2.5951   -3.0039    0.0000 C   0  0
    3.9200   -2.2388    0.0000 C   0  0
    4.7602   -3.2585    0.0000 O   0  0
    3.8912   -5.2578    0.0000 O   0  0
    2.5973   -1.5031    0.0000 O   0  0
    1.2990   -0.7500    0.0000 C   0  0
    1.2990    0.7500    0.0000 C   0  0
    0.0000   -1.5000    0.0000 C   0  0
    0.0000    1.5000    0.0000 C   0  0
   -1.2990   -0.7500    0.0000 C   0  0
   -1.2990    0.7500    0.0000 C   0  0
   -2.6003    1.4977    0.0000 O   0  0
   -3.8939   -0.7546    0.0000 N   0  0
   -5.1903   -1.5091    0.0000 C   0  0
   -3.8990    0.7455    0.0000 C   0  0
   -5.2007    1.4909    0.0000 C   0  0
   -6.4920   -0.7636    0.0000 C   0  0
   -6.4972    0.7364    0.0000 C   0  0
   -7.5291   -1.3672    0.0000 Cl  0  0
   -5.2049    2.6909    0.0000 F   0  0
    5.1894   -6.0109    0.0000 C   0  0
    5.1873   -7.5117    0.0000 C   0  0
    5.1851   -9.0125    0.0000 C   0  0
    1.7282   -3.5024    0.0000 H   0  0
    3.9205   -1.2388    0.0000 H   0  0
    4.7862   -1.7390    0.0000 H   0  0
    4.7860   -2.7389    0.0000 H   0  0
    2.1651    1.2500    0.0000 H   0  0
    0.0000   -2.5000    0.0000 H   0  0
    0.0000    2.5000    0.0000 H   0  0
   -2.1651   -1.2500    0.0000 H   0  0
   -5.1869   -2.5091    0.0000 H   0  0
   -7.3649    1.2334    0.0000 H   0  0
    6.0563   -5.5124    0.0000 H   0  0
    5.1913   -5.0109    0.0000 H   0  0
    5.1837  -10.0125    0.0000 H   0  0
  1  2  1  0
  1  5  1  0
  1  4  2  0
  2  3  1  0
  2  6  1  0
  5 22  1  0
  6  7  1  0
  7  8  2  0
  7  9  1  0
  8 10  1  0
  9 11  2  0
 10 12  2  0
 11 12  1  0
 12 13  1  0
 13 16  1  0
 14 15  1  0
 14 16  2  0
 15 18  2  0
 16 17  1  0
 17 19  2  0
 17 21  1  0
 18 19  1  0
 18 20  1  0
 22 23  1  0
 23 24  3  0
  2 25  1  0
  3 26  1  0
  3 27  1  0
  3 28  1  0
  8 29  1  0
  9 30  1  0
 10 31  1  0
 11 32  1  0
 15 33  1  0
 19 34  1  0
 22 35  1  0
 22 36  1  0
 24 37  1  0
M  END
> <DSSTox_RID>
40390

> <DSSTox_CID>
12354

> <DSSTox_Generic_SID>
32354

> <DSSTox_FileID>
61_TOXCST_v3a

> <STRUCTURE_Formula>
C17H13ClFNO4

> <STRUCTURE_MolecularWeight>
349.7408

> <STRUCTURE_ChemicalType>
defined organic

> <STRUCTURE_TestedForm_DefinedOrganic>
parent

> <STRUCTURE_Shown>
tested chemical

> <TestSubstance_ChemicalName>
Clodinafop-propargyl

> <Source_ChemicalName>
Clodinafop-propargyl

> <TestSubstance_CASRN>
105512-06-9

> <TestSubstance_Description>
single chemical compound

> <ChemicalNote>
stereochem, commonly used pesticide formulations 95% (2R); 5% (2S), structure shown (2R); CASRN for (2R) [105512-06-9]; CASRN for a mixture of stereoisomers [105511-96-4]

> <STRUCTURE_ChemicalName_IUPAC>
prop-2-yn-1-yl (2R)-2-{4-[(5-chloro-3-fluoropyridin-2-yl)oxy]phenoxy}propanoate

> <STRUCTURE_SMILES>
O=C(OCC#C)[C@H](OC1=CC=C(OC2=NC=C(Cl)C=C2F)C=C1)C

> <STRUCTURE_Parent_SMILES>
O=C(OCC#C)[C@H](OC1=CC=C(OC2=NC=C(Cl)C=C2F)C=C1)C

> <STRUCTURE_InChI>
InChI=1S/C17H13ClFNO4/c1-3-8-22-17(21)11(2)23-13-4-6-14(7-5-13)24-16-15(19)9-12(18)10-20-16/h1,4-7,9-11H,8H2,2H3/t11-/m1/s1

> <STRUCTURE_InChIKey>
JBDHZKLJNAIJNC-LLVKDONJSA-N

> <Substance_modify_yyyymmdd>
20080429

> <DSSTox_CID_Parent>
12354

> <ChemicalReplicateCount>
1

> <Coord_Metals>
0

> <Index>
61

> <Canonical_Smiles>
CC(Oc1ccc(Oc2ncc(Cl)cc2F)cc1)C(=O)OCC#C

> <Molecular_Weight>
349.74082

> <Frequency>
1

$$$$

  SciTegic          2D

 28 30  0  0  0  0            999 V2000
    1.2990   -0.7500    0.0000 C   0  0
   -1.2990    0.7500    0.0000 C   0  0
    1.2990    0.7500    0.0000 N   0  0
    0.0000    1.5000    0.0000 N   0  0
    0.0000   -1.5000    0.0000 N   0  0
   -1.2990   -0.7500    0.0000 N   0  0
    2.5987   -1.5004    0.0000 C   0  0
   -2.5987    1.5004    0.0000 C   0  0
   -2.6012    3.0004    0.0000 C   0  0
    3.8991   -0.7525    0.0000 C   0  0
    3.9010    0.4475    0.0000 Cl  0  0
   -1.5630    3.6021    0.0000 Cl  0  0
    2.5965   -3.0004    0.0000 C   0  0
   -3.8967    0.7484    0.0000 C   0  0
    5.1969   -1.5045    0.0000 C   0  0
   -3.9015    3.7484    0.0000 C   0  0
   -5.1969    1.4963    0.0000 C   0  0
    3.8943   -3.7525    0.0000 C   0  0
   -5.1993    2.9963    0.0000 C   0  0
    5.1945   -3.0045    0.0000 C   0  0
    1.7297   -3.4991    0.0000 H   0  0
   -3.8951   -0.2516    0.0000 H   0  0
    6.0637   -1.0059    0.0000 H   0  0
   -3.9030    4.7484    0.0000 H   0  0
   -6.0621    0.9949    0.0000 H   0  0
    3.8927   -4.7525    0.0000 H   0  0
   -6.0661    3.4949    0.0000 H   0  0
    6.0598   -3.5059    0.0000 H   0  0
  1  3  1  0
  1  5  2  0
  1  7  1  0
  2  6  2  0
  2  8  1  0
  2  4  1  0
  3  4  2  0
  5  6  1  0
  7 10  1  0
  7 13  2  0
  8  9  2  0
  8 14  1  0
  9 12  1  0
  9 16  1  0
 10 11  1  0
 10 15  2  0
 13 18  1  0
 14 17  2  0
 15 20  1  0
 16 19  2  0
 17 19  1  0
 18 20  2  0
 13 21  1  0
 14 22  1  0
 15 23  1  0
 16 24  1  0
 17 25  1  0
 18 26  1  0
 19 27  1  0
 20 28  1  0
M  END
> <DSSTox_RID>
40345

> <DSSTox_CID>
3881

> <DSSTox_Generic_SID>
23881

> <DSSTox_FileID>
62_TOXCST_v3a

> <STRUCTURE_Formula>
C14H8Cl2N4

> <STRUCTURE_MolecularWeight>
303.1461

> <STRUCTURE_ChemicalType>
defined organic

> <STRUCTURE_TestedForm_DefinedOrganic>
parent

> <STRUCTURE_Shown>
tested chemical

> <TestSubstance_ChemicalName>
Clofentezine

> <Source_ChemicalName>
Clofentezine

> <TestSubstance_CASRN>
74115-24-5

> <TestSubstance_Description>
single chemical compound

> <STRUCTURE_ChemicalName_IUPAC>
3,6-bis(2-chlorophenyl)-1,2,4,5-tetrazine

> <STRUCTURE_SMILES>
Clc3ccccc3c1nnc(nn1)c2ccccc2Cl

> <STRUCTURE_Parent_SMILES>
Clc3ccccc3c1nnc(nn1)c2ccccc2Cl

> <STRUCTURE_InChI>
InChI=1S/C14H8Cl2N4/c15-11-7-3-1-5-9(11)13-17-19-14(20-18-13)10-6-2-4-8-12(10)16/h1-8H

> <STRUCTURE_InChIKey>
UXADOQPNKNTIHB-UHFFFAOYSA-N

> <Substance_modify_yyyymmdd>
20080429

> <DSSTox_CID_Parent>
3881

> <ChemicalReplicateCount>
1

> <Coord_Metals>
0

> <Index>
62

> <Canonical_Smiles>
Clc1ccccc1c2nnc(nn2)c3ccccc3Cl

> <Molecular_Weight>
303.14612

> <Frequency>
1

$$$$

  SciTegic          2D

 30 31  0  0  0  0            999 V2000
    3.8990   -0.7508    0.0000 N   0  0
    5.2499   -1.3728    0.0000 C   0  0
    6.2543   -0.2587    0.0000 C   0  0
    4.0377    0.7299    0.0000 O   0  0
    2.5988   -1.5004    0.0000 C   0  0
    1.2990   -0.7500    0.0000 C   0  0
    5.5052    1.0408    0.0000 C   0  0
    5.4917   -2.5481    0.0000 O   0  0
    1.2990    0.7500    0.0000 C   0  0
    2.3383    1.3500    0.0000 Cl  0  0
    7.1101    0.9580    0.0000 C   0  0
    6.8370   -1.6277    0.0000 C   0  0
    0.0000   -1.5000    0.0000 C   0  0
    0.0000    1.5000    0.0000 C   0  0
   -1.2990   -0.7500    0.0000 C   0  0
   -1.2990    0.7500    0.0000 C   0  0
    2.5985   -2.5004    0.0000 H   0  0
    3.4646   -2.0008    0.0000 H   0  0
    6.5012    1.1298    0.0000 H   0  0
    4.9059    1.8414    0.0000 H   0  0
    6.7043    1.8720    0.0000 H   0  0
    7.6986    1.7665    0.0000 H   0  0
    8.1045    0.8528    0.0000 H   0  0
    7.8314   -1.7336    0.0000 H   0  0
    7.2427   -2.5417    0.0000 H   0  0
    6.2484   -2.4361    0.0000 H   0  0
    0.0000   -2.5000    0.0000 H   0  0
    0.0000    2.5000    0.0000 H   0  0
   -2.1651   -1.2500    0.0000 H   0  0
   -2.1651    1.2500    0.0000 H   0  0
  1  2  1  0
  1  4  1  0
  1  5  1  0
  2  3  1  0
  2  8  2  0
  3 11  1  0
  3 12  1  0
  3  7  1  0
  4  7  1  0
  5  6  1  0
  6  9  2  0
  6 13  1  0
  9 10  1  0
  9 14  1  0
 13 15  2  0
 14 16  2  0
 15 16  1  0
  5 17  1  0
  5 18  1  0
  7 19  1  0
  7 20  1  0
 11 21  1  0
 11 22  1  0
 11 23  1  0
 12 24  1  0
 12 25  1  0
 12 26  1  0
 13 27  1  0
 14 28  1  0
 15 29  1  0
 16 30  1  0
M  END
> <DSSTox_RID>
40392

> <DSSTox_CID>
12355

> <DSSTox_Generic_SID>
32355

> <DSSTox_FileID>
63_TOXCST_v3a

> <STRUCTURE_Formula>
C12H14ClNO2

> <STRUCTURE_MolecularWeight>
239.6981

> <STRUCTURE_ChemicalType>
defined organic

> <STRUCTURE_TestedForm_DefinedOrganic>
parent

> <STRUCTURE_Shown>
tested chemical

> <TestSubstance_ChemicalName>
Clomazone

> <Source_ChemicalName>
Clomazone

> <TestSubstance_CASRN>
81777-89-1

> <TestSubstance_Description>
single chemical compound

> <STRUCTURE_ChemicalName_IUPAC>
2-(2-chlorobenzyl)-4,4-dimethylisoxazolidin-3-one

> <STRUCTURE_SMILES>
O=C1N(CC(C=CC=C2)=C2Cl)OCC(C)1C

> <STRUCTURE_Parent_SMILES>
O=C1N(CC(C=CC=C2)=C2Cl)OCC(C)1C

> <STRUCTURE_InChI>
InChI=1S/C12H14ClNO2/c1-12(2)8-16-14(11(12)15)7-9-5-3-4-6-10(9)13/h3-6H,7-8H2,1-2H3

> <STRUCTURE_InChIKey>
KIEDNEWSYUYDSN-UHFFFAOYSA-N

> <Substance_modify_yyyymmdd>
20080429

> <DSSTox_CID_Parent>
12355

> <ChemicalReplicateCount>
1

> <Coord_Metals>
0

> <Index>
63

> <Canonical_Smiles>
CC1(C)CON(Cc2ccccc2Cl)C1=O

> <Molecular_Weight>
239.69805

> <Frequency>
1

$$$$

  SciTegic          2D

 22 22  0  0  0  0            999 V2000
    3.8933   -3.7570    0.0000 C   0  0
    2.5951   -3.0039    0.0000 C   0  0
    3.9200   -2.2388    0.0000 C   0  0
    4.9336   -3.1588    0.0000 O   0  0
    3.8912   -5.2578    0.0000 O   0  0
    2.5973   -1.5031    0.0000 O   0  0
    1.2990   -0.7500    0.0000 C   0  0
    1.2990    0.7500    0.0000 C   0  0
    0.0000   -1.5000    0.0000 C   0  0
    0.0000    1.5000    0.0000 C   0  0
   -1.2990   -0.7500    0.0000 C   0  0
   -1.2990    0.7500    0.0000 C   0  0
    0.0000    2.7000    0.0000 Cl  0  0
    1.7282   -3.5024    0.0000 H   0  0
    3.9205   -1.2388    0.0000 H   0  0
    4.7862   -1.7390    0.0000 H   0  0
    4.7860   -2.7389    0.0000 H   0  0
    4.7562   -5.7596    0.0000 H   0  0
    2.1651    1.2500    0.0000 H   0  0
    0.0000   -2.5000    0.0000 H   0  0
   -2.1651   -1.2500    0.0000 H   0  0
   -2.1651    1.2500    0.0000 H   0  0
  1  2  1  0
  1  5  1  0
  1  4  2  0
  2  3  1  0
  2  6  1  0
  6  7  1  0
  7  8  2  0
  7  9  1  0
  8 10  1  0
  9 11  2  0
 10 12  2  0
 10 13  1  0
 11 12  1  0
  2 14  1  0
  3 15  1  0
  3 16  1  0
  3 17  1  0
  5 18  1  0
  8 19  1  0
  9 20  1  0
 11 21  1  0
 12 22  1  0
M  END
> <DSSTox_RID>
40305

> <DSSTox_CID>
14232

> <DSSTox_Generic_SID>
34232

> <DSSTox_FileID>
64_TOXCST_v3a

> <STRUCTURE_Formula>
C9H9ClO3

> <STRUCTURE_MolecularWeight>
200.619

> <STRUCTURE_ChemicalType>
defined organic

> <STRUCTURE_TestedForm_DefinedOrganic>
parent

> <STRUCTURE_Shown>
tested chemical

> <TestSubstance_ChemicalName>
Cloprop

> <Source_ChemicalName>
Cloprop

> <TestSubstance_CASRN>
101-10-0

> <TestSubstance_Description>
single chemical compound

> <STRUCTURE_ChemicalName_IUPAC>
2-(3-chlorophenoxy)propanoic acid

> <STRUCTURE_SMILES>
O=C(O)C(OC1=CC(Cl)=CC=C1)C

> <STRUCTURE_Parent_SMILES>
O=C(O)C(OC1=CC(Cl)=CC=C1)C

> <STRUCTURE_InChI>
InChI=1S/C9H9ClO3/c1-6(9(11)12)13-8-4-2-3-7(10)5-8/h2-6H,1H3,(H,11,12)

> <STRUCTURE_InChIKey>
YNTJKQDWYXUTLZ-UHFFFAOYSA-N

> <Substance_modify_yyyymmdd>
20080429

> <DSSTox_CID_Parent>
14232

> <ChemicalReplicateCount>
1

> <Coord_Metals>
0

> <Index>
64

> <Canonical_Smiles>
CC(Oc1cccc(Cl)c1)C(=O)O

> <Molecular_Weight>
200.61895

> <Frequency>
1

$$$$

  SciTegic          2D

 14 14  0  0  0  0            999 V2000
    1.2990   -0.7500    0.0000 N   0  0
    1.2990    0.7500    0.0000 C   0  0
    0.0000   -1.5000    0.0000 C   0  0
   -1.2990   -0.7500    0.0000 C   0  0
    0.0000    1.5000    0.0000 C   0  0
   -1.2990    0.7500    0.0000 C   0  0
    0.0031   -3.0008    0.0000 C   0  0
   -1.0351   -3.6026    0.0000 O   0  0
    1.3039   -3.7494    0.0000 O   0  0
   -2.3383   -1.3500    0.0000 Cl  0  0
    2.3383    1.3500    0.0000 Cl  0  0
    0.0000    2.5000    0.0000 H   0  0
   -2.1651    1.2500    0.0000 H   0  0
    1.3060   -4.7494    0.0000 H   0  0
  1  2  2  0
  1  3  1  0
  2  5  1  0
  2 11  1  0
  3  4  2  0
  3  7  1  0
  4  6  1  0
  4 10  1  0
  5  6  2  0
  7  8  2  0
  7  9  1  0
  5 12  1  0
  6 13  1  0
  9 14  1  0
M  END
> <DSSTox_RID>
40393
40322

> <DSSTox_CID>
9221
12582

> <DSSTox_Generic_SID>
29221
34265

> <DSSTox_FileID>
65_TOXCST_v3a
66_TOXCST_v3a

> <STRUCTURE_Formula>
C6H3Cl2NO2
C8H10Cl2N2O3

> <STRUCTURE_MolecularWeight>
191.9995
253.0826

> <STRUCTURE_ChemicalType>
defined organic
defined organic

> <STRUCTURE_TestedForm_DefinedOrganic>
parent
complex ethanolamine (C2H7NO)

> <STRUCTURE_Shown>
tested chemical
tested chemical

> <TestSubstance_ChemicalName>
Clopyralid
Clopyralid-olamine

> <Source_ChemicalName>
Clopyralid
Clopyralid-olamine

> <TestSubstance_CASRN>
1702-17-6
57754-85-5

> <TestSubstance_Description>
single chemical compound
single chemical compound

> <STRUCTURE_ChemicalName_IUPAC>
3,6-dichloropyridine-2-carboxylic acid
3,6-dichloropyridine-2-carboxylic acid - 2-aminoethanol (1:1)

> <STRUCTURE_SMILES>
O=C(O)C1=C(Cl)C=CC(Cl)=N1
O=C(O)C1=C(Cl)C=CC(Cl)=N1.OCCN

> <STRUCTURE_Parent_SMILES>
O=C(O)C1=C(Cl)C=CC(Cl)=N1
O=C(O)C1=C(Cl)C=CC(Cl)=N1

> <STRUCTURE_InChI>
InChI=1S/C6H3Cl2NO2/c7-3-1-2-4(8)9-5(3)6(10)11/h1-2H,(H,10,11)
InChI=1S/C6H3Cl2NO2.C2H7NO/c7-3-1-2-4(8)9-5(3)6(10)11;3-1-2-4/h1-2H,(H,10,11);4H,1-3H2

> <STRUCTURE_InChIKey>
HUBANNPOLNYSAD-UHFFFAOYSA-N
NQQBTWVFKDDVIB-UHFFFAOYSA-N

> <Substance_modify_yyyymmdd>
20080429
20080429

> <DSSTox_CID_Parent>
9221
9221

> <ChemicalReplicateCount>
1
1

> <Relationship_CID>
parent of complex 12582
complex of parent 9221

> <Coord_Metals>
0
0

> <Index>
65
66

> <Canonical_Smiles>
OC(=O)c1nc(Cl)ccc1Cl

> <Molecular_Weight>
191.99951
191.99951

> <ChemicalNote>
parent [1702-17-6]

> <Frequency>
2

$$$$

  SciTegic          2D

 26 27  0  0  0  0            999 V2000
    2.5973   -1.5031    0.0000 O   0  0
    1.2990   -0.7500    0.0000 C   0  0
    1.2990    0.7500    0.0000 C   0  0
    0.0000    1.5000    0.0000 C   0  0
   -1.2990    0.7500    0.0000 C   0  0
   -1.2990   -0.7500    0.0000 C   0  0
    0.0000   -1.5000    0.0000 C   0  0
   -2.3383    1.3500    0.0000 Cl  0  0
    2.5988    1.5004    0.0000 C   0  0
    3.8990    0.7508    0.0000 C   0  0
    3.9000   -0.7492    0.0000 C   0  0
    5.1995   -1.4983    0.0000 C   0  0
    6.4981   -0.7475    0.0000 C   0  0
    6.4971    0.7525    0.0000 C   0  0
    5.1976    1.5017    0.0000 C   0  0
    2.5958   -2.5031    0.0000 H   0  0
    0.0000    2.5000    0.0000 H   0  0
   -2.1651   -1.2500    0.0000 H   0  0
    0.0000   -2.5000    0.0000 H   0  0
    2.5985    2.5004    0.0000 H   0  0
    1.7327    2.0003    0.0000 H   0  0
    3.0343   -1.2497    0.0000 H   0  0
    5.2001   -2.4983    0.0000 H   0  0
    7.3644   -1.2469    0.0000 H   0  0
    7.3628    1.2531    0.0000 H   0  0
    5.1969    2.5017    0.0000 H   0  0
  1  2  1  0
  2  3  2  0
  2  7  1  0
  3  4  1  0
  3  9  1  0
  4  5  2  0
  5  6  1  0
  5  8  1  0
  6  7  2  0
  9 10  1  0
 10 11  2  0
 10 15  1  0
 11 12  1  0
 12 13  2  0
 13 14  1  0
 14 15  2  0
  1 16  1  0
  4 17  1  0
  6 18  1  0
  7 19  1  0
  9 20  1  0
  9 21  1  0
 11 22  1  0
 12 23  1  0
 13 24  1  0
 14 25  1  0
 15 26  1  0
M  END
> <DSSTox_RID>
40311

> <DSSTox_CID>
154

> <DSSTox_Generic_SID>
20154

> <DSSTox_FileID>
67_TOXCST_v3a

> <STRUCTURE_Formula>
C13H11ClO

> <STRUCTURE_MolecularWeight>
218.6788

> <STRUCTURE_ChemicalType>
defined organic

> <STRUCTURE_TestedForm_DefinedOrganic>
parent

> <STRUCTURE_Shown>
tested chemical

> <TestSubstance_ChemicalName>
Clorophene

> <Source_ChemicalName>
Clorophene

> <TestSubstance_CASRN>
120-32-1

> <TestSubstance_Description>
single chemical compound

> <STRUCTURE_ChemicalName_IUPAC>
2-benzyl-4-chlorophenol

> <STRUCTURE_SMILES>
OC1=C(C=C(C=C1)Cl)CC2=CC=CC=C2

> <STRUCTURE_Parent_SMILES>
OC1=C(C=C(C=C1)Cl)CC2=CC=CC=C2

> <STRUCTURE_InChI>
InChI=1S/C13H11ClO/c14-12-6-7-13(15)11(9-12)8-10-4-2-1-3-5-10/h1-7,9,15H,8H2

> <STRUCTURE_InChIKey>
NCKMMSIFQUPKCK-UHFFFAOYSA-N

> <Substance_modify_yyyymmdd>
20080429

> <DSSTox_CID_Parent>
154

> <ChemicalReplicateCount>
1

> <Coord_Metals>
0

> <Index>
67

> <Canonical_Smiles>
Oc1ccc(Cl)cc1Cc2ccccc2

> <Molecular_Weight>
218.67883

> <Frequency>
1

$$$$

  SciTegic          2D

 23 23  0  0  0  0            999 V2000
   -1.9032   -4.8300    0.0000 C   0  0
   -1.2936   -6.2015    0.0000 N   0  0
   -1.0211   -3.6159    0.0000 N   0  0
   -3.3955   -4.6696    0.0000 N   0  0
   -1.6306   -2.2444    0.0000 C   0  0
    0.7500   -1.0323    0.0000 S   0  0
    1.2135    0.3943    0.0000 C   0  0
    0.0000    1.2760    0.0000 N   0  0
   -1.2135    0.3943    0.0000 C   0  0
   -0.7500   -1.0323    0.0000 C   0  0
    2.3548    0.7651    0.0000 Cl  0  0
   -4.0035   -3.2975    0.0000 C   0  0
   -2.1758   -7.4157    0.0000 N   0  0
   -1.6884   -8.5123    0.0000 O   0  0
   -3.3692   -7.2899    0.0000 O   0  0
   -0.2992   -6.3063    0.0000 H   0  0
   -0.0266   -3.7207    0.0000 H   0  0
   -2.6251   -2.1396    0.0000 H   0  0
   -2.2188   -3.0531    0.0000 H   0  0
   -2.1646    0.7033    0.0000 H   0  0
   -4.9978   -3.1906    0.0000 H   0  0
   -3.4141   -2.4897    0.0000 H   0  0
   -4.4082   -2.3831    0.0000 H   0  0
  1  2  1  0
  1  3  1  0
  1  4  2  0
  2 13  1  0
  3  5  1  0
  4 12  1  0
  5 10  1  0
  6  7  1  0
  6 10  1  0
  7  8  2  0
  7 11  1  0
  8  9  1  0
  9 10  2  0
 13 14  2  0
 13 15  2  0
  2 16  1  0
  3 17  1  0
  5 18  1  0
  5 19  1  0
  9 20  1  0
 12 21  1  0
 12 22  1  0
 12 23  1  0
M  END
> <DSSTox_RID>
40394

> <DSSTox_CID>
14465

> <DSSTox_Generic_SID>
34465

> <DSSTox_FileID>
68_TOXCST_v3a

> <STRUCTURE_Formula>
C6H8ClN5O2S

> <STRUCTURE_MolecularWeight>
249.678

> <STRUCTURE_ChemicalType>
defined organic

> <STRUCTURE_TestedForm_DefinedOrganic>
parent

> <STRUCTURE_Shown>
tested chemical

> <TestSubstance_ChemicalName>
Clothianidin

> <Source_ChemicalName>
Clothianidin

> <TestSubstance_CASRN>
210880-92-5

> <TestSubstance_Description>
single chemical compound

> <ChemicalNote>
tautomers

> <STRUCTURE_ChemicalName_IUPAC>
1-[(2-chloro-1,3-thiazol-5-yl)methyl]-3-methyl-2-nitroguanidine

> <STRUCTURE_SMILES>
ClC(S1)=NC=C1CN/C(NC)=N/[N+]([O-])=O

> <STRUCTURE_Parent_SMILES>
ClC(S1)=NC=C1CN/C(NC)=N/[N+]([O-])=O

> <STRUCTURE_InChI>
InChI=1S/C6H8ClN5O2S/c1-8-6(11-12(13)14)10-3-4-2-9-5(7)15-4/h2H,3H2,1H3,(H2,8,10,11)

> <STRUCTURE_InChIKey>
PGOOBECODWQEAB-UHFFFAOYSA-N

> <Substance_modify_yyyymmdd>
20080429

> <DSSTox_CID_Parent>
14465

> <ChemicalReplicateCount>
1

> <Coord_Metals>
0

> <Index>
68

> <Canonical_Smiles>
CN=C(NCc1cnc(Cl)s1)NN(=O)=O

> <Molecular_Weight>
249.67801

> <Frequency>
1

$$$$

  SciTegic          2D

 38 39  0  0  0  0            999 V2000
   -1.2876    2.9981    0.0000 C   0  0
   -1.2964    1.4973    0.0000 C   0  0
   -2.6111    0.7486    0.0000 C   0  0
   -3.6486    1.3517    0.0000 Cl  0  0
   -2.6111   -0.7486    0.0000 C   0  0
   -3.6486   -1.3517    0.0000 O   0  0
   -1.2964   -1.4973    0.0000 O   0  0
    0.0000   -0.7486    0.0000 C   0  0
    0.0000    0.7486    0.0000 C   0  0
    1.2964    1.4973    0.0000 C   0  0
    2.5929    0.7486    0.0000 C   0  0
    2.5929   -0.7486    0.0000 C   0  0
    1.2964   -1.4973    0.0000 C   0  0
    3.8911   -1.5017    0.0000 O   0  0
    3.8890   -3.0026    0.0000 P   0  0
    4.9275   -3.6037    0.0000 S   0  0
    2.5886   -3.7520    0.0000 O   0  0
    2.5865   -5.2528    0.0000 C   0  0
    1.2861   -6.0022    0.0000 C   0  0
    5.2159   -2.2409    0.0000 O   0  0
    6.5142   -2.9938    0.0000 C   0  0
    7.8159   -2.2467    0.0000 C   0  0
   -2.1503    3.5038    0.0000 H   0  0
   -0.4185    3.4927    0.0000 H   0  0
   -1.2812    3.9981    0.0000 H   0  0
    1.2964    2.4973    0.0000 H   0  0
    3.4589    1.2486    0.0000 H   0  0
    1.2964   -2.4973    0.0000 H   0  0
    3.4520   -5.7537    0.0000 H   0  0
    3.4531   -4.7539    0.0000 H   0  0
    1.2847   -7.0022    0.0000 H   0  0
    0.4207   -5.5012    0.0000 H   0  0
    0.4195   -6.5011    0.0000 H   0  0
    5.6471   -3.4920    0.0000 H   0  0
    6.5119   -3.9938    0.0000 H   0  0
    8.6809   -2.7484    0.0000 H   0  0
    8.6829   -1.7485    0.0000 H   0  0
    7.8181   -1.2467    0.0000 H   0  0
  1  2  1  0
  2  3  2  0
  2  9  1  0
  3  4  1  0
  3  5  1  0
  5  6  2  0
  5  7  1  0
  7  8  1  0
  8  9  2  0
  8 13  1  0
  9 10  1  0
 10 11  2  0
 11 12  1  0
 12 13  2  0
 12 14  1  0
 14 15  1  0
 15 16  2  0
 15 17  1  0
 15 20  1  0
 17 18  1  0
 18 19  1  0
 20 21  1  0
 21 22  1  0
  1 23  1  0
  1 24  1  0
  1 25  1  0
 10 26  1  0
 11 27  1  0
 13 28  1  0
 18 29  1  0
 18 30  1  0
 19 31  1  0
 19 32  1  0
 19 33  1  0
 21 34  1  0
 21 35  1  0
 22 36  1  0
 22 37  1  0
 22 38  1  0
M  END
> <DSSTox_RID>
40396

> <DSSTox_CID>
347

> <DSSTox_Generic_SID>
20347

> <DSSTox_FileID>
69_TOXCST_v3a

> <STRUCTURE_Formula>
C14H16ClO5PS

> <STRUCTURE_MolecularWeight>
362.7656

> <STRUCTURE_ChemicalType>
defined organic

> <STRUCTURE_TestedForm_DefinedOrganic>
parent

> <STRUCTURE_Shown>
tested chemical

> <TestSubstance_ChemicalName>
Coumaphos

> <Source_ChemicalName>
Coumaphos

> <TestSubstance_CASRN>
56-72-4

> <TestSubstance_Description>
single chemical compound

> <STRUCTURE_ChemicalName_IUPAC>
O-(3-chloro-4-methyl-2-oxo-2H-chromen-7-yl) O,O-diethyl thiophosphate

> <STRUCTURE_SMILES>
CC1=C(Cl)C(=O)OC2=C1C=CC(=C2)OP(=S)(OCC)OCC

> <STRUCTURE_Parent_SMILES>
CC1=C(Cl)C(=O)OC2=C1C=CC(=C2)OP(=S)(OCC)OCC

> <STRUCTURE_InChI>
InChI=1S/C14H16ClO5PS/c1-4-17-21(22,18-5-2)20-10-6-7-11-9(3)13(15)14(16)19-12(11)8-10/h6-8H,4-5H2,1-3H3

> <STRUCTURE_InChIKey>
BXNANOICGRISHX-UHFFFAOYSA-N

> <Substance_modify_yyyymmdd>
20080429

> <DSSTox_CID_Parent>
347

> <ChemicalReplicateCount>
1

> <Coord_Metals>
0

> <Index>
69

> <Canonical_Smiles>
CCOP(=S)(OCC)Oc1ccc2C(=C(Cl)C(=O)Oc2c1)C

> <Molecular_Weight>
362.7656

> <Frequency>
1

$$$$

  SciTegic          2D

  5  4  0  0  0  0            999 V2000
    1.3000    0.7500    0.0000 C   0  0
    0.2606    0.1503    0.0000 N   0  0
    2.6000    1.5000    0.0000 N   0  0
    3.4662    1.0003    0.0000 H   0  0
    2.6000    2.5000    0.0000 H   0  0
  1  2  3  0
  1  3  1  0
  3  4  1  0
  3  5  1  0
M  END
> <DSSTox_RID>
40397

> <DSSTox_CID>
14490

> <DSSTox_Generic_SID>
34490

> <DSSTox_FileID>
70_TOXCST_v3a

> <STRUCTURE_Formula>
CH2N2

> <STRUCTURE_MolecularWeight>
42.04

> <STRUCTURE_ChemicalType>
defined organic

> <STRUCTURE_TestedForm_DefinedOrganic>
parent

> <STRUCTURE_Shown>
tested chemical

> <TestSubstance_ChemicalName>
Cyanamide

> <Source_ChemicalName>
Cyanamide

> <TestSubstance_CASRN>
420-04-2

> <TestSubstance_Description>
single chemical compound

> <STRUCTURE_ChemicalName_IUPAC>
cyanamide

> <STRUCTURE_SMILES>
N#CN

> <STRUCTURE_InChI>
InChI=1S/CH2N2/c2-1-3/h2H2

> <STRUCTURE_InChIKey>
XZMCDFZZKTWFGF-UHFFFAOYSA-N

> <Substance_modify_yyyymmdd>
20080429

> <DSSTox_CID_Parent>
14490

> <ChemicalReplicateCount>
1

> <Coord_Metals>
0

> <Index>
70

> <Canonical_Smiles>
NC#N

> <Molecular_Weight>
42.03998

> <Frequency>
1

$$$$

  SciTegic          2D

 29 29  0  0  0  0            999 V2000
    1.2990   -0.7500    0.0000 C   0  0
    1.2990    0.7500    0.0000 N   0  0
    0.0000   -1.5000    0.0000 N   0  0
   -1.2990    0.7500    0.0000 N   0  0
    0.0000    1.5000    0.0000 C   0  0
   -1.2990   -0.7500    0.0000 C   0  0
    4.9313   -4.3591    0.0000 N   0  0
    2.5973   -1.5031    0.0000 N   0  0
    3.8933   -3.7570    0.0000 C   0  0
    2.5951   -3.0039    0.0000 C   0  0
   -0.0031    3.0008    0.0000 N   0  0
   -2.3383   -1.3500    0.0000 Cl  0  0
    1.2941   -3.7520    0.0000 C   0  0
    3.9229   -2.2437    0.0000 C   0  0
   -1.3039    3.7494    0.0000 C   0  0
   -1.3070    5.2502    0.0000 C   0  0
    3.4642   -1.0046    0.0000 H   0  0
    0.8620    3.5023    0.0000 H   0  0
    0.4287   -3.2511    0.0000 H   0  0
    0.4275   -4.2509    0.0000 H   0  0
    1.2927   -4.7520    0.0000 H   0  0
    4.7874   -2.7463    0.0000 H   0  0
    3.9262   -1.2437    0.0000 H   0  0
    4.7905   -1.7464    0.0000 H   0  0
   -1.3023    2.7494    0.0000 H   0  0
   -2.1691    3.2479    0.0000 H   0  0
   -2.1738    5.7490    0.0000 H   0  0
   -1.3086    6.2502    0.0000 H   0  0
   -0.4419    5.7517    0.0000 H   0  0
  1  2  2  0
  1  3  1  0
  1  8  1  0
  2  5  1  0
  3  6  2  0
  4  6  1  0
  4  5  2  0
  5 11  1  0
  6 12  1  0
  7  9  3  0
  8 10  1  0
  9 10  1  0
 10 13  1  0
 10 14  1  0
 11 15  1  0
 15 16  1  0
  8 17  1  0
 11 18  1  0
 13 19  1  0
 13 20  1  0
 13 21  1  0
 14 22  1  0
 14 23  1  0
 14 24  1  0
 15 25  1  0
 15 26  1  0
 16 27  1  0
 16 28  1  0
 16 29  1  0
M  END
> <DSSTox_RID>
40398

> <DSSTox_CID>
3990

> <DSSTox_Generic_SID>
23990

> <DSSTox_FileID>
71_TOXCST_v3a

> <STRUCTURE_Formula>
C9H13ClN6

> <STRUCTURE_MolecularWeight>
240.6927

> <STRUCTURE_ChemicalType>
defined organic

> <STRUCTURE_TestedForm_DefinedOrganic>
parent

> <STRUCTURE_Shown>
tested chemical

> <TestSubstance_ChemicalName>
Cyanazine

> <Source_ChemicalName>
Cyanazine

> <TestSubstance_CASRN>
21725-46-2

> <TestSubstance_Description>
single chemical compound

> <STRUCTURE_ChemicalName_IUPAC>
2-{[4-chloro-6-(ethylamino)-1,3,5-triazin-2-yl]amino}-2-methylpropanenitrile

> <STRUCTURE_SMILES>
Clc1nc(NCC)nc(NC(C)(C)C#N)n1

> <STRUCTURE_Parent_SMILES>
Clc1nc(NCC)nc(NC(C)(C)C#N)n1

> <STRUCTURE_InChI>
InChI=1S/C9H13ClN6/c1-4-12-7-13-6(10)14-8(15-7)16-9(2,3)5-11/h4H2,1-3H3,(H2,12,13,14,15,16)

> <STRUCTURE_InChIKey>
MZZBPDKVEFVLFF-UHFFFAOYSA-N

> <Substance_modify_yyyymmdd>
20080429

> <DSSTox_CID_Parent>
3990

> <ChemicalReplicateCount>
1

> <Coord_Metals>
0

> <Index>
71

> <Canonical_Smiles>
CCNc1nc(Cl)nc(NC(C)(C)C#N)n1

> <Molecular_Weight>
240.69271

> <Frequency>
1

$$$$

  SciTegic          2D

 34 35  0  0  0  0            999 V2000
    4.2010   -3.2956    0.0000 N   0  0
    3.9511   -0.8815    0.0000 N   0  0
    4.9531   -1.9978    0.0000 C   0  0
    2.7343   -2.9815    0.0000 C   0  0
    2.5987   -1.5004    0.0000 C   0  0
    4.2537    0.5858    0.0000 S   0  0
    3.3568    1.3830    0.0000 O   0  0
    4.4954    1.7612    0.0000 O   0  0
    5.6779    1.0592    0.0000 N   0  0
    1.8365   -3.7777    0.0000 Cl  0  0
    6.4433   -1.8435    0.0000 C   0  0
    7.6370   -1.7200    0.0000 N   0  0
    5.9809    2.5291    0.0000 C   0  0
    6.8017    0.0645    0.0000 C   0  0
    1.2990   -0.7500    0.0000 C   0  0
    1.2990    0.7500    0.0000 C   0  0
    0.0000   -1.5000    0.0000 C   0  0
    0.0000    1.5000    0.0000 C   0  0
   -1.2990   -0.7500    0.0000 C   0  0
   -1.2990    0.7500    0.0000 C   0  0
   -2.5988    1.5004    0.0000 C   0  0
    6.9299    2.8446    0.0000 H   0  0
    6.1824    3.5086    0.0000 H   0  0
    5.2335    3.1935    0.0000 H   0  0
    7.7503    0.3810    0.0000 H   0  0
    7.5502   -0.5987    0.0000 H   0  0
    6.6018   -0.9153    0.0000 H   0  0
    2.1651    1.2500    0.0000 H   0  0
    0.0000   -2.5000    0.0000 H   0  0
    0.0000    2.5000    0.0000 H   0  0
   -2.1651   -1.2500    0.0000 H   0  0
   -2.5994    2.5004    0.0000 H   0  0
   -3.4647    1.0001    0.0000 H   0  0
   -3.4651    2.0000    0.0000 H   0  0
  1  3  2  0
  1  4  1  0
  2  3  1  0
  2  5  1  0
  2  6  1  0
  3 11  1  0
  4  5  2  0
  4 10  1  0
  5 15  1  0
  6  7  2  0
  6  9  1  0
  6  8  2  0
  9 13  1  0
  9 14  1  0
 11 12  3  0
 15 16  2  0
 15 17  1  0
 16 18  1  0
 17 19  2  0
 18 20  2  0
 19 20  1  0
 20 21  1  0
 13 22  1  0
 13 23  1  0
 13 24  1  0
 14 25  1  0
 14 26  1  0
 14 27  1  0
 16 28  1  0
 17 29  1  0
 18 30  1  0
 19 31  1  0
 21 32  1  0
 21 33  1  0
 21 34  1  0
M  END
> <DSSTox_RID>
40399

> <DSSTox_CID>
14492

> <DSSTox_Generic_SID>
34492

> <DSSTox_FileID>
72_TOXCST_v3a

> <STRUCTURE_Formula>
C13H13ClN4O2S

> <STRUCTURE_MolecularWeight>
324.7859

> <STRUCTURE_ChemicalType>
defined organic

> <STRUCTURE_TestedForm_DefinedOrganic>
parent

> <STRUCTURE_Shown>
tested chemical

> <TestSubstance_ChemicalName>
Cyazofamid

> <Source_ChemicalName>
Cyazofamid

> <TestSubstance_CASRN>
120116-88-3

> <TestSubstance_Description>
single chemical compound

> <STRUCTURE_ChemicalName_IUPAC>
4-chloro-2-cyano-N,N-dimethyl-5-(4-methylphenyl)-1H-imidazole-1-sulfonamide

> <STRUCTURE_SMILES>
O=S(N1C(C#N)=NC(Cl)=C1C2=CC=C(C)C=C2)(N(C)C)=O

> <STRUCTURE_Parent_SMILES>
O=S(N1C(C#N)=NC(Cl)=C1C2=CC=C(C)C=C2)(N(C)C)=O

> <STRUCTURE_InChI>
InChI=1S/C13H13ClN4O2S/c1-9-4-6-10(7-5-9)12-13(14)16-11(8-15)18(12)21(19,20)17(2)3/h4-7H,1-3H3

> <STRUCTURE_InChIKey>
YXKMMRDKEKCERS-UHFFFAOYSA-N

> <Substance_modify_yyyymmdd>
20080429

> <DSSTox_CID_Parent>
14492

> <ChemicalReplicateCount>
1

> <Coord_Metals>
0

> <Index>
72

> <Canonical_Smiles>
CN(C)S(=O)(=O)n1c(nc(Cl)c1c2ccc(C)cc2)C#N

> <Molecular_Weight>
324.78592

> <Frequency>
1

$$$$

  SciTegic          2D

 26 27  0  0  0  0            999 V2000
    1.5548   -3.6021    0.0000 O   0  0
    2.5951   -3.0039    0.0000 C   0  0
    3.8933   -3.7570    0.0000 C   0  0
    5.2779   -3.8262    0.0000 C   0  0
    4.5303   -2.5258    0.0000 C   0  0
    3.8907   -5.2582    0.0000 C   0  0
    4.9291   -5.8597    0.0000 O   0  0
    2.5901   -6.0072    0.0000 O   0  0
    2.5973   -1.5031    0.0000 N   0  0
    1.2990   -0.7500    0.0000 C   0  0
    1.2990    0.7500    0.0000 C   0  0
    0.0000    1.5000    0.0000 C   0  0
   -1.2990    0.7500    0.0000 C   0  0
   -1.2990   -0.7500    0.0000 C   0  0
    0.0000   -1.5000    0.0000 C   0  0
   -2.3383    1.3500    0.0000 Cl  0  0
    2.3383    1.3500    0.0000 Cl  0  0
    5.2648   -4.8261    0.0000 H   0  0
    6.1627   -3.3604    0.0000 H   0  0
    3.6597   -2.0338    0.0000 H   0  0
    5.3782   -1.9955    0.0000 H   0  0
    2.5884   -7.0072    0.0000 H   0  0
    3.4642   -1.0046    0.0000 H   0  0
    0.0000    2.5000    0.0000 H   0  0
   -2.1651   -1.2500    0.0000 H   0  0
    0.0000   -2.5000    0.0000 H   0  0
  1  2  2  0
  2  3  1  0
  2  9  1  0
  3  4  1  0
  3  5  1  0
  3  6  1  0
  4  5  1  0
  6  7  2  0
  6  8  1  0
  9 10  1  0
 10 11  2  0
 10 15  1  0
 11 12  1  0
 11 17  1  0
 12 13  2  0
 13 14  1  0
 13 16  1  0
 14 15  2  0
  4 18  1  0
  4 19  1  0
  5 20  1  0
  5 21  1  0
  8 22  1  0
  9 23  1  0
 12 24  1  0
 14 25  1  0
 15 26  1  0
M  END
> <DSSTox_RID>
40400

> <DSSTox_CID>
12600

> <DSSTox_Generic_SID>
32600

> <DSSTox_FileID>
73_TOXCST_v3a

> <STRUCTURE_Formula>
C11H9Cl2NO3

> <STRUCTURE_MolecularWeight>
274.1001

> <STRUCTURE_ChemicalType>
defined organic

> <STRUCTURE_TestedForm_DefinedOrganic>
parent

> <STRUCTURE_Shown>
tested chemical

> <TestSubstance_ChemicalName>
Cyclanilide

> <Source_ChemicalName>
Cyclanilide

> <TestSubstance_CASRN>
113136-77-9

> <TestSubstance_Description>
single chemical compound

> <STRUCTURE_ChemicalName_IUPAC>
1-[(2,4-dichlorophenyl)carbamoyl]cyclopropanecarboxylic acid

> <STRUCTURE_SMILES>
O=C(NC2=CC=C(Cl)C=C2Cl)C1(C(O)=O)CC1

> <STRUCTURE_Parent_SMILES>
O=C(NC2=CC=C(Cl)C=C2Cl)C1(C(O)=O)CC1

> <STRUCTURE_InChI>
InChI=1S/C11H9Cl2NO3/c12-6-1-2-8(7(13)5-6)14-9(15)11(3-4-11)10(16)17/h1-2,5H,3-4H2,(H,14,15)(H,16,17)

> <STRUCTURE_InChIKey>
GLWWLNJJJCTFMZ-UHFFFAOYSA-N

> <Substance_modify_yyyymmdd>
20080429

> <DSSTox_CID_Parent>
12600

> <ChemicalReplicateCount>
1

> <Coord_Metals>
0

> <Index>
73

> <Canonical_Smiles>
OC(=O)C1(CC1)C(=O)Nc2ccc(Cl)cc2Cl

> <Molecular_Weight>
274.10006

> <Frequency>
1

$$$$

  SciTegic          2D

 35 35  0  0  0  0            999 V2000
    0.8068   -3.3033    0.0000 C   0  0
   -0.1781   -3.1298    0.0000 O   0  0
    1.7710   -2.1532    0.0000 N   0  0
    1.3198   -4.7137    0.0000 S   0  0
    1.2990   -0.7500    0.0000 C   0  0
    1.2990    0.7500    0.0000 C   0  0
    0.0000    1.5000    0.0000 C   0  0
   -1.2990    0.7500    0.0000 C   0  0
   -1.2990   -0.7500    0.0000 C   0  0
    0.0000   -1.5000    0.0000 C   0  0
    3.2485   -2.4167    0.0000 C   0  0
    4.2162   -1.2695    0.0000 C   0  0
    0.3556   -5.8638    0.0000 C   0  0
    0.8686   -7.2743    0.0000 C   0  0
    2.1526   -0.2289    0.0000 H   0  0
    0.4215    0.2706    0.0000 H   0  0
    1.2755    1.7497    0.0000 H   0  0
    0.8776    1.9794    0.0000 H   0  0
   -0.8775    1.9795    0.0000 H   0  0
   -0.4451    0.2297    0.0000 H   0  0
   -2.1531    0.2298    0.0000 H   0  0
   -2.1530   -0.2297    0.0000 H   0  0
   -1.2755   -1.7497    0.0000 H   0  0
    0.0236   -0.5003    0.0000 H   0  0
    0.8775   -1.9795    0.0000 H   0  0
    2.6041   -3.1814    0.0000 H   0  0
    3.5884   -3.3572    0.0000 H   0  0
    5.2006   -1.4450    0.0000 H   0  0
    4.8606   -0.5048    0.0000 H   0  0
    3.8763   -0.3290    0.0000 H   0  0
   -0.6293   -5.6903    0.0000 H   0  0
    0.0133   -4.9242    0.0000 H   0  0
    0.2261   -8.0406    0.0000 H   0  0
    1.8534   -7.4478    0.0000 H   0  0
    1.2109   -8.2139    0.0000 H   0  0
  1  2  2  0
  1  4  1  0
  1  3  1  0
  3  5  1  0
  3 11  1  0
  4 13  1  0
  5  6  1  0
  5 10  1  0
  6  7  1  0
  7  8  1  0
  8  9  1  0
  9 10  1  0
 11 12  1  0
 13 14  1  0
  5 15  1  0
  6 16  1  0
  6 17  1  0
  7 18  1  0
  7 19  1  0
  8 20  1  0
  8 21  1  0
  9 22  1  0
  9 23  1  0
 10 24  1  0
 10 25  1  0
 11 26  1  0
 11 27  1  0
 12 28  1  0
 12 29  1  0
 12 30  1  0
 13 31  1  0
 13 32  1  0
 14 33  1  0
 14 34  1  0
 14 35  1  0
M  END
> <DSSTox_RID>
40401

> <DSSTox_CID>
12356

> <DSSTox_Generic_SID>
32356

> <DSSTox_FileID>
74_TOXCST_v3a

> <STRUCTURE_Formula>
C11H21NOS

> <STRUCTURE_MolecularWeight>
215.3555

> <STRUCTURE_ChemicalType>
defined organic

> <STRUCTURE_TestedForm_DefinedOrganic>
parent

> <STRUCTURE_Shown>
tested chemical

> <TestSubstance_ChemicalName>
Cycloate

> <Source_ChemicalName>
Cycloate

> <TestSubstance_CASRN>
1134-23-2

> <TestSubstance_Description>
single chemical compound

> <STRUCTURE_ChemicalName_IUPAC>
S-ethyl cyclohexyl(ethyl)thiocarbamate

> <STRUCTURE_SMILES>
O=C(N(CC)C1CCCCC1)SCC

> <STRUCTURE_Parent_SMILES>
O=C(N(CC)C1CCCCC1)SCC

> <STRUCTURE_InChI>
InChI=1S/C11H21NOS/c1-3-12(11(13)14-4-2)10-8-6-5-7-9-10/h10H,3-9H2,1-2H3

> <STRUCTURE_InChIKey>
DFCAFRGABIXSDS-UHFFFAOYSA-N

> <Substance_modify_yyyymmdd>
20080429

> <DSSTox_CID_Parent>
12356

> <ChemicalReplicateCount>
1

> <Coord_Metals>
0

> <Index>
74

> <Canonical_Smiles>
CCSC(=O)N(CC)C1CCCCC1

> <Molecular_Weight>
215.35553

> <Frequency>
1

$$$$

  SciTegic          2D

 47 49  0  0  0  0            999 V2000
    3.2338    4.7720    0.0000 C   0  0
    3.9831    6.0714    0.0000 C   0  0
    2.5985    6.0041    0.0000 C   0  0
    1.1203    6.2638    0.0000 C   0  0
    5.4612    6.3879    0.0000 C   0  0
    0.6052    7.6735    0.0000 O   0  0
   -0.9402   11.9020    0.0000 C   0  0
    5.9064    7.8211    0.0000 C   0  0
   -2.6070    5.8626    0.0000 N   0  0
   -1.3881    9.3428    0.0000 C   0  0
   -0.4254   10.4931    0.0000 C   0  0
   -0.8730    7.9331    0.0000 C   0  0
   -1.8365    6.7826    0.0000 C   0  0
    0.0207   13.0549    0.0000 O   0  0
    0.3499    5.3438    0.0000 O   0  0
   -2.4177   12.1606    0.0000 C   0  0
   -2.8656    9.6014    0.0000 C   0  0
   -3.3804   11.0103    0.0000 C   0  0
    1.9160    4.0316    0.0000 C   0  0
    4.5153    3.9698    0.0000 C   0  0
    7.0766    8.0866    0.0000 Cl  0  0
    5.0916    8.7021    0.0000 Cl  0  0
   -0.4964   14.4638    0.0000 C   0  0
   -2.8296   13.2877    0.0000 F   0  0
    0.4623   15.6175    0.0000 C   0  0
   -1.9749   14.7174    0.0000 C   0  0
   -2.4946   16.1245    0.0000 C   0  0
   -0.0574   17.0246    0.0000 C   0  0
   -1.5359   17.2781    0.0000 C   0  0
    3.9708    7.0713    0.0000 H   0  0
    2.5982    7.0041    0.0000 H   0  0
    6.1402    5.6537    0.0000 H   0  0
    0.5597   10.3207    0.0000 H   0  0
   -0.5302    6.9937    0.0000 H   0  0
   -3.5074    8.8345    0.0000 H   0  0
   -4.3655   11.1827    0.0000 H   0  0
    1.0618    4.5515    0.0000 H   0  0
    1.0385    3.5519    0.0000 H   0  0
    1.8924    3.0318    0.0000 H   0  0
    4.4924    2.9700    0.0000 H   0  0
    5.3696    3.4499    0.0000 H   0  0
    5.3927    4.4495    0.0000 H   0  0
    1.4479   15.4486    0.0000 H   0  0
   -2.6141   13.9483    0.0000 H   0  0
   -3.4802   16.2935    0.0000 H   0  0
    0.5817   17.7937    0.0000 H   0  0
   -1.8823   18.2161    0.0000 H   0  0
  1  2  1  0
  1  3  1  0
  1 19  1  0
  1 20  1  0
  2  5  1  0
  2  3  1  0
  3  4  1  0
  4  6  1  0
  4 15  2  0
  5  8  2  0
  6 12  1  0
  7 11  2  0
  7 14  1  0
  7 16  1  0
  8 21  1  0
  8 22  1  0
  9 13  3  0
 10 12  1  0
 10 11  1  0
 10 17  2  0
 12 13  1  0
 14 23  1  0
 16 18  2  0
 16 24  1  0
 17 18  1  0
 23 25  1  0
 23 26  2  0
 25 28  2  0
 26 27  1  0
 27 29  2  0
 28 29  1  0
  2 30  1  0
  3 31  1  0
  5 32  1  0
 11 33  1  0
 12 34  1  0
 17 35  1  0
 18 36  1  0
 19 37  1  0
 19 38  1  0
 19 39  1  0
 20 40  1  0
 20 41  1  0
 20 42  1  0
 25 43  1  0
 26 44  1  0
 27 45  1  0
 28 46  1  0
 29 47  1  0
M  END
> <DSSTox_RID>
40404

> <DSSTox_CID>
3898

> <DSSTox_Generic_SID>
35957

> <DSSTox_FileID>
75_TOXCST_v3a

> <STRUCTURE_Formula>
C22H18Cl2FNO3

> <STRUCTURE_MolecularWeight>
434.2876

> <STRUCTURE_ChemicalType>
defined organic

> <STRUCTURE_TestedForm_DefinedOrganic>
parent

> <STRUCTURE_Shown>
representative isomer in mixture

> <TestSubstance_ChemicalName>
Cyfluthrin

> <Source_ChemicalName>
Cyfluthrin

> <TestSubstance_CASRN>
68359-37-5

> <TestSubstance_Description>
mixture or formulation

> <ChemicalNote>
mixture of 4 pairs of diastereoisomers; I (1R,3R,alpha R + 1S,3S,alpha S); II (1R,3R,alphaS + 1S,3S,alpha R); III (1R,3S,alphaR + 1S,3R,alpha S); IV (1R,3S,alphaS + 1S,3R,alpha R); each pair in approx
 1:1 ratio. Cyfluthrin has approx ratio of isomeric pairs  (I 23-27%; II 17-21%; III 32-36%; IV 21-25%); structure shown IV (1R,3S,alphaS); stereochem

> <STRUCTURE_ChemicalName_IUPAC>
(S)-cyano(4-fluoro-3-phenoxyphenyl)methyl (1R,3S)-3-(2,2-dichlorovinyl)-2,2-dimethylcyclopropanecarboxylate

> <STRUCTURE_SMILES>
N#C[C@H](C2=CC=C(F)C(OC3=CC=CC=C3)=C2)O[C@@]([C@H]1C(C)(C)[C@@H]1/C=C(Cl)\Cl)=O

> <STRUCTURE_Parent_SMILES>
N#C[C@H](C2=CC=C(F)C(OC3=CC=CC=C3)=C2)O[C@@]([C@H]1C(C)(C)[C@@H]1/C=C(Cl)\Cl)=O

> <STRUCTURE_InChI>
InChI=1S/C22H18Cl2FNO3/c1-22(2)15(11-19(23)24)20(22)21(27)29-18(12-26)13-8-9-16(25)17(10-13)28-14-6-4-3-5-7-14/h3-11,15,18,20H,1-2H3/t15-,18-,20+/m1/s1

> <STRUCTURE_InChIKey>
QQODLKZGRKWIFG-ZTNFWEORSA-N

> <Substance_modify_yyyymmdd>
20080429

> <DSSTox_CID_Parent>
3898

> <ChemicalReplicateCount>
1

> <Coord_Metals>
0

> <Index>
75

> <Canonical_Smiles>
CC1(C)C(C=C(Cl)Cl)C1C(=O)OC(C#N)c2ccc(F)c(Oc3ccccc3)c2

> <Molecular_Weight>
434.28762

> <Frequency>
1

$$$$

  SciTegic          2D

 46 47  0  0  0  0            999 V2000
    3.8933   -3.7570    0.0000 C   0  0
    4.7602   -3.2585    0.0000 O   0  0
    3.8912   -5.2578    0.0000 O   0  0
    2.5951   -3.0039    0.0000 C   0  0
    3.9200   -2.2388    0.0000 C   0  0
    2.5973   -1.5031    0.0000 O   0  0
    1.2990   -0.7500    0.0000 C   0  0
    1.2990    0.7500    0.0000 C   0  0
    0.0000   -1.5000    0.0000 C   0  0
    0.0000    1.5000    0.0000 C   0  0
   -1.2990   -0.7500    0.0000 C   0  0
   -1.2990    0.7500    0.0000 C   0  0
   -2.6003    1.4977    0.0000 O   0  0
   -3.8990    0.7455    0.0000 C   0  0
   -5.2007    1.4909    0.0000 C   0  0
   -3.8939   -0.7546    0.0000 C   0  0
   -6.4972    0.7364    0.0000 C   0  0
   -5.1903   -1.5091    0.0000 C   0  0
   -6.4920   -0.7636    0.0000 C   0  0
   -7.7891   -1.5185    0.0000 C   0  0
   -8.8263   -2.1221    0.0000 N   0  0
   -5.2049    2.6909    0.0000 F   0  0
    5.1894   -6.0109    0.0000 C   0  0
    5.1873   -7.5117    0.0000 C   0  0
    6.4855   -8.2648    0.0000 C   0  0
    6.4833   -9.7656    0.0000 C   0  0
    1.7282   -3.5024    0.0000 H   0  0
    3.9205   -1.2388    0.0000 H   0  0
    4.7862   -1.7390    0.0000 H   0  0
    4.7860   -2.7389    0.0000 H   0  0
    2.1651    1.2500    0.0000 H   0  0
    0.0000   -2.5000    0.0000 H   0  0
    0.0000    2.5000    0.0000 H   0  0
   -2.1651   -1.2500    0.0000 H   0  0
   -3.0262   -1.2516    0.0000 H   0  0
   -7.3649    1.2334    0.0000 H   0  0
   -5.1869   -2.5091    0.0000 H   0  0
    6.0563   -5.5124    0.0000 H   0  0
    5.1913   -5.0109    0.0000 H   0  0
    4.3204   -8.0102    0.0000 H   0  0
    4.3220   -7.0104    0.0000 H   0  0
    7.3524   -7.7663    0.0000 H   0  0
    6.4874   -7.2648    0.0000 H   0  0
    7.3483  -10.2674    0.0000 H   0  0
    5.6164  -10.2641    0.0000 H   0  0
    6.4814  -10.7656    0.0000 H   0  0
  1  2  2  0
  1  3  1  0
  1  4  1  0
  3 23  1  0
  4  5  1  0
  4  6  1  0
  6  7  1  0
  7  8  2  0
  7  9  1  0
  8 10  1  0
  9 11  2  0
 10 12  2  0
 11 12  1  0
 12 13  1  0
 13 14  1  0
 14 15  2  0
 14 16  1  0
 15 17  1  0
 15 22  1  0
 16 18  2  0
 17 19  2  0
 18 19  1  0
 19 20  1  0
 20 21  3  0
 23 24  1  0
 24 25  1  0
 25 26  1  0
  4 27  1  0
  5 28  1  0
  5 29  1  0
  5 30  1  0
  8 31  1  0
  9 32  1  0
 10 33  1  0
 11 34  1  0
 16 35  1  0
 17 36  1  0
 18 37  1  0
 23 38  1  0
 23 39  1  0
 24 40  1  0
 24 41  1  0
 25 42  1  0
 25 43  1  0
 26 44  1  0
 26 45  1  0
 26 46  1  0
M  END
> <DSSTox_RID>
40405

> <DSSTox_CID>
14503

> <DSSTox_Generic_SID>
34503

> <DSSTox_FileID>
76_TOXCST_v3a

> <STRUCTURE_Formula>
C20H20FNO4

> <STRUCTURE_MolecularWeight>
357.3755

> <STRUCTURE_ChemicalType>
defined organic

> <STRUCTURE_TestedForm_DefinedOrganic>
parent

> <STRUCTURE_Shown>
tested chemical

> <TestSubstance_ChemicalName>
Cyhalofop-butyl

> <Source_ChemicalName>
Cyhalofop-butyl

> <TestSubstance_CASRN>
122008-85-9

> <TestSubstance_Description>
single chemical compound

> <ChemicalNote>
stereochem

> <STRUCTURE_ChemicalName_IUPAC>
butyl (2R)-2-[4-(4-cyano-2-fluorophenoxy)phenoxy]propanoate

> <STRUCTURE_SMILES>
O=C([C@H](OC1=CC=C(OC2=C(F)C=C(C#N)C=C2)C=C1)C)OCCCC

> <STRUCTURE_Parent_SMILES>
O=C([C@H](OC1=CC=C(OC2=C(F)C=C(C#N)C=C2)C=C1)C)OCCCC

> <STRUCTURE_InChI>
InChI=1S/C20H20FNO4/c1-3-4-11-24-20(23)14(2)25-16-6-8-17(9-7-16)26-19-10-5-15(13-22)12-18(19)21/h5-10,12,14H,3-4,11H2,1-2H3/t14-/m1/s1

> <STRUCTURE_InChIKey>
TYIYMOAHACZAMQ-CQSZACIVSA-N

> <Substance_modify_yyyymmdd>
20080429

> <DSSTox_CID_Parent>
14503

> <ChemicalReplicateCount>
1

> <Note_TOXCST>
structure corrected v2b

> <Coord_Metals>
0

> <Index>
76

> <Canonical_Smiles>
CCCCOC(=O)C(C)Oc1ccc(Oc2ccc(cc2F)C#N)cc1

> <Molecular_Weight>
357.3755

> <Frequency>
1

$$$$

  SciTegic          2D

 24 23  0  0  0  0            999 V2000
    5.2000    0.0000    0.0000 C   0  0
    6.5000    0.7500    0.0000 C   0  0
    3.9000    0.7500    0.0000 N   0  0
    5.2000   -1.5008    0.0000 C   0  0
    7.7999    0.0000    0.0000 N   0  0
    6.5000    1.9500    0.0000 O   0  0
    2.6000    0.0000    0.0000 O   0  0
    5.2000   -2.7008    0.0000 N   0  0
    9.0999    0.7500    0.0000 C   0  0
    1.3000    0.7500    0.0000 C   0  0
   10.3999    0.0000    0.0000 N   0  0
    9.0999    1.9500    0.0000 O   0  0
   11.6999    0.7500    0.0000 C   0  0
   12.9999    0.0000    0.0000 C   0  0
    7.7999   -1.0000    0.0000 H   0  0
    0.4338    0.2503    0.0000 H   0  0
    1.3000    1.7500    0.0000 H   0  0
    0.4340    1.2501    0.0000 H   0  0
   10.3999   -1.0000    0.0000 H   0  0
   10.8340    1.2501    0.0000 H   0  0
   11.6999    1.7500    0.0000 H   0  0
   13.8661    0.4997    0.0000 H   0  0
   13.8658   -0.5001    0.0000 H   0  0
   12.9999   -1.0000    0.0000 H   0  0
  1  2  1  0
  1  3  2  0
  1  4  1  0
  2  5  1  0
  2  6  2  0
  3  7  1  0
  4  8  3  0
  5  9  1  0
  7 10  1  0
  9 11  1  0
  9 12  2  0
 11 13  1  0
 13 14  1  0
  5 15  1  0
 10 16  1  0
 10 17  1  0
 10 18  1  0
 11 19  1  0
 13 20  1  0
 13 21  1  0
 14 22  1  0
 14 23  1  0
 14 24  1  0
M  END
> <DSSTox_RID>
40407

> <DSSTox_CID>
12358

> <DSSTox_Generic_SID>
32358

> <DSSTox_FileID>
77_TOXCST_v3a

> <STRUCTURE_Formula>
C7H10N4O3

> <STRUCTURE_MolecularWeight>
198.1793

> <STRUCTURE_ChemicalType>
defined organic

> <STRUCTURE_TestedForm_DefinedOrganic>
parent

> <STRUCTURE_Shown>
tested chemical

> <TestSubstance_ChemicalName>
Cymoxanil

> <Source_ChemicalName>
Cymoxanil

> <TestSubstance_CASRN>
57966-95-7

> <TestSubstance_Description>
single chemical compound

> <STRUCTURE_ChemicalName_IUPAC>
(2E)-2-cyano-N-(ethylcarbamoyl)-2-(methoxyimino)acetamide

> <STRUCTURE_SMILES>
O=C(NC(NCC)=O)/C(C#N)=N/OC

> <STRUCTURE_Parent_SMILES>
O=C(NC(NCC)=O)/C(C#N)=N/OC

> <STRUCTURE_InChI>
InChI=1S/C7H10N4O3/c1-3-9-7(13)10-6(12)5(4-8)11-14-2/h3H2,1-2H3,(H2,9,10,12,13)/b11-5+

> <STRUCTURE_InChIKey>
XERJKGMBORTKEO-VZUCSPMQSA-N

> <Substance_modify_yyyymmdd>
20080429

> <DSSTox_CID_Parent>
12358

> <ChemicalReplicateCount>
1

> <Coord_Metals>
0

> <Index>
77

> <Canonical_Smiles>
CCNC(=O)NC(=O)C(=NOC)C#N

> <Molecular_Weight>
198.17929

> <Frequency>
1

$$$$

  SciTegic          2D

 47 49  0  0  0  0            999 V2000
    5.7495    0.4146    0.0000 C   0  0
    7.2496    0.4138    0.0000 C   0  0
    6.4990   -0.7516    0.0000 C   0  0
    5.9848   -2.1616    0.0000 C   0  0
    8.2626    1.5357    0.0000 C   0  0
    6.9481   -3.3125    0.0000 O   0  0
    9.7265    1.2046    0.0000 C   0  0
    3.7737   -5.1890    0.0000 N   0  0
    4.9557   -4.9817    0.0000 C   0  0
    6.4338   -4.7225    0.0000 C   0  0
    7.3971   -5.8735    0.0000 C   0  0
    4.8028   -2.3689    0.0000 O   0  0
    8.8746   -5.6149    0.0000 C   0  0
    9.8374   -6.7651    0.0000 C   0  0
   11.3163   -6.5094    0.0000 O   0  0
    4.4494   -0.3565    0.0000 C   0  0
    5.6956    1.9255    0.0000 C   0  0
   10.5415    2.0853    0.0000 Cl  0  0
   10.0821    0.0585    0.0000 Cl  0  0
   12.2779   -7.6617    0.0000 C   0  0
    6.8823   -7.2823    0.0000 C   0  0
    7.8450   -8.4326    0.0000 C   0  0
    9.3226   -8.1740    0.0000 C   0  0
   13.7563   -7.4083    0.0000 C   0  0
   11.7582   -9.0689    0.0000 C   0  0
   12.7170  -10.2225    0.0000 C   0  0
   14.7151   -8.5620    0.0000 C   0  0
   14.1954   -9.9690    0.0000 C   0  0
    8.1093   -0.0968    0.0000 H   0  0
    7.3649   -1.2519    0.0000 H   0  0
    7.9663    2.4908    0.0000 H   0  0
    5.7917   -3.9560    0.0000 H   0  0
    9.2179   -4.6756    0.0000 H   0  0
    4.4726   -1.3562    0.0000 H   0  0
    3.5953   -0.8766    0.0000 H   0  0
    3.5719    0.1230    0.0000 H   0  0
    4.8183    2.4056    0.0000 H   0  0
    5.6725    2.9253    0.0000 H   0  0
    6.5498    2.4455    0.0000 H   0  0
    5.8973   -7.4547    0.0000 H   0  0
    7.5018   -9.3719    0.0000 H   0  0
    9.9644   -8.9409    0.0000 H   0  0
   14.1028   -6.4703    0.0000 H   0  0
   10.7726   -9.2379    0.0000 H   0  0
   12.3705  -11.1606    0.0000 H   0  0
   15.7007   -8.3930    0.0000 H   0  0
   14.8346  -10.7381    0.0000 H   0  0
  1  2  1  0
  1  3  1  0
  1 16  1  0
  1 17  1  0
  2  5  1  0
  2  3  1  0
  3  4  1  0
  4  6  1  0
  4 12  2  0
  5  7  2  0
  6 10  1  0
  7 18  1  0
  7 19  1  0
  8  9  3  0
  9 10  1  0
 10 11  1  0
 11 13  1  0
 11 21  2  0
 13 14  2  0
 14 15  1  0
 14 23  1  0
 15 20  1  0
 20 24  2  0
 20 25  1  0
 21 22  1  0
 22 23  2  0
 24 27  1  0
 25 26  2  0
 26 28  1  0
 27 28  2  0
  2 29  1  0
  3 30  1  0
  5 31  1  0
 10 32  1  0
 13 33  1  0
 16 34  1  0
 16 35  1  0
 16 36  1  0
 17 37  1  0
 17 38  1  0
 17 39  1  0
 21 40  1  0
 22 41  1  0
 23 42  1  0
 24 43  1  0
 25 44  1  0
 26 45  1  0
 27 46  1  0
 28 47  1  0
M  END
> <DSSTox_RID>
40408

> <DSSTox_CID>
3998

> <DSSTox_Generic_SID>
23998

> <DSSTox_FileID>
78_TOXCST_v3a

> <STRUCTURE_Formula>
C22H19Cl2NO3

> <STRUCTURE_MolecularWeight>
416.2972

> <STRUCTURE_ChemicalType>
defined organic

> <STRUCTURE_TestedForm_DefinedOrganic>
parent

> <STRUCTURE_Shown>
tested chemical

> <TestSubstance_ChemicalName>
Cypermethrin

> <Source_ChemicalName>
Cypermethrin

> <TestSubstance_CASRN>
52315-07-8

> <TestSubstance_Description>
single chemical compound

> <ChemicalNote>
commercial product is a mixture of 8 isomers (Merck); structure shown without stereochem

> <STRUCTURE_ChemicalName_IUPAC>
cyano(3-phenoxyphenyl)methyl 3-(2,2-dichlorovinyl)-2,2-dimethylcyclopropanecarboxylate

> <STRUCTURE_SMILES>
N#CC(C2=CC=CC(OC3=CC=CC=C3)=C2)OC(C1C(C)(C)C1/C=C(Cl)/Cl)=O

> <STRUCTURE_Parent_SMILES>
N#CC(C2=CC=CC(OC3=CC=CC=C3)=C2)OC(C1C(C)(C)C1/C=C(Cl)/Cl)=O

> <STRUCTURE_InChI>
InChI=1S/C22H19Cl2NO3/c1-22(2)17(12-19(23)24)20(22)21(26)28-18(13-25)14-7-6-10-16(11-14)27-15-8-4-3-5-9-15/h3-12,17-18,20H,1-2H3

> <STRUCTURE_InChIKey>
KAATUXNTWXVJKI-UHFFFAOYSA-N

> <Substance_modify_yyyymmdd>
20080429

> <DSSTox_CID_Parent>
3998

> <ChemicalReplicateCount>
1

> <Coord_Metals>
0

> <Index>
78

> <Canonical_Smiles>
CC1(C)C(C=C(Cl)Cl)C1C(=O)OC(C#N)c2cccc(Oc3ccccc3)c2

> <Molecular_Weight>
416.29716

> <Frequency>
1

$$$$

  SciTegic          2D

 38 40  0  0  0  0            999 V2000
   -3.8887    9.4511    0.0000 Cl  0  0
   -3.8902    8.2511    0.0000 C   0  0
   -5.1902    7.5027    0.0000 C   0  0
   -5.1921    6.0027    0.0000 C   0  0
   -3.8940    5.2511    0.0000 C   0  0
   -2.5940    5.9995    0.0000 C   0  0
   -2.5921    7.4995    0.0000 C   0  0
   -4.4091    3.8415    0.0000 C   0  0
   -2.9024    4.1074    0.0000 O   0  0
   -3.4454    2.6909    0.0000 C   0  0
   -1.9670    2.9492    0.0000 N   0  0
   -0.9112    1.9017    0.0000 C   0  0
    0.4143    2.6038    0.0000 N   0  0
    0.1561    4.0814    0.0000 C   0  0
   -1.3289    4.2926    0.0000 N   0  0
   -5.7100    3.0932    0.0000 C   0  0
   -7.0090    3.8448    0.0000 C   0  0
   -7.6446    2.6129    0.0000 C   0  0
   -8.3936    3.9125    0.0000 C   0  0
   -5.7119    1.5924    0.0000 C   0  0
   -6.0556    8.0038    0.0000 H   0  0
   -6.0587    5.5038    0.0000 H   0  0
   -1.7286    5.4984    0.0000 H   0  0
   -1.7254    7.9984    0.0000 H   0  0
   -2.5599    5.0470    0.0000 H   0  0
   -2.8037    1.9239    0.0000 H   0  0
   -3.7886    1.7516    0.0000 H   0  0
   -1.0579    0.9125    0.0000 H   0  0
    0.8519    4.7997    0.0000 H   0  0
   -4.8447    2.5919    0.0000 H   0  0
   -7.0084    4.8448    0.0000 H   0  0
   -6.7735    2.1219    0.0000 H   0  0
   -8.4919    2.0817    0.0000 H   0  0
   -8.3817    4.9124    0.0000 H   0  0
   -9.2780    3.4457    0.0000 H   0  0
   -6.5782    1.0930    0.0000 H   0  0
   -5.7127    0.5924    0.0000 H   0  0
   -4.8463    1.0916    0.0000 H   0  0
  1  2  1  0
  2  3  1  0
  2  7  2  0
  3  4  2  0
  4  5  1  0
  5  6  2  0
  5  8  1  0
  6  7  1  0
  8  9  1  0
  8 10  1  0
  8 16  1  0
 10 11  1  0
 11 12  1  0
 11 15  1  0
 12 13  2  0
 13 14  1  0
 14 15  2  0
 16 17  1  0
 16 20  1  0
 17 18  1  0
 17 19  1  0
 18 19  1  0
  3 21  1  0
  4 22  1  0
  6 23  1  0
  7 24  1  0
  9 25  1  0
 10 26  1  0
 10 27  1  0
 12 28  1  0
 14 29  1  0
 16 30  1  0
 17 31  1  0
 18 32  1  0
 18 33  1  0
 19 34  1  0
 19 35  1  0
 20 36  1  0
 20 37  1  0
 20 38  1  0
M  END
> <DSSTox_RID>
40409

> <DSSTox_CID>
12601

> <DSSTox_Generic_SID>
32601

> <DSSTox_FileID>
79_TOXCST_v3a

> <STRUCTURE_Formula>
C15H18ClN3O

> <STRUCTURE_MolecularWeight>
291.7759

> <STRUCTURE_ChemicalType>
defined organic

> <STRUCTURE_TestedForm_DefinedOrganic>
parent

> <STRUCTURE_Shown>
tested chemical

> <TestSubstance_ChemicalName>
Cyproconazole

> <Source_ChemicalName>
Cyproconazole

> <TestSubstance_CASRN>
94361-06-5

> <TestSubstance_Description>
single chemical compound

> <ChemicalNote>
mixture of stereoisomers, (2RS,3RS;2RS,3SR) approx 1:1; structure shown without stereochem

> <STRUCTURE_ChemicalName_IUPAC>
2-(4-chlorophenyl)-3-cyclopropyl-1-(1H-1,2,4-triazol-1-yl)butan-2-ol

> <STRUCTURE_SMILES>
ClC1=CC=C(C(CN2C=NC=N2)(C(C)C3CC3)O)C=C1

> <STRUCTURE_Parent_SMILES>
ClC1=CC=C(C(CN2C=NC=N2)(C(C)C3CC3)O)C=C1

> <STRUCTURE_InChI>
InChI=1S/C15H18ClN3O/c1-11(12-2-3-12)15(20,8-19-10-17-9-18-19)13-4-6-14(16)7-5-13/h4-7,9-12,20H,2-3,8H2,1H3

> <STRUCTURE_InChIKey>
UFNOUKDBUJZYDE-UHFFFAOYSA-N

> <Substance_modify_yyyymmdd>
20080429

> <DSSTox_CID_Parent>
12601

> <ChemicalReplicateCount>
1

> <Coord_Metals>
0

> <Index>
79

> <Canonical_Smiles>
CC(C1CC1)C(O)(Cn2cncn2)c3ccc(Cl)cc3

> <Molecular_Weight>
291.77592

> <Frequency>
1

$$$$

  SciTegic          2D

 32 34  0  0  0  0            999 V2000
    1.2990   -0.7500    0.0000 C   0  0
    2.5989   -1.5003    0.0000 C   0  0
    1.2990    0.7500    0.0000 N   0  0
    0.0000   -1.5000    0.0000 C   0  0
    1.8502   -2.6671    0.0000 C   0  0
    3.3502   -2.6655    0.0000 C   0  0
    0.0000    1.5000    0.0000 C   0  0
   -1.2990   -0.7500    0.0000 C   0  0
   -0.0031    3.0008    0.0000 N   0  0
   -1.2990    0.7500    0.0000 N   0  0
   -2.5988   -1.5004    0.0000 C   0  0
   -1.3039    3.7494    0.0000 C   0  0
   -1.3092    5.2494    0.0000 C   0  0
   -2.6005    2.9949    0.0000 C   0  0
   -2.6108    5.9949    0.0000 C   0  0
   -3.9021    3.7404    0.0000 C   0  0
   -3.9073    5.2404    0.0000 C   0  0
    3.4639   -0.9985    0.0000 H   0  0
    0.0000   -2.5000    0.0000 H   0  0
    0.9892   -2.1585    0.0000 H   0  0
    1.8142   -3.6665    0.0000 H   0  0
    4.2100   -2.1549    0.0000 H   0  0
    3.3884   -3.6647    0.0000 H   0  0
    0.8620    3.5023    0.0000 H   0  0
   -2.5994   -2.5004    0.0000 H   0  0
   -3.4647   -1.0002    0.0000 H   0  0
   -3.4650   -2.0000    0.0000 H   0  0
   -0.4449    5.7524    0.0000 H   0  0
   -2.5970    1.9949    0.0000 H   0  0
   -2.6143    6.9949    0.0000 H   0  0
   -4.7664    3.2374    0.0000 H   0  0
   -4.7750    5.7374    0.0000 H   0  0
  1  2  1  0
  1  3  2  0
  1  4  1  0
  2  5  1  0
  2  6  1  0
  3  7  1  0
  4  8  2  0
  5  6  1  0
  7  9  1  0
  7 10  2  0
  8 11  1  0
  8 10  1  0
  9 12  1  0
 12 13  2  0
 12 14  1  0
 13 15  1  0
 14 16  2  0
 15 17  2  0
 16 17  1  0
  2 18  1  0
  4 19  1  0
  5 20  1  0
  5 21  1  0
  6 22  1  0
  6 23  1  0
  9 24  1  0
 11 25  1  0
 11 26  1  0
 11 27  1  0
 13 28  1  0
 14 29  1  0
 15 30  1  0
 16 31  1  0
 17 32  1  0
M  END
> <DSSTox_RID>
40410

> <DSSTox_CID>
12359

> <DSSTox_Generic_SID>
32359

> <DSSTox_FileID>
80_TOXCST_v3a

> <STRUCTURE_Formula>
C14H15N3

> <STRUCTURE_MolecularWeight>
225.289

> <STRUCTURE_ChemicalType>
defined organic

> <STRUCTURE_TestedForm_DefinedOrganic>
parent

> <STRUCTURE_Shown>
tested chemical

> <TestSubstance_ChemicalName>
Cyprodinil

> <Source_ChemicalName>
Cyprodinil

> <TestSubstance_CASRN>
121552-61-2

> <TestSubstance_Description>
single chemical compound

> <STRUCTURE_ChemicalName_IUPAC>
4-cyclopropyl-6-methyl-N-phenylpyrimidin-2-amine

> <STRUCTURE_SMILES>
CC1=NC(NC3=CC=CC=C3)=NC(C2CC2)=C1

> <STRUCTURE_Parent_SMILES>
CC1=NC(NC3=CC=CC=C3)=NC(C2CC2)=C1

> <STRUCTURE_InChI>
InChI=1S/C14H15N3/c1-10-9-13(11-7-8-11)17-14(15-10)16-12-5-3-2-4-6-12/h2-6,9,11H,7-8H2,1H3,(H,15,16,17)

> <STRUCTURE_InChIKey>
HAORKNGNJCEJBX-UHFFFAOYSA-N

> <Substance_modify_yyyymmdd>
20080429

> <DSSTox_CID_Parent>
12359

> <ChemicalReplicateCount>
1

> <Coord_Metals>
0

> <Index>
80

> <Canonical_Smiles>
Cc1cc(nc(Nc2ccccc2)n1)C3CC3

> <Molecular_Weight>
225.28899

> <Frequency>
1

$$$$

  SciTegic          2D

 22 23  0  0  0  0            999 V2000
    1.2990   -0.7500    0.0000 C   0  0
    1.2990    0.7500    0.0000 N   0  0
    0.0000   -1.5000    0.0000 N   0  0
   -1.2990    0.7500    0.0000 N   0  0
   -1.2990   -0.7500    0.0000 C   0  0
    0.0000    1.5000    0.0000 C   0  0
    2.5973   -1.5031    0.0000 N   0  0
    2.5951   -3.0039    0.0000 C   0  0
    1.2106   -2.9351    0.0000 C   0  0
    1.9585   -4.2353    0.0000 C   0  0
   -2.6003   -1.4978    0.0000 N   0  0
   -0.0031    3.0008    0.0000 N   0  0
    3.4642   -1.0046    0.0000 H   0  0
    3.4603   -3.5054    0.0000 H   0  0
    1.2233   -1.9352    0.0000 H   0  0
    0.3258   -3.4012    0.0000 H   0  0
    2.8293   -4.7270    0.0000 H   0  0
    1.1108   -4.7658    0.0000 H   0  0
   -3.4657   -0.9965    0.0000 H   0  0
   -2.6021   -2.4978    0.0000 H   0  0
   -0.8698    3.4996    0.0000 H   0  0
    0.8620    3.5023    0.0000 H   0  0
  1  2  2  0
  1  3  1  0
  1  7  1  0
  2  6  1  0
  3  5  2  0
  4  5  1  0
  4  6  2  0
  5 11  1  0
  6 12  1  0
  7  8  1  0
  8  9  1  0
  8 10  1  0
  9 10  1  0
  7 13  1  0
  8 14  1  0
  9 15  1  0
  9 16  1  0
 10 17  1  0
 10 18  1  0
 11 19  1  0
 11 20  1  0
 12 21  1  0
 12 22  1  0
M  END
> <DSSTox_RID>
40411

> <DSSTox_CID>
3999

> <DSSTox_Generic_SID>
23999

> <DSSTox_FileID>
81_TOXCST_v3a

> <STRUCTURE_Formula>
C6H10N6

> <STRUCTURE_MolecularWeight>
166.1838

> <STRUCTURE_ChemicalType>
defined organic

> <STRUCTURE_TestedForm_DefinedOrganic>
parent

> <STRUCTURE_Shown>
tested chemical

> <TestSubstance_ChemicalName>
Cyromazine

> <Source_ChemicalName>
Cyromazine

> <TestSubstance_CASRN>
66215-27-8

> <TestSubstance_Description>
single chemical compound

> <STRUCTURE_ChemicalName_IUPAC>
N2-cyclopropyl-1,3,5-triazine-2,4,6-triamine

> <STRUCTURE_SMILES>
Nc2nc(N)nc(NC1CC1)n2

> <STRUCTURE_Parent_SMILES>
Nc2nc(N)nc(NC1CC1)n2

> <STRUCTURE_InChI>
InChI=1S/C6H10N6/c7-4-10-5(8)12-6(11-4)9-3-1-2-3/h3H,1-2H2,(H5,7,8,9,10,11,12)

> <STRUCTURE_InChIKey>
LVQDKIWDGQRHTE-UHFFFAOYSA-N

> <Substance_modify_yyyymmdd>
20080429

> <DSSTox_CID_Parent>
3999

> <ChemicalReplicateCount>
1

> <Coord_Metals>
0

> <Index>
81

> <Canonical_Smiles>
Nc1nc(N)nc(NC2CC2)n1

> <Molecular_Weight>
166.18379

> <Frequency>
1

$$$$

  SciTegic          2D

 23 22  0  0  0  0            999 V2000
    6.5000    1.9500    0.0000 O   0  0
    6.5000    0.7500    0.0000 C   0  0
    5.2000    0.0000    0.0000 C   0  0
    3.9000    0.7500    0.0000 C   0  0
    2.6000    0.0000    0.0000 C   0  0
    2.6000   -1.2000    0.0000 O   0  0
    1.3000    0.7500    0.0000 O   0  0
    7.7999    0.0000    0.0000 N   0  0
    9.0999    0.7500    0.0000 N   0  0
   10.3999    0.0000    0.0000 C   0  0
    9.0968    2.2508    0.0000 C   0  0
    6.0659   -0.5001    0.0000 H   0  0
    5.2000   -1.0000    0.0000 H   0  0
    3.0340    1.2501    0.0000 H   0  0
    3.9000    1.7500    0.0000 H   0  0
    0.4338    0.2503    0.0000 H   0  0
    7.7999   -1.0000    0.0000 H   0  0
   11.2661    0.4997    0.0000 H   0  0
   10.3999   -1.0000    0.0000 H   0  0
   11.2659   -0.5001    0.0000 H   0  0
    8.2301    2.7496    0.0000 H   0  0
    9.9620    2.7523    0.0000 H   0  0
    9.0953    3.2508    0.0000 H   0  0
  1  2  2  0
  2  3  1  0
  2  8  1  0
  3  4  1  0
  4  5  1  0
  5  6  2  0
  5  7  1  0
  8  9  1  0
  9 10  1  0
  9 11  1  0
  3 12  1  0
  3 13  1  0
  4 14  1  0
  4 15  1  0
  7 16  1  0
  8 17  1  0
 10 18  1  0
 10 19  1  0
 10 20  1  0
 11 21  1  0
 11 22  1  0
 11 23  1  0
M  END
> <DSSTox_RID>
40413

> <DSSTox_CID>
370

> <DSSTox_Generic_SID>
20370

> <DSSTox_FileID>
82_TOXCST_v3a

> <STRUCTURE_Formula>
C6H12N2O3

> <STRUCTURE_MolecularWeight>
160.1711

> <STRUCTURE_ChemicalType>
defined organic

> <STRUCTURE_TestedForm_DefinedOrganic>
parent

> <STRUCTURE_Shown>
tested chemical

> <TestSubstance_ChemicalName>
Daminozide

> <Source_ChemicalName>
Daminozide

> <TestSubstance_CASRN>
1596-84-5

> <TestSubstance_Description>
single chemical compound

> <STRUCTURE_ChemicalName_IUPAC>
4-(2,2-dimethylhydrazino)-4-oxobutanoic acid

> <STRUCTURE_SMILES>
O=C(CCC(=O)O)NN(C)C

> <STRUCTURE_Parent_SMILES>
O=C(CCC(=O)O)NN(C)C

> <STRUCTURE_InChI>
InChI=1S/C6H12N2O3/c1-8(2)7-5(9)3-4-6(10)11/h3-4H2,1-2H3,(H,7,9)(H,10,11)

> <STRUCTURE_InChIKey>
NOQGZXFMHARMLW-UHFFFAOYSA-N

> <Substance_modify_yyyymmdd>
20080429

> <DSSTox_CID_Parent>
370

> <ChemicalReplicateCount>
1

> <Coord_Metals>
0

> <Index>
82

> <Canonical_Smiles>
CN(C)NC(=O)CCC(=O)O

> <Molecular_Weight>
160.17107

> <Frequency>
1

$$$$

  SciTegic          2D

 19 19  0  0  0  0            999 V2000
    2.5988   -1.5004    0.0000 C   0  0
    1.2990   -0.7500    0.0000 N   0  0
    1.2990    0.7500    0.0000 C   0  0
    0.0000    1.5000    0.0000 N   0  0
    0.0000    3.0008    0.0000 C   0  0
   -1.2990    0.7500    0.0000 C   0  0
   -1.2990   -0.7500    0.0000 S   0  0
    0.0000   -1.5000    0.0000 C   0  0
    0.0000   -2.7000    0.0000 S   0  0
    3.4651   -1.0010    0.0000 H   0  0
    2.5985   -2.5004    0.0000 H   0  0
    3.4646   -2.0008    0.0000 H   0  0
    2.1530    0.2297    0.0000 H   0  0
    1.2755    1.7497    0.0000 H   0  0
    0.8657    3.5014    0.0000 H   0  0
   -0.8662    3.5005    0.0000 H   0  0
   -0.0005    4.0008    0.0000 H   0  0
   -1.2754    1.7497    0.0000 H   0  0
   -2.1531    0.2298    0.0000 H   0  0
  1  2  1  0
  2  3  1  0
  2  8  1  0
  3  4  1  0
  4  5  1  0
  4  6  1  0
  6  7  1  0
  7  8  1  0
  8  9  2  0
  1 10  1  0
  1 11  1  0
  1 12  1  0
  3 13  1  0
  3 14  1  0
  5 15  1  0
  5 16  1  0
  5 17  1  0
  6 18  1  0
  6 19  1  0
M  END
> <DSSTox_RID>
40415

> <DSSTox_CID>
4902

> <DSSTox_Generic_SID>
24902

> <DSSTox_FileID>
83_TOXCST_v3a

> <STRUCTURE_Formula>
C5H10N2S2

> <STRUCTURE_MolecularWeight>
162.2763

> <STRUCTURE_ChemicalType>
defined organic

> <STRUCTURE_TestedForm_DefinedOrganic>
parent

> <STRUCTURE_Shown>
tested chemical

> <TestSubstance_ChemicalName>
Dazomet

> <Source_ChemicalName>
Dazomet

> <TestSubstance_CASRN>
533-74-4

> <TestSubstance_Description>
single chemical compound

> <STRUCTURE_ChemicalName_IUPAC>
3,5-dimethyl-1,3,5-thiadiazinane-2-thione

> <STRUCTURE_SMILES>
CN1CN(C)CSC1=S

> <STRUCTURE_Parent_SMILES>
CN1CN(C)CSC1=S

> <STRUCTURE_InChI>
InChI=1S/C5H10N2S2/c1-6-3-7(2)5(8)9-4-6/h3-4H2,1-2H3

> <STRUCTURE_InChIKey>
QAYICIQNSGETAS-UHFFFAOYSA-N

> <Substance_modify_yyyymmdd>
20080429

> <DSSTox_CID_Parent>
4902

> <ChemicalReplicateCount>
1

> <Coord_Metals>
0

> <Index>
83

> <Canonical_Smiles>
CN1CSC(=S)N(C)C1

> <Molecular_Weight>
162.27629

> <Frequency>
1

$$$$

  SciTegic          2D

 48 49  0  0  0  0            999 V2000
    3.2665    2.9557    0.0000 C   0  0
    4.0576    4.2301    0.0000 C   0  0
    2.6715    4.2078    0.0000 C   0  0
    1.2025    4.5152    0.0000 C   0  0
   -0.6480    8.6946    0.0000 C   0  0
    0.1985    7.4563    0.0000 C   0  0
   -0.7176    6.2685    0.0000 C   0  0
   -2.0873    8.2721    0.0000 C   0  0
    0.7334    5.9408    0.0000 O   0  0
    5.5451    4.4985    0.0000 C   0  0
   -2.1303    6.7727    0.0000 C   0  0
    0.4026    3.6207    0.0000 O   0  0
   -3.0375    9.0050    0.0000 O   0  0
    6.0365    5.9166    0.0000 C   0  0
    1.9254    2.2584    0.0000 C   0  0
    4.5214    2.1124    0.0000 C   0  0
   -1.1156   11.2499    0.0000 C   0  0
   -0.6111   12.6634    0.0000 C   0  0
   -0.1444   10.1056    0.0000 C   0  0
    1.6961    7.4133    0.0000 C   0  0
    7.5101    6.2010    0.0000 C   0  0
    5.0514    7.0489    0.0000 C   0  0
    4.0776    5.2299    0.0000 H   0  0
    2.7036    5.2073    0.0000 H   0  0
   -1.4191    5.5559    0.0000 H   0  0
    6.2000    3.7427    0.0000 H   0  0
   -2.0394    5.7769    0.0000 H   0  0
   -3.0253    7.2188    0.0000 H   0  0
    1.0885    2.8057    0.0000 H   0  0
    1.0328    1.8074    0.0000 H   0  0
    1.8695    1.2599    0.0000 H   0  0
    4.4661    1.1139    0.0000 H   0  0
    5.3583    1.5651    0.0000 H   0  0
    5.4139    2.5634    0.0000 H   0  0
   -2.0993   11.0704    0.0000 H   0  0
   -1.2581   13.4258    0.0000 H   0  0
    0.3727   12.8429    0.0000 H   0  0
    0.8394   10.2851    0.0000 H   0  0
    0.1922   11.0473    0.0000 H   0  0
    2.2213    8.2643    0.0000 H   0  0
    2.1708    6.5332    0.0000 H   0  0
    2.6957    7.3842    0.0000 H   0  0
    7.8376    7.1459    0.0000 H   0  0
    8.4921    6.3901    0.0000 H   0  0
    8.1650    5.4453    0.0000 H   0  0
    4.0697    6.8583    0.0000 H   0  0
    4.3954    7.8036    0.0000 H   0  0
    5.3769    7.9944    0.0000 H   0  0
  1  2  1  0
  1  3  1  0
  1 15  1  0
  1 16  1  0
  2 10  1  0
  2  3  1  0
  3  4  1  0
  4  9  1  0
  4 12  2  0
  5  6  2  0
  5 19  1  0
  5  8  1  0
  6  7  1  0
  6 20  1  0
  7  9  1  0
  7 11  1  0
  8 11  1  0
  8 13  2  0
 10 14  2  0
 14 21  1  0
 14 22  1  0
 17 19  1  0
 17 18  2  0
  2 23  1  0
  3 24  1  0
  7 25  1  0
 10 26  1  0
 11 27  1  0
 11 28  1  0
 15 29  1  0
 15 30  1  0
 15 31  1  0
 16 32  1  0
 16 33  1  0
 16 34  1  0
 17 35  1  0
 18 36  1  0
 18 37  1  0
 19 38  1  0
 19 39  1  0
 20 40  1  0
 20 41  1  0
 20 42  1  0
 21 43  1  0
 21 44  1  0
 21 45  1  0
 22 46  1  0
 22 47  1  0
 22 48  1  0
M  END
> <DSSTox_RID>
40403
40440

> <DSSTox_CID>
15180
19336

> <DSSTox_Generic_SID>
35180
39336

> <DSSTox_FileID>
84_TOXCST_v3a
115_TOXCST_v3a

> <STRUCTURE_Formula>
C19H26O3
C19H26O3

> <STRUCTURE_MolecularWeight>
302.4079
302.4079

> <STRUCTURE_ChemicalType>
defined organic
defined organic

> <STRUCTURE_TestedForm_DefinedOrganic>
parent
parent

> <STRUCTURE_Shown>
tested chemical
tested chemical

> <TestSubstance_ChemicalName>
Allethrin
S-Bioallethrin

> <Source_ChemicalName>
d-cis,trans-Allethrin
S-Bioallethrin

> <TestSubstance_CASRN>
584-79-2
28434-00-6

> <TestSubstance_Description>
single chemical compound
single chemical compound

> <ChemicalNote>
mixture of stereoisomers (1RS,3RS;1RS,3SR); structure shown without stereochem; tautomers
stereochem

> <STRUCTURE_ChemicalName_IUPAC>
3-allyl-2-methyl-4-oxocyclopent-2-en-1-yl 2,2-dimethyl-3-(2-methylprop-1-en-1-yl)cyclopropanecarboxylate
(1S)-2-methyl-4-oxo-3-prop-2-en-1-ylcyclopent-2-en-1-yl (1R,3R)-2,2-dimethyl-3-(2-methylprop-1-en-1-yl)cyclopropanecarboxylate

> <STRUCTURE_SMILES>
O=C(OC(C2)C(C)=C(C2=O)CC=C)C1C(C)(C)C1\C=C(C)/C
O=[C@](O[C@@H](C2)C(C)=C(C2=O)CC=C)[C@H]1C(C)(C)[C@@H]1/C=C(C)/C

> <STRUCTURE_Parent_SMILES>
O=C(OC(C2)C(C)=C(C2=O)CC=C)C1C(C)(C)C1\C=C(C)/C
O=[C@](O[C@@H](C2)C(C)=C(C2=O)CC=C)[C@H]1C(C)(C)[C@@H]1/C=C(C)/C

> <STRUCTURE_InChI>
InChI=1S/C19H26O3/c1-7-8-13-12(4)16(10-15(13)20)22-18(21)17-14(9-11(2)3)19(17,5)6/h7,9,14,16-17H,1,8,10H2,2-6H3
InChI=1S/C19H26O3/c1-7-8-13-12(4)16(10-15(13)20)22-18(21)17-14(9-11(2)3)19(17,5)6/h7,9,14,16-17H,1,8,10H2,2-6H3/t14-,16+,17+/m1/s1

> <STRUCTURE_InChIKey>
ZCVAOQKBXKSDMS-UHFFFAOYSA-N
ZCVAOQKBXKSDMS-PVAVHDDUSA-N

> <Substance_modify_yyyymmdd>
20080429
20080429

> <DSSTox_CID_Parent>
15180
19336

> <ChemicalReplicateCount>
1
1

> <Note_TOXCST>
CASRN changed v2a; stereochem removed v3a

> <Coord_Metals>
0
0

> <Index>
84
115

> <Canonical_Smiles>
CC(=CC1C(C(=O)OC2CC(=O)C(=C2C)CC=C)C1(C)C)C

> <Molecular_Weight>
302.40794
302.40794

> <Frequency>
2

$$$$

  SciTegic          2D

 40 40  0  0  0  0            999 V2000
    3.6454   -3.5954    0.0000 S   0  0
    2.6044   -2.9986    0.0000 P   0  0
    2.6003   -1.4977    0.0000 O   0  0
    1.2990   -0.7500    0.0000 C   0  0
    1.2990    0.7500    0.0000 N   0  0
    0.0000    1.5000    0.0000 C   0  0
   -1.2990    0.7500    0.0000 N   0  0
   -1.2990   -0.7500    0.0000 C   0  0
    0.0000   -1.5000    0.0000 C   0  0
   -2.5988   -1.5004    0.0000 C   0  0
    0.0000    3.0008    0.0000 C   0  0
    1.2993    3.7521    0.0000 C   0  0
   -1.2999    3.7508    0.0000 C   0  0
    1.3071   -3.7533    0.0000 O   0  0
    1.3112   -5.2541    0.0000 C   0  0
    0.0139   -6.0088    0.0000 C   0  0
    3.9282   -2.2315    0.0000 O   0  0
    5.2295   -2.9790    0.0000 C   0  0
    6.5281   -2.2266    0.0000 C   0  0
    0.0000   -2.5000    0.0000 H   0  0
   -3.4651   -1.0010    0.0000 H   0  0
   -2.5985   -2.5004    0.0000 H   0  0
   -3.4646   -2.0008    0.0000 H   0  0
    0.8662    2.5011    0.0000 H   0  0
    1.2993    4.7521    0.0000 H   0  0
    2.1654    3.2523    0.0000 H   0  0
    2.1652    4.2522    0.0000 H   0  0
   -1.3009    4.7508    0.0000 H   0  0
   -2.1657    3.2502    0.0000 H   0  0
   -2.1664    4.2501    0.0000 H   0  0
    2.1787   -5.7515    0.0000 H   0  0
    2.1758   -4.7516    0.0000 H   0  0
    0.0166   -7.0088    0.0000 H   0  0
   -0.8536   -5.5114    0.0000 H   0  0
   -0.8507   -6.5113    0.0000 H   0  0
    4.3645   -3.4808    0.0000 H   0  0
    5.2314   -3.9790    0.0000 H   0  0
    7.3952   -2.7247    0.0000 H   0  0
    7.3931   -1.7248    0.0000 H   0  0
    6.5263   -1.2266    0.0000 H   0  0
  1  2  2  0
  2  3  1  0
  2 14  1  0
  2 17  1  0
  3  4  1  0
  4  5  2  0
  4  9  1  0
  5  6  1  0
  6  7  2  0
  6 11  1  0
  7  8  1  0
  8  9  2  0
  8 10  1  0
 11 12  1  0
 11 13  1  0
 14 15  1  0
 15 16  1  0
 17 18  1  0
 18 19  1  0
  9 20  1  0
 10 21  1  0
 10 22  1  0
 10 23  1  0
 11 24  1  0
 12 25  1  0
 12 26  1  0
 12 27  1  0
 13 28  1  0
 13 29  1  0
 13 30  1  0
 15 31  1  0
 15 32  1  0
 16 33  1  0
 16 34  1  0
 16 35  1  0
 18 36  1  0
 18 37  1  0
 19 38  1  0
 19 39  1  0
 19 40  1  0
M  END
> <DSSTox_RID>
40417

> <DSSTox_CID>
407

> <DSSTox_Generic_SID>
20407

> <DSSTox_FileID>
85_TOXCST_v3a

> <STRUCTURE_Formula>
C12H21N2O3PS

> <STRUCTURE_MolecularWeight>
304.3455

> <STRUCTURE_ChemicalType>
defined organic

> <STRUCTURE_TestedForm_DefinedOrganic>
parent

> <STRUCTURE_Shown>
tested chemical

> <TestSubstance_ChemicalName>
Diazinon

> <Source_ChemicalName>
Diazinon

> <TestSubstance_CASRN>
333-41-5

> <TestSubstance_Description>
single chemical compound

> <STRUCTURE_ChemicalName_IUPAC>
O,O-diethyl O-[6-methyl-2-(1-methylethyl)pyrimidin-4-yl] thiophosphate

> <STRUCTURE_SMILES>
S=P(OC1=NC(=NC(=C1)C)C(C)C)(OCC)OCC

> <STRUCTURE_Parent_SMILES>
S=P(OC1=NC(=NC(=C1)C)C(C)C)(OCC)OCC

> <STRUCTURE_InChI>
InChI=1S/C12H21N2O3PS/c1-6-15-18(19,16-7-2)17-11-8-10(5)13-12(14-11)9(3)4/h8-9H,6-7H2,1-5H3

> <STRUCTURE_InChIKey>
FHIVAFMUCKRCQO-UHFFFAOYSA-N

> <Substance_modify_yyyymmdd>
20080429

> <DSSTox_CID_Parent>
407

> <ChemicalReplicateCount>
1

> <Relationship_CID>
parent0 of metabolite 17523

> <Coord_Metals>
0

> <Index>
85

> <Canonical_Smiles>
CCOP(=S)(OCC)Oc1cc(C)nc(n1)C(C)C

> <Molecular_Weight>
304.3455

> <Frequency>
1

$$$$

  SciTegic          2D

 40 40  0  0  0  0            999 V2000
   -2.5951    3.0039    0.0000 P   0  0
   -1.5549    3.6021    0.0000 O   0  0
   -3.8933    3.7570    0.0000 O   0  0
   -2.5903    4.5339    0.0000 O   0  0
   -2.5973    1.5031    0.0000 O   0  0
   -5.1951    3.0101    0.0000 C   0  0
   -6.4933    3.7631    0.0000 C   0  0
   -1.2886    5.2810    0.0000 C   0  0
   -1.2839    6.7818    0.0000 C   0  0
    1.2990   -0.7500    0.0000 N   0  0
    0.0000    1.5000    0.0000 N   0  0
    1.2990    0.7500    0.0000 C   0  0
   -1.2990   -0.7500    0.0000 C   0  0
    0.0000   -1.5000    0.0000 C   0  0
   -1.2990    0.7500    0.0000 C   0  0
    0.0000   -3.0008    0.0000 C   0  0
    2.5988    1.5004    0.0000 C   0  0
    3.8990    0.7508    0.0000 C   0  0
    2.5983    3.0012    0.0000 C   0  0
   -5.1975    2.0101    0.0000 H   0  0
   -4.3303    2.5079    0.0000 H   0  0
   -7.3607    3.2655    0.0000 H   0  0
   -6.4909    4.7631    0.0000 H   0  0
   -7.3581    4.2653    0.0000 H   0  0
   -1.2914    4.2810    0.0000 H   0  0
   -0.4241    4.7785    0.0000 H   0  0
   -0.4166    7.2796    0.0000 H   0  0
   -1.2812    7.7818    0.0000 H   0  0
   -2.1485    7.2843    0.0000 H   0  0
   -2.1651   -1.2500    0.0000 H   0  0
    0.8657   -3.5014    0.0000 H   0  0
   -0.8662   -3.5006    0.0000 H   0  0
   -0.0005   -4.0008    0.0000 H   0  0
    2.5991    0.5004    0.0000 H   0  0
    4.7650    1.2509    0.0000 H   0  0
    3.8993   -0.2492    0.0000 H   0  0
    4.7651    0.2510    0.0000 H   0  0
    3.4638    3.5020    0.0000 H   0  0
    1.7320    3.5006    0.0000 H   0  0
    2.5975    4.0012    0.0000 H   0  0
  1  2  2  0
  1  3  1  0
  1  4  1  0
  1  5  1  0
  3  6  1  0
  4  8  1  0
  5 15  1  0
  6  7  1  0
  8  9  1  0
 10 12  2  0
 10 14  1  0
 11 12  1  0
 11 15  2  0
 12 17  1  0
 13 14  2  0
 13 15  1  0
 14 16  1  0
 17 18  1  0
 17 19  1  0
  6 20  1  0
  6 21  1  0
  7 22  1  0
  7 23  1  0
  7 24  1  0
  8 25  1  0
  8 26  1  0
  9 27  1  0
  9 28  1  0
  9 29  1  0
 13 30  1  0
 16 31  1  0
 16 32  1  0
 16 33  1  0
 17 34  1  0
 18 35  1  0
 18 36  1  0
 18 37  1  0
 19 38  1  0
 19 39  1  0
 19 40  1  0
M  END
> <DSSTox_RID>
40418

> <DSSTox_CID>
17523

> <DSSTox_Generic_SID>
37523

> <DSSTox_FileID>
86_TOXCST_v3a

> <STRUCTURE_Formula>
C12H21N2O4P

> <STRUCTURE_MolecularWeight>
288.2799

> <STRUCTURE_ChemicalType>
defined organic

> <STRUCTURE_TestedForm_DefinedOrganic>
parent

> <STRUCTURE_Shown>
tested chemical

> <TestSubstance_ChemicalName>
Diazoxon

> <Source_ChemicalName>
Diazoxon

> <TestSubstance_CASRN>
962-58-3

> <TestSubstance_Description>
single chemical compound

> <STRUCTURE_ChemicalName_IUPAC>
diethyl 2-isopropyl-6-methylpyrimidin-4-yl phosphate

> <STRUCTURE_SMILES>
O=P(OCC)(OC1=NC(C(C)C)=NC(C)=C1)OCC

> <STRUCTURE_Parent_SMILES>
O=P(OCC)(OC1=NC(C(C)C)=NC(C)=C1)OCC

> <STRUCTURE_InChI>
InChI=1S/C12H21N2O4P/c1-6-16-19(15,17-7-2)18-11-8-10(5)13-12(14-11)9(3)4/h8-9H,6-7H2,1-5H3

> <STRUCTURE_InChIKey>
VBLJFQYCTRKKKF-UHFFFAOYSA-N

> <Substance_modify_yyyymmdd>
20080429

> <DSSTox_CID_Parent>
17523

> <ChemicalReplicateCount>
1

> <Relationship_CID>
metabolite of parent0 407

> <Coord_Metals>
0

> <Index>
86

> <Canonical_Smiles>
CCOP(=O)(OCC)Oc1cc(C)nc(n1)C(C)C

> <Molecular_Weight>
288.2799

> <Frequency>
1

$$$$

  SciTegic          2D

 42 42  0  0  0  0            999 V2000
    1.2990   -0.7500    0.0000 C   0  0
    1.2990    0.7500    0.0000 C   0  0
    0.0000    1.5000    0.0000 C   0  0
   -1.2990    0.7500    0.0000 C   0  0
   -2.6003    1.4977    0.0000 C   0  0
   -2.6024    2.6977    0.0000 O   0  0
   -3.8990    0.7455    0.0000 O   0  0
   -5.2003    1.4932    0.0000 C   0  0
   -6.4990    0.7409    0.0000 C   0  0
   -7.8003    1.4887    0.0000 C   0  0
   -9.0990    0.7364    0.0000 C   0  0
    0.0000   -1.5000    0.0000 C   0  0
   -1.2990   -0.7500    0.0000 C   0  0
   -2.5972   -1.5031    0.0000 C   0  0
   -3.6375   -0.9049    0.0000 O   0  0
   -2.5951   -3.0039    0.0000 O   0  0
   -3.8933   -3.7570    0.0000 C   0  0
   -3.8912   -5.2578    0.0000 C   0  0
   -5.1894   -6.0109    0.0000 C   0  0
   -5.1872   -7.5117    0.0000 C   0  0
    2.1651   -1.2500    0.0000 H   0  0
    2.1651    1.2500    0.0000 H   0  0
    0.0000    2.5000    0.0000 H   0  0
   -4.3353    1.9948    0.0000 H   0  0
   -5.2021    2.4932    0.0000 H   0  0
   -5.6322    0.2423    0.0000 H   0  0
   -6.4973   -0.2591    0.0000 H   0  0
   -6.9352    1.9903    0.0000 H   0  0
   -7.8020    2.4887    0.0000 H   0  0
   -9.9660    1.2346    0.0000 H   0  0
   -9.9641    0.2347    0.0000 H   0  0
   -9.0972   -0.2636    0.0000 H   0  0
    0.0000   -2.5000    0.0000 H   0  0
   -3.8952   -2.7570    0.0000 H   0  0
   -4.7602   -3.2585    0.0000 H   0  0
   -3.0259   -4.7565    0.0000 H   0  0
   -3.0243   -5.7563    0.0000 H   0  0
   -5.1913   -5.0109    0.0000 H   0  0
   -6.0563   -5.5124    0.0000 H   0  0
   -6.0522   -8.0135    0.0000 H   0  0
   -5.1853   -8.5117    0.0000 H   0  0
   -4.3203   -8.0102    0.0000 H   0  0
  1  2  2  0
  1 12  1  0
  2  3  1  0
  3  4  2  0
  4  5  1  0
  4 13  1  0
  5  6  2  0
  5  7  1  0
  7  8  1  0
  8  9  1  0
  9 10  1  0
 10 11  1  0
 12 13  2  0
 13 14  1  0
 14 15  2  0
 14 16  1  0
 16 17  1  0
 17 18  1  0
 18 19  1  0
 19 20  1  0
  1 21  1  0
  2 22  1  0
  3 23  1  0
  8 24  1  0
  8 25  1  0
  9 26  1  0
  9 27  1  0
 10 28  1  0
 10 29  1  0
 11 30  1  0
 11 31  1  0
 11 32  1  0
 12 33  1  0
 17 34  1  0
 17 35  1  0
 18 36  1  0
 18 37  1  0
 19 38  1  0
 19 39  1  0
 20 40  1  0
 20 41  1  0
 20 42  1  0
M  END
> <DSSTox_RID>
40419
40763

> <DSSTox_CID>
1781
1781

> <DSSTox_Generic_SID>
21781
21781

> <DSSTox_FileID>
87_TOXCST_v3a
88_TOXCST_v3a

> <STRUCTURE_Formula>
C16H22O4
C16H22O4

> <STRUCTURE_MolecularWeight>
278.3435
278.3435

> <STRUCTURE_ChemicalType>
defined organic
defined organic

> <STRUCTURE_TestedForm_DefinedOrganic>
parent
parent

> <STRUCTURE_Shown>
tested chemical
tested chemical

> <TestSubstance_ChemicalName>
Dibutyl phthalate
Dibutyl phthalate

> <Source_ChemicalName>
Dibutyl phthalate
Dibutyl phthalate

> <TestSubstance_CASRN>
84-74-2
84-74-2

> <TestSubstance_Description>
single chemical compound
single chemical compound

> <STRUCTURE_ChemicalName_IUPAC>
dibutyl phthalate
dibutyl phthalate

> <STRUCTURE_SMILES>
C1=CC=C(C(=O)OCCCC)C(=C1)C(=O)OCCCC
C1=CC=C(C(=O)OCCCC)C(=C1)C(=O)OCCCC

> <STRUCTURE_Parent_SMILES>
C1=CC=C(C(=O)OCCCC)C(=C1)C(=O)OCCCC
C1=CC=C(C(=O)OCCCC)C(=C1)C(=O)OCCCC

> <STRUCTURE_InChI>
InChI=1S/C16H22O4/c1-3-5-11-19-15(17)13-9-7-8-10-14(13)16(18)20-12-6-4-2/h7-10H,3-6,11-12H2,1-2H3
InChI=1S/C16H22O4/c1-3-5-11-19-15(17)13-9-7-8-10-14(13)16(18)20-12-6-4-2/h7-10H,3-6,11-12H2,1-2H3

> <STRUCTURE_InChIKey>
DOIRQSBPFJWKBE-UHFFFAOYSA-N
DOIRQSBPFJWKBE-UHFFFAOYSA-N

> <Substance_modify_yyyymmdd>
20080429
20080429

> <DSSTox_CID_Parent>
1781
1781

> <ChemicalReplicateCount>
1 of 2
2 of 2

> <Relationship_CID>
duplicate of 1781; parent0 of metabolite 20002
duplicate of 1781; parent0 of metabolite 20002

> <Coord_Metals>
0
0

> <Index>
87
88

> <Canonical_Smiles>
CCCCOC(=O)c1ccccc1C(=O)OCCCC

> <Molecular_Weight>
278.34348
278.34348

> <Frequency>
2

$$$$

  SciTegic          2D

 19 19  0  0  0  0            999 V2000
    1.2990   -0.7500    0.0000 C   0  0
    1.2990    0.7500    0.0000 C   0  0
    2.5973   -1.5031    0.0000 C   0  0
    0.0000   -1.5000    0.0000 C   0  0
    0.0000    1.5000    0.0000 C   0  0
    3.6375   -0.9049    0.0000 O   0  0
   -1.2990   -0.7500    0.0000 C   0  0
   -1.2990    0.7500    0.0000 C   0  0
    2.5951   -3.0039    0.0000 O   0  0
    2.5972    1.5031    0.0000 O   0  0
    0.0000   -2.7000    0.0000 Cl  0  0
    0.0000    2.7000    0.0000 Cl  0  0
    2.5951    3.0039    0.0000 C   0  0
   -2.1651   -1.2500    0.0000 H   0  0
   -2.1651    1.2500    0.0000 H   0  0
    3.4601   -3.5057    0.0000 H   0  0
    3.4601    3.5057    0.0000 H   0  0
    1.7282    3.5024    0.0000 H   0  0
    2.5932    4.0039    0.0000 H   0  0
  1  2  1  0
  1  3  1  0
  1  4  2  0
  2  5  2  0
  2 10  1  0
  3  6  2  0
  3  9  1  0
  4  7  1  0
  4 11  1  0
  5 12  1  0
  5  8  1  0
  7  8  2  0
 10 13  1  0
  7 14  1  0
  8 15  1  0
  9 16  1  0
 13 17  1  0
 13 18  1  0
 13 19  1  0
M  END
> <DSSTox_RID>
40420

> <DSSTox_CID>
4018

> <DSSTox_Generic_SID>
24018

> <DSSTox_FileID>
89_TOXCST_v3a

> <STRUCTURE_Formula>
C8H6Cl2O3

> <STRUCTURE_MolecularWeight>
221.0374

> <STRUCTURE_ChemicalType>
defined organic

> <STRUCTURE_TestedForm_DefinedOrganic>
parent

> <STRUCTURE_Shown>
tested chemical

> <TestSubstance_ChemicalName>
Dicamba

> <Source_ChemicalName>
Dicamba

> <TestSubstance_CASRN>
1918-00-9

> <TestSubstance_Description>
single chemical compound

> <STRUCTURE_ChemicalName_IUPAC>
3,6-dichloro-2-methoxybenzoic acid

> <STRUCTURE_SMILES>
COc1c(c(Cl)ccc1Cl)C(O)=O

> <STRUCTURE_Parent_SMILES>
COc1c(c(Cl)ccc1Cl)C(O)=O

> <STRUCTURE_InChI>
InChI=1S/C8H6Cl2O3/c1-13-7-5(10)3-2-4(9)6(7)8(11)12/h2-3H,1H3,(H,11,12)

> <STRUCTURE_InChIKey>
IWEDIXLBFLAXBO-UHFFFAOYSA-N

> <Substance_modify_yyyymmdd>
20080429

> <DSSTox_CID_Parent>
4018

> <ChemicalReplicateCount>
1

> <Coord_Metals>
0

> <Index>
89

> <Canonical_Smiles>
COc1c(Cl)ccc(Cl)c1C(=O)O

> <Molecular_Weight>
221.03743

> <Frequency>
1

$$$$

  SciTegic          2D

 13 13  0  0  0  0            999 V2000
    1.2990   -0.7500    0.0000 C   0  0
    2.5988   -1.5004    0.0000 C   0  0
    3.6380   -2.1004    0.0000 N   0  0
    1.2990    0.7500    0.0000 C   0  0
    0.0000   -1.5000    0.0000 C   0  0
    0.0000   -2.7000    0.0000 Cl  0  0
    2.3383    1.3500    0.0000 Cl  0  0
   -1.2990    0.7500    0.0000 C   0  0
   -1.2990   -0.7500    0.0000 C   0  0
    0.0000    1.5000    0.0000 C   0  0
   -2.1651    1.2500    0.0000 H   0  0
   -2.1651   -1.2500    0.0000 H   0  0
    0.0000    2.5000    0.0000 H   0  0
  1  2  1  0
  1  4  1  0
  1  5  2  0
  2  3  3  0
  4  7  1  0
  4 10  2  0
  5  6  1  0
  5  9  1  0
  8  9  2  0
  8 10  1  0
  8 11  1  0
  9 12  1  0
 10 13  1  0
M  END
> <DSSTox_RID>
40421

> <DSSTox_CID>
12365

> <DSSTox_Generic_SID>
32365

> <DSSTox_FileID>
90_TOXCST_v3a

> <STRUCTURE_Formula>
C7H3Cl2N

> <STRUCTURE_MolecularWeight>
172.0114

> <STRUCTURE_ChemicalType>
defined organic

> <STRUCTURE_TestedForm_DefinedOrganic>
parent

> <STRUCTURE_Shown>
tested chemical

> <TestSubstance_ChemicalName>
Dichlobenil

> <Source_ChemicalName>
Dichlobenil

> <TestSubstance_CASRN>
1194-65-6

> <TestSubstance_Description>
single chemical compound

> <STRUCTURE_ChemicalName_IUPAC>
2,6-dichlorobenzonitrile

> <STRUCTURE_SMILES>
N#CC(C(Cl)=CC=C1)=C1Cl

> <STRUCTURE_Parent_SMILES>
N#CC(C(Cl)=CC=C1)=C1Cl

> <STRUCTURE_InChI>
InChI=1S/C7H3Cl2N/c8-6-2-1-3-7(9)5(6)4-10/h1-3H

> <STRUCTURE_InChIKey>
YOYAIZYFCNQIRF-UHFFFAOYSA-N

> <Substance_modify_yyyymmdd>
20080429

> <DSSTox_CID_Parent>
12365

> <ChemicalReplicateCount>
1

> <Coord_Metals>
0

> <Index>
90

> <Canonical_Smiles>
Clc1cccc(Cl)c1C#N

> <Molecular_Weight>
172.01141

> <Frequency>
1

$$$$

  SciTegic          2D

 16 16  0  0  0  0            999 V2000
    2.5956   -2.7031    0.0000 O   0  0
    2.5973   -1.5031    0.0000 N   0  0
    1.2990   -0.7500    0.0000 C   0  0
    1.2990    0.7500    0.0000 C   0  0
    0.0000    1.5000    0.0000 C   0  0
   -1.2990    0.7500    0.0000 C   0  0
   -1.2990   -0.7500    0.0000 C   0  0
    0.0000   -1.5000    0.0000 C   0  0
   -2.3383   -1.3500    0.0000 Cl  0  0
   -2.6003    1.4977    0.0000 N   0  0
    0.0000    2.7000    0.0000 Cl  0  0
    3.6375   -0.9049    0.0000 O   0  0
    2.1651    1.2500    0.0000 H   0  0
    0.0000   -2.5000    0.0000 H   0  0
   -3.4657    0.9965    0.0000 H   0  0
   -2.6021    2.4977    0.0000 H   0  0
  1  2  2  0
  2  3  1  0
  2 12  2  0
  3  4  2  0
  3  8  1  0
  4  5  1  0
  5  6  2  0
  5 11  1  0
  6  7  1  0
  6 10  1  0
  7  8  2  0
  7  9  1  0
  4 13  1  0
  8 14  1  0
 10 15  1  0
 10 16  1  0
M  END
> <DSSTox_RID>
40422

> <DSSTox_CID>
426

> <DSSTox_Generic_SID>
20426

> <DSSTox_FileID>
91_TOXCST_v3a

> <STRUCTURE_Formula>
C6H4Cl2N2O2

> <STRUCTURE_MolecularWeight>
207.0142

> <STRUCTURE_ChemicalType>
defined organic

> <STRUCTURE_TestedForm_DefinedOrganic>
parent

> <STRUCTURE_Shown>
tested chemical

> <TestSubstance_ChemicalName>
Dicloran

> <Source_ChemicalName>
Dichloran

> <TestSubstance_CASRN>
99-30-9

> <TestSubstance_Description>
single chemical compound

> <STRUCTURE_ChemicalName_IUPAC>
2,6-dichloro-4-nitroaniline

> <STRUCTURE_SMILES>
O=[N+](C1=CC(=C(C(=C1)Cl)N)Cl)[O-]

> <STRUCTURE_Parent_SMILES>
O=[N+](C1=CC(=C(C(=C1)Cl)N)Cl)[O-]

> <STRUCTURE_InChI>
InChI=1S/C6H4Cl2N2O2/c7-4-1-3(10(11)12)2-5(8)6(4)9/h1-2H,9H2

> <STRUCTURE_InChIKey>
BIXZHMJUSMUDOQ-UHFFFAOYSA-N

> <Substance_modify_yyyymmdd>
20080429

> <DSSTox_CID_Parent>
426

> <ChemicalReplicateCount>
1

> <Coord_Metals>
0

> <Index>
91

> <Canonical_Smiles>
Nc1c(Cl)cc(cc1Cl)N(=O)=O

> <Molecular_Weight>
207.01415

> <Frequency>
1

$$$$

  SciTegic          2D

 22 22  0  0  0  0            999 V2000
    2.3383   -1.3500    0.0000 Cl  0  0
    1.2990   -0.7500    0.0000 C   0  0
    1.2990    0.7500    0.0000 C   0  0
    0.0000    1.5000    0.0000 C   0  0
   -1.2990    0.7500    0.0000 C   0  0
   -1.2990   -0.7500    0.0000 C   0  0
    0.0000   -1.5000    0.0000 C   0  0
   -2.3383   -1.3500    0.0000 Cl  0  0
    2.5972    1.5031    0.0000 O   0  0
    2.5951    3.0039    0.0000 C   0  0
    3.8933    3.7570    0.0000 C   0  0
    4.9336    3.1588    0.0000 O   0  0
    3.8912    5.2578    0.0000 O   0  0
    1.2941    3.7520    0.0000 C   0  0
    0.0000    2.5000    0.0000 H   0  0
   -2.1651    1.2500    0.0000 H   0  0
    0.0000   -2.5000    0.0000 H   0  0
    3.4620    2.5054    0.0000 H   0  0
    4.7561    5.7596    0.0000 H   0  0
    0.4286    3.2511    0.0000 H   0  0
    0.4274    4.2509    0.0000 H   0  0
    1.2927    4.7520    0.0000 H   0  0
  1  2  1  0
  2  3  2  0
  2  7  1  0
  3  4  1  0
  3  9  1  0
  4  5  2  0
  5  6  1  0
  6  7  2  0
  6  8  1  0
  9 10  1  0
 10 11  1  0
 10 14  1  0
 11 12  2  0
 11 13  1  0
  4 15  1  0
  5 16  1  0
  7 17  1  0
 10 18  1  0
 13 19  1  0
 14 20  1  0
 14 21  1  0
 14 22  1  0
M  END
> <DSSTox_RID>
40342

> <DSSTox_CID>
440

> <DSSTox_Generic_SID>
20440

> <DSSTox_FileID>
92_TOXCST_v3a

> <STRUCTURE_Formula>
C9H8Cl2O3

> <STRUCTURE_MolecularWeight>
235.064

> <STRUCTURE_ChemicalType>
defined organic

> <STRUCTURE_TestedForm_DefinedOrganic>
parent

> <STRUCTURE_Shown>
tested chemical

> <TestSubstance_ChemicalName>
Dichlorprop

> <Source_ChemicalName>
Dichlorprop

> <TestSubstance_CASRN>
120-36-5

> <TestSubstance_Description>
single chemical compound

> <ChemicalNote>
mixture of (2R) [15165-67-0], (2S) [15165-69-2]; structure shown without stereochem

> <STRUCTURE_ChemicalName_IUPAC>
2-(2,4-dichlorophenoxy)propanoic acid

> <STRUCTURE_SMILES>
ClC1=C(OC(C)C(O)=O)C=CC(Cl)=C1

> <STRUCTURE_Parent_SMILES>
ClC1=C(OC(C)C(O)=O)C=CC(Cl)=C1

> <STRUCTURE_InChI>
InChI=1S/C9H8Cl2O3/c1-5(9(12)13)14-8-3-2-6(10)4-7(8)11/h2-5H,1H3,(H,12,13)

> <STRUCTURE_InChIKey>
MZHCENGPTKEIGP-UHFFFAOYSA-N

> <Substance_modify_yyyymmdd>
20080429

> <DSSTox_CID_Parent>
440

> <ChemicalReplicateCount>
1

> <Coord_Metals>
0

> <Index>
92

> <Canonical_Smiles>
CC(Oc1ccc(Cl)cc1Cl)C(=O)O

> <Molecular_Weight>
235.06401

> <Frequency>
1

$$$$

  SciTegic          2D

 18 17  0  0  0  0            999 V2000
    5.2000   -1.2000    0.0000 O   0  0
    5.2000    0.0000    0.0000 P   0  0
    3.9000    0.7500    0.0000 O   0  0
    2.6000    0.0000    0.0000 C   0  0
    1.3000    0.7500    0.0000 C   0  0
    0.2606    0.1503    0.0000 Cl  0  0
    1.3000    1.9500    0.0000 Cl  0  0
    6.5000    0.7500    0.0000 O   0  0
    7.7999    0.0000    0.0000 C   0  0
    3.8760   -0.7669    0.0000 O   0  0
    3.8773   -2.2677    0.0000 C   0  0
    2.6000   -1.0000    0.0000 H   0  0
    8.6661    0.4997    0.0000 H   0  0
    7.7999   -1.0000    0.0000 H   0  0
    8.6659   -0.5001    0.0000 H   0  0
    3.0120   -2.7689    0.0000 H   0  0
    3.8786   -3.2677    0.0000 H   0  0
    4.7439   -2.7667    0.0000 H   0  0
  1  2  2  0
  2  3  1  0
  2  8  1  0
  2 10  1  0
  3  4  1  0
  4  5  2  0
  5  6  1  0
  5  7  1  0
  8  9  1  0
 10 11  1  0
  4 12  1  0
  9 13  1  0
  9 14  1  0
  9 15  1  0
 11 16  1  0
 11 17  1  0
 11 18  1  0
M  END
> <DSSTox_RID>
40423

> <DSSTox_CID>
449

> <DSSTox_Generic_SID>
20449

> <DSSTox_FileID>
93_TOXCST_v3a

> <STRUCTURE_Formula>
C4H7Cl2O4P

> <STRUCTURE_MolecularWeight>
220.9757

> <STRUCTURE_ChemicalType>
defined organic

> <STRUCTURE_TestedForm_DefinedOrganic>
parent

> <STRUCTURE_Shown>
tested chemical

> <TestSubstance_ChemicalName>
Dichlorvos

> <Source_ChemicalName>
Dichlorvos

> <TestSubstance_CASRN>
62-73-7

> <TestSubstance_Description>
single chemical compound

> <STRUCTURE_ChemicalName_IUPAC>
2,2-dichloroethenyl dimethyl phosphate

> <STRUCTURE_SMILES>
O=P(OC=C(Cl)Cl)(OC)OC

> <STRUCTURE_Parent_SMILES>
O=P(OC=C(Cl)Cl)(OC)OC

> <STRUCTURE_InChI>
InChI=1S/C4H7Cl2O4P/c1-8-11(7,9-2)10-3-4(5)6/h3H,1-2H3

> <STRUCTURE_InChIKey>
OEBRKCOSUFCWJD-UHFFFAOYSA-N

> <Substance_modify_yyyymmdd>
20080429

> <DSSTox_CID_Parent>
449

> <ChemicalReplicateCount>
1

> <Coord_Metals>
0

> <Index>
93

> <Canonical_Smiles>
COP(=O)(OC)OC=C(Cl)Cl

> <Molecular_Weight>
220.97574

> <Frequency>
1

$$$$

  SciTegic          2D

 36 37  0  0  0  0            999 V2000
    2.3383   -1.3500    0.0000 Cl  0  0
    1.2990   -0.7500    0.0000 C   0  0
    1.2990    0.7500    0.0000 C   0  0
    0.0000    1.5000    0.0000 C   0  0
   -1.2990    0.7500    0.0000 C   0  0
   -1.2990   -0.7500    0.0000 C   0  0
    0.0000   -1.5000    0.0000 C   0  0
   -2.3383   -1.3500    0.0000 Cl  0  0
    2.5972    1.5031    0.0000 O   0  0
    2.5951    3.0039    0.0000 C   0  0
    3.8915    3.7585    0.0000 C   0  0
    3.8863    5.2585    0.0000 C   0  0
    2.5847    6.0040    0.0000 C   0  0
    1.2883    5.2495    0.0000 C   0  0
    1.2934    3.7495    0.0000 C   0  0
    2.5764    7.5048    0.0000 O   0  0
    1.2730    8.2489    0.0000 C   0  0
    1.2647    9.7497    0.0000 C   0  0
    2.3008   10.3551    0.0000 O   0  0
   -0.0387   10.4937    0.0000 O   0  0
   -0.0470   11.9945    0.0000 C   0  0
   -0.0228    7.4917    0.0000 C   0  0
    0.0000    2.5000    0.0000 H   0  0
   -2.1651    1.2500    0.0000 H   0  0
    0.0000   -2.5000    0.0000 H   0  0
    4.7593    3.2615    0.0000 H   0  0
    4.7506    5.7615    0.0000 H   0  0
    0.4205    5.7465    0.0000 H   0  0
    0.4291    3.2465    0.0000 H   0  0
    2.1364    8.7534    0.0000 H   0  0
   -0.9154   12.4903    0.0000 H   0  0
   -0.0520   12.9945    0.0000 H   0  0
    0.8164   12.4990    0.0000 H   0  0
   -0.0182    6.4917    0.0000 H   0  0
   -0.8864    6.9876    0.0000 H   0  0
   -0.8912    7.9875    0.0000 H   0  0
  1  2  1  0
  2  3  1  0
  2  7  2  0
  3  4  2  0
  3  9  1  0
  4  5  1  0
  5  6  2  0
  6  7  1  0
  6  8  1  0
  9 10  1  0
 10 11  1  0
 10 15  2  0
 11 12  2  0
 12 13  1  0
 13 14  2  0
 13 16  1  0
 14 15  1  0
 16 17  1  0
 17 18  1  0
 17 22  1  0
 18 19  2  0
 18 20  1  0
 20 21  1  0
  4 23  1  0
  5 24  1  0
  7 25  1  0
 11 26  1  0
 12 27  1  0
 14 28  1  0
 15 29  1  0
 17 30  1  0
 21 31  1  0
 21 32  1  0
 21 33  1  0
 22 34  1  0
 22 35  1  0
 22 36  1  0
M  END
> <DSSTox_RID>
40424
40764
40765

> <DSSTox_CID>
12605
12605
12605

> <DSSTox_Generic_SID>
32605
32605
32605

> <DSSTox_FileID>
94_TOXCST_v3a
95_TOXCST_v3a
96_TOXCST_v3a

> <STRUCTURE_Formula>
C16H14Cl2O4
C16H14Cl2O4
C16H14Cl2O4

> <STRUCTURE_MolecularWeight>
341.186
341.186
341.186

> <STRUCTURE_ChemicalType>
defined organic
defined organic
defined organic

> <STRUCTURE_TestedForm_DefinedOrganic>
parent
parent
parent

> <STRUCTURE_Shown>
tested chemical
tested chemical
tested chemical

> <TestSubstance_ChemicalName>
Diclofop-methyl
Diclofop-methyl
Diclofop-methyl

> <Source_ChemicalName>
Diclofop-methyl
Diclofop-methyl
Diclofop-methyl

> <TestSubstance_CASRN>
51338-27-3
51338-27-3
51338-27-3

> <TestSubstance_Description>
single chemical compound
single chemical compound
single chemical compound

> <STRUCTURE_ChemicalName_IUPAC>
methyl 2-[4-(2,4-dichlorophenoxy)phenoxy]propanoate
methyl 2-[4-(2,4-dichlorophenoxy)phenoxy]propanoate
methyl 2-[4-(2,4-dichlorophenoxy)phenoxy]propanoate

> <STRUCTURE_SMILES>
ClC1=CC(Cl)=CC=C1OC2=CC=C(OC(C)C(OC)=O)C=C2
ClC1=CC(Cl)=CC=C1OC2=CC=C(OC(C)C(OC)=O)C=C2
ClC1=CC(Cl)=CC=C1OC2=CC=C(OC(C)C(OC)=O)C=C2

> <STRUCTURE_Parent_SMILES>
ClC1=CC(Cl)=CC=C1OC2=CC=C(OC(C)C(OC)=O)C=C2
ClC1=CC(Cl)=CC=C1OC2=CC=C(OC(C)C(OC)=O)C=C2
ClC1=CC(Cl)=CC=C1OC2=CC=C(OC(C)C(OC)=O)C=C2

> <STRUCTURE_InChI>
InChI=1S/C16H14Cl2O4/c1-10(16(19)20-2)21-12-4-6-13(7-5-12)22-15-8-3-11(17)9-14(15)18/h3-10H,1-2H3
InChI=1S/C16H14Cl2O4/c1-10(16(19)20-2)21-12-4-6-13(7-5-12)22-15-8-3-11(17)9-14(15)18/h3-10H,1-2H3
InChI=1S/C16H14Cl2O4/c1-10(16(19)20-2)21-12-4-6-13(7-5-12)22-15-8-3-11(17)9-14(15)18/h3-10H,1-2H3

> <STRUCTURE_InChIKey>
BACHBFVBHLGWSL-UHFFFAOYSA-N
BACHBFVBHLGWSL-UHFFFAOYSA-N
BACHBFVBHLGWSL-UHFFFAOYSA-N

> <Substance_modify_yyyymmdd>
20080429
20080429
20080429

> <DSSTox_CID_Parent>
12605
12605
12605

> <ChemicalReplicateCount>
1 of 3
2 of 3
3 of 3

> <Relationship_CID>
triplicate of 12605
triplicate of 12605
triplicate of 12605

> <Coord_Metals>
0
0
0

> <Index>
94
95
96

> <Canonical_Smiles>
COC(=O)C(C)Oc1ccc(Oc2ccc(Cl)cc2Cl)cc1

> <Molecular_Weight>
341.18596
341.18596
341.18596

> <Frequency>
3

$$$$

  SciTegic          2D

 35 37  0  0  0  0            999 V2000
   -2.3155    0.7475    0.0000 N   0  0
    0.2917    0.7475    0.0000 N   0  0
   -1.0028    1.5132    0.0000 C   0  0
   -1.0028   -1.5132    0.0000 C   0  0
   -2.3155   -0.7475    0.0000 C   0  0
    0.2917   -0.7475    0.0000 C   0  0
    1.7138    1.2033    0.0000 N   0  0
    2.5889    0.0182    0.0000 C   0  0
    1.7138   -1.2033    0.0000 N   0  0
    4.0872    0.0351    0.0000 S   0  0
    4.6987   -0.9974    0.0000 O   0  0
    5.2871    0.0482    0.0000 O   0  0
    4.8236    1.3429    0.0000 N   0  0
    6.3243    1.3600    0.0000 C   0  0
    7.0622    2.6659    0.0000 C   0  0
    7.0865    0.0680    0.0000 C   0  0
    8.5622    2.6800    0.0000 C   0  0
    8.5865    0.0820    0.0000 C   0  0
    9.3243    1.3880    0.0000 C   0  0
    6.4526    3.6995    0.0000 Cl  0  0
    6.4963   -0.9768    0.0000 Cl  0  0
   -0.9971    3.0138    0.0000 O   0  0
   -2.2935    3.7700    0.0000 C   0  0
   -2.2878    5.2708    0.0000 C   0  0
   -3.3560   -1.3452    0.0000 F   0  0
   -0.9997   -2.5132    0.0000 H   0  0
    4.3140    2.2033    0.0000 H   0  0
    9.0541    3.5506    0.0000 H   0  0
    9.0945   -0.7793    0.0000 H   0  0
   10.3242    1.3973    0.0000 H   0  0
   -3.1616    3.2735    0.0000 H   0  0
   -2.2978    2.7700    0.0000 H   0  0
   -3.1516    5.7746    0.0000 H   0  0
   -1.4197    5.7672    0.0000 H   0  0
   -2.2835    6.2708    0.0000 H   0  0
  1  3  2  0
  1  5  1  0
  2  3  1  0
  2  6  1  0
  2  7  1  0
  3 22  1  0
  4  5  2  0
  4  6  1  0
  5 25  1  0
  6  9  2  0
  7  8  2  0
  8  9  1  0
  8 10  1  0
 10 11  2  0
 10 13  1  0
 10 12  2  0
 13 14  1  0
 14 15  2  0
 14 16  1  0
 15 17  1  0
 15 20  1  0
 16 18  2  0
 16 21  1  0
 17 19  2  0
 18 19  1  0
 22 23  1  0
 23 24  1  0
  4 26  1  0
 13 27  1  0
 17 28  1  0
 18 29  1  0
 19 30  1  0
 23 31  1  0
 23 32  1  0
 24 33  1  0
 24 34  1  0
 24 35  1  0
M  END
> <DSSTox_RID>
40425

> <DSSTox_CID>
14528

> <DSSTox_Generic_SID>
34528

> <DSSTox_FileID>
97_TOXCST_v3a

> <STRUCTURE_Formula>
C13H10Cl2FN5O3S

> <STRUCTURE_MolecularWeight>
406.2196

> <STRUCTURE_ChemicalType>
defined organic

> <STRUCTURE_TestedForm_DefinedOrganic>
parent

> <STRUCTURE_Shown>
tested chemical

> <TestSubstance_ChemicalName>
Diclosulam

> <Source_ChemicalName>
Diclosulam

> <TestSubstance_CASRN>
145701-21-9

> <TestSubstance_Description>
single chemical compound

> <STRUCTURE_ChemicalName_IUPAC>
N-(2,6-dichlorophenyl)-5-ethoxy-7-fluoro[1,2,4]triazolo[1,5-c]pyrimidine-2-sulfonamide

> <STRUCTURE_SMILES>
O=S(C2=NN1C(OCC)=NC(F)=CC1=N2)(NC3=C(Cl)C=CC=C3Cl)=O

> <STRUCTURE_Parent_SMILES>
O=S(C2=NN1C(OCC)=NC(F)=CC1=N2)(NC3=C(Cl)C=CC=C3Cl)=O

> <STRUCTURE_InChI>
InChI=1S/C13H10Cl2FN5O3S/c1-2-24-13-17-9(16)6-10-18-12(19-21(10)13)25(22,23)20-11-7(14)4-3-5-8(11)15/h3-6,20H,2H2,1H3

> <STRUCTURE_InChIKey>
QNXAVFXEJCPCJO-UHFFFAOYSA-N

> <Substance_modify_yyyymmdd>
20080429

> <DSSTox_CID_Parent>
14528

> <ChemicalReplicateCount>
1

> <Coord_Metals>
0

> <Index>
97

> <Canonical_Smiles>
CCOc1nc(F)cc2nc(nn12)S(=O)(=O)Nc3c(Cl)cccc3Cl

> <Molecular_Weight>
406.2196

> <Frequency>
1

$$$$

  SciTegic          2D

 29 30  0  0  0  0            999 V2000
    4.1926   -2.4215    0.0000 O   0  0
    3.2283   -1.2715    0.0000 C   0  0
    1.7503   -1.5321    0.0000 C   0  0
    1.2372   -0.1226    0.0000 C   0  0
   -0.2400    0.1379    0.0000 C   0  0
   -1.2042   -1.0112    0.0000 C   0  0
   -0.6911   -2.4207    0.0000 C   0  0
    0.7861   -2.6812    0.0000 C   0  0
   -2.3859   -0.8028    0.0000 Cl  0  0
    3.7425    0.1385    0.0000 C   0  0
    5.2196   -0.1229    0.0000 C   0  0
    6.1845    1.0255    0.0000 C   0  0
    5.6723    2.4354    0.0000 C   0  0
    4.1953    2.6968    0.0000 C   0  0
    3.2304    1.5483    0.0000 C   0  0
    6.4442    3.3542    0.0000 Cl  0  0
    2.7066   -2.7098    0.0000 C   0  0
    3.4784   -3.6287    0.0000 Cl  0  0
    2.2969   -3.8377    0.0000 Cl  0  0
    1.5250   -2.9191    0.0000 Cl  0  0
    5.1776   -2.2487    0.0000 H   0  0
    1.8800    0.6435    0.0000 H   0  0
   -0.5820    1.0776    0.0000 H   0  0
   -1.3339   -3.1868    0.0000 H   0  0
    1.1281   -3.6209    0.0000 H   0  0
    5.5610   -1.0628    0.0000 H   0  0
    7.1692    0.8513    0.0000 H   0  0
    3.8538    3.6367    0.0000 H   0  0
    2.2457    1.7226    0.0000 H   0  0
  1  2  1  0
  2  3  1  0
  2 10  1  0
  2 17  1  0
  3  4  2  0
  3  8  1  0
  4  5  1  0
  5  6  2  0
  6  7  1  0
  6  9  1  0
  7  8  2  0
 10 11  2  0
 10 15  1  0
 11 12  1  0
 12 13  2  0
 13 14  1  0
 13 16  1  0
 14 15  2  0
 17 18  1  0
 17 19  1  0
 17 20  1  0
  1 21  1  0
  4 22  1  0
  5 23  1  0
  7 24  1  0
  8 25  1  0
 11 26  1  0
 12 27  1  0
 14 28  1  0
 15 29  1  0
M  END
> <DSSTox_RID>
40426

> <DSSTox_CID>
450

> <DSSTox_Generic_SID>
20450

> <DSSTox_FileID>
98_TOXCST_v3a

> <STRUCTURE_Formula>
C14H9Cl5O

> <STRUCTURE_MolecularWeight>
370.4857

> <STRUCTURE_ChemicalType>
defined organic

> <STRUCTURE_TestedForm_DefinedOrganic>
parent

> <STRUCTURE_Shown>
tested chemical

> <TestSubstance_ChemicalName>
Dicofol

> <Source_ChemicalName>
Dicofol

> <TestSubstance_CASRN>
115-32-2

> <TestSubstance_Description>
single chemical compound

> <STRUCTURE_ChemicalName_IUPAC>
2,2,2-trichloro-1,1-bis(4-chlorophenyl)ethanol

> <STRUCTURE_SMILES>
OC(C1=CC=C(C=C1)Cl)(C2=CC=C(C=C2)Cl)C(Cl)(Cl)Cl

> <STRUCTURE_Parent_SMILES>
OC(C1=CC=C(C=C1)Cl)(C2=CC=C(C=C2)Cl)C(Cl)(Cl)Cl

> <STRUCTURE_InChI>
InChI=1S/C14H9Cl5O/c15-11-5-1-9(2-6-11)13(20,14(17,18)19)10-3-7-12(16)8-4-10/h1-8,20H

> <STRUCTURE_InChIKey>
UOAMTSKGCBMZTC-UHFFFAOYSA-N

> <Substance_modify_yyyymmdd>
20080429

> <DSSTox_CID_Parent>
450

> <ChemicalReplicateCount>
1

> <Coord_Metals>
0

> <Index>
98

> <Canonical_Smiles>
OC(c1ccc(Cl)cc1)(c2ccc(Cl)cc2)C(Cl)(Cl)Cl

> <Molecular_Weight>
370.48566

> <Frequency>
1

$$$$

  SciTegic          2D

 31 30  0  0  0  0            999 V2000
    5.2000    0.0000    0.0000 C   0  0
    9.0999    0.7500    0.0000 P   0  0
    3.9000    0.7500    0.0000 C   0  0
    6.5000    0.7500    0.0000 C   0  0
    7.7999    0.0000    0.0000 O   0  0
    2.6000    0.0000    0.0000 N   0  0
   10.1388    0.1493    0.0000 O   0  0
    3.9000    1.9500    0.0000 O   0  0
    9.1014    2.2508    0.0000 O   0  0
    9.1011   -0.7800    0.0000 O   0  0
    6.5030    2.2508    0.0000 C   0  0
    1.3000    0.7500    0.0000 C   0  0
    2.6031   -1.5008    0.0000 C   0  0
   10.4013    3.0008    0.0000 C   0  0
   10.4010   -1.5301    0.0000 C   0  0
    5.2000   -1.0000    0.0000 H   0  0
    7.3698    2.7496    0.0000 H   0  0
    6.5046    3.2508    0.0000 H   0  0
    5.6379    2.7523    0.0000 H   0  0
    0.4338    0.2503    0.0000 H   0  0
    1.3000    1.7500    0.0000 H   0  0
    0.4340    1.2501    0.0000 H   0  0
    3.4698   -1.9996    0.0000 H   0  0
    1.7379   -2.0023    0.0000 H   0  0
    2.6046   -2.5008    0.0000 H   0  0
   10.4023    4.0008    0.0000 H   0  0
   11.2671    2.5003    0.0000 H   0  0
   11.2678    3.5001    0.0000 H   0  0
   10.4018   -2.5301    0.0000 H   0  0
   11.2674   -2.0296    0.0000 H   0  0
   11.2668   -1.0297    0.0000 H   0  0
  1  3  1  0
  1  4  2  0
  2  5  1  0
  2  7  2  0
  2  9  1  0
  2 10  1  0
  3  6  1  0
  3  8  2  0
  4  5  1  0
  4 11  1  0
  6 12  1  0
  6 13  1  0
  9 14  1  0
 10 15  1  0
  1 16  1  0
 11 17  1  0
 11 18  1  0
 11 19  1  0
 12 20  1  0
 12 21  1  0
 12 22  1  0
 13 23  1  0
 13 24  1  0
 13 25  1  0
 14 26  1  0
 14 27  1  0
 14 28  1  0
 15 29  1  0
 15 30  1  0
 15 31  1  0
M  END
> <DSSTox_RID>
40358

> <DSSTox_CID>
3914

> <DSSTox_Generic_SID>
23914

> <DSSTox_FileID>
99_TOXCST_v3a

> <STRUCTURE_Formula>
C8H16NO5P

> <STRUCTURE_MolecularWeight>
237.1901

> <STRUCTURE_ChemicalType>
defined organic

> <STRUCTURE_TestedForm_DefinedOrganic>
parent

> <STRUCTURE_Shown>
tested chemical

> <TestSubstance_ChemicalName>
Dicrotophos

> <Source_ChemicalName>
Dicrotophos

> <TestSubstance_CASRN>
141-66-2

> <TestSubstance_Description>
single chemical compound

> <ChemicalNote>
stereochem

> <STRUCTURE_ChemicalName_IUPAC>
(1E)-3-(dimethylamino)-1-methyl-3-oxoprop-1-en-1-yl dimethyl phosphate

> <STRUCTURE_SMILES>
O=P(OC(/C)=C/C(=O)N(C)C)(OC)OC

> <STRUCTURE_Parent_SMILES>
O=P(OC(/C)=C/C(=O)N(C)C)(OC)OC

> <STRUCTURE_InChI>
InChI=1S/C8H16NO5P/c1-7(6-8(10)9(2)3)14-15(11,12-4)13-5/h6H,1-5H3/b7-6+

> <STRUCTURE_InChIKey>
VEENJGZXVHKXNB-VOTSOKGWSA-N

> <Substance_modify_yyyymmdd>
20080429

> <DSSTox_CID_Parent>
3914

> <ChemicalReplicateCount>
1

> <Coord_Metals>
0

> <Index>
99

> <Canonical_Smiles>
COP(=O)(OC)OC(=CC(=O)N(C)C)C

> <Molecular_Weight>
237.1901

> <Frequency>
1

$$$$

  SciTegic          2D

 42 42  0  0  0  0            999 V2000
    6.4833   -9.7656    0.0000 C   0  0
    6.4855   -8.2648    0.0000 C   0  0
    5.1873   -7.5117    0.0000 C   0  0
    5.1894   -6.0109    0.0000 C   0  0
    3.8912   -5.2578    0.0000 C   0  0
    2.5902   -6.0059    0.0000 C   0  0
    1.2913   -5.2541    0.0000 C   0  0
    3.8933   -3.7570    0.0000 C   0  0
    2.5951   -3.0039    0.0000 O   0  0
    2.5973   -1.5031    0.0000 C   0  0
    3.6375   -0.9049    0.0000 O   0  0
    1.2990   -0.7500    0.0000 C   0  0
    1.2990    0.7500    0.0000 C   0  0
    0.0000    1.5000    0.0000 C   0  0
   -1.2990    0.7500    0.0000 C   0  0
   -1.2990   -0.7500    0.0000 C   0  0
    0.0000   -1.5000    0.0000 C   0  0
   -0.0031   -3.0008    0.0000 C   0  0
   -1.3039   -3.7494    0.0000 O   0  0
    1.0351   -3.6026    0.0000 O   0  0
    7.3483  -10.2674    0.0000 H   0  0
    5.6164  -10.2641    0.0000 H   0  0
    6.4814  -10.7656    0.0000 H   0  0
    7.3524   -7.7663    0.0000 H   0  0
    6.4874   -7.2648    0.0000 H   0  0
    4.3204   -8.0102    0.0000 H   0  0
    4.3220   -7.0104    0.0000 H   0  0
    6.0563   -5.5124    0.0000 H   0  0
    5.1913   -5.0109    0.0000 H   0  0
    4.7581   -4.7593    0.0000 H   0  0
    1.7235   -6.5048    0.0000 H   0  0
    2.5888   -7.0059    0.0000 H   0  0
    0.4244   -5.7526    0.0000 H   0  0
    0.4260   -4.7527    0.0000 H   0  0
    1.2927   -4.2541    0.0000 H   0  0
    3.8952   -2.7570    0.0000 H   0  0
    4.7602   -3.2585    0.0000 H   0  0
    2.1651    1.2500    0.0000 H   0  0
    0.0000    2.5000    0.0000 H   0  0
   -2.1651    1.2500    0.0000 H   0  0
   -2.1651   -1.2500    0.0000 H   0  0
   -1.3060   -4.7494    0.0000 H   0  0
  1  2  1  0
  2  3  1  0
  3  4  1  0
  4  5  1  0
  5  6  1  0
  5  8  1  0
  6  7  1  0
  8  9  1  0
  9 10  1  0
 10 11  2  0
 10 12  1  0
 12 13  2  0
 12 17  1  0
 13 14  1  0
 14 15  2  0
 15 16  1  0
 16 17  2  0
 17 18  1  0
 18 19  1  0
 18 20  2  0
  1 21  1  0
  1 22  1  0
  1 23  1  0
  2 24  1  0
  2 25  1  0
  3 26  1  0
  3 27  1  0
  4 28  1  0
  4 29  1  0
  5 30  1  0
  6 31  1  0
  6 32  1  0
  7 33  1  0
  7 34  1  0
  7 35  1  0
  8 36  1  0
  8 37  1  0
 13 38  1  0
 14 39  1  0
 15 40  1  0
 16 41  1  0
 19 42  1  0
M  END
> <DSSTox_RID>
40361

> <DSSTox_CID>
5680

> <DSSTox_Generic_SID>
25680

> <DSSTox_FileID>
100_TOXCST_v3a

> <STRUCTURE_Formula>
C16H22O4

> <STRUCTURE_MolecularWeight>
278.3435

> <STRUCTURE_ChemicalType>
defined organic

> <STRUCTURE_TestedForm_DefinedOrganic>
parent

> <STRUCTURE_Shown>
tested chemical

> <TestSubstance_ChemicalName>
Mono(2-ethylhexyl) phthalate

> <Source_ChemicalName>
Phthalic acid, mono-2-ethylhexyl ester

> <TestSubstance_CASRN>
4376-20-9

> <TestSubstance_Description>
single chemical compound

> <STRUCTURE_ChemicalName_IUPAC>
2-{[(2-ethylhexyl)oxy]carbonyl}benzoic acid

> <STRUCTURE_SMILES>
CCCCC(CC)COC(=O)c1ccccc1C(O)=O

> <STRUCTURE_Parent_SMILES>
CCCCC(CC)COC(=O)c1ccccc1C(O)=O

> <STRUCTURE_InChI>
InChI=1S/C16H22O4/c1-3-5-8-12(4-2)11-20-16(19)14-10-7-6-9-13(14)15(17)18/h6-7,9-10,12H,3-5,8,11H2,1-2H3,(H,17,18)

> <STRUCTURE_InChIKey>
DJDSLBVSSOQSLW-UHFFFAOYSA-N

> <Substance_modify_yyyymmdd>
20080429

> <DSSTox_CID_Parent>
5680

> <ChemicalReplicateCount>
1

> <Relationship_CID>
metabolite of parent0 607

> <Note_TOXCST>
changed to mono ester v2b

> <Coord_Metals>
0

> <Index>
100

> <Canonical_Smiles>
CCCCC(CC)COC(=O)c1ccccc1C(=O)O

> <Molecular_Weight>
278.34348

> <Frequency>
1

$$$$

  SciTegic          2D

 66 66  0  0  0  0            999 V2000
    3.6375   -0.9049    0.0000 O   0  0
    2.5973   -1.5031    0.0000 C   0  0
    1.2990   -0.7500    0.0000 C   0  0
    1.2990    0.7500    0.0000 C   0  0
    0.0000    1.5000    0.0000 C   0  0
   -1.2990    0.7500    0.0000 C   0  0
   -1.2990   -0.7500    0.0000 C   0  0
    0.0000   -1.5000    0.0000 C   0  0
    2.5972    1.5031    0.0000 C   0  0
    3.6375    0.9049    0.0000 O   0  0
    2.5951    3.0039    0.0000 O   0  0
    3.8933    3.7570    0.0000 C   0  0
    3.3780    5.1666    0.0000 C   0  0
    4.3403    6.3183    0.0000 C   0  0
    3.8250    7.7279    0.0000 C   0  0
    4.7873    8.8796    0.0000 C   0  0
    4.2720   10.2891    0.0000 C   0  0
    4.8856    4.9064    0.0000 C   0  0
    5.8469    6.0590    0.0000 C   0  0
    2.5951   -3.0039    0.0000 O   0  0
    3.8933   -3.7570    0.0000 C   0  0
    3.3780   -5.1666    0.0000 C   0  0
    4.3404   -6.3183    0.0000 C   0  0
    3.8250   -7.7278    0.0000 C   0  0
    4.7874   -8.8795    0.0000 C   0  0
    4.2721  -10.2891    0.0000 C   0  0
    4.8857   -4.9063    0.0000 C   0  0
    5.8469   -6.0589    0.0000 C   0  0
    0.0000    2.5000    0.0000 H   0  0
   -2.1651    1.2500    0.0000 H   0  0
   -2.1651   -1.2500    0.0000 H   0  0
    0.0000   -2.5000    0.0000 H   0  0
    4.7602    3.2585    0.0000 H   0  0
    3.8952    2.7570    0.0000 H   0  0
    2.3929    5.3385    0.0000 H   0  0
    4.6841    5.3792    0.0000 H   0  0
    5.3254    6.1464    0.0000 H   0  0
    3.1834    6.9608    0.0000 H   0  0
    2.8399    7.8998    0.0000 H   0  0
    5.1311    7.9405    0.0000 H   0  0
    5.7724    8.7076    0.0000 H   0  0
    4.9132   11.0565    0.0000 H   0  0
    3.9282   11.2282    0.0000 H   0  0
    3.2869   10.4611    0.0000 H   0  0
    5.2308    3.9678    0.0000 H   0  0
    4.2455    4.1381    0.0000 H   0  0
    6.8323    5.8889    0.0000 H   0  0
    5.5017    6.9975    0.0000 H   0  0
    6.4870    6.8273    0.0000 H   0  0
    4.7602   -3.2585    0.0000 H   0  0
    3.8952   -2.7570    0.0000 H   0  0
    2.3929   -5.3385    0.0000 H   0  0
    4.6842   -5.3792    0.0000 H   0  0
    5.3255   -6.1463    0.0000 H   0  0
    3.1835   -6.9608    0.0000 H   0  0
    2.8399   -7.8998    0.0000 H   0  0
    5.1312   -7.9405    0.0000 H   0  0
    5.7725   -8.7076    0.0000 H   0  0
    4.9133  -11.0565    0.0000 H   0  0
    3.9283  -11.2281    0.0000 H   0  0
    3.2870  -10.4610    0.0000 H   0  0
    5.2308   -3.9678    0.0000 H   0  0
    4.2455   -4.1381    0.0000 H   0  0
    6.8324   -5.8889    0.0000 H   0  0
    5.5018   -6.9975    0.0000 H   0  0
    6.4870   -6.8272    0.0000 H   0  0
  1  2  2  0
  2  3  1  0
  2 20  1  0
  3  4  2  0
  3  8  1  0
  4  5  1  0
  4  9  1  0
  5  6  2  0
  6  7  1  0
  7  8  2  0
  9 10  2  0
  9 11  1  0
 11 12  1  0
 12 13  1  0
 13 14  1  0
 13 18  1  0
 14 15  1  0
 15 16  1  0
 16 17  1  0
 18 19  1  0
 20 21  1  0
 21 22  1  0
 22 23  1  0
 22 27  1  0
 23 24  1  0
 24 25  1  0
 25 26  1  0
 27 28  1  0
  5 29  1  0
  6 30  1  0
  7 31  1  0
  8 32  1  0
 12 33  1  0
 12 34  1  0
 13 35  1  0
 14 36  1  0
 14 37  1  0
 15 38  1  0
 15 39  1  0
 16 40  1  0
 16 41  1  0
 17 42  1  0
 17 43  1  0
 17 44  1  0
 18 45  1  0
 18 46  1  0
 19 47  1  0
 19 48  1  0
 19 49  1  0
 21 50  1  0
 21 51  1  0
 22 52  1  0
 23 53  1  0
 23 54  1  0
 24 55  1  0
 24 56  1  0
 25 57  1  0
 25 58  1  0
 26 59  1  0
 26 60  1  0
 26 61  1  0
 27 62  1  0
 27 63  1  0
 28 64  1  0
 28 65  1  0
 28 66  1  0
M  END
> <DSSTox_RID>
40759

> <DSSTox_CID>
607

> <DSSTox_Generic_SID>
20607

> <DSSTox_FileID>
101_TOXCST_v3a

> <STRUCTURE_Formula>
C24H38O4

> <STRUCTURE_MolecularWeight>
390.5561

> <STRUCTURE_ChemicalType>
defined organic

> <STRUCTURE_TestedForm_DefinedOrganic>
parent

> <STRUCTURE_Shown>
tested chemical

> <TestSubstance_ChemicalName>
Di(2-ethylhexyl) phthalate

> <Source_ChemicalName>
Diethylhexyl phthalate

> <TestSubstance_CASRN>
117-81-7

> <TestSubstance_Description>
single chemical compound

> <STRUCTURE_ChemicalName_IUPAC>
bis(2-ethylhexyl) phthalate

> <STRUCTURE_SMILES>
O=C(C1=C(C=CC=C1)C(=O)OCC(CCCC)CC)OCC(CCCC)CC

> <STRUCTURE_Parent_SMILES>
O=C(C1=C(C=CC=C1)C(=O)OCC(CCCC)CC)OCC(CCCC)CC

> <STRUCTURE_InChI>
InChI=1S/C24H38O4/c1-5-9-13-19(7-3)17-27-23(25)21-15-11-12-16-22(21)24(26)28-18-20(8-4)14-10-6-2/h11-12,15-16,19-20H,5-10,13-14,17-18H2,1-4H3

> <STRUCTURE_InChIKey>
BJQHLKABXJIVAM-UHFFFAOYSA-N

> <Substance_modify_yyyymmdd>
20080429

> <DSSTox_CID_Parent>
607

> <ChemicalReplicateCount>
1

> <Relationship_CID>
parent0 of metabolite 5680

> <Coord_Metals>
0

> <Index>
101

> <Canonical_Smiles>
CCCCC(CC)COC(=O)c1ccccc1C(=O)OCC(CC)CCCC

> <Molecular_Weight>
390.55612

> <Frequency>
1

$$$$

  SciTegic          2D

 31 31  0  0  0  0            999 V2000
    6.4990   -0.7623    0.0000 C   0  0
    5.1972   -1.5092    0.0000 C   0  0
    3.8990   -0.7562    0.0000 N   0  0
    3.8995    0.7447    0.0000 C   0  0
    5.1990    1.4955    0.0000 C   0  0
    2.5973   -1.5031    0.0000 C   0  0
    2.5944   -2.7031    0.0000 O   0  0
    1.2990   -0.7500    0.0000 C   0  0
    1.2990    0.7500    0.0000 C   0  0
    0.0000    1.5000    0.0000 C   0  0
   -1.2990    0.7500    0.0000 C   0  0
   -1.2990   -0.7500    0.0000 C   0  0
   -2.5988   -1.5004    0.0000 C   0  0
    0.0000   -1.5000    0.0000 C   0  0
    7.3640   -1.2641    0.0000 H   0  0
    6.5014    0.2377    0.0000 H   0  0
    7.3661   -0.2642    0.0000 H   0  0
    5.1949   -2.5092    0.0000 H   0  0
    4.3301   -2.0073    0.0000 H   0  0
    3.0335    1.2447    0.0000 H   0  0
    3.0334    0.2448    0.0000 H   0  0
    5.1993    2.4955    0.0000 H   0  0
    6.0650    0.9955    0.0000 H   0  0
    6.0651    1.9954    0.0000 H   0  0
    2.1651    1.2500    0.0000 H   0  0
    0.0000    2.5000    0.0000 H   0  0
   -2.1651    1.2500    0.0000 H   0  0
   -3.4651   -1.0010    0.0000 H   0  0
   -2.5985   -2.5004    0.0000 H   0  0
   -3.4646   -2.0008    0.0000 H   0  0
    0.0000   -2.5000    0.0000 H   0  0
  1  2  1  0
  2  3  1  0
  3  4  1  0
  3  6  1  0
  4  5  1  0
  6  7  2  0
  6  8  1  0
  8  9  2  0
  8 14  1  0
  9 10  1  0
 10 11  2  0
 11 12  1  0
 12 13  1  0
 12 14  2  0
  1 15  1  0
  1 16  1  0
  1 17  1  0
  2 18  1  0
  2 19  1  0
  4 20  1  0
  4 21  1  0
  5 22  1  0
  5 23  1  0
  5 24  1  0
  9 25  1  0
 10 26  1  0
 11 27  1  0
 13 28  1  0
 13 29  1  0
 13 30  1  0
 14 31  1  0
M  END
> <DSSTox_RID>
40427

> <DSSTox_CID>
1995

> <DSSTox_Generic_SID>
21995

> <DSSTox_FileID>
102_TOXCST_v3a

> <STRUCTURE_Formula>
C12H17NO

> <STRUCTURE_MolecularWeight>
191.2695

> <STRUCTURE_ChemicalType>
defined organic

> <STRUCTURE_TestedForm_DefinedOrganic>
parent

> <STRUCTURE_Shown>
tested chemical

> <TestSubstance_ChemicalName>
N,N-Diethyl-3-methyl-benzamide

> <Source_ChemicalName>
Diethyltoluamide

> <TestSubstance_CASRN>
134-62-3

> <TestSubstance_Description>
single chemical compound

> <STRUCTURE_ChemicalName_IUPAC>
N,N-diethyl-3-methylbenzamide

> <STRUCTURE_SMILES>
CCN(CC)C(=O)C1=CC=CC(C)=C1

> <STRUCTURE_Parent_SMILES>
CCN(CC)C(=O)C1=CC=CC(C)=C1

> <STRUCTURE_InChI>
InChI=1S/C12H17NO/c1-4-13(5-2)12(14)11-8-6-7-10(3)9-11/h6-9H,4-5H2,1-3H3

> <STRUCTURE_InChIKey>
MMOXZBCLCQITDF-UHFFFAOYSA-N

> <Substance_modify_yyyymmdd>
20080429

> <DSSTox_CID_Parent>
1995

> <ChemicalReplicateCount>
1

> <Coord_Metals>
0

> <Index>
102

> <Canonical_Smiles>
CCN(CC)C(=O)c1cccc(C)c1

> <Molecular_Weight>
191.26947

> <Frequency>
1

$$$$

  SciTegic          2D

 44 47  0  0  0  0            999 V2000
    3.8951   -3.7545    0.0000 C   0  0
    3.8952   -5.2558    0.0000 C   0  0
    2.5955   -3.0038    0.0000 C   0  0
    1.2951   -3.7531    0.0000 N   0  0
    3.9969   -2.2946    0.0000 O   0  0
   -1.0603   -4.2447    0.0000 N   0  0
    5.2103   -4.3965    0.0000 O   0  0
    5.1930   -6.0080    0.0000 C   0  0
    1.1561   -5.2338    0.0000 N   0  0
   -0.3114   -5.5444    0.0000 C   0  0
   -0.0556   -3.1308    0.0000 C   0  0
    5.1904   -7.5080    0.0000 C   0  0
    2.5949   -6.0035    0.0000 C   0  0
    3.8900   -8.2558    0.0000 C   0  0
    3.8843   -9.7566    0.0000 O   0  0
    6.2140   -3.2819    0.0000 C   0  0
    6.2332   -5.4098    0.0000 Cl  0  0
    5.4641   -1.9828    0.0000 C   0  0
    2.5923   -7.5035    0.0000 C   0  0
    2.5822  -10.5029    0.0000 C   0  0
   -0.0237  -11.9894    0.0000 C   0  0
   -1.0661  -12.5840    0.0000 Cl  0  0
    2.5743  -12.0029    0.0000 C   0  0
    1.2870   -9.7462    0.0000 C   0  0
    1.2714  -12.7461    0.0000 C   0  0
   -0.0159  -10.4894    0.0000 C   0  0
    4.5708   -0.7935    0.0000 C   0  0
    1.7299   -2.5032    0.0000 H   0  0
    2.5961   -2.0038    0.0000 H   0  0
   -0.7190   -6.4576    0.0000 H   0  0
   -0.2569   -2.1513    0.0000 H   0  0
    6.0555   -8.0095    0.0000 H   0  0
    1.7297   -5.5020    0.0000 H   0  0
    6.7897   -2.4642    0.0000 H   0  0
    6.6071   -4.2014    0.0000 H   0  0
    6.4602   -1.8941    0.0000 H   0  0
    1.7254   -8.0020    0.0000 H   0  0
    3.4377  -12.5074    0.0000 H   0  0
    1.2922   -8.7462    0.0000 H   0  0
    1.2662  -13.7461    0.0000 H   0  0
   -0.8793   -9.9849    0.0000 H   0  0
    3.5762   -0.8975    0.0000 H   0  0
    3.9832    0.0157    0.0000 H   0  0
    4.9776    0.1200    0.0000 H   0  0
  1  2  1  0
  1  3  1  0
  1  5  1  0
  1  7  1  0
  2  8  2  0
  2 13  1  0
  3  4  1  0
  4  9  1  0
  4 11  1  0
  5 18  1  0
  6 11  2  0
  6 10  1  0
  7 16  1  0
  8 12  1  0
  8 17  1  0
  9 10  2  0
 12 14  2  0
 13 19  2  0
 14 19  1  0
 14 15  1  0
 15 20  1  0
 16 18  1  0
 18 27  1  0
 20 23  1  0
 20 24  2  0
 21 25  1  0
 21 22  1  0
 21 26  2  0
 23 25  2  0
 24 26  1  0
  3 28  1  0
  3 29  1  0
 10 30  1  0
 11 31  1  0
 12 32  1  0
 13 33  1  0
 16 34  1  0
 16 35  1  0
 18 36  1  0
 19 37  1  0
 23 38  1  0
 24 39  1  0
 25 40  1  0
 26 41  1  0
 27 42  1  0
 27 43  1  0
 27 44  1  0
M  END
> <DSSTox_RID>
40428

> <DSSTox_CID>
12372

> <DSSTox_Generic_SID>
32372

> <DSSTox_FileID>
103_TOXCST_v3a

> <STRUCTURE_Formula>
C19H17Cl2N3O3

> <STRUCTURE_MolecularWeight>
406.2626

> <STRUCTURE_ChemicalType>
defined organic

> <STRUCTURE_TestedForm_DefinedOrganic>
parent

> <STRUCTURE_Shown>
tested chemical

> <TestSubstance_ChemicalName>
Difenoconazole

> <Source_ChemicalName>
Difenoconazole

> <TestSubstance_CASRN>
119446-68-3

> <TestSubstance_Description>
single chemical compound

> <ChemicalNote>
mixture of stereoisomers [(2S,4R)/(2R,4S)]/[2R,4R/2S,4S)] (cis/trans) approx. 0.7 to1.5; structure shown without stereochem

> <STRUCTURE_ChemicalName_IUPAC>
1-({2-[2-chloro-4-(4-chlorophenoxy)phenyl]-4-methyl-1,3-dioxolan-2-yl}methyl)-1H-1,2,4-triazole

> <STRUCTURE_SMILES>
ClC(C=C(OC4=CC=C(Cl)C=C4)C=C3)=C3C2(OC(C)CO2)CN1N=CN=C1

> <STRUCTURE_Parent_SMILES>
ClC(C=C(OC4=CC=C(Cl)C=C4)C=C3)=C3C2(OC(C)CO2)CN1N=CN=C1

> <STRUCTURE_InChI>
InChI=1S/C19H17Cl2N3O3/c1-13-9-25-19(27-13,10-24-12-22-11-23-24)17-7-6-16(8-18(17)21)26-15-4-2-14(20)3-5-15/h2-8,11-13H,9-10H2,1H3

> <STRUCTURE_InChIKey>
BQYJATMQXGBDHF-UHFFFAOYSA-N

> <Substance_modify_yyyymmdd>
20080429

> <DSSTox_CID_Parent>
12372

> <ChemicalReplicateCount>
1

> <Coord_Metals>
0

> <Index>
103

> <Canonical_Smiles>
CC1COC(Cn2cncn2)(O1)c3ccc(Oc4ccc(Cl)cc4)cc3Cl

> <Molecular_Weight>
406.26258

> <Frequency>
1

$$$$

  SciTegic          2D

 36 38  0  0  0  0            999 V2000
    3.9511   -0.8815    0.0000 N   0  3
    4.9531   -1.9978    0.0000 N   0  0
    2.7343   -2.9815    0.0000 C   0  0
    4.2010   -3.2956    0.0000 C   0  0
    2.5987   -1.5004    0.0000 C   0  0
    6.4433   -1.8436    0.0000 C   0  0
    4.2537    0.5858    0.0000 C   0  0
    1.2990   -0.7500    0.0000 C   0  0
    1.2990    0.7500    0.0000 C   0  0
    0.0000   -1.5000    0.0000 C   0  0
    0.0000    1.5000    0.0000 C   0  0
   -1.2990   -0.7500    0.0000 C   0  0
   -1.2990    0.7500    0.0000 C   0  0
    4.8092   -4.6676    0.0000 C   0  0
    6.2798   -4.9368    0.0000 C   0  0
    3.8322   -5.8080    0.0000 C   0  0
    6.7829   -6.3499    0.0000 C   0  0
    4.3352   -7.2212    0.0000 C   0  0
    5.8106   -7.4921    0.0000 C   0  0
    1.9861   -3.6450    0.0000 H   0  0
    6.8521   -0.9309    0.0000 H   0  0
    7.0296   -2.6537    0.0000 H   0  0
    7.4381   -1.7411    0.0000 H   0  0
    5.2026    0.9013    0.0000 H   0  0
    3.5063    1.2501    0.0000 H   0  0
    4.4551    1.5653    0.0000 H   0  0
    2.1651    1.2500    0.0000 H   0  0
    0.0000   -2.5000    0.0000 H   0  0
    0.0000    2.5000    0.0000 H   0  0
   -2.1651   -1.2500    0.0000 H   0  0
   -2.1651    1.2500    0.0000 H   0  0
    6.9278   -4.1751    0.0000 H   0  0
    2.8489   -5.6259    0.0000 H   0  0
    7.7664   -6.5305    0.0000 H   0  0
    3.6870   -7.9827    0.0000 H   0  0
    6.1459   -8.4342    0.0000 H   0  0
  1  2  1  0
  1  5  2  0
  1  7  1  0
  2  4  1  0
  2  6  1  0
  3  4  2  0
  3  5  1  0
  4 14  1  0
  5  8  1  0
  8  9  2  0
  8 10  1  0
  9 11  1  0
 10 12  2  0
 11 13  2  0
 12 13  1  0
 14 15  2  0
 14 16  1  0
 15 17  1  0
 16 18  2  0
 17 19  2  0
 18 19  1  0
  3 20  1  0
  6 21  1  0
  6 22  1  0
  6 23  1  0
  7 24  1  0
  7 25  1  0
  7 26  1  0
  9 27  1  0
 10 28  1  0
 11 29  1  0
 12 30  1  0
 13 31  1  0
 15 32  1  0
 16 33  1  0
 17 34  1  0
 18 35  1  0
 19 36  1  0
M  CHG  1   1   1
M  END
> <DSSTox_RID>
40429

> <DSSTox_CID>
4048

> <DSSTox_Generic_SID>
24048

> <DSSTox_FileID>
104_TOXCST_v3a

> <STRUCTURE_Formula>
C18H20N2O4S

> <STRUCTURE_MolecularWeight>
360.4274

> <STRUCTURE_ChemicalType>
defined organic

> <STRUCTURE_TestedForm_DefinedOrganic>
complex methyl sulfate (CH3O4S)

> <STRUCTURE_Shown>
tested chemical

> <TestSubstance_ChemicalName>
Difenzoquat metilsulfate

> <Source_ChemicalName>
Difenzoquat metilsulfate

> <TestSubstance_CASRN>
43222-48-6

> <TestSubstance_Description>
single chemical compound

> <ChemicalNote>
ammonium; parent [49866-87-7]

> <STRUCTURE_ChemicalName_IUPAC>
1,2-dimethyl-3,5-diphenyl-1H-pyrazol-2-ium methyl sulfate

> <STRUCTURE_SMILES>
C[N+]1=C(C2=CC=CC=C2)C=C(C3=CC=CC=C3)N1C.O=S([O-])(OC)=O

> <STRUCTURE_Parent_SMILES>
CN1[N+](C)=C(C3=CC=CC=C3)C=C1C2=CC=CC=C2

> <STRUCTURE_InChI>
InChI=1S/C17H17N2.CH4O4S/c1-18-16(14-9-5-3-6-10-14)13-17(19(18)2)15-11-7-4-8-12-15;1-5-6(2,3)4/h3-13H,1-2H3;1H3,(H,2,3,4)/q+1;/p-1

> <STRUCTURE_InChIKey>
XQEMNBNCQVQXMO-UHFFFAOYSA-M

> <Substance_modify_yyyymmdd>
20080429

> <DSSTox_CID_Parent>
23965

> <ChemicalReplicateCount>
1

> <Coord_Metals>
0

> <Index>
104

> <Canonical_Smiles>
C[n+]1c(cc(c2ccccc2)n1C)c3ccccc3

> <Molecular_Weight>
249.33027

> <Frequency>
1

$$$$

  SciTegic          2D

 35 35  0  0  0  0            999 V2000
   -2.6978    2.7886    0.0000 C   0  0
   -1.8022    3.5873    0.0000 O   0  0
   -3.8757    3.7186    0.0000 C   0  0
   -2.3923    1.3192    0.0000 N   0  0
   -4.9909    3.2754    0.0000 Cl  0  0
    0.7500   -1.0323    0.0000 S   0  0
    1.2135    0.3943    0.0000 C   0  0
   -0.7500   -1.0323    0.0000 C   0  0
   -1.2135    0.3943    0.0000 C   0  0
    0.0000    1.2760    0.0000 C   0  0
   -1.6306   -2.2444    0.0000 C   0  0
    0.0000    2.7742    0.0000 C   0  0
   -3.7853    0.7607    0.0000 C   0  0
   -4.9661    1.6872    0.0000 C   0  0
   -6.3591    1.1287    0.0000 O   0  0
   -7.5399    2.0552    0.0000 C   0  0
   -3.9977   -0.7249    0.0000 C   0  0
   -4.6603    4.3386    0.0000 H   0  0
   -3.7312    4.7081    0.0000 H   0  0
    2.1646    0.7033    0.0000 H   0  0
   -1.2245   -3.1582    0.0000 H   0  0
   -2.6251   -2.1396    0.0000 H   0  0
   -2.2188   -3.0531    0.0000 H   0  0
    0.8657    3.2748    0.0000 H   0  0
   -0.8662    3.2739    0.0000 H   0  0
   -0.0005    3.7742    0.0000 H   0  0
   -3.6438    1.7506    0.0000 H   0  0
   -4.8245    2.6771    0.0000 H   0  0
   -5.7525    2.3048    0.0000 H   0  0
   -8.4681    1.6831    0.0000 H   0  0
   -7.3983    3.0451    0.0000 H   0  0
   -8.3263    2.6728    0.0000 H   0  0
   -3.2116   -1.3430    0.0000 H   0  0
   -4.9259   -1.0970    0.0000 H   0  0
   -4.1397   -1.7148    0.0000 H   0  0
  1  2  2  0
  1  4  1  0
  1  3  1  0
  3  5  1  0
  4  9  1  0
  4 13  1  0
  6  7  1  0
  6  8  1  0
  7 10  2  0
  8  9  2  0
  8 11  1  0
  9 10  1  0
 10 12  1  0
 13 14  1  0
 13 17  1  0
 14 15  1  0
 15 16  1  0
  3 18  1  0
  3 19  1  0
  7 20  1  0
 11 21  1  0
 11 22  1  0
 11 23  1  0
 12 24  1  0
 12 25  1  0
 12 26  1  0
 13 27  1  0
 14 28  1  0
 14 29  1  0
 16 30  1  0
 16 31  1  0
 16 32  1  0
 17 33  1  0
 17 34  1  0
 17 35  1  0
M  END
> <DSSTox_RID>
40430

> <DSSTox_CID>
12376

> <DSSTox_Generic_SID>
32376

> <DSSTox_FileID>
105_TOXCST_v3a

> <STRUCTURE_Formula>
C12H18ClNO2S

> <STRUCTURE_MolecularWeight>
275.7948

> <STRUCTURE_ChemicalType>
defined organic

> <STRUCTURE_TestedForm_DefinedOrganic>
parent

> <STRUCTURE_Shown>
tested chemical

> <TestSubstance_ChemicalName>
Dimethenamid

> <Source_ChemicalName>
Dimethenamid

> <TestSubstance_CASRN>
87674-68-8

> <TestSubstance_Description>
single chemical compound

> <ChemicalNote>
mixture of (R,S) isomers; structure shown without stereochem

> <STRUCTURE_ChemicalName_IUPAC>
2-chloro-N-(2,4-dimethyl-3-thienyl)-N-(2-methoxy-1-methylethyl)acetamide

> <STRUCTURE_SMILES>
O=C(CCl)N(C(C)COC)C1=C(C)SC=C1C

> <STRUCTURE_Parent_SMILES>
O=C(CCl)N(C(C)COC)C1=C(C)SC=C1C

> <STRUCTURE_InChI>
InChI=1S/C12H18ClNO2S/c1-8-7-17-10(3)12(8)14(11(15)5-13)9(2)6-16-4/h7,9H,5-6H2,1-4H3

> <STRUCTURE_InChIKey>
JLYFCTQDENRSOL-UHFFFAOYSA-N

> <Substance_modify_yyyymmdd>
20080429

> <DSSTox_CID_Parent>
12376

> <ChemicalReplicateCount>
1

> <Coord_Metals>
0

> <Index>
105

> <Canonical_Smiles>
COCC(C)N(C(=O)CCl)c1c(C)csc1C

> <Molecular_Weight>
275.79482

> <Frequency>
1

$$$$

  SciTegic          2D

 24 23  0  0  0  0            999 V2000
    7.7999   -1.2000    0.0000 S   0  0
    7.7999    0.0000    0.0000 P   0  0
    6.5000    0.7500    0.0000 S   0  0
    6.4985    2.2508    0.0000 C   0  0
    5.1985    3.0008    0.0000 C   0  0
    4.1597    2.4002    0.0000 O   0  0
    5.1971    4.5016    0.0000 N   0  0
    3.8971    5.2516    0.0000 C   0  0
    9.0999    0.7500    0.0000 O   0  0
   10.3999    0.0000    0.0000 C   0  0
    6.4760   -0.7669    0.0000 O   0  0
    6.4773   -2.2677    0.0000 C   0  0
    7.3649    1.7515    0.0000 H   0  0
    7.3642    2.7514    0.0000 H   0  0
    6.0628    5.0022    0.0000 H   0  0
    3.8962    6.2516    0.0000 H   0  0
    3.0314    4.7511    0.0000 H   0  0
    3.0307    5.7510    0.0000 H   0  0
   11.2661    0.4997    0.0000 H   0  0
   10.3999   -1.0000    0.0000 H   0  0
   11.2659   -0.5001    0.0000 H   0  0
    5.6120   -2.7689    0.0000 H   0  0
    6.4785   -3.2677    0.0000 H   0  0
    7.3438   -2.7667    0.0000 H   0  0
  1  2  2  0
  2  3  1  0
  2  9  1  0
  2 11  1  0
  3  4  1  0
  4  5  1  0
  5  6  2  0
  5  7  1  0
  7  8  1  0
  9 10  1  0
 11 12  1  0
  4 13  1  0
  4 14  1  0
  7 15  1  0
  8 16  1  0
  8 17  1  0
  8 18  1  0
 10 19  1  0
 10 20  1  0
 10 21  1  0
 12 22  1  0
 12 23  1  0
 12 24  1  0
M  END
> <DSSTox_RID>
40431

> <DSSTox_CID>
479

> <DSSTox_Generic_SID>
20479

> <DSSTox_FileID>
106_TOXCST_v3a

> <STRUCTURE_Formula>
C5H12NO3PS2

> <STRUCTURE_MolecularWeight>
229.2574

> <STRUCTURE_ChemicalType>
defined organic

> <STRUCTURE_TestedForm_DefinedOrganic>
parent

> <STRUCTURE_Shown>
tested chemical

> <TestSubstance_ChemicalName>
Dimethoate

> <Source_ChemicalName>
Dimethoate

> <TestSubstance_CASRN>
60-51-5

> <TestSubstance_Description>
single chemical compound

> <STRUCTURE_ChemicalName_IUPAC>
O,O-dimethyl S-[2-(methylamino)-2-oxoethyl] dithiophosphate

> <STRUCTURE_SMILES>
S=P(SCC(=O)NC)(OC)OC

> <STRUCTURE_Parent_SMILES>
S=P(SCC(=O)NC)(OC)OC

> <STRUCTURE_InChI>
InChI=1S/C5H12NO3PS2/c1-6-5(7)4-12-10(11,8-2)9-3/h4H2,1-3H3,(H,6,7)

> <STRUCTURE_InChIKey>
MCWXGJITAZMZEV-UHFFFAOYSA-N

> <Substance_modify_yyyymmdd>
20080429

> <DSSTox_CID_Parent>
479

> <ChemicalReplicateCount>
1

> <Coord_Metals>
0

> <Index>
106

> <Canonical_Smiles>
CNC(=O)CSP(=S)(OC)OC

> <Molecular_Weight>
229.25744

> <Frequency>
1

$$$$

  SciTegic          2D

 49 51  0  0  0  0            999 V2000
    1.2990   -0.7500    0.0000 N   0  0
   -1.2990    0.7500    0.0000 O   0  0
    1.2990    0.7500    0.0000 C   0  0
    0.0000   -1.5000    0.0000 C   0  0
    0.0000    1.5000    0.0000 C   0  0
    2.5973   -1.5031    0.0000 C   0  0
    2.5951   -3.0039    0.0000 C   0  0
    3.8933   -3.7570    0.0000 C   0  0
    3.8912   -5.2578    0.0000 C   0  0
    5.1876   -6.0124    0.0000 C   0  0
    2.5895   -6.0034    0.0000 C   0  0
    5.1824   -7.5124    0.0000 C   0  0
    2.5844   -7.5034    0.0000 C   0  0
    3.8808   -8.2579    0.0000 C   0  0
    3.8767   -9.4579    0.0000 Cl  0  0
    5.1943   -3.0089    0.0000 C   0  0
    6.4932   -3.7593    0.0000 C   0  0
    5.1950   -1.5088    0.0000 C   0  0
    7.7925   -3.0098    0.0000 C   0  0
    6.4943   -0.7593    0.0000 C   0  0
    7.7931   -1.5098    0.0000 C   0  0
    9.0935   -3.7580    0.0000 O   0  0
   10.3925   -3.0063    0.0000 C   0  0
    9.0916   -0.7572    0.0000 O   0  0
    9.0900    0.7436    0.0000 C   0  0
    3.6375   -0.9049    0.0000 O   0  0
   -1.2990   -0.7500    0.0000 C   0  0
    1.2754    1.7497    0.0000 H   0  0
    2.1531    0.2298    0.0000 H   0  0
   -0.8776   -1.9794    0.0000 H   0  0
    0.8775   -1.9795    0.0000 H   0  0
    0.8776    1.9794    0.0000 H   0  0
   -0.8775    1.9795    0.0000 H   0  0
    1.7282   -3.5024    0.0000 H   0  0
    6.0554   -5.5154    0.0000 H   0  0
    1.7252   -5.5004    0.0000 H   0  0
    6.0467   -8.0154    0.0000 H   0  0
    1.7166   -8.0004    0.0000 H   0  0
    6.4929   -4.7593    0.0000 H   0  0
    4.3292   -1.0085    0.0000 H   0  0
    6.4947    0.2407    0.0000 H   0  0
   11.2594   -3.5048    0.0000 H   0  0
   10.3911   -2.0063    0.0000 H   0  0
   11.2578   -2.5049    0.0000 H   0  0
    9.9552    1.2451    0.0000 H   0  0
    8.2233    1.2424    0.0000 H   0  0
    9.0885    1.7436    0.0000 H   0  0
   -1.2754   -1.7497    0.0000 H   0  0
   -2.1531   -0.2298    0.0000 H   0  0
  1  3  1  0
  1  4  1  0
  1  6  1  0
  2  5  1  0
  2 27  1  0
  3  5  1  0
  4 27  1  0
  7  6  1  0
  6 26  2  0
  7  8  2  0
  8  9  1  0
  8 16  1  0
  9 10  2  0
  9 11  1  0
 10 12  1  0
 11 13  2  0
 12 14  2  0
 13 14  1  0
 14 15  1  0
 16 17  2  0
 16 18  1  0
 17 19  1  0
 18 20  2  0
 19 21  2  0
 19 22  1  0
 20 21  1  0
 21 24  1  0
 22 23  1  0
 24 25  1  0
  3 28  1  0
  3 29  1  0
  4 30  1  0
  4 31  1  0
  5 32  1  0
  5 33  1  0
  7 34  1  0
 10 35  1  0
 11 36  1  0
 12 37  1  0
 13 38  1  0
 17 39  1  0
 18 40  1  0
 20 41  1  0
 23 42  1  0
 23 43  1  0
 23 44  1  0
 25 45  1  0
 25 46  1  0
 25 47  1  0
 27 48  1  0
 27 49  1  0
M  END
> <DSSTox_RID>
40432

> <DSSTox_CID>
14545

> <DSSTox_Generic_SID>
34545

> <DSSTox_FileID>
107_TOXCST_v3a

> <STRUCTURE_Formula>
C21H22ClNO4

> <STRUCTURE_MolecularWeight>
387.8567

> <STRUCTURE_ChemicalType>
defined organic

> <STRUCTURE_TestedForm_DefinedOrganic>
parent

> <STRUCTURE_Shown>
representative isomer in mixture

> <TestSubstance_ChemicalName>
Dimethomorph

> <Source_ChemicalName>
Dimethomorph

> <TestSubstance_CASRN>
110488-70-5

> <TestSubstance_Description>
mixture or formulation

> <ChemicalNote>
mixture of Z,E isomers structure shown E, stereochem

> <STRUCTURE_ChemicalName_IUPAC>
4-[(2E)-3-(4-chlorophenyl)-3-(3,4-dimethoxyphenyl)prop-2-enoyl]morpholine

> <STRUCTURE_SMILES>
ClC2=CC=C(C=C2)/C(C3=CC(OC)=C(OC)C=C3)=C\C(N1CCOCC1)=O

> <STRUCTURE_Parent_SMILES>
ClC2=CC=C(C=C2)/C(C3=CC(OC)=C(OC)C=C3)=C\C(N1CCOCC1)=O

> <STRUCTURE_InChI>
InChI=1S/C21H22ClNO4/c1-25-19-8-5-16(13-20(19)26-2)18(15-3-6-17(22)7-4-15)14-21(24)23-9-11-27-12-10-23/h3-8,13-14H,9-12H2,1-2H3/b18-14+

> <STRUCTURE_InChIKey>
QNBTYORWCCMPQP-NBVRZTHBSA-N

> <Substance_modify_yyyymmdd>
20080429

> <DSSTox_CID_Parent>
14545

> <ChemicalReplicateCount>
1

> <Coord_Metals>
0

> <Index>
107

> <Canonical_Smiles>
COc1ccc(cc1OC)C(=CC(=O)N2CCOCC2)c3ccc(Cl)cc3

> <Molecular_Weight>
387.85668

> <Frequency>
1

$$$$

  SciTegic          2D

 24 24  0  0  0  0            999 V2000
    1.2990   -0.7500    0.0000 C   0  0
    1.2990    0.7500    0.0000 C   0  0
    2.5972    1.5031    0.0000 C   0  0
    3.6375    0.9049    0.0000 O   0  0
    2.5951    3.0039    0.0000 O   0  0
    3.8933    3.7570    0.0000 C   0  0
    0.0000    1.5000    0.0000 C   0  0
   -1.2990    0.7500    0.0000 C   0  0
   -1.2990   -0.7500    0.0000 C   0  0
    0.0000   -1.5000    0.0000 C   0  0
    2.5973   -1.5031    0.0000 C   0  0
    3.6375   -0.9049    0.0000 O   0  0
    2.5951   -3.0039    0.0000 O   0  0
    3.8933   -3.7570    0.0000 C   0  0
    3.8919    4.7570    0.0000 H   0  0
    4.7585    4.2584    0.0000 H   0  0
    4.7602    3.2585    0.0000 H   0  0
    0.0000    2.5000    0.0000 H   0  0
   -2.1651    1.2500    0.0000 H   0  0
   -2.1651   -1.2500    0.0000 H   0  0
    0.0000   -2.5000    0.0000 H   0  0
    3.8919   -4.7570    0.0000 H   0  0
    4.7586   -4.2584    0.0000 H   0  0
    4.7602   -3.2585    0.0000 H   0  0
  1  2  2  0
  1 10  1  0
  1 11  1  0
  2  3  1  0
  2  7  1  0
  3  4  2  0
  3  5  1  0
  5  6  1  0
  7  8  2  0
  8  9  1  0
  9 10  2  0
 11 12  2  0
 11 13  1  0
 13 14  1  0
  6 15  1  0
  6 16  1  0
  6 17  1  0
  7 18  1  0
  8 19  1  0
  9 20  1  0
 10 21  1  0
 14 22  1  0
 14 23  1  0
 14 24  1  0
M  END
> <DSSTox_RID>
40433

> <DSSTox_CID>
2455

> <DSSTox_Generic_SID>
22455

> <DSSTox_FileID>
108_TOXCST_v3a

> <STRUCTURE_Formula>
C10H10O4

> <STRUCTURE_MolecularWeight>
194.184

> <STRUCTURE_ChemicalType>
defined organic

> <STRUCTURE_TestedForm_DefinedOrganic>
parent

> <STRUCTURE_Shown>
tested chemical

> <TestSubstance_ChemicalName>
Dimethyl phthalate

> <Source_ChemicalName>
Dimethyl phthalate

> <TestSubstance_CASRN>
131-11-3

> <TestSubstance_Description>
single chemical compound

> <STRUCTURE_ChemicalName_IUPAC>
dimethyl phthalate

> <STRUCTURE_SMILES>
C1(=C(C(=O)OC)C=CC=C1)C(=O)OC

> <STRUCTURE_Parent_SMILES>
C1(=C(C(=O)OC)C=CC=C1)C(=O)OC

> <STRUCTURE_InChI>
InChI=1S/C10H10O4/c1-13-9(11)7-5-3-4-6-8(7)10(12)14-2/h3-6H,1-2H3

> <STRUCTURE_InChIKey>
NIQCNGHVCWTJSM-UHFFFAOYSA-N

> <Substance_modify_yyyymmdd>
20080429

> <DSSTox_CID_Parent>
2455

> <ChemicalReplicateCount>
1

> <Relationship_CID>
parent0 of metabolite 20001

> <Coord_Metals>
0

> <Index>
108

> <Canonical_Smiles>
COC(=O)c1ccccc1C(=O)OC

> <Molecular_Weight>
194.18399

> <Frequency>
1

$$$$

  SciTegic          2D

 38 39  0  0  0  0            999 V2000
    4.7026   -2.7965    0.0000 N   0  0
    6.1849   -2.6746    0.0000 N   0  0
    6.7472   -4.0652    0.0000 C   0  0
    5.5985   -5.0298    0.0000 N   0  0
    4.3262   -4.2353    0.0000 C   0  0
    4.2548   -0.2350    0.0000 C   0  0
    3.7402   -1.6448    0.0000 C   0  0
    3.2908    0.9153    0.0000 O   0  0
    2.2615   -1.9016    0.0000 C   0  0
    1.2990   -0.7500    0.0000 C   0  0
    1.2990    0.7500    0.0000 C   0  0
    0.0000   -1.5000    0.0000 C   0  0
    0.0000    1.5000    0.0000 C   0  0
   -1.2990   -0.7500    0.0000 C   0  0
   -1.2990    0.7500    0.0000 C   0  0
    2.3383    1.3500    0.0000 Cl  0  0
   -2.3383    1.3500    0.0000 Cl  0  0
    5.7332    0.0237    0.0000 C   0  0
    6.2492    1.4330    0.0000 C   0  0
    4.7538    1.1991    0.0000 C   0  0
    6.6960   -1.1275    0.0000 C   0  0
    7.7176   -4.3068    0.0000 H   0  0
    3.3969   -4.6047    0.0000 H   0  0
    3.2699   -0.4079    0.0000 H   0  0
    2.3058    0.7429    0.0000 H   0  0
    1.9173   -2.8405    0.0000 H   0  0
    0.0000   -2.5000    0.0000 H   0  0
    0.0000    2.5000    0.0000 H   0  0
   -2.1651   -1.2500    0.0000 H   0  0
    7.2342    1.6054    0.0000 H   0  0
    5.6076    2.2001    0.0000 H   0  0
    6.5925    2.3723    0.0000 H   0  0
    5.0985    2.1378    0.0000 H   0  0
    3.7684    1.0285    0.0000 H   0  0
    4.1133    1.9671    0.0000 H   0  0
    7.6812   -0.9560    0.0000 H   0  0
    6.3522   -2.0665    0.0000 H   0  0
    7.3372   -1.8948    0.0000 H   0  0
  1  2  1  0
  1  5  1  0
  1  7  1  0
  2  3  2  0
  3  4  1  0
  4  5  2  0
  6  7  1  0
  6  8  1  0
  6 18  1  0
  7  9  2  0
  9 10  1  0
 10 11  2  0
 10 12  1  0
 11 13  1  0
 11 16  1  0
 12 14  2  0
 13 15  2  0
 14 15  1  0
 15 17  1  0
 18 19  1  0
 18 20  1  0
 18 21  1  0
  3 22  1  0
  5 23  1  0
  6 24  1  0
  8 25  1  0
  9 26  1  0
 12 27  1  0
 13 28  1  0
 14 29  1  0
 19 30  1  0
 19 31  1  0
 19 32  1  0
 20 33  1  0
 20 34  1  0
 20 35  1  0
 21 36  1  0
 21 37  1  0
 21 38  1  0
M  END
> <DSSTox_RID>
40434

> <DSSTox_CID>
20363

> <DSSTox_Generic_SID>
40363

> <DSSTox_FileID>
109_TOXCST_v3a

> <STRUCTURE_Formula>
C15H17Cl2N3O

> <STRUCTURE_MolecularWeight>
326.221

> <STRUCTURE_ChemicalType>
defined organic

> <STRUCTURE_TestedForm_DefinedOrganic>
parent

> <STRUCTURE_Shown>
tested chemical

> <TestSubstance_ChemicalName>
Diniconazole

> <Source_ChemicalName>
Diniconazole

> <TestSubstance_CASRN>
83657-24-3

> <TestSubstance_Description>
single chemical compound

> <STRUCTURE_ChemicalName_IUPAC>
(1E)-1-(2,4-dichlorophenyl)-4,4-dimethyl-2-(1H-1,2,4-triazol-1-yl)pent-1-en-3-ol

> <STRUCTURE_SMILES>
OC(C(C)(C)C)/C(N2N=CN=C2)=C\C1=C(Cl)C=C(Cl)C=C1

> <STRUCTURE_Parent_SMILES>
OC(C(C)(C)C)/C(N2N=CN=C2)=C\C1=C(Cl)C=C(Cl)C=C1

> <STRUCTURE_InChI>
InChI=1S/C15H17Cl2N3O/c1-15(2,3)14(21)13(20-9-18-8-19-20)6-10-4-5-11(16)7-12(10)17/h4-9,14,21H,1-3H3/b13-6+

> <STRUCTURE_InChIKey>
FBOUIAKEJMZPQG-AWNIVKPZSA-N

> <Substance_modify_yyyymmdd>
20080429

> <DSSTox_CID_Parent>
20363

> <ChemicalReplicateCount>
1

> <Note_TOXCST>
structure modified v2b

> <Coord_Metals>
0

> <Index>
109

> <Canonical_Smiles>
CC(C)(C)C(O)C(=Cc1ccc(Cl)cc1Cl)n2cncn2

> <Molecular_Weight>
326.22098

> <Frequency>
1

$$$$

  SciTegic          2D

 24 25  0  0  0  0            999 V2000
    1.2990   -0.7500    0.0000 C   0  0
    1.2990    0.7500    0.0000 C   0  0
    0.0000    1.5000    0.0000 C   0  0
   -1.2990    0.7500    0.0000 C   0  0
   -1.2990   -0.7500    0.0000 C   0  0
    0.0000   -1.5000    0.0000 C   0  0
   -0.0031   -3.0008    0.0000 N   0  0
   -1.3039   -3.7494    0.0000 C   0  0
   -1.3092   -5.2494    0.0000 C   0  0
   -2.6108   -5.9949    0.0000 C   0  0
   -3.9072   -5.2404    0.0000 C   0  0
   -3.9020   -3.7404    0.0000 C   0  0
   -2.6004   -2.9949    0.0000 C   0  0
    2.1651   -1.2500    0.0000 H   0  0
    2.1651    1.2500    0.0000 H   0  0
    0.0000    2.5000    0.0000 H   0  0
   -2.1651    1.2500    0.0000 H   0  0
   -2.1651   -1.2500    0.0000 H   0  0
    0.8621   -3.5023    0.0000 H   0  0
   -0.4449   -5.7524    0.0000 H   0  0
   -2.6143   -6.9949    0.0000 H   0  0
   -4.7750   -5.7374    0.0000 H   0  0
   -4.7663   -3.2375    0.0000 H   0  0
   -2.5970   -1.9949    0.0000 H   0  0
  1  2  2  0
  1  6  1  0
  2  3  1  0
  3  4  2  0
  4  5  1  0
  5  6  2  0
  6  7  1  0
  7  8  1  0
  8  9  2  0
  8 13  1  0
  9 10  1  0
 10 11  2  0
 11 12  1  0
 12 13  2  0
  1 14  1  0
  2 15  1  0
  3 16  1  0
  4 17  1  0
  5 18  1  0
  7 19  1  0
  9 20  1  0
 10 21  1  0
 11 22  1  0
 12 23  1  0
 13 24  1  0
M  END
> <DSSTox_RID>
40436

> <DSSTox_CID>
1975

> <DSSTox_Generic_SID>
21975

> <DSSTox_FileID>
110_TOXCST_v3a

> <STRUCTURE_Formula>
C12H11N

> <STRUCTURE_MolecularWeight>
169.2224

> <STRUCTURE_ChemicalType>
defined organic

> <STRUCTURE_TestedForm_DefinedOrganic>
parent

> <STRUCTURE_Shown>
tested chemical

> <TestSubstance_ChemicalName>
Diphenylamine

> <Source_ChemicalName>
Diphenylamine

> <TestSubstance_CASRN>
122-39-4

> <TestSubstance_Description>
single chemical compound

> <STRUCTURE_ChemicalName_IUPAC>
N-phenylaniline

> <STRUCTURE_SMILES>
C1=CC=CC=C1NC2=CC=CC=C2

> <STRUCTURE_Parent_SMILES>
C1=CC=CC=C1NC2=CC=CC=C2

> <STRUCTURE_InChI>
InChI=1S/C12H11N/c1-3-7-11(8-4-1)13-12-9-5-2-6-10-12/h1-10,13H

> <STRUCTURE_InChIKey>
DMBHHRLKUKUOEG-UHFFFAOYSA-N

> <Substance_modify_yyyymmdd>
20080429

> <DSSTox_CID_Parent>
1975

> <ChemicalReplicateCount>
1

> <Coord_Metals>
0

> <Index>
110

> <Canonical_Smiles>
N(c1ccccc1)c2ccccc2

> <Molecular_Weight>
169.22243

> <Frequency>
1

$$$$

  SciTegic          2D

 26 28  0  0  0  0            999 V2000
    1.7503    0.0000    0.0000 N   0  3
   -0.8205   -1.5498    0.0000 N   0  3
    0.4558    0.6928    0.0000 C   0  0
   -0.8205    0.0000    0.0000 C   0  0
    1.7503   -1.5498    0.0000 C   0  0
    0.4558   -2.2973    0.0000 C   0  0
    3.0631    0.6928    0.0000 C   0  0
   -2.1332   -2.2973    0.0000 C   0  0
   -2.1332    0.6928    0.0000 C   0  0
    0.4558    2.1879    0.0000 C   0  0
   -3.4277   -1.5498    0.0000 C   0  0
    3.0631    2.1879    0.0000 C   0  0
    1.7503    2.9537    0.0000 C   0  0
   -3.4277    0.0000    0.0000 C   0  0
    1.7267   -2.5495    0.0000 H   0  0
    2.6043   -1.0295    0.0000 H   0  0
    0.4356   -1.2975    0.0000 H   0  0
   -0.4231   -2.7743    0.0000 H   0  0
    3.9194    0.1765    0.0000 H   0  0
   -2.1362   -3.2973    0.0000 H   0  0
   -2.1361    1.6928    0.0000 H   0  0
   -0.4128    2.6833    0.0000 H   0  0
   -4.2937   -2.0497    0.0000 H   0  0
    3.9302    2.6860    0.0000 H   0  0
    1.7473    3.9537    0.0000 H   0  0
   -4.2856    0.5139    0.0000 H   0  0
  1  3  2  0
  1  5  1  0
  1  7  1  0
  2  6  1  0
  2  8  1  0
  2  4  2  0
  3  4  1  0
  3 10  1  0
  4  9  1  0
  5  6  1  0
  7 12  2  0
  8 11  2  0
  9 14  2  0
 10 13  2  0
 11 14  1  0
 12 13  1  0
  5 15  1  0
  5 16  1  0
  6 17  1  0
  6 18  1  0
  7 19  1  0
  8 20  1  0
  9 21  1  0
 10 22  1  0
 11 23  1  0
 12 24  1  0
 13 25  1  0
 14 26  1  0
M  CHG  2   1   1   2   1
M  END
> <DSSTox_RID>
40330

> <DSSTox_CID>
4075

> <DSSTox_Generic_SID>
24075

> <DSSTox_FileID>
111_TOXCST_v3a

> <STRUCTURE_Formula>
C12H12Br2N2

> <STRUCTURE_MolecularWeight>
344.0451

> <STRUCTURE_ChemicalType>
defined organic

> <STRUCTURE_TestedForm_DefinedOrganic>
salt 2Br

> <STRUCTURE_Shown>
tested chemical

> <TestSubstance_ChemicalName>
Diquat dibromide

> <Source_ChemicalName>
Diquat dibromide

> <TestSubstance_CASRN>
85-00-7

> <TestSubstance_Description>
single chemical compound

> <ChemicalNote>
ammonium; parent [2764-72-9]

> <STRUCTURE_ChemicalName_IUPAC>
6,7-dihydrodipyrido[1,2-a:2',1'-c]pyrazinediium dibromide

> <STRUCTURE_SMILES>
[N+]1(C=CC=C2)=C2C3=[N+](C=CC=C3)CC1.[Br-].[Br-]

> <STRUCTURE_Parent_SMILES>
[N+]1(C=CC=C2)=C2C3=[N+](C=CC=C3)CC1

> <STRUCTURE_InChI>
InChI=1S/C12H12N2.2BrH/c1-3-7-13-9-10-14-8-4-2-6-12(14)11(13)5-1;;/h1-8H,9-10H2;2*1H/q+2;;/p-2

> <STRUCTURE_InChIKey>
ODPOAESBSUKMHD-UHFFFAOYSA-L

> <Substance_modify_yyyymmdd>
20080429

> <DSSTox_CID_Parent>
14554

> <ChemicalReplicateCount>
1

> <Coord_Metals>
0

> <Index>
111

> <Canonical_Smiles>
C1C[n+]2ccccc2c3cccc[n+]13

> <Molecular_Weight>
184.23707

> <Frequency>
1

$$$$

  SciTegic          2D

 33 32  0  0  0  0            999 V2000
    1.3000    0.7500    0.0000 C   0  0
    2.6000    0.0000    0.0000 C   0  0
    3.9000    0.7500    0.0000 O   0  0
    5.2000    0.0000    0.0000 P   0  0
    5.2000   -1.5007    0.0000 O   0  0
    3.9007   -2.2520    0.0000 C   0  0
    3.9007   -3.7528    0.0000 C   0  0
    5.2000    1.2000    0.0000 S   0  0
    6.5000    0.7500    0.0000 S   0  0
    7.7999    0.0000    0.0000 C   0  0
    9.0999    0.7500    0.0000 C   0  0
   10.3999    0.0000    0.0000 S   0  0
   11.6999    0.7500    0.0000 C   0  0
   12.9999    0.0000    0.0000 C   0  0
    0.4338    0.2503    0.0000 H   0  0
    1.3000    1.7500    0.0000 H   0  0
    0.4340    1.2501    0.0000 H   0  0
    2.6000   -1.0000    0.0000 H   0  0
    3.4659   -0.5001    0.0000 H   0  0
    3.0345   -1.7523    0.0000 H   0  0
    3.9002   -1.2520    0.0000 H   0  0
    3.0350   -4.2534    0.0000 H   0  0
    4.7669   -4.2525    0.0000 H   0  0
    3.9012   -4.7528    0.0000 H   0  0
    7.7999   -1.0000    0.0000 H   0  0
    6.9340   -0.5001    0.0000 H   0  0
    9.0999    1.7500    0.0000 H   0  0
    9.9659    1.2501    0.0000 H   0  0
   11.6999    1.7500    0.0000 H   0  0
   10.8340    1.2501    0.0000 H   0  0
   13.8661    0.4997    0.0000 H   0  0
   12.9999   -1.0000    0.0000 H   0  0
   13.8658   -0.5001    0.0000 H   0  0
  1  2  1  0
  2  3  1  0
  3  4  1  0
  4  5  1  0
  4  8  2  0
  4  9  1  0
  5  6  1  0
  6  7  1  0
  9 10  1  0
 10 11  1  0
 11 12  1  0
 12 13  1  0
 13 14  1  0
  1 15  1  0
  1 16  1  0
  1 17  1  0
  2 18  1  0
  2 19  1  0
  6 20  1  0
  6 21  1  0
  7 22  1  0
  7 23  1  0
  7 24  1  0
 10 25  1  0
 10 26  1  0
 11 27  1  0
 11 28  1  0
 13 29  1  0
 13 30  1  0
 14 31  1  0
 14 32  1  0
 14 33  1  0
M  END
> <DSSTox_RID>
40437

> <DSSTox_CID>
2018

> <DSSTox_Generic_SID>
22018

> <DSSTox_FileID>
112_TOXCST_v3a

> <STRUCTURE_Formula>
C8H19O2PS3

> <STRUCTURE_MolecularWeight>
274.404

> <STRUCTURE_ChemicalType>
defined organic

> <STRUCTURE_TestedForm_DefinedOrganic>
parent

> <STRUCTURE_Shown>
tested chemical

> <TestSubstance_ChemicalName>
Disulfoton

> <Source_ChemicalName>
Disulfoton

> <TestSubstance_CASRN>
298-04-4

> <TestSubstance_Description>
single chemical compound

> <STRUCTURE_ChemicalName_IUPAC>
O,O-diethyl S-[2-(ethylthio)ethyl] dithiophosphate

> <STRUCTURE_SMILES>
CCOP(OCC)(=S)SCCSCC

> <STRUCTURE_Parent_SMILES>
CCOP(OCC)(=S)SCCSCC

> <STRUCTURE_InChI>
InChI=1S/C8H19O2PS3/c1-4-9-11(12,10-5-2)14-8-7-13-6-3/h4-8H2,1-3H3

> <STRUCTURE_InChIKey>
DOFZAZXDOSGAJZ-UHFFFAOYSA-N

> <Substance_modify_yyyymmdd>
20080429

> <DSSTox_CID_Parent>
2018

> <ChemicalReplicateCount>
1

> <Coord_Metals>
0

> <Index>
112

> <Canonical_Smiles>
CCOP(=S)(OCC)SCCSCC

> <Molecular_Weight>
274.40402

> <Frequency>
1

$$$$

  SciTegic          2D

 41 41  0  0  0  0            999 V2000
    1.2990   -0.7500    0.0000 N   0  0
    1.2990    0.7500    0.0000 C   0  0
    0.0000   -1.5000    0.0000 C   0  0
   -1.2990   -0.7500    0.0000 C   0  0
    0.0000    1.5000    0.0000 C   0  0
   -1.2990    0.7500    0.0000 C   0  0
   -2.7776   -1.0076    0.0000 C   0  0
   -3.5468   -0.0865    0.0000 O   0  0
   -2.7816   -2.5084    0.0000 S   0  0
   -0.0031    3.0008    0.0000 C   0  0
    1.0351    3.6026    0.0000 O   0  0
   -1.3039    3.7494    0.0000 S   0  0
    0.0000   -3.0008    0.0000 C   0  0
    1.0389   -3.6015    0.0000 F   0  0
   -1.0394   -3.6005    0.0000 F   0  0
   -2.5988    1.5004    0.0000 C   0  0
   -4.0770    1.2407    0.0000 C   0  0
   -4.5921   -0.1689    0.0000 C   0  0
   -5.0406    2.3913    0.0000 C   0  0
    2.5988    1.5004    0.0000 C   0  0
    3.6384    0.9011    0.0000 F   0  0
    2.5984    2.7004    0.0000 F   0  0
    3.6377    2.1009    0.0000 F   0  0
   -4.0829   -3.2562    0.0000 C   0  0
   -1.3070    5.2502    0.0000 C   0  0
   -0.0005   -4.0008    0.0000 H   0  0
   -1.7327    2.0003    0.0000 H   0  0
   -2.5985    2.5004    0.0000 H   0  0
   -3.4349    0.4741    0.0000 H   0  0
   -5.5770   -0.3420    0.0000 H   0  0
   -3.9500   -0.9356    0.0000 H   0  0
   -4.9348   -1.1084    0.0000 H   0  0
   -4.6982    3.3309    0.0000 H   0  0
   -6.0255    2.2182    0.0000 H   0  0
   -5.6830    3.1576    0.0000 H   0  0
   -4.0856   -4.2561    0.0000 H   0  0
   -4.9502   -3.7540    0.0000 H   0  0
   -4.9478   -2.7541    0.0000 H   0  0
   -2.1738    5.7490    0.0000 H   0  0
   -1.3086    6.2502    0.0000 H   0  0
   -0.4419    5.7517    0.0000 H   0  0
  1  2  2  0
  1  3  1  0
  2  5  1  0
  2 20  1  0
  3  4  2  0
  3 13  1  0
  4  6  1  0
  4  7  1  0
  5  6  2  0
  5 10  1  0
  6 16  1  0
  7  8  2  0
  7  9  1  0
  9 24  1  0
 10 11  2  0
 10 12  1  0
 12 25  1  0
 13 14  1  0
 13 15  1  0
 16 17  1  0
 17 18  1  0
 17 19  1  0
 20 21  1  0
 20 22  1  0
 20 23  1  0
 13 26  1  0
 16 27  1  0
 16 28  1  0
 17 29  1  0
 18 30  1  0
 18 31  1  0
 18 32  1  0
 19 33  1  0
 19 34  1  0
 19 35  1  0
 24 36  1  0
 24 37  1  0
 24 38  1  0
 25 39  1  0
 25 40  1  0
 25 41  1  0
M  END
> <DSSTox_RID>
40438

> <DSSTox_CID>
12379

> <DSSTox_Generic_SID>
32379

> <DSSTox_FileID>
113_TOXCST_v3a

> <STRUCTURE_Formula>
C15H16F5NO2S2

> <STRUCTURE_MolecularWeight>
401.4151

> <STRUCTURE_ChemicalType>
defined organic

> <STRUCTURE_TestedForm_DefinedOrganic>
parent

> <STRUCTURE_Shown>
tested chemical

> <TestSubstance_ChemicalName>
Dithiopyr

> <Source_ChemicalName>
Dithiopyr

> <TestSubstance_CASRN>
97886-45-8

> <TestSubstance_Description>
single chemical compound

> <STRUCTURE_ChemicalName_IUPAC>
S3,S5-dimethyl 2-(difluoromethyl)-4-isobutyl-6-(trifluoromethyl)pyridine-3,5-dicarbothioate

> <STRUCTURE_SMILES>
O=C(SC)C1=C(C(F)F)N=C(C(F)(F)F)C(C(SC)=O)=C1CC(C)C

> <STRUCTURE_Parent_SMILES>
O=C(SC)C1=C(C(F)F)N=C(C(F)(F)F)C(C(SC)=O)=C1CC(C)C

> <STRUCTURE_InChI>
InChI=1S/C15H16F5NO2S2/c1-6(2)5-7-8(13(22)24-3)10(12(16)17)21-11(15(18,19)20)9(7)14(23)25-4/h6,12H,5H2,1-4H3

> <STRUCTURE_InChIKey>
YUBJPYNSGLJZPQ-UHFFFAOYSA-N

> <Substance_modify_yyyymmdd>
20080429

> <DSSTox_CID_Parent>
12379

> <ChemicalReplicateCount>
1

> <Coord_Metals>
0

> <Index>
113

> <Canonical_Smiles>
CSC(=O)c1c(CC(C)C)c(C(=O)SC)c(nc1C(F)F)C(F)(F)F

> <Molecular_Weight>
401.41505

> <Frequency>
1

$$$$

  SciTegic          2D

 24 24  0  0  0  0            999 V2000
    2.3383   -1.3500    0.0000 Cl  0  0
    1.2990   -0.7500    0.0000 C   0  0
    1.2990    0.7500    0.0000 C   0  0
    0.0000    1.5000    0.0000 C   0  0
   -1.2990    0.7500    0.0000 C   0  0
   -1.2990   -0.7500    0.0000 C   0  0
    0.0000   -1.5000    0.0000 C   0  0
   -2.5972   -1.5031    0.0000 N   0  0
   -2.5951   -3.0039    0.0000 C   0  0
   -1.5548   -3.6021    0.0000 O   0  0
   -3.8933   -3.7570    0.0000 N   0  0
   -3.8912   -5.2578    0.0000 C   0  0
   -5.1928   -3.0062    0.0000 C   0  0
    2.3383    1.3500    0.0000 Cl  0  0
    0.0000    2.5000    0.0000 H   0  0
   -2.1651    1.2500    0.0000 H   0  0
    0.0000   -2.5000    0.0000 H   0  0
   -3.4641   -1.0046    0.0000 H   0  0
   -4.7562   -5.7596    0.0000 H   0  0
   -3.8893   -6.2578    0.0000 H   0  0
   -3.0243   -5.7563    0.0000 H   0  0
   -5.1932   -2.0062    0.0000 H   0  0
   -6.0589   -3.5062    0.0000 H   0  0
   -6.0589   -2.5063    0.0000 H   0  0
  1  2  1  0
  2  3  2  0
  2  7  1  0
  3  4  1  0
  3 14  1  0
  4  5  2  0
  5  6  1  0
  6  7  2  0
  6  8  1  0
  8  9  1  0
  9 10  2  0
  9 11  1  0
 11 12  1  0
 11 13  1  0
  4 15  1  0
  5 16  1  0
  7 17  1  0
  8 18  1  0
 12 19  1  0
 12 20  1  0
 12 21  1  0
 13 22  1  0
 13 23  1  0
 13 24  1  0
M  END
> <DSSTox_RID>
40439

> <DSSTox_CID>
446

> <DSSTox_Generic_SID>
20446

> <DSSTox_FileID>
114_TOXCST_v3a

> <STRUCTURE_Formula>
C9H10Cl2N2O

> <STRUCTURE_MolecularWeight>
233.0945

> <STRUCTURE_ChemicalType>
defined organic

> <STRUCTURE_TestedForm_DefinedOrganic>
parent

> <STRUCTURE_Shown>
tested chemical

> <TestSubstance_ChemicalName>
Diuron

> <Source_ChemicalName>
Diuron

> <TestSubstance_CASRN>
330-54-1

> <TestSubstance_Description>
single chemical compound

> <STRUCTURE_ChemicalName_IUPAC>
3-(3,4-dichlorophenyl)-1,1-dimethylurea

> <STRUCTURE_SMILES>
ClC1=C(C=CC(=C1)NC(=O)N(C)C)Cl

> <STRUCTURE_Parent_SMILES>
ClC1=C(C=CC(=C1)NC(=O)N(C)C)Cl

> <STRUCTURE_InChI>
InChI=1S/C9H10Cl2N2O/c1-13(2)9(14)12-6-3-4-7(10)8(11)5-6/h3-5H,1-2H3,(H,12,14)

> <STRUCTURE_InChIKey>
XMTQQYYKAHVGBJ-UHFFFAOYSA-N

> <Substance_modify_yyyymmdd>
20080429

> <DSSTox_CID_Parent>
446

> <ChemicalReplicateCount>
1

> <Coord_Metals>
0

> <Index>
114

> <Canonical_Smiles>
CN(C)C(=O)Nc1ccc(Cl)c(Cl)c1

> <Molecular_Weight>
233.09449

> <Frequency>
1

$$$$

  SciTegic          2D

138144  0  0  0  0            999 V2000
   -3.3197   11.1265    0.0000 C   0  0
   -1.9312   12.1246    0.0000 C   0  0
   -3.2513    9.6608    0.0000 O   0  0
   -4.6107   10.1984    0.0000 O   0  0
   -3.3881   12.5922    0.0000 C   0  0
   -0.6449   11.5345    0.0000 C   0  0
   -1.8780    9.1209    0.0000 C   0  0
   -5.9783   10.7302    0.0000 C   0  0
   -4.7498   13.1158    0.0000 C   0  0
   -0.4895   10.1191    0.0000 C   0  0
    0.7192   12.5151    0.0000 O   0  0
   -1.8096    7.6553    0.0000 C   0  0
   -6.0408   12.1877    0.0000 C   0  0
   -5.8053    9.2563    0.0000 C   0  0
    2.0926   11.9752    0.0000 C   0  0
   -0.4421    7.1235    0.0000 C   0  0
   -6.1061   13.6648    0.0000 C   0  0
   -7.0258    8.3829    0.0000 C   0  0
   -4.4389    8.6356    0.0000 C   0  0
    3.4810   12.9734    0.0000 C   0  0
    2.2414   10.7845    0.0000 O   0  0
   -0.3737    5.6578    0.0000 C   0  0
   -8.3929    9.0023    0.0000 C   0  0
    4.8486   12.4416    0.0000 C   0  0
    3.4068   14.4472    0.0000 C   0  0
    0.9938    5.1260    0.0000 C   0  0
   -1.5915    4.7823    0.0000 C   0  0
    6.1477   13.3755    0.0000 C   0  0
    4.9169   10.9759    0.0000 C   0  0
    6.2165   11.8241    0.0000 O   0  0
    4.7060   15.3811    0.0000 C   0  0
   -0.2071    4.2635    0.0000 O   0  0
    2.3823    6.1242    0.0000 C   0  0
    7.5836   11.3781    0.0000 O   0  0
    6.1686   14.9054    0.0000 C   0  0
    6.2845   10.4442    0.0000 C   0  0
    3.5285    9.9778    0.0000 C   0  0
    4.4929   16.8675    0.0000 C   0  0
   -1.5912    4.8437    0.0000 C   0  0
    2.2327    7.5315    0.0000 C   0  0
    3.5604    7.0211    0.0000 C   0  0
    6.0005   16.3838    0.0000 O   0  0
    3.5968    8.5121    0.0000 C   0  0
   -2.9415    5.4486    0.0000 C   0  0
   -1.3683    3.3810    0.0000 O   0  0
   -4.1352    4.5404    0.0000 C   0  0
   -2.5621    2.4727    0.0000 C   0  0
   -3.9455    3.0524    0.0000 C   0  0
   -5.5377    4.0663    0.0000 O   0  0
   -1.1830    1.9344    0.0000 C   0  0
   -4.2362    1.6008    0.0000 O   0  0
   -6.6893    5.0288    0.0000 C   0  0
   -5.6455    1.0847    0.0000 C   0  0
   -7.0468    0.6098    0.0000 C   0  0
   -4.4873    0.1641    0.0000 O   0  0
   -7.3042   -0.8679    0.0000 C   0  0
   -4.7446   -1.3137    0.0000 C   0  0
   -6.1531   -1.8297    0.0000 C   0  0
   -8.0099   -2.1694    0.0000 O   0  0
   -3.3675   -0.7704    0.0000 C   0  0
   -5.3789   -3.0915    0.0000 N   0  0
   -9.5087   -2.2471    0.0000 C   0  0
   -6.0610   -4.4284    0.0000 C   0  0
   -2.8509   12.5174    0.0000 H   0  0
   -1.1042   12.6868    0.0000 H   0  0
   -2.5772   13.1774    0.0000 H   0  0
   -1.4587   10.9533    0.0000 H   0  0
   -2.6910    8.5387    0.0000 H   0  0
   -6.8810   11.1603    0.0000 H   0  0
   -4.8775   14.1076    0.0000 H   0  0
   -0.4083    9.1224    0.0000 H   0  0
    0.3059   10.7252    0.0000 H   0  0
   -0.9866    8.2233    0.0000 H   0  0
   -1.6912    6.6623    0.0000 H   0  0
   -5.1299   11.7751    0.0000 H   0  0
   -5.7081    8.2610    0.0000 H   0  0
    0.3699    7.7072    0.0000 H   0  0
   -5.2782   14.2255    0.0000 H   0  0
   -6.1776   14.6622    0.0000 H   0  0
   -7.0056   14.1017    0.0000 H   0  0
   -7.1233    9.3781    0.0000 H   0  0
   -6.9281    7.3877    0.0000 H   0  0
   -4.3413    7.6403    0.0000 H   0  0
   -3.5283    8.2224    0.0000 H   0  0
   -3.6257    9.2175    0.0000 H   0  0
    2.5800   13.4071    0.0000 H   0  0
   -9.2061    8.4204    0.0000 H   0  0
   -9.3035    9.4155    0.0000 H   0  0
   -8.4905    9.9975    0.0000 H   0  0
    2.5058   14.8809    0.0000 H   0  0
    1.9260    4.7639    0.0000 H   0  0
   -2.5033    5.1931    0.0000 H   0  0
   -1.4917    3.7873    0.0000 H   0  0
   -2.4032    4.1983    0.0000 H   0  0
    7.1016   13.6756    0.0000 H   0  0
    6.3165   10.8291    0.0000 H   0  0
    2.4608    5.1273    0.0000 H   0  0
    7.0729   14.4784    0.0000 H   0  0
    5.4729    9.8599    0.0000 H   0  0
    7.2162   10.0810    0.0000 H   0  0
    2.6282   10.4132    0.0000 H   0  0
    3.5651   17.2404    0.0000 H   0  0
    5.2796   17.4849    0.0000 H   0  0
    4.3518   17.8575    0.0000 H   0  0
   -1.7178    5.8356    0.0000 H   0  0
    1.3200    7.9400    0.0000 H   0  0
    3.4582    8.0159    0.0000 H   0  0
    4.3707    7.6071    0.0000 H   0  0
    4.4731    6.6125    0.0000 H   0  0
    5.0900   16.7973    0.0000 H   0  0
    4.4971    8.0768    0.0000 H   0  0
   -2.1251    6.0261    0.0000 H   0  0
   -3.8677    5.8256    0.0000 H   0  0
   -3.2227    4.1314    0.0000 H   0  0
   -3.3725    1.8869    0.0000 H   0  0
   -4.8581    3.4614    0.0000 H   0  0
   -0.3869    2.5395    0.0000 H   0  0
   -0.2608    1.5477    0.0000 H   0  0
   -1.0566    0.9424    0.0000 H   0  0
   -7.6285    4.6855    0.0000 H   0  0
   -7.4563    5.6704    0.0000 H   0  0
   -6.5172    6.0139    0.0000 H   0  0
   -6.4130    1.7258    0.0000 H   0  0
   -6.3022   -0.0576    0.0000 H   0  0
   -7.9822    0.2562    0.0000 H   0  0
   -8.0557   -0.2082    0.0000 H   0  0
   -5.4961   -0.6539    0.0000 H   0  0
   -7.1002   -2.1506    0.0000 H   0  0
   -3.1955    0.2147    0.0000 H   0  0
   -2.4284   -0.4266    0.0000 H   0  0
   -2.6002   -1.4116    0.0000 H   0  0
   -4.3802   -3.0401    0.0000 H   0  0
   -9.9637   -3.1375    0.0000 H   0  0
  -10.5074   -2.2984    0.0000 H   0  0
  -10.0526   -1.4079    0.0000 H   0  0
   -5.5174   -5.2677    0.0000 H   0  0
   -7.0597   -4.4799    0.0000 H   0  0
   -6.5159   -5.3189    0.0000 H   0  0
  1  2  1  0
  1  3  1  0
  1  4  1  0
  1  5  1  0
  2  6  1  0
  3  7  1  0
  4  8  1  0
  5  9  2  0
  6 10  1  0
  6 11  1  0
  7 12  1  0
  7 10  1  0
  8 13  1  0
  8 14  1  0
  9 13  1  0
 11 15  1  0
 16 12  1  0
 13 17  1  0
 14 18  1  0
 14 19  1  0
 15 20  1  0
 15 21  2  0
 16 22  2  0
 18 23  1  0
 20 24  1  0
 20 25  1  0
 22 26  1  0
 22 27  1  0
 24 28  1  0
 24 29  1  0
 24 30  1  0
 25 31  2  0
 26 32  1  0
 26 33  1  0
 28 34  1  0
 28 35  1  0
 29 36  1  0
 29 37  2  0
 31 38  1  0
 31 35  1  0
 39 32  1  0
 33 40  1  0
 33 41  1  0
 34 36  1  0
 35 42  1  0
 37 43  1  0
 39 44  1  0
 39 45  1  0
 40 43  2  0
 44 46  1  0
 45 47  1  0
 46 48  1  0
 46 49  1  0
 47 50  1  0
 47 48  1  0
 48 51  1  0
 49 52  1  0
 53 51  1  0
 53 54  1  0
 53 55  1  0
 54 56  1  0
 55 57  1  0
 56 58  1  0
 56 59  1  0
 57 60  1  0
 57 58  1  0
 58 61  1  0
 59 62  1  0
 61 63  1  0
  2 64  1  0
  2 65  1  0
  5 66  1  0
  6 67  1  0
  7 68  1  0
  8 69  1  0
  9 70  1  0
 10 71  1  0
 10 72  1  0
 12 73  1  0
 12 74  1  0
 13 75  1  0
 14 76  1  0
 16 77  1  0
 17 78  1  0
 17 79  1  0
 17 80  1  0
 18 81  1  0
 18 82  1  0
 19 83  1  0
 19 84  1  0
 19 85  1  0
 20 86  1  0
 23 87  1  0
 23 88  1  0
 23 89  1  0
 25 90  1  0
 26 91  1  0
 27 92  1  0
 27 93  1  0
 27 94  1  0
 28 95  1  0
 30 96  1  0
 33 97  1  0
 35 98  1  0
 36 99  1  0
 36100  1  0
 37101  1  0
 38102  1  0
 38103  1  0
 38104  1  0
 39105  1  0
 40106  1  0
 41107  1  0
 41108  1  0
 41109  1  0
 42110  1  0
 43111  1  0
 44112  1  0
 44113  1  0
 46114  1  0
 47115  1  0
 48116  1  0
 50117  1  0
 50118  1  0
 50119  1  0
 52120  1  0
 52121  1  0
 52122  1  0
 53123  1  0
 54124  1  0
 54125  1  0
 56126  1  0
 57127  1  0
 58128  1  0
 60129  1  0
 60130  1  0
 60131  1  0
 61132  1  0
 62133  1  0
 62134  1  0
 62135  1  0
 63136  1  0
 63137  1  0
 63138  1  0
M  END
> <DSSTox_RID>
40441

> <DSSTox_CID>
14566

> <DSSTox_Generic_SID>
34566

> <DSSTox_FileID>
116_TOXCST_v3a

> <STRUCTURE_Formula>
C56H81NO15

> <STRUCTURE_MolecularWeight>
1008.24

> <STRUCTURE_ChemicalType>
defined organic

> <STRUCTURE_TestedForm_DefinedOrganic>
complex benzoate (C7H5O2)

> <STRUCTURE_Shown>
representative component in mixture

> <TestSubstance_ChemicalName>
Emamectin benzoate

> <Source_ChemicalName>
Emamectin benzoate

> <TestSubstance_CASRN>
155569-91-8

> <TestSubstance_Description>
mixture or formulation

> <ChemicalNote>
mixture of (4?R)-4?-deoxy-4?-(methylamino)avermectin B1a, B1b; structure shown B1a; stereochem; parent [119791-41-2, 137335-79-6]; ammonium; retired CASRN [137512-74-4]

> <STRUCTURE_ChemicalName_IUPAC>
(2aE,4E,5'S,6S,6'R,7S,8E,11R,13S,15S,17aR,20R,20aR,20bS)-20,20b-dihydroxy-5',6,8,19-tetramethyl-6'-[(1S)-1-methylpropyl]-17-oxo-5',6,6',10,11,14,15,17,17a,20,20a,20b-dodecahydro-2H,7H-spiro[11,15-meth
anofuro[4,3,2-pq][2,6]benzodioxacyclooctadecine-13,2'-pyran]-7-yl 2,6-dideoxy-3-O-methyl-4-O-[2,4,6-trideoxy-3-O-methyl-4-(methylammonio)-a-L-arabino-hexopyranosyl]-a-L-arabino-hexopyranoside benzoate

> <STRUCTURE_SMILES>
O=C([C@@](C=C6C)([H])[C@@]/4(O)[C@]([C@@H]6O)([H])OCC4=C/C=C/[C@@H]5C)O[C@@H](C3)C[C@@]2(O[C@@]([C@@]([H])(C)CC)([H])[C@@H](C)C=C2)O[C@]3([H])C/C=C(C)/[C@H]5O[C@H]1C[C@H](OC)[C@@H](O[C@H]7C[C@H](OC)[C
@@H]([NH2+]C)[C@H](C)O7)[C@H](C)O1.O=C([O-])C8=CC=CC=C8

> <STRUCTURE_Parent_SMILES>
O=C([C@@](C=C6C)([H])[C@@]/4(O)[C@]([C@@H]6O)([H])OCC4=C/C=C/[C@@H]5C)O[C@@H](C3)C[C@@]2(O[C@@]([C@@]([H])(C)CC)([H])[C@@H](C)C=C2)O[C@]3([H])C/C=C(C)/[C@H]5O[C@H]1C[C@H](OC)[C@@H](O[C@H]7C[C@H](OC)[C
@@H](NC)[C@H](C)O7)[C@H](C)O1

> <STRUCTURE_InChI>
InChI=1S/C49H75NO13.C7H6O2/c1-12-26(2)44-29(5)18-19-48(63-44)24-35-21-34(62-48)17-16-28(4)43(27(3)14-13-15-33-25-56-46-42(51)30(6)20-36(47(52)59-35)49(33,46)53)60-40-23-38(55-11)45(32(8)58-40)61-39-22
-37(54-10)41(50-9)31(7)57-39;8-7(9)6-4-2-1-3-5-6/h13-16,18-20,26-27,29,31-32,34-46,50-51,53H,12,17,21-25H2,1-11H3;1-5H,(H,8,9)/b14-13+,28-16+,33-15+;/t26-,27-,29-,31-,32-,34+,35-,36-,37-,38-,39-,40-,4
1-,42+,43-,44+,45-,46+,48+,49+;/m0./s1

> <STRUCTURE_InChIKey>
GCKZANITAMOIAR-XWVCPFKXSA-N

> <Substance_modify_yyyymmdd>
20080429

> <DSSTox_CID_Parent>
15052

> <ChemicalReplicateCount>
1

> <Coord_Metals>
0

> <Index>
116

> <Canonical_Smiles>
CCC(C)C1OC2(CC3CC(CC=C(C)C(OC4CC(OC)C(OC5CC(OC)C(NC)C(C)O5)C(C)O4)C(C)C=CC=C6COC7C(O)C(=CC(C(=O)O3)C67O)C)O2)C=CC1C

> <Molecular_Weight>
886.11869

> <Frequency>
1

$$$$

  SciTegic          2D

 25 27  0  0  0  0            999 V2000
   -3.0700    0.5700    0.0000 O   0  0
   -4.0000   -0.4300    0.0000 S   0  0
   -1.5200    0.5700    0.0000 C   0  0
   -3.1500   -1.4900    0.0000 O   0  0
   -0.5300    0.0000    0.0000 C   0  0
   -0.9400   -0.8200    0.0000 C   0  0
   -1.6300   -1.4900    0.0000 C   0  0
   -5.1992   -0.3861    0.0000 O   0  0
    1.2100    0.5700    0.0000 C   0  0
    0.8000    0.0000    0.0000 C   0  0
    2.6900   -0.2700    0.0000 C   0  0
    2.3100   -0.9100    0.0000 C   0  0
    0.9700    2.0400    0.0000 C   0  0
    3.8499    0.0378    0.0000 Cl  0  0
    2.6026   -2.0738    0.0000 Cl  0  0
    1.0904   -0.6240    0.0000 Cl  0  0
    0.7388   -1.1984    0.0000 Cl  0  0
   -0.0785    2.6236    0.0000 Cl  0  0
    1.9692    2.7046    0.0000 Cl  0  0
   -0.5429    0.7830    0.0000 H   0  0
   -2.2604    1.2421    0.0000 H   0  0
   -1.4428   -0.4084    0.0000 H   0  0
   -0.3708   -1.6422    0.0000 H   0  0
   -2.0389   -0.5774    0.0000 H   0  0
   -2.2725   -2.2563    0.0000 H   0  0
  1  2  1  0
  1  3  1  0
  2  4  1  0
  2  8  2  0
  3  5  1  0
  4  7  1  0
  5  6  1  0
  5  9  1  0
  6  7  1  0
  6 10  1  0
  9 11  1  0
  9 13  1  0
  9 16  1  0
 10 12  1  0
 10 13  1  0
 10 17  1  0
 11 12  2  0
 11 14  1  0
 12 15  1  0
 13 18  1  0
 13 19  1  0
  3 20  1  0
  3 21  1  0
  5 22  1  0
  6 23  1  0
  7 24  1  0
  7 25  1  0
M  END
> <DSSTox_RID>
40442

> <DSSTox_CID>
560

> <DSSTox_Generic_SID>
20560

> <DSSTox_FileID>
117_TOXCST_v3a

> <STRUCTURE_Formula>
C9H6Cl6O3S

> <STRUCTURE_MolecularWeight>
406.9251

> <STRUCTURE_ChemicalType>
defined organic

> <STRUCTURE_TestedForm_DefinedOrganic>
parent

> <STRUCTURE_Shown>
tested chemical

> <TestSubstance_ChemicalName>
Endosulfan

> <Source_ChemicalName>
Endosulfan

> <TestSubstance_CASRN>
115-29-7

> <TestSubstance_Description>
single chemical compound

> <ChemicalNote>
mixture of alpha- [959-98-8] and beta-endosulfan [33213-65-9]; structure shown without stereochem

> <STRUCTURE_ChemicalName_IUPAC>
6,7,8,9,10,10-hexachloro-1,5,5a,6,9,9a-hexahydro-6,9-methano-2,4,3-benzodioxathiepine 3-oxide

> <STRUCTURE_SMILES>
O=S1OCC(C3(Cl)C(Cl)=C(Cl)C(Cl)2C(Cl)3Cl)C2CO1

> <STRUCTURE_Parent_SMILES>
O=S1OCC(C3(Cl)C(Cl)=C(Cl)C(Cl)2C(Cl)3Cl)C2CO1

> <STRUCTURE_InChI>
InChI=1S/C9H6Cl6O3S/c10-5-6(11)8(13)4-2-18-19(16)17-1-3(4)7(5,12)9(8,14)15/h3-4H,1-2H2

> <STRUCTURE_InChIKey>
RDYMFSUJUZBWLH-UHFFFAOYSA-N

> <Substance_modify_yyyymmdd>
20080429

> <DSSTox_CID_Parent>
560

> <ChemicalReplicateCount>
1

> <Coord_Metals>
0

> <Index>
117

> <Canonical_Smiles>
ClC1=C(Cl)C2(Cl)C3COS(=O)OCC3C1(Cl)C2(Cl)Cl

> <Molecular_Weight>
406.92513

> <Frequency>
1

$$$$

  SciTegic          2D

 31 30  0  0  0  0            999 V2000
    5.2000    0.0000    0.0000 C   0  0
    6.5000    0.7500    0.0000 N   0  0
    5.2000   -1.2000    0.0000 O   0  0
    3.9000    0.7500    0.0000 S   0  0
    7.7999    0.0000    0.0000 C   0  0
    6.4969    2.2508    0.0000 C   0  0
    2.6000    0.0000    0.0000 C   0  0
    5.1960    2.9994    0.0000 C   0  0
    9.0999    0.7500    0.0000 C   0  0
    1.3000    0.7500    0.0000 C   0  0
   10.3999    0.0000    0.0000 C   0  0
    5.1930    4.5002    0.0000 C   0  0
    7.7999   -1.0000    0.0000 H   0  0
    6.9340   -0.5001    0.0000 H   0  0
    7.3620    2.7523    0.0000 H   0  0
    7.3638    1.7525    0.0000 H   0  0
    2.6000   -1.0000    0.0000 H   0  0
    3.4659   -0.5001    0.0000 H   0  0
    5.1976    1.9994    0.0000 H   0  0
    4.3309    2.4979    0.0000 H   0  0
    9.0999    1.7500    0.0000 H   0  0
    8.2340    1.2501    0.0000 H   0  0
    0.4338    0.2503    0.0000 H   0  0
    1.3000    1.7500    0.0000 H   0  0
    0.4340    1.2501    0.0000 H   0  0
   11.2661    0.4997    0.0000 H   0  0
   10.3999   -1.0000    0.0000 H   0  0
   11.2659   -0.5001    0.0000 H   0  0
    4.3262    4.9990    0.0000 H   0  0
    6.0581    5.0017    0.0000 H   0  0
    5.1914    5.5002    0.0000 H   0  0
  1  2  1  0
  1  3  2  0
  1  4  1  0
  2  5  1  0
  2  6  1  0
  4  7  1  0
  5  9  1  0
  6  8  1  0
  7 10  1  0
  8 12  1  0
  9 11  1  0
  5 13  1  0
  5 14  1  0
  6 15  1  0
  6 16  1  0
  7 17  1  0
  7 18  1  0
  8 19  1  0
  8 20  1  0
  9 21  1  0
  9 22  1  0
 10 23  1  0
 10 24  1  0
 10 25  1  0
 11 26  1  0
 11 27  1  0
 11 28  1  0
 12 29  1  0
 12 30  1  0
 12 31  1  0
M  END
> <DSSTox_RID>
40376
40761

> <DSSTox_CID>
4091
4091

> <DSSTox_Generic_SID>
24091
24091

> <DSSTox_FileID>
118_TOXCST_v3a
119_TOXCST_v3a

> <STRUCTURE_Formula>
C9H19NOS
C9H19NOS

> <STRUCTURE_MolecularWeight>
189.3183
189.3183

> <STRUCTURE_ChemicalType>
defined organic
defined organic

> <STRUCTURE_TestedForm_DefinedOrganic>
parent
parent

> <STRUCTURE_Shown>
tested chemical
tested chemical

> <TestSubstance_ChemicalName>
S-Ethyl dipropylthiocarbamate
S-Ethyl dipropylthiocarbamate

> <Source_ChemicalName>
EPTC
EPTC

> <TestSubstance_CASRN>
759-94-4
759-94-4

> <TestSubstance_Description>
single chemical compound
single chemical compound

> <STRUCTURE_ChemicalName_IUPAC>
S-ethyl dipropylthiocarbamate
S-ethyl dipropylthiocarbamate

> <STRUCTURE_SMILES>
CCCN(CCC)C(=O)SCC
CCCN(CCC)C(=O)SCC

> <STRUCTURE_Parent_SMILES>
CCCN(CCC)C(=O)SCC
CCCN(CCC)C(=O)SCC

> <STRUCTURE_InChI>
InChI=1S/C9H19NOS/c1-4-7-10(8-5-2)9(11)12-6-3/h4-8H2,1-3H3
InChI=1S/C9H19NOS/c1-4-7-10(8-5-2)9(11)12-6-3/h4-8H2,1-3H3

> <STRUCTURE_InChIKey>
GUVLYNGULCJVDO-UHFFFAOYSA-N
GUVLYNGULCJVDO-UHFFFAOYSA-N

> <Substance_modify_yyyymmdd>
20080429
20080429

> <DSSTox_CID_Parent>
4091
4091

> <ChemicalReplicateCount>
1 of 2
2 of 2

> <Relationship_CID>
duplicate of 4091
duplicate of 4091

> <Coord_Metals>
0
0

> <Index>
118
119

> <Canonical_Smiles>
CCCN(CCC)C(=O)SCC

> <Molecular_Weight>
189.31825
189.31825

> <Frequency>
2

$$$$

  SciTegic          2D

 52 54  0  0  0  0            999 V2000
    1.2990   -0.7500    0.0000 C   0  0
    2.5988   -1.5004    0.0000 C   0  0
    1.2990    0.7500    0.0000 C   0  0
    0.0000   -1.5000    0.0000 C   0  0
    3.8990   -0.7508    0.0000 C   0  0
    2.5983   -3.0012    0.0000 C   0  0
    0.0000    1.5000    0.0000 C   0  0
   -1.2990   -0.7500    0.0000 C   0  0
    5.1988   -1.5012    0.0000 O   0  0
    3.8994    0.4492    0.0000 O   0  0
    1.0517   -3.0796    0.0000 C   0  0
    3.3031   -4.3801    0.0000 C   0  0
   -1.2990    0.7500    0.0000 C   0  0
    6.4990   -0.7516    0.0000 C   0  0
   -2.3383    1.3500    0.0000 Cl  0  0
    7.7988   -1.5020    0.0000 C   0  0
    6.4995    0.7491    0.0000 C   0  0
    7.7988   -3.0021    0.0000 C   0  0
    9.0978   -0.7520    0.0000 C   0  0
    6.4999    1.9491    0.0000 N   0  0
    9.0978   -3.7520    0.0000 C   0  0
   10.3968   -1.5020    0.0000 C   0  0
    9.1009   -5.2529    0.0000 O   0  0
   10.3968   -3.0020    0.0000 C   0  0
   10.4017   -6.0014    0.0000 C   0  0
   10.4070   -7.5015    0.0000 C   0  0
   11.6982   -5.2470    0.0000 C   0  0
   11.7086   -8.2470    0.0000 C   0  0
   12.9999   -5.9925    0.0000 C   0  0
   13.0051   -7.4925    0.0000 C   0  0
    2.5991   -0.5004    0.0000 H   0  0
    2.1651    1.2500    0.0000 H   0  0
    0.0000   -2.5000    0.0000 H   0  0
    3.4643   -3.5013    0.0000 H   0  0
    0.0000    2.5000    0.0000 H   0  0
   -2.1651   -1.2500    0.0000 H   0  0
    0.5516   -2.2136    0.0000 H   0  0
    0.0518   -3.0923    0.0000 H   0  0
    0.5739   -3.9580    0.0000 H   0  0
    4.3031   -4.3806    0.0000 H   0  0
    3.7916   -5.2526    0.0000 H   0  0
    2.7809   -5.2329    0.0000 H   0  0
    5.6332   -0.2512    0.0000 H   0  0
    6.9327   -3.5021    0.0000 H   0  0
    9.0978    0.2480    0.0000 H   0  0
   11.2629   -1.0020    0.0000 H   0  0
   11.2629   -3.5020    0.0000 H   0  0
    9.5427   -8.0045    0.0000 H   0  0
   11.6948   -4.2470    0.0000 H   0  0
   11.7121   -9.2469    0.0000 H   0  0
   13.8642   -5.4895    0.0000 H   0  0
   13.8728   -7.9895    0.0000 H   0  0
  1  2  1  0
  1  3  2  0
  1  4  1  0
  2  5  1  0
  2  6  1  0
  3  7  1  0
  4  8  2  0
  5  9  1  0
  5 10  2  0
  6 11  1  0
  6 12  1  0
  7 13  2  0
  8 13  1  0
  9 14  1  0
 13 15  1  0
 14 16  1  0
 14 17  1  0
 16 18  1  0
 16 19  2  0
 17 20  3  0
 18 21  2  0
 19 22  1  0
 21 23  1  0
 21 24  1  0
 22 24  2  0
 23 25  1  0
 25 26  2  0
 25 27  1  0
 26 28  1  0
 27 29  2  0
 28 30  2  0
 29 30  1  0
  2 31  1  0
  3 32  1  0
  4 33  1  0
  6 34  1  0
  7 35  1  0
  8 36  1  0
 11 37  1  0
 11 38  1  0
 11 39  1  0
 12 40  1  0
 12 41  1  0
 12 42  1  0
 14 43  1  0
 18 44  1  0
 19 45  1  0
 22 46  1  0
 24 47  1  0
 26 48  1  0
 27 49  1  0
 28 50  1  0
 29 51  1  0
 30 52  1  0
M  END
> <DSSTox_RID>
40443

> <DSSTox_CID>
12667

> <DSSTox_Generic_SID>
32667

> <DSSTox_FileID>
120_TOXCST_v3a

> <STRUCTURE_Formula>
C25H22ClNO3

> <STRUCTURE_MolecularWeight>
419.9001

> <STRUCTURE_ChemicalType>
defined organic

> <STRUCTURE_TestedForm_DefinedOrganic>
parent

> <STRUCTURE_Shown>
tested chemical

> <TestSubstance_ChemicalName>
Esfenvalerate

> <Source_ChemicalName>
Esfenvalerate

> <TestSubstance_CASRN>
66230-04-4

> <TestSubstance_Description>
single chemical compound

> <ChemicalNote>
stereochem

> <STRUCTURE_ChemicalName_IUPAC>
(S)-cyano(3-phenoxyphenyl)methyl (2S)-2-(4-chlorophenyl)-3-methylbutanoate

> <STRUCTURE_SMILES>
O=C(O[C@H](C#N)C2=CC=CC(OC3=CC=CC=C3)=C2)[C@@H]([C@H](C)C)C1=CC=C(Cl)C=C1

> <STRUCTURE_Parent_SMILES>
O=C(O[C@H](C#N)C2=CC=CC(OC3=CC=CC=C3)=C2)[C@@H]([C@H](C)C)C1=CC=C(Cl)C=C1

> <STRUCTURE_InChI>
InChI=1S/C25H22ClNO3/c1-17(2)24(18-11-13-20(26)14-12-18)25(28)30-23(16-27)19-7-6-10-22(15-19)29-21-8-4-3-5-9-21/h3-15,17,23-24H,1-2H3/t23-,24+/m1/s1

> <STRUCTURE_InChIKey>
NYPJDWWKZLNGGM-RPWUZVMVSA-N

> <Substance_modify_yyyymmdd>
20080429

> <DSSTox_CID_Parent>
12667

> <ChemicalReplicateCount>
1

> <Coord_Metals>
0

> <Index>
120

> <Canonical_Smiles>
CC(C)C(C(=O)OC(C#N)c1cccc(Oc2ccccc2)c1)c3ccc(Cl)cc3

> <Molecular_Weight>
419.90008

> <Frequency>
1

$$$$

  SciTegic          2D

 37 37  0  0  0  0            999 V2000
    1.2990   -0.7500    0.0000 C   0  0
    0.0000    1.5000    0.0000 C   0  0
    1.2990    0.7500    0.0000 C   0  0
   -0.0031    3.0008    0.0000 N   0  0
    2.5973   -1.5031    0.0000 N   0  0
    2.5972    1.5031    0.0000 N   0  0
   -2.5988   -1.5004    0.0000 C   0  0
   -1.2990   -0.7500    0.0000 C   0  0
   -1.2990    0.7500    0.0000 C   0  0
    0.0000   -1.5000    0.0000 C   0  0
    1.0345    3.6036    0.0000 O   0  0
    2.5956   -2.7031    0.0000 O   0  0
    2.0819    2.9127    0.0000 C   0  0
   -1.0438    3.5984    0.0000 O   0  0
    3.4642   -1.0046    0.0000 O   0  0
    2.5923    4.3241    0.0000 C   0  0
   -2.5995   -2.7004    0.0000 F   0  0
   -3.6378   -0.9001    0.0000 F   0  0
   -3.6383   -2.0999    0.0000 F   0  0
    1.6260    5.4724    0.0000 C   0  0
    3.8968    0.7523    0.0000 C   0  0
    4.0693    4.5903    0.0000 C   0  0
    5.1972    1.5015    0.0000 C   0  0
   -2.1651    1.2500    0.0000 H   0  0
    0.0000   -2.5000    0.0000 H   0  0
    1.0968    3.0846    0.0000 H   0  0
    1.4403    2.1456    0.0000 H   0  0
    1.9660    6.4128    0.0000 H   0  0
    0.6415    5.2970    0.0000 H   0  0
    3.0305    0.2527    0.0000 H   0  0
    3.8961   -0.2477    0.0000 H   0  0
    4.4084    5.5311    0.0000 H   0  0
    5.0536    4.7672    0.0000 H   0  0
    4.7148    3.8265    0.0000 H   0  0
    6.0631    1.0012    0.0000 H   0  0
    5.1979    2.5015    0.0000 H   0  0
    6.0635    2.0011    0.0000 H   0  0
  1  3  2  0
  1  5  1  0
  1 10  1  0
  2  3  1  0
  2  4  1  0
  2  9  2  0
  3  6  1  0
  4 11  2  0
  4 14  2  0
  5 12  2  0
  5 15  2  0
  6 13  1  0
  6 21  1  0
  7  8  1  0
  7 17  1  0
  7 18  1  0
  7 19  1  0
  8 10  2  0
  8  9  1  0
 13 16  1  0
 16 20  2  0
 16 22  1  0
 21 23  1  0
  9 24  1  0
 10 25  1  0
 13 26  1  0
 13 27  1  0
 20 28  1  0
 20 29  1  0
 21 30  1  0
 21 31  1  0
 22 32  1  0
 22 33  1  0
 22 34  1  0
 23 35  1  0
 23 36  1  0
 23 37  1  0
M  END
> <DSSTox_RID>
40444

> <DSSTox_CID>
12386

> <DSSTox_Generic_SID>
32386

> <DSSTox_FileID>
121_TOXCST_v3a

> <STRUCTURE_Formula>
C13H14F3N3O4

> <STRUCTURE_MolecularWeight>
333.2632

> <STRUCTURE_ChemicalType>
defined organic

> <STRUCTURE_TestedForm_DefinedOrganic>
parent

> <STRUCTURE_Shown>
tested chemical

> <TestSubstance_ChemicalName>
Ethalfluralin

> <Source_ChemicalName>
Ethalfluralin

> <TestSubstance_CASRN>
55283-68-6

> <TestSubstance_Description>
single chemical compound

> <STRUCTURE_ChemicalName_IUPAC>
N-ethyl-N-(2-methylprop-2-en-1-yl)-2,6-dinitro-4-(trifluoromethyl)aniline

> <STRUCTURE_SMILES>
[O-][N+](C1=CC(C(F)(F)F)=CC([N+]([O-])=O)=C1N(CC)CC(C)=C)=O

> <STRUCTURE_Parent_SMILES>
[O-][N+](C1=CC(C(F)(F)F)=CC([N+]([O-])=O)=C1N(CC)CC(C)=C)=O

> <STRUCTURE_InChI>
InChI=1S/C13H14F3N3O4/c1-4-17(7-8(2)3)12-10(18(20)21)5-9(13(14,15)16)6-11(12)19(22)23/h5-6H,2,4,7H2,1,3H3

> <STRUCTURE_InChIKey>
PTFJIKYUEPWBMS-UHFFFAOYSA-N

> <Substance_modify_yyyymmdd>
20080429

> <DSSTox_CID_Parent>
12386

> <ChemicalReplicateCount>
1

> <Coord_Metals>
0

> <Index>
121

> <Canonical_Smiles>
CCN(CC(=C)C)c1c(cc(cc1N(=O)=O)C(F)(F)F)N(=O)=O

> <Molecular_Weight>
333.26316

> <Frequency>
1

$$$$

  SciTegic          2D

 46 47  0  0  0  0            999 V2000
    2.5973   -1.5031    0.0000 C   0  0
    3.6375   -0.9049    0.0000 O   0  0
    1.2990   -0.7500    0.0000 C   0  0
    2.5951   -3.0039    0.0000 O   0  0
    1.2990    0.7500    0.0000 C   0  0
    0.0000   -1.5000    0.0000 C   0  0
    0.0000    1.5000    0.0000 C   0  0
   -1.2990   -0.7500    0.0000 C   0  0
   -1.2990    0.7500    0.0000 C   0  0
    2.5988    1.5004    0.0000 S   0  0
    2.5984    2.7004    0.0000 O   0  0
    3.6377    2.1009    0.0000 O   0  0
    3.8990    0.7508    0.0000 N   0  0
    5.1988    1.5013    0.0000 C   0  0
    5.1984    2.7013    0.0000 O   0  0
    6.4990    0.7517    0.0000 N   0  0
    9.0994    0.7548    0.0000 N   0  0
    7.7987    1.5021    0.0000 C   0  0
    7.7958    3.0022    0.0000 N   0  0
    9.0933    3.7548    0.0000 C   0  0
   10.3938    3.0075    0.0000 N   0  0
   10.3969    1.5075    0.0000 C   0  0
    9.0933    5.2557    0.0000 O   0  0
   10.3926    6.0069    0.0000 C   0  0
   10.3926    7.5077    0.0000 C   0  0
   11.6997    0.7624    0.0000 N   0  0
   12.9969    1.5173    0.0000 C   0  0
    3.8933   -3.7570    0.0000 C   0  0
    0.0000   -2.5000    0.0000 H   0  0
    0.0000    2.5000    0.0000 H   0  0
   -2.1651   -1.2500    0.0000 H   0  0
   -2.1651    1.2500    0.0000 H   0  0
    3.8993   -0.2492    0.0000 H   0  0
    6.4993   -0.2483    0.0000 H   0  0
   11.2587    5.5071    0.0000 H   0  0
   10.3930    5.0069    0.0000 H   0  0
   11.2583    8.0082    0.0000 H   0  0
    9.5264    8.0074    0.0000 H   0  0
   10.3921    8.5077    0.0000 H   0  0
   11.7035   -0.2376    0.0000 H   0  0
   13.8649    1.0209    0.0000 H   0  0
   13.8609    2.0207    0.0000 H   0  0
   12.9931    2.5173    0.0000 H   0  0
    3.8919   -4.7570    0.0000 H   0  0
    4.7586   -4.2584    0.0000 H   0  0
    4.7602   -3.2585    0.0000 H   0  0
  1  2  2  0
  1  3  1  0
  1  4  1  0
  3  5  2  0
  3  6  1  0
  4 28  1  0
  5  7  1  0
  5 10  1  0
  6  8  2  0
  7  9  2  0
  8  9  1  0
 10 11  2  0
 10 12  2  0
 10 13  1  0
 13 14  1  0
 14 15  2  0
 14 16  1  0
 16 18  1  0
 17 18  2  0
 17 22  1  0
 18 19  1  0
 19 20  2  0
 20 21  1  0
 20 23  1  0
 21 22  2  0
 22 26  1  0
 23 24  1  0
 24 25  1  0
 26 27  1  0
  6 29  1  0
  7 30  1  0
  8 31  1  0
  9 32  1  0
 13 33  1  0
 16 34  1  0
 24 35  1  0
 24 36  1  0
 25 37  1  0
 25 38  1  0
 25 39  1  0
 26 40  1  0
 27 41  1  0
 27 42  1  0
 27 43  1  0
 28 44  1  0
 28 45  1  0
 28 46  1  0
M  END
> <DSSTox_RID>
40445

> <DSSTox_CID>
14573

> <DSSTox_Generic_SID>
34573

> <DSSTox_FileID>
122_TOXCST_v3a

> <STRUCTURE_Formula>
C15H18N6O6S

> <STRUCTURE_MolecularWeight>
410.405

> <STRUCTURE_ChemicalType>
defined organic

> <STRUCTURE_TestedForm_DefinedOrganic>
parent

> <STRUCTURE_Shown>
tested chemical

> <TestSubstance_ChemicalName>
Ethametsulfuron-methyl

> <Source_ChemicalName>
Ethametsulfuron methyl

> <TestSubstance_CASRN>
97780-06-8

> <TestSubstance_Description>
single chemical compound

> <STRUCTURE_ChemicalName_IUPAC>
methyl 2-[({[4-ethoxy-6-(methylamino)-1,3,5-triazin-2-yl]carbamoyl}amino)sulfonyl]benzoate

> <STRUCTURE_SMILES>
O=C(OC)C1=C(S(=O)(NC(NC2=NC(OCC)=NC(NC)=N2)=O)=O)C=CC=C1

> <STRUCTURE_Parent_SMILES>
O=C(OC)C1=C(S(=O)(NC(NC2=NC(OCC)=NC(NC)=N2)=O)=O)C=CC=C1

> <STRUCTURE_InChI>
InChI=1S/C15H18N6O6S/c1-4-27-15-19-12(16-2)17-13(20-15)18-14(23)21-28(24,25)10-8-6-5-7-9(10)11(22)26-3/h5-8H,4H2,1-3H3,(H3,16,17,18,19,20,21,23)

> <STRUCTURE_InChIKey>
ZINJLDJMHCUBIP-UHFFFAOYSA-N

> <Substance_modify_yyyymmdd>
20080429

> <DSSTox_CID_Parent>
14573

> <ChemicalReplicateCount>
1

> <Coord_Metals>
0

> <Index>
122

> <Canonical_Smiles>
CCOc1nc(NC)nc(NC(=O)NS(=O)(=O)c2ccccc2C(=O)OC)n1

> <Molecular_Weight>
410.40502

> <Frequency>
1

$$$$

  SciTegic          2D

 13 12  0  0  0  0            999 V2000
    3.9000    0.7500    0.0000 P   0  0
    2.6000    0.0000    0.0000 C   0  0
    3.9000    1.9500    0.0000 O   0  0
    5.2000    0.0000    0.0000 O   0  0
    2.5761    1.5169    0.0000 O   0  0
    0.2606    0.1503    0.0000 Cl  0  0
    1.3000    0.7500    0.0000 C   0  0
    2.6000   -1.0000    0.0000 H   0  0
    1.7340   -0.5001    0.0000 H   0  0
    6.0661    0.4997    0.0000 H   0  0
    2.5769    2.5169    0.0000 H   0  0
    1.3000    1.7500    0.0000 H   0  0
    0.4340    1.2501    0.0000 H   0  0
  1  2  1  0
  1  3  2  0
  1  4  1  0
  1  5  1  0
  2  7  1  0
  6  7  1  0
  2  8  1  0
  2  9  1  0
  4 10  1  0
  5 11  1  0
  7 12  1  0
  7 13  1  0
M  END
> <DSSTox_RID>
40446

> <DSSTox_CID>
4085

> <DSSTox_Generic_SID>
24085

> <DSSTox_FileID>
123_TOXCST_v3a

> <STRUCTURE_Formula>
C2H6ClO3P

> <STRUCTURE_MolecularWeight>
144.494

> <STRUCTURE_ChemicalType>
defined organic

> <STRUCTURE_TestedForm_DefinedOrganic>
parent

> <STRUCTURE_Shown>
tested chemical

> <TestSubstance_ChemicalName>
Ethephon

> <Source_ChemicalName>
Ethephon

> <TestSubstance_CASRN>
16672-87-0

> <TestSubstance_Description>
single chemical compound

> <STRUCTURE_ChemicalName_IUPAC>
(2-chloroethyl)phosphonic acid

> <STRUCTURE_SMILES>
ClCCP(O)(=O)O

> <STRUCTURE_Parent_SMILES>
ClCCP(O)(=O)O

> <STRUCTURE_InChI>
InChI=1S/C2H6ClO3P/c3-1-2-7(4,5)6/h1-2H2,(H2,4,5,6)

> <STRUCTURE_InChIKey>
UDPGUMQDCGORJQ-UHFFFAOYSA-N

> <Substance_modify_yyyymmdd>
20080429

> <DSSTox_CID_Parent>
4085

> <ChemicalReplicateCount>
1

> <Coord_Metals>
0

> <Index>
123

> <Canonical_Smiles>
OP(=O)(O)CCCl

> <Molecular_Weight>
144.494

> <Frequency>
1

$$$$

  SciTegic          2D

 37 38  0  0  0  0            999 V2000
   -4.9153    0.7255    0.0000 S   0  0
    1.7138    1.2033    0.0000 C   0  0
    0.2917    0.7475    0.0000 C   0  0
    1.7138   -1.2033    0.0000 O   0  0
    2.5889    0.0182    0.0000 C   0  0
    0.2917   -0.7475    0.0000 C   0  0
   -3.6217    1.4865    0.0000 O   0  0
   -4.9050   -0.4745    0.0000 O   0  0
   -3.8710    0.1342    0.0000 O   0  0
   -1.0028    1.5132    0.0000 C   0  0
   -2.3155    0.7475    0.0000 C   0  0
   -1.0028   -1.5132    0.0000 C   0  0
    3.3214   -1.2765    0.0000 O   0  0
   -6.2216    1.4644    0.0000 C   0  0
   -2.3155   -0.7475    0.0000 C   0  0
    3.1728    1.4912    0.0000 C   0  0
    0.6985    2.2904    0.0000 C   0  0
    2.5809   -2.5819    0.0000 C   0  0
    3.3404   -3.8764    0.0000 C   0  0
    3.0689    0.8955    0.0000 H   0  0
   -0.9997    2.5132    0.0000 H   0  0
   -0.9997   -2.5132    0.0000 H   0  0
   -7.0835    0.9573    0.0000 H   0  0
   -6.2301    2.4643    0.0000 H   0  0
   -7.0918    1.9571    0.0000 H   0  0
   -3.1826   -1.2456    0.0000 H   0  0
    3.8436    0.7496    0.0000 H   0  0
    4.1505    1.7012    0.0000 H   0  0
    3.4799    2.4429    0.0000 H   0  0
    1.0051    3.2423    0.0000 H   0  0
    0.0276    3.0319    0.0000 H   0  0
   -0.2791    2.0803    0.0000 H   0  0
    2.0745   -1.7196    0.0000 H   0  0
    1.5809   -2.5892    0.0000 H   0  0
    2.8470   -4.7462    0.0000 H   0  0
    3.8468   -4.7386    0.0000 H   0  0
    4.3403   -3.8691    0.0000 H   0  0
  1  7  1  0
  1  8  2  0
  1  9  2  0
  1 14  1  0
  2  3  1  0
  2  5  1  0
  2 16  1  0
  2 17  1  0
  3 10  1  0
  3  6  2  0
  4  6  1  0
  4  5  1  0
  5 13  1  0
  6 12  1  0
  7 11  1  0
 10 11  2  0
 11 15  1  0
 12 15  2  0
 13 18  1  0
 18 19  1  0
  5 20  1  0
 10 21  1  0
 12 22  1  0
 14 23  1  0
 14 24  1  0
 14 25  1  0
 15 26  1  0
 16 27  1  0
 16 28  1  0
 16 29  1  0
 17 30  1  0
 17 31  1  0
 17 32  1  0
 18 33  1  0
 18 34  1  0
 19 35  1  0
 19 36  1  0
 19 37  1  0
M  END
> <DSSTox_RID>
40447

> <DSSTox_CID>
14580

> <DSSTox_Generic_SID>
34580

> <DSSTox_FileID>
124_TOXCST_v3a

> <STRUCTURE_Formula>
C13H18O5S

> <STRUCTURE_MolecularWeight>
286.344

> <STRUCTURE_ChemicalType>
defined organic

> <STRUCTURE_TestedForm_DefinedOrganic>
parent

> <STRUCTURE_Shown>
tested chemical

> <TestSubstance_ChemicalName>
Ethofumesate

> <Source_ChemicalName>
Ethofumesate

> <TestSubstance_CASRN>
26225-79-6

> <TestSubstance_Description>
single chemical compound

> <STRUCTURE_ChemicalName_IUPAC>
2-ethoxy-3,3-dimethyl-2,3-dihydro-1-benzofuran-5-yl methanesulfonate

> <STRUCTURE_SMILES>
O=S(OC2=CC1=C(C=C2)OC(OCC)C(C)1C)(C)=O

> <STRUCTURE_Parent_SMILES>
O=S(OC2=CC1=C(C=C2)OC(OCC)C(C)1C)(C)=O

> <STRUCTURE_InChI>
InChI=1S/C13H18O5S/c1-5-16-12-13(2,3)10-8-9(18-19(4,14)15)6-7-11(10)17-12/h6-8,12H,5H2,1-4H3

> <STRUCTURE_InChIKey>
IRCMYGHHKLLGHV-UHFFFAOYSA-N

> <Substance_modify_yyyymmdd>
20080429

> <DSSTox_CID_Parent>
14580

> <ChemicalReplicateCount>
1

> <Coord_Metals>
0

> <Index>
124

> <Canonical_Smiles>
CCOC1Oc2ccc(OS(=O)(=O)C)cc2C1(C)C

> <Molecular_Weight>
286.34402

> <Frequency>
1

$$$$

  SciTegic          2D

 32 31  0  0  0  0            999 V2000
    6.5000    0.7500    0.0000 P   0  0
    6.5000    1.9500    0.0000 O   0  0
    5.2000    0.0000    0.0000 S   0  0
    7.7999    0.0000    0.0000 S   0  0
    5.1760    1.5169    0.0000 O   0  0
    5.1985   -1.5008    0.0000 C   0  0
    9.0999    0.7500    0.0000 C   0  0
    5.1773    3.0177    0.0000 C   0  0
    3.8985   -2.2508    0.0000 C   0  0
   10.3999    0.0000    0.0000 C   0  0
    3.8786    3.7700    0.0000 C   0  0
    3.8971   -3.7516    0.0000 C   0  0
   11.6999    0.7500    0.0000 C   0  0
    6.0642   -2.0014    0.0000 H   0  0
    6.0650   -1.0015    0.0000 H   0  0
    9.0999    1.7500    0.0000 H   0  0
    8.2340    1.2501    0.0000 H   0  0
    6.0428    2.5168    0.0000 H   0  0
    6.0439    3.5167    0.0000 H   0  0
    3.0328   -1.7503    0.0000 H   0  0
    3.0321   -2.7501    0.0000 H   0  0
   10.3999   -1.0000    0.0000 H   0  0
    9.5340   -0.5001    0.0000 H   0  0
    3.8794    4.7700    0.0000 H   0  0
    3.0131    4.2708    0.0000 H   0  0
    3.0120    3.2710    0.0000 H   0  0
    3.0309   -4.2514    0.0000 H   0  0
    4.7628   -4.2522    0.0000 H   0  0
    3.8966   -4.7516    0.0000 H   0  0
   12.5661    0.2503    0.0000 H   0  0
   11.6999    1.7500    0.0000 H   0  0
   12.5659    1.2501    0.0000 H   0  0
  1  2  2  0
  1  3  1  0
  1  4  1  0
  1  5  1  0
  3  6  1  0
  4  7  1  0
  5  8  1  0
  6  9  1  0
  7 10  1  0
  8 11  1  0
  9 12  1  0
 10 13  1  0
  6 14  1  0
  6 15  1  0
  7 16  1  0
  7 17  1  0
  8 18  1  0
  8 19  1  0
  9 20  1  0
  9 21  1  0
 10 22  1  0
 10 23  1  0
 11 24  1  0
 11 25  1  0
 11 26  1  0
 12 27  1  0
 12 28  1  0
 12 29  1  0
 13 30  1  0
 13 31  1  0
 13 32  1  0
M  END
> <DSSTox_RID>
40448

> <DSSTox_CID>
12611

> <DSSTox_Generic_SID>
32611

> <DSSTox_FileID>
125_TOXCST_v3a

> <STRUCTURE_Formula>
C8H19O2PS2

> <STRUCTURE_MolecularWeight>
242.339

> <STRUCTURE_ChemicalType>
defined organic

> <STRUCTURE_TestedForm_DefinedOrganic>
parent

> <STRUCTURE_Shown>
tested chemical

> <TestSubstance_ChemicalName>
Ethoprophos

> <Source_ChemicalName>
Ethoprop

> <TestSubstance_CASRN>
13194-48-4

> <TestSubstance_Description>
single chemical compound

> <STRUCTURE_ChemicalName_IUPAC>
O-ethyl S,S-dipropyl dithiophosphate

> <STRUCTURE_SMILES>
O=P(SCCC)(OCC)SCCC

> <STRUCTURE_Parent_SMILES>
O=P(SCCC)(OCC)SCCC

> <STRUCTURE_InChI>
InChI=1S/C8H19O2PS2/c1-4-7-12-11(9,10-6-3)13-8-5-2/h4-8H2,1-3H3

> <STRUCTURE_InChIKey>
VJYFKVYYMZPMAB-UHFFFAOYSA-N

> <Substance_modify_yyyymmdd>
20080429

> <DSSTox_CID_Parent>
12611

> <ChemicalReplicateCount>
1

> <Coord_Metals>
0

> <Index>
125

> <Canonical_Smiles>
CCCSP(=O)(OCC)SCCC

> <Molecular_Weight>
242.33902

> <Frequency>
1

$$$$

  SciTegic          2D

 12 12  0  0  0  0            999 V2000
    1.4553   -2.0031    0.0000 S   0  0
    0.7500   -1.0323    0.0000 C   0  0
    1.2135    0.3943    0.0000 N   0  0
    0.0000    1.2760    0.0000 C   0  0
   -1.2135    0.3943    0.0000 C   0  0
   -0.7500   -1.0323    0.0000 N   0  0
    2.1646    0.7033    0.0000 H   0  0
   -0.8734    1.7629    0.0000 H   0  0
    0.8733    1.7631    0.0000 H   0  0
   -1.4068    1.3754    0.0000 H   0  0
   -1.9467   -0.2858    0.0000 H   0  0
   -1.3378   -1.8413    0.0000 H   0  0
  1  2  2  0
  2  3  1  0
  2  6  1  0
  3  4  1  0
  4  5  1  0
  5  6  1  0
  3  7  1  0
  4  8  1  0
  4  9  1  0
  5 10  1  0
  5 11  1  0
  6 12  1  0
M  END
> <DSSTox_RID>
40451

> <DSSTox_CID>
601

> <DSSTox_Generic_SID>
20601

> <DSSTox_FileID>
126_TOXCST_v3a

> <STRUCTURE_Formula>
C3H6N2S

> <STRUCTURE_MolecularWeight>
102.1581

> <STRUCTURE_ChemicalType>
defined organic

> <STRUCTURE_TestedForm_DefinedOrganic>
parent

> <STRUCTURE_Shown>
tested chemical

> <TestSubstance_ChemicalName>
Ethylenethiourea

> <Source_ChemicalName>
Ethylenethiourea

> <TestSubstance_CASRN>
96-45-7

> <TestSubstance_Description>
single chemical compound

> <STRUCTURE_ChemicalName_IUPAC>
imidazolidine-2-thione

> <STRUCTURE_SMILES>
S=C1NCCN1

> <STRUCTURE_Parent_SMILES>
S=C1NCCN1

> <STRUCTURE_InChI>
InChI=1S/C3H6N2S/c6-3-4-1-2-5-3/h1-2H2,(H2,4,5,6)

> <STRUCTURE_InChIKey>
PDQAZBWRQCGBEV-UHFFFAOYSA-N

> <Substance_modify_yyyymmdd>
20080429

> <DSSTox_CID_Parent>
601

> <ChemicalReplicateCount>
1

> <Relationship_CID>
ETU metabolite of parent0 794; metabolite of parent0 14695; metabolite of parent0 1465

> <Coord_Metals>
0

> <Index>
126

> <Canonical_Smiles>
S=C1NCCN1

> <Molecular_Weight>
102.15814

> <Frequency>
1

$$$$

  SciTegic          2D

 49 51  0  0  0  0            999 V2000
    3.9511   -0.8815    0.0000 N   0  0
    2.5987   -1.5004    0.0000 C   0  0
    2.7343   -2.9815    0.0000 O   0  0
    4.9531   -1.9978    0.0000 C   0  0
    4.2010   -3.2956    0.0000 C   0  0
    1.2990   -0.7500    0.0000 C   0  0
    1.2990    0.7500    0.0000 C   0  0
    0.0000   -1.5000    0.0000 C   0  0
    0.0000    1.5000    0.0000 C   0  0
   -1.2990   -0.7500    0.0000 C   0  0
   -1.2990    0.7500    0.0000 C   0  0
    2.3383    1.3500    0.0000 F   0  0
    0.0000   -2.7000    0.0000 F   0  0
    5.5397   -0.6311    0.0000 C   0  0
    7.0293   -0.4543    0.0000 C   0  0
    4.6419    0.5705    0.0000 C   0  0
    7.6210    0.9241    0.0000 C   0  0
    5.2336    1.9489    0.0000 C   0  0
    6.7231    2.1257    0.0000 C   0  0
    6.8077    3.6241    0.0000 C   0  0
    8.1473    4.3009    0.0000 C   0  0
    5.5521    4.4462    0.0000 C   0  0
    8.0862    2.7837    0.0000 C   0  0
    7.9301   -1.6547    0.0000 O   0  0
    9.4202   -1.4757    0.0000 C   0  0
   10.3211   -2.6761    0.0000 C   0  0
    5.5275   -2.8164    0.0000 H   0  0
    5.1968   -3.3868    0.0000 H   0  0
    3.6000   -4.0949    0.0000 H   0  0
    0.0000    2.5000    0.0000 H   0  0
   -2.1651   -1.2500    0.0000 H   0  0
   -2.1651    1.2500    0.0000 H   0  0
    3.6488    0.4527    0.0000 H   0  0
    8.6140    1.0420    0.0000 H   0  0
    4.6350    2.7500    0.0000 H   0  0
    8.2036    5.2993    0.0000 H   0  0
    8.9839    3.7532    0.0000 H   0  0
    9.0400    4.7515    0.0000 H   0  0
    5.6076    5.4446    0.0000 H   0  0
    4.6596    3.9952    0.0000 H   0  0
    4.7152    4.9936    0.0000 H   0  0
    8.0288    1.7853    0.0000 H   0  0
    8.9220    2.2347    0.0000 H   0  0
    8.9796    3.2330    0.0000 H   0  0
    9.8131   -0.5561    0.0000 H   0  0
    8.8204   -0.6756    0.0000 H   0  0
   11.3139   -2.5568    0.0000 H   0  0
    9.9282   -3.5957    0.0000 H   0  0
   10.9209   -3.4762    0.0000 H   0  0
  1  2  2  0
  1  4  1  0
  2  3  1  0
  2  6  1  0
  3  5  1  0
  4  5  1  0
  4 14  1  0
  6  7  2  0
  6  8  1  0
  7  9  1  0
  7 12  1  0
  8 10  2  0
  8 13  1  0
  9 11  2  0
 10 11  1  0
 14 15  2  0
 14 16  1  0
 15 17  1  0
 15 24  1  0
 16 18  2  0
 17 19  2  0
 18 19  1  0
 19 20  1  0
 20 21  1  0
 20 22  1  0
 20 23  1  0
 24 25  1  0
 25 26  1  0
  4 27  1  0
  5 28  1  0
  5 29  1  0
  9 30  1  0
 10 31  1  0
 11 32  1  0
 16 33  1  0
 17 34  1  0
 18 35  1  0
 21 36  1  0
 21 37  1  0
 21 38  1  0
 22 39  1  0
 22 40  1  0
 22 41  1  0
 23 42  1  0
 23 43  1  0
 23 44  1  0
 25 45  1  0
 25 46  1  0
 26 47  1  0
 26 48  1  0
 26 49  1  0
M  END
> <DSSTox_RID>
40452

> <DSSTox_CID>
14586

> <DSSTox_Generic_SID>
34586

> <DSSTox_FileID>
127_TOXCST_v3a

> <STRUCTURE_Formula>
C21H23F2NO2

> <STRUCTURE_MolecularWeight>
359.4096

> <STRUCTURE_ChemicalType>
defined organic

> <STRUCTURE_TestedForm_DefinedOrganic>
parent

> <STRUCTURE_Shown>
tested chemical

> <TestSubstance_ChemicalName>
Etoxazole

> <Source_ChemicalName>
Etoxazole

> <TestSubstance_CASRN>
153233-91-1

> <TestSubstance_Description>
single chemical compound

> <STRUCTURE_ChemicalName_IUPAC>
4-(4-tert-butyl-2-ethoxyphenyl)-2-(2,6-difluorophenyl)-4,5-dihydro-1,3-oxazole

> <STRUCTURE_SMILES>
FC2=C(C(F)=CC=C2)C1=NC(C3=C(OCC)C=C(C(C)(C)C)C=C3)CO1

> <STRUCTURE_Parent_SMILES>
FC2=C(C(F)=CC=C2)C1=NC(C3=C(OCC)C=C(C(C)(C)C)C=C3)CO1

> <STRUCTURE_InChI>
InChI=1S/C21H23F2NO2/c1-5-25-18-11-13(21(2,3)4)9-10-14(18)17-12-26-20(24-17)19-15(22)7-6-8-16(19)23/h6-11,17H,5,12H2,1-4H3

> <STRUCTURE_InChIKey>
IXSZQYVWNJNRAL-UHFFFAOYSA-N

> <Substance_modify_yyyymmdd>
20080429

> <DSSTox_CID_Parent>
14586

> <ChemicalReplicateCount>
1

> <Coord_Metals>
0

> <Index>
127

> <Canonical_Smiles>
CCOc1cc(ccc1C2COC(=N2)c3c(F)cccc3F)C(C)(C)C

> <Molecular_Weight>
359.40962

> <Frequency>
1

$$$$

  SciTegic          2D

 17 17  0  0  0  0            999 V2000
    2.8242   -2.1197    0.0000 Cl  0  0
    1.6307   -2.2444    0.0000 C   0  0
    0.7500   -1.0323    0.0000 C   0  0
    1.2135    0.3943    0.0000 N   0  0
    0.0000    1.2760    0.0000 S   0  0
   -1.2135    0.3943    0.0000 C   0  0
   -0.7500   -1.0323    0.0000 N   0  0
   -2.6394    0.8543    0.0000 O   0  0
   -3.7533   -0.1515    0.0000 C   0  0
   -5.1816    0.3093    0.0000 C   0  0
    1.1422   -3.3405    0.0000 Cl  0  0
    2.3355   -3.2155    0.0000 Cl  0  0
   -3.5437   -1.1293    0.0000 H   0  0
   -2.8017   -0.4590    0.0000 H   0  0
   -5.9238   -0.3609    0.0000 H   0  0
   -5.3913    1.2870    0.0000 H   0  0
   -6.1332    0.6168    0.0000 H   0  0
  1  2  1  0
  2  3  1  0
  2 11  1  0
  2 12  1  0
  3  4  2  0
  3  7  1  0
  4  5  1  0
  5  6  1  0
  6  7  2  0
  6  8  1  0
  8  9  1  0
  9 10  1  0
  9 13  1  0
  9 14  1  0
 10 15  1  0
 10 16  1  0
 10 17  1  0
M  END
> <DSSTox_RID>
40453

> <DSSTox_CID>
12547

> <DSSTox_Generic_SID>
32547

> <DSSTox_FileID>
128_TOXCST_v3a

> <STRUCTURE_Formula>
C5H5Cl3N2OS

> <STRUCTURE_MolecularWeight>
247.53

> <STRUCTURE_ChemicalType>
defined organic

> <STRUCTURE_TestedForm_DefinedOrganic>
parent

> <STRUCTURE_Shown>
tested chemical

> <TestSubstance_ChemicalName>
Etridiazole

> <Source_ChemicalName>
Etridiazole

> <TestSubstance_CASRN>
2593-15-9

> <TestSubstance_Description>
single chemical compound

> <STRUCTURE_ChemicalName_IUPAC>
5-ethoxy-3-(trichloromethyl)-1,2,4-thiadiazole

> <STRUCTURE_SMILES>
ClC(Cl)(Cl)C1=NSC(OCC)=N1

> <STRUCTURE_Parent_SMILES>
ClC(Cl)(Cl)C1=NSC(OCC)=N1

> <STRUCTURE_InChI>
InChI=1S/C5H5Cl3N2OS/c1-2-11-4-9-3(10-12-4)5(6,7)8/h2H2,1H3

> <STRUCTURE_InChIKey>
KQTVWCSONPJJPE-UHFFFAOYSA-N

> <Substance_modify_yyyymmdd>
20080429

> <DSSTox_CID_Parent>
12547

> <ChemicalReplicateCount>
1

> <Coord_Metals>
0

> <Index>
128

> <Canonical_Smiles>
CCOc1nc(ns1)C(Cl)(Cl)Cl

> <Molecular_Weight>
247.52999

> <Frequency>
1

$$$$

  SciTegic          2D

 46 49  0  0  0  0            999 V2000
    4.1696    0.2662    0.0000 N   0  0
    4.9175   -1.0340    0.0000 C   0  0
    2.7019   -0.0432    0.0000 C   0  0
    3.9119   -2.1471    0.0000 O   0  0
    2.5978   -1.5030    0.0000 C   0  0
    6.1107   -1.1615    0.0000 O   0  0
    1.9482    0.6140    0.0000 O   0  0
    2.5955   -3.0038    0.0000 C   0  0
    1.1198   -1.2396    0.0000 C   0  0
    0.6068    0.1699    0.0000 C   0  0
    0.1556   -2.3887    0.0000 C   0  0
   -0.8704    0.4304    0.0000 C   0  0
   -1.3216   -2.1282    0.0000 C   0  0
   -1.8346   -0.7187    0.0000 C   0  0
   -3.3132   -0.4611    0.0000 O   0  0
   -4.2762   -1.6122    0.0000 C   0  0
   -5.7544   -1.3569    0.0000 C   0  0
   -3.7584   -3.0200    0.0000 C   0  0
   -6.7146   -2.5093    0.0000 C   0  0
   -4.7186   -4.1724    0.0000 C   0  0
   -6.1967   -3.9171    0.0000 C   0  0
    4.7784    1.6352    0.0000 N   0  0
    6.2709    1.7937    0.0000 C   0  0
    6.8824    3.1634    0.0000 C   0  0
    7.1515    0.5793    0.0000 C   0  0
    8.3744    3.3187    0.0000 C   0  0
    8.6434    0.7346    0.0000 C   0  0
    9.2549    2.1043    0.0000 C   0  0
    3.4605   -3.5057    0.0000 H   0  0
    2.5935   -4.0038    0.0000 H   0  0
    1.7286   -3.5022    0.0000 H   0  0
    1.2496    0.9360    0.0000 H   0  0
    0.4977   -3.3284    0.0000 H   0  0
   -1.2124    1.3701    0.0000 H   0  0
   -1.9643   -2.8943    0.0000 H   0  0
   -6.0997   -0.4184    0.0000 H   0  0
   -2.7730   -3.1903    0.0000 H   0  0
   -7.7000   -2.3391    0.0000 H   0  0
   -4.3733   -5.1109    0.0000 H   0  0
   -6.8368   -4.6853    0.0000 H   0  0
    4.1901    2.4438    0.0000 H   0  0
    6.2955    3.9730    0.0000 H   0  0
    6.7439   -0.3339    0.0000 H   0  0
    8.7820    4.2319    0.0000 H   0  0
    9.2304   -0.0750    0.0000 H   0  0
   10.2495    2.2079    0.0000 H   0  0
  1  2  1  0
  1  3  1  0
  1 22  1  0
  2  4  1  0
  2  6  2  0
  3  5  1  0
  3  7  2  0
  4  5  1  0
  5  8  1  0
  5  9  1  0
  9 10  2  0
  9 11  1  0
 10 12  1  0
 11 13  2  0
 12 14  2  0
 13 14  1  0
 14 15  1  0
 15 16  1  0
 16 17  2  0
 16 18  1  0
 17 19  1  0
 18 20  2  0
 19 21  2  0
 20 21  1  0
 22 23  1  0
 23 24  2  0
 23 25  1  0
 24 26  1  0
 25 27  2  0
 26 28  2  0
 27 28  1  0
  8 29  1  0
  8 30  1  0
  8 31  1  0
 10 32  1  0
 11 33  1  0
 12 34  1  0
 13 35  1  0
 17 36  1  0
 18 37  1  0
 19 38  1  0
 20 39  1  0
 21 40  1  0
 22 41  1  0
 24 42  1  0
 25 43  1  0
 26 44  1  0
 27 45  1  0
 28 46  1  0
M  END
> <DSSTox_RID>
40454

> <DSSTox_CID>
14588

> <DSSTox_Generic_SID>
34588

> <DSSTox_FileID>
129_TOXCST_v3a

> <STRUCTURE_Formula>
C22H18N2O4

> <STRUCTURE_MolecularWeight>
374.3893

> <STRUCTURE_ChemicalType>
defined organic

> <STRUCTURE_TestedForm_DefinedOrganic>
parent

> <STRUCTURE_Shown>
tested chemical

> <TestSubstance_ChemicalName>
Famoxadone

> <Source_ChemicalName>
Famoxadone

> <TestSubstance_CASRN>
131807-57-3

> <TestSubstance_Description>
single chemical compound

> <STRUCTURE_ChemicalName_IUPAC>
3-anilino-5-methyl-5-(4-phenoxyphenyl)-1,3-oxazolidine-2,4-dione

> <STRUCTURE_SMILES>
O=C(OC(C2=CC=C(OC3=CC=CC=C3)C=C2)1C)N(NC4=CC=CC=C4)C1=O

> <STRUCTURE_Parent_SMILES>
O=C(OC(C2=CC=C(OC3=CC=CC=C3)C=C2)1C)N(NC4=CC=CC=C4)C1=O

> <STRUCTURE_InChI>
InChI=1S/C22H18N2O4/c1-22(16-12-14-19(15-13-16)27-18-10-6-3-7-11-18)20(25)24(21(26)28-22)23-17-8-4-2-5-9-17/h2-15,23H,1H3

> <STRUCTURE_InChIKey>
PCCSBWNGDMYFCW-UHFFFAOYSA-N

> <Substance_modify_yyyymmdd>
20080429

> <DSSTox_CID_Parent>
14588

> <ChemicalReplicateCount>
1

> <Coord_Metals>
0

> <Index>
129

> <Canonical_Smiles>
CC1(OC(=O)N(Nc2ccccc2)C1=O)c3ccc(Oc4ccccc4)cc3

> <Molecular_Weight>
374.38932

> <Frequency>
1

$$$$

  SciTegic          2D

 39 41  0  0  0  0            999 V2000
    2.5951   -3.0039    0.0000 N   0  0
    3.3372   -5.2929    0.0000 N   0  0
    3.8056   -3.8679    0.0000 C   0  0
    1.3786   -3.8595    0.0000 C   0  0
    1.8372   -5.2877    0.0000 C   0  0
    0.2409   -3.4780    0.0000 O   0  0
    2.5973   -1.5031    0.0000 N   0  0
    1.2990   -0.7500    0.0000 C   0  0
    1.2990    0.7500    0.0000 C   0  0
    0.0000   -1.5000    0.0000 C   0  0
    0.0000    1.5000    0.0000 C   0  0
   -1.2990   -0.7500    0.0000 C   0  0
   -1.2990    0.7500    0.0000 C   0  0
    2.4592   -6.6389    0.0000 C   0  0
    5.2295   -3.4020    0.0000 S   0  0
    6.3477   -4.4031    0.0000 C   0  0
    0.3868   -5.6197    0.0000 C   0  0
   -0.0544   -7.0533    0.0000 C   0  0
   -0.6341   -4.5207    0.0000 C   0  0
   -1.5166   -7.3880    0.0000 C   0  0
   -2.0963   -4.8554    0.0000 C   0  0
   -2.5375   -6.2890    0.0000 C   0  0
    3.4642   -1.0046    0.0000 H   0  0
    2.1651    1.2500    0.0000 H   0  0
    0.0000   -2.5000    0.0000 H   0  0
    0.0000    2.5000    0.0000 H   0  0
   -2.1651   -1.2500    0.0000 H   0  0
   -2.1651    1.2500    0.0000 H   0  0
    3.4533   -6.7473    0.0000 H   0  0
    2.8625   -7.5540    0.0000 H   0  0
    1.8685   -7.4458    0.0000 H   0  0
    7.2980   -4.0920    0.0000 H   0  0
    6.1422   -5.3818    0.0000 H   0  0
    7.0923   -5.0705    0.0000 H   0  0
    0.6262   -7.7859    0.0000 H   0  0
   -0.3400   -3.5650    0.0000 H   0  0
   -1.8108   -8.3437    0.0000 H   0  0
   -2.7769   -4.1228    0.0000 H   0  0
   -3.5123   -6.5122    0.0000 H   0  0
  1  3  1  0
  1  4  1  0
  1  7  1  0
  2  3  2  0
  2  5  1  0
  3 15  1  0
  4  5  1  0
  4  6  2  0
  5 14  1  0
  5 17  1  0
  7  8  1  0
  8  9  2  0
  8 10  1  0
  9 11  1  0
 10 12  2  0
 11 13  2  0
 12 13  1  0
 15 16  1  0
 17 18  2  0
 17 19  1  0
 18 20  1  0
 19 21  2  0
 20 22  2  0
 21 22  1  0
  7 23  1  0
  9 24  1  0
 10 25  1  0
 11 26  1  0
 12 27  1  0
 13 28  1  0
 14 29  1  0
 14 30  1  0
 14 31  1  0
 16 32  1  0
 16 33  1  0
 16 34  1  0
 18 35  1  0
 19 36  1  0
 20 37  1  0
 21 38  1  0
 22 39  1  0
M  END
> <DSSTox_RID>
40455

> <DSSTox_CID>
14590

> <DSSTox_Generic_SID>
34590

> <DSSTox_FileID>
130_TOXCST_v3a

> <STRUCTURE_Formula>
C17H17N3OS

> <STRUCTURE_MolecularWeight>
311.4014

> <STRUCTURE_ChemicalType>
defined organic

> <STRUCTURE_TestedForm_DefinedOrganic>
parent

> <STRUCTURE_Shown>
tested chemical

> <TestSubstance_ChemicalName>
Fenamidone

> <Source_ChemicalName>
Fenamidone

> <TestSubstance_CASRN>
161326-34-7

> <TestSubstance_Description>
single chemical compound

> <ChemicalNote>
stereochem

> <STRUCTURE_ChemicalName_IUPAC>
(5S)-3-anilino-5-methyl-2-(methylthio)-5-phenyl-3,5-dihydro-4H-imidazol-4-one

> <STRUCTURE_SMILES>
O=C1N(NC2=CC=CC=C2)C(SC)=N[C@@]([C@@]3=CC=CC=C3)1C

> <STRUCTURE_Parent_SMILES>
O=C1N(NC2=CC=CC=C2)C(SC)=N[C@@]([C@@]3=CC=CC=C3)1C

> <STRUCTURE_InChI>
InChI=1S/C17H17N3OS/c1-17(13-9-5-3-6-10-13)15(21)20(16(18-17)22-2)19-14-11-7-4-8-12-14/h3-12,19H,1-2H3/t17-/m0/s1

> <STRUCTURE_InChIKey>
LMVPQMGRYSRMIW-KRWDZBQOSA-N

> <Substance_modify_yyyymmdd>
20080429

> <DSSTox_CID_Parent>
14590

> <ChemicalReplicateCount>
1

> <Coord_Metals>
0

> <Index>
130

> <Canonical_Smiles>
CSC1=NC(C)(C(=O)N1Nc2ccccc2)c3ccccc3

> <Molecular_Weight>
311.40138

> <Frequency>
1

$$$$

  SciTegic          2D

 41 41  0  0  0  0            999 V2000
   -1.3039    3.7494    0.0000 P   0  0
   -1.3070    5.2502    0.0000 N   0  0
   -0.0031    3.0008    0.0000 O   0  0
   -2.3421    3.1476    0.0000 O   0  0
    1.2990   -0.7500    0.0000 C   0  0
    0.0000   -1.5000    0.0000 C   0  0
    1.2990    0.7500    0.0000 C   0  0
    0.0000    1.5000    0.0000 C   0  0
    0.0211    4.5142    0.0000 O   0  0
   -1.2990   -0.7500    0.0000 C   0  0
   -0.0031   -3.0008    0.0000 S   0  0
   -1.2990    0.7500    0.0000 C   0  0
   -2.6078    5.9988    0.0000 C   0  0
    2.5988   -1.5004    0.0000 C   0  0
   -1.3039   -3.7494    0.0000 C   0  0
    1.3213    3.7644    0.0000 C   0  0
   -2.6109    7.4996    0.0000 C   0  0
   -3.9062    5.2461    0.0000 C   0  0
    2.6211    4.5146    0.0000 C   0  0
   -0.4419    5.7517    0.0000 H   0  0
    2.1651    1.2500    0.0000 H   0  0
   -2.1651   -1.2500    0.0000 H   0  0
   -2.1651    1.2500    0.0000 H   0  0
   -1.7427    6.5003    0.0000 H   0  0
    3.4651   -1.0010    0.0000 H   0  0
    2.5985   -2.5004    0.0000 H   0  0
    3.4646   -2.0008    0.0000 H   0  0
   -1.3060   -4.7494    0.0000 H   0  0
   -2.1691   -3.2479    0.0000 H   0  0
   -2.1709   -4.2478    0.0000 H   0  0
    1.3214    2.7644    0.0000 H   0  0
    0.4554    3.2641    0.0000 H   0  0
   -3.4777    7.9983    0.0000 H   0  0
   -1.7458    8.0011    0.0000 H   0  0
   -2.6125    8.4996    0.0000 H   0  0
   -3.9051    4.2461    0.0000 H   0  0
   -4.7730    5.7449    0.0000 H   0  0
   -4.7716    4.7450    0.0000 H   0  0
    3.4874    4.0150    0.0000 H   0  0
    2.6210    5.5146    0.0000 H   0  0
    3.4870    5.0149    0.0000 H   0  0
  1  2  1  0
  1  3  1  0
  1  4  2  0
  1  9  1  0
  2 13  1  0
  3  8  1  0
  5  7  2  0
  5 14  1  0
  5  6  1  0
  6 10  2  0
  6 11  1  0
  7  8  1  0
  8 12  2  0
  9 16  1  0
 10 12  1  0
 11 15  1  0
 13 17  1  0
 13 18  1  0
 16 19  1  0
  2 20  1  0
  7 21  1  0
 10 22  1  0
 12 23  1  0
 13 24  1  0
 14 25  1  0
 14 26  1  0
 14 27  1  0
 15 28  1  0
 15 29  1  0
 15 30  1  0
 16 31  1  0
 16 32  1  0
 17 33  1  0
 17 34  1  0
 17 35  1  0
 18 36  1  0
 18 37  1  0
 18 38  1  0
 19 39  1  0
 19 40  1  0
 19 41  1  0
M  END
> <DSSTox_RID>
40456

> <DSSTox_CID>
4102

> <DSSTox_Generic_SID>
24102

> <DSSTox_FileID>
131_TOXCST_v3a

> <STRUCTURE_Formula>
C13H22NO3PS

> <STRUCTURE_MolecularWeight>
303.3574

> <STRUCTURE_ChemicalType>
defined organic

> <STRUCTURE_TestedForm_DefinedOrganic>
parent

> <STRUCTURE_Shown>
tested chemical

> <TestSubstance_ChemicalName>
Fenamiphos

> <Source_ChemicalName>
Fenamiphos

> <TestSubstance_CASRN>
22224-92-6

> <TestSubstance_Description>
single chemical compound

> <STRUCTURE_ChemicalName_IUPAC>
ethyl 3-methyl-4-(methylthio)phenyl isopropylamidophosphate

> <STRUCTURE_SMILES>
Cc1cc(ccc1SC)OP(=O)(NC(C)C)OCC

> <STRUCTURE_Parent_SMILES>
Cc1cc(ccc1SC)OP(=O)(NC(C)C)OCC

> <STRUCTURE_InChI>
InChI=1S/C13H22NO3PS/c1-6-16-18(15,14-10(2)3)17-12-7-8-13(19-5)11(4)9-12/h7-10H,6H2,1-5H3,(H,14,15)

> <STRUCTURE_InChIKey>
ZCJPOPBZHLUFHF-UHFFFAOYSA-N

> <Substance_modify_yyyymmdd>
20080429

> <DSSTox_CID_Parent>
4102

> <ChemicalReplicateCount>
1

> <Coord_Metals>
0

> <Index>
131

> <Canonical_Smiles>
CCOP(=O)(NC(C)C)Oc1ccc(SC)c(C)c1

> <Molecular_Weight>
303.35744

> <Frequency>
1

$$$$

  SciTegic          2D

 34 36  0  0  0  0            999 V2000
    3.4468   -1.4695    0.0000 C   0  0
    2.1471   -2.2199    0.0000 C   0  0
    3.4478    0.0313    0.0000 C   0  0
    4.7463   -2.2203    0.0000 C   0  0
    1.1829   -1.0709    0.0000 C   0  0
    3.9006    2.5896    0.0000 N   0  0
    5.8897    0.9184    0.0000 N   0  0
    5.3776    2.3282    0.0000 C   0  0
    6.0456   -1.4707    0.0000 C   0  0
    4.7458   -3.7203    0.0000 C   0  0
    2.1235   -0.7016    0.0000 O   0  0
    4.9248   -0.2301    0.0000 C   0  0
    2.9356    1.4412    0.0000 C   0  0
    7.3439   -3.7211    0.0000 C   0  0
    1.5933    0.0568    0.0000 Cl  0  0
    6.0446   -4.4707    0.0000 C   0  0
    7.3444   -2.2211    0.0000 C   0  0
    8.3829   -4.3214    0.0000 Cl  0  0
    1.6341   -3.6295    0.0000 C   0  0
   -0.2943   -1.3313    0.0000 C   0  0
    0.1568   -3.8899    0.0000 C   0  0
   -0.8073   -2.7409    0.0000 C   0  0
    6.0209    3.0939    0.0000 H   0  0
    6.0459   -0.4707    0.0000 H   0  0
    3.8796   -4.2200    0.0000 H   0  0
    2.1251    0.2984    0.0000 H   0  0
    5.2663   -1.1700    0.0000 H   0  0
    1.9509    1.6154    0.0000 H   0  0
    6.0443   -5.4707    0.0000 H   0  0
    8.2106   -1.7214    0.0000 H   0  0
    2.2768   -4.3955    0.0000 H   0  0
   -0.9371   -0.5653    0.0000 H   0  0
   -0.1852   -4.8296    0.0000 H   0  0
   -1.7921   -2.9145    0.0000 H   0  0
  1  2  1  0
  1  3  1  0
  1  4  1  0
  1 11  1  0
  2  5  1  0
  2 19  2  0
  3 12  2  0
  3 13  1  0
  4  9  2  0
  4 10  1  0
  5 15  1  0
  5 20  2  0
  6 13  2  0
  6  8  1  0
  7 12  1  0
  7  8  2  0
  9 17  1  0
 10 16  2  0
 14 16  1  0
 14 18  1  0
 14 17  2  0
 19 21  1  0
 20 22  1  0
 21 22  2  0
  8 23  1  0
  9 24  1  0
 10 25  1  0
 11 26  1  0
 12 27  1  0
 13 28  1  0
 16 29  1  0
 17 30  1  0
 19 31  1  0
 20 32  1  0
 21 33  1  0
 22 34  1  0
M  END
> <DSSTox_RID>
40457

> <DSSTox_CID>
12390

> <DSSTox_Generic_SID>
32390

> <DSSTox_FileID>
132_TOXCST_v3a

> <STRUCTURE_Formula>
C17H12Cl2N2O

> <STRUCTURE_MolecularWeight>
331.196

> <STRUCTURE_ChemicalType>
defined organic

> <STRUCTURE_TestedForm_DefinedOrganic>
parent

> <STRUCTURE_Shown>
tested chemical

> <TestSubstance_ChemicalName>
Fenarimol

> <Source_ChemicalName>
Fenarimol

> <TestSubstance_CASRN>
60168-88-9

> <TestSubstance_Description>
single chemical compound

> <ChemicalNote>
mixture of (R,S) isomers; structure shown without stereochem

> <STRUCTURE_ChemicalName_IUPAC>
(2-chlorophenyl)(4-chlorophenyl)pyrimidin-5-ylmethanol

> <STRUCTURE_SMILES>
OC(C2=CN=CN=C2)(C3=CC=C(Cl)C=C3)C1=CC=CC=C1Cl

> <STRUCTURE_Parent_SMILES>
OC(C2=CN=CN=C2)(C3=CC=C(Cl)C=C3)C1=CC=CC=C1Cl

> <STRUCTURE_InChI>
InChI=1S/C17H12Cl2N2O/c18-14-7-5-12(6-8-14)17(22,13-9-20-11-21-10-13)15-3-1-2-4-16(15)19/h1-11,22H

> <STRUCTURE_InChIKey>
NHOWDZOIZKMVAI-UHFFFAOYSA-N

> <Substance_modify_yyyymmdd>
20080429

> <DSSTox_CID_Parent>
12390

> <ChemicalReplicateCount>
1

> <Coord_Metals>
0

> <Index>
132

> <Canonical_Smiles>
OC(c1ccc(Cl)cc1)(c2cncnc2)c3ccccc3Cl

> <Molecular_Weight>
331.19598

> <Frequency>
1

$$$$

  SciTegic          2D

 41 43  0  0  0  0            999 V2000
    3.8230    4.0494    0.0000 Cl  0  0
    2.6412    4.2577    0.0000 C   0  0
    1.6771    3.1087    0.0000 C   0  0
    0.1999    3.3691    0.0000 C   0  0
   -0.3132    4.7787    0.0000 C   0  0
    0.6510    5.9277    0.0000 C   0  0
    2.1282    5.6673    0.0000 C   0  0
   -1.7912    5.0393    0.0000 C   0  0
   -2.7566    3.8902    0.0000 C   0  0
   -4.2347    4.1508    0.0000 C   0  0
   -5.1990    3.0008    0.0000 C   0  0
   -5.1985    1.5008    0.0000 C   0  0
   -6.4973    0.7504    0.0000 C   0  0
   -7.7966    1.5000    0.0000 C   0  0
   -7.7970    3.0000    0.0000 C   0  0
   -6.4982    3.7504    0.0000 C   0  0
   -3.7103    2.7135    0.0000 C   0  0
   -3.2990    1.5862    0.0000 N   0  0
   -4.7489    5.5608    0.0000 C   0  0
   -6.2269    5.8214    0.0000 N   0  0
   -7.2843    4.7756    0.0000 N   0  0
   -8.6087    5.4798    0.0000 C   0  0
   -8.3483    6.9570    0.0000 N   0  0
   -6.8629    7.1658    0.0000 C   0  0
    2.0191    2.1690    0.0000 H   0  0
   -0.4429    2.6031    0.0000 H   0  0
    0.3090    6.8674    0.0000 H   0  0
    2.7710    6.4333    0.0000 H   0  0
   -2.1329    5.9791    0.0000 H   0  0
   -1.1483    5.8052    0.0000 H   0  0
   -2.4149    2.9504    0.0000 H   0  0
   -1.7719    3.7161    0.0000 H   0  0
   -4.3323    1.0011    0.0000 H   0  0
   -6.4970   -0.2496    0.0000 H   0  0
   -8.6624    0.9997    0.0000 H   0  0
   -8.6632    3.4997    0.0000 H   0  0
   -6.4986    4.7504    0.0000 H   0  0
   -4.1063    6.3270    0.0000 H   0  0
   -5.0911    6.5004    0.0000 H   0  0
   -9.5075    5.0414    0.0000 H   0  0
   -6.3881    8.0459    0.0000 H   0  0
  1  2  1  0
  2  3  1  0
  2  7  2  0
  3  4  2  0
  4  5  1  0
  5  6  2  0
  5  8  1  0
  6  7  1  0
  8  9  1  0
  9 10  1  0
 10 11  1  0
 10 17  1  0
 10 19  1  0
 11 12  1  0
 11 16  2  0
 12 13  2  0
 13 14  1  0
 14 15  2  0
 15 16  1  0
 17 18  3  0
 19 20  1  0
 20 21  1  0
 20 24  1  0
 21 22  2  0
 22 23  1  0
 23 24  2  0
  3 25  1  0
  4 26  1  0
  6 27  1  0
  7 28  1  0
  8 29  1  0
  8 30  1  0
  9 31  1  0
  9 32  1  0
 12 33  1  0
 13 34  1  0
 14 35  1  0
 15 36  1  0
 16 37  1  0
 19 38  1  0
 19 39  1  0
 22 40  1  0
 24 41  1  0
M  END
> <DSSTox_RID>
40458

> <DSSTox_CID>
12548

> <DSSTox_Generic_SID>
32548

> <DSSTox_FileID>
133_TOXCST_v3a

> <STRUCTURE_Formula>
C19H17ClN4

> <STRUCTURE_MolecularWeight>
336.8181

> <STRUCTURE_ChemicalType>
defined organic

> <STRUCTURE_TestedForm_DefinedOrganic>
parent

> <STRUCTURE_Shown>
tested chemical

> <TestSubstance_ChemicalName>
Fenbuconazole

> <Source_ChemicalName>
Fenbuconazole

> <TestSubstance_CASRN>
114369-43-6

> <TestSubstance_Description>
single chemical compound

> <STRUCTURE_ChemicalName_IUPAC>
4-(4-chlorophenyl)-2-phenyl-2-(1H-1,2,4-triazol-1-ylmethyl)butanenitrile

> <STRUCTURE_SMILES>
ClC1=CC=C(CCC(C#N)(CN3N=CN=C3)C2=CC=CC=C2)C=C1

> <STRUCTURE_Parent_SMILES>
ClC1=CC=C(CCC(C#N)(CN3N=CN=C3)C2=CC=CC=C2)C=C1

> <STRUCTURE_InChI>
InChI=1S/C19H17ClN4/c20-18-8-6-16(7-9-18)10-11-19(12-21,13-24-15-22-14-23-24)17-4-2-1-3-5-17/h1-9,14-15H,10-11,13H2

> <STRUCTURE_InChIKey>
RQDJADAKIFFEKQ-UHFFFAOYSA-N

> <Substance_modify_yyyymmdd>
20080429

> <DSSTox_CID_Parent>
12548

> <ChemicalReplicateCount>
1

> <Coord_Metals>
0

> <Index>
133

> <Canonical_Smiles>
Clc1ccc(CCC(Cn2cncn2)(C#N)c3ccccc3)cc1

> <Molecular_Weight>
336.81808

> <Frequency>
1

$$$$

  SciTegic          2D

 36 37  0  0  0  0            999 V2000
    1.2990   -0.7500    0.0000 C   0  0
    1.2990    0.7500    0.0000 C   0  0
    0.0000    1.5000    0.0000 C   0  0
   -1.2990    0.7500    0.0000 C   0  0
   -1.2990   -0.7500    0.0000 C   0  0
    0.0000   -1.5000    0.0000 C   0  0
    2.7502   -0.4571    0.0000 C   0  0
    3.5215   -1.3764    0.0000 O   0  0
    3.2641    0.9530    0.0000 N   0  0
    4.7421    1.2139    0.0000 C   0  0
    5.2578    2.6225    0.0000 C   0  0
    5.7043    0.0631    0.0000 C   0  0
    6.7355    2.8803    0.0000 C   0  0
    7.1820    0.3209    0.0000 C   0  0
    7.6975    1.7295    0.0000 C   0  0
    4.4881    3.5432    0.0000 Cl  0  0
    7.1479    4.0072    0.0000 Cl  0  0
    9.1766    1.9844    0.0000 O   0  0
    1.2628   -2.2303    0.0000 C   0  0
    2.1530    0.2297    0.0000 H   0  0
    1.2755    1.7497    0.0000 H   0  0
    0.8776    1.9794    0.0000 H   0  0
   -0.8775    1.9795    0.0000 H   0  0
   -1.2755    1.7497    0.0000 H   0  0
   -2.1531    0.2298    0.0000 H   0  0
   -2.1530   -0.2297    0.0000 H   0  0
   -1.2755   -1.7497    0.0000 H   0  0
   -0.8776   -1.9794    0.0000 H   0  0
    0.8775   -1.9795    0.0000 H   0  0
    2.6214    1.7191    0.0000 H   0  0
    5.3606   -0.8760    0.0000 H   0  0
    7.8233   -0.4463    0.0000 H   0  0
    9.8169    1.2162    0.0000 H   0  0
    2.1284   -2.7310    0.0000 H   0  0
    1.2622   -3.2303    0.0000 H   0  0
    0.3965   -2.7300    0.0000 H   0  0
  1  2  1  0
  1  6  1  0
  1  7  1  0
  1 19  1  0
  2  3  1  0
  3  4  1  0
  4  5  1  0
  5  6  1  0
  7  8  2  0
  7  9  1  0
  9 10  1  0
 10 11  2  0
 10 12  1  0
 11 13  1  0
 11 16  1  0
 12 14  2  0
 13 15  2  0
 13 17  1  0
 14 15  1  0
 15 18  1  0
  2 20  1  0
  2 21  1  0
  3 22  1  0
  3 23  1  0
  4 24  1  0
  4 25  1  0
  5 26  1  0
  5 27  1  0
  6 28  1  0
  6 29  1  0
  9 30  1  0
 12 31  1  0
 14 32  1  0
 18 33  1  0
 19 34  1  0
 19 35  1  0
 19 36  1  0
M  END
> <DSSTox_RID>
40459

> <DSSTox_CID>
12549

> <DSSTox_Generic_SID>
32549

> <DSSTox_FileID>
134_TOXCST_v3a

> <STRUCTURE_Formula>
C14H17Cl2NO2

> <STRUCTURE_MolecularWeight>
302.1963

> <STRUCTURE_ChemicalType>
defined organic

> <STRUCTURE_TestedForm_DefinedOrganic>
parent

> <STRUCTURE_Shown>
tested chemical

> <TestSubstance_ChemicalName>
Fenhexamid

> <Source_ChemicalName>
Fenhexamid

> <TestSubstance_CASRN>
126833-17-8

> <TestSubstance_Description>
single chemical compound

> <STRUCTURE_ChemicalName_IUPAC>
N-(2,3-dichloro-4-hydroxyphenyl)-1-methylcyclohexanecarboxamide

> <STRUCTURE_SMILES>
O=C(NC2=C(Cl)C(Cl)=C(O)C=C2)C1(C)CCCCC1

> <STRUCTURE_Parent_SMILES>
O=C(NC2=C(Cl)C(Cl)=C(O)C=C2)C1(C)CCCCC1

> <STRUCTURE_InChI>
InChI=1S/C14H17Cl2NO2/c1-14(7-3-2-4-8-14)13(19)17-9-5-6-10(18)12(16)11(9)15/h5-6,18H,2-4,7-8H2,1H3,(H,17,19)

> <STRUCTURE_InChIKey>
VDLGAVXLJYLFDH-UHFFFAOYSA-N

> <Substance_modify_yyyymmdd>
20080429

> <DSSTox_CID_Parent>
12549

> <ChemicalReplicateCount>
1

> <Coord_Metals>
0

> <Index>
134

> <Canonical_Smiles>
CC1(CCCCC1)C(=O)Nc2ccc(O)c(Cl)c2Cl

> <Molecular_Weight>
302.19628

> <Frequency>
1

$$$$

  SciTegic          2D

 29 29  0  0  0  0            999 V2000
    3.6337   -3.6051    0.0000 S   0  0
    2.5951   -3.0039    0.0000 P   0  0
    2.5973   -1.5031    0.0000 O   0  0
    1.2990   -0.7500    0.0000 C   0  0
    1.2990    0.7500    0.0000 C   0  0
    0.0000    1.5000    0.0000 C   0  0
   -1.2990    0.7500    0.0000 C   0  0
   -1.2990   -0.7500    0.0000 C   0  0
    0.0000   -1.5000    0.0000 C   0  0
   -2.6003    1.4977    0.0000 N   0  0
   -3.6387    0.8962    0.0000 O   0  0
   -2.6024    2.6977    0.0000 O   0  0
    0.0000    3.0008    0.0000 C   0  0
    1.2948   -3.7533    0.0000 O   0  0
    1.2926   -5.2541    0.0000 C   0  0
    3.9220   -2.2423    0.0000 O   0  0
    5.2203   -2.9952    0.0000 C   0  0
    2.1651    1.2500    0.0000 H   0  0
   -2.1651   -1.2500    0.0000 H   0  0
    0.0000   -2.5000    0.0000 H   0  0
    0.8657    3.5014    0.0000 H   0  0
   -0.8662    3.5005    0.0000 H   0  0
   -0.0005    4.0008    0.0000 H   0  0
    0.4262   -5.7534    0.0000 H   0  0
    2.1581   -5.7551    0.0000 H   0  0
    1.2917   -6.2541    0.0000 H   0  0
    6.0876   -2.4974    0.0000 H   0  0
    5.2181   -3.9952    0.0000 H   0  0
    6.0852   -3.4972    0.0000 H   0  0
  1  2  2  0
  2  3  1  0
  2 14  1  0
  2 16  1  0
  3  4  1  0
  4  5  1  0
  4  9  2  0
  5  6  2  0
  6  7  1  0
  6 13  1  0
  7  8  2  0
  7 10  1  0
  8  9  1  0
 10 11  2  0
 10 12  2  0
 14 15  1  0
 16 17  1  0
  5 18  1  0
  8 19  1  0
  9 20  1  0
 13 21  1  0
 13 22  1  0
 13 23  1  0
 15 24  1  0
 15 25  1  0
 15 26  1  0
 17 27  1  0
 17 28  1  0
 17 29  1  0
M  END
> <DSSTox_RID>
40460

> <DSSTox_CID>
12613

> <DSSTox_Generic_SID>
32613

> <DSSTox_FileID>
135_TOXCST_v3a

> <STRUCTURE_Formula>
C9H12NO5PS

> <STRUCTURE_MolecularWeight>
277.234

> <STRUCTURE_ChemicalType>
defined organic

> <STRUCTURE_TestedForm_DefinedOrganic>
parent

> <STRUCTURE_Shown>
tested chemical

> <TestSubstance_ChemicalName>
Fenitrothion

> <Source_ChemicalName>
Fenitrothion

> <TestSubstance_CASRN>
122-14-5

> <TestSubstance_Description>
single chemical compound

> <STRUCTURE_ChemicalName_IUPAC>
O,O-dimethyl O-(3-methyl-4-nitrophenyl) thiophosphate

> <STRUCTURE_SMILES>
S=P(OC)(OC)OC1=CC=C([N+]([O-])=O)C(C)=C1

> <STRUCTURE_Parent_SMILES>
S=P(OC)(OC)OC1=CC=C([N+]([O-])=O)C(C)=C1

> <STRUCTURE_InChI>
InChI=1S/C9H12NO5PS/c1-7-6-8(4-5-9(7)10(11)12)15-16(17,13-2)14-3/h4-6H,1-3H3

> <STRUCTURE_InChIKey>
ZNOLGFHPUIJIMJ-UHFFFAOYSA-N

> <Substance_modify_yyyymmdd>
20080429

> <DSSTox_CID_Parent>
12613

> <ChemicalReplicateCount>
1

> <Coord_Metals>
0

> <Index>
135

> <Canonical_Smiles>
COP(=S)(OC)Oc1ccc(c(C)c1)N(=O)=O

> <Molecular_Weight>
277.23404

> <Frequency>
1

$$$$

  SciTegic          2D

 41 43  0  0  0  0            999 V2000
    6.9677    7.8794    0.0000 C   0  0
    6.2393    6.5672    0.0000 C   0  0
    7.7691    6.5897    0.0000 C   0  0
    7.9676    7.8960    0.0000 O   0  0
    6.1963    9.1669    0.0000 O   0  0
    7.0107    5.2798    0.0000 O   0  0
    6.2823    3.9676    0.0000 C   0  0
    7.0514    2.6798    0.0000 C   0  0
    4.7825    3.9454    0.0000 C   0  0
    6.3207    1.3698    0.0000 C   0  0
    4.0518    2.6354    0.0000 C   0  0
    4.8208    1.3475    0.0000 C   0  0
    4.0872    0.0382    0.0000 O   0  0
    1.7138   -1.2033    0.0000 N   0  0
    2.5889    0.0182    0.0000 C   0  0
    1.7138    1.2033    0.0000 O   0  0
    0.2917   -0.7475    0.0000 C   0  0
    0.2917    0.7475    0.0000 C   0  0
   -1.0028    1.5132    0.0000 C   0  0
   -2.3155    0.7475    0.0000 C   0  0
   -2.3155   -0.7475    0.0000 C   0  0
   -1.0028   -1.5132    0.0000 C   0  0
   -3.3560    1.3452    0.0000 Cl  0  0
    6.9247   10.4791    0.0000 C   0  0
    6.1534   11.7665    0.0000 C   0  0
    5.2395    6.5507    0.0000 H   0  0
    8.2823    5.7314    0.0000 H   0  0
    8.7690    6.6048    0.0000 H   0  0
    8.2561    7.4631    0.0000 H   0  0
    8.0513    2.6946    0.0000 H   0  0
    4.2697    4.8039    0.0000 H   0  0
    6.8335    0.5113    0.0000 H   0  0
    3.0519    2.6207    0.0000 H   0  0
   -0.9997    2.5132    0.0000 H   0  0
   -3.1826   -1.2456    0.0000 H   0  0
   -0.9997   -2.5132    0.0000 H   0  0
    7.9246   10.4956    0.0000 H   0  0
    7.4391    9.6215    0.0000 H   0  0
    6.6387   12.6408    0.0000 H   0  0
    5.1535   11.7499    0.0000 H   0  0
    5.6390   12.6240    0.0000 H   0  0
  1  2  1  0
  1  5  1  0
  1  4  2  0
  2  3  1  0
  2  6  1  0
  5 24  1  0
  6  7  1  0
  7  8  2  0
  7  9  1  0
  8 10  1  0
  9 11  2  0
 10 12  2  0
 11 12  1  0
 12 13  1  0
 13 15  1  0
 14 15  2  0
 14 17  1  0
 15 16  1  0
 16 18  1  0
 17 18  2  0
 17 22  1  0
 18 19  1  0
 19 20  2  0
 20 21  1  0
 20 23  1  0
 21 22  2  0
 24 25  1  0
  2 26  1  0
  3 27  1  0
  3 28  1  0
  3 29  1  0
  8 30  1  0
  9 31  1  0
 10 32  1  0
 11 33  1  0
 19 34  1  0
 21 35  1  0
 22 36  1  0
 24 37  1  0
 24 38  1  0
 25 39  1  0
 25 40  1  0
 25 41  1  0
M  END
> <DSSTox_RID>
40461
40766

> <DSSTox_CID>
12392
12392

> <DSSTox_Generic_SID>
32392
32392

> <DSSTox_FileID>
136_TOXCST_v3a
137_TOXCST_v3a

> <STRUCTURE_Formula>
C18H16ClNO5
C18H16ClNO5

> <STRUCTURE_MolecularWeight>
361.7763
361.7763

> <STRUCTURE_ChemicalType>
defined organic
defined organic

> <STRUCTURE_TestedForm_DefinedOrganic>
parent
parent

> <STRUCTURE_Shown>
tested chemical
tested chemical

> <TestSubstance_ChemicalName>
Fenoxaprop-ethyl
Fenoxaprop-ethyl

> <Source_ChemicalName>
Fenoxaprop-ethyl
Fenoxaprop-ethyl

> <TestSubstance_CASRN>
66441-23-4
66441-23-4

> <TestSubstance_Description>
single chemical compound
single chemical compound

> <ChemicalNote>
mixture of (2R,S) isomers; structure shown without stereochem
mixture of (2R,S) isomers; structure shown without stereochem

> <STRUCTURE_ChemicalName_IUPAC>
ethyl 2-{4-[(6-chloro-1,3-benzoxazol-2-yl)oxy]phenoxy}propanoate
ethyl 2-{4-[(6-chloro-1,3-benzoxazol-2-yl)oxy]phenoxy}propanoate

> <STRUCTURE_SMILES>
O=C(OCC)C(OC1=CC=C(OC2=NC3=C(C=C(Cl)C=C3)O2)C=C1)C
O=C(OCC)C(OC1=CC=C(OC2=NC3=C(C=C(Cl)C=C3)O2)C=C1)C

> <STRUCTURE_Parent_SMILES>
O=C(OCC)C(OC1=CC=C(OC2=NC3=C(C=C(Cl)C=C3)O2)C=C1)C
O=C(OCC)C(OC1=CC=C(OC2=NC3=C(C=C(Cl)C=C3)O2)C=C1)C

> <STRUCTURE_InChI>
InChI=1S/C18H16ClNO5/c1-3-22-17(21)11(2)23-13-5-7-14(8-6-13)24-18-20-15-9-4-12(19)10-16(15)25-18/h4-11H,3H2,1-2H3
InChI=1S/C18H16ClNO5/c1-3-22-17(21)11(2)23-13-5-7-14(8-6-13)24-18-20-15-9-4-12(19)10-16(15)25-18/h4-11H,3H2,1-2H3

> <STRUCTURE_InChIKey>
PQKBPHSEKWERTG-UHFFFAOYSA-N
PQKBPHSEKWERTG-UHFFFAOYSA-N

> <Substance_modify_yyyymmdd>
20080429
20080429

> <DSSTox_CID_Parent>
12392
12392

> <ChemicalReplicateCount>
1 of 2
2 of 2

> <Relationship_CID>
duplicate of 12392
duplicate of 12392

> <Coord_Metals>
0
0

> <Index>
136
137

> <Canonical_Smiles>
CCOC(=O)C(C)Oc1ccc(Oc2oc3cc(Cl)ccc3n2)cc1

> <Molecular_Weight>
361.77634
361.77634

> <Frequency>
2

$$$$

  SciTegic          2D

 41 42  0  0  0  0            999 V2000
    5.1894   -6.0109    0.0000 C   0  0
    6.2297   -5.4127    0.0000 O   0  0
    5.1873   -7.5117    0.0000 O   0  0
    3.8912   -5.2578    0.0000 N   0  0
    3.8933   -3.7570    0.0000 C   0  0
    2.5951   -3.0039    0.0000 C   0  0
    2.5973   -1.5031    0.0000 O   0  0
    1.2990   -0.7500    0.0000 C   0  0
    1.2990    0.7500    0.0000 C   0  0
    0.0000   -1.5000    0.0000 C   0  0
    0.0000    1.5000    0.0000 C   0  0
   -1.2990   -0.7500    0.0000 C   0  0
   -1.2990    0.7500    0.0000 C   0  0
   -2.6003    1.4977    0.0000 O   0  0
   -3.8990    0.7455    0.0000 C   0  0
   -5.2007    1.4909    0.0000 C   0  0
   -3.8939   -0.7546    0.0000 C   0  0
   -6.4972    0.7364    0.0000 C   0  0
   -5.1903   -1.5091    0.0000 C   0  0
   -6.4920   -0.7636    0.0000 C   0  0
    6.4855   -8.2648    0.0000 C   0  0
    6.4833   -9.7656    0.0000 C   0  0
    3.0243   -5.7563    0.0000 H   0  0
    4.7602   -3.2585    0.0000 H   0  0
    4.7586   -4.2584    0.0000 H   0  0
    1.7282   -3.5024    0.0000 H   0  0
    1.7299   -2.5025    0.0000 H   0  0
    2.1651    1.2500    0.0000 H   0  0
    0.0000   -2.5000    0.0000 H   0  0
    0.0000    2.5000    0.0000 H   0  0
   -2.1651   -1.2500    0.0000 H   0  0
   -5.2042    2.4909    0.0000 H   0  0
   -3.0262   -1.2516    0.0000 H   0  0
   -7.3649    1.2334    0.0000 H   0  0
   -5.1869   -2.5091    0.0000 H   0  0
   -7.3563   -1.2666    0.0000 H   0  0
    7.3524   -7.7663    0.0000 H   0  0
    6.4874   -7.2648    0.0000 H   0  0
    7.3483  -10.2674    0.0000 H   0  0
    5.6164  -10.2641    0.0000 H   0  0
    6.4814  -10.7656    0.0000 H   0  0
  1  2  2  0
  1  3  1  0
  1  4  1  0
  3 21  1  0
  4  5  1  0
  5  6  1  0
  6  7  1  0
  7  8  1  0
  8  9  2  0
  8 10  1  0
  9 11  1  0
 10 12  2  0
 11 13  2  0
 12 13  1  0
 13 14  1  0
 14 15  1  0
 15 16  2  0
 15 17  1  0
 16 18  1  0
 17 19  2  0
 18 20  2  0
 19 20  1  0
 21 22  1  0
  4 23  1  0
  5 24  1  0
  5 25  1  0
  6 26  1  0
  6 27  1  0
  9 28  1  0
 10 29  1  0
 11 30  1  0
 12 31  1  0
 16 32  1  0
 17 33  1  0
 18 34  1  0
 19 35  1  0
 20 36  1  0
 21 37  1  0
 21 38  1  0
 22 39  1  0
 22 40  1  0
 22 41  1  0
M  END
> <DSSTox_RID>
40462

> <DSSTox_CID>
12393

> <DSSTox_Generic_SID>
32393

> <DSSTox_FileID>
138_TOXCST_v3a

> <STRUCTURE_Formula>
C17H19NO4

> <STRUCTURE_MolecularWeight>
301.3371

> <STRUCTURE_ChemicalType>
defined organic

> <STRUCTURE_TestedForm_DefinedOrganic>
parent

> <STRUCTURE_Shown>
tested chemical

> <TestSubstance_ChemicalName>
Fenoxycarb

> <Source_ChemicalName>
Fenoxycarb

> <TestSubstance_CASRN>
72490-01-8

> <TestSubstance_Description>
single chemical compound

> <STRUCTURE_ChemicalName_IUPAC>
ethyl [2-(4-phenoxyphenoxy)ethyl]carbamate

> <STRUCTURE_SMILES>
O=C(NCCOC1=CC=C(OC2=CC=CC=C2)C=C1)OCC

> <STRUCTURE_Parent_SMILES>
O=C(OCC)NCCOC2=CC=C(C=C2)OC1=CC=CC=C1

> <STRUCTURE_InChI>
InChI=1S/C17H19NO4/c1-2-20-17(19)18-12-13-21-14-8-10-16(11-9-14)22-15-6-4-3-5-7-15/h3-11H,2,12-13H2,1H3,(H,18,19)

> <STRUCTURE_InChIKey>
HJUFTIJOISQSKQ-UHFFFAOYSA-N

> <Substance_modify_yyyymmdd>
20080429

> <DSSTox_CID_Parent>
12393

> <ChemicalReplicateCount>
1

> <Coord_Metals>
0

> <Index>
138

> <Canonical_Smiles>
CCOC(=O)NCCOc1ccc(Oc2ccccc2)cc1

> <Molecular_Weight>
301.33706

> <Frequency>
1

$$$$

  SciTegic          2D

 49 51  0  0  0  0            999 V2000
    7.9995    0.5988    0.0000 C   0  0
    9.4088    0.0851    0.0000 C   0  0
    8.3049   -0.7534    0.0000 C   0  0
    7.3395   -1.9024    0.0000 C   0  0
    7.8510   -3.3134    0.0000 O   0  0
    4.2263   -3.9910    0.0000 N   0  0
    5.4079   -4.2005    0.0000 C   0  0
    6.8856   -4.4625    0.0000 C   0  0
    7.3971   -5.8735    0.0000 C   0  0
    6.1579   -1.6929    0.0000 O   0  0
    8.8746   -5.6149    0.0000 C   0  0
    9.8374   -6.7651    0.0000 C   0  0
   11.3163   -6.5094    0.0000 O   0  0
    6.5141    0.3190    0.0000 C   0  0
   10.3658   -1.0850    0.0000 C   0  0
    9.9777    1.4860    0.0000 C   0  0
    8.4656    2.0372    0.0000 C   0  0
   12.2779   -7.6617    0.0000 C   0  0
    6.8823   -7.2823    0.0000 C   0  0
    7.8450   -8.4326    0.0000 C   0  0
    9.3226   -8.1740    0.0000 C   0  0
   13.7563   -7.4083    0.0000 C   0  0
   11.7582   -9.0689    0.0000 C   0  0
   12.7170  -10.2225    0.0000 C   0  0
   14.7151   -8.5620    0.0000 C   0  0
   14.1954   -9.9690    0.0000 C   0  0
    8.9475   -1.5196    0.0000 H   0  0
    6.5443   -3.5225    0.0000 H   0  0
    9.2179   -4.6756    0.0000 H   0  0
    6.1940   -0.6284    0.0000 H   0  0
    5.5336    0.1224    0.0000 H   0  0
    5.8535    1.0697    0.0000 H   0  0
   10.0011   -2.0161    0.0000 H   0  0
   10.9897   -1.8664    0.0000 H   0  0
   11.3545   -0.9355    0.0000 H   0  0
   10.9663    1.6361    0.0000 H   0  0
   10.3421    2.4172    0.0000 H   0  0
    9.3536    2.2674    0.0000 H   0  0
    7.8054    2.7883    0.0000 H   0  0
    8.7859    2.9845    0.0000 H   0  0
    9.4461    2.2336    0.0000 H   0  0
    5.8973   -7.4547    0.0000 H   0  0
    7.5018   -9.3719    0.0000 H   0  0
    9.9644   -8.9409    0.0000 H   0  0
   14.1028   -6.4703    0.0000 H   0  0
   10.7726   -9.2379    0.0000 H   0  0
   12.3705  -11.1606    0.0000 H   0  0
   15.7007   -8.3930    0.0000 H   0  0
   14.8346  -10.7381    0.0000 H   0  0
  1  2  1  0
  1  3  1  0
  1 14  1  0
  1 17  1  0
  2 15  1  0
  2 16  1  0
  2  3  1  0
  3  4  1  0
  4  5  1  0
  4 10  2  0
  5  8  1  0
  6  7  3  0
  7  8  1  0
  8  9  1  0
  9 11  1  0
  9 19  2  0
 11 12  2  0
 12 13  1  0
 12 21  1  0
 13 18  1  0
 18 22  1  0
 18 23  2  0
 19 20  1  0
 20 21  2  0
 22 25  2  0
 23 24  1  0
 24 26  2  0
 25 26  1  0
  3 27  1  0
  8 28  1  0
 11 29  1  0
 14 30  1  0
 14 31  1  0
 14 32  1  0
 15 33  1  0
 15 34  1  0
 15 35  1  0
 16 36  1  0
 16 37  1  0
 16 38  1  0
 17 39  1  0
 17 40  1  0
 17 41  1  0
 19 42  1  0
 20 43  1  0
 21 44  1  0
 22 45  1  0
 23 46  1  0
 24 47  1  0
 25 48  1  0
 26 49  1  0
M  END
> <DSSTox_RID>
40414

> <DSSTox_CID>
4002

> <DSSTox_Generic_SID>
24002

> <DSSTox_FileID>
139_TOXCST_v3a

> <STRUCTURE_Formula>
C22H23NO3

> <STRUCTURE_MolecularWeight>
349.4229

> <STRUCTURE_ChemicalType>
defined organic

> <STRUCTURE_TestedForm_DefinedOrganic>
parent

> <STRUCTURE_Shown>
tested chemical

> <TestSubstance_ChemicalName>
Fenpropathrin

> <Source_ChemicalName>
Fenpropathrin

> <TestSubstance_CASRN>
39515-41-8

> <TestSubstance_Description>
single chemical compound

> <ChemicalNote>
mixture of (R,S) isomers; structure shown without stereochem

> <STRUCTURE_ChemicalName_IUPAC>
cyano(3-phenoxyphenyl)methyl 2,2,3,3-tetramethylcyclopropanecarboxylate

> <STRUCTURE_SMILES>
O=C(OC(C#N)c2cccc(Oc1ccccc1)c2)C3C(C)(C)C3(C)C

> <STRUCTURE_Parent_SMILES>
O=C(OC(C#N)c2cccc(Oc1ccccc1)c2)C3C(C)(C)C3(C)C

> <STRUCTURE_InChI>
InChI=1S/C22H23NO3/c1-21(2)19(22(21,3)4)20(24)26-18(14-23)15-9-8-12-17(13-15)25-16-10-6-5-7-11-16/h5-13,18-19H,1-4H3

> <STRUCTURE_InChIKey>
XQUXKZZNEFRCAW-UHFFFAOYSA-N

> <Substance_modify_yyyymmdd>
20080429

> <DSSTox_CID_Parent>
4002

> <ChemicalReplicateCount>
1

> <Coord_Metals>
0

> <Index>
139

> <Canonical_Smiles>
CC1(C)C(C(=O)OC(C#N)c2cccc(Oc3ccccc3)c2)C1(C)C

> <Molecular_Weight>
349.42292

> <Frequency>
1

$$$$

  SciTegic          2D

 58 60  0  0  0  0            999 V2000
    7.4212   -9.1597    0.0000 C   0  0
    6.8090   -7.7923    0.0000 N   0  0
    5.3411   -7.4834    0.0000 C   0  0
    5.2002   -6.0029    0.0000 C   0  0
    6.5503   -5.3791    0.0000 C   0  0
    7.5563   -6.4917    0.0000 N   0  0
    6.8476   -3.9107    0.0000 C   0  0
    3.9005   -5.2525    0.0000 C   0  0
    3.8995   -3.7516    0.0000 N   0  0
    2.5997   -3.0012    0.0000 O   0  0
    2.5988   -1.5004    0.0000 C   0  0
    1.2990   -0.7500    0.0000 C   0  0
    1.2990    0.7500    0.0000 C   0  0
    0.0000    1.5000    0.0000 C   0  0
   -1.2990    0.7500    0.0000 C   0  0
   -1.2990   -0.7500    0.0000 C   0  0
    0.0000   -1.5000    0.0000 C   0  0
   -2.6003    1.4977    0.0000 C   0  0
   -2.6024    2.6977    0.0000 O   0  0
   -3.8990    0.7455    0.0000 O   0  0
   -5.2003    1.4932    0.0000 C   0  0
   -6.4990    0.7409    0.0000 C   0  0
   -5.1948   -0.0368    0.0000 C   0  0
   -5.2029    2.9939    0.0000 C   0  0
    3.9478   -8.0340    0.0000 O   0  0
    3.7266   -9.5184    0.0000 C   0  0
    2.3323  -10.0716    0.0000 C   0  0
    2.1142  -11.5557    0.0000 C   0  0
    3.2904  -12.4866    0.0000 C   0  0
    4.6847  -11.9334    0.0000 C   0  0
    4.9028  -10.4494    0.0000 C   0  0
    6.8356   -9.9703    0.0000 H   0  0
    8.4160   -9.2619    0.0000 H   0  0
    7.8302  -10.0723    0.0000 H   0  0
    6.0983   -3.2483    0.0000 H   0  0
    7.7957   -3.5927    0.0000 H   0  0
    7.0464   -2.9306    0.0000 H   0  0
    3.0346   -5.7527    0.0000 H   0  0
    3.4651   -2.0000    0.0000 H   0  0
    3.4647   -1.0001    0.0000 H   0  0
    2.1651    1.2500    0.0000 H   0  0
    0.0000    2.5000    0.0000 H   0  0
   -2.1651   -1.2500    0.0000 H   0  0
    0.0000   -2.5000    0.0000 H   0  0
   -7.3661    1.2391    0.0000 H   0  0
   -7.3641    0.2393    0.0000 H   0  0
   -6.4973   -0.2591    0.0000 H   0  0
   -4.3273   -0.5341    0.0000 H   0  0
   -6.0592   -0.5396    0.0000 H   0  0
   -5.1916   -1.0368    0.0000 H   0  0
   -6.0695    3.4930    0.0000 H   0  0
   -4.3376    3.4952    0.0000 H   0  0
   -5.2042    3.9939    0.0000 H   0  0
    1.5481   -9.4511    0.0000 H   0  0
    1.1847  -11.9245    0.0000 H   0  0
    3.1450  -13.4760    0.0000 H   0  0
    5.4688  -12.5540    0.0000 H   0  0
    5.8323  -10.0806    0.0000 H   0  0
  1  2  1  0
  2  3  1  0
  2  6  1  0
  3  4  2  0
  3 25  1  0
  4  5  1  0
  8  4  1  0
  5  6  2  0
  5  7  1  0
  8  9  2  0
  9 10  1  0
 10 11  1  0
 11 12  1  0
 12 13  1  0
 12 17  2  0
 13 14  2  0
 14 15  1  0
 15 16  2  0
 15 18  1  0
 16 17  1  0
 18 19  2  0
 18 20  1  0
 20 21  1  0
 21 22  1  0
 21 23  1  0
 21 24  1  0
 25 26  1  0
 26 27  1  0
 26 31  2  0
 27 28  2  0
 28 29  1  0
 29 30  2  0
 30 31  1  0
  1 32  1  0
  1 33  1  0
  1 34  1  0
  7 35  1  0
  7 36  1  0
  7 37  1  0
  8 38  1  0
 11 39  1  0
 11 40  1  0
 13 41  1  0
 14 42  1  0
 16 43  1  0
 17 44  1  0
 22 45  1  0
 22 46  1  0
 22 47  1  0
 23 48  1  0
 23 49  1  0
 23 50  1  0
 24 51  1  0
 24 52  1  0
 24 53  1  0
 27 54  1  0
 28 55  1  0
 29 56  1  0
 30 57  1  0
 31 58  1  0
M  END
> <DSSTox_RID>
40463

> <DSSTox_CID>
12550

> <DSSTox_Generic_SID>
32550

> <DSSTox_FileID>
140_TOXCST_v3a

> <STRUCTURE_Formula>
C24H27N3O4

> <STRUCTURE_MolecularWeight>
421.4889

> <STRUCTURE_ChemicalType>
defined organic

> <STRUCTURE_TestedForm_DefinedOrganic>
parent

> <STRUCTURE_Shown>
representative isomer in mixture

> <TestSubstance_ChemicalName>
Fenpyroximate (Z,E)

> <Source_ChemicalName>
(Z,E)-Fenpyroximate

> <TestSubstance_CASRN>
111812-58-9

> <TestSubstance_Description>
mixture or formulation

> <ChemicalNote>
stereochem

> <STRUCTURE_ChemicalName_IUPAC>
tert-butyl 4-[({[(1E)-(1,3-dimethyl-5-phenoxy-1H-pyrazol-4-yl)methylene]amino}oxy)methyl]benzoate

> <STRUCTURE_SMILES>
O=C(OC(C)(C)C)C2=CC=C(C=C2)CO/N=C/C(C(C)=N1)=C(OC3=CC=CC=C3)N1C

> <STRUCTURE_Parent_SMILES>
O=C(OC(C)(C)C)C2=CC=C(C=C2)CO/N=C/C(C(C)=N1)=C(OC3=CC=CC=C3)N1C

> <STRUCTURE_InChI>
InChI=1S/C24H27N3O4/c1-17-21(22(27(5)26-17)30-20-9-7-6-8-10-20)15-25-29-16-18-11-13-19(14-12-18)23(28)31-24(2,3)4/h6-15H,16H2,1-5H3/b25-15+

> <STRUCTURE_InChIKey>
YYJNOYZRYGDPNH-MFKUBSTISA-N

> <Substance_modify_yyyymmdd>
20080429

> <DSSTox_CID_Parent>
12550

> <ChemicalReplicateCount>
1

> <Note_TOXCST>
ChemicalName modified v2a; CASRN changed v2a; CASRN corrected v2b

> <Coord_Metals>
0

> <Index>
140

> <Canonical_Smiles>
Cc1nn(C)c(Oc2ccccc2)c1C=NOCc3ccc(cc3)C(=O)OC(C)(C)C

> <Molecular_Weight>
421.48888

> <Frequency>
1

$$$$

  SciTegic          2D

 31 31  0  0  0  0            999 V2000
    3.6337   -3.6051    0.0000 S   0  0
    2.5951   -3.0039    0.0000 P   0  0
    2.5973   -1.5031    0.0000 O   0  0
    1.2990   -0.7500    0.0000 C   0  0
    1.2990    0.7500    0.0000 C   0  0
    0.0000    1.5000    0.0000 C   0  0
   -1.2990    0.7500    0.0000 C   0  0
   -1.2990   -0.7500    0.0000 C   0  0
    0.0000   -1.5000    0.0000 C   0  0
   -2.6003    1.4977    0.0000 S   0  0
   -3.8990    0.7455    0.0000 C   0  0
    0.0000    3.0008    0.0000 C   0  0
    1.2948   -3.7533    0.0000 O   0  0
    1.2926   -5.2541    0.0000 C   0  0
    3.9220   -2.2423    0.0000 O   0  0
    5.2203   -2.9952    0.0000 C   0  0
    2.1651    1.2500    0.0000 H   0  0
   -2.1651   -1.2500    0.0000 H   0  0
    0.0000   -2.5000    0.0000 H   0  0
   -4.7661    1.2437    0.0000 H   0  0
   -3.8973   -0.2545    0.0000 H   0  0
   -4.7641    0.2438    0.0000 H   0  0
    0.8657    3.5014    0.0000 H   0  0
   -0.8662    3.5005    0.0000 H   0  0
   -0.0005    4.0008    0.0000 H   0  0
    0.4262   -5.7534    0.0000 H   0  0
    2.1581   -5.7551    0.0000 H   0  0
    1.2917   -6.2541    0.0000 H   0  0
    6.0876   -2.4974    0.0000 H   0  0
    5.2181   -3.9952    0.0000 H   0  0
    6.0852   -3.4972    0.0000 H   0  0
  1  2  2  0
  2  3  1  0
  2 13  1  0
  2 15  1  0
  3  4  1  0
  4  5  2  0
  4  9  1  0
  5  6  1  0
  6  7  2  0
  6 12  1  0
  7  8  1  0
  7 10  1  0
  8  9  2  0
 10 11  1  0
 13 14  1  0
 15 16  1  0
  5 17  1  0
  8 18  1  0
  9 19  1  0
 11 20  1  0
 11 21  1  0
 11 22  1  0
 12 23  1  0
 12 24  1  0
 12 25  1  0
 14 26  1  0
 14 27  1  0
 14 28  1  0
 16 29  1  0
 16 30  1  0
 16 31  1  0
M  END
> <DSSTox_RID>
40464

> <DSSTox_CID>
620

> <DSSTox_Generic_SID>
20620

> <DSSTox_FileID>
141_TOXCST_v3a

> <STRUCTURE_Formula>
C10H15O3PS2

> <STRUCTURE_MolecularWeight>
278.3281

> <STRUCTURE_ChemicalType>
defined organic

> <STRUCTURE_TestedForm_DefinedOrganic>
parent

> <STRUCTURE_Shown>
tested chemical

> <TestSubstance_ChemicalName>
Fenthion

> <Source_ChemicalName>
Fenthion

> <TestSubstance_CASRN>
55-38-9

> <TestSubstance_Description>
single chemical compound

> <STRUCTURE_ChemicalName_IUPAC>
O,O-dimethyl O-[3-methyl-4-(methylthio)phenyl] thiophosphate

> <STRUCTURE_SMILES>
S=P(OC1=CC(=C(C=C1)SC)C)(OC)OC

> <STRUCTURE_Parent_SMILES>
S=P(OC1=CC(=C(C=C1)SC)C)(OC)OC

> <STRUCTURE_InChI>
InChI=1S/C10H15O3PS2/c1-8-7-9(5-6-10(8)16-4)13-14(15,11-2)12-3/h5-7H,1-4H3

> <STRUCTURE_InChIKey>
PNVJTZOFSHSLTO-UHFFFAOYSA-N

> <Substance_modify_yyyymmdd>
20080429

> <DSSTox_CID_Parent>
620

> <ChemicalReplicateCount>
1

> <Coord_Metals>
0

> <Index>
141

> <Canonical_Smiles>
COP(=S)(OC)Oc1ccc(SC)c(C)c1

> <Molecular_Weight>
278.32806

> <Frequency>
1

$$$$

  SciTegic          2D

 36 38  0  0  0  0            999 V2000
    2.5983   -3.0012    0.0000 O   0  0
    2.5988   -1.5004    0.0000 Sn  0  0
    1.2990   -0.7500    0.0000 C   0  0
    1.2990    0.7500    0.0000 C   0  0
    0.0000    1.5000    0.0000 C   0  0
   -1.2990    0.7500    0.0000 C   0  0
   -1.2990   -0.7500    0.0000 C   0  0
    0.0000   -1.5000    0.0000 C   0  0
    3.8990   -0.7508    0.0000 C   0  0
    5.1976   -1.5016    0.0000 C   0  0
    6.4971   -0.7525    0.0000 C   0  0
    6.4980    0.7475    0.0000 C   0  0
    5.1995    1.4984    0.0000 C   0  0
    3.9000    0.7492    0.0000 C   0  0
    1.2990   -2.2506    0.0000 C   0  0
    1.2988   -3.7506    0.0000 C   0  0
   -0.0004   -4.5004    0.0000 C   0  0
   -1.2993   -3.7502    0.0000 C   0  0
   -1.2991   -2.2502    0.0000 C   0  0
    0.0001   -1.5004    0.0000 C   0  0
    3.4639   -3.5020    0.0000 H   0  0
    2.1651    1.2500    0.0000 H   0  0
    0.0000    2.5000    0.0000 H   0  0
   -2.1651    1.2500    0.0000 H   0  0
   -2.1651   -1.2500    0.0000 H   0  0
    0.0000   -2.5000    0.0000 H   0  0
    5.1970   -2.5016    0.0000 H   0  0
    7.3628   -1.2530    0.0000 H   0  0
    7.3644    1.2470    0.0000 H   0  0
    5.2001    2.4984    0.0000 H   0  0
    3.0343    1.2497    0.0000 H   0  0
    2.1647   -4.2507    0.0000 H   0  0
   -0.0006   -5.5004    0.0000 H   0  0
   -2.1654   -4.2500    0.0000 H   0  0
   -2.1650   -1.7500    0.0000 H   0  0
    0.0002   -0.5004    0.0000 H   0  0
  1  2  1  0
  2  3  1  0
  2  9  1  0
  2 15  1  0
  3  4  2  0
  3  8  1  0
  4  5  1  0
  5  6  2  0
  6  7  1  0
  7  8  2  0
  9 10  2  0
  9 14  1  0
 10 11  1  0
 11 12  2  0
 12 13  1  0
 13 14  2  0
 15 16  2  0
 15 20  1  0
 16 17  1  0
 17 18  2  0
 18 19  1  0
 19 20  2  0
  1 21  1  0
  4 22  1  0
  5 23  1  0
  6 24  1  0
  7 25  1  0
  8 26  1  0
 10 27  1  0
 11 28  1  0
 12 29  1  0
 13 30  1  0
 14 31  1  0
 16 32  1  0
 17 33  1  0
 18 34  1  0
 19 35  1  0
 20 36  1  0
M  END
> <DSSTox_RID>
40465

> <DSSTox_CID>
1409

> <DSSTox_Generic_SID>
21409

> <DSSTox_FileID>
142_TOXCST_v3a

> <STRUCTURE_Formula>
C18H16OSn

> <STRUCTURE_MolecularWeight>
367.029

> <STRUCTURE_ChemicalType>
organometallic

> <STRUCTURE_Shown>
tested chemical

> <TestSubstance_ChemicalName>
Triphenyltin hydroxide

> <Source_ChemicalName>
Fentin

> <TestSubstance_CASRN>
76-87-9

> <TestSubstance_Description>
single chemical compound

> <STRUCTURE_ChemicalName_IUPAC>
triphenylstannanol

> <STRUCTURE_SMILES>
O[Sn](C1=CC=CC=C1)(C2=CC=CC=C2)C3=CC=CC=C3

> <STRUCTURE_Parent_SMILES>
O[Sn](C1=CC=CC=C1)(C2=CC=CC=C2)C3=CC=CC=C3

> <STRUCTURE_InChI>
InChI=1S/3C6H5.H2O.Sn/c3*1-2-4-6-5-3-1;;/h3*1-5H;1H2;/q;;;;+1/p-1

> <STRUCTURE_InChIKey>
BFWMWWXRWVJXSE-UHFFFAOYSA-M

> <Substance_modify_yyyymmdd>
20080429

> <ChemicalReplicateCount>
1

> <Coord_Metals>
1

> <Index>
142

> <Canonical_Smiles>
O[Sn](c1ccccc1)(c2ccccc2)c3ccccc3

> <Molecular_Weight>
367.02904

> <Frequency>
1

$$$$

  SciTegic          2D

 30 31  0  0  0  0            999 V2000
    2.5987   -1.5004    0.0000 N   0  0
    1.2990   -0.7500    0.0000 C   0  0
    3.9511   -0.8815    0.0000 C   0  0
    2.7343   -2.9815    0.0000 N   0  0
    1.2990    0.7500    0.0000 C   0  0
    0.0000   -1.5000    0.0000 C   0  0
    4.9531   -1.9978    0.0000 C   0  0
    4.2568    0.5852    0.0000 N   0  0
    4.2010   -3.2956    0.0000 C   0  0
    0.0000    1.5000    0.0000 C   0  0
    2.3383    1.3500    0.0000 Cl  0  0
   -1.2990   -0.7500    0.0000 C   0  0
    0.0000   -2.7000    0.0000 Cl  0  0
    6.4437   -1.8466    0.0000 S   0  0
    4.8082   -4.6653    0.0000 C   0  0
   -1.2990    0.7500    0.0000 C   0  0
    7.3221   -3.0635    0.0000 C   0  0
    6.9354   -0.7520    0.0000 O   0  0
    5.2946   -5.7623    0.0000 N   0  0
   -2.5988    1.5004    0.0000 C   0  0
    8.5160   -2.9424    0.0000 F   0  0
    8.0241   -4.0368    0.0000 F   0  0
    6.8304   -4.1581    0.0000 F   0  0
   -2.5996    2.7004    0.0000 F   0  0
   -3.6378    0.9001    0.0000 F   0  0
   -3.6383    2.0999    0.0000 F   0  0
    5.2064    0.8987    0.0000 H   0  0
    3.5107    1.2511    0.0000 H   0  0
    0.0000    2.5000    0.0000 H   0  0
   -2.1651   -1.2500    0.0000 H   0  0
  1  2  1  0
  1  3  1  0
  1  4  1  0
  2  5  2  0
  2  6  1  0
  3  7  2  0
  3  8  1  0
  4  9  2  0
  5 10  1  0
  5 11  1  0
  6 12  2  0
  6 13  1  0
  7 14  1  0
  7  9  1  0
  9 15  1  0
 10 16  2  0
 12 16  1  0
 14 17  1  0
 14 18  2  0
 15 19  3  0
 16 20  1  0
 17 21  1  0
 17 22  1  0
 17 23  1  0
 20 24  1  0
 20 25  1  0
 20 26  1  0
  8 27  1  0
  8 28  1  0
 10 29  1  0
 12 30  1  0
M  END
> <DSSTox_RID>
40466

> <DSSTox_CID>
14609

> <DSSTox_Generic_SID>
34609

> <DSSTox_FileID>
143_TOXCST_v3a

> <STRUCTURE_Formula>
C12H4Cl2F6N4OS

> <STRUCTURE_MolecularWeight>
437.1478

> <STRUCTURE_ChemicalType>
defined organic

> <STRUCTURE_TestedForm_DefinedOrganic>
parent

> <STRUCTURE_Shown>
tested chemical

> <TestSubstance_ChemicalName>
Fipronil

> <Source_ChemicalName>
Fipronil

> <TestSubstance_CASRN>
120068-37-3

> <TestSubstance_Description>
single chemical compound

> <STRUCTURE_ChemicalName_IUPAC>
5-amino-1-[2,6-dichloro-4-(trifluoromethyl)phenyl]-4-[(trifluoromethyl)sulfinyl]-1H-pyrazole-3-carbonitrile

> <STRUCTURE_SMILES>
NC(N(N=C2C#N)C1=C(Cl)C=C(C(F)(F)F)C=C1Cl)=C2S(C(F)(F)F)=O

> <STRUCTURE_Parent_SMILES>
NC(N(N=C2C#N)C1=C(Cl)C=C(C(F)(F)F)C=C1Cl)=C2S(C(F)(F)F)=O

> <STRUCTURE_InChI>
InChI=1S/C12H4Cl2F6N4OS/c13-5-1-4(11(15,16)17)2-6(14)8(5)24-10(22)9(7(3-21)23-24)26(25)12(18,19)20/h1-2H,22H2

> <STRUCTURE_InChIKey>
ZOCSXAVNDGMNBV-UHFFFAOYSA-N

> <Substance_modify_yyyymmdd>
20080429

> <DSSTox_CID_Parent>
14609

> <ChemicalReplicateCount>
1

> <Coord_Metals>
0

> <Index>
143

> <Canonical_Smiles>
Nc1c(c(nn1c2c(Cl)cc(cc2Cl)C(F)(F)F)C#N)S(=O)C(F)(F)F

> <Molecular_Weight>
437.14777

> <Frequency>
1

$$$$

  SciTegic          2D

 47 48  0  0  0  0            999 V2000
    2.5988   -1.5004    0.0000 C   0  0
    1.2990   -0.7500    0.0000 C   0  0
    0.0000    1.5000    0.0000 N   0  0
   -3.8788    9.7587    0.0000 C   0  0
   -1.2990    0.7500    0.0000 C   0  0
    1.2990    0.7500    0.0000 C   0  0
   -3.8809    8.2579    0.0000 C   0  0
   -2.5827    7.5048    0.0000 O   0  0
    0.0000   -1.5000    0.0000 C   0  0
   -3.0119   10.2572    0.0000 O   0  0
   -2.5973    1.5031    0.0000 O   0  0
    3.6384   -0.9011    0.0000 F   0  0
    2.5984   -2.7004    0.0000 F   0  0
    3.6377   -2.1009    0.0000 F   0  0
   -2.5848    6.0040    0.0000 C   0  0
   -2.5951    3.0039    0.0000 C   0  0
   -1.2990   -0.7500    0.0000 C   0  0
   -5.1770   10.5117    0.0000 O   0  0
   -3.8864    5.2585    0.0000 C   0  0
   -1.2883    5.2495    0.0000 C   0  0
   -3.8915    3.7585    0.0000 C   0  0
   -1.2935    3.7495    0.0000 C   0  0
   -2.5532    9.0181    0.0000 C   0  0
   -5.1750   12.0125    0.0000 C   0  0
   -6.4732   12.7656    0.0000 C   0  0
   -6.4711   14.2664    0.0000 C   0  0
   -7.7693   15.0195    0.0000 C   0  0
    2.1651    1.2500    0.0000 H   0  0
   -4.7478    7.7593    0.0000 H   0  0
    0.0000   -2.5000    0.0000 H   0  0
   -2.1651   -1.2500    0.0000 H   0  0
   -4.7507    5.7614    0.0000 H   0  0
   -0.4206    5.7465    0.0000 H   0  0
   -4.7593    3.2615    0.0000 H   0  0
   -0.4292    3.2465    0.0000 H   0  0
   -1.6887    8.5155    0.0000 H   0  0
   -1.6856    9.5154    0.0000 H   0  0
   -2.5499   10.0181    0.0000 H   0  0
   -4.3081   12.5111    0.0000 H   0  0
   -4.3097   11.5112    0.0000 H   0  0
   -7.3401   12.2671    0.0000 H   0  0
   -6.4750   11.7656    0.0000 H   0  0
   -5.6042   14.7649    0.0000 H   0  0
   -5.6058   13.7651    0.0000 H   0  0
   -7.7679   16.0195    0.0000 H   0  0
   -8.6362   14.5209    0.0000 H   0  0
   -8.6346   15.5208    0.0000 H   0  0
  1  2  1  0
  1 12  1  0
  1 13  1  0
  1 14  1  0
  2  6  2  0
  2  9  1  0
  3  6  1  0
  3  5  2  0
  4  7  1  0
  4 10  2  0
  4 18  1  0
  5 17  1  0
  5 11  1  0
  7  8  1  0
  7 23  1  0
  8 15  1  0
  9 17  2  0
 11 16  1  0
 15 20  2  0
 15 19  1  0
 16 21  1  0
 16 22  2  0
 18 24  1  0
 19 21  2  0
 20 22  1  0
 24 25  1  0
 25 26  1  0
 26 27  1  0
  6 28  1  0
  7 29  1  0
  9 30  1  0
 17 31  1  0
 19 32  1  0
 20 33  1  0
 21 34  1  0
 22 35  1  0
 23 36  1  0
 23 37  1  0
 23 38  1  0
 24 39  1  0
 24 40  1  0
 25 41  1  0
 25 42  1  0
 26 43  1  0
 26 44  1  0
 27 45  1  0
 27 46  1  0
 27 47  1  0
M  END
> <DSSTox_RID>
40573
40767

> <DSSTox_CID>
14612
14855

> <DSSTox_Generic_SID>
34612
34855

> <DSSTox_FileID>
144_TOXCST_v3a
145_TOXCST_v3a

> <STRUCTURE_Formula>
C19H20F3NO4
C19H20F3NO4

> <STRUCTURE_MolecularWeight>
383.3616
383.3616

> <STRUCTURE_ChemicalType>
defined organic
defined organic

> <STRUCTURE_TestedForm_DefinedOrganic>
parent
parent

> <STRUCTURE_Shown>
tested chemical
tested chemical

> <TestSubstance_ChemicalName>
Fluazifop-butyl
Fluazifop-P-butyl

> <Source_ChemicalName>
Fluazifop-butyl
Fluazifop-P-butyl

> <TestSubstance_CASRN>
69806-50-4
79241-46-6

> <TestSubstance_Description>
single chemical compound
single chemical compound

> <STRUCTURE_ChemicalName_IUPAC>
butyl 2-(4-{[5-(trifluoromethyl)pyridin-2-yl]oxy}phenoxy)propanoate
butyl (2R)-2-(4-{[5-(trifluoromethyl)pyridin-2-yl]oxy}phenoxy)propanoate

> <STRUCTURE_SMILES>
O=C(OCCCC)C(C)OC(C=C2)=CC=C2OC1=NC=C(C=C1)C(F)(F)F
O=C(OCCCC)[C@H](OC1=CC=C(OC2=CC=C(C(F)(F)F)C=N2)C=C1)C

> <STRUCTURE_Parent_SMILES>
O=C(OCCCC)C(C)OC(C=C2)=CC=C2OC1=NC=C(C=C1)C(F)(F)F
O=C(OCCCC)[C@H](OC1=CC=C(OC2=CC=C(C(F)(F)F)C=N2)C=C1)C

> <STRUCTURE_InChI>
InChI=1S/C19H20F3NO4/c1-3-4-11-25-18(24)13(2)26-15-6-8-16(9-7-15)27-17-10-5-14(12-23-17)19(20,21)22/h5-10,12-13H,3-4,11H2,1-2H3
InChI=1S/C19H20F3NO4/c1-3-4-11-25-18(24)13(2)26-15-6-8-16(9-7-15)27-17-10-5-14(12-23-17)19(20,21)22/h5-10,12-13H,3-4,11H2,1-2H3/t13-/m1/s1

> <STRUCTURE_InChIKey>
VAIZTNZGPYBOGF-UHFFFAOYSA-N
VAIZTNZGPYBOGF-CYBMUJFWSA-N

> <Substance_modify_yyyymmdd>
20080429
20080429

> <DSSTox_CID_Parent>
14612
14855

> <ChemicalReplicateCount>
1
1

> <Relationship_CID>
nonstereo form of 14855
stereo form of 14612

> <Note_TOXCST>
structure modified v2b

> <Coord_Metals>
0
0

> <Index>
144
145

> <Canonical_Smiles>
CCCCOC(=O)C(C)Oc1ccc(Oc2ccc(cn2)C(F)(F)F)cc1

> <Molecular_Weight>
383.3616
383.3616

> <ChemicalNote>
stereochem

> <Frequency>
2

$$$$

  SciTegic          2D

 33 34  0  0  0  0            999 V2000
    1.2990   -0.7500    0.0000 N   0  0
    1.2990    0.7500    0.0000 C   0  0
    0.0000   -1.5000    0.0000 C   0  0
   -1.2990   -0.7500    0.0000 C   0  0
    0.0000    1.5000    0.0000 C   0  0
   -1.2990    0.7500    0.0000 C   0  0
   -0.5104   -2.9114    0.0000 N   0  0
   -2.3383   -1.3500    0.0000 Cl  0  0
    0.4559   -4.0597    0.0000 C   0  0
   -0.0521   -5.4711    0.0000 C   0  0
    1.9323   -3.7942    0.0000 C   0  0
    0.9160   -6.6168    0.0000 C   0  0
    2.9005   -4.9399    0.0000 C   0  0
    2.3923   -6.3512    0.0000 C   0  0
    0.5095   -7.7458    0.0000 Cl  0  0
   -1.5287   -5.7399    0.0000 N   0  0
   -1.9336   -6.8695    0.0000 O   0  0
   -2.3048   -4.8247    0.0000 O   0  0
    2.4437   -2.3832    0.0000 N   0  0
    3.6251   -2.1724    0.0000 O   0  0
    1.6708   -1.4652    0.0000 O   0  0
    3.3610   -7.4976    0.0000 C   0  0
    2.9552   -8.6269    0.0000 F   0  0
    4.5420   -7.2847    0.0000 F   0  0
    4.1360   -8.4138    0.0000 F   0  0
    0.0000    3.0008    0.0000 C   0  0
    1.0388    3.6015    0.0000 F   0  0
   -1.0394    3.6005    0.0000 F   0  0
   -0.0006    4.2008    0.0000 F   0  0
    2.1651    1.2500    0.0000 H   0  0
   -2.1651    1.2500    0.0000 H   0  0
   -1.4949   -3.0867    0.0000 H   0  0
    3.8847   -4.7628    0.0000 H   0  0
  1  2  2  0
  1  3  1  0
  2  5  1  0
  3  4  2  0
  3  7  1  0
  4  6  1  0
  4  8  1  0
  5  6  2  0
  5 26  1  0
  7  9  1  0
  9 10  2  0
  9 11  1  0
 10 12  1  0
 10 16  1  0
 11 13  2  0
 11 19  1  0
 12 14  2  0
 12 15  1  0
 13 14  1  0
 14 22  1  0
 16 17  2  0
 16 18  2  0
 19 20  2  0
 19 21  2  0
 22 23  1  0
 22 24  1  0
 22 25  1  0
 26 27  1  0
 26 28  1  0
 26 29  1  0
  2 30  1  0
  6 31  1  0
  7 32  1  0
 13 33  1  0
M  END
> <DSSTox_RID>
40468

> <DSSTox_CID>
12551

> <DSSTox_Generic_SID>
32551

> <DSSTox_FileID>
146_TOXCST_v3a

> <STRUCTURE_Formula>
C13H4Cl2F6N4O4

> <STRUCTURE_MolecularWeight>
465.0917

> <STRUCTURE_ChemicalType>
defined organic

> <STRUCTURE_TestedForm_DefinedOrganic>
parent

> <STRUCTURE_Shown>
tested chemical

> <TestSubstance_ChemicalName>
Fluazinam

> <Source_ChemicalName>
Fluazinam

> <TestSubstance_CASRN>
79622-59-6

> <TestSubstance_Description>
single chemical compound

> <STRUCTURE_ChemicalName_IUPAC>
3-chloro-N-[3-chloro-2,6-dinitro-4-(trifluoromethyl)phenyl]-5-(trifluoromethyl)pyridin-2-amine

> <STRUCTURE_SMILES>
ClC1=C(NC2=C([N+]([O-])=O)C(Cl)=C(C(F)(F)F)C=C2[N+]([O-])=O)N=CC(C(F)(F)F)=C1

> <STRUCTURE_Parent_SMILES>
ClC1=C(NC2=C([N+]([O-])=O)C(Cl)=C(C(F)(F)F)C=C2[N+]([O-])=O)N=CC(C(F)(F)F)=C1

> <STRUCTURE_InChI>
InChI=1S/C13H4Cl2F6N4O4/c14-6-1-4(12(16,17)18)3-22-11(6)23-9-7(24(26)27)2-5(13(19,20)21)8(15)10(9)25(28)29/h1-3H,(H,22,23)

> <STRUCTURE_InChIKey>
UZCGKGPEKUCDTF-UHFFFAOYSA-N

> <Substance_modify_yyyymmdd>
20080429

> <DSSTox_CID_Parent>
12551

> <ChemicalReplicateCount>
1

> <Coord_Metals>
0

> <Index>
146

> <Canonical_Smiles>
FC(F)(F)c1cnc(Nc2c(cc(c(Cl)c2N(=O)=O)C(F)(F)F)N(=O)=O)c(Cl)c1

> <Molecular_Weight>
465.09167

> <Frequency>
1

$$$$

  SciTegic          2D

 24 26  0  0  0  0            999 V2000
    0.2917    0.7475    0.0000 C   0  0
   -1.0028    1.5132    0.0000 C   0  0
    0.2917   -0.7475    0.0000 C   0  0
    1.7138    1.2033    0.0000 O   0  0
   -0.9982    3.0140    0.0000 C   0  0
   -2.3155    0.7475    0.0000 C   0  0
    1.7138   -1.2033    0.0000 O   0  0
   -1.0028   -1.5132    0.0000 C   0  0
    2.5889    0.0182    0.0000 C   0  0
   -2.2026    3.8859    0.0000 C   0  0
    0.2243    3.8612    0.0000 C   0  0
   -2.3155   -0.7475    0.0000 C   0  0
    3.1809   -1.0256    0.0000 F   0  0
    3.1659    1.0704    0.0000 F   0  0
   -1.7246    5.3077    0.0000 C   0  0
   -3.6286    3.4264    0.0000 C   0  0
   -0.2247    5.2924    0.0000 N   0  0
   -4.7708    3.0583    0.0000 N   0  0
   -3.1826    1.2456    0.0000 H   0  0
   -0.9997   -2.5132    0.0000 H   0  0
    1.1702    3.5368    0.0000 H   0  0
   -3.1826   -1.2456    0.0000 H   0  0
   -2.3041    6.1226    0.0000 H   0  0
    0.3713    6.0954    0.0000 H   0  0
  1  2  2  0
  1  3  1  0
  1  4  1  0
  2  5  1  0
  2  6  1  0
  3  7  1  0
  3  8  2  0
  4  9  1  0
  5 10  1  0
  5 11  2  0
  6 12  2  0
  7  9  1  0
  8 12  1  0
  9 13  1  0
  9 14  1  0
 10 15  2  0
 10 16  1  0
 11 17  1  0
 15 17  1  0
 16 18  3  0
  6 19  1  0
  8 20  1  0
 11 21  1  0
 12 22  1  0
 15 23  1  0
 17 24  1  0
M  END
> <DSSTox_RID>
40470

> <DSSTox_CID>
12398

> <DSSTox_Generic_SID>
32398

> <DSSTox_FileID>
147_TOXCST_v3a

> <STRUCTURE_Formula>
C12H6F2N2O2

> <STRUCTURE_MolecularWeight>
248.185

> <STRUCTURE_ChemicalType>
defined organic

> <STRUCTURE_TestedForm_DefinedOrganic>
parent

> <STRUCTURE_Shown>
tested chemical

> <TestSubstance_ChemicalName>
Fludioxonil

> <Source_ChemicalName>
Fludioxonil

> <TestSubstance_CASRN>
131341-86-1

> <TestSubstance_Description>
single chemical compound

> <STRUCTURE_ChemicalName_IUPAC>
4-(2,2-difluoro-1,3-benzodioxol-4-yl)-1H-pyrrole-3-carbonitrile

> <STRUCTURE_SMILES>
FC3(F)OC(C(O3)=CC=C2)=C2C1=CNC=C1C#N

> <STRUCTURE_Parent_SMILES>
FC3(F)OC(C(O3)=CC=C2)=C2C1=CNC=C1C#N

> <STRUCTURE_InChI>
InChI=1S/C12H6F2N2O2/c13-12(14)17-10-3-1-2-8(11(10)18-12)9-6-16-5-7(9)4-15/h1-3,5-6,16H

> <STRUCTURE_InChIKey>
MUJOIMFVNIBMKC-UHFFFAOYSA-N

> <Substance_modify_yyyymmdd>
20080429

> <DSSTox_CID_Parent>
12398

> <ChemicalReplicateCount>
1

> <Coord_Metals>
0

> <Index>
147

> <Canonical_Smiles>
FC1(F)Oc2cccc(c2O1)c3c[nH]cc3C#N

> <Molecular_Weight>
248.18504

> <Frequency>
1

$$$$

  SciTegic          2D

 37 38  0  0  0  0            999 V2000
    1.2990   -0.7500    0.0000 C   0  0
    2.5973   -1.5031    0.0000 N   0  0
    1.2990    0.7500    0.0000 C   0  0
    0.0000   -1.5000    0.0000 C   0  0
    2.5951   -3.0039    0.0000 C   0  0
    3.8982   -0.7550    0.0000 C   0  0
    0.0000    1.5000    0.0000 C   0  0
   -1.2990   -0.7500    0.0000 C   0  0
    3.8933   -3.7570    0.0000 C   0  0
    1.5548   -3.6021    0.0000 O   0  0
    3.1957    0.6251    0.0000 C   0  0
    5.4450   -0.6790    0.0000 C   0  0
   -1.2990    0.7500    0.0000 C   0  0
    3.8912   -5.2578    0.0000 O   0  0
   -2.3383    1.3500    0.0000 F   0  0
    5.1894   -6.0109    0.0000 C   0  0
    5.3273   -7.4917    0.0000 S   0  0
    6.5408   -5.3899    0.0000 N   0  0
    6.7945   -7.8036    0.0000 C   0  0
    7.5445   -6.5046    0.0000 N   0  0
    7.4039   -9.1723    0.0000 C   0  0
    6.6991  -10.1436    0.0000 F   0  0
    8.5973   -9.2974    0.0000 F   0  0
    7.8925  -10.2684    0.0000 F   0  0
    2.1651    1.2500    0.0000 H   0  0
    0.0000   -2.5000    0.0000 H   0  0
    4.7633   -1.2566    0.0000 H   0  0
    0.0000    2.5000    0.0000 H   0  0
   -2.1651   -1.2500    0.0000 H   0  0
    4.7586   -4.2584    0.0000 H   0  0
    4.7602   -3.2585    0.0000 H   0  0
    2.1957    0.6272    0.0000 H   0  0
    2.7086    1.4984    0.0000 H   0  0
    3.7193    1.4771    0.0000 H   0  0
    5.9436   -1.5458    0.0000 H   0  0
    6.4449   -0.6679    0.0000 H   0  0
    5.9242    0.1986    0.0000 H   0  0
  1  2  1  0
  1  3  1  0
  1  4  2  0
  2  5  1  0
  2  6  1  0
  3  7  2  0
  4  8  1  0
  5  9  1  0
  5 10  2  0
  6 11  1  0
  6 12  1  0
  7 13  1  0
  8 13  2  0
  9 14  1  0
 13 15  1  0
 14 16  1  0
 16 17  1  0
 16 18  2  0
 17 19  1  0
 18 20  1  0
 19 21  1  0
 19 20  2  0
 21 22  1  0
 21 23  1  0
 21 24  1  0
  3 25  1  0
  4 26  1  0
  6 27  1  0
  7 28  1  0
  8 29  1  0
  9 30  1  0
  9 31  1  0
 11 32  1  0
 11 33  1  0
 11 34  1  0
 12 35  1  0
 12 36  1  0
 12 37  1  0
M  END
> <DSSTox_RID>
40471

> <DSSTox_CID>
12552

> <DSSTox_Generic_SID>
32552

> <DSSTox_FileID>
148_TOXCST_v3a

> <STRUCTURE_Formula>
C14H13F4N3O2S

> <STRUCTURE_MolecularWeight>
363.3305

> <STRUCTURE_ChemicalType>
defined organic

> <STRUCTURE_TestedForm_DefinedOrganic>
parent

> <STRUCTURE_Shown>
tested chemical

> <TestSubstance_ChemicalName>
Flufenacet

> <Source_ChemicalName>
Flufenacet

> <TestSubstance_CASRN>
142459-58-3

> <TestSubstance_Description>
single chemical compound

> <STRUCTURE_ChemicalName_IUPAC>
N-(4-fluorophenyl)-N-isopropyl-2-{[5-(trifluoromethyl)-1,3,4-thiadiazol-2-yl]oxy}acetamide

> <STRUCTURE_SMILES>
O=C(COC2=NN=C(C(F)(F)F)S2)N(C(C)C)C1=CC=C(F)C=C1

> <STRUCTURE_Parent_SMILES>
O=C(COC2=NN=C(C(F)(F)F)S2)N(C(C)C)C1=CC=C(F)C=C1

> <STRUCTURE_InChI>
InChI=1S/C14H13F4N3O2S/c1-8(2)21(10-5-3-9(15)4-6-10)11(22)7-23-13-20-19-12(24-13)14(16,17)18/h3-6,8H,7H2,1-2H3

> <STRUCTURE_InChIKey>
IANUJLZYFUDJIH-UHFFFAOYSA-N

> <Substance_modify_yyyymmdd>
20080429

> <DSSTox_CID_Parent>
12552

> <ChemicalReplicateCount>
1

> <Coord_Metals>
0

> <Index>
148

> <Canonical_Smiles>
CC(C)N(C(=O)COc1nnc(s1)C(F)(F)F)c2ccc(F)cc2

> <Molecular_Weight>
363.33053

> <Frequency>
1

$$$$

  SciTegic          2D

 40 41  0  0  0  0            999 V2000
    1.2990   -0.7500    0.0000 N   0  0
    1.2990    0.7500    0.0000 N   0  0
    0.0000   -1.5000    0.0000 C   0  0
    0.0000    1.5000    0.0000 C   0  0
   -1.2990   -0.7500    0.0000 C   0  0
   -1.2990    0.7500    0.0000 C   0  0
    5.1969   -1.5045    0.0000 C   0  0
    5.1945   -3.0045    0.0000 C   0  0
    3.8991   -0.7525    0.0000 C   0  0
    3.8943   -3.7525    0.0000 C   0  0
    2.5987   -1.5004    0.0000 C   0  0
    2.5965   -3.0004    0.0000 C   0  0
    6.2328   -3.6062    0.0000 Cl  0  0
    1.5563   -3.5988    0.0000 F   0  0
   -2.5988    1.5004    0.0000 C   0  0
   -2.5996    2.7004    0.0000 F   0  0
   -3.6378    0.9001    0.0000 F   0  0
   -3.6383    2.0999    0.0000 F   0  0
    6.4963   -0.7535    0.0000 O   0  0
    6.4965    0.7473    0.0000 C   0  0
    7.7959    1.4984    0.0000 C   0  0
    7.7962    2.9992    0.0000 O   0  0
    9.0956    3.7502    0.0000 C   0  0
    9.0958    5.2510    0.0000 C   0  0
    8.8353    0.8985    0.0000 O   0  0
    0.0000   -2.7000    0.0000 O   0  0
   -2.5988   -1.5004    0.0000 C   0  0
    0.0000    2.5000    0.0000 H   0  0
    3.9007    0.2475    0.0000 H   0  0
    3.8927   -4.7525    0.0000 H   0  0
    5.6305    0.2473    0.0000 H   0  0
    5.6304    1.2472    0.0000 H   0  0
    9.0959    2.7502    0.0000 H   0  0
    9.9617    3.2503    0.0000 H   0  0
    9.9616    5.7514    0.0000 H   0  0
    9.0955    6.2510    0.0000 H   0  0
    8.2297    5.7509    0.0000 H   0  0
   -2.5994   -2.5004    0.0000 H   0  0
   -3.4647   -1.0002    0.0000 H   0  0
   -3.4650   -2.0000    0.0000 H   0  0
  1  2  1  0
  1  3  1  0
  1 11  1  0
  2  4  2  0
  3  5  1  0
  3 26  2  0
  4  6  1  0
  5  6  2  0
  5 27  1  0
  6 15  1  0
  7  8  1  0
  7  9  2  0
  7 19  1  0
  8 10  2  0
  8 13  1  0
  9 11  1  0
 10 12  1  0
 11 12  2  0
 12 14  1  0
 15 16  1  0
 15 17  1  0
 15 18  1  0
 19 20  1  0
 20 21  1  0
 21 22  1  0
 21 25  2  0
 22 23  1  0
 23 24  1  0
  4 28  1  0
  9 29  1  0
 10 30  1  0
 20 31  1  0
 20 32  1  0
 23 33  1  0
 23 34  1  0
 24 35  1  0
 24 36  1  0
 24 37  1  0
 27 38  1  0
 27 39  1  0
 27 40  1  0
M  END
> <DSSTox_RID>
40472

> <DSSTox_CID>
14618

> <DSSTox_Generic_SID>
34618

> <DSSTox_FileID>
149_TOXCST_v3a

> <STRUCTURE_Formula>
C16H13ClF4N2O4

> <STRUCTURE_MolecularWeight>
408.732

> <STRUCTURE_ChemicalType>
defined organic

> <STRUCTURE_TestedForm_DefinedOrganic>
parent

> <STRUCTURE_Shown>
tested chemical

> <TestSubstance_ChemicalName>
Flufenpyr-ethyl

> <Source_ChemicalName>
Flufenpyr-ethyl

> <TestSubstance_CASRN>
188489-07-8

> <TestSubstance_Description>
single chemical compound

> <STRUCTURE_ChemicalName_IUPAC>
ethyl {2-chloro-4-fluoro-5-[5-methyl-6-oxo-4-(trifluoromethyl)pyridazin-1(6H)-yl]phenoxy}acetate

> <STRUCTURE_SMILES>
ClC1=CC(F)=C(N2N=CC(C(F)(F)F)=C(C)C2=O)C=C1OCC(OCC)=O

> <STRUCTURE_Parent_SMILES>
ClC1=CC(F)=C(N2N=CC(C(F)(F)F)=C(C)C2=O)C=C1OCC(OCC)=O

> <STRUCTURE_InChI>
InChI=1S/C16H13ClF4N2O4/c1-3-26-14(24)7-27-13-5-12(11(18)4-10(13)17)23-15(25)8(2)9(6-22-23)16(19,20)21/h4-6H,3,7H2,1-2H3

> <STRUCTURE_InChIKey>
DNUAYCRATWAJQE-UHFFFAOYSA-N

> <Substance_modify_yyyymmdd>
20080429

> <DSSTox_CID_Parent>
14618

> <ChemicalReplicateCount>
1

> <Coord_Metals>
0

> <Index>
149

> <Canonical_Smiles>
CCOC(=O)COc1cc(N2N=CC(=C(C)C2=O)C(F)(F)F)c(F)cc1Cl

> <Molecular_Weight>
408.73203

> <Frequency>
1

$$$$

  SciTegic          2D

 40 41  0  0  0  0            999 V2000
    1.2990   -0.7500    0.0000 C   0  0
    1.2990    0.7500    0.0000 C   0  0
    0.0000    1.5000    0.0000 C   0  0
   -1.2990    0.7500    0.0000 C   0  0
   -1.2990   -0.7500    0.0000 C   0  0
    0.0000   -1.5000    0.0000 C   0  0
    2.5988   -1.5004    0.0000 C   0  0
    2.5997   -3.0012    0.0000 N   0  0
    0.0000   -2.7000    0.0000 Cl  0  0
    3.8995   -3.7516    0.0000 C   0  0
    3.9026   -5.2517    0.0000 C   0  0
    5.1971   -2.9990    0.0000 C   0  0
    5.2032   -5.9990    0.0000 C   0  0
    6.4977   -3.7464    0.0000 C   0  0
    6.5007   -5.2464    0.0000 C   0  0
    2.4257   -5.5184    0.0000 N   0  0
    2.0192   -6.6475    0.0000 O   0  0
    1.7800   -4.7548    0.0000 O   0  0
    5.1972   -1.4982    0.0000 N   0  0
    6.2361   -0.8976    0.0000 O   0  0
    4.1578   -0.8985    0.0000 O   0  0
    7.8020   -5.9941    0.0000 C   0  0
    7.8052   -7.1941    0.0000 F   0  0
    8.8398   -5.3917    0.0000 F   0  0
    8.8427   -6.5915    0.0000 F   0  0
    1.1223   -3.2654    0.0000 C   0  0
    0.6115   -4.6766    0.0000 C   0  0
    2.3383    1.3500    0.0000 F   0  0
    0.0000    2.5000    0.0000 H   0  0
   -2.1651    1.2500    0.0000 H   0  0
   -2.1651   -1.2500    0.0000 H   0  0
    3.4651   -2.0000    0.0000 H   0  0
    3.4647   -1.0001    0.0000 H   0  0
    5.2053   -6.9990    0.0000 H   0  0
    7.3627   -3.2446    0.0000 H   0  0
    1.4623   -2.3249    0.0000 H   0  0
    0.4780   -2.5006    0.0000 H   0  0
   -0.3729   -4.8526    0.0000 H   0  0
    0.2715   -5.6170    0.0000 H   0  0
    1.2558   -5.4413    0.0000 H   0  0
  1  2  1  0
  1  6  2  0
  1  7  1  0
  2  3  2  0
  2 28  1  0
  3  4  1  0
  4  5  2  0
  5  6  1  0
  6  9  1  0
  7  8  1  0
  8 10  1  0
  8 26  1  0
 10 11  2  0
 10 12  1  0
 11 13  1  0
 11 16  1  0
 12 14  2  0
 12 19  1  0
 13 15  2  0
 14 15  1  0
 15 22  1  0
 16 17  2  0
 16 18  2  0
 19 20  2  0
 19 21  2  0
 22 23  1  0
 22 24  1  0
 22 25  1  0
 26 27  1  0
  3 29  1  0
  4 30  1  0
  5 31  1  0
  7 32  1  0
  7 33  1  0
 13 34  1  0
 14 35  1  0
 26 36  1  0
 26 37  1  0
 27 38  1  0
 27 39  1  0
 27 40  1  0
M  END
> <DSSTox_RID>
40473

> <DSSTox_CID>
12553

> <DSSTox_Generic_SID>
32553

> <DSSTox_FileID>
150_TOXCST_v3a

> <STRUCTURE_Formula>
C16H12ClF4N3O4

> <STRUCTURE_MolecularWeight>
421.7308

> <STRUCTURE_ChemicalType>
defined organic

> <STRUCTURE_TestedForm_DefinedOrganic>
parent

> <STRUCTURE_Shown>
tested chemical

> <TestSubstance_ChemicalName>
Flumetralin

> <Source_ChemicalName>
Flumetralin

> <TestSubstance_CASRN>
62924-70-3

> <TestSubstance_Description>
single chemical compound

> <STRUCTURE_ChemicalName_IUPAC>
N-(2-chloro-6-fluorobenzyl)-N-ethyl-2,6-dinitro-4-(trifluoromethyl)aniline

> <STRUCTURE_SMILES>
ClC1=C(CN(CC)C2=C([N+]([O-])=O)C=C(C(F)(F)F)C=C2[N+]([O-])=O)C(F)=CC=C1

> <STRUCTURE_Parent_SMILES>
ClC1=C(CN(CC)C2=C([N+]([O-])=O)C=C(C(F)(F)F)C=C2[N+]([O-])=O)C(F)=CC=C1

> <STRUCTURE_InChI>
InChI=1S/C16H12ClF4N3O4/c1-2-22(8-10-11(17)4-3-5-12(10)18)15-13(23(25)26)6-9(16(19,20)21)7-14(15)24(27)28/h3-7H,2,8H2,1H3

> <STRUCTURE_InChIKey>
PWNAWOCHVWERAR-UHFFFAOYSA-N

> <Substance_modify_yyyymmdd>
20080429

> <DSSTox_CID_Parent>
12553

> <ChemicalReplicateCount>
1

> <Coord_Metals>
0

> <Index>
150

> <Canonical_Smiles>
CCN(Cc1c(F)cccc1Cl)c2c(cc(cc2N(=O)=O)C(F)(F)F)N(=O)=O

> <Molecular_Weight>
421.73079

> <Frequency>
1

$$$$

  SciTegic          2D

 31 33  0  0  0  0            999 V2000
    6.5354   -3.5745    0.0000 F   0  0
    7.1214   -2.5273    0.0000 C   0  0
    6.3539   -1.2384    0.0000 C   0  0
    7.0865    0.0706    0.0000 C   0  0
    8.5864    0.0907    0.0000 C   0  0
    9.3537   -1.1981    0.0000 C   0  0
    8.6212   -2.5071    0.0000 C   0  0
    6.4726    1.1017    0.0000 F   0  0
    4.8532   -1.2555    0.0000 N   0  0
    4.0872    0.0351    0.0000 S   0  0
    4.6750    1.0813    0.0000 O   0  0
    5.2871    0.0494    0.0000 O   0  0
    2.5889    0.0182    0.0000 C   0  0
    1.7138    1.2033    0.0000 N   0  0
    0.2917    0.7475    0.0000 N   0  0
   -1.0028    1.5132    0.0000 C   0  0
   -2.3155    0.7475    0.0000 C   0  0
   -2.3155   -0.7475    0.0000 C   0  0
   -1.0028   -1.5132    0.0000 N   0  0
    0.2917   -0.7475    0.0000 C   0  0
    1.7138   -1.2033    0.0000 N   0  0
   -3.6202   -1.4892    0.0000 C   0  0
    9.0747    0.9634    0.0000 H   0  0
   10.3536   -1.1847    0.0000 H   0  0
    9.1328   -3.3664    0.0000 H   0  0
    4.3634   -2.1273    0.0000 H   0  0
   -0.9997    2.5132    0.0000 H   0  0
   -3.1826    1.2456    0.0000 H   0  0
   -4.4831   -0.9839    0.0000 H   0  0
   -3.6266   -2.4892    0.0000 H   0  0
   -4.4893   -1.9837    0.0000 H   0  0
  1  2  1  0
  2  3  1  0
  2  7  2  0
  3  4  2  0
  3  9  1  0
  4  5  1  0
  4  8  1  0
  5  6  2  0
  6  7  1  0
  9 10  1  0
 10 11  2  0
 10 12  2  0
 10 13  1  0
 13 14  2  0
 13 21  1  0
 14 15  1  0
 15 16  1  0
 15 20  1  0
 16 17  2  0
 17 18  1  0
 18 19  2  0
 18 22  1  0
 19 20  1  0
 20 21  2  0
  5 23  1  0
  6 24  1  0
  7 25  1  0
  9 26  1  0
 16 27  1  0
 17 28  1  0
 22 29  1  0
 22 30  1  0
 22 31  1  0
M  END
> <DSSTox_RID>
40474

> <DSSTox_CID>
12615

> <DSSTox_Generic_SID>
32615

> <DSSTox_FileID>
151_TOXCST_v3a

> <STRUCTURE_Formula>
C12H9F2N5O2S

> <STRUCTURE_MolecularWeight>
325.294

> <STRUCTURE_ChemicalType>
defined organic

> <STRUCTURE_TestedForm_DefinedOrganic>
parent

> <STRUCTURE_Shown>
tested chemical

> <TestSubstance_ChemicalName>
Flumetsulam

> <Source_ChemicalName>
Flumetsulam

> <TestSubstance_CASRN>
98967-40-9

> <TestSubstance_Description>
single chemical compound

> <ChemicalNote>
tautomers

> <STRUCTURE_ChemicalName_IUPAC>
N-(2,6-difluorophenyl)-5-methyl[1,2,4]triazolo[1,5-a]pyrimidine-2-sulfonamide

> <STRUCTURE_SMILES>
FC1=CC=CC(F)=C1NS(=O)(C3=NN2C=CC(C)=NC2=N3)=O

> <STRUCTURE_Parent_SMILES>
FC1=CC=CC(F)=C1NS(=O)(C3=NN2C=CC(C)=NC2=N3)=O

> <STRUCTURE_InChI>
InChI=1S/C12H9F2N5O2S/c1-7-5-6-19-11(15-7)16-12(17-19)22(20,21)18-10-8(13)3-2-4-9(10)14/h2-6,18H,1H3

> <STRUCTURE_InChIKey>
RXCPQSJAVKGONC-UHFFFAOYSA-N

> <Substance_modify_yyyymmdd>
20080429

> <DSSTox_CID_Parent>
12615

> <ChemicalReplicateCount>
1

> <Coord_Metals>
0

> <Index>
151

> <Canonical_Smiles>
Cc1ccn2nc(nc2n1)S(=O)(=O)Nc3c(F)cccc3F

> <Molecular_Weight>
325.29396

> <Frequency>
1

$$$$

  SciTegic          2D

 52 54  0  0  0  0            999 V2000
    2.5889    0.0182    0.0000 N   0  0
    4.0896    0.0290    0.0000 C   0  0
    1.7138    1.2033    0.0000 C   0  0
    1.7138   -1.2033    0.0000 C   0  0
    4.9397   -1.2009    0.0000 C   0  0
    4.7275    1.3885    0.0000 C   0  0
    0.2917    0.7475    0.0000 C   0  0
    2.0825    2.3453    0.0000 O   0  0
    0.2917   -0.7475    0.0000 C   0  0
    2.0907   -2.3426    0.0000 O   0  0
    6.4347   -1.0783    0.0000 C   0  0
    6.2225    1.5110    0.0000 C   0  0
    4.0430    2.3742    0.0000 F   0  0
   -1.0028    1.5132    0.0000 C   0  0
   -1.0028   -1.5132    0.0000 C   0  0
    7.0761    0.2776    0.0000 C   0  0
    7.2913   -2.3107    0.0000 O   0  0
   -2.3155    0.7475    0.0000 C   0  0
   -2.3155   -0.7475    0.0000 C   0  0
    8.2720    0.3756    0.0000 Cl  0  0
    8.7869   -2.1860    0.0000 C   0  0
    9.6435   -3.4184    0.0000 C   0  0
   11.1391   -3.2936    0.0000 O   0  0
    9.1323   -4.5040    0.0000 O   0  0
   11.9957   -4.5260    0.0000 C   0  0
   13.4914   -4.4013    0.0000 C   0  0
   14.3480   -5.6336    0.0000 C   0  0
   15.8436   -5.5089    0.0000 C   0  0
   16.7002   -6.7413    0.0000 C   0  0
    4.5118   -2.1047    0.0000 H   0  0
    6.6501    2.4150    0.0000 H   0  0
   -1.8786    1.9959    0.0000 H   0  0
   -0.1241    1.9907    0.0000 H   0  0
   -1.8786   -1.9959    0.0000 H   0  0
   -0.1241   -1.9907    0.0000 H   0  0
   -3.1682    0.2251    0.0000 H   0  0
   -1.4603    0.2291    0.0000 H   0  0
   -3.1682   -0.2251    0.0000 H   0  0
   -2.2940   -1.7473    0.0000 H   0  0
    8.2165   -1.3646    0.0000 H   0  0
    9.2129   -1.2813    0.0000 H   0  0
   10.9992   -4.6096    0.0000 H   0  0
   11.5697   -5.4307    0.0000 H   0  0
   12.9210   -3.5799    0.0000 H   0  0
   13.9174   -3.4966    0.0000 H   0  0
   13.3515   -5.7172    0.0000 H   0  0
   13.9220   -6.5384    0.0000 H   0  0
   15.2733   -4.6875    0.0000 H   0  0
   16.2696   -4.6042    0.0000 H   0  0
   17.6968   -6.6582    0.0000 H   0  0
   17.2706   -7.5627    0.0000 H   0  0
   16.2742   -7.6460    0.0000 H   0  0
  1  2  1  0
  1  3  1  0
  1  4  1  0
  2  5  2  0
  2  6  1  0
  3  7  1  0
  3  8  2  0
  4  9  1  0
  4 10  2  0
  5 11  1  0
  6 12  2  0
  6 13  1  0
  7 14  1  0
  7  9  2  0
  9 15  1  0
 11 16  2  0
 11 17  1  0
 12 16  1  0
 14 18  1  0
 15 19  1  0
 16 20  1  0
 17 21  1  0
 18 19  1  0
 21 22  1  0
 22 23  1  0
 22 24  2  0
 23 25  1  0
 25 26  1  0
 26 27  1  0
 27 28  1  0
 28 29  1  0
  5 30  1  0
 12 31  1  0
 14 32  1  0
 14 33  1  0
 15 34  1  0
 15 35  1  0
 18 36  1  0
 18 37  1  0
 19 38  1  0
 19 39  1  0
 21 40  1  0
 21 41  1  0
 25 42  1  0
 25 43  1  0
 26 44  1  0
 26 45  1  0
 27 46  1  0
 27 47  1  0
 28 48  1  0
 28 49  1  0
 29 50  1  0
 29 51  1  0
 29 52  1  0
M  END
> <DSSTox_RID>
40475

> <DSSTox_CID>
12554

> <DSSTox_Generic_SID>
32554

> <DSSTox_FileID>
152_TOXCST_v3a

> <STRUCTURE_Formula>
C21H23ClFNO5

> <STRUCTURE_MolecularWeight>
423.8624

> <STRUCTURE_ChemicalType>
defined organic

> <STRUCTURE_TestedForm_DefinedOrganic>
parent

> <STRUCTURE_Shown>
tested chemical

> <TestSubstance_ChemicalName>
Flumiclorac-pentyl

> <Source_ChemicalName>
Flumiclorac-pentyl

> <TestSubstance_CASRN>
87546-18-7

> <TestSubstance_Description>
single chemical compound

> <STRUCTURE_ChemicalName_IUPAC>
pentyl [2-chloro-5-(1,3-dioxo-1,3,4,5,6,7-hexahydro-2H-isoindol-2-yl)-4-fluorophenoxy]acetate

> <STRUCTURE_SMILES>
O=C(C3=C2CCCC3)N(C2=O)C1=CC(OCC(OCCCCC)=O)=C(Cl)C=C1F

> <STRUCTURE_Parent_SMILES>
O=C(C3=C2CCCC3)N(C2=O)C1=CC(OCC(OCCCCC)=O)=C(Cl)C=C1F

> <STRUCTURE_InChI>
InChI=1S/C21H23ClFNO5/c1-2-3-6-9-28-19(25)12-29-18-11-17(16(23)10-15(18)22)24-20(26)13-7-4-5-8-14(13)21(24)27/h10-11H,2-9,12H2,1H3

> <STRUCTURE_InChIKey>
IRECWLYBCAZIJM-UHFFFAOYSA-N

> <Substance_modify_yyyymmdd>
20080429

> <DSSTox_CID_Parent>
12554

> <ChemicalReplicateCount>
1

> <Coord_Metals>
0

> <Index>
152

> <Canonical_Smiles>
CCCCCOC(=O)COc1cc(N2C(=O)C3=C(CCCC3)C2=O)c(F)cc1Cl

> <Molecular_Weight>
423.86242

> <Frequency>
1

$$$$

  SciTegic          2D

 41 44  0  0  0  0            999 V2000
   -3.6486    1.3517    0.0000 F   0  0
   -2.6111    0.7486    0.0000 C   0  0
   -2.6111   -0.7486    0.0000 C   0  0
   -1.2964   -1.4973    0.0000 C   0  0
    0.0000   -0.7486    0.0000 C   0  0
    0.0000    0.7486    0.0000 C   0  0
   -1.2964    1.4973    0.0000 C   0  0
    1.2964    1.4973    0.0000 O   0  0
    2.5929    0.7486    0.0000 C   0  0
    2.5929   -0.7486    0.0000 C   0  0
    3.6321   -1.3486    0.0000 O   0  0
    1.2964   -1.4973    0.0000 N   0  0
    1.2964   -2.9981    0.0000 C   0  0
   -0.0028   -3.7494    0.0000 C   0  0
   -1.3021   -4.5006    0.0000 C   0  0
   -3.9086   -1.5029    0.0000 N   0  0
   -4.0541   -2.9848    0.0000 C   0  0
   -3.1622   -3.7876    0.0000 O   0  0
   -5.5168   -3.2858    0.0000 C   0  0
   -6.2507   -1.9833    0.0000 C   0  0
   -5.2355   -0.8881    0.0000 C   0  0
   -5.4677    0.2892    0.0000 O   0  0
   -7.7544   -1.9516    0.0000 C   0  0
   -8.5221   -3.2631    0.0000 C   0  0
   -7.7882   -4.5656    0.0000 C   0  0
   -6.2687   -4.5884    0.0000 C   0  0
   -1.2934   -2.4973    0.0000 H   0  0
   -1.2934    2.4973    0.0000 H   0  0
    3.4468    0.2283    0.0000 H   0  0
    2.5694    1.7484    0.0000 H   0  0
    2.1626   -3.4979    0.0000 H   0  0
    1.2969   -3.9981    0.0000 H   0  0
   -2.1678   -5.0012    0.0000 H   0  0
   -8.7543   -1.9610    0.0000 H   0  0
   -7.2232   -1.1043    0.0000 H   0  0
   -9.0086   -4.1368    0.0000 H   0  0
   -8.9943   -2.3816    0.0000 H   0  0
   -7.2787   -5.4261    0.0000 H   0  0
   -8.7876   -4.5292    0.0000 H   0  0
   -6.7948   -5.4388    0.0000 H   0  0
   -5.2688   -4.5729    0.0000 H   0  0
  1  2  1  0
  2  3  1  0
  2  7  2  0
  3  4  2  0
  3 16  1  0
  4  5  1  0
  5  6  2  0
  5 12  1  0
  6  7  1  0
  6  8  1  0
  8  9  1  0
  9 10  1  0
 10 11  2  0
 10 12  1  0
 12 13  1  0
 13 14  1  0
 14 15  3  0
 16 17  1  0
 16 21  1  0
 17 18  2  0
 17 19  1  0
 19 20  2  0
 19 26  1  0
 20 21  1  0
 20 23  1  0
 21 22  2  0
 23 24  1  0
 24 25  1  0
 25 26  1  0
  4 27  1  0
  7 28  1  0
  9 29  1  0
  9 30  1  0
 13 31  1  0
 13 32  1  0
 15 33  1  0
 23 34  1  0
 23 35  1  0
 24 36  1  0
 24 37  1  0
 25 38  1  0
 25 39  1  0
 26 40  1  0
 26 41  1  0
M  END
> <DSSTox_RID>
40476

> <DSSTox_CID>
12555

> <DSSTox_Generic_SID>
32555

> <DSSTox_FileID>
153_TOXCST_v3a

> <STRUCTURE_Formula>
C19H15FN2O4

> <STRUCTURE_MolecularWeight>
354.3318

> <STRUCTURE_ChemicalType>
defined organic

> <STRUCTURE_TestedForm_DefinedOrganic>
parent

> <STRUCTURE_Shown>
tested chemical

> <TestSubstance_ChemicalName>
Flumioxazin

> <Source_ChemicalName>
Flumioxazin

> <TestSubstance_CASRN>
103361-09-7

> <TestSubstance_Description>
single chemical compound

> <STRUCTURE_ChemicalName_IUPAC>
2-(7-fluoro-3-oxo-4-prop-2-yn-1-yl-3,4-dihydro-2H-1,4-benzoxazin-6-yl)-4,5,6,7-tetrahydro-1H-isoindole-1,3(2H)-dione

> <STRUCTURE_SMILES>
FC1=CC(OCC2=O)=C(N2CC#C)C=C1N3C(C4=C(CCCC4)C3=O)=O

> <STRUCTURE_Parent_SMILES>
FC1=CC(OCC2=O)=C(N2CC#C)C=C1N3C(C4=C(CCCC4)C3=O)=O

> <STRUCTURE_InChI>
InChI=1S/C19H15FN2O4/c1-2-7-21-15-9-14(13(20)8-16(15)26-10-17(21)23)22-18(24)11-5-3-4-6-12(11)19(22)25/h1,8-9H,3-7,10H2

> <STRUCTURE_InChIKey>
FOUWCSDKDDHKQP-UHFFFAOYSA-N

> <Substance_modify_yyyymmdd>
20080429

> <DSSTox_CID_Parent>
12555

> <ChemicalReplicateCount>
1

> <Coord_Metals>
0

> <Index>
153

> <Canonical_Smiles>
Fc1cc2OCC(=O)N(CC#C)c2cc1N3C(=O)C4=C(CCCC4)C3=O

> <Molecular_Weight>
354.3318

> <Frequency>
1

$$$$

  SciTegic          2D

 27 27  0  0  0  0            999 V2000
    1.5548   -3.6021    0.0000 O   0  0
    2.5951   -3.0039    0.0000 C   0  0
    2.5973   -1.5031    0.0000 N   0  0
    1.2990   -0.7500    0.0000 C   0  0
    1.2990    0.7500    0.0000 C   0  0
    0.0000    1.5000    0.0000 C   0  0
   -1.2990    0.7500    0.0000 C   0  0
   -1.2990   -0.7500    0.0000 C   0  0
    0.0000   -1.5000    0.0000 C   0  0
   -2.5988   -1.5004    0.0000 C   0  0
   -3.6384   -0.9011    0.0000 F   0  0
   -2.5984   -2.7004    0.0000 F   0  0
   -3.6377   -2.1009    0.0000 F   0  0
    3.8933   -3.7570    0.0000 N   0  0
    3.8912   -5.2578    0.0000 C   0  0
    5.1929   -3.0062    0.0000 C   0  0
    3.4642   -1.0046    0.0000 H   0  0
    2.1651    1.2500    0.0000 H   0  0
    0.0000    2.5000    0.0000 H   0  0
   -2.1651    1.2500    0.0000 H   0  0
    0.0000   -2.5000    0.0000 H   0  0
    4.7562   -5.7596    0.0000 H   0  0
    3.8893   -6.2578    0.0000 H   0  0
    3.0243   -5.7563    0.0000 H   0  0
    5.1932   -2.0062    0.0000 H   0  0
    6.0589   -3.5062    0.0000 H   0  0
    6.0590   -2.5063    0.0000 H   0  0
  1  2  2  0
  2  3  1  0
  2 14  1  0
  3  4  1  0
  4  5  2  0
  4  9  1  0
  5  6  1  0
  6  7  2  0
  7  8  1  0
  8  9  2  0
  8 10  1  0
 10 11  1  0
 10 12  1  0
 10 13  1  0
 14 15  1  0
 14 16  1  0
  3 17  1  0
  5 18  1  0
  6 19  1  0
  7 20  1  0
  9 21  1  0
 15 22  1  0
 15 23  1  0
 15 24  1  0
 16 25  1  0
 16 26  1  0
 16 27  1  0
M  END
> <DSSTox_RID>
40477

> <DSSTox_CID>
628

> <DSSTox_Generic_SID>
20628

> <DSSTox_FileID>
154_TOXCST_v3a

> <STRUCTURE_Formula>
C10H11F3N2O

> <STRUCTURE_MolecularWeight>
232.2023

> <STRUCTURE_ChemicalType>
defined organic

> <STRUCTURE_TestedForm_DefinedOrganic>
parent

> <STRUCTURE_Shown>
tested chemical

> <TestSubstance_ChemicalName>
Fluometuron

> <Source_ChemicalName>
Fluometuron

> <TestSubstance_CASRN>
2164-17-2

> <TestSubstance_Description>
single chemical compound

> <STRUCTURE_ChemicalName_IUPAC>
1,1-dimethyl-3-[3-(trifluoromethyl)phenyl]urea

> <STRUCTURE_SMILES>
O=C(NC1=CC=CC(=C1)C(F)(F)F)N(C)C

> <STRUCTURE_Parent_SMILES>
O=C(NC1=CC=CC(=C1)C(F)(F)F)N(C)C

> <STRUCTURE_InChI>
InChI=1S/C10H11F3N2O/c1-15(2)9(16)14-8-5-3-4-7(6-8)10(11,12)13/h3-6H,1-2H3,(H,14,16)

> <STRUCTURE_InChIKey>
RZILCCPWPBTYDO-UHFFFAOYSA-N

> <Substance_modify_yyyymmdd>
20080429

> <DSSTox_CID_Parent>
628

> <ChemicalReplicateCount>
1

> <Coord_Metals>
0

> <Index>
154

> <Canonical_Smiles>
CN(C)C(=O)Nc1cccc(c1)C(F)(F)F

> <Molecular_Weight>
232.20234

> <Frequency>
1

$$$$

  SciTegic          2D

 48 51  0  0  0  0            999 V2000
    1.2990   -0.7500    0.0000 C   0  0
    1.2990    0.7500    0.0000 N   0  0
    0.0000   -1.5000    0.0000 C   0  0
    0.0000    1.5000    0.0000 C   0  0
   -1.2990   -0.7500    0.0000 C   0  0
   -1.2990    0.7500    0.0000 N   0  0
   -3.8990   -0.7455    0.0000 C   0  0
   -5.2007   -1.4909    0.0000 C   0  0
   -3.8939    0.7546    0.0000 C   0  0
   -6.4972   -0.7365    0.0000 C   0  0
   -5.1903    1.5090    0.0000 C   0  0
   -6.4920    0.7635    0.0000 C   0  0
   -2.6003   -1.4978    0.0000 O   0  0
   -2.8526    1.3510    0.0000 Cl  0  0
    0.0000   -2.7000    0.0000 F   0  0
    2.6003   -1.4977    0.0000 O   0  0
    3.9049   -5.2478    0.0000 C   0  0
    3.9039   -3.7478    0.0000 C   0  0
    2.6063   -5.9987    0.0000 C   0  0
    2.6044   -2.9986    0.0000 C   0  0
    1.3068   -5.2495    0.0000 C   0  0
    1.3058   -3.7495    0.0000 C   0  0
    5.2010   -2.9928    0.0000 C   0  0
    5.1984   -1.4920    0.0000 N   0  0
    9.1081   -5.2276    0.0000 C   0  0
    7.8121   -5.9829    0.0000 O   0  0
    9.1020   -3.7277    0.0000 C   0  0
    6.5100   -5.2381    0.0000 N   0  0
    7.8000   -2.9829    0.0000 O   0  0
    6.5039   -3.7379    0.0000 C   0  0
    6.4963   -0.7384    0.0000 O   0  0
    6.4937    0.7624    0.0000 C   0  0
    0.0000    2.5000    0.0000 H   0  0
   -5.2042   -2.4909    0.0000 H   0  0
   -7.3649   -1.2335    0.0000 H   0  0
   -5.1869    2.5090    0.0000 H   0  0
   -7.3563    1.2665    0.0000 H   0  0
    4.7712   -5.7472    0.0000 H   0  0
    2.6070   -6.9987    0.0000 H   0  0
    0.4411   -5.7501    0.0000 H   0  0
    0.4395   -3.2501    0.0000 H   0  0
    9.9600   -4.7039    0.0000 H   0  0
    9.0886   -6.2275    0.0000 H   0  0
    9.9581   -4.2445    0.0000 H   0  0
    9.0745   -2.7280    0.0000 H   0  0
    7.3585    1.2645    0.0000 H   0  0
    6.4915    1.7624    0.0000 H   0  0
    5.6266    1.2606    0.0000 H   0  0
  1  2  1  0
  1  3  2  0
  1 16  1  0
  2  4  2  0
  3  5  1  0
  3 15  1  0
  4  6  1  0
  5  6  2  0
  5 13  1  0
  7  8  1  0
  7  9  2  0
  7 13  1  0
  8 10  2  0
  9 11  1  0
  9 14  1  0
 10 12  1  0
 11 12  2  0
 16 20  1  0
 17 18  1  0
 17 19  2  0
 18 20  2  0
 18 23  1  0
 19 21  1  0
 20 22  1  0
 21 22  2  0
 23 24  2  0
 23 30  1  0
 24 31  1  0
 25 26  1  0
 25 27  1  0
 26 28  1  0
 27 29  1  0
 28 30  2  0
 29 30  1  0
 31 32  1  0
  4 33  1  0
  8 34  1  0
 10 35  1  0
 11 36  1  0
 12 37  1  0
 17 38  1  0
 19 39  1  0
 21 40  1  0
 22 41  1  0
 25 42  1  0
 25 43  1  0
 27 44  1  0
 27 45  1  0
 32 46  1  0
 32 47  1  0
 32 48  1  0
M  END
> <DSSTox_RID>
40478

> <DSSTox_CID>
14625

> <DSSTox_Generic_SID>
34625

> <DSSTox_FileID>
155_TOXCST_v3a

> <STRUCTURE_Formula>
C21H16ClFN4O5

> <STRUCTURE_MolecularWeight>
458.8269

> <STRUCTURE_ChemicalType>
defined organic

> <STRUCTURE_TestedForm_DefinedOrganic>
parent

> <STRUCTURE_Shown>
tested chemical

> <TestSubstance_ChemicalName>
Fluoxastrobin

> <Source_ChemicalName>
Fluoxastrobin

> <TestSubstance_CASRN>
361377-29-9

> <TestSubstance_Description>
single chemical compound

> <ChemicalNote>
stereochem

> <STRUCTURE_ChemicalName_IUPAC>
(E)-(2-{[6-(2-chlorophenoxy)-5-fluoropyrimidin-4-yl]oxy}phenyl)(5,6-dihydro-1,4,2-dioxazin-3-yl)methanone O-methyloxime

> <STRUCTURE_SMILES>
ClC1=C(OC2=NC=NC(OC3=C(\C(C4=NOCCO4)=N/OC)C=CC=C3)=C2F)C=CC=C1

> <STRUCTURE_Parent_SMILES>
ClC1=C(OC2=NC=NC(OC3=C(\C(C4=NOCCO4)=N/OC)C=CC=C3)=C2F)C=CC=C1

> <STRUCTURE_InChI>
InChI=1S/C21H16ClFN4O5/c1-28-26-18(21-27-30-11-10-29-21)13-6-2-4-8-15(13)31-19-17(23)20(25-12-24-19)32-16-9-5-3-7-14(16)22/h2-9,12H,10-11H2,1H3/b26-18+

> <STRUCTURE_InChIKey>
UFEODZBUAFNAEU-NLRVBDNBSA-N

> <Substance_modify_yyyymmdd>
20080429

> <DSSTox_CID_Parent>
14625

> <ChemicalReplicateCount>
1

> <Coord_Metals>
0

> <Index>
155

> <Canonical_Smiles>
CON=C(C1=NOCCO1)c2ccccc2Oc3ncnc(Oc4ccccc4Cl)c3F

> <Molecular_Weight>
458.82694

> <Frequency>
1

$$$$

  SciTegic          2D

 20 20  0  0  0  0            999 V2000
    1.2990   -0.7500    0.0000 N   0  0
   -1.2990    0.7500    0.0000 C   0  0
    0.0000    1.5000    0.0000 C   0  0
   -1.2990   -0.7500    0.0000 C   0  0
    1.2990    0.7500    0.0000 C   0  0
    0.0000   -1.5000    0.0000 C   0  0
    2.6003    1.4978    0.0000 O   0  0
    5.2003    1.4932    0.0000 C   0  0
   -2.5973    1.5031    0.0000 N   0  0
   -2.3383   -1.3500    0.0000 Cl  0  0
    0.0000    2.7000    0.0000 Cl  0  0
    5.2024    2.6932    0.0000 O   0  0
    0.0000   -2.7000    0.0000 F   0  0
    3.8990    0.7455    0.0000 C   0  0
    6.4990    0.7410    0.0000 O   0  0
   -2.5958    2.5031    0.0000 H   0  0
   -3.4642    1.0046    0.0000 H   0  0
    3.0322    0.2469    0.0000 H   0  0
    3.8973   -0.2545    0.0000 H   0  0
    7.3660    1.2392    0.0000 H   0  0
  1  5  2  0
  1  6  1  0
  2  4  1  0
  2  9  1  0
  2  3  2  0
  3  5  1  0
  3 11  1  0
  4  6  2  0
  4 10  1  0
  5  7  1  0
  6 13  1  0
  7 14  1  0
  8 14  1  0
  8 12  2  0
  8 15  1  0
  9 16  1  0
  9 17  1  0
 14 18  1  0
 14 19  1  0
 15 20  1  0
M  END
> <DSSTox_RID>
40479

> <DSSTox_CID>
14627

> <DSSTox_Generic_SID>
34627

> <DSSTox_FileID>
156_TOXCST_v3a

> <STRUCTURE_Formula>
C7H5Cl2FN2O3

> <STRUCTURE_MolecularWeight>
255.0306

> <STRUCTURE_ChemicalType>
defined organic

> <STRUCTURE_TestedForm_DefinedOrganic>
parent

> <STRUCTURE_Shown>
tested chemical

> <TestSubstance_ChemicalName>
Fluroxypyr

> <Source_ChemicalName>
Fluroxypyr

> <TestSubstance_CASRN>
69377-81-7

> <TestSubstance_Description>
single chemical compound

> <STRUCTURE_ChemicalName_IUPAC>
[(4-amino-3,5-dichloro-6-fluoropyridin-2-yl)oxy]acetic acid

> <STRUCTURE_SMILES>
NC1=C(Cl)C(F)=NC(OCC(O)=O)=C1Cl

> <STRUCTURE_Parent_SMILES>
NC1=C(Cl)C(F)=NC(OCC(O)=O)=C1Cl

> <STRUCTURE_InChI>
InChI=1S/C7H5Cl2FN2O3/c8-3-5(11)4(9)7(12-6(3)10)15-1-2(13)14/h1H2,(H2,11,12)(H,13,14)

> <STRUCTURE_InChIKey>
MEFQWPUMEMWTJP-UHFFFAOYSA-N

> <Substance_modify_yyyymmdd>
20080429

> <DSSTox_CID_Parent>
14627

> <ChemicalReplicateCount>
1

> <Coord_Metals>
0

> <Index>
156

> <Canonical_Smiles>
Nc1c(Cl)c(F)nc(OCC(=O)O)c1Cl

> <Molecular_Weight>
255.0306

> <Frequency>
1

$$$$

  SciTegic          2D

 44 44  0  0  0  0            999 V2000
    1.2990   -0.7500    0.0000 C   0  0
    1.2990    0.7500    0.0000 C   0  0
    0.0000   -1.5000    0.0000 N   0  0
    0.0000    1.5000    0.0000 C   0  0
   -1.2990   -0.7500    0.0000 C   0  0
   -1.2990    0.7500    0.0000 C   0  0
   -2.3383   -1.3500    0.0000 F   0  0
   -2.3383    1.3500    0.0000 Cl  0  0
   -0.0031    3.0008    0.0000 N   0  0
    2.3383    1.3500    0.0000 Cl  0  0
    2.5973   -1.5031    0.0000 O   0  0
    2.5951   -3.0039    0.0000 C   0  0
    3.8933   -3.7570    0.0000 C   0  0
    3.8912   -5.2578    0.0000 O   0  0
    4.9336   -3.1588    0.0000 O   0  0
    5.1894   -6.0109    0.0000 C   0  0
    5.1873   -7.5117    0.0000 C   0  0
    3.8617   -6.7711    0.0000 C   0  0
    6.4855   -8.2648    0.0000 C   0  0
    6.4833   -9.7656    0.0000 C   0  0
    7.7815  -10.5187    0.0000 C   0  0
    7.7794  -12.0195    0.0000 C   0  0
    9.0776  -12.7726    0.0000 C   0  0
   -0.8698    3.4996    0.0000 H   0  0
    0.8620    3.5023    0.0000 H   0  0
    1.7282   -3.5024    0.0000 H   0  0
    1.7299   -2.5025    0.0000 H   0  0
    6.0563   -5.5124    0.0000 H   0  0
    4.3220   -7.0104    0.0000 H   0  0
    4.3204   -8.0102    0.0000 H   0  0
    2.9972   -6.2685    0.0000 H   0  0
    2.9941   -7.2684    0.0000 H   0  0
    3.8584   -7.7711    0.0000 H   0  0
    7.3524   -7.7663    0.0000 H   0  0
    6.4874   -7.2648    0.0000 H   0  0
    5.6164  -10.2641    0.0000 H   0  0
    5.6181   -9.2643    0.0000 H   0  0
    8.6484  -10.0202    0.0000 H   0  0
    7.7834   -9.5187    0.0000 H   0  0
    6.9125  -12.5180    0.0000 H   0  0
    6.9142  -11.5182    0.0000 H   0  0
    9.0762  -13.7726    0.0000 H   0  0
    9.9445  -12.2741    0.0000 H   0  0
    9.9428  -13.2740    0.0000 H   0  0
  1  2  1  0
  1  3  2  0
  1 11  1  0
  2  4  2  0
  2 10  1  0
  3  5  1  0
  4  6  1  0
  4  9  1  0
  5  6  2  0
  5  7  1  0
  6  8  1  0
 11 12  1  0
 12 13  1  0
 13 14  1  0
 13 15  2  0
 14 16  1  0
 16 17  1  0
 16 18  1  0
 17 19  1  0
 19 20  1  0
 20 21  1  0
 21 22  1  0
 22 23  1  0
  9 24  1  0
  9 25  1  0
 12 26  1  0
 12 27  1  0
 16 28  1  0
 17 29  1  0
 17 30  1  0
 18 31  1  0
 18 32  1  0
 18 33  1  0
 19 34  1  0
 19 35  1  0
 20 36  1  0
 20 37  1  0
 21 38  1  0
 21 39  1  0
 22 40  1  0
 22 41  1  0
 23 42  1  0
 23 43  1  0
 23 44  1  0
M  END
> <DSSTox_RID>
40334

> <DSSTox_CID>
14303

> <DSSTox_Generic_SID>
34303

> <DSSTox_FileID>
157_TOXCST_v3a

> <STRUCTURE_Formula>
C15H21Cl2FN2O3

> <STRUCTURE_MolecularWeight>
367.2432

> <STRUCTURE_ChemicalType>
defined organic

> <STRUCTURE_TestedForm_DefinedOrganic>
parent

> <STRUCTURE_Shown>
tested chemical

> <TestSubstance_ChemicalName>
Fluroxypyr-meptyl

> <Source_ChemicalName>
Fluroxypyr-meptyl

> <TestSubstance_CASRN>
81406-37-3

> <TestSubstance_Description>
single chemical compound

> <STRUCTURE_ChemicalName_IUPAC>
1-methylheptyl [(4-amino-3,5-dichloro-6-fluoropyridin-2-yl)oxy]acetate

> <STRUCTURE_SMILES>
FC1=C(Cl)C(N)=C(Cl)C(OCC(OC(C)CCCCCC)=O)=N1

> <STRUCTURE_Parent_SMILES>
FC1=C(Cl)C(N)=C(Cl)C(OCC(OC(C)CCCCCC)=O)=N1

> <STRUCTURE_InChI>
InChI=1S/C15H21Cl2FN2O3/c1-3-4-5-6-7-9(2)23-10(21)8-22-15-12(17)13(19)11(16)14(18)20-15/h9H,3-8H2,1-2H3,(H2,19,20)

> <STRUCTURE_InChIKey>
OLZQTUCTGLHFTQ-UHFFFAOYSA-N

> <Substance_modify_yyyymmdd>
20080429

> <DSSTox_CID_Parent>
14303

> <ChemicalReplicateCount>
1

> <Coord_Metals>
0

> <Index>
157

> <Canonical_Smiles>
CCCCCCC(C)OC(=O)COc1nc(F)c(Cl)c(N)c1Cl

> <Molecular_Weight>
367.24324

> <Frequency>
1

$$$$

  SciTegic          2D

 37 39  0  0  0  0            999 V2000
    3.4069   -6.0827    0.0000 N   0  0
    1.4158   -4.4109    0.0000 Si  0  0
    4.8937   -7.9746    0.0000 N   0  0
    2.5607   -7.3057    0.0000 N   0  0
    2.8936   -4.6724    0.0000 C   0  0
    4.8413   -6.4755    0.0000 C   0  0
    3.4842   -8.4877    0.0000 C   0  0
    0.9025   -3.0005    0.0000 C   0  0
    0.4508   -5.5602    0.0000 C   0  0
   -0.5748   -3.2610    0.0000 C   0  0
    1.4146   -6.7096    0.0000 C   0  0
    1.4155   -1.5910    0.0000 C   0  0
   -1.0265   -5.8202    0.0000 C   0  0
   -1.0259   -0.7024    0.0000 C   0  0
   -0.5762   -8.3789    0.0000 C   0  0
    0.4513   -0.4419    0.0000 C   0  0
   -1.5400   -7.2296    0.0000 C   0  0
   -1.5389   -2.1119    0.0000 C   0  0
    0.9011   -8.1189    0.0000 C   0  0
   -1.7972    0.2168    0.0000 F   0  0
   -0.9870   -9.5064    0.0000 F   0  0
    2.3974   -3.2373    0.0000 C   0  0
    3.5367   -3.9066    0.0000 H   0  0
    3.8784   -4.8462    0.0000 H   0  0
    5.6257   -5.8552    0.0000 H   0  0
    3.2085   -9.4489    0.0000 H   0  0
   -0.9168   -4.2007    0.0000 H   0  0
    2.3994   -6.5362    0.0000 H   0  0
    2.4003   -1.4174    0.0000 H   0  0
   -1.6691   -5.0539    0.0000 H   0  0
    0.7933    0.4978    0.0000 H   0  0
   -2.5249   -7.4029    0.0000 H   0  0
   -2.5237   -2.2856    0.0000 H   0  0
    1.5436   -8.8852    0.0000 H   0  0
    2.0545   -2.2979    0.0000 H   0  0
    3.3824   -3.4097    0.0000 H   0  0
    3.0393   -2.4706    0.0000 H   0  0
  1  4  1  0
  1  5  1  0
  1  6  1  0
  2  5  1  0
  2  8  1  0
  2  9  1  0
  2 22  1  0
  3  6  2  0
  3  7  1  0
  4  7  2  0
  8 10  2  0
  8 12  1  0
  9 11  2  0
  9 13  1  0
 10 18  1  0
 11 19  1  0
 12 16  2  0
 13 17  2  0
 14 16  1  0
 14 20  1  0
 14 18  2  0
 15 17  1  0
 15 21  1  0
 15 19  2  0
  5 23  1  0
  5 24  1  0
  6 25  1  0
  7 26  1  0
 10 27  1  0
 11 28  1  0
 12 29  1  0
 13 30  1  0
 16 31  1  0
 17 32  1  0
 18 33  1  0
 19 34  1  0
 22 35  1  0
 22 36  1  0
 22 37  1  0
M  END
> <DSSTox_RID>
40480

> <DSSTox_CID>
4235

> <DSSTox_Generic_SID>
24235

> <DSSTox_FileID>
158_TOXCST_v3a

> <STRUCTURE_Formula>
C16H15F2N3Si

> <STRUCTURE_MolecularWeight>
315.3927

> <STRUCTURE_ChemicalType>
organometallic

> <STRUCTURE_Shown>
tested chemical

> <TestSubstance_ChemicalName>
Flusilazole

> <Source_ChemicalName>
Flusilazole

> <TestSubstance_CASRN>
85509-19-9

> <TestSubstance_Description>
single chemical compound

> <STRUCTURE_ChemicalName_IUPAC>
1-[[Bis(4-fluorophenyl)methylsilyl]methyl]-1H-1,2,4-triazole

> <STRUCTURE_SMILES>
C[Si](Cn1cncn1)(c2ccc(F)cc2)c3ccc(F)cc3

> <STRUCTURE_InChI>
InChI=1S/C16H15F2N3Si/c1-22(12-21-11-19-10-20-21,15-6-2-13(17)3-7-15)16-8-4-14(18)5-9-16/h2-11H,12H2,1H3

> <STRUCTURE_InChIKey>
FQKUGOMFVDPBIZ-UHFFFAOYSA-N

> <Substance_modify_yyyymmdd>
20080429

> <ChemicalReplicateCount>
1

> <Coord_Metals>
0

> <Index>
158

> <Canonical_Smiles>
C[Si](Cn1cncn1)(c2ccc(F)cc2)c3ccc(F)cc3

> <Molecular_Weight>
315.3927

> <Frequency>
1

$$$$

  SciTegic          2D

 40 42  0  0  0  0            999 V2000
    5.5448   -8.6243    0.0000 C   0  0
    6.7199   -8.8671    0.0000 O   0  0
    4.5473   -9.7458    0.0000 O   0  0
    5.0732   -7.1995    0.0000 C   0  0
    6.0706   -6.0781    0.0000 S   0  0
    5.5991   -4.6533    0.0000 C   0  0
    6.5944   -3.5310    0.0000 C   0  0
    4.1295   -4.3524    0.0000 C   0  0
    6.1201   -2.1080    0.0000 C   0  0
    3.6552   -2.9294    0.0000 C   0  0
    4.6506   -1.8071    0.0000 C   0  0
    7.7700   -3.7717    0.0000 Cl  0  0
    4.2712   -0.6687    0.0000 F   0  0
    2.1855   -2.6254    0.0000 N   0  0
    0.2917   -0.7475    0.0000 N   0  0
    0.2917    0.7475    0.0000 N   0  0
   -1.0028    1.5132    0.0000 C   0  0
   -1.0028   -1.5132    0.0000 C   0  0
   -2.3155    0.7475    0.0000 C   0  0
   -2.3155   -0.7475    0.0000 C   0  0
    2.5889    0.0182    0.0000 S   0  0
    1.7138   -1.2033    0.0000 C   0  0
    1.7138    1.2033    0.0000 C   0  0
    2.0825    2.3453    0.0000 O   0  0
    5.0189  -11.1706    0.0000 C   0  0
    4.7585   -6.2503    0.0000 H   0  0
    4.0939   -6.9973    0.0000 H   0  0
    3.4660   -5.1006    0.0000 H   0  0
    6.7836   -1.3598    0.0000 H   0  0
   -1.8786    1.9959    0.0000 H   0  0
   -0.1241    1.9907    0.0000 H   0  0
   -1.8786   -1.9959    0.0000 H   0  0
   -0.1241   -1.9907    0.0000 H   0  0
   -3.1682    0.2251    0.0000 H   0  0
   -2.2940    1.7473    0.0000 H   0  0
   -3.1682   -0.2251    0.0000 H   0  0
   -2.2940   -1.7473    0.0000 H   0  0
    4.3543  -11.9178    0.0000 H   0  0
    5.3335  -12.1198    0.0000 H   0  0
    5.9982  -11.3728    0.0000 H   0  0
  1  2  2  0
  1  3  1  0
  1  4  1  0
  3 25  1  0
  4  5  1  0
  5  6  1  0
  6  7  2  0
  6  8  1  0
  7  9  1  0
  7 12  1  0
  8 10  2  0
  9 11  2  0
 10 11  1  0
 14 10  1  0
 11 13  1  0
 14 22  2  0
 15 16  1  0
 15 18  1  0
 15 22  1  0
 16 17  1  0
 16 23  1  0
 17 19  1  0
 18 20  1  0
 19 20  1  0
 21 22  1  0
 21 23  1  0
 23 24  2  0
  4 26  1  0
  4 27  1  0
  8 28  1  0
  9 29  1  0
 17 30  1  0
 17 31  1  0
 18 32  1  0
 18 33  1  0
 19 34  1  0
 19 35  1  0
 20 36  1  0
 20 37  1  0
 25 38  1  0
 25 39  1  0
 25 40  1  0
M  END
> <DSSTox_RID>
40481

> <DSSTox_CID>
12556

> <DSSTox_Generic_SID>
32556

> <DSSTox_FileID>
159_TOXCST_v3a

> <STRUCTURE_Formula>
C15H15ClFN3O3S2

> <STRUCTURE_MolecularWeight>
403.8793

> <STRUCTURE_ChemicalType>
defined organic

> <STRUCTURE_TestedForm_DefinedOrganic>
parent

> <STRUCTURE_Shown>
tested chemical

> <TestSubstance_ChemicalName>
Fluthiacet-methyl

> <Source_ChemicalName>
Fluthiacet-methyl

> <TestSubstance_CASRN>
117337-19-6

> <TestSubstance_Description>
single chemical compound

> <STRUCTURE_ChemicalName_IUPAC>
methyl [(2-chloro-4-fluoro-5-{[(1Z)-3-oxotetrahydro[1,3,4]thiadiazolo[3,4-a]pyridazin-1-ylidene]amino}phenyl)thio]acetate

> <STRUCTURE_SMILES>
O=C(CSC1=C(Cl)C=C(F)C(/N=C(SC3=O)/N2N3CCCC2)=C1)OC

> <STRUCTURE_Parent_SMILES>
O=C(CSC1=C(Cl)C=C(F)C(/N=C(SC3=O)/N2N3CCCC2)=C1)OC

> <STRUCTURE_InChI>
InChI=1S/C15H15ClFN3O3S2/c1-23-13(21)8-24-12-7-11(10(17)6-9(12)16)18-14-19-4-2-3-5-20(19)15(22)25-14/h6-7H,2-5,8H2,1H3/b18-14-

> <STRUCTURE_InChIKey>
ZCNQYNHDVRPZIH-JXAWBTAJSA-N

> <Substance_modify_yyyymmdd>
20080429

> <DSSTox_CID_Parent>
12556

> <ChemicalReplicateCount>
1

> <Coord_Metals>
0

> <Index>
159

> <Canonical_Smiles>
COC(=O)CSc1cc(N=C2SC(=O)N3CCCCN23)c(F)cc1Cl

> <Molecular_Weight>
403.8793

> <Frequency>
1

$$$$

  SciTegic          2D

 39 40  0  0  0  0            999 V2000
    1.2990   -0.7500    0.0000 C   0  0
    1.2990    0.7500    0.0000 C   0  0
    2.5973   -1.5031    0.0000 C   0  0
    0.0000   -1.5000    0.0000 C   0  0
    0.0000    1.5000    0.0000 C   0  0
    2.5988    1.5004    0.0000 C   0  0
    2.5951   -3.0039    0.0000 N   0  0
    3.6375   -0.9049    0.0000 O   0  0
   -1.2990   -0.7500    0.0000 C   0  0
   -1.2990    0.7500    0.0000 C   0  0
    3.6384    0.9011    0.0000 F   0  0
    2.5984    2.7004    0.0000 F   0  0
    3.6377    2.1009    0.0000 F   0  0
    3.8933   -3.7570    0.0000 C   0  0
    3.8934   -5.2570    0.0000 C   0  0
    5.1925   -3.0070    0.0000 C   0  0
    5.1924   -6.0070    0.0000 C   0  0
    6.4915   -3.7571    0.0000 C   0  0
    6.4915   -5.2571    0.0000 C   0  0
    5.1955   -7.5079    0.0000 O   0  0
    6.4963   -8.2565    0.0000 C   0  0
    6.4993   -9.7573    0.0000 C   0  0
    7.7947   -7.5039    0.0000 C   0  0
    0.0000   -2.5000    0.0000 H   0  0
    0.0000    2.5000    0.0000 H   0  0
    1.7282   -3.5024    0.0000 H   0  0
   -2.1651   -1.2500    0.0000 H   0  0
   -2.1651    1.2500    0.0000 H   0  0
    3.0274   -5.7570    0.0000 H   0  0
    5.1925   -2.0070    0.0000 H   0  0
    7.3575   -3.2571    0.0000 H   0  0
    7.3575   -5.7571    0.0000 H   0  0
    5.6311   -8.7580    0.0000 H   0  0
    7.3661  -10.2561    0.0000 H   0  0
    5.6342  -10.2588    0.0000 H   0  0
    6.5009  -10.7573    0.0000 H   0  0
    7.7936   -6.5039    0.0000 H   0  0
    8.6614   -8.0026    0.0000 H   0  0
    8.6601   -7.0028    0.0000 H   0  0
  1  2  2  0
  1  3  1  0
  1  4  1  0
  2  5  1  0
  2  6  1  0
  3  7  1  0
  3  8  2  0
  4  9  2  0
  5 10  2  0
  6 11  1  0
  6 12  1  0
  6 13  1  0
  7 14  1  0
  9 10  1  0
 14 15  2  0
 14 16  1  0
 15 17  1  0
 16 18  2  0
 17 19  2  0
 17 20  1  0
 18 19  1  0
 20 21  1  0
 21 22  1  0
 21 23  1  0
  4 24  1  0
  5 25  1  0
  7 26  1  0
  9 27  1  0
 10 28  1  0
 15 29  1  0
 16 30  1  0
 18 31  1  0
 19 32  1  0
 21 33  1  0
 22 34  1  0
 22 35  1  0
 22 36  1  0
 23 37  1  0
 23 38  1  0
 23 39  1  0
M  END
> <DSSTox_RID>
40482

> <DSSTox_CID>
4109

> <DSSTox_Generic_SID>
24109

> <DSSTox_FileID>
160_TOXCST_v3a

> <STRUCTURE_Formula>
C17H16F3NO2

> <STRUCTURE_MolecularWeight>
323.3096

> <STRUCTURE_ChemicalType>
defined organic

> <STRUCTURE_TestedForm_DefinedOrganic>
parent

> <STRUCTURE_Shown>
tested chemical

> <TestSubstance_ChemicalName>
Flutolanil

> <Source_ChemicalName>
Flutolanil

> <TestSubstance_CASRN>
66332-96-5

> <TestSubstance_Description>
single chemical compound

> <STRUCTURE_ChemicalName_IUPAC>
N-(3-isopropoxyphenyl)-2-(trifluoromethyl)benzamide

> <STRUCTURE_SMILES>
CC(C)Oc1cccc(c1)NC(=O)c2ccccc2C(F)(F)F

> <STRUCTURE_Parent_SMILES>
CC(C)Oc1cccc(c1)NC(=O)c2ccccc2C(F)(F)F

> <STRUCTURE_InChI>
InChI=1S/C17H16F3NO2/c1-11(2)23-13-7-5-6-12(10-13)21-16(22)14-8-3-4-9-15(14)17(18,19)20/h3-11H,1-2H3,(H,21,22)

> <STRUCTURE_InChIKey>
PTCGDEVVHUXTMP-UHFFFAOYSA-N

> <Substance_modify_yyyymmdd>
20080429

> <DSSTox_CID_Parent>
4109

> <ChemicalReplicateCount>
1

> <Coord_Metals>
0

> <Index>
160

> <Canonical_Smiles>
CC(C)Oc1cccc(NC(=O)c2ccccc2C(F)(F)F)c1

> <Molecular_Weight>
323.30964

> <Frequency>
1

$$$$

  SciTegic          2D

 20 21  0  0  0  0            999 V2000
    2.0825    2.3453    0.0000 O   0  0
    1.7138    1.2033    0.0000 C   0  0
    2.5889    0.0182    0.0000 N   0  0
    1.7138   -1.2033    0.0000 C   0  0
    2.0907   -2.3426    0.0000 O   0  0
    0.2917   -0.7475    0.0000 C   0  0
    0.2917    0.7475    0.0000 C   0  0
   -1.0028    1.5132    0.0000 C   0  0
   -2.3155    0.7475    0.0000 C   0  0
   -2.3155   -0.7475    0.0000 C   0  0
   -1.0028   -1.5132    0.0000 C   0  0
    4.0872    0.0320    0.0000 S   0  0
    4.8506   -1.2602    0.0000 C   0  0
    6.0505   -1.2490    0.0000 Cl  0  0
    4.2606   -2.3052    0.0000 Cl  0  0
    5.4604   -2.2937    0.0000 Cl  0  0
   -0.9997    2.5132    0.0000 H   0  0
   -3.1826    1.2456    0.0000 H   0  0
   -3.1826   -1.2456    0.0000 H   0  0
   -0.9997   -2.5132    0.0000 H   0  0
  1  2  2  0
  2  3  1  0
  2  7  1  0
  3  4  1  0
  3 12  1  0
  4  5  2  0
  4  6  1  0
  6  7  2  0
  6 11  1  0
  7  8  1  0
  8  9  2  0
  9 10  1  0
 10 11  2  0
 12 13  1  0
 13 14  1  0
 13 15  1  0
 13 16  1  0
  8 17  1  0
  9 18  1  0
 10 19  1  0
 11 20  1  0
M  END
> <DSSTox_RID>
40483

> <DSSTox_CID>
1385

> <DSSTox_Generic_SID>
21385

> <DSSTox_FileID>
161_TOXCST_v3a

> <STRUCTURE_Formula>
C9H4Cl3NO2S

> <STRUCTURE_MolecularWeight>
296.5576

> <STRUCTURE_ChemicalType>
defined organic

> <STRUCTURE_TestedForm_DefinedOrganic>
parent

> <STRUCTURE_Shown>
tested chemical

> <TestSubstance_ChemicalName>
Folpet

> <Source_ChemicalName>
Folpet

> <TestSubstance_CASRN>
133-07-3

> <TestSubstance_Description>
single chemical compound

> <STRUCTURE_ChemicalName_IUPAC>
2-[(trichloromethyl)thio]-1H-isoindole-1,3(2H)-dione

> <STRUCTURE_SMILES>
O=C1N(C(=O)C2=C1C=CC=C2)SC(Cl)(Cl)Cl

> <STRUCTURE_Parent_SMILES>
O=C1N(C(=O)C2=C1C=CC=C2)SC(Cl)(Cl)Cl

> <STRUCTURE_InChI>
InChI=1S/C9H4Cl3NO2S/c10-9(11,12)16-13-7(14)5-3-1-2-4-6(5)8(13)15/h1-4H

> <STRUCTURE_InChIKey>
HKIOYBQGHSTUDB-UHFFFAOYSA-N

> <Substance_modify_yyyymmdd>
20080429

> <DSSTox_CID_Parent>
1385

> <ChemicalReplicateCount>
1

> <Coord_Metals>
0

> <Index>
161

> <Canonical_Smiles>
ClC(Cl)(Cl)SN1C(=O)c2ccccc2C1=O

> <Molecular_Weight>
296.55756

> <Frequency>
1

$$$$

  SciTegic          2D

 51 52  0  0  0  0            999 V2000
    2.5951    3.0039    0.0000 C   0  0
    1.5548    3.6021    0.0000 O   0  0
    2.5972    1.5031    0.0000 N   0  0
    3.8933    3.7570    0.0000 N   0  0
    1.2990   -0.7500    0.0000 N   0  0
    0.0000    1.5000    0.0000 N   0  0
    1.2990    0.7500    0.0000 C   0  0
   -1.2990   -0.7500    0.0000 C   0  0
    0.0000   -1.5000    0.0000 C   0  0
   -1.2990    0.7500    0.0000 C   0  0
   -2.5973    1.5031    0.0000 O   0  0
   -2.5951    3.0039    0.0000 C   0  0
    0.0031   -3.0008    0.0000 O   0  0
    1.3039   -3.7494    0.0000 C   0  0
    3.8912    5.2578    0.0000 S   0  0
    2.8529    4.6562    0.0000 O   0  0
    2.8509    5.8560    0.0000 O   0  0
    5.1894    6.0109    0.0000 C   0  0
    6.4899    5.2636    0.0000 C   0  0
    5.1863    7.5109    0.0000 C   0  0
    7.7874    6.0163    0.0000 C   0  0
    6.4837    8.2636    0.0000 C   0  0
    7.7843    7.5163    0.0000 C   0  0
    6.4837    9.7645    0.0000 N   0  0
    7.7830   10.5157    0.0000 C   0  0
    7.7830   11.7157    0.0000 O   0  0
    6.4961    3.7628    0.0000 C   0  0
    5.4592    3.1588    0.0000 O   0  0
    7.7985    3.0169    0.0000 N   0  0
    7.8047    1.5161    0.0000 C   0  0
    9.0938    3.7750    0.0000 C   0  0
    3.4641    1.0046    0.0000 H   0  0
    4.7602    3.2585    0.0000 H   0  0
   -2.1651   -1.2500    0.0000 H   0  0
   -3.4601    3.5057    0.0000 H   0  0
   -1.7282    3.5024    0.0000 H   0  0
   -2.5932    4.0039    0.0000 H   0  0
    1.3060   -4.7494    0.0000 H   0  0
    2.1691   -3.2479    0.0000 H   0  0
    2.1709   -4.2477    0.0000 H   0  0
    4.3192    8.0091    0.0000 H   0  0
    8.6545    5.5181    0.0000 H   0  0
    8.6493    8.0181    0.0000 H   0  0
    5.6175   10.2642    0.0000 H   0  0
    8.6492   10.0160    0.0000 H   0  0
    8.6725    1.0191    0.0000 H   0  0
    6.9406    1.0128    0.0000 H   0  0
    7.8083    0.5161    0.0000 H   0  0
    9.0886    4.7749    0.0000 H   0  0
    9.9626    3.2798    0.0000 H   0  0
    9.9572    4.2796    0.0000 H   0  0
  1  2  2  0
  1  3  1  0
  1  4  1  0
  3  7  1  0
  4 15  1  0
  5  7  2  0
  5  9  1  0
  6  7  1  0
  6 10  2  0
  8  9  2  0
  8 10  1  0
  9 13  1  0
 10 11  1  0
 11 12  1  0
 13 14  1  0
 15 16  2  0
 15 17  2  0
 15 18  1  0
 18 19  2  0
 18 20  1  0
 19 21  1  0
 19 27  1  0
 20 22  2  0
 21 23  2  0
 22 23  1  0
 22 24  1  0
 24 25  1  0
 25 26  2  0
 27 28  2  0
 27 29  1  0
 29 30  1  0
 29 31  1  0
  3 32  1  0
  4 33  1  0
  8 34  1  0
 12 35  1  0
 12 36  1  0
 12 37  1  0
 14 38  1  0
 14 39  1  0
 14 40  1  0
 20 41  1  0
 21 42  1  0
 23 43  1  0
 24 44  1  0
 25 45  1  0
 30 46  1  0
 30 47  1  0
 30 48  1  0
 31 49  1  0
 31 50  1  0
 31 51  1  0
M  END
> <DSSTox_RID>
40536

> <DSSTox_CID>
14753

> <DSSTox_Generic_SID>
34753

> <DSSTox_FileID>
162_TOXCST_v3a

> <STRUCTURE_Formula>
C17H20N6O7S

> <STRUCTURE_MolecularWeight>
452.4417

> <STRUCTURE_ChemicalType>
defined organic

> <STRUCTURE_TestedForm_DefinedOrganic>
parent

> <STRUCTURE_Shown>
tested chemical

> <TestSubstance_ChemicalName>
Foramsulfuron

> <Source_ChemicalName>
Foramsulfuron

> <TestSubstance_CASRN>
173159-57-4

> <TestSubstance_Description>
single chemical compound

> <STRUCTURE_ChemicalName_IUPAC>
2-({[(4,6-dimethoxypyrimidin-2-yl)carbamoyl]amino}sulfonyl)-4-formamido-N,N-dimethylbenzamide

> <STRUCTURE_SMILES>
O=C(NS(=O)(C2=C(C(N(C)C)=O)C=CC(NC=O)=C2)=O)NC1=NC(OC)=CC(OC)=N1

> <STRUCTURE_Parent_SMILES>
O=C(NS(=O)(C2=C(C(N(C)C)=O)C=CC(NC=O)=C2)=O)NC1=NC(OC)=CC(OC)=N1

> <STRUCTURE_InChI>
InChI=1S/C17H20N6O7S/c1-23(2)15(25)11-6-5-10(18-9-24)7-12(11)31(27,28)22-17(26)21-16-19-13(29-3)8-14(20-16)30-4/h5-9H,1-4H3,(H,18,24)(H2,19,20,21,22,26)

> <STRUCTURE_InChIKey>
PXDNXJSDGQBLKS-UHFFFAOYSA-N

> <Substance_modify_yyyymmdd>
20080429

> <DSSTox_CID_Parent>
14753

> <ChemicalReplicateCount>
1

> <Coord_Metals>
0

> <Index>
162

> <Canonical_Smiles>
COc1cc(OC)nc(NC(=O)NS(=O)(=O)c2cc(NC=O)ccc2C(=O)N(C)C)n1

> <Molecular_Weight>
452.4417

> <Frequency>
1

$$$$

  SciTegic          2D

 27 28  0  0  0  0            999 V2000
   -2.5951    3.0039    0.0000 C   0  0
   -1.5549    3.6021    0.0000 O   0  0
   -2.5973    1.5031    0.0000 N   0  0
   -3.8933    3.7570    0.0000 N   0  0
    1.2990   -0.7500    0.0000 N   0  0
    1.2990    0.7500    0.0000 C   0  0
    0.0000   -1.5000    0.0000 C   0  0
   -1.2990   -0.7500    0.0000 C   0  0
    0.0000    1.5000    0.0000 C   0  0
   -1.2990    0.7500    0.0000 C   0  0
    0.0000   -2.7000    0.0000 Cl  0  0
   -3.8912    5.2578    0.0000 C   0  0
   -5.1876    6.0124    0.0000 C   0  0
   -2.5896    6.0034    0.0000 C   0  0
   -5.1824    7.5124    0.0000 C   0  0
   -2.5844    7.5034    0.0000 C   0  0
   -3.8808    8.2579    0.0000 C   0  0
   -3.4642    1.0046    0.0000 H   0  0
   -4.7602    3.2585    0.0000 H   0  0
    2.1651    1.2500    0.0000 H   0  0
   -2.1651   -1.2500    0.0000 H   0  0
    0.0000    2.5000    0.0000 H   0  0
   -6.0554    5.5154    0.0000 H   0  0
   -1.7253    5.5004    0.0000 H   0  0
   -6.0467    8.0154    0.0000 H   0  0
   -1.7166    8.0004    0.0000 H   0  0
   -3.8774    9.2579    0.0000 H   0  0
  1  2  2  0
  1  3  1  0
  1  4  1  0
  3 10  1  0
  4 12  1  0
  5  6  2  0
  5  7  1  0
  6  9  1  0
  7  8  2  0
  7 11  1  0
  8 10  1  0
  9 10  2  0
 12 13  2  0
 12 14  1  0
 13 15  1  0
 14 16  2  0
 15 17  2  0
 16 17  1  0
  3 18  1  0
  4 19  1  0
  6 20  1  0
  8 21  1  0
  9 22  1  0
 13 23  1  0
 14 24  1  0
 15 25  1  0
 16 26  1  0
 17 27  1  0
M  END
> <DSSTox_RID>
40484

> <DSSTox_CID>
14634

> <DSSTox_Generic_SID>
34634

> <DSSTox_FileID>
163_TOXCST_v3a

> <STRUCTURE_Formula>
C12H10ClN3O

> <STRUCTURE_MolecularWeight>
247.6803

> <STRUCTURE_ChemicalType>
defined organic

> <STRUCTURE_TestedForm_DefinedOrganic>
parent

> <STRUCTURE_Shown>
tested chemical

> <TestSubstance_ChemicalName>
Forchlorfenuron

> <Source_ChemicalName>
Forchlorfenuron

> <TestSubstance_CASRN>
68157-60-8

> <TestSubstance_Description>
single chemical compound

> <STRUCTURE_ChemicalName_IUPAC>
1-(2-chloropyridin-4-yl)-3-phenylurea

> <STRUCTURE_SMILES>
O=C(NC2=CC=CC=C2)NC1=CC(Cl)=NC=C1

> <STRUCTURE_Parent_SMILES>
O=C(NC2=CC=CC=C2)NC1=CC(Cl)=NC=C1

> <STRUCTURE_InChI>
InChI=1S/C12H10ClN3O/c13-11-8-10(6-7-14-11)16-12(17)15-9-4-2-1-3-5-9/h1-8H,(H2,14,15,16,17)

> <STRUCTURE_InChIKey>
GPXLRLUVLMHHIK-UHFFFAOYSA-N

> <Substance_modify_yyyymmdd>
20080429

> <DSSTox_CID_Parent>
14634

> <ChemicalReplicateCount>
1

> <Coord_Metals>
0

> <Index>
163

> <Canonical_Smiles>
Clc1cc(NC(=O)Nc2ccccc2)ccn1

> <Molecular_Weight>
247.68029

> <Frequency>
1

$$$$

  SciTegic          2D

 31 31  0  0  0  0            999 V2000
    2.5951   -3.0039    0.0000 C   0  0
    3.8933   -3.7570    0.0000 N   0  0
    2.5973   -1.5031    0.0000 N   0  0
    3.8912   -5.2578    0.0000 C   0  0
    5.1929   -3.0062    0.0000 C   0  0
    1.2990   -0.7500    0.0000 C   0  0
    1.2990    0.7500    0.0000 C   0  0
    0.0000   -1.5000    0.0000 C   0  0
    0.0000    1.5000    0.0000 C   0  0
   -1.2990   -0.7500    0.0000 C   0  0
   -1.2990    0.7500    0.0000 C   0  0
   -0.0031    3.0008    0.0000 O   0  0
   -1.3039    3.7494    0.0000 C   0  0
   -2.3421    3.1476    0.0000 O   0  0
   -1.3070    5.2502    0.0000 N   0  0
   -2.6078    5.9988    0.0000 C   0  0
    1.7282   -3.5024    0.0000 H   0  0
    4.7562   -5.7596    0.0000 H   0  0
    3.0243   -5.7563    0.0000 H   0  0
    3.8893   -6.2578    0.0000 H   0  0
    5.1932   -2.0062    0.0000 H   0  0
    6.0589   -3.5062    0.0000 H   0  0
    6.0590   -2.5063    0.0000 H   0  0
    2.1651    1.2500    0.0000 H   0  0
    0.0000   -2.5000    0.0000 H   0  0
   -2.1651   -1.2500    0.0000 H   0  0
   -2.1651    1.2500    0.0000 H   0  0
   -0.4419    5.7517    0.0000 H   0  0
   -2.6099    6.9988    0.0000 H   0  0
   -3.4730    5.4972    0.0000 H   0  0
   -3.4748    6.4971    0.0000 H   0  0
  1  2  1  0
  1  3  2  0
  2  4  1  0
  2  5  1  0
  3  6  1  0
  6  7  2  0
  6  8  1  0
  7  9  1  0
  8 10  2  0
  9 11  2  0
  9 12  1  0
 10 11  1  0
 12 13  1  0
 13 14  2  0
 13 15  1  0
 15 16  1  0
  1 17  1  0
  4 18  1  0
  4 19  1  0
  4 20  1  0
  5 21  1  0
  5 22  1  0
  5 23  1  0
  7 24  1  0
  8 25  1  0
 10 26  1  0
 11 27  1  0
 15 28  1  0
 16 29  1  0
 16 30  1  0
 16 31  1  0
M  END
> <DSSTox_RID>
40485

> <DSSTox_CID>
12405

> <DSSTox_Generic_SID>
32405

> <DSSTox_FileID>
164_TOXCST_v3a

> <STRUCTURE_Formula>
C11H16ClN3O2

> <STRUCTURE_MolecularWeight>
257.7166

> <STRUCTURE_ChemicalType>
defined organic

> <STRUCTURE_TestedForm_DefinedOrganic>
complex HCl

> <STRUCTURE_Shown>
tested chemical

> <TestSubstance_ChemicalName>
Formetanate hydrochloride

> <Source_ChemicalName>
Formetanate hydrochloride

> <TestSubstance_CASRN>
23422-53-9

> <TestSubstance_Description>
single chemical compound

> <ChemicalNote>
parent [22259-30-9]

> <STRUCTURE_ChemicalName_IUPAC>
3-{[(E)-(dimethylamino)methylidene]amino}phenyl methylcarbamate hydrochloride

> <STRUCTURE_SMILES>
O=C(NC)OC1=CC=CC(/N=C/N(C)C)=C1.Cl

> <STRUCTURE_Parent_SMILES>
O=C(NC)OC1=CC=CC(/N=C/N(C)C)=C1

> <STRUCTURE_InChI>
InChI=1S/C11H15N3O2.ClH/c1-12-11(15)16-10-6-4-5-9(7-10)13-8-14(2)3;/h4-8H,1-3H3,(H,12,15);1H/b13-8+;

> <STRUCTURE_InChIKey>
MYPKGPZHHQEODQ-FNXZNAJJSA-N

> <Substance_modify_yyyymmdd>
20081229

> <DSSTox_CID_Parent>
21990

> <ChemicalReplicateCount>
1

> <Note_TOXCST>
HCl added v3a

> <Coord_Metals>
0

> <Index>
164

> <Canonical_Smiles>
CNC(=O)Oc1cccc(c1)N=CN(C)C

> <Molecular_Weight>
221.25569

> <Frequency>
1

$$$$

  SciTegic          2D

 34 34  0  0  0  0            999 V2000
    1.6307   -2.2444    0.0000 P   0  0
    1.1422   -3.3405    0.0000 O   0  0
    2.0498   -3.7158    0.0000 O   0  0
    3.1234   -2.0885    0.0000 S   0  0
    0.7500   -1.0323    0.0000 N   0  0
    1.2135    0.3943    0.0000 C   0  0
   -0.7500   -1.0323    0.0000 C   0  0
    0.0000    1.2760    0.0000 S   0  0
   -1.2135    0.3943    0.0000 C   0  0
    2.3548    0.7651    0.0000 O   0  0
    1.0060   -4.7942    0.0000 C   0  0
    1.4172   -6.2377    0.0000 C   0  0
    4.0055   -3.3026    0.0000 C   0  0
    5.4982   -3.1467    0.0000 C   0  0
    6.3804   -4.3609    0.0000 C   0  0
    3.3947   -4.6735    0.0000 C   0  0
   -1.7428   -0.9129    0.0000 H   0  0
   -0.3297   -1.9397    0.0000 H   0  0
   -1.9466   -0.2859    0.0000 H   0  0
   -1.4069    1.3754    0.0000 H   0  0
    0.7316   -3.8326    0.0000 H   0  0
    0.0361   -4.5509    0.0000 H   0  0
    0.7217   -6.9562    0.0000 H   0  0
    1.6916   -7.1993    0.0000 H   0  0
    2.3871   -6.4810    0.0000 H   0  0
    4.4125   -2.3892    0.0000 H   0  0
    4.9108   -2.3374    0.0000 H   0  0
    5.9052   -2.2333    0.0000 H   0  0
    7.3750   -4.2570    0.0000 H   0  0
    6.9678   -5.1702    0.0000 H   0  0
    5.9734   -5.2743    0.0000 H   0  0
    3.9817   -5.4830    0.0000 H   0  0
    2.9872   -5.5867    0.0000 H   0  0
    2.4001   -4.7774    0.0000 H   0  0
  1  2  2  0
  1  3  1  0
  1  4  1  0
  1  5  1  0
  3 11  1  0
  4 13  1  0
  5  6  1  0
  5  7  1  0
  6  8  1  0
  6 10  2  0
  7  9  1  0
  8  9  1  0
 11 12  1  0
 13 14  1  0
 13 16  1  0
 14 15  1  0
  7 17  1  0
  7 18  1  0
  9 19  1  0
  9 20  1  0
 11 21  1  0
 11 22  1  0
 12 23  1  0
 12 24  1  0
 12 25  1  0
 13 26  1  0
 14 27  1  0
 14 28  1  0
 15 29  1  0
 15 30  1  0
 15 31  1  0
 16 32  1  0
 16 33  1  0
 16 34  1  0
M  END
> <DSSTox_RID>
40597

> <DSSTox_CID>
14930

> <DSSTox_Generic_SID>
34930

> <DSSTox_FileID>
165_TOXCST_v3a

> <STRUCTURE_Formula>
C9H18NO3PS2

> <STRUCTURE_MolecularWeight>
283.3479

> <STRUCTURE_ChemicalType>
defined organic

> <STRUCTURE_TestedForm_DefinedOrganic>
parent

> <STRUCTURE_Shown>
tested chemical

> <TestSubstance_ChemicalName>
Fosthiazate

> <Source_ChemicalName>
Fosthiazate

> <TestSubstance_CASRN>
98886-44-3

> <TestSubstance_Description>
single chemical compound

> <ChemicalNote>
mixture of (R,S) isomers; structure shown without stereochem

> <STRUCTURE_ChemicalName_IUPAC>
S-sec-butyl O-ethyl (2-oxo-1,3-thiazolidin-3-yl)phosphonothioate

> <STRUCTURE_SMILES>
O=P(SC(C)CC)(N(CCS1)C1=O)OCC

> <STRUCTURE_Parent_SMILES>
O=P(SC(C)CC)(N(CCS1)C1=O)OCC

> <STRUCTURE_InChI>
InChI=1S/C9H18NO3PS2/c1-4-8(3)16-14(12,13-5-2)10-6-7-15-9(10)11/h8H,4-7H2,1-3H3

> <STRUCTURE_InChIKey>
DUFVKSUJRWYZQP-UHFFFAOYSA-N

> <Substance_modify_yyyymmdd>
20080429

> <DSSTox_CID_Parent>
14930

> <ChemicalReplicateCount>
1

> <Coord_Metals>
0

> <Index>
165

> <Canonical_Smiles>
CCOP(=O)(SC(C)CC)N1CCSC1=O

> <Molecular_Weight>
283.34788

> <Frequency>
1

$$$$

  SciTegic          2D

 43 44  0  0  0  0            999 V2000
    5.1894   -6.0109    0.0000 C   0  0
    3.8912   -5.2578    0.0000 S   0  0
    3.8933   -3.7570    0.0000 N   0  0
    2.5951   -3.0039    0.0000 C   0  0
    2.5973   -1.5031    0.0000 N   0  0
    1.5548   -3.6021    0.0000 O   0  0
    1.2990   -0.7500    0.0000 C   0  0
    1.2990    0.7500    0.0000 N   0  0
    0.0000   -1.5000    0.0000 N   0  0
    0.0000    1.5000    0.0000 C   0  0
   -1.2990   -0.7500    0.0000 C   0  0
   -1.2990    0.7500    0.0000 C   0  0
    0.0031    3.0008    0.0000 O   0  0
   -2.5972   -1.5031    0.0000 O   0  0
    1.3039    3.7494    0.0000 C   0  0
   -2.5951   -3.0039    0.0000 C   0  0
    2.8509   -5.8560    0.0000 O   0  0
    2.8529   -4.6562    0.0000 O   0  0
    5.3241   -7.4920    0.0000 C   0  0
    6.5420   -5.3926    0.0000 N   0  0
    6.7907   -7.8069    0.0000 C   0  0
    4.2031   -8.4859    0.0000 C   0  0
    7.5434   -6.5094    0.0000 N   0  0
    6.8452   -3.9254    0.0000 C   0  0
    7.2766   -8.9041    0.0000 Cl  0  0
    4.5029   -9.9565    0.0000 O   0  0
    3.0649   -8.1059    0.0000 O   0  0
    3.3798  -10.9521    0.0000 C   0  0
    4.7602   -3.2585    0.0000 H   0  0
    3.4642   -1.0046    0.0000 H   0  0
   -2.1651    1.2500    0.0000 H   0  0
    1.3059    4.7494    0.0000 H   0  0
    2.1690    3.2479    0.0000 H   0  0
    2.1709    4.2478    0.0000 H   0  0
   -3.4601   -3.5057    0.0000 H   0  0
   -1.7282   -3.5024    0.0000 H   0  0
   -2.5932   -4.0039    0.0000 H   0  0
    6.0987   -3.2601    0.0000 H   0  0
    7.7946   -3.6113    0.0000 H   0  0
    7.0480   -2.9462    0.0000 H   0  0
    3.5795  -11.9319    0.0000 H   0  0
    2.6312  -11.6151    0.0000 H   0  0
    2.4313  -10.6354    0.0000 H   0  0
  1  2  1  0
  1 19  2  0
  1 20  1  0
  2  3  1  0
  2 17  2  0
  2 18  2  0
  3  4  1  0
  4  5  1  0
  4  6  2  0
  5  7  1  0
  7  8  2  0
  7  9  1  0
  8 10  1  0
  9 11  2  0
 10 12  2  0
 10 13  1  0
 11 14  1  0
 11 12  1  0
 13 15  1  0
 14 16  1  0
 19 21  1  0
 19 22  1  0
 20 23  1  0
 20 24  1  0
 21 25  1  0
 21 23  2  0
 22 26  1  0
 22 27  2  0
 26 28  1  0
  3 29  1  0
  5 30  1  0
 12 31  1  0
 15 32  1  0
 15 33  1  0
 15 34  1  0
 16 35  1  0
 16 36  1  0
 16 37  1  0
 24 38  1  0
 24 39  1  0
 24 40  1  0
 28 41  1  0
 28 42  1  0
 28 43  1  0
M  END
> <DSSTox_RID>
40486

> <DSSTox_CID>
14650

> <DSSTox_Generic_SID>
34650

> <DSSTox_FileID>
166_TOXCST_v3a

> <STRUCTURE_Formula>
C13H15ClN6O7S

> <STRUCTURE_MolecularWeight>
434.8122

> <STRUCTURE_ChemicalType>
defined organic

> <STRUCTURE_TestedForm_DefinedOrganic>
parent

> <STRUCTURE_Shown>
tested chemical

> <TestSubstance_ChemicalName>
Halosulfuron-methyl

> <Source_ChemicalName>
Halosulfuron-methyl

> <TestSubstance_CASRN>
100784-20-1

> <TestSubstance_Description>
single chemical compound

> <STRUCTURE_ChemicalName_IUPAC>
methyl 3-chloro-5-{[(4,6-dimethoxypyrimidin-2-yl)carbamoyl]sulfamoyl}-1-methyl-1H-pyrazole-4-carboxylate

> <STRUCTURE_SMILES>
O=C(NC2=NC(OC)=CC(OC)=N2)NS(C1=C(C(OC)=O)C(Cl)=NN1C)(=O)=O

> <STRUCTURE_Parent_SMILES>
O=C(NC2=NC(OC)=CC(OC)=N2)NS(C1=C(C(OC)=O)C(Cl)=NN1C)(=O)=O

> <STRUCTURE_InChI>
InChI=1S/C13H15ClN6O7S/c1-20-10(8(9(14)18-20)11(21)27-4)28(23,24)19-13(22)17-12-15-6(25-2)5-7(16-12)26-3/h5H,1-4H3,(H2,15,16,17,19,22)

> <STRUCTURE_InChIKey>
FMGZEUWROYGLAY-UHFFFAOYSA-N

> <Substance_modify_yyyymmdd>
20080429

> <DSSTox_CID_Parent>
14650

> <ChemicalReplicateCount>
1

> <Coord_Metals>
0

> <Index>
166

> <Canonical_Smiles>
COC(=O)c1c(Cl)nn(C)c1S(=O)(=O)NC(=O)Nc2nc(OC)cc(OC)n2

> <Molecular_Weight>
434.8122

> <Frequency>
1

$$$$

  SciTegic          2D

 37 38  0  0  0  0            999 V2000
    1.5491   -7.3629    0.0000 N   0  0
    1.4968   -5.8638    0.0000 C   0  0
    0.0625   -5.4709    0.0000 N   0  0
   -0.7839   -6.6938    0.0000 N   0  0
    0.1396   -7.8759    0.0000 C   0  0
   -0.4508   -4.0606    0.0000 C   0  0
    0.5133   -2.9104    0.0000 C   0  0
    1.2990   -0.7500    0.0000 C   0  0
    0.0000   -1.5000    0.0000 C   0  0
   -1.2990   -0.7500    0.0000 C   0  0
   -1.2990    0.7500    0.0000 C   0  0
    0.0000    1.5000    0.0000 C   0  0
    1.2990    0.7500    0.0000 C   0  0
   -2.3383   -1.3500    0.0000 Cl  0  0
    0.0000    2.7000    0.0000 Cl  0  0
    1.8148   -3.6578    0.0000 C   0  0
    3.1133   -2.9052    0.0000 C   0  0
    4.4148   -3.6526    0.0000 C   0  0
    5.7133   -2.9000    0.0000 C   0  0
   -0.9937   -2.6467    0.0000 O   0  0
    2.2812   -5.2435    0.0000 H   0  0
   -0.1361   -8.8371    0.0000 H   0  0
   -1.4356   -3.8872    0.0000 H   0  0
   -1.0935   -4.8267    0.0000 H   0  0
    2.1651   -1.2500    0.0000 H   0  0
   -2.1651    1.2500    0.0000 H   0  0
    2.1651    1.2500    0.0000 H   0  0
    1.8168   -4.6578    0.0000 H   0  0
    0.9499   -4.1596    0.0000 H   0  0
    3.1113   -1.9052    0.0000 H   0  0
    2.2464   -2.4068    0.0000 H   0  0
    4.4168   -4.6526    0.0000 H   0  0
    3.5498   -4.1545    0.0000 H   0  0
    6.5805   -3.3980    0.0000 H   0  0
    5.7113   -1.9000    0.0000 H   0  0
    6.5782   -2.3982    0.0000 H   0  0
   -1.3375   -1.7076    0.0000 H   0  0
  1  5  1  0
  1  2  2  0
  2  3  1  0
  3  6  1  0
  3  4  1  0
  4  5  2  0
  6  7  1  0
  7  9  1  0
  7 16  1  0
  7 20  1  0
  8 13  1  0
  8  9  2  0
  9 10  1  0
 10 11  2  0
 10 14  1  0
 11 12  1  0
 12 13  2  0
 12 15  1  0
 16 17  1  0
 17 18  1  0
 18 19  1  0
  2 21  1  0
  5 22  1  0
  6 23  1  0
  6 24  1  0
  8 25  1  0
 11 26  1  0
 13 27  1  0
 16 28  1  0
 16 29  1  0
 17 30  1  0
 17 31  1  0
 18 32  1  0
 18 33  1  0
 19 34  1  0
 19 35  1  0
 19 36  1  0
 20 37  1  0
M  END
> <DSSTox_RID>
40487

> <DSSTox_CID>
14653

> <DSSTox_Generic_SID>
34653

> <DSSTox_FileID>
167_TOXCST_v3a

> <STRUCTURE_Formula>
C14H17Cl2N3O

> <STRUCTURE_MolecularWeight>
314.2103

> <STRUCTURE_ChemicalType>
defined organic

> <STRUCTURE_TestedForm_DefinedOrganic>
parent

> <STRUCTURE_Shown>
tested chemical

> <TestSubstance_ChemicalName>
Hexaconazole

> <Source_ChemicalName>
Hexaconazole

> <TestSubstance_CASRN>
79983-71-4

> <TestSubstance_Description>
single chemical compound

> <ChemicalNote>
mixture of (2R,S) isomers; structure shown without stereochem

> <STRUCTURE_ChemicalName_IUPAC>
2-(2,4-dichlorophenyl)-1-(1H-1,2,4-triazol-1-yl)hexan-2-ol

> <STRUCTURE_SMILES>
ClC1=CC(Cl)=CC=C1C(CCCC)(O)CN2C=NC=N2

> <STRUCTURE_Parent_SMILES>
ClC1=CC(Cl)=CC=C1C(CCCC)(O)CN2C=NC=N2

> <STRUCTURE_InChI>
InChI=1S/C14H17Cl2N3O/c1-2-3-6-14(20,8-19-10-17-9-18-19)12-5-4-11(15)7-13(12)16/h4-5,7,9-10,20H,2-3,6,8H2,1H3

> <STRUCTURE_InChIKey>
STMIIPIFODONDC-UHFFFAOYSA-N

> <Substance_modify_yyyymmdd>
20080429

> <DSSTox_CID_Parent>
14653

> <ChemicalReplicateCount>
1

> <Coord_Metals>
0

> <Index>
167

> <Canonical_Smiles>
CCCCC(O)(Cn1cncn1)c2ccc(Cl)cc2Cl

> <Molecular_Weight>
314.21028

> <Frequency>
1

$$$$

  SciTegic          2D

 38 39  0  0  0  0            999 V2000
    1.2990   -0.7500    0.0000 N   0  0
   -1.2990    0.7500    0.0000 C   0  0
    0.0000    1.5000    0.0000 N   0  0
    1.2990    0.7500    0.0000 C   0  0
   -1.2990   -0.7500    0.0000 N   0  0
    0.0000   -1.5000    0.0000 C   0  0
    2.6003    1.4978    0.0000 N   0  0
   -2.3383    1.3500    0.0000 O   0  0
    0.0000   -2.7000    0.0000 O   0  0
   -2.2636   -1.8998    0.0000 C   0  0
    0.0000    3.0008    0.0000 C   0  0
    3.8990    0.7455    0.0000 C   0  0
    2.5998    2.9986    0.0000 C   0  0
   -2.7373   -0.4980    0.0000 C   0  0
   -3.1856   -3.0571    0.0000 C   0  0
   -4.2148   -0.2392    0.0000 C   0  0
   -4.6631   -2.7983    0.0000 C   0  0
   -5.1777   -1.3893    0.0000 C   0  0
   -1.9196   -2.8388    0.0000 H   0  0
   -0.8657    3.5014    0.0000 H   0  0
    0.8662    3.5006    0.0000 H   0  0
    0.0005    4.0008    0.0000 H   0  0
    4.7661    1.2437    0.0000 H   0  0
    4.7641    0.2439    0.0000 H   0  0
    3.8973   -0.2545    0.0000 H   0  0
    1.7340    3.4989    0.0000 H   0  0
    2.6000    3.9986    0.0000 H   0  0
    3.4659    3.4986    0.0000 H   0  0
   -1.7589   -0.7047    0.0000 H   0  0
   -3.0900    0.4377    0.0000 H   0  0
   -3.5611   -2.1303    0.0000 H   0  0
   -3.8354   -3.8172    0.0000 H   0  0
   -3.5550    0.5122    0.0000 H   0  0
   -5.2036   -0.0898    0.0000 H   0  0
   -5.6438   -2.6025    0.0000 H   0  0
   -4.2981   -3.7293    0.0000 H   0  0
   -5.4985   -0.4422    0.0000 H   0  0
   -5.8015   -2.1710    0.0000 H   0  0
  1  4  2  0
  1  6  1  0
  2  5  1  0
  2  8  2  0
  2  3  1  0
  3  4  1  0
  3 11  1  0
  4  7  1  0
  5  6  1  0
  5 10  1  0
  6  9  2  0
  7 12  1  0
  7 13  1  0
 10 14  1  0
 10 15  1  0
 14 16  1  0
 15 17  1  0
 16 18  1  0
 17 18  1  0
 10 19  1  0
 11 20  1  0
 11 21  1  0
 11 22  1  0
 12 23  1  0
 12 24  1  0
 12 25  1  0
 13 26  1  0
 13 27  1  0
 13 28  1  0
 14 29  1  0
 14 30  1  0
 15 31  1  0
 15 32  1  0
 16 33  1  0
 16 34  1  0
 17 35  1  0
 17 36  1  0
 18 37  1  0
 18 38  1  0
M  END
> <DSSTox_RID>
40488

> <DSSTox_CID>
4145

> <DSSTox_Generic_SID>
24145

> <DSSTox_FileID>
168_TOXCST_v3a

> <STRUCTURE_Formula>
C12H20N4O2

> <STRUCTURE_MolecularWeight>
252.3128

> <STRUCTURE_ChemicalType>
defined organic

> <STRUCTURE_TestedForm_DefinedOrganic>
parent

> <STRUCTURE_Shown>
tested chemical

> <TestSubstance_ChemicalName>
Hexazinone

> <Source_ChemicalName>
Hexazinone

> <TestSubstance_CASRN>
51235-04-2

> <TestSubstance_Description>
single chemical compound

> <STRUCTURE_ChemicalName_IUPAC>
3-cyclohexyl-6-(dimethylamino)-1-methyl-1,3,5-triazine-2,4(1H,3H)-dione

> <STRUCTURE_SMILES>
O=C2/N=C(\N(C)C(=O)N2C1CCCCC1)N(C)C

> <STRUCTURE_Parent_SMILES>
O=C2/N=C(\N(C)C(=O)N2C1CCCCC1)N(C)C

> <STRUCTURE_InChI>
InChI=1S/C12H20N4O2/c1-14(2)10-13-11(17)16(12(18)15(10)3)9-7-5-4-6-8-9/h9H,4-8H2,1-3H3

> <STRUCTURE_InChIKey>
CAWXEEYDBZRFPE-UHFFFAOYSA-N

> <Substance_modify_yyyymmdd>
20080429

> <DSSTox_CID_Parent>
4145

> <ChemicalReplicateCount>
1

> <Coord_Metals>
0

> <Index>
168

> <Canonical_Smiles>
CN(C)C1=NC(=O)N(C2CCCCC2)C(=O)N1C

> <Molecular_Weight>
252.31279

> <Frequency>
1

$$$$

  SciTegic          2D

 44 46  0  0  0  0            999 V2000
    5.9791    2.6828    0.0000 N   0  0
    4.6568    1.9745    0.0000 C   0  0
    7.3263    2.0273    0.0000 C   0  0
    3.5746    3.0132    0.0000 S   0  0
    5.7141    4.1592    0.0000 C   0  0
    4.2580    4.3074    0.0000 C   0  0
    7.4334    0.5303    0.0000 N   0  0
    4.4934    0.7857    0.0000 O   0  0
    8.3203    2.6996    0.0000 O   0  0
    2.7580    4.3567    0.0000 C   0  0
    1.9656    3.0831    0.0000 C   0  0
    2.0512    5.6798    0.0000 C   0  0
   -0.2404    4.4556    0.0000 C   0  0
    8.7830   -0.1263    0.0000 C   0  0
    7.1606    3.8077    0.0000 C   0  0
    0.5520    5.7292    0.0000 C   0  0
    0.4664    3.1325    0.0000 C   0  0
   -1.4397    4.4951    0.0000 Cl  0  0
    7.8853   -1.3025    0.0000 C   0  0
   10.2579   -0.2438    0.0000 C   0  0
   10.8691   -1.6137    0.0000 C   0  0
    8.4965   -2.6723    0.0000 C   0  0
    9.9885   -2.8279    0.0000 C   0  0
    5.4049    5.1102    0.0000 H   0  0
    4.7845    5.1576    0.0000 H   0  0
    6.6051   -0.0300    0.0000 H   0  0
    2.4368    2.2011    0.0000 H   0  0
    2.5795    6.5289    0.0000 H   0  0
    9.3703    0.6831    0.0000 H   0  0
    7.4564    2.8524    0.0000 H   0  0
    8.1357    3.5860    0.0000 H   0  0
    7.8403    4.5412    0.0000 H   0  0
    0.0808    6.6112    0.0000 H   0  0
   -0.0619    2.2835    0.0000 H   0  0
    8.8757   -1.4407    0.0000 H   0  0
    7.3065   -2.1180    0.0000 H   0  0
    9.6993   -1.0733    0.0000 H   0  0
   11.2514   -0.3577    0.0000 H   0  0
   11.2550   -2.5362    0.0000 H   0  0
   11.4371   -0.7906    0.0000 H   0  0
    7.5047   -2.5452    0.0000 H   0  0
    8.9254   -3.5757    0.0000 H   0  0
    9.6026   -1.9053    0.0000 H   0  0
   10.9852   -2.9082    0.0000 H   0  0
  1  2  1  0
  1  3  1  0
  1  5  1  0
  2  4  1  0
  2  8  2  0
  3  7  1  0
  3  9  2  0
  4  6  1  0
  5  6  1  0
  5 15  1  0
  6 10  1  0
  7 14  1  0
 10 11  2  0
 10 12  1  0
 11 17  1  0
 12 16  2  0
 13 16  1  0
 13 18  1  0
 13 17  2  0
 14 19  1  0
 14 20  1  0
 19 22  1  0
 20 21  1  0
 21 23  1  0
 22 23  1  0
  5 24  1  0
  6 25  1  0
  7 26  1  0
 11 27  1  0
 12 28  1  0
 14 29  1  0
 15 30  1  0
 15 31  1  0
 15 32  1  0
 16 33  1  0
 17 34  1  0
 19 35  1  0
 19 36  1  0
 20 37  1  0
 20 38  1  0
 21 39  1  0
 21 40  1  0
 22 41  1  0
 22 42  1  0
 23 43  1  0
 23 44  1  0
M  END
> <DSSTox_RID>
40489

> <DSSTox_CID>
4299

> <DSSTox_Generic_SID>
24299

> <DSSTox_FileID>
169_TOXCST_v3a

> <STRUCTURE_Formula>
C17H21ClN2O2S

> <STRUCTURE_MolecularWeight>
352.8788

> <STRUCTURE_ChemicalType>
defined organic

> <STRUCTURE_TestedForm_DefinedOrganic>
parent

> <STRUCTURE_Shown>
tested chemical

> <TestSubstance_ChemicalName>
Hexythiazox

> <Source_ChemicalName>
Hexythiazox

> <TestSubstance_CASRN>
78587-05-0

> <TestSubstance_Description>
single chemical compound

> <ChemicalNote>
stereochem

> <STRUCTURE_ChemicalName_IUPAC>
(4S,5S)-5-(4-chlorophenyl)-N-cyclohexyl-4-methyl-2-oxo-1,3-thiazolidine-3-carboxamide

> <STRUCTURE_SMILES>
C[C@H]2[C@@H](SC(=O)N2C(=O)NC1CCCCC1)c3ccc(Cl)cc3

> <STRUCTURE_Parent_SMILES>
C[C@H]2[C@@H](SC(=O)N2C(=O)NC1CCCCC1)c3ccc(Cl)cc3

> <STRUCTURE_InChI>
InChI=1S/C17H21ClN2O2S/c1-11-15(12-7-9-13(18)10-8-12)23-17(22)20(11)16(21)19-14-5-3-2-4-6-14/h7-11,14-15H,2-6H2,1H3,(H,19,21)/t11-,15+/m0/s1

> <STRUCTURE_InChIKey>
XGWIJUOSCAQSSV-XHDPSFHLSA-N

> <Substance_modify_yyyymmdd>
20080429

> <DSSTox_CID_Parent>
4299

> <ChemicalReplicateCount>
1

> <Coord_Metals>
0

> <Index>
169

> <Canonical_Smiles>
CC1C(SC(=O)N1C(=O)NC2CCCCC2)c3ccc(Cl)cc3

> <Molecular_Weight>
352.87884

> <Frequency>
1

$$$$

  SciTegic          2D

 39 39  0  0  0  0            999 V2000
    1.2990   -0.7500    0.0000 N   0  0
    1.2990    0.7500    0.0000 C   0  0
    0.0000   -1.5000    0.0000 C   0  0
    0.0000    1.5000    0.0000 C   0  0
   -1.2990   -0.7500    0.0000 C   0  0
   -1.2990    0.7500    0.0000 C   0  0
    2.2614   -1.9017    0.0000 C   0  0
    3.4435   -1.6954    0.0000 O   0  0
    1.7461   -3.3113    0.0000 O   0  0
    2.5625   -0.0215    0.0000 C   0  0
    3.8979    0.6634    0.0000 C   0  0
    5.1593   -0.1498    0.0000 O   0  0
    2.7084   -4.4629    0.0000 C   0  0
    2.1931   -5.8725    0.0000 C   0  0
    3.1554   -7.0242    0.0000 C   0  0
    1.2008   -4.7232    0.0000 C   0  0
    1.2745    1.7497    0.0000 H   0  0
   -0.8776   -1.9794    0.0000 H   0  0
    0.8775   -1.9795    0.0000 H   0  0
   -0.0236    0.5003    0.0000 H   0  0
   -0.8775    1.9795    0.0000 H   0  0
   -2.1530   -0.2297    0.0000 H   0  0
   -0.4450   -0.2298    0.0000 H   0  0
   -1.2755    1.7497    0.0000 H   0  0
   -2.1531    0.2298    0.0000 H   0  0
    3.4027   -0.5638    0.0000 H   0  0
    2.5132   -1.0203    0.0000 H   0  0
    4.7875    1.1202    0.0000 H   0  0
    3.9473    1.6622    0.0000 H   0  0
    6.0491    0.3066    0.0000 H   0  0
    3.6935   -4.2910    0.0000 H   0  0
    1.5515   -5.1055    0.0000 H   0  0
    1.2080   -6.0445    0.0000 H   0  0
    2.8121   -7.9634    0.0000 H   0  0
    3.7970   -7.7913    0.0000 H   0  0
    4.1406   -6.8523    0.0000 H   0  0
    0.5603   -3.9552    0.0000 H   0  0
    0.2154   -4.8937    0.0000 H   0  0
    0.8556   -5.6617    0.0000 H   0  0
  1  2  1  0
  1  3  1  0
  1  7  1  0
  2  4  1  0
  2 10  1  0
  3  5  1  0
  4  6  1  0
  5  6  1  0
  7  8  2  0
  7  9  1  0
  9 13  1  0
 10 11  1  0
 11 12  1  0
 13 14  1  0
 13 16  1  0
 14 15  1  0
  2 17  1  0
  3 18  1  0
  3 19  1  0
  4 20  1  0
  4 21  1  0
  5 22  1  0
  5 23  1  0
  6 24  1  0
  6 25  1  0
 10 26  1  0
 10 27  1  0
 11 28  1  0
 11 29  1  0
 12 30  1  0
 13 31  1  0
 14 32  1  0
 14 33  1  0
 15 34  1  0
 15 35  1  0
 15 36  1  0
 16 37  1  0
 16 38  1  0
 16 39  1  0
M  END
> <DSSTox_RID>
40304

> <DSSTox_CID>
14227

> <DSSTox_Generic_SID>
34227

> <DSSTox_FileID>
170_TOXCST_v3a

> <STRUCTURE_Formula>
C12H23NO3

> <STRUCTURE_MolecularWeight>
229.3159

> <STRUCTURE_ChemicalType>
defined organic

> <STRUCTURE_TestedForm_DefinedOrganic>
parent

> <STRUCTURE_Shown>
tested chemical

> <TestSubstance_ChemicalName>
Icaridin

> <Source_ChemicalName>
Icaridin

> <TestSubstance_CASRN>
119515-38-7

> <TestSubstance_Description>
single chemical compound

> <ChemicalNote>
mixture of (1R,S) and (2R,S) stereoisomers; structure shown without stereochem

> <STRUCTURE_ChemicalName_IUPAC>
sec-butyl 2-(2-hydroxyethyl)piperidine-1-carboxylate

> <STRUCTURE_SMILES>
O=C(OC(C)CC)N1C(CCO)CCCC1

> <STRUCTURE_Parent_SMILES>
O=C(OC(C)CC)N1C(CCO)CCCC1

> <STRUCTURE_InChI>
InChI=1S/C12H23NO3/c1-3-10(2)16-12(15)13-8-5-4-6-11(13)7-9-14/h10-11,14H,3-9H2,1-2H3

> <STRUCTURE_InChIKey>
QLHULAHOXSSASE-UHFFFAOYSA-N

> <Substance_modify_yyyymmdd>
20080429

> <DSSTox_CID_Parent>
14227

> <ChemicalReplicateCount>
1

> <Coord_Metals>
0

> <Index>
170

> <Canonical_Smiles>
CCC(C)OC(=O)N1CCCCC1CCO

> <Molecular_Weight>
229.31591

> <Frequency>
1

$$$$

  SciTegic          2D

 33 34  0  0  0  0            999 V2000
    1.2990   -0.7500    0.0000 C   0  0
    1.2990    0.7500    0.0000 C   0  0
    5.1988   -1.5011    0.0000 N   0  0
    6.8039   -3.2937    0.0000 N   0  0
    2.5989   -1.5004    0.0000 C   0  0
    5.3367   -2.9819    0.0000 C   0  0
    0.0000    1.5000    0.0000 C   0  0
    0.0000   -1.5000    0.0000 C   0  0
    3.8990   -0.7507    0.0000 C   0  0
    7.5538   -1.9946    0.0000 C   0  0
    6.5501   -0.8799    0.0000 C   0  0
   -1.2990    0.7500    0.0000 C   0  0
    1.2909   -5.2503    0.0000 C   0  0
    2.3383    1.3500    0.0000 Cl  0  0
   -0.0101   -5.9986    0.0000 C   0  0
   -1.2990   -0.7500    0.0000 C   0  0
    2.5954   -3.0013    0.0000 O   0  0
   -2.3383    1.3500    0.0000 Cl  0  0
    1.2944   -3.7495    0.0000 C   0  0
    1.7323   -1.9994    0.0000 H   0  0
    4.5896   -3.6466    0.0000 H   0  0
    0.0000    2.5000    0.0000 H   0  0
    0.0000   -2.5000    0.0000 H   0  0
    3.8993    0.2493    0.0000 H   0  0
    4.7651   -0.2508    0.0000 H   0  0
    8.5484   -1.8900    0.0000 H   0  0
    6.7521    0.0995    0.0000 H   0  0
    2.1560   -5.7520    0.0000 H   0  0
   -0.0124   -6.9986    0.0000 H   0  0
   -0.8751   -5.4968    0.0000 H   0  0
   -2.1651   -1.2500    0.0000 H   0  0
    0.4294   -3.2478    0.0000 H   0  0
    1.2962   -2.7495    0.0000 H   0  0
  1  2  2  0
  1  5  1  0
  1  8  1  0
  2  7  1  0
  2 14  1  0
  3  9  1  0
  3  6  1  0
  3 11  1  0
  4  6  2  0
  4 10  1  0
  5  9  1  0
  5 17  1  0
  7 12  2  0
  8 16  2  0
 10 11  2  0
 12 16  1  0
 12 18  1  0
 13 19  1  0
 13 15  2  0
 17 19  1  0
  5 20  1  0
  6 21  1  0
  7 22  1  0
  8 23  1  0
  9 24  1  0
  9 25  1  0
 10 26  1  0
 11 27  1  0
 13 28  1  0
 15 29  1  0
 15 30  1  0
 16 31  1  0
 19 32  1  0
 19 33  1  0
M  END
> <DSSTox_RID>
40490

> <DSSTox_CID>
4151

> <DSSTox_Generic_SID>
24151

> <DSSTox_FileID>
171_TOXCST_v3a

> <STRUCTURE_Formula>
C14H14Cl2N2O

> <STRUCTURE_MolecularWeight>
297.1798

> <STRUCTURE_ChemicalType>
defined organic

> <STRUCTURE_TestedForm_DefinedOrganic>
parent

> <STRUCTURE_Shown>
tested chemical

> <TestSubstance_ChemicalName>
Imazalil

> <Source_ChemicalName>
Imazalil

> <TestSubstance_CASRN>
35554-44-0

> <TestSubstance_Description>
single chemical compound

> <STRUCTURE_ChemicalName_IUPAC>
1-[2-(allyloxy)-2-(2,4-dichlorophenyl)ethyl]-1H-imidazole

> <STRUCTURE_SMILES>
Clc2ccc(C(OCC=C)Cn1ccnc1)c(Cl)c2

> <STRUCTURE_Parent_SMILES>
Clc2ccc(C(OCC=C)Cn1ccnc1)c(Cl)c2

> <STRUCTURE_InChI>
InChI=1S/C14H14Cl2N2O/c1-2-7-19-14(9-18-6-5-17-10-18)12-4-3-11(15)8-13(12)16/h2-6,8,10,14H,1,7,9H2

> <STRUCTURE_InChIKey>
PZBPKYOVPCNPJY-UHFFFAOYSA-N

> <Substance_modify_yyyymmdd>
20080429

> <DSSTox_CID_Parent>
4151

> <ChemicalReplicateCount>
1

> <Coord_Metals>
0

> <Index>
171

> <Canonical_Smiles>
Clc1ccc(C(Cn2ccnc2)OCC=C)c(Cl)c1

> <Molecular_Weight>
297.17976

> <Frequency>
1

$$$$

  SciTegic          2D

 41 42  0  0  0  0            999 V2000
    2.5987    1.5004    0.0000 C   0  0
    3.9511    0.8815    0.0000 N   0  0
    2.7342    2.9815    0.0000 N   0  0
    4.2010    3.2957    0.0000 C   0  0
    0.0000    1.5000    0.0000 C   0  0
    4.9530    1.9978    0.0000 C   0  0
    1.2990    0.7500    0.0000 C   0  0
    1.2990   -0.7500    0.0000 N   0  0
   -0.0031    3.0008    0.0000 C   0  0
   -1.2990    0.7500    0.0000 C   0  0
    4.6873    4.3927    0.0000 O   0  0
    0.8620    3.5024    0.0000 O   0  0
   -1.2990   -0.7500    0.0000 C   0  0
    0.0000   -1.5000    0.0000 C   0  0
    5.5384    0.6304    0.0000 C   0  0
   -1.3039    3.7494    0.0000 O   0  0
    5.8064    3.2166    0.0000 C   0  0
   -3.8990   -0.7508    0.0000 O   0  0
   -2.5988   -1.5004    0.0000 C   0  0
    7.0255    0.4276    0.0000 C   0  0
    6.4773    1.8384    0.0000 C   0  0
   -5.1988   -1.5013    0.0000 C   0  0
    4.1548   -0.0975    0.0000 H   0  0
   -2.1651    1.2500    0.0000 H   0  0
    0.0000   -2.5000    0.0000 H   0  0
    4.9262   -0.1603    0.0000 H   0  0
   -1.3060    4.7494    0.0000 H   0  0
    6.8012    3.1144    0.0000 H   0  0
    6.3925    4.0269    0.0000 H   0  0
    5.3979    4.1293    0.0000 H   0  0
   -2.5985   -2.5004    0.0000 H   0  0
   -3.4646   -2.0008    0.0000 H   0  0
    7.4044   -0.4979    0.0000 H   0  0
    8.0164    0.2929    0.0000 H   0  0
    7.6377    1.2183    0.0000 H   0  0
    7.4680    1.7023    0.0000 H   0  0
    7.0906    2.6282    0.0000 H   0  0
    6.1001    2.7645    0.0000 H   0  0
   -6.0651   -1.0018    0.0000 H   0  0
   -5.1984   -2.5013    0.0000 H   0  0
   -6.0645   -2.0017    0.0000 H   0  0
  1  2  1  0
  1  3  2  0
  1  7  1  0
  2  6  1  0
  3  4  1  0
  4 11  2  0
  4  6  1  0
  5  7  1  0
  5  9  1  0
  5 10  2  0
  6 15  1  0
  6 17  1  0
  7  8  2  0
  8 14  1  0
  9 12  2  0
  9 16  1  0
 10 13  1  0
 13 19  1  0
 13 14  2  0
 15 20  1  0
 15 21  1  0
 18 19  1  0
 18 22  1  0
  2 23  1  0
 10 24  1  0
 14 25  1  0
 15 26  1  0
 16 27  1  0
 17 28  1  0
 17 29  1  0
 17 30  1  0
 19 31  1  0
 19 32  1  0
 20 33  1  0
 20 34  1  0
 20 35  1  0
 21 36  1  0
 21 37  1  0
 21 38  1  0
 22 39  1  0
 22 40  1  0
 22 41  1  0
M  END
> <DSSTox_RID>
40491

> <DSSTox_CID>
14664

> <DSSTox_Generic_SID>
34664

> <DSSTox_FileID>
172_TOXCST_v3a

> <STRUCTURE_Formula>
C15H19N3O4

> <STRUCTURE_MolecularWeight>
305.3291

> <STRUCTURE_ChemicalType>
defined organic

> <STRUCTURE_TestedForm_DefinedOrganic>
parent

> <STRUCTURE_Shown>
tested chemical

> <TestSubstance_ChemicalName>
Imazamox

> <Source_ChemicalName>
Imazamox

> <TestSubstance_CASRN>
114311-32-9

> <TestSubstance_Description>
single chemical compound

> <ChemicalNote>
tautomers

> <STRUCTURE_ChemicalName_IUPAC>
2-(4-isopropyl-4-methyl-5-oxo-4,5-dihydro-1H-imidazol-2-yl)-5-(methoxymethyl)nicotinic acid

> <STRUCTURE_SMILES>
O=C1NC(C2=NC=C(COC)C=C2C(O)=O)=NC(C)1C(C)C

> <STRUCTURE_Parent_SMILES>
O=C1NC(C2=NC=C(COC)C=C2C(O)=O)=NC(C)1C(C)C

> <STRUCTURE_InChI>
InChI=1S/C15H19N3O4/c1-8(2)15(3)14(21)17-12(18-15)11-10(13(19)20)5-9(6-16-11)7-22-4/h5-6,8H,7H2,1-4H3,(H,19,20)(H,17,18,21)

> <STRUCTURE_InChIKey>
NUPJIGQFXCQJBK-UHFFFAOYSA-N

> <Substance_modify_yyyymmdd>
20080429

> <DSSTox_CID_Parent>
14664

> <ChemicalReplicateCount>
1

> <Coord_Metals>
0

> <Index>
172

> <Canonical_Smiles>
COCc1cnc(C2=NC(=O)C(C)(N2)C(C)C)c(c1)C(=O)O

> <Molecular_Weight>
305.32906

> <Frequency>
1

$$$$

  SciTegic          2D

 37 38  0  0  0  0            999 V2000
   -4.9530   -1.9978    0.0000 C   0  0
   -3.9511   -0.8815    0.0000 N   0  0
   -4.2010   -3.2957    0.0000 C   0  0
   -2.5987   -1.5004    0.0000 C   0  0
   -2.7343   -2.9815    0.0000 N   0  0
    1.2990   -0.7500    0.0000 C   0  0
    1.2990    0.7500    0.0000 C   0  0
    0.0000   -1.5000    0.0000 C   0  0
    0.0000    1.5000    0.0000 C   0  0
   -1.2990   -0.7500    0.0000 C   0  0
   -1.2990    0.7500    0.0000 N   0  0
    2.5988    1.5004    0.0000 C   0  0
   -0.0031   -3.0008    0.0000 C   0  0
    1.0351   -3.6026    0.0000 O   0  0
   -1.3039   -3.7494    0.0000 O   0  0
   -6.1467   -1.8743    0.0000 O   0  0
   -5.6824   -3.4298    0.0000 C   0  0
   -3.3056   -4.4839    0.0000 C   0  0
   -6.3348   -4.7814    0.0000 C   0  0
   -4.8237   -4.6960    0.0000 C   0  0
   -4.1548    0.0975    0.0000 H   0  0
    2.1651   -1.2500    0.0000 H   0  0
    0.0000    2.5000    0.0000 H   0  0
    3.4651    1.0010    0.0000 H   0  0
    2.5985    2.5004    0.0000 H   0  0
    3.4646    2.0008    0.0000 H   0  0
   -1.3060   -4.7494    0.0000 H   0  0
   -6.2452   -2.6032    0.0000 H   0  0
   -3.7102   -5.3984    0.0000 H   0  0
   -2.7160   -5.2917    0.0000 H   0  0
   -2.3113   -4.3774    0.0000 H   0  0
   -7.3320   -4.8559    0.0000 H   0  0
   -6.7691   -5.6822    0.0000 H   0  0
   -5.7720   -5.6080    0.0000 H   0  0
   -5.2592   -5.5962    0.0000 H   0  0
   -4.2620   -5.5234    0.0000 H   0  0
   -3.8263   -4.6235    0.0000 H   0  0
  1  2  1  0
  1  3  1  0
  1 16  2  0
  2  4  1  0
  3  5  1  0
  3 17  1  0
  3 18  1  0
  4  5  2  0
  4 10  1  0
  6  7  2  0
  6  8  1  0
  7  9  1  0
  7 12  1  0
  8 10  2  0
  8 13  1  0
  9 11  2  0
 10 11  1  0
 13 14  2  0
 13 15  1  0
 17 19  1  0
 17 20  1  0
  2 21  1  0
  6 22  1  0
  9 23  1  0
 12 24  1  0
 12 25  1  0
 12 26  1  0
 15 27  1  0
 17 28  1  0
 18 29  1  0
 18 30  1  0
 18 31  1  0
 19 32  1  0
 19 33  1  0
 19 34  1  0
 20 35  1  0
 20 36  1  0
 20 37  1  0
M  END
> <DSSTox_RID>
40323

> <DSSTox_CID>
14270

> <DSSTox_Generic_SID>
34270

> <DSSTox_FileID>
173_TOXCST_v3a

> <STRUCTURE_Formula>
C14H17N3O3

> <STRUCTURE_MolecularWeight>
275.3031

> <STRUCTURE_ChemicalType>
defined organic

> <STRUCTURE_TestedForm_DefinedOrganic>
parent

> <STRUCTURE_Shown>
tested chemical

> <TestSubstance_ChemicalName>
Imazapic

> <Source_ChemicalName>
Imazapic

> <TestSubstance_CASRN>
104098-48-8

> <TestSubstance_Description>
single chemical compound

> <ChemicalNote>
mixture of (R,S) isomers; structure shown without stereochem; tautomers

> <STRUCTURE_ChemicalName_IUPAC>
2-(5-isopropyl-5-methyl-4-oxo-4,5-dihydro-1H-imidazol-2-yl)-5-methylnicotinic acid

> <STRUCTURE_SMILES>
O=C(O)C1=CC(C)=CN=C1C2=NC(C(C(C)C)(C)N2)=O

> <STRUCTURE_Parent_SMILES>
O=C(O)C1=CC(C)=CN=C1C2=NC(C(C(C)C)(C)N2)=O

> <STRUCTURE_InChI>
InChI=1S/C14H17N3O3/c1-7(2)14(4)13(20)16-11(17-14)10-9(12(18)19)5-8(3)6-15-10/h5-7H,1-4H3,(H,18,19)(H,16,17,20)

> <STRUCTURE_InChIKey>
PVSGXWMWNRGTKE-UHFFFAOYSA-N

> <Substance_modify_yyyymmdd>
20080429

> <DSSTox_CID_Parent>
14270

> <ChemicalReplicateCount>
1

> <Coord_Metals>
0

> <Index>
173

> <Canonical_Smiles>
CC(C)C1(C)N=C(NC1=O)c2ncc(C)cc2C(=O)O

> <Molecular_Weight>
275.30308

> <Frequency>
1

$$$$

  SciTegic          2D

 34 35  0  0  0  0            999 V2000
    2.5987   -1.5004    0.0000 C   0  0
    2.7343   -2.9815    0.0000 N   0  0
    3.9511   -0.8815    0.0000 N   0  0
    4.9531   -1.9978    0.0000 C   0  0
    4.2010   -3.2956    0.0000 C   0  0
    1.2990   -0.7500    0.0000 C   0  0
    1.2990    0.7500    0.0000 C   0  0
    2.5972    1.5031    0.0000 C   0  0
    0.0000   -1.5000    0.0000 N   0  0
    6.1467   -1.8742    0.0000 O   0  0
    3.6375    0.9049    0.0000 O   0  0
    5.6824   -3.4298    0.0000 C   0  0
    2.5951    3.0039    0.0000 O   0  0
    0.0000    1.5000    0.0000 C   0  0
    3.3056   -4.4839    0.0000 C   0  0
   -1.2990   -0.7500    0.0000 C   0  0
    6.3349   -4.7814    0.0000 C   0  0
    4.8237   -4.6960    0.0000 C   0  0
   -1.2990    0.7500    0.0000 C   0  0
    4.1548    0.0976    0.0000 H   0  0
    6.2453   -2.6032    0.0000 H   0  0
    3.4601    3.5057    0.0000 H   0  0
    0.0000    2.5000    0.0000 H   0  0
    3.7102   -5.3984    0.0000 H   0  0
    2.7161   -5.2917    0.0000 H   0  0
    2.3113   -4.3774    0.0000 H   0  0
   -2.1651   -1.2500    0.0000 H   0  0
    7.3321   -4.8558    0.0000 H   0  0
    6.7691   -5.6821    0.0000 H   0  0
    5.7720   -5.6079    0.0000 H   0  0
    5.2593   -5.5962    0.0000 H   0  0
    4.2620   -5.5234    0.0000 H   0  0
    3.8263   -4.6234    0.0000 H   0  0
   -2.1651    1.2500    0.0000 H   0  0
  1  2  2  0
  1  3  1  0
  1  6  1  0
  2  5  1  0
  3  4  1  0
  4 10  2  0
  4  5  1  0
  5 12  1  0
  5 15  1  0
  6  7  1  0
  6  9  2  0
  7  8  1  0
  7 14  2  0
  8 11  2  0
  8 13  1  0
  9 16  1  0
 12 17  1  0
 12 18  1  0
 14 19  1  0
 16 19  2  0
  3 20  1  0
 12 21  1  0
 13 22  1  0
 14 23  1  0
 15 24  1  0
 15 25  1  0
 15 26  1  0
 16 27  1  0
 17 28  1  0
 17 29  1  0
 17 30  1  0
 18 31  1  0
 18 32  1  0
 18 33  1  0
 19 34  1  0
M  END
> <DSSTox_RID>
40492

> <DSSTox_CID>
14665

> <DSSTox_Generic_SID>
34665

> <DSSTox_FileID>
174_TOXCST_v3a

> <STRUCTURE_Formula>
C13H15N3O3

> <STRUCTURE_MolecularWeight>
261.2765

> <STRUCTURE_ChemicalType>
defined organic

> <STRUCTURE_TestedForm_DefinedOrganic>
parent

> <STRUCTURE_Shown>
tested chemical

> <TestSubstance_ChemicalName>
Imazapyr

> <Source_ChemicalName>
Imazapyr

> <TestSubstance_CASRN>
81334-34-1

> <TestSubstance_Description>
single chemical compound

> <ChemicalNote>
tautomers

> <STRUCTURE_ChemicalName_IUPAC>
2-(4-isopropyl-4-methyl-5-oxo-4,5-dihydro-1H-imidazol-2-yl)nicotinic acid

> <STRUCTURE_SMILES>
O=C1NC(C2=NC=CC=C2C(O)=O)=NC(C)1C(C)C

> <STRUCTURE_Parent_SMILES>
O=C1NC(C2=NC=CC=C2C(O)=O)=NC(C)1C(C)C

> <STRUCTURE_InChI>
InChI=1S/C13H15N3O3/c1-7(2)13(3)12(19)15-10(16-13)9-8(11(17)18)5-4-6-14-9/h4-7H,1-3H3,(H,17,18)(H,15,16,19)

> <STRUCTURE_InChIKey>
CLQMBPJKHLGMQK-UHFFFAOYSA-N

> <Substance_modify_yyyymmdd>
20080429

> <DSSTox_CID_Parent>
14665

> <ChemicalReplicateCount>
1

> <Coord_Metals>
0

> <Index>
174

> <Canonical_Smiles>
CC(C)C1(C)N=C(NC1=O)c2ncccc2C(=O)O

> <Molecular_Weight>
261.27649

> <Frequency>
1

$$$$

  SciTegic          2D

 40 42  0  0  0  0            999 V2000
   -3.9086    1.5029    0.0000 C   0  0
   -5.2594    0.8807    0.0000 N   0  0
   -4.0476    2.9835    0.0000 N   0  0
   -2.6111    0.7486    0.0000 C   0  0
   -2.6111   -0.7486    0.0000 C   0  0
   -5.5150    3.2942    0.0000 C   0  0
   -6.2640    1.9946    0.0000 C   0  0
   -1.2964    1.4973    0.0000 N   0  0
   -1.2964   -1.4973    0.0000 C   0  0
   -3.9091   -1.5019    0.0000 C   0  0
    0.0000    0.7486    0.0000 C   0  0
    0.0000   -0.7486    0.0000 C   0  0
   -6.0040    4.3901    0.0000 O   0  0
   -4.9494   -0.9039    0.0000 O   0  0
   -7.1199    3.2112    0.0000 C   0  0
   -3.9067   -3.0027    0.0000 O   0  0
   -6.8465    0.6255    0.0000 C   0  0
    1.2964    1.4973    0.0000 C   0  0
    1.2964   -1.4973    0.0000 C   0  0
   -8.6167    3.1016    0.0000 C   0  0
   -7.7882    1.8349    0.0000 C   0  0
    2.5929   -0.7486    0.0000 C   0  0
    2.5929    0.7486    0.0000 C   0  0
   -3.3010    3.6488    0.0000 H   0  0
   -1.2934   -2.4973    0.0000 H   0  0
   -6.6848    4.1115    0.0000 H   0  0
   -4.7717   -3.5046    0.0000 H   0  0
   -7.8408    0.5194    0.0000 H   0  0
   -7.2520   -0.2886    0.0000 H   0  0
   -6.2577   -0.1828    0.0000 H   0  0
    1.2964    2.4973    0.0000 H   0  0
    1.2964   -2.4973    0.0000 H   0  0
   -9.1792    3.9284    0.0000 H   0  0
   -9.6140    3.0281    0.0000 H   0  0
   -9.0519    2.2012    0.0000 H   0  0
   -8.7856    1.7628    0.0000 H   0  0
   -8.2246    0.9351    0.0000 H   0  0
   -7.2274    1.0070    0.0000 H   0  0
    3.4589   -1.2486    0.0000 H   0  0
    3.4589    1.2486    0.0000 H   0  0
  1  2  2  0
  1  3  1  0
  1  4  1  0
  2  7  1  0
  3  6  1  0
  4  5  1  0
  4  8  2  0
  5  9  2  0
  5 10  1  0
  6 13  2  0
  6  7  1  0
  7 15  1  0
  7 17  1  0
  8 11  1  0
  9 12  1  0
 10 14  2  0
 10 16  1  0
 11 12  2  0
 11 18  1  0
 12 19  1  0
 15 20  1  0
 15 21  1  0
 18 23  2  0
 19 22  2  0
 22 23  1  0
  3 24  1  0
  9 25  1  0
 15 26  1  0
 16 27  1  0
 17 28  1  0
 17 29  1  0
 17 30  1  0
 18 31  1  0
 19 32  1  0
 20 33  1  0
 20 34  1  0
 20 35  1  0
 21 36  1  0
 21 37  1  0
 21 38  1  0
 22 39  1  0
 23 40  1  0
M  END
> <DSSTox_RID>
40493

> <DSSTox_CID>
4152

> <DSSTox_Generic_SID>
24152

> <DSSTox_FileID>
175_TOXCST_v3a

> <STRUCTURE_Formula>
C17H17N3O3

> <STRUCTURE_MolecularWeight>
311.3352

> <STRUCTURE_ChemicalType>
defined organic

> <STRUCTURE_TestedForm_DefinedOrganic>
parent

> <STRUCTURE_Shown>
tested chemical

> <TestSubstance_ChemicalName>
Imazaquin

> <Source_ChemicalName>
Imazaquin

> <TestSubstance_CASRN>
81335-37-7

> <TestSubstance_Description>
single chemical compound

> <ChemicalNote>
mixture of (R,S) isomers; structure shown without stereochem

> <STRUCTURE_ChemicalName_IUPAC>
2-(4-isopropyl-4-methyl-5-oxo-4,5-dihydro-1H-imidazol-2-yl)quinoline-3-carboxylic acid

> <STRUCTURE_SMILES>
OC(=O)c2cc3ccccc3nc2C=1NC(=O)C(C)(N=1)C(C)C

> <STRUCTURE_Parent_SMILES>
OC(=O)c2cc3ccccc3nc2C=1NC(=O)C(C)(N=1)C(C)C

> <STRUCTURE_InChI>
InChI=1S/C17H17N3O3/c1-9(2)17(3)16(23)19-14(20-17)13-11(15(21)22)8-10-6-4-5-7-12(10)18-13/h4-9H,1-3H3,(H,21,22)(H,19,20,23)

> <STRUCTURE_InChIKey>
CABMTIJINOIHOD-UHFFFAOYSA-N

> <Substance_modify_yyyymmdd>
20080429

> <DSSTox_CID_Parent>
4152

> <ChemicalReplicateCount>
1

> <Coord_Metals>
0

> <Index>
175

> <Canonical_Smiles>
CC(C)C1(C)N=C(NC1=O)c2nc3ccccc3cc2C(=O)O

> <Molecular_Weight>
311.33518

> <Frequency>
1

$$$$

  SciTegic          2D

 40 41  0  0  0  0            999 V2000
    1.2990   -0.7500    0.0000 N   0  0
    1.2990    0.7500    0.0000 C   0  0
    0.0000   -1.5000    0.0000 C   0  0
   -1.2990   -0.7500    0.0000 C   0  0
    0.0000    1.5000    0.0000 C   0  0
   -1.2990    0.7500    0.0000 C   0  0
   -2.6003   -1.4978    0.0000 C   0  0
   -2.6021   -2.4978    0.0000 O   0  0
   -3.8990   -0.7455    0.0000 O   0  0
    1.2122   -3.8625    0.0000 N   0  0
   -1.2149   -3.8587    0.0000 N   0  0
    0.0000   -3.0008    0.0000 C   0  0
    0.7464   -5.2884    0.0000 C   0  0
   -0.7536   -5.2860    0.0000 C   0  0
    0.1176   -6.6368    0.0000 C   0  0
    2.2233   -5.1116    0.0000 C   0  0
    3.1425   -6.2980    0.0000 C   0  0
    1.6466   -6.5287    0.0000 C   0  0
   -1.4605   -6.2557    0.0000 O   0  0
    0.0000    3.0008    0.0000 C   0  0
    1.2993    3.7521    0.0000 C   0  0
    2.1651    1.2500    0.0000 H   0  0
   -2.1651    1.2500    0.0000 H   0  0
   -4.7661   -1.2437    0.0000 H   0  0
    2.1619   -3.5494    0.0000 H   0  0
    0.7035   -7.4472    0.0000 H   0  0
   -0.8771   -6.7394    0.0000 H   0  0
   -0.2911   -7.5495    0.0000 H   0  0
    2.6020   -4.1860    0.0000 H   0  0
    4.1334   -6.1635    0.0000 H   0  0
    3.7546   -7.0888    0.0000 H   0  0
    2.7638   -7.2235    0.0000 H   0  0
    2.2598   -7.3186    0.0000 H   0  0
    1.2693   -7.4547    0.0000 H   0  0
    0.6560   -6.6650    0.0000 H   0  0
   -0.8662    3.5005    0.0000 H   0  0
   -0.8660    2.5007    0.0000 H   0  0
    1.2993    4.7521    0.0000 H   0  0
    2.1654    3.2523    0.0000 H   0  0
    2.1652    4.2522    0.0000 H   0  0
  1  2  2  0
  1  3  1  0
  2  5  1  0
  3  4  2  0
  3 12  1  0
  4  6  1  0
  4  7  1  0
  5  6  2  0
  5 20  1  0
  7  8  2  0
  7  9  1  0
 10 12  1  0
 10 13  1  0
 11 12  2  0
 11 14  1  0
 13 14  1  0
 13 15  1  0
 13 16  1  0
 14 19  2  0
 16 17  1  0
 16 18  1  0
 20 21  1  0
  2 22  1  0
  6 23  1  0
  9 24  1  0
 10 25  1  0
 15 26  1  0
 15 27  1  0
 15 28  1  0
 16 29  1  0
 17 30  1  0
 17 31  1  0
 17 32  1  0
 18 33  1  0
 18 34  1  0
 18 35  1  0
 20 36  1  0
 20 37  1  0
 21 38  1  0
 21 39  1  0
 21 40  1  0
M  END
> <DSSTox_RID>
40494

> <DSSTox_CID>
4287

> <DSSTox_Generic_SID>
24287

> <DSSTox_FileID>
176_TOXCST_v3a

> <STRUCTURE_Formula>
C15H19N3O3

> <STRUCTURE_MolecularWeight>
289.3297

> <STRUCTURE_ChemicalType>
defined organic

> <STRUCTURE_TestedForm_DefinedOrganic>
parent

> <STRUCTURE_Shown>
tested chemical

> <TestSubstance_ChemicalName>
Imazethapyr

> <Source_ChemicalName>
Imazethapyr

> <TestSubstance_CASRN>
81335-77-5

> <TestSubstance_Description>
single chemical compound

> <ChemicalNote>
mixture of (R,S) isomers;, structure shown without stereochem, tautomers

> <STRUCTURE_ChemicalName_IUPAC>
5-ethyl-2-(4-isopropyl-4-methyl-5-oxo-4,5-dihydro-1H-imidazol-2-yl)nicotinic acid

> <STRUCTURE_SMILES>
OC(=O)c2cc(cnc2C=1NC(=O)C(C)(N=1)C(C)C)CC

> <STRUCTURE_Parent_SMILES>
OC(=O)c2cc(cnc2C=1NC(=O)C(C)(N=1)C(C)C)CC

> <STRUCTURE_InChI>
InChI=1S/C15H19N3O3/c1-5-9-6-10(13(19)20)11(16-7-9)12-17-14(21)15(4,18-12)8(2)3/h6-8H,5H2,1-4H3,(H,19,20)(H,17,18,21)

> <STRUCTURE_InChIKey>
XVOKUMIPKHGGTN-UHFFFAOYSA-N

> <Substance_modify_yyyymmdd>
20080429

> <DSSTox_CID_Parent>
4287

> <ChemicalReplicateCount>
1

> <Coord_Metals>
0

> <Index>
176

> <Canonical_Smiles>
CCc1cnc(C2=NC(=O)C(C)(N2)C(C)C)c(c1)C(=O)O

> <Molecular_Weight>
289.32966

> <Frequency>
1

$$$$

  SciTegic          2D

 27 28  0  0  0  0            999 V2000
   -1.8512   -5.2880    0.0000 N   0  0
   -2.5997   -3.0012    0.0000 N   0  0
   -1.3867   -3.8617    0.0000 C   0  0
   -3.3512   -5.2871    0.0000 C   0  0
   -3.8138   -3.8602    0.0000 C   0  0
    0.0358   -3.3917    0.0000 N   0  0
   -2.5988   -1.5004    0.0000 C   0  0
   -6.4957   -0.7451    0.0000 N   0  0
   -6.4938    0.7549    0.0000 C   0  0
   -5.1976   -1.4967    0.0000 C   0  0
   -3.8976   -0.7484    0.0000 C   0  0
   -5.1938    1.5033    0.0000 C   0  0
   -3.8957    0.7516    0.0000 C   0  0
   -7.5322    1.3562    0.0000 Cl  0  0
    1.1568   -4.3896    0.0000 N   0  0
    2.2962   -4.0130    0.0000 O   0  0
    0.9136   -5.5647    0.0000 O   0  0
   -4.3439   -5.1670    0.0000 H   0  0
   -2.9315   -6.1948    0.0000 H   0  0
   -4.5516   -4.5352    0.0000 H   0  0
   -4.0012   -2.8779    0.0000 H   0  0
    0.2384   -2.4124    0.0000 H   0  0
   -1.7323   -1.0012    0.0000 H   0  0
   -1.7332   -2.0011    0.0000 H   0  0
   -5.1988   -2.4967    0.0000 H   0  0
   -5.1925    2.5033    0.0000 H   0  0
   -3.0290    1.2505    0.0000 H   0  0
  1  3  2  0
  1  4  1  0
  2  3  1  0
  2  5  1  0
  2  7  1  0
  3  6  1  0
  4  5  1  0
  6 15  1  0
  7 11  1  0
  8  9  2  0
  8 10  1  0
  9 12  1  0
  9 14  1  0
 10 11  2  0
 11 13  1  0
 12 13  2  0
 15 16  2  0
 15 17  2  0
  4 18  1  0
  4 19  1  0
  5 20  1  0
  5 21  1  0
  6 22  1  0
  7 23  1  0
  7 24  1  0
 10 25  1  0
 12 26  1  0
 13 27  1  0
M  END
> <DSSTox_RID>
40495

> <DSSTox_CID>
12442

> <DSSTox_Generic_SID>
32442

> <DSSTox_FileID>
177_TOXCST_v3a

> <STRUCTURE_Formula>
C9H10ClN5O2

> <STRUCTURE_MolecularWeight>
255.661

> <STRUCTURE_ChemicalType>
defined organic

> <STRUCTURE_TestedForm_DefinedOrganic>
parent

> <STRUCTURE_Shown>
tested chemical

> <TestSubstance_ChemicalName>
Imidacloprid

> <Source_ChemicalName>
Imidacloprid

> <TestSubstance_CASRN>
138261-41-3

> <TestSubstance_Description>
single chemical compound

> <ChemicalNote>
tautomers; alternate CASRN [105827-78-9]

> <STRUCTURE_ChemicalName_IUPAC>
(2E)-1-[(6-chloropyridin-3-yl)methyl]-N-nitroimidazolidin-2-imine

> <STRUCTURE_SMILES>
ClC(C=C2)=NC=C2CN1/C(NCC1)=N/[N+]([O-])=O

> <STRUCTURE_Parent_SMILES>
ClC(C=C2)=NC=C2CN1/C(NCC1)=N/[N+]([O-])=O

> <STRUCTURE_InChI>
InChI=1S/C9H10ClN5O2/c10-8-2-1-7(5-12-8)6-14-4-3-11-9(14)13-15(16)17/h1-2,5H,3-4,6H2,(H,11,13)

> <STRUCTURE_InChIKey>
YWTYJOPNNQFBPC-UHFFFAOYSA-N

> <Substance_modify_yyyymmdd>
20080429

> <DSSTox_CID_Parent>
12442

> <ChemicalReplicateCount>
1

> <Coord_Metals>
0

> <Index>
177

> <Canonical_Smiles>
Clc1ccc(CN2CCN=C2NN(=O)=O)cn1

> <Molecular_Weight>
255.66099

> <Frequency>
1

$$$$

  SciTegic          2D

 53 56  0  0  0  0            999 V2000
   -2.5344   -2.8596    0.0000 C   0  0
   -3.7743   -3.5699    0.0000 C   0  0
   -5.0037   -1.4240    0.0000 N   0  0
   -5.0226   -2.8283    0.0000 N   0  0
   -6.3030   -0.6710    0.0000 C   0  0
   -6.3013    0.8299    0.0000 N   0  0
   -2.5428   -1.4076    0.0000 O   0  0
   -2.5540   -5.7000    0.0000 C   0  0
   -1.3043   -3.5695    0.0000 C   0  0
   -1.3141   -4.9896    0.0000 C   0  0
   -4.9990    1.5758    0.0000 C   0  0
   -3.8350   -2.1101    0.0000 C   0  0
   -3.7638   -0.7137    0.0000 C   0  0
  -11.4985    5.3318    0.0000 C   0  0
   -7.5998    1.5825    0.0000 C   0  0
   -2.5547   -7.1361    0.0000 C   0  0
   -7.3431   -1.2695    0.0000 O   0  0
   -0.0749   -5.7154    0.0000 C   0  0
  -11.4988    3.8310    0.0000 O   0  0
   -4.9952    2.7758    0.0000 O   0  0
   -3.8358   -0.9101    0.0000 O   0  0
   -7.6017    3.0825    0.0000 C   0  0
   -8.8981    0.8310    0.0000 C   0  0
  -12.5372    5.9328    0.0000 F   0  0
  -10.4589    5.9312    0.0000 F   0  0
  -11.4976    6.5318    0.0000 F   0  0
   -0.0665   -7.1674    0.0000 C   0  0
   -3.7014    0.8218    0.0000 O   0  0
  -10.1997    3.0794    0.0000 C   0  0
   -1.3064   -7.8777    0.0000 C   0  0
   -5.1346   -2.8609    0.0000 O   0  0
   -8.9016    3.8310    0.0000 C   0  0
  -10.1980    1.5794    0.0000 C   0  0
    0.9735   -7.7661    0.0000 Cl  0  0
   -2.3990    1.5677    0.0000 C   0  0
   -5.1351   -4.3617    0.0000 C   0  0
   -1.3243   -2.5697    0.0000 H   0  0
   -0.4519   -4.0923    0.0000 H   0  0
   -4.6424   -0.2361    0.0000 H   0  0
   -2.8869   -0.2330    0.0000 H   0  0
   -3.4239   -7.6304    0.0000 H   0  0
    0.7912   -5.2156    0.0000 H   0  0
   -6.7362    3.5835    0.0000 H   0  0
   -8.8969   -0.1690    0.0000 H   0  0
   -1.3143   -8.8777    0.0000 H   0  0
   -8.9028    4.8310    0.0000 H   0  0
  -11.0634    1.0784    0.0000 H   0  0
   -1.5344    1.0653    0.0000 H   0  0
   -1.5315    2.0651    0.0000 H   0  0
   -2.3959    2.5677    0.0000 H   0  0
   -6.0010   -4.8620    0.0000 H   0  0
   -5.1349   -5.3617    0.0000 H   0  0
   -4.2691   -4.8617    0.0000 H   0  0
  1  2  1  0
  1  7  1  0
  1  9  1  0
  1 12  1  0
  2  4  2  0
  2  8  1  0
  3  4  1  0
  3  5  1  0
  3 13  1  0
  5  6  1  0
  5 17  2  0
  6 11  1  0
  6 15  1  0
  7 13  1  0
  8 16  1  0
  8 10  2  0
  9 10  1  0
 10 18  1  0
 11 20  2  0
 11 28  1  0
 12 21  2  0
 12 31  1  0
 14 19  1  0
 14 24  1  0
 14 25  1  0
 14 26  1  0
 15 22  2  0
 15 23  1  0
 16 30  2  0
 18 27  2  0
 19 29  1  0
 22 32  1  0
 23 33  2  0
 27 34  1  0
 27 30  1  0
 28 35  1  0
 29 33  1  0
 29 32  2  0
 31 36  1  0
  9 37  1  0
  9 38  1  0
 13 39  1  0
 13 40  1  0
 16 41  1  0
 18 42  1  0
 22 43  1  0
 23 44  1  0
 30 45  1  0
 32 46  1  0
 33 47  1  0
 35 48  1  0
 35 49  1  0
 35 50  1  0
 36 51  1  0
 36 52  1  0
 36 53  1  0
M  END
> <DSSTox_RID>
40496

> <DSSTox_CID>
12690

> <DSSTox_Generic_SID>
32690

> <DSSTox_FileID>
178_TOXCST_v3a

> <STRUCTURE_Formula>
C22H17ClF3N3O7

> <STRUCTURE_MolecularWeight>
527.8345

> <STRUCTURE_ChemicalType>
defined organic

> <STRUCTURE_TestedForm_DefinedOrganic>
parent

> <STRUCTURE_Shown>
tested chemical

> <TestSubstance_ChemicalName>
Indoxacarb

> <Source_ChemicalName>
Indoxacarb

> <TestSubstance_CASRN>
173584-44-6

> <TestSubstance_Description>
single chemical compound

> <ChemicalNote>
stereochem

> <STRUCTURE_ChemicalName_IUPAC>
methyl (4aS)-7-chloro-2-{(methoxycarbonyl)[4-(trifluoromethoxy)phenyl]carbamoyl}-2,5-dihydroindeno[1,2-e][1,3,4]oxadiazine-4a(3H)-carboxylate

> <STRUCTURE_SMILES>
O=C(N(C(C=C4)=CC=C4OC(F)(F)F)C(OC)=O)N1N=C(C(C=CC(Cl)=C3)=C3C2)[C@@]2([C@](OC)=O)OC1

> <STRUCTURE_Parent_SMILES>
O=C(N(C(C=C4)=CC=C4OC(F)(F)F)C(OC)=O)N1N=C(C(C=CC(Cl)=C3)=C3C2)[C@@]2([C@](OC)=O)OC1

> <STRUCTURE_InChI>
InChI=1S/C22H17ClF3N3O7/c1-33-18(30)21-10-12-9-13(23)3-8-16(12)17(21)27-28(11-35-21)19(31)29(20(32)34-2)14-4-6-15(7-5-14)36-22(24,25)26/h3-9H,10-11H2,1-2H3/t21-/m0/s1

> <STRUCTURE_InChIKey>
VBCVPMMZEGZULK-NRFANRHFSA-N

> <Substance_modify_yyyymmdd>
20080429

> <DSSTox_CID_Parent>
12690

> <ChemicalReplicateCount>
1

> <Coord_Metals>
0

> <Index>
178

> <Canonical_Smiles>
COC(=O)N(C(=O)N1COC2(Cc3cc(Cl)ccc3C2=N1)C(=O)OC)c4ccc(OC(F)(F)F)cc4

> <Molecular_Weight>
527.83448

> <Frequency>
1

$$$$

  SciTegic          2D

 41 42  0  0  0  0            999 V2000
    2.5973   -1.5031    0.0000 C   0  0
    3.6375   -0.9049    0.0000 O   0  0
    1.2990   -0.7500    0.0000 C   0  0
    2.5951   -3.0039    0.0000 O   0  0
    1.2990    0.7500    0.0000 C   0  0
    0.0000   -1.5000    0.0000 C   0  0
    0.0000    1.5000    0.0000 C   0  0
   -1.2990   -0.7500    0.0000 C   0  0
   -1.2990    0.7500    0.0000 C   0  0
   -2.3383    1.3500    0.0000 I   0  0
    2.5988    1.5004    0.0000 S   0  0
    2.5984    2.7004    0.0000 O   0  0
    3.6377    2.1009    0.0000 O   0  0
    3.8990    0.7508    0.0000 N   0  0
    5.1988    1.5013    0.0000 C   0  0
    5.1984    2.7013    0.0000 O   0  0
    6.4990    0.7517    0.0000 N   0  0
    9.0994    0.7548    0.0000 N   0  0
    7.7987    1.5021    0.0000 C   0  0
    7.7958    3.0022    0.0000 N   0  0
    9.0933    3.7548    0.0000 C   0  0
   10.3938    3.0075    0.0000 N   0  0
   10.3969    1.5075    0.0000 C   0  0
    9.0933    5.2557    0.0000 O   0  0
   10.3926    6.0069    0.0000 C   0  0
   11.6982    0.7597    0.0000 C   0  0
    3.8933   -3.7570    0.0000 C   0  0
    0.0000   -2.5000    0.0000 H   0  0
    0.0000    2.5000    0.0000 H   0  0
   -2.1651   -1.2500    0.0000 H   0  0
    3.8993   -0.2492    0.0000 H   0  0
    6.4993   -0.2483    0.0000 H   0  0
   10.3926    7.0069    0.0000 H   0  0
   11.2587    5.5071    0.0000 H   0  0
   11.2585    6.5070    0.0000 H   0  0
   11.7008   -0.2403    0.0000 H   0  0
   12.5630    1.2618    0.0000 H   0  0
   12.5654    0.2619    0.0000 H   0  0
    3.8919   -4.7570    0.0000 H   0  0
    4.7586   -4.2584    0.0000 H   0  0
    4.7602   -3.2585    0.0000 H   0  0
  1  2  2  0
  1  3  1  0
  1  4  1  0
  3  5  2  0
  3  6  1  0
  4 27  1  0
  5  7  1  0
  5 11  1  0
  6  8  2  0
  7  9  2  0
  8  9  1  0
  9 10  1  0
 11 12  2  0
 11 13  2  0
 11 14  1  0
 14 15  1  0
 15 16  2  0
 15 17  1  0
 17 19  1  0
 18 19  2  0
 18 23  1  0
 19 20  1  0
 20 21  2  0
 21 22  1  0
 21 24  1  0
 22 23  2  0
 23 26  1  0
 24 25  1  0
  6 28  1  0
  7 29  1  0
  8 30  1  0
 14 31  1  0
 17 32  1  0
 25 33  1  0
 25 34  1  0
 25 35  1  0
 26 36  1  0
 26 37  1  0
 26 38  1  0
 27 39  1  0
 27 40  1  0
 27 41  1  0
M  END
> <DSSTox_RID>
40497

> <DSSTox_CID>
14673

> <DSSTox_Generic_SID>
34673

> <DSSTox_FileID>
179_TOXCST_v3a

> <STRUCTURE_Formula>
C14H13IN5NaO6S

> <STRUCTURE_MolecularWeight>
529.2422

> <STRUCTURE_ChemicalType>
defined organic

> <STRUCTURE_TestedForm_DefinedOrganic>
salt Na

> <STRUCTURE_Shown>
tested chemical

> <TestSubstance_ChemicalName>
Iodosulfuron-methyl-sodium

> <Source_ChemicalName>
Iodosulfuron-methyl-sodium

> <TestSubstance_CASRN>
144550-36-7

> <TestSubstance_Description>
single chemical compound

> <ChemicalNote>
parent [185119-76-0]

> <STRUCTURE_ChemicalName_IUPAC>
sodium {[5-iodo-2-(methoxycarbonyl)phenyl]sulfonyl}[(4-methoxy-6-methyl-1,3,5-triazin-2-yl)carbamoyl]azanide

> <STRUCTURE_SMILES>
O=C(OC)C1=C(S(=O)([N-]C(NC2=NC(OC)=NC(C)=N2)=O)=O)C=C(I)C=C1.[Na+]

> <STRUCTURE_Parent_SMILES>
O=C(OC)C1=C(S(=O)(NC(NC2=NC(OC)=NC(C)=N2)=O)=O)C=C(I)C=C1

> <STRUCTURE_InChI>
InChI=1S/C14H14IN5O6S.Na/c1-7-16-12(19-14(17-7)26-3)18-13(22)20-27(23,24)10-6-8(15)4-5-9(10)11(21)25-2;/h4-6H,1-3H3,(H2,16,17,18,19,20,22);/q;+1/p-1

> <STRUCTURE_InChIKey>
JUJFQMPKBJPSFZ-UHFFFAOYSA-M

> <Substance_modify_yyyymmdd>
20080429

> <DSSTox_CID_Parent>
23968

> <ChemicalReplicateCount>
1

> <Coord_Metals>
0

> <Index>
179

> <Canonical_Smiles>
COC(=O)c1ccc(I)cc1S(=O)(=O)NC(=O)Nc2nc(C)nc(OC)n2

> <Molecular_Weight>
507.26033

> <Frequency>
1

$$$$

  SciTegic          2D

 34 35  0  0  0  0            999 V2000
    4.9531   -1.9978    0.0000 N   0  0
    3.9511   -0.8815    0.0000 C   0  0
    2.5987   -1.5004    0.0000 N   0  0
    2.7343   -2.9815    0.0000 C   0  0
    6.4430   -1.8405    0.0000 C   0  0
    1.2990   -0.7500    0.0000 C   0  0
    4.2010   -3.2956    0.0000 C   0  0
    7.0537   -0.4695    0.0000 N   0  0
    1.2990    0.7500    0.0000 C   0  0
    0.0000   -1.5000    0.0000 C   0  0
    4.1955    0.2934    0.0000 O   0  0
    1.8365   -3.7777    0.0000 O   0  0
    7.1485   -2.8112    0.0000 O   0  0
    0.0000    1.5000    0.0000 C   0  0
   -1.2990   -0.7500    0.0000 C   0  0
   -1.2990    0.7500    0.0000 C   0  0
   -2.3383   -1.3500    0.0000 Cl  0  0
    0.0000    2.7000    0.0000 Cl  0  0
    8.5462   -0.3119    0.0000 C   0  0
    9.1568    1.0591    0.0000 C   0  0
    9.4285   -1.5258    0.0000 C   0  0
    3.5999   -4.0948    0.0000 H   0  0
    5.1968   -3.3870    0.0000 H   0  0
    6.4657    0.3394    0.0000 H   0  0
    2.1651    1.2500    0.0000 H   0  0
    0.0000   -2.5000    0.0000 H   0  0
   -2.1651    1.2500    0.0000 H   0  0
    7.9583    0.4971    0.0000 H   0  0
   10.1513    1.1641    0.0000 H   0  0
    8.5689    1.8680    0.0000 H   0  0
    9.5633    1.9728    0.0000 H   0  0
   10.4231   -1.4218    0.0000 H   0  0
   10.0161   -2.3350    0.0000 H   0  0
    9.0216   -2.4393    0.0000 H   0  0
  1  2  1  0
  1  5  1  0
  1  7  1  0
  2  3  1  0
  2 11  2  0
  3  6  1  0
  3  4  1  0
  4  7  1  0
  4 12  2  0
  5  8  1  0
  5 13  2  0
  6  9  1  0
  6 10  2  0
  8 19  1  0
  9 14  2  0
 10 15  1  0
 14 18  1  0
 14 16  1  0
 15 16  2  0
 15 17  1  0
 19 20  1  0
 19 21  1  0
  7 22  1  0
  7 23  1  0
  8 24  1  0
  9 25  1  0
 10 26  1  0
 16 27  1  0
 19 28  1  0
 20 29  1  0
 20 30  1  0
 20 31  1  0
 21 32  1  0
 21 33  1  0
 21 34  1  0
M  END
> <DSSTox_RID>
40498

> <DSSTox_CID>
4154

> <DSSTox_Generic_SID>
24154

> <DSSTox_FileID>
180_TOXCST_v3a

> <STRUCTURE_Formula>
C13H13Cl2N3O3

> <STRUCTURE_MolecularWeight>
330.1666

> <STRUCTURE_ChemicalType>
defined organic

> <STRUCTURE_TestedForm_DefinedOrganic>
parent

> <STRUCTURE_Shown>
tested chemical

> <TestSubstance_ChemicalName>
Iprodione

> <Source_ChemicalName>
Iprodione

> <TestSubstance_CASRN>
36734-19-7

> <TestSubstance_Description>
single chemical compound

> <STRUCTURE_ChemicalName_IUPAC>
3-(3,5-dichlorophenyl)-N-isopropyl-2,4-dioxoimidazolidine-1-carboxamide

> <STRUCTURE_SMILES>
O=C2N(c1cc(Cl)cc(Cl)c1)C(=O)CN2C(=O)NC(C)C

> <STRUCTURE_Parent_SMILES>
O=C2N(c1cc(Cl)cc(Cl)c1)C(=O)CN2C(=O)NC(C)C

> <STRUCTURE_InChI>
InChI=1S/C13H13Cl2N3O3/c1-7(2)16-12(20)17-6-11(19)18(13(17)21)10-4-8(14)3-9(15)5-10/h3-5,7H,6H2,1-2H3,(H,16,20)

> <STRUCTURE_InChIKey>
ONUFESLQCSAYKA-UHFFFAOYSA-N

> <Substance_modify_yyyymmdd>
20080429

> <DSSTox_CID_Parent>
4154

> <ChemicalReplicateCount>
1

> <Coord_Metals>
0

> <Index>
180

> <Canonical_Smiles>
CC(C)NC(=O)N1CC(=O)N(C1=O)c2cc(Cl)cc(Cl)c2

> <Molecular_Weight>
330.16662

> <Frequency>
1

$$$$

  SciTegic          2D

 35 35  0  0  0  0            999 V2000
    0.7500   -1.0323    0.0000 C   0  0
    1.2135    0.3943    0.0000 N   0  0
    0.0000    1.2760    0.0000 C   0  0
   -1.2135    0.3943    0.0000 N   0  0
   -0.7500   -1.0323    0.0000 N   0  0
    3.1212   -2.0934    0.0000 P   0  0
    1.6281   -2.2462    0.0000 O   0  0
    3.6119   -0.9983    0.0000 S   0  0
    0.0000    2.4760    0.0000 Cl  0  0
   -2.6384    0.8573    0.0000 C   0  0
    4.0008   -3.3094    0.0000 O   0  0
    2.2266   -0.8522    0.0000 O   0  0
   -2.9514    2.3251    0.0000 C   0  0
   -3.7534   -0.1473    0.0000 C   0  0
    2.8414    0.5169    0.0000 C   0  0
    5.4938   -3.1566    0.0000 C   0  0
    1.9639    1.7345    0.0000 C   0  0
    6.3735   -4.3726    0.0000 C   0  0
   -1.8955    1.5266    0.0000 H   0  0
   -3.9025    2.6341    0.0000 H   0  0
   -2.2085    2.9945    0.0000 H   0  0
   -3.1595    3.3032    0.0000 H   0  0
   -4.7047    0.1608    0.0000 H   0  0
   -3.5449   -1.1253    0.0000 H   0  0
   -4.4960   -0.8170    0.0000 H   0  0
    3.4265   -0.2941    0.0000 H   0  0
    3.8363    0.6179    0.0000 H   0  0
    5.9027   -2.2440    0.0000 H   0  0
    4.9081   -2.3461    0.0000 H   0  0
    2.3736    2.6467    0.0000 H   0  0
    0.9691    1.6335    0.0000 H   0  0
    1.3789    2.5455    0.0000 H   0  0
    7.3683   -4.2708    0.0000 H   0  0
    5.9645   -5.2852    0.0000 H   0  0
    6.9592   -5.1831    0.0000 H   0  0
  1  2  1  0
  1  5  2  0
  1  7  1  0
  2  3  2  0
  3  9  1  0
  3  4  1  0
  4  5  1  0
  4 10  1  0
  6  7  1  0
  6  8  2  0
  6 11  1  0
  6 12  1  0
 10 13  1  0
 10 14  1  0
 11 16  1  0
 12 15  1  0
 15 17  1  0
 16 18  1  0
 10 19  1  0
 13 20  1  0
 13 21  1  0
 13 22  1  0
 14 23  1  0
 14 24  1  0
 14 25  1  0
 15 26  1  0
 15 27  1  0
 16 28  1  0
 16 29  1  0
 17 30  1  0
 17 31  1  0
 17 32  1  0
 18 33  1  0
 18 34  1  0
 18 35  1  0
M  END
> <DSSTox_RID>
40499

> <DSSTox_CID>
14676

> <DSSTox_Generic_SID>
34676

> <DSSTox_FileID>
181_TOXCST_v3a

> <STRUCTURE_Formula>
C9H17ClN3O3PS

> <STRUCTURE_MolecularWeight>
313.7413

> <STRUCTURE_ChemicalType>
defined organic

> <STRUCTURE_TestedForm_DefinedOrganic>
parent

> <STRUCTURE_Shown>
tested chemical

> <TestSubstance_ChemicalName>
Isazofos

> <Source_ChemicalName>
Isazofos

> <TestSubstance_CASRN>
42509-80-8

> <TestSubstance_Description>
single chemical compound

> <STRUCTURE_ChemicalName_IUPAC>
O-(5-chloro-1-isopropyl-1H-1,2,4-triazol-3-yl) O,O-diethyl thiophosphate

> <STRUCTURE_SMILES>
S=P(OCC)(OCC)OC1=NN(C(C)C)C(Cl)=N1

> <STRUCTURE_Parent_SMILES>
S=P(OCC)(OCC)OC1=NN(C(C)C)C(Cl)=N1

> <STRUCTURE_InChI>
InChI=1S/C9H17ClN3O3PS/c1-5-14-17(18,15-6-2)16-9-11-8(10)13(12-9)7(3)4/h7H,5-6H2,1-4H3

> <STRUCTURE_InChIKey>
XRHGWAGWAHHFLF-UHFFFAOYSA-N

> <Substance_modify_yyyymmdd>
20080429

> <DSSTox_CID_Parent>
14676

> <ChemicalReplicateCount>
1

> <Coord_Metals>
0

> <Index>
181

> <Canonical_Smiles>
CCOP(=S)(OCC)Oc1nc(Cl)n(n1)C(C)C

> <Molecular_Weight>
313.74134

> <Frequency>
1

$$$$

  SciTegic          2D

 48 49  0  0  0  0            999 V2000
    2.5973   -1.5031    0.0000 C   0  0
    3.8933   -3.7570    0.0000 C   0  0
    4.0312   -5.2378    0.0000 C   0  0
    6.2484   -4.2507    0.0000 N   0  0
    1.2990   -0.7500    0.0000 C   0  0
    2.5951   -3.0039    0.0000 N   0  0
    5.4984   -5.5497    0.0000 C   0  0
    5.2447   -3.1359    0.0000 O   0  0
    6.1078   -6.9184    0.0000 C   0  0
    3.6375   -0.9049    0.0000 O   0  0
    1.2990    0.7500    0.0000 C   0  0
    0.0000   -1.5000    0.0000 C   0  0
   -0.0031   -3.0008    0.0000 O   0  0
    2.5972    1.5031    0.0000 O   0  0
   -1.2990    0.7500    0.0000 C   0  0
    5.2264   -8.1332    0.0000 C   0  0
    7.6004   -7.0748    0.0000 C   0  0
    4.5865   -6.7561    0.0000 C   0  0
    0.0000    1.5000    0.0000 C   0  0
   -1.2990   -0.7500    0.0000 C   0  0
   -1.3039   -3.7494    0.0000 C   0  0
    2.5951    3.0039    0.0000 C   0  0
    5.8368   -9.5042    0.0000 C   0  0
    8.2121   -8.4453    0.0000 C   0  0
    3.2841   -5.9025    0.0000 H   0  0
    1.7282   -3.5024    0.0000 H   0  0
   -2.1651    1.2500    0.0000 H   0  0
    4.2319   -8.0290    0.0000 H   0  0
    4.8192   -7.2198    0.0000 H   0  0
    8.1877   -6.2654    0.0000 H   0  0
    8.5950   -7.1786    0.0000 H   0  0
    4.1806   -5.8422    0.0000 H   0  0
    3.5921   -6.6505    0.0000 H   0  0
    3.9977   -7.5644    0.0000 H   0  0
    0.0000    2.5000    0.0000 H   0  0
   -2.1651   -1.2500    0.0000 H   0  0
   -1.3060   -4.7494    0.0000 H   0  0
   -2.1691   -3.2479    0.0000 H   0  0
   -2.1709   -4.2478    0.0000 H   0  0
    3.4601    3.5057    0.0000 H   0  0
    1.7282    3.5024    0.0000 H   0  0
    2.5932    4.0039    0.0000 H   0  0
    5.2496  -10.3136    0.0000 H   0  0
    6.8314   -9.6085    0.0000 H   0  0
    6.2440  -10.4176    0.0000 H   0  0
    9.2067   -8.5495    0.0000 H   0  0
    7.6248   -9.2547    0.0000 H   0  0
    8.6193   -9.3587    0.0000 H   0  0
  1  5  1  0
  1  6  1  0
  1 10  2  0
  2  6  1  0
  2  3  2  0
  2  8  1  0
  3  7  1  0
  4  8  1  0
  4  7  2  0
  5 11  2  0
  5 12  1  0
  7  9  1  0
  9 16  1  0
  9 17  1  0
  9 18  1  0
 11 14  1  0
 11 19  1  0
 12 13  1  0
 12 20  2  0
 13 21  1  0
 14 22  1  0
 15 20  1  0
 15 19  2  0
 16 23  1  0
 17 24  1  0
  3 25  1  0
  6 26  1  0
 15 27  1  0
 16 28  1  0
 16 29  1  0
 17 30  1  0
 17 31  1  0
 18 32  1  0
 18 33  1  0
 18 34  1  0
 19 35  1  0
 20 36  1  0
 21 37  1  0
 21 38  1  0
 21 39  1  0
 22 40  1  0
 22 41  1  0
 22 42  1  0
 23 43  1  0
 23 44  1  0
 23 45  1  0
 24 46  1  0
 24 47  1  0
 24 48  1  0
M  END
> <DSSTox_RID>
40500

> <DSSTox_CID>
4159

> <DSSTox_Generic_SID>
24159

> <DSSTox_FileID>
182_TOXCST_v3a

> <STRUCTURE_Formula>
C18H24N2O4

> <STRUCTURE_MolecularWeight>
332.3942

> <STRUCTURE_ChemicalType>
defined organic

> <STRUCTURE_TestedForm_DefinedOrganic>
parent

> <STRUCTURE_Shown>
tested chemical

> <TestSubstance_ChemicalName>
Isoxaben

> <Source_ChemicalName>
Isoxaben

> <TestSubstance_CASRN>
82558-50-7

> <TestSubstance_Description>
single chemical compound

> <STRUCTURE_ChemicalName_IUPAC>
N-[3-(1-ethyl-1-methylpropyl)isoxazol-5-yl]-2,6-dimethoxybenzamide

> <STRUCTURE_SMILES>
CCC(C)(CC)c2cc(NC(=O)c1c(OC)cccc1OC)on2

> <STRUCTURE_Parent_SMILES>
CCC(C)(CC)c2cc(NC(=O)c1c(OC)cccc1OC)on2

> <STRUCTURE_InChI>
InChI=1S/C18H24N2O4/c1-6-18(3,7-2)14-11-15(24-20-14)19-17(21)16-12(22-4)9-8-10-13(16)23-5/h8-11H,6-7H2,1-5H3,(H,19,21)

> <STRUCTURE_InChIKey>
PMHURSZHKKJGBM-UHFFFAOYSA-N

> <Substance_modify_yyyymmdd>
20080429

> <DSSTox_CID_Parent>
4159

> <ChemicalReplicateCount>
1

> <Coord_Metals>
0

> <Index>
182

> <Canonical_Smiles>
CCC(C)(CC)c1cc(NC(=O)c2c(OC)cccc2OC)on1

> <Molecular_Weight>
332.39416

> <Frequency>
1

$$$$

  SciTegic          2D

 36 38  0  0  0  0            999 V2000
    2.5973   -1.5031    0.0000 C   0  0
    3.6375   -0.9049    0.0000 O   0  0
    1.8372   -5.2877    0.0000 N   0  0
    3.3372   -5.2929    0.0000 O   0  0
    2.5951   -3.0039    0.0000 C   0  0
    3.8056   -3.8679    0.0000 C   0  0
    1.3786   -3.8595    0.0000 C   0  0
    5.2286   -3.3991    0.0000 C   0  0
    4.7333   -2.1042    0.0000 C   0  0
    6.2015   -2.4114    0.0000 C   0  0
    1.2990   -0.7500    0.0000 C   0  0
    1.2990    0.7500    0.0000 C   0  0
    0.0000   -1.5000    0.0000 C   0  0
    0.0000    1.5000    0.0000 C   0  0
   -1.2990   -0.7500    0.0000 C   0  0
   -1.2990    0.7500    0.0000 C   0  0
    2.5988    1.5004    0.0000 S   0  0
    2.5984    2.7004    0.0000 O   0  0
    1.5595    2.1003    0.0000 O   0  0
    3.8990    0.7508    0.0000 C   0  0
   -2.5988    1.5004    0.0000 C   0  0
   -2.5996    2.7004    0.0000 F   0  0
   -3.6378    0.9001    0.0000 F   0  0
   -3.6383    2.0999    0.0000 F   0  0
    0.4305   -3.5415    0.0000 H   0  0
    5.9732   -4.0665    0.0000 H   0  0
    3.7867   -2.4268    0.0000 H   0  0
    4.9016   -1.1184    0.0000 H   0  0
    6.9393   -3.0864    0.0000 H   0  0
    6.4425   -1.4409    0.0000 H   0  0
    0.0000   -2.5000    0.0000 H   0  0
    0.0000    2.5000    0.0000 H   0  0
   -2.1651   -1.2500    0.0000 H   0  0
    4.7650    1.2509    0.0000 H   0  0
    3.8993   -0.2492    0.0000 H   0  0
    4.7651    0.2510    0.0000 H   0  0
  1  2  2  0
  1  5  1  0
  1 11  1  0
  3  4  1  0
  3  7  2  0
  4  6  1  0
  5  6  2  0
  5  7  1  0
  6  8  1  0
  8  9  1  0
  8 10  1  0
  9 10  1  0
 11 12  2  0
 11 13  1  0
 12 14  1  0
 12 17  1  0
 13 15  2  0
 14 16  2  0
 15 16  1  0
 16 21  1  0
 17 18  2  0
 17 19  2  0
 17 20  1  0
 21 22  1  0
 21 23  1  0
 21 24  1  0
  7 25  1  0
  8 26  1  0
  9 27  1  0
  9 28  1  0
 10 29  1  0
 10 30  1  0
 13 31  1  0
 14 32  1  0
 15 33  1  0
 20 34  1  0
 20 35  1  0
 20 36  1  0
M  END
> <DSSTox_RID>
40519

> <DSSTox_CID>
14723

> <DSSTox_Generic_SID>
34723

> <DSSTox_FileID>
183_TOXCST_v3a

> <STRUCTURE_Formula>
C15H12F3NO4S

> <STRUCTURE_MolecularWeight>
359.3203

> <STRUCTURE_ChemicalType>
defined organic

> <STRUCTURE_TestedForm_DefinedOrganic>
parent

> <STRUCTURE_Shown>
tested chemical

> <TestSubstance_ChemicalName>
Isoxaflutole

> <Source_ChemicalName>
Isoxaflutole

> <TestSubstance_CASRN>
141112-29-0

> <TestSubstance_Description>
single chemical compound

> <STRUCTURE_ChemicalName_IUPAC>
(5-cyclopropylisoxazol-4-yl)[2-(methylsulfonyl)-4-(trifluoromethyl)phenyl]methanone

> <STRUCTURE_SMILES>
O=C(C3=C(S(=O)(C)=O)C=C(C(F)(F)F)C=C3)C1=C(C2CC2)ON=C1

> <STRUCTURE_Parent_SMILES>
O=C(C3=C(S(=O)(C)=O)C=C(C(F)(F)F)C=C3)C1=C(C2CC2)ON=C1

> <STRUCTURE_InChI>
InChI=1S/C15H12F3NO4S/c1-24(21,22)12-6-9(15(16,17)18)4-5-10(12)13(20)11-7-19-23-14(11)8-2-3-8/h4-8H,2-3H2,1H3

> <STRUCTURE_InChIKey>
OYIKARCXOQLFHF-UHFFFAOYSA-N

> <Substance_modify_yyyymmdd>
20080429

> <DSSTox_CID_Parent>
14723

> <ChemicalReplicateCount>
1

> <Coord_Metals>
0

> <Index>
183

> <Canonical_Smiles>
CS(=O)(=O)c1cc(ccc1C(=O)c2cnoc2C3CC3)C(F)(F)F

> <Molecular_Weight>
359.32028

> <Frequency>
1

$$$$

  SciTegic          2D

 46 47  0  0  0  0            999 V2000
    2.5973   -1.5031    0.0000 C   0  0
    3.6375   -0.9049    0.0000 O   0  0
    1.2990   -0.7500    0.0000 C   0  0
    2.5951   -3.0039    0.0000 O   0  0
    1.2990    0.7500    0.0000 C   0  0
    0.0000   -1.5000    0.0000 C   0  0
    0.0000    1.5000    0.0000 C   0  0
   -1.2990   -0.7500    0.0000 C   0  0
   -1.2990    0.7500    0.0000 C   0  0
   -2.6003   -1.4978    0.0000 O   0  0
   -3.8990   -0.7455    0.0000 C   0  0
   -5.2007   -1.4909    0.0000 C   0  0
   -3.8939    0.7546    0.0000 C   0  0
   -6.4972   -0.7365    0.0000 C   0  0
   -5.1903    1.5090    0.0000 C   0  0
   -6.4920    0.7635    0.0000 C   0  0
   -5.2049   -2.6909    0.0000 Cl  0  0
   -7.7891    1.5184    0.0000 C   0  0
   -8.8308    0.9227    0.0000 F   0  0
   -7.7846    2.7184    0.0000 F   0  0
   -8.8260    2.1225    0.0000 F   0  0
    2.5972    1.5031    0.0000 N   0  0
    2.5955    2.7031    0.0000 O   0  0
    3.6375    0.9049    0.0000 O   0  0
    3.8933   -3.7570    0.0000 C   0  0
    3.8912   -5.2578    0.0000 C   0  0
    5.1894   -6.0109    0.0000 O   0  0
    5.1873   -7.5117    0.0000 C   0  0
    6.4855   -8.2648    0.0000 C   0  0
    5.1943   -3.0089    0.0000 C   0  0
    2.8509   -5.8560    0.0000 O   0  0
    0.0000   -2.5000    0.0000 H   0  0
    0.0000    2.5000    0.0000 H   0  0
   -2.1651    1.2500    0.0000 H   0  0
   -3.0262    1.2516    0.0000 H   0  0
   -7.3649   -1.2335    0.0000 H   0  0
   -5.1869    2.5090    0.0000 H   0  0
    3.0264   -4.2555    0.0000 H   0  0
    4.3204   -8.0102    0.0000 H   0  0
    4.3220   -7.0104    0.0000 H   0  0
    6.4840   -9.2648    0.0000 H   0  0
    7.3524   -7.7663    0.0000 H   0  0
    7.3507   -8.7662    0.0000 H   0  0
    6.0598   -3.5098    0.0000 H   0  0
    5.1957   -2.0089    0.0000 H   0  0
    6.0610   -2.5100    0.0000 H   0  0
  1  2  2  0
  1  3  1  0
  1  4  1  0
  3  5  2  0
  3  6  1  0
  4 25  1  0
  5  7  1  0
  5 22  1  0
  6  8  2  0
  7  9  2  0
  8  9  1  0
  8 10  1  0
 10 11  1  0
 11 12  2  0
 11 13  1  0
 12 14  1  0
 12 17  1  0
 13 15  2  0
 14 16  2  0
 15 16  1  0
 16 18  1  0
 18 19  1  0
 18 20  1  0
 18 21  1  0
 22 23  2  0
 22 24  2  0
 25 26  1  0
 25 30  1  0
 26 27  1  0
 26 31  2  0
 27 28  1  0
 28 29  1  0
  6 32  1  0
  7 33  1  0
  9 34  1  0
 13 35  1  0
 14 36  1  0
 15 37  1  0
 25 38  1  0
 28 39  1  0
 28 40  1  0
 29 41  1  0
 29 42  1  0
 29 43  1  0
 30 44  1  0
 30 45  1  0
 30 46  1  0
M  END
> <DSSTox_RID>
40501

> <DSSTox_CID>
4160

> <DSSTox_Generic_SID>
24160

> <DSSTox_FileID>
184_TOXCST_v3a

> <STRUCTURE_Formula>
C19H15ClF3NO7

> <STRUCTURE_MolecularWeight>
461.7731

> <STRUCTURE_ChemicalType>
defined organic

> <STRUCTURE_TestedForm_DefinedOrganic>
parent

> <STRUCTURE_Shown>
tested chemical

> <TestSubstance_ChemicalName>
Lactofen

> <Source_ChemicalName>
Lactofen

> <TestSubstance_CASRN>
77501-63-4

> <TestSubstance_Description>
single chemical compound

> <STRUCTURE_ChemicalName_IUPAC>
2-ethoxy-1-methyl-2-oxoethyl 5-[2-chloro-4-(trifluoromethyl)phenoxy]-2-nitrobenzoate

> <STRUCTURE_SMILES>
Clc2cc(ccc2Oc1cc(C(=O)OC(C)C(=O)OCC)c(cc1)[N+]([O-])=O)C(F)(F)F

> <STRUCTURE_Parent_SMILES>
Clc2cc(ccc2Oc1cc(C(=O)OC(C)C(=O)OCC)c(cc1)[N+]([O-])=O)C(F)(F)F

> <STRUCTURE_InChI>
InChI=1S/C19H15ClF3NO7/c1-3-29-17(25)10(2)30-18(26)13-9-12(5-6-15(13)24(27)28)31-16-7-4-11(8-14(16)20)19(21,22)23/h4-10H,3H2,1-2H3

> <STRUCTURE_InChIKey>
CONWAEURSVPLRM-UHFFFAOYSA-N

> <Substance_modify_yyyymmdd>
20080429

> <DSSTox_CID_Parent>
4160

> <ChemicalReplicateCount>
1

> <Coord_Metals>
0

> <Index>
184

> <Canonical_Smiles>
CCOC(=O)C(C)OC(=O)c1cc(Oc2ccc(cc2Cl)C(F)(F)F)ccc1N(=O)=O

> <Molecular_Weight>
461.7731

> <Frequency>
1

$$$$

  SciTegic          2D

 18 18  0  0  0  0            999 V2000
    1.2990   -0.7500    0.0000 C   0  0
    1.2990    0.7500    0.0000 C   0  0
    0.0000   -1.5000    0.0000 C   0  0
    2.3238   -0.1256    0.0000 Cl  0  0
    0.0000    1.5000    0.0000 C   0  0
    2.3238    0.1257    0.0000 Cl  0  0
   -1.2990   -0.7500    0.0000 C   0  0
   -1.0531   -2.0753    0.0000 Cl  0  0
   -1.2990    0.7500    0.0000 C   0  0
    1.0531    2.0753    0.0000 Cl  0  0
   -2.3238   -0.1256    0.0000 Cl  0  0
   -1.2707    1.9497    0.0000 Cl  0  0
    1.2756   -1.7497    0.0000 H   0  0
    0.4450    0.2298    0.0000 H   0  0
   -0.0235   -0.5003    0.0000 H   0  0
   -0.8775    1.9795    0.0000 H   0  0
   -1.2755   -1.7497    0.0000 H   0  0
   -0.4215    0.2705    0.0000 H   0  0
  1  2  1  0
  1  3  1  0
  1  4  1  0
  2  5  1  0
  2  6  1  0
  3  7  1  0
  3  8  1  0
  5  9  1  0
  5 10  1  0
  7 11  1  0
  7  9  1  0
  9 12  1  0
  1 13  1  0
  2 14  1  0
  3 15  1  0
  5 16  1  0
  7 17  1  0
  9 18  1  0
M  END
> <DSSTox_RID>
40502

> <DSSTox_CID>
686

> <DSSTox_Generic_SID>
20686

> <DSSTox_FileID>
185_TOXCST_v3a

> <STRUCTURE_Formula>
C6H6Cl6

> <STRUCTURE_MolecularWeight>
290.8298

> <STRUCTURE_ChemicalType>
defined organic

> <STRUCTURE_TestedForm_DefinedOrganic>
parent

> <STRUCTURE_Shown>
tested chemical

> <TestSubstance_ChemicalName>
gamma-1,2,3,4,5,6-Hexachlorocyclohexane

> <Source_ChemicalName>
Lindane

> <TestSubstance_CASRN>
58-89-9

> <TestSubstance_Description>
single chemical compound

> <ChemicalNote>
lindane (gamma-HCH); stereochem; same 2D structure alpha-HCH [319-84-6]; beta-HCH [319-85-7]; delta-HCH [319-86-8]; epsilon-HCH [6108-10-7]; zeta-HCH or iota-HCH [6108-11-8]; eta-HCH  [6108-12-9]; the
ta-HCH [6108-13-0]

> <STRUCTURE_ChemicalName_IUPAC>
(1r,2R,3S,4r,5R,6S)-1,2,3,4,5,6-hexachlorocyclohexane

> <STRUCTURE_SMILES>
Cl[C@@H]1[C@@H](Cl)[C@H](Cl)[C@H](Cl)[C@@H](Cl)[C@@H]1Cl

> <STRUCTURE_Parent_SMILES>
Cl[C@@H]1[C@@H](Cl)[C@H](Cl)[C@H](Cl)[C@@H](Cl)[C@@H]1Cl

> <STRUCTURE_InChI>
InChI=1S/C6H6Cl6/c7-1-2(8)4(10)6(12)5(11)3(1)9/h1-6H/t1-,2-,3-,4+,5+,6+

> <STRUCTURE_InChIKey>
JLYXXMFPNIAWKQ-GNIYUCBRSA-N

> <Substance_modify_yyyymmdd>
20080429

> <DSSTox_CID_Parent>
686

> <ChemicalReplicateCount>
1

> <Coord_Metals>
0

> <Index>
185

> <Canonical_Smiles>
ClC1C(Cl)C(Cl)C(Cl)C(Cl)C1Cl

> <Molecular_Weight>
290.82984

> <Frequency>
1

$$$$

  SciTegic          2D

 25 25  0  0  0  0            999 V2000
   -1.3039    3.7494    0.0000 C   0  0
   -0.0031    3.0008    0.0000 N   0  0
    1.2990   -0.7500    0.0000 C   0  0
   -1.3070    5.2502    0.0000 N   0  0
    1.2990    0.7500    0.0000 C   0  0
    0.0000    1.5000    0.0000 C   0  0
   -2.3421    3.1476    0.0000 O   0  0
    0.0000   -1.5000    0.0000 C   0  0
   -1.2990   -0.7500    0.0000 C   0  0
    2.3383   -1.3500    0.0000 Cl  0  0
   -1.2990    0.7500    0.0000 C   0  0
    0.0000   -2.7000    0.0000 Cl  0  0
   -2.6078    5.9988    0.0000 O   0  0
   -0.0101    6.0056    0.0000 C   0  0
   -2.6109    7.4996    0.0000 C   0  0
    0.8620    3.5023    0.0000 H   0  0
    2.1651    1.2500    0.0000 H   0  0
   -2.1651   -1.2500    0.0000 H   0  0
   -2.1651    1.2500    0.0000 H   0  0
   -0.0133    7.0056    0.0000 H   0  0
    0.8542    6.5084    0.0000 H   0  0
    0.8576    5.5086    0.0000 H   0  0
   -3.4777    7.9983    0.0000 H   0  0
   -1.7458    8.0011    0.0000 H   0  0
   -2.6125    8.4996    0.0000 H   0  0
  1  2  1  0
  1  4  1  0
  1  7  2  0
  2  6  1  0
  3  5  2  0
  3 10  1  0
  3  8  1  0
  4 13  1  0
  4 14  1  0
  5  6  1  0
  6 11  2  0
  8  9  2  0
  8 12  1  0
  9 11  1  0
 13 15  1  0
  2 16  1  0
  5 17  1  0
  9 18  1  0
 11 19  1  0
 14 20  1  0
 14 21  1  0
 14 22  1  0
 15 23  1  0
 15 24  1  0
 15 25  1  0
M  END
> <DSSTox_RID>
40503

> <DSSTox_CID>
4163

> <DSSTox_Generic_SID>
24163

> <DSSTox_FileID>
186_TOXCST_v3a

> <STRUCTURE_Formula>
C9H10Cl2N2O2

> <STRUCTURE_MolecularWeight>
249.0939

> <STRUCTURE_ChemicalType>
defined organic

> <STRUCTURE_TestedForm_DefinedOrganic>
parent

> <STRUCTURE_Shown>
tested chemical

> <TestSubstance_ChemicalName>
Linuron

> <Source_ChemicalName>
Linuron

> <TestSubstance_CASRN>
330-55-2

> <TestSubstance_Description>
single chemical compound

> <STRUCTURE_ChemicalName_IUPAC>
N'-(3,4-dichlorophenyl)-N-methoxy-N-methylurea

> <STRUCTURE_SMILES>
Clc1ccc(NC(=O)N(C)OC)cc1Cl

> <STRUCTURE_Parent_SMILES>
Clc1ccc(NC(=O)N(C)OC)cc1Cl

> <STRUCTURE_InChI>
InChI=1S/C9H10Cl2N2O2/c1-13(15-2)9(14)12-6-3-4-7(10)8(11)5-6/h3-5H,1-2H3,(H,12,14)

> <STRUCTURE_InChIKey>
XKJMBINCVNINCA-UHFFFAOYSA-N

> <Substance_modify_yyyymmdd>
20080429

> <DSSTox_CID_Parent>
4163

> <ChemicalReplicateCount>
1

> <Coord_Metals>
0

> <Index>
186

> <Canonical_Smiles>
CON(C)C(=O)Nc1ccc(Cl)c(Cl)c1

> <Molecular_Weight>
249.09389

> <Frequency>
1

$$$$

  SciTegic          2D

 38 37  0  0  0  0            999 V2000
    9.0999    1.9500    0.0000 O   0  0
    9.0999    0.7500    0.0000 C   0  0
    7.7999    0.0000    0.0000 C   0  0
    7.7999   -1.5007    0.0000 S   0  0
    9.0992   -2.2520    0.0000 P   0  0
    8.0601   -2.8523    0.0000 O   0  0
    9.1009   -3.7528    0.0000 O   0  0
    7.8025   -4.5055    0.0000 C   0  0
   10.3978   -1.4994    0.0000 O   0  0
   11.6992   -2.2468    0.0000 C   0  0
    6.5000    0.7500    0.0000 C   0  0
    5.2000    0.0000    0.0000 C   0  0
    5.2000   -1.2000    0.0000 O   0  0
    3.9000    0.7500    0.0000 O   0  0
    2.6000    0.0000    0.0000 C   0  0
    1.3000    0.7500    0.0000 C   0  0
   10.3999    0.0000    0.0000 O   0  0
   11.6999    0.7500    0.0000 C   0  0
   12.9999    0.0000    0.0000 C   0  0
    8.6659   -0.5001    0.0000 H   0  0
    7.8035   -5.5055    0.0000 H   0  0
    6.9371   -5.0066    0.0000 H   0  0
    6.9357   -4.0067    0.0000 H   0  0
   12.5644   -1.7454    0.0000 H   0  0
   12.5661   -2.7453    0.0000 H   0  0
   11.7012   -3.2468    0.0000 H   0  0
    6.5000    1.7500    0.0000 H   0  0
    5.6340    1.2501    0.0000 H   0  0
    2.6000   -1.0000    0.0000 H   0  0
    3.4659   -0.5001    0.0000 H   0  0
    0.4338    0.2503    0.0000 H   0  0
    1.3000    1.7500    0.0000 H   0  0
    0.4340    1.2501    0.0000 H   0  0
   11.6999    1.7500    0.0000 H   0  0
   10.8340    1.2501    0.0000 H   0  0
   13.8661    0.4997    0.0000 H   0  0
   12.9999   -1.0000    0.0000 H   0  0
   13.8658   -0.5001    0.0000 H   0  0
  1  2  2  0
  2  3  1  0
  2 17  1  0
  3  4  1  0
  3 11  1  0
  4  5  1  0
  5  6  2  0
  5  7  1  0
  5  9  1  0
  7  8  1  0
  9 10  1  0
 11 12  1  0
 12 13  2  0
 12 14  1  0
 14 15  1  0
 15 16  1  0
 17 18  1  0
 18 19  1  0
  3 20  1  0
  8 21  1  0
  8 22  1  0
  8 23  1  0
 10 24  1  0
 10 25  1  0
 10 26  1  0
 11 27  1  0
 11 28  1  0
 15 29  1  0
 15 30  1  0
 16 31  1  0
 16 32  1  0
 16 33  1  0
 18 34  1  0
 18 35  1  0
 19 36  1  0
 19 37  1  0
 19 38  1  0
M  END
> <DSSTox_RID>
40504

> <DSSTox_CID>
790

> <DSSTox_Generic_SID>
20790

> <DSSTox_FileID>
187_TOXCST_v3a

> <STRUCTURE_Formula>
C10H19O7PS

> <STRUCTURE_MolecularWeight>
314.2924

> <STRUCTURE_ChemicalType>
defined organic

> <STRUCTURE_TestedForm_DefinedOrganic>
parent

> <STRUCTURE_Shown>
tested chemical

> <TestSubstance_ChemicalName>
Malaoxon

> <Source_ChemicalName>
Malaoxon

> <TestSubstance_CASRN>
1634-78-2

> <TestSubstance_Description>
single chemical compound

> <STRUCTURE_ChemicalName_IUPAC>
diethyl 2-[(dimethoxyphosphoryl)thio]succinate

> <STRUCTURE_SMILES>
O=C(C(SP(=O)(OC)OC)CC(=O)OCC)OCC

> <STRUCTURE_Parent_SMILES>
O=C(C(SP(=O)(OC)OC)CC(=O)OCC)OCC

> <STRUCTURE_InChI>
InChI=1S/C10H19O7PS/c1-5-16-9(11)7-8(10(12)17-6-2)19-18(13,14-3)15-4/h8H,5-7H2,1-4H3

> <STRUCTURE_InChIKey>
WSORODGWGUUOBO-UHFFFAOYSA-N

> <Substance_modify_yyyymmdd>
20080429

> <DSSTox_CID_Parent>
790

> <ChemicalReplicateCount>
1

> <Relationship_CID>
metabolite of parent0 791

> <Coord_Metals>
0

> <Index>
187

> <Canonical_Smiles>
CCOC(=O)CC(SP(=O)(OC)OC)C(=O)OCC

> <Molecular_Weight>
314.29242

> <Frequency>
1

$$$$

  SciTegic          2D

 38 37  0  0  0  0            999 V2000
    9.0999    1.9500    0.0000 O   0  0
    9.0999    0.7500    0.0000 C   0  0
    7.7999    0.0000    0.0000 C   0  0
    7.7999   -1.5007    0.0000 S   0  0
    9.0992   -2.2520    0.0000 P   0  0
    8.0601   -2.8523    0.0000 S   0  0
    9.1009   -3.7528    0.0000 O   0  0
    7.8025   -4.5055    0.0000 C   0  0
   10.3978   -1.4994    0.0000 O   0  0
   11.6992   -2.2468    0.0000 C   0  0
    6.5000    0.7500    0.0000 C   0  0
    5.2000    0.0000    0.0000 C   0  0
    5.2000   -1.2000    0.0000 O   0  0
    3.9000    0.7500    0.0000 O   0  0
    2.6000    0.0000    0.0000 C   0  0
    1.3000    0.7500    0.0000 C   0  0
   10.3999    0.0000    0.0000 O   0  0
   11.6999    0.7500    0.0000 C   0  0
   12.9999    0.0000    0.0000 C   0  0
    8.6659   -0.5001    0.0000 H   0  0
    7.8035   -5.5055    0.0000 H   0  0
    6.9371   -5.0066    0.0000 H   0  0
    6.9357   -4.0067    0.0000 H   0  0
   12.5644   -1.7454    0.0000 H   0  0
   12.5661   -2.7453    0.0000 H   0  0
   11.7012   -3.2468    0.0000 H   0  0
    6.5000    1.7500    0.0000 H   0  0
    5.6340    1.2501    0.0000 H   0  0
    2.6000   -1.0000    0.0000 H   0  0
    3.4659   -0.5001    0.0000 H   0  0
    0.4338    0.2503    0.0000 H   0  0
    1.3000    1.7500    0.0000 H   0  0
    0.4340    1.2501    0.0000 H   0  0
   11.6999    1.7500    0.0000 H   0  0
   10.8340    1.2501    0.0000 H   0  0
   13.8661    0.4997    0.0000 H   0  0
   12.9999   -1.0000    0.0000 H   0  0
   13.8658   -0.5001    0.0000 H   0  0
  1  2  2  0
  2  3  1  0
  2 17  1  0
  3  4  1  0
  3 11  1  0
  4  5  1  0
  5  6  2  0
  5  7  1  0
  5  9  1  0
  7  8  1  0
  9 10  1  0
 11 12  1  0
 12 13  2  0
 12 14  1  0
 14 15  1  0
 15 16  1  0
 17 18  1  0
 18 19  1  0
  3 20  1  0
  8 21  1  0
  8 22  1  0
  8 23  1  0
 10 24  1  0
 10 25  1  0
 10 26  1  0
 11 27  1  0
 11 28  1  0
 15 29  1  0
 15 30  1  0
 16 31  1  0
 16 32  1  0
 16 33  1  0
 18 34  1  0
 18 35  1  0
 19 36  1  0
 19 37  1  0
 19 38  1  0
M  END
> <DSSTox_RID>
40505

> <DSSTox_CID>
791

> <DSSTox_Generic_SID>
20791

> <DSSTox_FileID>
188_TOXCST_v3a

> <STRUCTURE_Formula>
C10H19O6PS2

> <STRUCTURE_MolecularWeight>
330.358

> <STRUCTURE_ChemicalType>
defined organic

> <STRUCTURE_TestedForm_DefinedOrganic>
parent

> <STRUCTURE_Shown>
tested chemical

> <TestSubstance_ChemicalName>
Malathion

> <Source_ChemicalName>
Malathion

> <TestSubstance_CASRN>
121-75-5

> <TestSubstance_Description>
single chemical compound

> <STRUCTURE_ChemicalName_IUPAC>
diethyl 2-[(dimethoxyphosphorothioyl)thio]succinate

> <STRUCTURE_SMILES>
O=C(C(SP(=S)(OC)OC)CC(=O)OCC)OCC

> <STRUCTURE_Parent_SMILES>
O=C(C(SP(=S)(OC)OC)CC(=O)OCC)OCC

> <STRUCTURE_InChI>
InChI=1S/C10H19O6PS2/c1-5-15-9(11)7-8(10(12)16-6-2)19-17(18,13-3)14-4/h8H,5-7H2,1-4H3

> <STRUCTURE_InChIKey>
JXSJBGJIGXNWCI-UHFFFAOYSA-N

> <Substance_modify_yyyymmdd>
20080429

> <DSSTox_CID_Parent>
791

> <ChemicalReplicateCount>
1

> <Relationship_CID>
parent0 of metabolite 790

> <Coord_Metals>
0

> <Index>
188

> <Canonical_Smiles>
CCOC(=O)CC(SP(=S)(OC)OC)C(=O)OCC

> <Molecular_Weight>
330.35802

> <Frequency>
1

$$$$

  SciTegic          2D

 12 12  0  0  0  0            999 V2000
    2.3383   -1.3500    0.0000 O   0  0
    1.2990   -0.7500    0.0000 C   0  0
    1.2990    0.7500    0.0000 C   0  0
    0.0000    1.5000    0.0000 C   0  0
   -1.2990    0.7500    0.0000 C   0  0
   -2.3383    1.3500    0.0000 O   0  0
   -1.2990   -0.7500    0.0000 N   0  0
    0.0000   -1.5000    0.0000 N   0  0
    2.1651    1.2500    0.0000 H   0  0
    0.0000    2.5000    0.0000 H   0  0
   -2.1651   -1.2500    0.0000 H   0  0
    0.0000   -2.5000    0.0000 H   0  0
  1  2  2  0
  2  3  1  0
  2  8  1  0
  3  4  2  0
  4  5  1  0
  5  6  2  0
  5  7  1  0
  7  8  1  0
  3  9  1  0
  4 10  1  0
  7 11  1  0
  8 12  1  0
M  END
> <DSSTox_RID>
40506

> <DSSTox_CID>
792

> <DSSTox_Generic_SID>
20792

> <DSSTox_FileID>
189_TOXCST_v3a

> <STRUCTURE_Formula>
C4H4N2O2

> <STRUCTURE_MolecularWeight>
112.0868

> <STRUCTURE_ChemicalType>
defined organic

> <STRUCTURE_TestedForm_DefinedOrganic>
parent

> <STRUCTURE_Shown>
tested chemical

> <TestSubstance_ChemicalName>
Maleic hydrazide

> <Source_ChemicalName>
Maleic hydrazide

> <TestSubstance_CASRN>
123-33-1

> <TestSubstance_Description>
single chemical compound

> <STRUCTURE_ChemicalName_IUPAC>
1,2-dihydropyridazine-3,6-dione

> <STRUCTURE_SMILES>
O=C1C=CC(=O)NN1

> <STRUCTURE_Parent_SMILES>
O=C1C=CC(=O)NN1

> <STRUCTURE_InChI>
InChI=1S/C4H4N2O2/c7-3-1-2-4(8)6-5-3/h1-2H,(H,5,7)(H,6,8)

> <STRUCTURE_InChIKey>
BGRDGMRNKXEXQD-UHFFFAOYSA-N

> <Substance_modify_yyyymmdd>
20080429

> <DSSTox_CID_Parent>
792

> <ChemicalReplicateCount>
1

> <Coord_Metals>
0

> <Index>
189

> <Canonical_Smiles>
O=C1NNC(=O)C=C1

> <Molecular_Weight>
112.08676

> <Frequency>
1

$$$$

  SciTegic          2D

 18 17  0  0  0  0            999 V2000
    6.5000    0.7500    0.0000 C   0  0
    5.2000    0.0000    0.0000 C   0  0
    7.7999    0.0000    0.0000 N   0  0
    3.9000    0.7500    0.0000 N   0  0
    2.6000    0.0000    0.0000 C   0  0
    2.6000   -1.2000    0.0000 S   0  0
    1.3000    0.7500    0.0000 S   0  0
    9.0999    0.7500    0.0000 C   0  0
    9.0999    1.9500    0.0000 S   0  0
   10.3999    0.0000    0.0000 S   0  0
    6.5000    1.7500    0.0000 H   0  0
    7.3659    1.2501    0.0000 H   0  0
    5.2000   -1.0000    0.0000 H   0  0
    4.3340   -0.5001    0.0000 H   0  0
    7.7999   -1.0000    0.0000 H   0  0
    3.9000    1.7500    0.0000 H   0  0
    0.4338    0.2503    0.0000 H   0  0
   11.2661    0.4997    0.0000 H   0  0
  1  2  1  0
  1  3  1  0
  2  4  1  0
  3  8  1  0
  4  5  1  0
  5  6  2  0
  5  7  1  0
  8  9  2  0
  8 10  1  0
  1 11  1  0
  1 12  1  0
  2 13  1  0
  2 14  1  0
  3 15  1  0
  4 16  1  0
  7 17  1  0
 10 18  1  0
M  END
> <DSSTox_RID>
40507
40508
40527

> <DSSTox_CID>
14695
794
1465

> <DSSTox_Generic_SID>
34695
20794
34737

> <DSSTox_FileID>
190_TOXCST_v3a
191_TOXCST_v3a
207_TOXCST_v3a

> <STRUCTURE_Formula>
C8H12MnN4S8Zn
C4H6MnN2S4
C4H6N2S4Zn

> <STRUCTURE_MolecularWeight>
541.0747
265.3019
275.7728

> <STRUCTURE_ChemicalType>
organometallic
organometallic
organometallic

> <STRUCTURE_Shown>
tested chemical
tested chemical
representative component in mixture

> <TestSubstance_ChemicalName>
Mancozeb
Maneb
Metiram

> <Source_ChemicalName>
Mancozeb
Maneb
Metiram-zinc

> <TestSubstance_CASRN>
8018-01-7
12427-38-2
9006-42-2

> <TestSubstance_Description>
single chemical compound
single chemical compound
mixture or formulation

> <STRUCTURE_ChemicalName_IUPAC>
manganese(2+) ethane-1,2-diylbis(dithiocarbamate) zinc ethane-1,2-diylbis(dithiocarbamate)
manganese(2+) ethane-1,2-diylbis(dithiocarbamate)
zinc ethane-1,2-diylbis(dithiocarbamate)

> <STRUCTURE_SMILES>
S=C([S-])NCCNC([S-])=S.S=C([S-])NCCNC([S-])=S.[Zn+2].[Mn+2]
[Mn+2].[S-]C(=S)NCCNC(=S)[S-]
S=C([S-])NCCNC([S-])=S.[Zn+2]

> <STRUCTURE_InChI>
InChI=1S/2C4H8N2S4.Mn.Zn/c2*7-3(8)5-1-2-6-4(9)10;;/h2*1-2H2,(H2,5,7,8)(H2,6,9,10);;/q;;2*+2/p-4
InChI=1S/C4H8N2S4.Mn/c7-3(8)5-1-2-6-4(9)10;/h1-2H2,(H2,5,7,8)(H2,6,9,10);/q;+2/p-2
InChI=1S/C4H8N2S4.Zn/c7-3(8)5-1-2-6-4(9)10;/h1-2H2,(H2,5,7,8)(H2,6,9,10);/q;+2/p-2

> <STRUCTURE_InChIKey>
CHNQZRKUZPNOOH-UHFFFAOYSA-J
YKSNLCVSTHTHJA-UHFFFAOYSA-L
AMHNZOICSMBGDH-UHFFFAOYSA-L

> <Substance_modify_yyyymmdd>
20080429
20080429
20080429

> <ChemicalReplicateCount>
1
1
1

> <Relationship_CID>
parent0 of ETU metabolite 601
parent0 of ETU metabolite 601
parent0 of ETU metabolite 601

> <Coord_Metals>
1
1
0

> <Index>
190
191
207

> <Canonical_Smiles>
SC(=S)NCCNC(=S)S

> <Molecular_Weight>
212.37971
212.37971
212.37971

> <ChemicalNote>
mixture of zineb [12122-67-7], poly(ethylenethiuram disulfide)with ammonia; structure shown zineb; molecular weight 1088.7

> <Frequency>
3

$$$$

  SciTegic          2D

 22 22  0  0  0  0            999 V2000
    1.2990   -0.7500    0.0000 C   0  0
    3.8933    3.7570    0.0000 C   0  0
    1.2990    0.7500    0.0000 C   0  0
    2.5972    1.5031    0.0000 O   0  0
    0.0000   -1.5000    0.0000 C   0  0
    4.9336    3.1588    0.0000 O   0  0
    0.0000    1.5000    0.0000 C   0  0
    2.5951    3.0039    0.0000 C   0  0
   -1.2990   -0.7500    0.0000 C   0  0
    3.8912    5.2578    0.0000 O   0  0
   -1.2990    0.7500    0.0000 C   0  0
   -2.3383   -1.3500    0.0000 Cl  0  0
    2.5988   -1.5004    0.0000 C   0  0
    0.0000   -2.5000    0.0000 H   0  0
    0.0000    2.5000    0.0000 H   0  0
    1.7299    2.5026    0.0000 H   0  0
    1.7282    3.5024    0.0000 H   0  0
    4.7561    5.7596    0.0000 H   0  0
   -2.1651    1.2500    0.0000 H   0  0
    3.4651   -1.0010    0.0000 H   0  0
    2.5985   -2.5004    0.0000 H   0  0
    3.4646   -2.0008    0.0000 H   0  0
  1  3  2  0
  1  5  1  0
  1 13  1  0
  2  8  1  0
  2  6  2  0
  2 10  1  0
  3  4  1  0
  3  7  1  0
  4  8  1  0
  5  9  2  0
  7 11  2  0
  9 11  1  0
  9 12  1  0
  5 14  1  0
  7 15  1  0
  8 16  1  0
  8 17  1  0
 10 18  1  0
 11 19  1  0
 13 20  1  0
 13 21  1  0
 13 22  1  0
M  END
> <DSSTox_RID>
40335

> <DSSTox_CID>
4195

> <DSSTox_Generic_SID>
24195

> <DSSTox_FileID>
192_TOXCST_v3a

> <STRUCTURE_Formula>
C9H9ClO3

> <STRUCTURE_MolecularWeight>
200.619

> <STRUCTURE_ChemicalType>
defined organic

> <STRUCTURE_TestedForm_DefinedOrganic>
parent

> <STRUCTURE_Shown>
tested chemical

> <TestSubstance_ChemicalName>
2-Methyl-4-chlorophenoxyacetic acid

> <Source_ChemicalName>
MCPA

> <TestSubstance_CASRN>
94-74-6

> <TestSubstance_Description>
single chemical compound

> <STRUCTURE_ChemicalName_IUPAC>
(4-chloro-2-methylphenoxy)acetic acid

> <STRUCTURE_SMILES>
O=C(O)COC1=C(C)C=C(Cl)C=C1

> <STRUCTURE_Parent_SMILES>
O=C(O)COC1=C(C)C=C(Cl)C=C1

> <STRUCTURE_InChI>
InChI=1S/C9H9ClO3/c1-6-4-7(10)2-3-8(6)13-5-9(11)12/h2-4H,5H2,1H3,(H,11,12)

> <STRUCTURE_InChIKey>
WHKUVVPPKQRRBV-UHFFFAOYSA-N

> <Substance_modify_yyyymmdd>
20080429

> <DSSTox_CID_Parent>
4195

> <ChemicalReplicateCount>
1

> <Coord_Metals>
0

> <Index>
192

> <Canonical_Smiles>
Cc1cc(Cl)ccc1OCC(=O)O

> <Molecular_Weight>
200.61895

> <Frequency>
1

$$$$

  SciTegic          2D

 24 24  0  0  0  0            999 V2000
    1.2990   -0.7500    0.0000 N   0  3
    2.5625    0.0216    0.0000 C   0  0
    1.2628   -2.2303    0.0000 C   0  0
    1.2990    0.7500    0.0000 C   0  0
    0.0000   -1.5000    0.0000 C   0  0
   -1.2990   -0.7500    0.0000 C   0  0
    0.0000    1.5000    0.0000 C   0  0
   -1.2990    0.7500    0.0000 C   0  0
    2.5629    1.0216    0.0000 H   0  0
    3.4287    0.5213    0.0000 H   0  0
    3.4285   -0.4785    0.0000 H   0  0
    2.1284   -2.7310    0.0000 H   0  0
    1.2622   -3.2303    0.0000 H   0  0
    0.3965   -2.7300    0.0000 H   0  0
    0.4215    0.2706    0.0000 H   0  0
    1.2755    1.7497    0.0000 H   0  0
   -0.8776   -1.9794    0.0000 H   0  0
   -0.0235   -0.5003    0.0000 H   0  0
   -2.1530   -0.2297    0.0000 H   0  0
   -1.2755   -1.7497    0.0000 H   0  0
    0.8776    1.9794    0.0000 H   0  0
   -0.8775    1.9795    0.0000 H   0  0
   -0.4451    0.2297    0.0000 H   0  0
   -2.1531    0.2298    0.0000 H   0  0
  1  2  1  0
  1  3  1  0
  1  4  1  0
  1  5  1  0
  4  7  1  0
  5  6  1  0
  6  8  1  0
  7  8  1  0
  2  9  1  0
  2 10  1  0
  2 11  1  0
  3 12  1  0
  3 13  1  0
  3 14  1  0
  4 15  1  0
  4 16  1  0
  5 17  1  0
  5 18  1  0
  6 19  1  0
  6 20  1  0
  7 21  1  0
  7 22  1  0
  8 23  1  0
  8 24  1  0
M  CHG  1   1   1
M  END
> <DSSTox_RID>
40509

> <DSSTox_CID>
4170

> <DSSTox_Generic_SID>
24170

> <DSSTox_FileID>
193_TOXCST_v3a

> <STRUCTURE_Formula>
C7H16ClN

> <STRUCTURE_MolecularWeight>
149.6616

> <STRUCTURE_ChemicalType>
defined organic

> <STRUCTURE_TestedForm_DefinedOrganic>
salt Cl

> <STRUCTURE_Shown>
tested chemical

> <TestSubstance_ChemicalName>
Mepiquat chloride

> <Source_ChemicalName>
Mepiquat chloride

> <TestSubstance_CASRN>
24307-26-4

> <TestSubstance_Description>
single chemical compound

> <ChemicalNote>
ammonium; parent [15302-91-7]

> <STRUCTURE_ChemicalName_IUPAC>
1,1-dimethylpiperidinium chloride

> <STRUCTURE_SMILES>
[Cl-].C[N+]1(C)CCCCC1

> <STRUCTURE_Parent_SMILES>
C[N+]1(C)CCCCC1

> <STRUCTURE_InChI>
InChI=1S/C7H16N.ClH/c1-8(2)6-4-3-5-7-8;/h3-7H2,1-2H3;1H/q+1;/p-1

> <STRUCTURE_InChIKey>
VHOVSQVSAAQANU-UHFFFAOYSA-M

> <Substance_modify_yyyymmdd>
20080429

> <DSSTox_CID_Parent>
22122

> <ChemicalReplicateCount>
1

> <Coord_Metals>
0

> <Index>
193

> <Canonical_Smiles>
C[N+]1(C)CCCCC1

> <Molecular_Weight>
114.20864

> <Frequency>
1

$$$$

  SciTegic          2D

 54 55  0  0  0  0            999 V2000
    1.2990   -0.7500    0.0000 C   0  0
    1.2990    0.7500    0.0000 C   0  0
   -1.2990    0.7500    0.0000 C   0  0
   -1.2990   -0.7500    0.0000 C   0  0
    0.0000    1.5000    0.0000 C   0  0
    0.0000   -1.5000    0.0000 C   0  0
    0.0000   -3.0008    0.0000 C   0  0
   -0.0031    3.0008    0.0000 C   0  0
   -1.3039    3.7494    0.0000 O   0  0
    1.0351    3.6026    0.0000 O   0  0
   -2.5988    1.5004    0.0000 S   0  0
   -2.5984    2.7004    0.0000 O   0  0
   -3.6377    2.1009    0.0000 O   0  0
   -3.8990    0.7508    0.0000 N   0  0
   -5.1988    1.5012    0.0000 C   0  0
   -5.1984    2.7012    0.0000 O   0  0
   -6.4990    0.7516    0.0000 N   0  0
   -9.0994    0.7547    0.0000 N   0  0
   -7.7958    3.0021    0.0000 N   0  0
   -7.7988    1.5020    0.0000 C   0  0
  -10.3939    3.0074    0.0000 C   0  0
  -10.3969    1.5074    0.0000 C   0  0
   -9.0933    3.7547    0.0000 C   0  0
   -9.0872    5.2555    0.0000 O   0  0
   -7.7848    6.0015    0.0000 C   0  0
  -11.6966    0.7569    0.0000 O   0  0
  -11.6976   -0.7439    0.0000 C   0  0
    1.2993   -3.7521    0.0000 N   0  0
    2.5986   -6.0041    0.0000 C   0  0
    1.2993   -5.2529    0.0000 S   0  0
    0.2599   -5.8526    0.0000 O   0  0
    0.2602   -4.6527    0.0000 O   0  0
   -1.3070    5.2502    0.0000 C   0  0
    2.1651   -1.2500    0.0000 H   0  0
    2.1651    1.2500    0.0000 H   0  0
   -2.1651   -1.2500    0.0000 H   0  0
   -0.8662   -3.5006    0.0000 H   0  0
   -0.0005   -4.0008    0.0000 H   0  0
   -3.8993   -0.2492    0.0000 H   0  0
   -6.4993   -0.2484    0.0000 H   0  0
  -11.2589    3.5091    0.0000 H   0  0
   -7.7807    7.0015    0.0000 H   0  0
   -6.9207    5.4982    0.0000 H   0  0
   -6.9168    6.4981    0.0000 H   0  0
  -12.5636   -1.2439    0.0000 H   0  0
  -10.8317   -1.2442    0.0000 H   0  0
  -11.6977   -1.7439    0.0000 H   0  0
    2.1655   -3.2523    0.0000 H   0  0
    2.5986   -7.0041    0.0000 H   0  0
    3.4645   -6.5043    0.0000 H   0  0
    3.4648   -5.5044    0.0000 H   0  0
   -2.1738    5.7490    0.0000 H   0  0
   -1.3086    6.2502    0.0000 H   0  0
   -0.4419    5.7517    0.0000 H   0  0
  1  2  2  0
  1  6  1  0
  2  5  1  0
  3  5  2  0
  3  4  1  0
  3 11  1  0
  4  6  2  0
  5  8  1  0
  6  7  1  0
  7 28  1  0
  8  9  1  0
  8 10  2  0
  9 33  1  0
 11 12  2  0
 11 13  2  0
 11 14  1  0
 14 15  1  0
 15 16  2  0
 15 17  1  0
 17 20  1  0
 18 20  2  0
 18 22  1  0
 19 20  1  0
 19 23  2  0
 21 22  2  0
 21 23  1  0
 22 26  1  0
 23 24  1  0
 24 25  1  0
 26 27  1  0
 28 30  1  0
 29 30  1  0
 30 31  2  0
 30 32  2  0
  1 34  1  0
  2 35  1  0
  4 36  1  0
  7 37  1  0
  7 38  1  0
 14 39  1  0
 17 40  1  0
 21 41  1  0
 25 42  1  0
 25 43  1  0
 25 44  1  0
 27 45  1  0
 27 46  1  0
 27 47  1  0
 28 48  1  0
 29 49  1  0
 29 50  1  0
 29 51  1  0
 33 52  1  0
 33 53  1  0
 33 54  1  0
M  END
> <DSSTox_RID>
40511

> <DSSTox_CID>
14712

> <DSSTox_Generic_SID>
34712

> <DSSTox_FileID>
194_TOXCST_v3a

> <STRUCTURE_Formula>
C17H21N5O9S2

> <STRUCTURE_MolecularWeight>
503.5067

> <STRUCTURE_ChemicalType>
defined organic

> <STRUCTURE_TestedForm_DefinedOrganic>
parent

> <STRUCTURE_Shown>
tested chemical

> <TestSubstance_ChemicalName>
Mesosulfuron-methyl

> <Source_ChemicalName>
Mesosulfuron-methyl

> <TestSubstance_CASRN>
208465-21-8

> <TestSubstance_Description>
single chemical compound

> <STRUCTURE_ChemicalName_IUPAC>
methyl 2-({[(4,6-dimethoxypyrimidin-2-yl)carbamoyl]amino}sulfonyl)-4-{[(methylsulfonyl)amino]methyl}benzoate

> <STRUCTURE_SMILES>
O=C(OC)C1=C(S(=O)(NC(NC2=NC(OC)=CC(OC)=N2)=O)=O)C=C(CNS(=O)(C)=O)C=C1

> <STRUCTURE_Parent_SMILES>
O=C(OC)C1=C(S(=O)(NC(NC2=NC(OC)=CC(OC)=N2)=O)=O)C=C(CNS(=O)(C)=O)C=C1

> <STRUCTURE_InChI>
InChI=1S/C17H21N5O9S2/c1-29-13-8-14(30-2)20-16(19-13)21-17(24)22-33(27,28)12-7-10(9-18-32(4,25)26)5-6-11(12)15(23)31-3/h5-8,18H,9H2,1-4H3,(H2,19,20,21,22,24)

> <STRUCTURE_InChIKey>
NIFKBBMCXCMCAO-UHFFFAOYSA-N

> <Substance_modify_yyyymmdd>
20080429

> <DSSTox_CID_Parent>
14712

> <ChemicalReplicateCount>
1

> <Coord_Metals>
0

> <Index>
194

> <Canonical_Smiles>
COC(=O)c1ccc(CNS(=O)(=O)C)cc1S(=O)(=O)NC(=O)Nc2nc(OC)cc(OC)n2

> <Molecular_Weight>
503.50674

> <Frequency>
1

$$$$

  SciTegic          2D

 36 37  0  0  0  0            999 V2000
    1.2990   -0.7500    0.0000 C   0  0
    1.2990    0.7500    0.0000 C   0  0
    0.0000    1.5000    0.0000 C   0  0
   -1.2990    0.7500    0.0000 C   0  0
   -1.2990   -0.7500    0.0000 C   0  0
    0.0000   -1.5000    0.0000 C   0  0
    2.3383   -1.3500    0.0000 O   0  0
    0.0000    2.7000    0.0000 O   0  0
    1.7710    2.1532    0.0000 C   0  0
    0.9552    3.0333    0.0000 O   0  0
    3.2342    2.4869    0.0000 C   0  0
    4.2559    1.3885    0.0000 C   0  0
    3.6748    3.9208    0.0000 C   0  0
    5.7179    1.7241    0.0000 C   0  0
    5.1368    4.2563    0.0000 C   0  0
    6.1583    3.1579    0.0000 C   0  0
    7.6211    3.4936    0.0000 S   0  0
    7.9731    4.6408    0.0000 O   0  0
    6.8038    4.3722    0.0000 O   0  0
    8.6440    2.3953    0.0000 C   0  0
    3.8182   -0.0471    0.0000 N   0  0
    4.6368   -0.9246    0.0000 O   0  0
    2.6491   -0.3176    0.0000 O   0  0
    2.1526    0.2289    0.0000 H   0  0
   -2.1530    0.2297    0.0000 H   0  0
   -1.2756    1.7497    0.0000 H   0  0
   -0.4215   -0.2706    0.0000 H   0  0
   -1.2755   -1.7497    0.0000 H   0  0
   -0.8776   -1.9794    0.0000 H   0  0
    0.8775   -1.9795    0.0000 H   0  0
    2.9938    4.6531    0.0000 H   0  0
    6.3989    0.9918    0.0000 H   0  0
    5.4304    5.2122    0.0000 H   0  0
    9.6186    2.6190    0.0000 H   0  0
    8.3506    1.4393    0.0000 H   0  0
    9.3251    1.6632    0.0000 H   0  0
  1  2  1  0
  1  6  1  0
  1  7  2  0
  2  3  1  0
  2  9  1  0
  3  4  1  0
  3  8  2  0
  4  5  1  0
  5  6  1  0
  9 10  2  0
  9 11  1  0
 11 12  2  0
 11 13  1  0
 12 14  1  0
 12 21  1  0
 13 15  2  0
 14 16  2  0
 15 16  1  0
 16 17  1  0
 17 18  2  0
 17 19  2  0
 17 20  1  0
 21 22  2  0
 21 23  2  0
  2 24  1  0
  4 25  1  0
  4 26  1  0
  5 27  1  0
  5 28  1  0
  6 29  1  0
  6 30  1  0
 13 31  1  0
 14 32  1  0
 15 33  1  0
 20 34  1  0
 20 35  1  0
 20 36  1  0
M  END
> <DSSTox_RID>
40512

> <DSSTox_CID>
12424

> <DSSTox_Generic_SID>
32424

> <DSSTox_FileID>
195_TOXCST_v3a

> <STRUCTURE_Formula>
C14H13NO7S

> <STRUCTURE_MolecularWeight>
339.3205

> <STRUCTURE_ChemicalType>
defined organic

> <STRUCTURE_TestedForm_DefinedOrganic>
parent

> <STRUCTURE_Shown>
tested chemical

> <TestSubstance_ChemicalName>
Mesotrione

> <Source_ChemicalName>
Mesotrione

> <TestSubstance_CASRN>
104206-82-8

> <TestSubstance_Description>
single chemical compound

> <ChemicalNote>
tautomers

> <STRUCTURE_ChemicalName_IUPAC>
2-[4-(methylsulfonyl)-2-nitrobenzoyl]cyclohexane-1,3-dione

> <STRUCTURE_SMILES>
O=C1C(C(C2=C([N+]([O-])=O)C=C(S(=O)(C)=O)C=C2)=O)C(CCC1)=O

> <STRUCTURE_Parent_SMILES>
O=C1C(C(C2=C([N+]([O-])=O)C=C(S(=O)(C)=O)C=C2)=O)C(CCC1)=O

> <STRUCTURE_InChI>
InChI=1S/C14H13NO7S/c1-23(21,22)8-5-6-9(10(7-8)15(19)20)14(18)13-11(16)3-2-4-12(13)17/h5-7,13H,2-4H2,1H3

> <STRUCTURE_InChIKey>
KPUREKXXPHOJQT-UHFFFAOYSA-N

> <Substance_modify_yyyymmdd>
20080429

> <DSSTox_CID_Parent>
12424

> <ChemicalReplicateCount>
1

> <Coord_Metals>
0

> <Index>
195

> <Canonical_Smiles>
CS(=O)(=O)c1ccc(C(=O)C2C(=O)CCCC2=O)c(c1)N(=O)=O

> <Molecular_Weight>
339.32052

> <Frequency>
1

$$$$

  SciTegic          2D

 41 41  0  0  0  0            999 V2000
    2.5973   -1.5031    0.0000 N   0  0
    1.2990   -0.7500    0.0000 C   0  0
    3.8990   -0.7562    0.0000 C   0  0
    2.5937   -3.0038    0.0000 C   0  0
    4.1401   -3.0864    0.0000 C   0  0
    1.2990    0.7500    0.0000 C   0  0
    0.0000   -1.5000    0.0000 C   0  0
    3.9019    0.4438    0.0000 O   0  0
    4.8199   -2.0975    0.0000 O   0  0
    4.7516   -4.4570    0.0000 O   0  0
    5.3765   -1.0198    0.0000 C   0  0
    1.8852   -4.3808    0.0000 C   0  0
    6.3443    0.1273    0.0000 O   0  0
   -1.2990    0.7500    0.0000 C   0  0
   -1.2990   -0.7500    0.0000 C   0  0
    0.0000    1.5000    0.0000 C   0  0
    0.0000   -3.0008    0.0000 C   0  0
    2.5988    1.5004    0.0000 C   0  0
    6.2442   -4.6136    0.0000 C   0  0
    7.8218   -0.1364    0.0000 C   0  0
    1.7264   -3.5016    0.0000 H   0  0
    6.3609   -1.1960    0.0000 H   0  0
    5.7163   -1.9603    0.0000 H   0  0
    0.8852   -4.3787    0.0000 H   0  0
    2.4051   -5.2351    0.0000 H   0  0
    1.3943   -5.2521    0.0000 H   0  0
   -2.1651    1.2500    0.0000 H   0  0
   -2.1651   -1.2500    0.0000 H   0  0
    0.0000    2.5000    0.0000 H   0  0
    0.8657   -3.5014    0.0000 H   0  0
   -0.8662   -3.5006    0.0000 H   0  0
   -0.0005   -4.0008    0.0000 H   0  0
    3.4651    1.0010    0.0000 H   0  0
    2.5985    2.5004    0.0000 H   0  0
    3.4646    2.0008    0.0000 H   0  0
    6.6517   -5.5269    0.0000 H   0  0
    6.8316   -3.8043    0.0000 H   0  0
    7.2388   -4.7175    0.0000 H   0  0
    8.4666    0.6279    0.0000 H   0  0
    8.1616   -1.0769    0.0000 H   0  0
    8.8062   -0.3125    0.0000 H   0  0
  1  2  1  0
  1  3  1  0
  1  4  1  0
  2  6  2  0
  2  7  1  0
  3  8  2  0
  3 11  1  0
  4  5  1  0
  4 12  1  0
  5  9  2  0
  5 10  1  0
  6 16  1  0
  6 18  1  0
  7 15  2  0
  7 17  1  0
 10 19  1  0
 11 13  1  0
 13 20  1  0
 14 15  1  0
 14 16  2  0
  4 21  1  0
 11 22  1  0
 11 23  1  0
 12 24  1  0
 12 25  1  0
 12 26  1  0
 14 27  1  0
 15 28  1  0
 16 29  1  0
 17 30  1  0
 17 31  1  0
 17 32  1  0
 18 33  1  0
 18 34  1  0
 18 35  1  0
 19 36  1  0
 19 37  1  0
 19 38  1  0
 20 39  1  0
 20 40  1  0
 20 41  1  0
M  END
> <DSSTox_RID>
40513

> <DSSTox_CID>
4175

> <DSSTox_Generic_SID>
24175

> <DSSTox_FileID>
196_TOXCST_v3a

> <STRUCTURE_Formula>
C15H21NO4

> <STRUCTURE_MolecularWeight>
279.3315

> <STRUCTURE_ChemicalType>
defined organic

> <STRUCTURE_TestedForm_DefinedOrganic>
parent

> <STRUCTURE_Shown>
tested chemical

> <TestSubstance_ChemicalName>
Metalaxyl

> <Source_ChemicalName>
Metalaxyl

> <TestSubstance_CASRN>
57837-19-1

> <TestSubstance_Description>
single chemical compound

> <ChemicalNote>
mixture of (R,S) isomers; structure shown without stereochem

> <STRUCTURE_ChemicalName_IUPAC>
methyl 2-[(2,6-dimethylphenyl)(methoxyacetyl)amino]propanoate

> <STRUCTURE_SMILES>
Cc1cccc(C)c1N(C(=O)COC)C(C)C(=O)OC

> <STRUCTURE_Parent_SMILES>
Cc1cccc(C)c1N(C(=O)COC)C(C)C(=O)OC

> <STRUCTURE_InChI>
InChI=1S/C15H21NO4/c1-10-7-6-8-11(2)14(10)16(13(17)9-19-4)12(3)15(18)20-5/h6-8,12H,9H2,1-5H3

> <STRUCTURE_InChIKey>
ZQEIXNIJLIKNTD-UHFFFAOYSA-N

> <Substance_modify_yyyymmdd>
20080429

> <DSSTox_CID_Parent>
4175

> <ChemicalReplicateCount>
1

> <Coord_Metals>
0

> <Index>
196

> <Canonical_Smiles>
COCC(=O)N(C(C)C(=O)OC)c1c(C)cccc1C

> <Molecular_Weight>
279.33154

> <Frequency>
1

$$$$

  SciTegic          2D

 10  9  0  0  0  0            999 V2000
    2.6000    0.0000    0.0000 N   0  0
    3.9000    0.7500    0.0000 C   0  0
    1.3000    0.7500    0.0000 C   0  0
    3.9000    1.9500    0.0000 S   0  0
    5.2000    0.0000    0.0000 S   0  0
    2.6000   -1.0000    0.0000 H   0  0
    0.4338    0.2503    0.0000 H   0  0
    1.3000    1.7500    0.0000 H   0  0
    0.4340    1.2501    0.0000 H   0  0
    6.0661    0.4997    0.0000 H   0  0
  1  2  1  0
  1  3  1  0
  2  4  2  0
  2  5  1  0
  1  6  1  0
  3  7  1  0
  3  8  1  0
  3  9  1  0
  5 10  1  0
M  END
> <DSSTox_RID>
40515

> <DSSTox_CID>
20361

> <DSSTox_Generic_SID>
40361

> <DSSTox_FileID>
197_TOXCST_v3a

> <STRUCTURE_Formula>
C2H10NNaO3S2

> <STRUCTURE_MolecularWeight>
183.2255

> <STRUCTURE_ChemicalType>
defined organic

> <STRUCTURE_TestedForm_DefinedOrganic>
salt Na complex 3H2O

> <STRUCTURE_Shown>
tested chemical

> <TestSubstance_ChemicalName>
Metam-sodium hydrate

> <Source_ChemicalName>
Metam-sodium hydrate

> <TestSubstance_CASRN>
6734-80-1

> <TestSubstance_Description>
single chemical compound

> <ChemicalNote>
CASRN is for a compound containing x hydrates; CofA indicates that tested chemical was the trihydrate; parent [144-54-7]

> <STRUCTURE_ChemicalName_IUPAC>
sodium methylcarbamodithioate trihydrate

> <STRUCTURE_SMILES>
CNC([S-])=S.[Na+].O.O.O

> <STRUCTURE_Parent_SMILES>
SC(NC)=S

> <STRUCTURE_InChI>
InChI=1S/C2H5NS2.Na.3H2O/c1-3-2(4)5;;;;/h1H3,(H2,3,4,5);;3*1H2/q;+1;;;/p-1

> <STRUCTURE_InChIKey>
QRQDRWKSESXODM-UHFFFAOYSA-M

> <Substance_modify_yyyymmdd>
20080429

> <DSSTox_CID_Parent>
23970

> <ChemicalReplicateCount>
1

> <Relationship_CID>
parent0 of MITC metabolite 7204

> <Note_TOXCST>
CofA indicated tested chemical was trihydrate (30% water)

> <Coord_Metals>
0

> <Index>
197

> <Canonical_Smiles>
CNC(=S)S

> <Molecular_Weight>
107.1978

> <Frequency>
1

$$$$

  SciTegic          2D

 15 14  0  0  0  0            999 V2000
    3.9000    0.7500    0.0000 P   0  0
    3.9000    1.9500    0.0000 O   0  0
    2.6000    0.0000    0.0000 S   0  0
    2.5761    1.5169    0.0000 N   0  0
    5.2000    0.0000    0.0000 O   0  0
    2.5986   -1.5008    0.0000 C   0  0
    6.5000    0.7500    0.0000 C   0  0
    2.5769    2.5169    0.0000 H   0  0
    1.7095    1.0178    0.0000 H   0  0
    1.7324   -2.0005    0.0000 H   0  0
    3.4643   -2.0014    0.0000 H   0  0
    2.5981   -2.5008    0.0000 H   0  0
    7.3661    0.2503    0.0000 H   0  0
    6.5000    1.7500    0.0000 H   0  0
    7.3659    1.2501    0.0000 H   0  0
  1  2  2  0
  1  3  1  0
  1  4  1  0
  1  5  1  0
  3  6  1  0
  5  7  1  0
  4  8  1  0
  4  9  1  0
  6 10  1  0
  6 11  1  0
  6 12  1  0
  7 13  1  0
  7 14  1  0
  7 15  1  0
M  END
> <DSSTox_RID>
40516

> <DSSTox_CID>
4177

> <DSSTox_Generic_SID>
24177

> <DSSTox_FileID>
198_TOXCST_v3a

> <STRUCTURE_Formula>
C2H8NO2PS

> <STRUCTURE_MolecularWeight>
141.1292

> <STRUCTURE_ChemicalType>
defined organic

> <STRUCTURE_TestedForm_DefinedOrganic>
parent

> <STRUCTURE_Shown>
tested chemical

> <TestSubstance_ChemicalName>
Methamidophos

> <Source_ChemicalName>
Methamidophos

> <TestSubstance_CASRN>
10265-92-6

> <TestSubstance_Description>
single chemical compound

> <STRUCTURE_ChemicalName_IUPAC>
O,S-dimethyl amidothiophosphate

> <STRUCTURE_SMILES>
NP(=O)(OC)SC

> <STRUCTURE_Parent_SMILES>
NP(=O)(OC)SC

> <STRUCTURE_InChI>
InChI=1S/C2H8NO2PS/c1-5-6(3,4)7-2/h1-2H3,(H2,3,4)

> <STRUCTURE_InChIKey>
NNKVPIKMPCQWCG-UHFFFAOYSA-N

> <Substance_modify_yyyymmdd>
20080429

> <DSSTox_CID_Parent>
4177

> <ChemicalReplicateCount>
1

> <Coord_Metals>
0

> <Index>
198

> <Canonical_Smiles>
COP(=O)(N)SC

> <Molecular_Weight>
141.12918

> <Frequency>
1

$$$$

  SciTegic          2D

 27 27  0  0  0  0            999 V2000
    5.1989   -3.1768    0.0000 S   0  0
    4.0055   -3.3026    0.0000 P   0  0
    3.1234   -2.0885    0.0000 S   0  0
    1.6307   -2.2444    0.0000 C   0  0
    0.7500   -1.0323    0.0000 N   0  0
    1.2135    0.3943    0.0000 C   0  0
    2.3548    0.7651    0.0000 O   0  0
    0.0000    1.2760    0.0000 S   0  0
   -1.2135    0.3943    0.0000 C   0  0
   -0.7500   -1.0323    0.0000 N   0  0
   -2.6394    0.8543    0.0000 O   0  0
   -3.7533   -0.1515    0.0000 C   0  0
    3.3960   -4.6741    0.0000 O   0  0
    4.2781   -5.8883    0.0000 C   0  0
    4.6293   -1.9056    0.0000 O   0  0
    6.1220   -1.7495    0.0000 C   0  0
    1.2236   -3.1578    0.0000 H   0  0
    2.2181   -3.0537    0.0000 H   0  0
   -4.7050    0.1555    0.0000 H   0  0
   -3.5437   -1.1293    0.0000 H   0  0
   -4.4951   -0.8221    0.0000 H   0  0
    3.8720   -6.8021    0.0000 H   0  0
    5.2726   -5.7834    0.0000 H   0  0
    4.8663   -6.6970    0.0000 H   0  0
    6.5298   -0.8364    0.0000 H   0  0
    7.1166   -1.6459    0.0000 H   0  0
    6.7091   -2.5590    0.0000 H   0  0
  1  2  2  0
  2  3  1  0
  2 13  1  0
  2 15  1  0
  3  4  1  0
  4  5  1  0
  5  6  1  0
  5 10  1  0
  6  7  2  0
  6  8  1  0
  8  9  1  0
  9 10  2  0
  9 11  1  0
 11 12  1  0
 13 14  1  0
 15 16  1  0
  4 17  1  0
  4 18  1  0
 12 19  1  0
 12 20  1  0
 12 21  1  0
 14 22  1  0
 14 23  1  0
 14 24  1  0
 16 25  1  0
 16 26  1  0
 16 27  1  0
M  END
> <DSSTox_RID>
40520

> <DSSTox_CID>
819

> <DSSTox_Generic_SID>
20819

> <DSSTox_FileID>
199_TOXCST_v3a

> <STRUCTURE_Formula>
C6H11N2O4PS3

> <STRUCTURE_MolecularWeight>
302.3313

> <STRUCTURE_ChemicalType>
defined organic

> <STRUCTURE_TestedForm_DefinedOrganic>
parent

> <STRUCTURE_Shown>
tested chemical

> <TestSubstance_ChemicalName>
Methidathion

> <Source_ChemicalName>
Methidathion

> <TestSubstance_CASRN>
950-37-8

> <TestSubstance_Description>
single chemical compound

> <STRUCTURE_ChemicalName_IUPAC>
S-[(5-methoxy-2-oxo-1,3,4-thiadiazol-3(2H)-yl)methyl] O,O-dimethyl dithiophosphate

> <STRUCTURE_SMILES>
S=P(SCN1C(=O)SC(=N1)OC)(OC)OC

> <STRUCTURE_Parent_SMILES>
S=P(SCN1C(=O)SC(=N1)OC)(OC)OC

> <STRUCTURE_InChI>
InChI=1S/C6H11N2O4PS3/c1-10-5-7-8(6(9)16-5)4-15-13(14,11-2)12-3/h4H2,1-3H3

> <STRUCTURE_InChIKey>
MEBQXILRKZHVCX-UHFFFAOYSA-N

> <Substance_modify_yyyymmdd>
20080429

> <DSSTox_CID_Parent>
819

> <ChemicalReplicateCount>
1

> <Coord_Metals>
0

> <Index>
199

> <Canonical_Smiles>
COC1=NN(CSP(=S)(OC)OC)C(=O)S1

> <Molecular_Weight>
302.3313

> <Frequency>
1

$$$$

  SciTegic          2D

 20 19  0  0  0  0            999 V2000
    1.3000    0.7500    0.0000 C   0  0
    2.6000    0.0000    0.0000 S   0  0
    3.9000    0.7500    0.0000 C   0  0
    3.9031    2.2508    0.0000 C   0  0
    5.2000    0.0000    0.0000 N   0  0
    6.5000    0.7500    0.0000 O   0  0
    7.7999    0.0000    0.0000 C   0  0
    7.7999   -1.2000    0.0000 O   0  0
    9.0999    0.7500    0.0000 N   0  0
   10.3999    0.0000    0.0000 C   0  0
    0.4338    0.2503    0.0000 H   0  0
    1.3000    1.7500    0.0000 H   0  0
    0.4340    1.2501    0.0000 H   0  0
    4.7698    2.7496    0.0000 H   0  0
    3.0379    2.7523    0.0000 H   0  0
    3.9046    3.2508    0.0000 H   0  0
    9.0999    1.7500    0.0000 H   0  0
   11.2661    0.4997    0.0000 H   0  0
   11.2659   -0.5001    0.0000 H   0  0
   10.3999   -1.0000    0.0000 H   0  0
  1  2  1  0
  2  3  1  0
  3  4  1  0
  3  5  2  0
  5  6  1  0
  6  7  1  0
  7  8  2  0
  7  9  1  0
  9 10  1  0
  1 11  1  0
  1 12  1  0
  1 13  1  0
  4 14  1  0
  4 15  1  0
  4 16  1  0
  9 17  1  0
 10 18  1  0
 10 19  1  0
 10 20  1  0
M  END
> <DSSTox_RID>
40521

> <DSSTox_CID>
2267

> <DSSTox_Generic_SID>
22267

> <DSSTox_FileID>
200_TOXCST_v3a

> <STRUCTURE_Formula>
C5H10N2O2S

> <STRUCTURE_MolecularWeight>
162.2101

> <STRUCTURE_ChemicalType>
defined organic

> <STRUCTURE_TestedForm_DefinedOrganic>
parent

> <STRUCTURE_Shown>
tested chemical

> <TestSubstance_ChemicalName>
Methomyl

> <Source_ChemicalName>
Methomyl

> <TestSubstance_CASRN>
16752-77-5

> <TestSubstance_Description>
single chemical compound

> <ChemicalNote>
stereochem

> <STRUCTURE_ChemicalName_IUPAC>
methyl (1E)-N-{[(methylamino)carbonyl]oxy}ethanimidothioate

> <STRUCTURE_SMILES>
CSC(C)=NOC(=O)NC

> <STRUCTURE_Parent_SMILES>
CSC(C)=NOC(=O)NC

> <STRUCTURE_InChI>
InChI=1S/C5H10N2O2S/c1-4(10-3)7-9-5(8)6-2/h1-3H3,(H,6,8)/b7-4+

> <STRUCTURE_InChIKey>
UHXUZOCRWCRNSJ-QPJJXVBHSA-N

> <Substance_modify_yyyymmdd>
20080429

> <DSSTox_CID_Parent>
2267

> <ChemicalReplicateCount>
1

> <Coord_Metals>
0

> <Index>
200

> <Canonical_Smiles>
CNC(=O)ON=C(C)SC

> <Molecular_Weight>
162.21009

> <Frequency>
1

$$$$

  SciTegic          2D

 36 37  0  0  0  0            999 V2000
    1.5593   -3.6015    0.0000 Cl  0  0
    2.5983   -3.0012    0.0000 C   0  0
    2.5988   -1.5004    0.0000 C   0  0
    1.2990   -0.7500    0.0000 C   0  0
    1.2990    0.7500    0.0000 C   0  0
    0.0000    1.5000    0.0000 C   0  0
   -1.2990    0.7500    0.0000 C   0  0
   -1.2990   -0.7500    0.0000 C   0  0
    0.0000   -1.5000    0.0000 C   0  0
   -2.6003    1.4977    0.0000 O   0  0
   -3.8990    0.7455    0.0000 C   0  0
    3.8990   -0.7508    0.0000 C   0  0
    5.1976   -1.5016    0.0000 C   0  0
    6.4971   -0.7525    0.0000 C   0  0
    6.4980    0.7475    0.0000 C   0  0
    5.1995    1.4984    0.0000 C   0  0
    3.9000    0.7492    0.0000 C   0  0
    7.7967    1.4998    0.0000 O   0  0
    7.7955    3.0006    0.0000 C   0  0
    2.5985   -4.2012    0.0000 Cl  0  0
    3.6376   -3.6012    0.0000 Cl  0  0
    2.5991   -0.5004    0.0000 H   0  0
    2.1651    1.2500    0.0000 H   0  0
    0.0000    2.5000    0.0000 H   0  0
   -2.1651   -1.2500    0.0000 H   0  0
    0.0000   -2.5000    0.0000 H   0  0
   -4.7661    1.2437    0.0000 H   0  0
   -3.8973   -0.2545    0.0000 H   0  0
   -4.7641    0.2438    0.0000 H   0  0
    5.1970   -2.5016    0.0000 H   0  0
    7.3628   -1.2530    0.0000 H   0  0
    5.2001    2.4984    0.0000 H   0  0
    3.0343    1.2497    0.0000 H   0  0
    8.6609    3.5019    0.0000 H   0  0
    6.9290    3.4997    0.0000 H   0  0
    7.7943    4.0006    0.0000 H   0  0
  1  2  1  0
  2  3  1  0
  2 20  1  0
  2 21  1  0
  3  4  1  0
  3 12  1  0
  4  5  2  0
  4  9  1  0
  5  6  1  0
  6  7  2  0
  7  8  1  0
  7 10  1  0
  8  9  2  0
 10 11  1  0
 12 13  2  0
 12 17  1  0
 13 14  1  0
 14 15  2  0
 15 16  1  0
 15 18  1  0
 16 17  2  0
 18 19  1  0
  3 22  1  0
  5 23  1  0
  6 24  1  0
  8 25  1  0
  9 26  1  0
 11 27  1  0
 11 28  1  0
 11 29  1  0
 13 30  1  0
 14 31  1  0
 16 32  1  0
 17 33  1  0
 19 34  1  0
 19 35  1  0
 19 36  1  0
M  END
> <DSSTox_RID>
40522

> <DSSTox_CID>
827

> <DSSTox_Generic_SID>
20827

> <DSSTox_FileID>
201_TOXCST_v3a

> <STRUCTURE_Formula>
C16H15Cl3O2

> <STRUCTURE_MolecularWeight>
345.6481

> <STRUCTURE_ChemicalType>
defined organic

> <STRUCTURE_TestedForm_DefinedOrganic>
parent

> <STRUCTURE_Shown>
tested chemical

> <TestSubstance_ChemicalName>
Methoxychlor

> <Source_ChemicalName>
Methoxychlor

> <TestSubstance_CASRN>
72-43-5

> <TestSubstance_Description>
single chemical compound

> <STRUCTURE_ChemicalName_IUPAC>
1,1'-(2,2,2-trichloroethane-1,1-diyl)bis[4-(methyloxy)benzene]

> <STRUCTURE_SMILES>
ClC(C(C1=CC=C(C=C1)OC)C2=CC=C(C=C2)OC)(Cl)Cl

> <STRUCTURE_Parent_SMILES>
ClC(C(C1=CC=C(C=C1)OC)C2=CC=C(C=C2)OC)(Cl)Cl

> <STRUCTURE_InChI>
InChI=1S/C16H15Cl3O2/c1-20-13-7-3-11(4-8-13)15(16(17,18)19)12-5-9-14(21-2)10-6-12/h3-10,15H,1-2H3

> <STRUCTURE_InChIKey>
IAKOZHOLGAGEJT-UHFFFAOYSA-N

> <Substance_modify_yyyymmdd>
20080429

> <DSSTox_CID_Parent>
827

> <ChemicalReplicateCount>
1

> <Relationship_CID>
parent0 of HPTE metabolite 2325

> <Coord_Metals>
0

> <Index>
201

> <Canonical_Smiles>
COc1ccc(cc1)C(c2ccc(OC)cc2)C(Cl)(Cl)Cl

> <Molecular_Weight>
345.6481

> <Frequency>
1

$$$$

  SciTegic          2D

 55 56  0  0  0  0            999 V2000
    0.8383   -5.6922    0.0000 C   0  0
    0.4252   -6.8188    0.0000 O   0  0
   -0.1240   -4.5405    0.0000 C   0  0
   -1.6023   -4.7949    0.0000 C   0  0
    0.3948   -3.1331    0.0000 C   0  0
   -2.5617   -3.6418    0.0000 C   0  0
   -0.5646   -1.9800    0.0000 C   0  0
   -2.0429   -2.2344    0.0000 C   0  0
   -4.0414   -3.8933    0.0000 O   0  0
   -4.9997   -2.7383    0.0000 C   0  0
   -2.1214   -6.2031    0.0000 C   0  0
    2.3170   -5.4355    0.0000 N   0  0
    3.2794   -6.5872    0.0000 N   0  0
    4.5812   -5.8403    0.0000 C   0  0
    5.6186   -6.4434    0.0000 O   0  0
    4.5861   -4.3395    0.0000 C   0  0
    3.6282   -3.1852    0.0000 C   0  0
    6.0648   -4.0869    0.0000 C   0  0
    4.1488   -1.7784    0.0000 C   0  0
    6.5854   -2.6801    0.0000 C   0  0
    5.6274   -1.5259    0.0000 C   0  0
    3.1902   -0.6236    0.0000 C   0  0
    8.0648   -2.4274    0.0000 C   0  0
    3.7893   -7.9987    0.0000 C   0  0
    3.4397   -9.5073    0.0000 C   0  0
    2.5561   -7.0620    0.0000 C   0  0
    5.2672   -8.2626    0.0000 C   0  0
    1.3803   -2.9635    0.0000 H   0  0
   -0.2188   -1.0418    0.0000 H   0  0
   -2.6825   -1.4657    0.0000 H   0  0
   -5.9855   -2.9059    0.0000 H   0  0
   -4.6522   -1.8006    0.0000 H   0  0
   -5.6378   -1.9684    0.0000 H   0  0
   -1.4823   -6.9722    0.0000 H   0  0
   -3.1070   -6.3723    0.0000 H   0  0
   -2.4678   -7.1412    0.0000 H   0  0
    2.6613   -4.4967    0.0000 H   0  0
    2.6425   -3.3535    0.0000 H   0  0
    6.7035   -4.8563    0.0000 H   0  0
    5.9744   -0.5880    0.0000 H   0  0
    2.2044   -0.7913    0.0000 H   0  0
    3.5376    0.3142    0.0000 H   0  0
    2.5519    0.1462    0.0000 H   0  0
    8.7039   -3.1965    0.0000 H   0  0
    8.4115   -1.4894    0.0000 H   0  0
    9.0504   -2.2586    0.0000 H   0  0
    4.2041  -10.1521    0.0000 H   0  0
    3.2510  -10.4893    0.0000 H   0  0
    2.4908   -9.8229    0.0000 H   0  0
    2.7317   -6.0776    0.0000 H   0  0
    1.7833   -6.4274    0.0000 H   0  0
    1.6246   -7.4258    0.0000 H   0  0
    5.6077   -9.2029    0.0000 H   0  0
    5.9114   -7.4978    0.0000 H   0  0
    6.2517   -8.4380    0.0000 H   0  0
  1  2  2  0
  1  3  1  0
  1 12  1  0
  3  4  2  0
  3  5  1  0
  4  6  1  0
  4 11  1  0
  5  7  2  0
  6  8  2  0
  6  9  1  0
  7  8  1  0
  9 10  1  0
 12 13  1  0
 13 14  1  0
 13 24  1  0
 14 15  2  0
 14 16  1  0
 16 17  2  0
 16 18  1  0
 17 19  1  0
 18 20  2  0
 19 21  2  0
 19 22  1  0
 20 21  1  0
 20 23  1  0
 24 25  1  0
 24 26  1  0
 24 27  1  0
  5 28  1  0
  7 29  1  0
  8 30  1  0
 10 31  1  0
 10 32  1  0
 10 33  1  0
 11 34  1  0
 11 35  1  0
 11 36  1  0
 12 37  1  0
 17 38  1  0
 18 39  1  0
 21 40  1  0
 22 41  1  0
 22 42  1  0
 22 43  1  0
 23 44  1  0
 23 45  1  0
 23 46  1  0
 25 47  1  0
 25 48  1  0
 25 49  1  0
 26 50  1  0
 26 51  1  0
 26 52  1  0
 27 53  1  0
 27 54  1  0
 27 55  1  0
M  END
> <DSSTox_RID>
40523

> <DSSTox_CID>
12628

> <DSSTox_Generic_SID>
32628

> <DSSTox_FileID>
202_TOXCST_v3a

> <STRUCTURE_Formula>
C22H28N2O3

> <STRUCTURE_MolecularWeight>
368.4693

> <STRUCTURE_ChemicalType>
defined organic

> <STRUCTURE_TestedForm_DefinedOrganic>
parent

> <STRUCTURE_Shown>
tested chemical

> <TestSubstance_ChemicalName>
Methoxyfenozide

> <Source_ChemicalName>
Methoxyfenozide

> <TestSubstance_CASRN>
161050-58-4

> <TestSubstance_Description>
single chemical compound

> <STRUCTURE_ChemicalName_IUPAC>
N'-tert-butyl-N'-(3,5-dimethylbenzoyl)-3-methoxy-2-methylbenzohydrazide

> <STRUCTURE_SMILES>
O=C(NN(C(C)(C)C)C(C2=CC(C)=CC(C)=C2)=O)C1=C(C)C(OC)=CC=C1

> <STRUCTURE_Parent_SMILES>
O=C(NN(C(C)(C)C)C(C2=CC(C)=CC(C)=C2)=O)C1=C(C)C(OC)=CC=C1

> <STRUCTURE_InChI>
InChI=1S/C22H28N2O3/c1-14-11-15(2)13-17(12-14)21(26)24(22(4,5)6)23-20(25)18-9-8-10-19(27-7)16(18)3/h8-13H,1-7H3,(H,23,25)

> <STRUCTURE_InChIKey>
QCAWEPFNJXQPAN-UHFFFAOYSA-N

> <Substance_modify_yyyymmdd>
20080429

> <DSSTox_CID_Parent>
12628

> <ChemicalReplicateCount>
1

> <Coord_Metals>
0

> <Index>
202

> <Canonical_Smiles>
COc1cccc(C(=O)NN(C(=O)c2cc(C)cc(C)c2)C(C)(C)C)c1C

> <Molecular_Weight>
368.46932

> <Frequency>
1

$$$$

  SciTegic          2D

 13 12  0  0  0  0            999 V2000
    1.3000    0.7500    0.0000 C   0  0
    2.6000    0.0000    0.0000 O   0  0
    3.9000    0.7500    0.0000 C   0  0
    5.2000    0.0000    0.0000 C   0  0
    6.5000    0.7500    0.0000 O   0  0
    0.4338    0.2503    0.0000 H   0  0
    1.3000    1.7500    0.0000 H   0  0
    0.4340    1.2501    0.0000 H   0  0
    3.9000    1.7500    0.0000 H   0  0
    3.0340    1.2501    0.0000 H   0  0
    5.2000   -1.0000    0.0000 H   0  0
    6.0659   -0.5001    0.0000 H   0  0
    7.3661    0.2503    0.0000 H   0  0
  1  2  1  0
  2  3  1  0
  3  4  1  0
  4  5  1  0
  1  6  1  0
  1  7  1  0
  1  8  1  0
  3  9  1  0
  3 10  1  0
  4 11  1  0
  4 12  1  0
  5 13  1  0
M  END
> <DSSTox_RID>
40449

> <DSSTox_CID>
4182

> <DSSTox_Generic_SID>
24182

> <DSSTox_FileID>
203_TOXCST_v3a

> <STRUCTURE_Formula>
C3H8O2

> <STRUCTURE_MolecularWeight>
76.0944

> <STRUCTURE_ChemicalType>
defined organic

> <STRUCTURE_TestedForm_DefinedOrganic>
parent

> <STRUCTURE_Shown>
tested chemical

> <TestSubstance_ChemicalName>
2-Methoxyethanol

> <Source_ChemicalName>
Methyl cellusolve

> <TestSubstance_CASRN>
109-86-4

> <TestSubstance_Description>
single chemical compound

> <STRUCTURE_ChemicalName_IUPAC>
2-methoxyethanol

> <STRUCTURE_SMILES>
OCCOC

> <STRUCTURE_Parent_SMILES>
OCCOC

> <STRUCTURE_InChI>
InChI=1S/C3H8O2/c1-5-3-2-4/h4H,2-3H2,1H3

> <STRUCTURE_InChIKey>
XNWFRZJHXBZDAG-UHFFFAOYSA-N

> <Substance_modify_yyyymmdd>
20080429

> <DSSTox_CID_Parent>
4182

> <ChemicalReplicateCount>
1

> <Coord_Metals>
0

> <Index>
203

> <Canonical_Smiles>
COCCO

> <Molecular_Weight>
76.09442

> <Frequency>
1

$$$$

  SciTegic          2D

 21 21  0  0  0  0            999 V2000
    1.2990   -0.7500    0.0000 C   0  0
    1.2990    0.7500    0.0000 C   0  0
    2.5973   -1.5031    0.0000 C   0  0
    2.5972    1.5031    0.0000 C   0  0
    3.6375   -0.9049    0.0000 O   0  0
    3.6375    0.9049    0.0000 O   0  0
    2.5951   -3.0039    0.0000 O   0  0
    2.5951    3.0039    0.0000 O   0  0
    0.0000   -1.5000    0.0000 C   0  0
    0.0000    1.5000    0.0000 C   0  0
   -1.2990   -0.7500    0.0000 C   0  0
   -1.2990    0.7500    0.0000 C   0  0
    3.8933   -3.7570    0.0000 C   0  0
    3.4601    3.5057    0.0000 H   0  0
    0.0000   -2.5000    0.0000 H   0  0
    0.0000    2.5000    0.0000 H   0  0
   -2.1651   -1.2500    0.0000 H   0  0
   -2.1651    1.2500    0.0000 H   0  0
    3.8919   -4.7570    0.0000 H   0  0
    4.7586   -4.2584    0.0000 H   0  0
    4.7602   -3.2585    0.0000 H   0  0
  1  2  2  0
  1  3  1  0
  1  9  1  0
  2  4  1  0
  2 10  1  0
  3  5  2  0
  3  7  1  0
  4  6  2  0
  4  8  1  0
  7 13  1  0
  9 11  2  0
 10 12  2  0
 11 12  1  0
  8 14  1  0
  9 15  1  0
 10 16  1  0
 11 17  1  0
 12 18  1  0
 13 19  1  0
 13 20  1  0
 13 21  1  0
M  END
> <DSSTox_RID>
40533

> <DSSTox_CID>
20001

> <DSSTox_Generic_SID>
40001

> <DSSTox_FileID>
204_TOXCST_v3a

> <STRUCTURE_Formula>
C9H8O4

> <STRUCTURE_MolecularWeight>
180.1574

> <STRUCTURE_ChemicalType>
defined organic

> <STRUCTURE_TestedForm_DefinedOrganic>
parent

> <STRUCTURE_Shown>
tested chemical

> <TestSubstance_ChemicalName>
Monomethyl phthalate

> <Source_ChemicalName>
Methyl hydrogen phthalate

> <TestSubstance_CASRN>
4376-18-5

> <TestSubstance_Description>
single chemical compound

> <STRUCTURE_ChemicalName_IUPAC>
2-(methoxycarbonyl)benzoic acid

> <STRUCTURE_SMILES>
O=C(OC)C(C=CC=C1)=C1C(O)=O

> <STRUCTURE_Parent_SMILES>
O=C(OC)C(C=CC=C1)=C1C(O)=O

> <STRUCTURE_InChI>
InChI=1S/C9H8O4/c1-13-9(12)7-5-3-2-4-6(7)8(10)11/h2-5H,1H3,(H,10,11)

> <STRUCTURE_InChIKey>
FNJSWIPFHMKRAT-UHFFFAOYSA-N

> <Substance_modify_yyyymmdd>
20080429

> <DSSTox_CID_Parent>
20001

> <ChemicalReplicateCount>
1

> <Relationship_CID>
metabolite of parent0 2455

> <Coord_Metals>
0

> <Index>
204

> <Canonical_Smiles>
COC(=O)c1ccccc1C(=O)O

> <Molecular_Weight>
180.15741

> <Frequency>
1

$$$$

  SciTegic          2D

  7  6  0  0  0  0            999 V2000
    3.9000    0.7500    0.0000 C   0  0
    1.3000    0.7500    0.0000 C   0  0
    2.6000    1.5000    0.0000 N   0  0
    0.2606    0.1503    0.0000 S   0  0
    4.7662    1.2497    0.0000 H   0  0
    3.9000   -0.2500    0.0000 H   0  0
    4.7659    0.2499    0.0000 H   0  0
  1  3  1  0
  2  3  2  0
  2  4  2  0
  1  5  1  0
  1  6  1  0
  1  7  1  0
M  END
> <DSSTox_RID>
40517

> <DSSTox_CID>
7204

> <DSSTox_Generic_SID>
27204

> <DSSTox_FileID>
205_TOXCST_v3a

> <STRUCTURE_Formula>
C2H3NS

> <STRUCTURE_MolecularWeight>
73.1169

> <STRUCTURE_ChemicalType>
defined organic

> <STRUCTURE_TestedForm_DefinedOrganic>
parent

> <STRUCTURE_Shown>
tested chemical

> <TestSubstance_ChemicalName>
Methyl isothiocyanate

> <Source_ChemicalName>
Methyl isothiocyanate

> <TestSubstance_CASRN>
556-61-6

> <TestSubstance_Description>
single chemical compound

> <STRUCTURE_ChemicalName_IUPAC>
(methylimino)(thioxo)methane

> <STRUCTURE_SMILES>
S=C=NC

> <STRUCTURE_Parent_SMILES>
S=C=NC

> <STRUCTURE_InChI>
InChI=1S/C2H3NS/c1-3-2-4/h1H3

> <STRUCTURE_InChIKey>
LGDSHSYDSCRFAB-UHFFFAOYSA-N

> <Substance_modify_yyyymmdd>
20080429

> <DSSTox_CID_Parent>
7204

> <ChemicalReplicateCount>
1

> <Relationship_CID>
metabolite of parent0 20361

> <Coord_Metals>
0

> <Index>
205

> <Canonical_Smiles>
CN=C=S

> <Molecular_Weight>
73.11692

> <Frequency>
1

$$$$

  SciTegic          2D

  9  8  0  0  0  0            999 V2000
    3.9000    0.7500    0.0000 C   0  0
    2.6000    1.5000    0.0000 S   0  0
    1.3000    0.7500    0.0000 C   0  0
    0.2606    0.1503    0.0000 N   0  0
    5.2000    1.5000    0.0000 S   0  0
    6.5000    0.7500    0.0000 C   0  0
    7.5394    0.1503    0.0000 N   0  0
    3.9000   -0.2500    0.0000 H   0  0
    3.0340    0.2499    0.0000 H   0  0
  1  2  1  0
  1  5  1  0
  2  3  1  0
  3  4  3  0
  5  6  1  0
  6  7  3  0
  1  8  1  0
  1  9  1  0
M  END
> <DSSTox_RID>
40526

> <DSSTox_CID>
5599

> <DSSTox_Generic_SID>
25599

> <DSSTox_FileID>
206_TOXCST_v3a

> <STRUCTURE_Formula>
C3H2N2S2

> <STRUCTURE_MolecularWeight>
130.1914

> <STRUCTURE_ChemicalType>
defined organic

> <STRUCTURE_TestedForm_DefinedOrganic>
parent

> <STRUCTURE_Shown>
tested chemical

> <TestSubstance_ChemicalName>
Methylene bis(thiocyanate)

> <Source_ChemicalName>
Methylene bis(thiocyanate)

> <TestSubstance_CASRN>
6317-18-6

> <TestSubstance_Description>
single chemical compound

> <STRUCTURE_ChemicalName_IUPAC>
methylene bis(thiocyanate)

> <STRUCTURE_SMILES>
C(SC#N)SC#N

> <STRUCTURE_Parent_SMILES>
C(SC#N)SC#N

> <STRUCTURE_InChI>
InChI=1S/C3H2N2S2/c4-1-6-3-7-2-5/h3H2

> <STRUCTURE_InChIKey>
JWZXKXIUSSIAMR-UHFFFAOYSA-N

> <Substance_modify_yyyymmdd>
20080429

> <DSSTox_CID_Parent>
5599

> <ChemicalReplicateCount>
1

> <Coord_Metals>
0

> <Index>
206

> <Canonical_Smiles>
N#CSCSC#N

> <Molecular_Weight>
130.19137

> <Frequency>
1

$$$$

  SciTegic          2D

 41 41  0  0  0  0            999 V2000
    2.2614   -1.9017    0.0000 N   0  0
    1.2990   -0.7500    0.0000 C   0  0
    1.2990    0.7500    0.0000 C   0  0
    0.0000    1.5000    0.0000 C   0  0
   -1.2990    0.7500    0.0000 C   0  0
   -1.2990   -0.7500    0.0000 C   0  0
    0.0000   -1.5000    0.0000 C   0  0
   -0.5133   -2.9103    0.0000 C   0  0
   -1.9912   -3.1719    0.0000 C   0  0
    2.5988    1.5004    0.0000 C   0  0
    2.2547   -3.4025    0.0000 C   0  0
    1.2127   -3.9976    0.0000 O   0  0
    2.7609   -4.8154    0.0000 C   0  0
    1.9855   -5.7312    0.0000 Cl  0  0
    3.7387   -2.1663    0.0000 C   0  0
    4.2491   -3.5776    0.0000 C   0  0
    5.7264   -3.8422    0.0000 O   0  0
    6.2369   -5.2536    0.0000 C   0  0
    4.7061   -1.0189    0.0000 C   0  0
    0.0000    2.5000    0.0000 H   0  0
   -2.1651    1.2500    0.0000 H   0  0
   -2.1651   -1.2500    0.0000 H   0  0
    0.1297   -3.6762    0.0000 H   0  0
    0.4715   -2.7365    0.0000 H   0  0
   -2.3332   -4.1116    0.0000 H   0  0
   -2.6342   -2.4060    0.0000 H   0  0
   -2.9759   -3.3457    0.0000 H   0  0
    3.4651    1.0010    0.0000 H   0  0
    2.5985    2.5004    0.0000 H   0  0
    3.4646    2.0008    0.0000 H   0  0
    3.0986   -5.7566    0.0000 H   0  0
    3.7449   -4.9937    0.0000 H   0  0
    3.0941   -2.9308    0.0000 H   0  0
    3.6045   -4.3422    0.0000 H   0  0
    4.5888   -4.5182    0.0000 H   0  0
    7.2212   -5.4299    0.0000 H   0  0
    5.5923   -6.0181    0.0000 H   0  0
    6.5765   -6.1941    0.0000 H   0  0
    4.3669   -0.0782    0.0000 H   0  0
    5.6904   -1.1952    0.0000 H   0  0
    5.3511   -0.2547    0.0000 H   0  0
  1  2  1  0
  1 11  1  0
  1 15  1  0
  2  3  1  0
  2  7  2  0
  3  4  2  0
  3 10  1  0
  4  5  1  0
  5  6  2  0
  6  7  1  0
  7  8  1  0
  8  9  1  0
 11 12  2  0
 11 13  1  0
 13 14  1  0
 15 16  1  0
 15 19  1  0
 16 17  1  0
 17 18  1  0
  4 20  1  0
  5 21  1  0
  6 22  1  0
  8 23  1  0
  8 24  1  0
  9 25  1  0
  9 26  1  0
  9 27  1  0
 10 28  1  0
 10 29  1  0
 10 30  1  0
 13 31  1  0
 13 32  1  0
 15 33  1  0
 16 34  1  0
 16 35  1  0
 18 36  1  0
 18 37  1  0
 18 38  1  0
 19 39  1  0
 19 40  1  0
 19 41  1  0
M  END
> <DSSTox_RID>
40528

> <DSSTox_CID>
2448

> <DSSTox_Generic_SID>
22448

> <DSSTox_FileID>
208_TOXCST_v3a

> <STRUCTURE_Formula>
C15H22ClNO2

> <STRUCTURE_MolecularWeight>
283.7937

> <STRUCTURE_ChemicalType>
defined organic

> <STRUCTURE_TestedForm_DefinedOrganic>
parent

> <STRUCTURE_Shown>
tested chemical

> <TestSubstance_ChemicalName>
Metolachlor

> <Source_ChemicalName>
Metolachlor

> <TestSubstance_CASRN>
51218-45-2

> <TestSubstance_Description>
single chemical compound

> <STRUCTURE_ChemicalName_IUPAC>
2-chloro-N-(2-ethyl-6-methylphenyl)-N-(2-methoxy-1-methylethyl)acetamide

> <STRUCTURE_SMILES>
N(C1C(=CC=CC=1CC)C)(C(=O)CCl)C(COC)C

> <STRUCTURE_Parent_SMILES>
N(C1C(=CC=CC=1CC)C)(C(=O)CCl)C(COC)C

> <STRUCTURE_InChI>
InChI=1S/C15H22ClNO2/c1-5-13-8-6-7-11(2)15(13)17(14(18)9-16)12(3)10-19-4/h6-8,12H,5,9-10H2,1-4H3

> <STRUCTURE_InChIKey>
WVQBLGZPHOPPFO-UHFFFAOYSA-N

> <Substance_modify_yyyymmdd>
20080429

> <DSSTox_CID_Parent>
2448

> <ChemicalReplicateCount>
1

> <Coord_Metals>
0

> <Index>
208

> <Canonical_Smiles>
CCc1cccc(C)c1N(C(C)COC)C(=O)CCl

> <Molecular_Weight>
283.79368

> <Frequency>
1

$$$$

  SciTegic          2D

 28 28  0  0  0  0            999 V2000
    1.2990   -0.7500    0.0000 N   0  0
    1.2990    0.7500    0.0000 C   0  0
    0.0000    1.5000    0.0000 C   0  0
    0.0000   -1.5000    0.0000 C   0  0
   -1.2990    0.7500    0.0000 N   0  0
   -1.2990   -0.7500    0.0000 N   0  0
    0.5133    2.9103    0.0000 C   0  0
    2.3383    1.3500    0.0000 O   0  0
    2.5973   -1.5031    0.0000 N   0  0
   -0.0031   -3.0008    0.0000 S   0  0
   -0.4507    4.0606    0.0000 C   0  0
    1.9913    3.1705    0.0000 C   0  0
   -0.9930    2.6423    0.0000 C   0  0
   -1.3039   -3.7494    0.0000 C   0  0
    2.5958   -2.5031    0.0000 H   0  0
    3.4642   -1.0046    0.0000 H   0  0
   -0.1087    5.0003    0.0000 H   0  0
   -1.4356    3.8873    0.0000 H   0  0
   -1.0934    4.8268    0.0000 H   0  0
    2.3342    4.1098    0.0000 H   0  0
    2.6336    2.4040    0.0000 H   0  0
    2.9763    3.3433    0.0000 H   0  0
   -1.3341    1.7023    0.0000 H   0  0
   -1.9776    2.4676    0.0000 H   0  0
   -1.6368    3.4075    0.0000 H   0  0
   -1.3060   -4.7494    0.0000 H   0  0
   -2.1691   -3.2479    0.0000 H   0  0
   -2.1709   -4.2478    0.0000 H   0  0
  1  2  1  0
  1  4  1  0
  1  9  1  0
  2  3  1  0
  2  8  2  0
  3  7  1  0
  3  5  2  0
  4  6  2  0
  4 10  1  0
  5  6  1  0
  7 11  1  0
  7 12  1  0
  7 13  1  0
 10 14  1  0
  9 15  1  0
  9 16  1  0
 11 17  1  0
 11 18  1  0
 11 19  1  0
 12 20  1  0
 12 21  1  0
 12 22  1  0
 13 23  1  0
 13 24  1  0
 13 25  1  0
 14 26  1  0
 14 27  1  0
 14 28  1  0
M  END
> <DSSTox_RID>
40529

> <DSSTox_CID>
4204

> <DSSTox_Generic_SID>
24204

> <DSSTox_FileID>
209_TOXCST_v3a

> <STRUCTURE_Formula>
C8H14N4OS

> <STRUCTURE_MolecularWeight>
214.288

> <STRUCTURE_ChemicalType>
defined organic

> <STRUCTURE_TestedForm_DefinedOrganic>
parent

> <STRUCTURE_Shown>
tested chemical

> <TestSubstance_ChemicalName>
Metribuzin

> <Source_ChemicalName>
Metribuzin

> <TestSubstance_CASRN>
21087-64-9

> <TestSubstance_Description>
single chemical compound

> <STRUCTURE_ChemicalName_IUPAC>
4-amino-6-tert-butyl-3-(methylthio)-1,2,4-triazin-5(4H)-one

> <STRUCTURE_SMILES>
NN1C(=O)/C(=N\N=C1\SC)C(C)(C)C

> <STRUCTURE_Parent_SMILES>
NN1C(=O)/C(=N\N=C1\SC)C(C)(C)C

> <STRUCTURE_InChI>
InChI=1S/C8H14N4OS/c1-8(2,3)5-6(13)12(9)7(14-4)11-10-5/h9H2,1-4H3

> <STRUCTURE_InChIKey>
FOXFZRUHNHCZPX-UHFFFAOYSA-N

> <Substance_modify_yyyymmdd>
20080429

> <DSSTox_CID_Parent>
4204

> <ChemicalReplicateCount>
1

> <Coord_Metals>
0

> <Index>
209

> <Canonical_Smiles>
CSC1=NN=C(C(=O)N1N)C(C)(C)C

> <Molecular_Weight>
214.28795

> <Frequency>
1

$$$$

  SciTegic          2D

 41 42  0  0  0  0            999 V2000
    7.7893   -3.0115    0.0000 O   0  0
    5.4506   -3.1631    0.0000 O   0  0
    6.4900   -3.7627    0.0000 C   0  0
    2.8509   -5.8560    0.0000 O   0  0
    2.8529   -4.6562    0.0000 O   0  0
    1.5548   -3.6021    0.0000 O   0  0
   -1.3039    3.7494    0.0000 C   0  0
    1.2990   -0.7500    0.0000 C   0  0
    1.2990    0.7500    0.0000 N   0  0
    0.0000   -1.5000    0.0000 N   0  0
    0.0000    1.5000    0.0000 C   0  0
   -1.2990   -0.7500    0.0000 C   0  0
   -1.2990    0.7500    0.0000 N   0  0
   -2.5988   -1.5004    0.0000 C   0  0
   -0.0031    3.0008    0.0000 O   0  0
    2.5973   -1.5031    0.0000 N   0  0
    2.5951   -3.0039    0.0000 C   0  0
    3.8933   -3.7570    0.0000 N   0  0
    3.8912   -5.2578    0.0000 S   0  0
    6.4838   -8.2636    0.0000 C   0  0
    7.7844   -7.5162    0.0000 C   0  0
    5.1863   -7.5109    0.0000 C   0  0
    7.7875   -6.0162    0.0000 C   0  0
    5.1894   -6.0109    0.0000 C   0  0
    6.4900   -5.2636    0.0000 C   0  0
    7.7893   -1.5107    0.0000 C   0  0
   -1.3060    4.7494    0.0000 H   0  0
   -2.1691    3.2479    0.0000 H   0  0
   -2.1709    4.2477    0.0000 H   0  0
   -2.5994   -2.5004    0.0000 H   0  0
   -3.4647   -1.0002    0.0000 H   0  0
   -3.4650   -2.0000    0.0000 H   0  0
    3.4642   -1.0046    0.0000 H   0  0
    4.7602   -3.2585    0.0000 H   0  0
    6.4817   -9.2636    0.0000 H   0  0
    8.6494   -8.0180    0.0000 H   0  0
    4.3193   -8.0091    0.0000 H   0  0
    8.6545   -5.5180    0.0000 H   0  0
    8.6550   -1.0101    0.0000 H   0  0
    7.7888   -0.5107    0.0000 H   0  0
    6.9231   -1.0109    0.0000 H   0  0
  1  3  1  0
  1 26  1  0
  2  3  2  0
  3 25  1  0
  4 19  2  0
  5 19  2  0
  6 17  2  0
  7 15  1  0
  8  9  2  0
  8 10  1  0
  8 16  1  0
  9 11  1  0
 10 12  2  0
 11 13  2  0
 11 15  1  0
 12 13  1  0
 12 14  1  0
 16 17  1  0
 17 18  1  0
 18 19  1  0
 19 24  1  0
 20 21  1  0
 20 22  2  0
 21 23  2  0
 22 24  1  0
 23 25  1  0
 24 25  2  0
  7 27  1  0
  7 28  1  0
  7 29  1  0
 14 30  1  0
 14 31  1  0
 14 32  1  0
 16 33  1  0
 18 34  1  0
 20 35  1  0
 21 36  1  0
 22 37  1  0
 23 38  1  0
 26 39  1  0
 26 40  1  0
 26 41  1  0
M  END
> <DSSTox_RID>
40341

> <DSSTox_CID>
3864

> <DSSTox_Generic_SID>
23864

> <DSSTox_FileID>
210_TOXCST_v3a

> <STRUCTURE_Formula>
C14H15N5O6S

> <STRUCTURE_MolecularWeight>
381.3638

> <STRUCTURE_ChemicalType>
defined organic

> <STRUCTURE_TestedForm_DefinedOrganic>
parent

> <STRUCTURE_Shown>
tested chemical

> <TestSubstance_ChemicalName>
Metsulfuron-methyl

> <Source_ChemicalName>
Metsulfuron-methyl

> <TestSubstance_CASRN>
74223-64-6

> <TestSubstance_Description>
single chemical compound

> <STRUCTURE_ChemicalName_IUPAC>
methyl 2-[({[(4-methoxy-6-methyl-1,3,5-triazin-2-yl)amino]carbonyl}amino)sulfonyl]benzoate

> <STRUCTURE_SMILES>
Cc2nc(NC(=O)NS(=O)(=O)c1ccccc1C(=O)OC)nc(OC)n2

> <STRUCTURE_Parent_SMILES>
Cc2nc(NC(=O)NS(=O)(=O)c1ccccc1C(=O)OC)nc(OC)n2

> <STRUCTURE_InChI>
InChI=1S/C14H15N5O6S/c1-8-15-12(18-14(16-8)25-3)17-13(21)19-26(22,23)10-7-5-4-6-9(10)11(20)24-2/h4-7H,1-3H3,(H2,15,16,17,18,19,21)

> <STRUCTURE_InChIKey>
RSMUVYRMZCOLBH-UHFFFAOYSA-N

> <Substance_modify_yyyymmdd>
20080429

> <DSSTox_CID_Parent>
3864

> <ChemicalReplicateCount>
1

> <Coord_Metals>
0

> <Index>
210

> <Canonical_Smiles>
COC(=O)c1ccccc1S(=O)(=O)NC(=O)Nc2nc(C)nc(OC)n2

> <Molecular_Weight>
381.3638

> <Frequency>
1

$$$$

  SciTegic          2D

 27 26  0  0  0  0            999 V2000
    9.0999    0.7500    0.0000 C   0  0
    7.7999    0.0000    0.0000 C   0  0
    6.5000    0.7500    0.0000 C   0  0
    6.4969    2.2508    0.0000 C   0  0
    9.0999    1.9500    0.0000 O   0  0
   10.3999    0.0000    0.0000 O   0  0
    5.2000    0.0000    0.0000 O   0  0
    5.1985   -1.5008    0.0000 P   0  0
    4.1585   -2.0995    0.0000 O   0  0
    6.4971   -2.2533    0.0000 O   0  0
    6.4957   -3.7541    0.0000 C   0  0
    3.8734   -0.7360    0.0000 O   0  0
    2.5733   -1.4859    0.0000 C   0  0
   11.6999    0.7500    0.0000 C   0  0
    7.7999   -1.0000    0.0000 H   0  0
    5.6301    2.7496    0.0000 H   0  0
    7.3620    2.7523    0.0000 H   0  0
    6.4953    3.2508    0.0000 H   0  0
    7.3609   -4.2555    0.0000 H   0  0
    5.6290   -4.2530    0.0000 H   0  0
    6.4942   -4.7541    0.0000 H   0  0
    1.7072   -0.9860    0.0000 H   0  0
    2.5732   -2.4859    0.0000 H   0  0
    1.7073   -1.9859    0.0000 H   0  0
   12.5661    0.2503    0.0000 H   0  0
   11.6999    1.7500    0.0000 H   0  0
   12.5659    1.2501    0.0000 H   0  0
  2  1  1  0
  1  6  1  0
  1  5  2  0
  2  3  2  0
  3  4  1  0
  3  7  1  0
  6 14  1  0
  7  8  1  0
  8  9  2  0
  8 10  1  0
  8 12  1  0
 10 11  1  0
 12 13  1  0
  2 15  1  0
  4 16  1  0
  4 17  1  0
  4 18  1  0
 11 19  1  0
 11 20  1  0
 11 21  1  0
 13 22  1  0
 13 23  1  0
 13 24  1  0
 14 25  1  0
 14 26  1  0
 14 27  1  0
M  END
> <DSSTox_RID>
40312

> <DSSTox_CID>
12683

> <DSSTox_Generic_SID>
32683

> <DSSTox_FileID>
211_TOXCST_v3a

> <STRUCTURE_Formula>
C7H13O6P

> <STRUCTURE_MolecularWeight>
224.1483

> <STRUCTURE_ChemicalType>
defined organic

> <STRUCTURE_TestedForm_DefinedOrganic>
parent

> <STRUCTURE_Shown>
representative isomer in mixture

> <TestSubstance_ChemicalName>
Mevinphos

> <Source_ChemicalName>
Mevinphos

> <TestSubstance_CASRN>
7786-34-7

> <TestSubstance_Description>
mixture or formulation

> <ChemicalNote>
mixture of Z,E isomers structure shown E, stereochem

> <STRUCTURE_ChemicalName_IUPAC>
methyl (2E)-3-[(dimethoxyphosphoryl)oxy]but-2-enoate

> <STRUCTURE_SMILES>
O=C(OC)\C=C(OP(OC)(OC)=O)/C

> <STRUCTURE_Parent_SMILES>
O=C(OC)\C=C(OP(OC)(OC)=O)/C

> <STRUCTURE_InChI>
InChI=1S/C7H13O6P/c1-6(5-7(8)10-2)13-14(9,11-3)12-4/h5H,1-4H3/b6-5+

> <STRUCTURE_InChIKey>
GEPDYQSQVLXLEU-AATRIKPKSA-N

> <Substance_modify_yyyymmdd>
20080429

> <DSSTox_CID_Parent>
12683

> <ChemicalReplicateCount>
1

> <Coord_Metals>
0

> <Index>
211

> <Canonical_Smiles>
COC(=O)C=C(C)OP(=O)(OC)OC

> <Molecular_Weight>
224.14828

> <Frequency>
1

$$$$

  SciTegic          2D

 45 47  0  0  0  0            999 V2000
    3.2979    0.6813    0.0000 O   0  0
    2.3100    0.0000    0.0000 C   0  0
    0.8400    0.0700    0.0000 C   0  0
    0.3800   -0.8300    0.0000 C   0  0
   -1.0500    0.0000    0.0000 C   0  0
   -0.7400    2.2000    0.0000 C   0  0
   -0.5200    0.8600    0.0000 C   0  0
   -2.1300    0.2400    0.0000 C   0  0
   -2.6500   -0.7400    0.0000 C   0  0
    1.2900   -1.8600    0.0000 C   0  0
    1.1180   -3.0476    0.0000 O   0  0
    2.4400   -1.2900    0.0000 N   0  0
    3.7895   -1.9405    0.0000 C   0  0
    5.0307   -1.0967    0.0000 C   0  0
    4.9216    0.4001    0.0000 C   0  0
    6.1628    1.2439    0.0000 C   0  0
    6.0536    2.7407    0.0000 C   0  0
    7.2948    3.5844    0.0000 C   0  0
    6.3817   -1.7502    0.0000 C   0  0
    6.4923   -3.2469    0.0000 C   0  0
    1.3303    0.9416    0.0000 H   0  0
   -0.1050   -1.7045    0.0000 H   0  0
   -1.5163   -0.8846    0.0000 H   0  0
   -1.5675    2.7614    0.0000 H   0  0
    0.0977    2.7461    0.0000 H   0  0
    0.3048    1.4254    0.0000 H   0  0
   -3.0738    0.5707    0.0000 H   0  0
   -3.4199   -1.3781    0.0000 H   0  0
    2.9628   -2.5031    0.0000 H   0  0
    3.8632   -2.9378    0.0000 H   0  0
    4.1305   -0.6613    0.0000 H   0  0
    4.0213    0.8355    0.0000 H   0  0
    4.0943   -0.1617    0.0000 H   0  0
    7.0630    0.8084    0.0000 H   0  0
    6.2360    0.2465    0.0000 H   0  0
    5.1534    3.1761    0.0000 H   0  0
    5.2263    2.1789    0.0000 H   0  0
    7.2221    4.5818    0.0000 H   0  0
    8.1950    3.1490    0.0000 H   0  0
    8.1221    4.1462    0.0000 H   0  0
    7.2088   -1.1880    0.0000 H   0  0
    7.2822   -2.1851    0.0000 H   0  0
    7.3926   -3.6823    0.0000 H   0  0
    5.6653   -3.8091    0.0000 H   0  0
    6.5655   -4.2442    0.0000 H   0  0
  1  2  2  0
  2  3  1  0
  2 12  1  0
  3  4  1  0
  3  7  1  0
  4  5  1  0
  4 10  1  0
  5  6  1  0
  5  9  1  0
  6  7  1  0
  7  8  1  0
  8  9  2  0
 10 11  2  0
 10 12  1  0
 12 13  1  0
 13 14  1  0
 14 15  1  0
 14 19  1  0
 15 16  1  0
 16 17  1  0
 17 18  1  0
 19 20  1  0
  3 21  1  0
  4 22  1  0
  5 23  1  0
  6 24  1  0
  6 25  1  0
  7 26  1  0
  8 27  1  0
  9 28  1  0
 13 29  1  0
 13 30  1  0
 14 31  1  0
 15 32  1  0
 15 33  1  0
 16 34  1  0
 16 35  1  0
 17 36  1  0
 17 37  1  0
 18 38  1  0
 18 39  1  0
 18 40  1  0
 19 41  1  0
 19 42  1  0
 20 43  1  0
 20 44  1  0
 20 45  1  0
M  END
> <DSSTox_RID>
40327

> <DSSTox_CID>
12562

> <DSSTox_Generic_SID>
32562

> <DSSTox_FileID>
212_TOXCST_v3a

> <STRUCTURE_Formula>
C17H25NO2

> <STRUCTURE_MolecularWeight>
275.3859

> <STRUCTURE_ChemicalType>
defined organic

> <STRUCTURE_TestedForm_DefinedOrganic>
parent

> <STRUCTURE_Shown>
tested chemical

> <TestSubstance_ChemicalName>
MGK-264

> <Source_ChemicalName>
MGK

> <TestSubstance_CASRN>
113-48-4

> <TestSubstance_Description>
single chemical compound

> <ChemicalNote>
stereochem

> <STRUCTURE_ChemicalName_IUPAC>
2-(2-ethylhexyl)-3a,4,7,7a-tetrahydro-1H-4,7-methanoisoindole-1,3(2H)-dione

> <STRUCTURE_SMILES>
O=C(N3CC(CC)CCCC)C1C(C3=O)C2CC1C=C2

> <STRUCTURE_Parent_SMILES>
O=C(N3CC(CC)CCCC)C1C(C3=O)C2CC1C=C2

> <STRUCTURE_InChI>
InChI=1S/C17H25NO2/c1-3-5-6-11(4-2)10-18-16(19)14-12-7-8-13(9-12)15(14)17(18)20/h7-8,11-15H,3-6,9-10H2,1-2H3

> <STRUCTURE_InChIKey>
WLLGXSLBOPFWQV-UHFFFAOYSA-N

> <Substance_modify_yyyymmdd>
20080429

> <DSSTox_CID_Parent>
12562

> <ChemicalReplicateCount>
1

> <Coord_Metals>
0

> <Index>
212

> <Canonical_Smiles>
CCCCC(CC)CN1C(=O)C2C3CC(C=C3)C2C1=O

> <Molecular_Weight>
275.3859

> <Frequency>
1

$$$$

  SciTegic          2D

 85 89  0  0  0  0            999 V2000
    2.4800    2.4100    0.0000 C   0  0
    1.2500    3.2100    0.0000 C   0  0
    1.2500    0.0000    0.0000 C   0  0
    0.0200    2.4100    0.0000 C   0  0
    0.0200    0.7000    0.0000 C   0  0
    3.7100    3.2100    0.0000 C   0  0
    4.9400    2.4100    0.0000 C   0  0
    4.9400    0.7000    0.0000 C   0  0
    6.1800    3.2100    0.0000 O   0  0
    7.4100    2.4100    0.0000 C   0  0
    6.1800    0.0000    0.0000 C   0  0
    7.4100    0.7000    0.0000 C   0  0
    9.8600    4.0000    0.0000 C   0  0
    8.6400    4.8000    0.0000 C   0  0
    9.8600    2.4100    0.0000 C   0  0
    7.4100    4.0000    0.0000 O   0  0
    8.6400    1.6100    0.0000 C   0  0
    7.3414    5.5186    0.0000 C   0  0
    3.8863   -1.9058    0.0000 O   0  0
    6.1800   -1.6800    0.0000 O   0  0
    4.9400   -2.4800    0.0000 C   0  0
    2.4800   -2.4800    0.0000 C   0  0
    2.4800   -4.1900    0.0000 C   0  0
    4.9400   -4.1900    0.0000 C   0  0
    3.7100   -4.9900    0.0000 C   0  0
    1.2500   -1.6800    0.0000 C   0  0
    1.2500   -4.9900    0.0000 C   0  0
    1.2500   -6.5900    0.0000 O   0  0
    3.7100   -6.5900    0.0000 C   0  0
    6.1800   -4.9900    0.0000 C   0  0
    6.1800   -6.5900    0.0000 C   0  0
    4.9400   -7.5000    0.0000 C   0  0
    1.2500    4.7098    0.0000 C   0  0
    0.0607   -0.7801    0.0000 C   0  0
    3.7100   -3.4892    0.0000 O   0  0
    7.5113   -7.2847    0.0000 C   0  0
    6.2385   -8.2264    0.0000 O   0  0
    9.8620    5.4785    0.0000 C   0  0
    6.0399    4.7712    0.0000 C   0  0
    2.4800    1.4100    0.0000 H   0  0
    2.1145    0.5027    0.0000 H   0  0
   -0.8186    1.8653    0.0000 H   0  0
    0.0193    3.4100    0.0000 H   0  0
   -0.8353    1.2182    0.0000 H   0  0
    4.5854    3.6933    0.0000 H   0  0
    2.8346    3.6934    0.0000 H   0  0
    4.0731    1.9116    0.0000 H   0  0
    4.9680   -0.2996    0.0000 H   0  0
    4.0832    1.2157    0.0000 H   0  0
    7.0445   -0.5027    0.0000 H   0  0
    8.2657    1.2174    0.0000 H   0  0
    6.5574    1.2226    0.0000 H   0  0
   10.6970    3.4528    0.0000 H   0  0
    8.6183    3.8002    0.0000 H   0  0
    9.8623    1.4100    0.0000 H   0  0
    8.9681    2.8622    0.0000 H   0  0
    7.7655    1.1249    0.0000 H   0  0
    9.5162    1.1281    0.0000 H   0  0
    6.4764    6.0205    0.0000 H   0  0
    7.3434    6.5186    0.0000 H   0  0
    3.3590   -2.0031    0.0000 H   0  0
    5.8181   -3.7115    0.0000 H   0  0
    0.3710   -2.1569    0.0000 H   0  0
    1.2494   -3.9900    0.0000 H   0  0
    0.4113   -5.5346    0.0000 H   0  0
    3.3969   -7.5397    0.0000 H   0  0
    7.0581   -4.5115    0.0000 H   0  0
    4.0655   -7.9850    0.0000 H   0  0
    2.1157    5.2104    0.0000 H   0  0
    0.3838    5.2096    0.0000 H   0  0
    1.2495    5.7098    0.0000 H   0  0
    0.9280   -1.2778    0.0000 H   0  0
   -0.8068   -0.2826    0.0000 H   0  0
   -0.8039   -1.2827    0.0000 H   0  0
    2.8443   -2.9886    0.0000 H   0  0
    8.3557   -6.7489    0.0000 H   0  0
    7.5534   -8.2838    0.0000 H   0  0
    8.3975   -7.7479    0.0000 H   0  0
    7.1057   -7.7285    0.0000 H   0  0
    9.0107    6.0032    0.0000 H   0  0
    9.8906    6.4780    0.0000 H   0  0
   10.7419    5.9536    0.0000 H   0  0
    5.1747    5.2726    0.0000 H   0  0
    5.1730    4.2728    0.0000 H   0  0
    6.0380    3.7712    0.0000 H   0  0
  1  2  2  0
  1  6  1  0
  2  4  1  0
  2 33  1  0
  3  5  1  0
  3 26  2  0
  4  5  1  0
  5 34  1  0
  6  7  1  0
  7  9  1  0
  7  8  1  0
  8 11  1  0
  9 10  1  0
 10 12  1  0
 10 16  1  0
 10 17  1  0
 11 12  1  0
 11 20  1  0
 13 14  1  0
 13 15  1  0
 13 38  1  0
 14 18  1  0
 14 16  1  0
 15 17  1  0
 18 39  1  0
 19 21  2  0
 20 21  1  0
 21 24  1  0
 22 23  2  0
 26 22  1  0
 23 27  1  0
 23 25  1  0
 24 30  1  0
 24 25  1  0
 25 29  1  0
 25 35  1  0
 27 28  1  0
 28 29  1  0
 29 32  1  0
 30 31  2  0
 31 32  1  0
 31 36  1  0
 32 37  1  0
  1 40  1  0
  3 41  1  0
  4 42  1  0
  4 43  1  0
  5 44  1  0
  6 45  1  0
  6 46  1  0
  7 47  1  0
  8 48  1  0
  8 49  1  0
 11 50  1  0
 12 51  1  0
 12 52  1  0
 13 53  1  0
 14 54  1  0
 15 55  1  0
 15 56  1  0
 17 57  1  0
 17 58  1  0
 18 59  1  0
 18 60  1  0
 22 61  1  0
 24 62  1  0
 26 63  1  0
 27 64  1  0
 27 65  1  0
 29 66  1  0
 30 67  1  0
 32 68  1  0
 33 69  1  0
 33 70  1  0
 33 71  1  0
 34 72  1  0
 34 73  1  0
 34 74  1  0
 35 75  1  0
 36 76  1  0
 36 77  1  0
 36 78  1  0
 37 79  1  0
 38 80  1  0
 38 81  1  0
 38 82  1  0
 39 83  1  0
 39 84  1  0
 39 85  1  0
M  END
> <DSSTox_RID>
40530

> <DSSTox_CID>
14742

> <DSSTox_Generic_SID>
34742

> <DSSTox_FileID>
213_TOXCST_v3a

> <STRUCTURE_Formula>
C32H46O7

> <STRUCTURE_MolecularWeight>
542.7034

> <STRUCTURE_ChemicalType>
defined organic

> <STRUCTURE_TestedForm_DefinedOrganic>
parent

> <STRUCTURE_Shown>
representative component in mixture

> <TestSubstance_ChemicalName>
Milbemectin (mixture of >=70% Milbemcin A4, & <=30% Milbemycin A3)

> <Source_ChemicalName>
Milbemectin (mix of >70% Milbemycin A4 CAS 51596-11-3; <30% Milbemycin A3 CAS 51596-10-2)

> <TestSubstance_CASRN>
NOCAS

> <TestSubstance_Description>
mixture or formulation

> <ChemicalNote>
mixture of milbermectrin A4 (6'-ethyl) [51596-11-3] and A3 (6'-methyl) [51596-10-2]; structure shown A4; stereochem

> <STRUCTURE_ChemicalName_IUPAC>
(2aE,4E,5'S,6R,6'R,8E,11R,13R,15S,17aR,20R,20aR,20bS)-6'-ethyl-20,20b-dihydroxy-5',6,8,19-tetramethyl-3',4',5',6,6',7,10,11,14,15,17a,20,20a,20b-tetradecahydro-2H,17H-spiro[11,15-methanofuro[4,3,2-pq]
[2,6]benzodioxacyclooctadecine-13,2'-pyran]-17-one

> <STRUCTURE_SMILES>
O=C2O[C@H]4C[C@@](O[C@]5(O[C@H](CC)[C@@H](C)CC5)C4)([H])C/C=C(C)/C[C@@H](C)/C=C/C=C1CO[C@@]3([H])[C@@](O)/1[C@]([H])2C=C(C)[C@H]3O

> <STRUCTURE_Parent_SMILES>
O=C2O[C@H]4C[C@@](O[C@]5(O[C@H](CC)[C@@H](C)CC5)C4)([H])C/C=C(C)/C[C@@H](C)/C=C/C=C1CO[C@@]3([H])[C@@](O)/1[C@]([H])2C=C(C)[C@H]3O

> <STRUCTURE_InChI>
InChI=1S/C32H46O7/c1-6-27-21(4)12-13-31(39-27)17-25-16-24(38-31)11-10-20(3)14-19(2)8-7-9-23-18-36-29-28(33)22(5)15-26(30(34)37-25)32(23,29)35/h7-10,15,19,21,24-29,33,35H,6,11-14,16-18H2,1-5H3/b8-7+,20
-10+,23-9+/t19-,21-,24+,25-,26-,27+,28+,29+,31+,32+/m0/s1

> <STRUCTURE_InChIKey>
VOZIAWLUULBIPN-LRBNAKOISA-N

> <Substance_modify_yyyymmdd>
20080429

> <DSSTox_CID_Parent>
14742

> <ChemicalReplicateCount>
1

> <Coord_Metals>
0

> <Index>
213

> <Canonical_Smiles>
CCC1OC2(CCC1C)CC3CC(CC=C(C)CC(C)C=CC=C4COC5C(O)C(=CC(C(=O)O3)C45O)C)O2

> <Molecular_Weight>
542.70343

> <Frequency>
1

$$$$

  SciTegic          2D

 29 29  0  0  0  0            999 V2000
    1.6852   -0.3846    0.0000 N   0  0
    1.3514    1.0778    0.0000 C   0  0
    0.0000    1.7286    0.0000 C   0  0
   -1.3515    1.0777    0.0000 C   0  0
   -1.6852   -0.3847    0.0000 C   0  0
   -0.7500   -1.5574    0.0000 C   0  0
    0.7500   -1.5574    0.0000 C   0  0
    3.1497   -0.7220    0.0000 C   0  0
    3.9674    0.1562    0.0000 O   0  0
    3.5900   -2.1568    0.0000 S   0  0
    5.0525   -2.4938    0.0000 C   0  0
    5.4929   -3.9285    0.0000 C   0  0
    1.1727    2.0616    0.0000 H   0  0
    2.2709    0.6846    0.0000 H   0  0
   -0.0301    0.7290    0.0000 H   0  0
   -0.8807    2.2023    0.0000 H   0  0
   -0.5888    0.4310    0.0000 H   0  0
   -2.2709    0.6846    0.0000 H   0  0
   -0.7040   -0.1916    0.0000 H   0  0
   -1.9511   -1.3487    0.0000 H   0  0
   -0.2892   -0.6699    0.0000 H   0  0
   -0.1621   -2.3663    0.0000 H   0  0
    0.3435   -0.6438    0.0000 H   0  0
    1.7490   -1.6021    0.0000 H   0  0
    4.7596   -1.5376    0.0000 H   0  0
    5.7340   -1.7619    0.0000 H   0  0
    6.4673   -4.1530    0.0000 H   0  0
    5.7858   -4.8846    0.0000 H   0  0
    4.8114   -4.6604    0.0000 H   0  0
  1  2  1  0
  1  7  1  0
  1  8  1  0
  2  3  1  0
  3  4  1  0
  4  5  1  0
  5  6  1  0
  6  7  1  0
  8  9  2  0
  8 10  1  0
 10 11  1  0
 11 12  1  0
  2 13  1  0
  2 14  1  0
  3 15  1  0
  3 16  1  0
  4 17  1  0
  4 18  1  0
  5 19  1  0
  5 20  1  0
  6 21  1  0
  6 22  1  0
  7 23  1  0
  7 24  1  0
 11 25  1  0
 11 26  1  0
 12 27  1  0
 12 28  1  0
 12 29  1  0
M  END
> <DSSTox_RID>
40531

> <DSSTox_CID>
4206

> <DSSTox_Generic_SID>
24206

> <DSSTox_FileID>
214_TOXCST_v3a

> <STRUCTURE_Formula>
C9H17NOS

> <STRUCTURE_MolecularWeight>
187.3024

> <STRUCTURE_ChemicalType>
defined organic

> <STRUCTURE_TestedForm_DefinedOrganic>
parent

> <STRUCTURE_Shown>
tested chemical

> <TestSubstance_ChemicalName>
Molinate

> <Source_ChemicalName>
Molinate

> <TestSubstance_CASRN>
2212-67-1

> <TestSubstance_Description>
single chemical compound

> <STRUCTURE_ChemicalName_IUPAC>
S-ethyl azepane-1-carbothioate

> <STRUCTURE_SMILES>
O=C(SCC)N1CCCCCC1

> <STRUCTURE_Parent_SMILES>
O=C(SCC)N1CCCCCC1

> <STRUCTURE_InChI>
InChI=1S/C9H17NOS/c1-2-12-9(11)10-7-5-3-4-6-8-10/h2-8H2,1H3

> <STRUCTURE_InChIKey>
DEDOPGXGGQYYMW-UHFFFAOYSA-N

> <Substance_modify_yyyymmdd>
20080429

> <DSSTox_CID_Parent>
4206

> <ChemicalReplicateCount>
1

> <Coord_Metals>
0

> <Index>
214

> <Canonical_Smiles>
CCSC(=O)N1CCCCCC1

> <Molecular_Weight>
187.30237

> <Frequency>
1

$$$$

  SciTegic          2D

 30 30  0  0  0  0            999 V2000
    1.2990   -0.7500    0.0000 C   0  0
    1.2990    0.7500    0.0000 C   0  0
    2.5973   -1.5031    0.0000 C   0  0
    2.5972    1.5031    0.0000 C   0  0
    3.6375   -0.9049    0.0000 O   0  0
    3.6375    0.9049    0.0000 O   0  0
    2.5951   -3.0039    0.0000 O   0  0
    2.5951    3.0039    0.0000 O   0  0
    0.0000   -1.5000    0.0000 C   0  0
    0.0000    1.5000    0.0000 C   0  0
   -1.2990   -0.7500    0.0000 C   0  0
   -1.2990    0.7500    0.0000 C   0  0
    3.8933   -3.7570    0.0000 C   0  0
    3.8912   -5.2578    0.0000 C   0  0
    5.1894   -6.0109    0.0000 C   0  0
    5.1873   -7.5117    0.0000 C   0  0
    3.4601    3.5057    0.0000 H   0  0
    0.0000   -2.5000    0.0000 H   0  0
    0.0000    2.5000    0.0000 H   0  0
   -2.1651   -1.2500    0.0000 H   0  0
   -2.1651    1.2500    0.0000 H   0  0
    3.8952   -2.7570    0.0000 H   0  0
    4.7602   -3.2585    0.0000 H   0  0
    3.0260   -4.7564    0.0000 H   0  0
    3.0243   -5.7563    0.0000 H   0  0
    5.1913   -5.0109    0.0000 H   0  0
    6.0563   -5.5124    0.0000 H   0  0
    6.0523   -8.0135    0.0000 H   0  0
    5.1854   -8.5117    0.0000 H   0  0
    4.3204   -8.0102    0.0000 H   0  0
  1  2  2  0
  1  3  1  0
  1  9  1  0
  2  4  1  0
  2 10  1  0
  3  5  2  0
  3  7  1  0
  4  6  2  0
  4  8  1  0
  7 13  1  0
  9 11  2  0
 10 12  2  0
 11 12  1  0
 13 14  1  0
 14 15  1  0
 15 16  1  0
  8 17  1  0
  9 18  1  0
 10 19  1  0
 11 20  1  0
 12 21  1  0
 13 22  1  0
 13 23  1  0
 14 24  1  0
 14 25  1  0
 15 26  1  0
 15 27  1  0
 16 28  1  0
 16 29  1  0
 16 30  1  0
M  END
> <DSSTox_RID>
40534

> <DSSTox_CID>
20002

> <DSSTox_Generic_SID>
40002

> <DSSTox_FileID>
215_TOXCST_v3a

> <STRUCTURE_Formula>
C12H14O4

> <STRUCTURE_MolecularWeight>
222.2372

> <STRUCTURE_ChemicalType>
defined organic

> <STRUCTURE_TestedForm_DefinedOrganic>
parent

> <STRUCTURE_Shown>
tested chemical

> <TestSubstance_ChemicalName>
Monobutyl phthalate

> <Source_ChemicalName>
Monobutyl phthalate

> <TestSubstance_CASRN>
131-70-4

> <TestSubstance_Description>
single chemical compound

> <STRUCTURE_ChemicalName_IUPAC>
2-(butoxycarbonyl)benzoic acid

> <STRUCTURE_SMILES>
O=C(OCCCC)C(C=CC=C1)=C1C(O)=O

> <STRUCTURE_Parent_SMILES>
O=C(OCCCC)C(C=CC=C1)=C1C(O)=O

> <STRUCTURE_InChI>
InChI=1S/C12H14O4/c1-2-3-8-16-12(15)10-7-5-4-6-9(10)11(13)14/h4-7H,2-3,8H2,1H3,(H,13,14)

> <STRUCTURE_InChIKey>
YZBOVSFWWNVKRJ-UHFFFAOYSA-N

> <Substance_modify_yyyymmdd>
20080429

> <DSSTox_CID_Parent>
20002

> <ChemicalReplicateCount>
1

> <Relationship_CID>
metabolite of parent0 1781

> <Coord_Metals>
0

> <Index>
215

> <Canonical_Smiles>
CCCCOC(=O)c1ccccc1C(=O)O

> <Molecular_Weight>
222.23715

> <Frequency>
1

$$$$

  SciTegic          2D

 28 27  0  0  0  0            999 V2000
    9.0999    0.7500    0.0000 P   0  0
    5.2000    0.0000    0.0000 C   0  0
    3.9000    0.7500    0.0000 C   0  0
    6.5000    0.7500    0.0000 C   0  0
    7.7999    0.0000    0.0000 O   0  0
   10.1388    0.1493    0.0000 O   0  0
    3.9000    1.9500    0.0000 O   0  0
    9.1014    2.2508    0.0000 O   0  0
    9.1011   -0.7800    0.0000 O   0  0
    2.6000    0.0000    0.0000 N   0  0
    6.5030    2.2508    0.0000 C   0  0
    1.3000    0.7500    0.0000 C   0  0
   10.4013    3.0008    0.0000 C   0  0
   10.4010   -1.5301    0.0000 C   0  0
    5.2000   -1.0000    0.0000 H   0  0
    2.6000   -1.0000    0.0000 H   0  0
    7.3698    2.7496    0.0000 H   0  0
    6.5046    3.2508    0.0000 H   0  0
    5.6379    2.7523    0.0000 H   0  0
    0.4338    0.2503    0.0000 H   0  0
    1.3000    1.7500    0.0000 H   0  0
    0.4340    1.2501    0.0000 H   0  0
   10.4023    4.0008    0.0000 H   0  0
   11.2671    2.5003    0.0000 H   0  0
   11.2678    3.5001    0.0000 H   0  0
   10.4018   -2.5301    0.0000 H   0  0
   11.2668   -1.0297    0.0000 H   0  0
   11.2674   -2.0296    0.0000 H   0  0
  1  5  1  0
  1  6  2  0
  1  8  1  0
  1  9  1  0
  2  4  2  0
  2  3  1  0
  3  7  2  0
  3 10  1  0
  4  5  1  0
  4 11  1  0
  8 13  1  0
  9 14  1  0
 10 12  1  0
  2 15  1  0
 10 16  1  0
 11 17  1  0
 11 18  1  0
 11 19  1  0
 12 20  1  0
 12 21  1  0
 12 22  1  0
 13 23  1  0
 13 24  1  0
 13 25  1  0
 14 26  1  0
 14 27  1  0
 14 28  1  0
M  END
> <DSSTox_RID>
40556

> <DSSTox_CID>
14816

> <DSSTox_Generic_SID>
34816

> <DSSTox_FileID>
216_TOXCST_v3a

> <STRUCTURE_Formula>
C7H14NO5P

> <STRUCTURE_MolecularWeight>
223.1635

> <STRUCTURE_ChemicalType>
defined organic

> <STRUCTURE_TestedForm_DefinedOrganic>
parent

> <STRUCTURE_Shown>
tested chemical

> <TestSubstance_ChemicalName>
Monocrotophos

> <Source_ChemicalName>
Monocrotophos

> <TestSubstance_CASRN>
6923-22-4

> <TestSubstance_Description>
single chemical compound

> <ChemicalNote>
stereochem

> <STRUCTURE_ChemicalName_IUPAC>
dimethyl (1E)-1-methyl-3-(methylamino)-3-oxoprop-1-en-1-yl phosphate

> <STRUCTURE_SMILES>
O=P(OC)(OC)O/C(C)=C([H])/C(NC)=O

> <STRUCTURE_Parent_SMILES>
O=P(OC)(OC)O/C(C)=C([H])/C(NC)=O

> <STRUCTURE_InChI>
InChI=1S/C7H14NO5P/c1-6(5-7(9)8-2)13-14(10,11-3)12-4/h5H,1-4H3,(H,8,9)/b6-5+

> <STRUCTURE_InChIKey>
KRTSDMXIXPKRQR-AATRIKPKSA-N

> <Substance_modify_yyyymmdd>
20080429

> <DSSTox_CID_Parent>
14816

> <ChemicalReplicateCount>
1

> <Coord_Metals>
0

> <Index>
216

> <Canonical_Smiles>
CNC(=O)C=C(C)OP(=O)(OC)OC

> <Molecular_Weight>
223.16352

> <Frequency>
1

$$$$

  SciTegic          2D

 37 38  0  0  0  0            999 V2000
    2.2638   -1.8997    0.0000 C   0  0
    6.7510   -4.0588    0.0000 N   0  0
    4.7067   -2.7896    0.0000 N   0  0
    4.3298   -4.2282    0.0000 N   0  0
    2.7916   -0.4637    0.0000 C   0  0
    3.2056    0.6626    0.0000 N   0  0
    5.6019   -5.0230    0.0000 C   0  0
    6.1890   -2.6680    0.0000 C   0  0
    3.7420   -1.6399    0.0000 C   0  0
    1.2990   -0.7500    0.0000 C   0  0
    1.2990    0.7500    0.0000 C   0  0
    0.0000   -1.5000    0.0000 C   0  0
   -1.2990    0.7500    0.0000 C   0  0
   -1.2990   -0.7500    0.0000 C   0  0
    0.0000    1.5000    0.0000 C   0  0
   -2.3383    1.3500    0.0000 Cl  0  0
    2.2603   -3.4006    0.0000 C   0  0
    0.9593   -4.1488    0.0000 C   0  0
    0.9559   -5.6496    0.0000 C   0  0
   -0.3451   -6.3979    0.0000 C   0  0
    5.6717   -6.0206    0.0000 H   0  0
    6.7138   -1.8168    0.0000 H   0  0
    4.0842   -0.7003    0.0000 H   0  0
    4.7268   -1.4663    0.0000 H   0  0
    2.1651    1.2500    0.0000 H   0  0
    0.0000   -2.5000    0.0000 H   0  0
   -2.1651   -1.2500    0.0000 H   0  0
    0.0000    2.5000    0.0000 H   0  0
    3.1254   -3.9023    0.0000 H   0  0
    3.1274   -2.9024    0.0000 H   0  0
    0.0943   -3.6471    0.0000 H   0  0
    0.9612   -3.1488    0.0000 H   0  0
    1.8209   -6.1513    0.0000 H   0  0
    1.8230   -5.1515    0.0000 H   0  0
   -0.3474   -7.3979    0.0000 H   0  0
   -1.2102   -5.8962    0.0000 H   0  0
   -1.2122   -6.8960    0.0000 H   0  0
  1  5  1  0
  1  9  1  0
  1 10  1  0
  1 17  1  0
  2  8  2  0
  2  7  1  0
  3  9  1  0
  3  4  1  0
  3  8  1  0
  4  7  2  0
  5  6  3  0
 10 11  1  0
 10 12  2  0
 11 15  2  0
 12 14  1  0
 13 14  2  0
 13 16  1  0
 13 15  1  0
 17 18  1  0
 18 19  1  0
 19 20  1  0
  7 21  1  0
  8 22  1  0
  9 23  1  0
  9 24  1  0
 11 25  1  0
 12 26  1  0
 14 27  1  0
 15 28  1  0
 17 29  1  0
 17 30  1  0
 18 31  1  0
 18 32  1  0
 19 33  1  0
 19 34  1  0
 20 35  1  0
 20 36  1  0
 20 37  1  0
M  END
> <DSSTox_RID>
40535

> <DSSTox_CID>
4315

> <DSSTox_Generic_SID>
24315

> <DSSTox_FileID>
217_TOXCST_v3a

> <STRUCTURE_Formula>
C15H17ClN4

> <STRUCTURE_MolecularWeight>
288.7753

> <STRUCTURE_ChemicalType>
defined organic

> <STRUCTURE_TestedForm_DefinedOrganic>
parent

> <STRUCTURE_Shown>
tested chemical

> <TestSubstance_ChemicalName>
Myclobutanil

> <Source_ChemicalName>
Myclobutanil

> <TestSubstance_CASRN>
88671-89-0

> <TestSubstance_Description>
single chemical compound

> <STRUCTURE_ChemicalName_IUPAC>
2-(4-chlorophenyl)-2-(1H-1,2,4-triazol-1-ylmethyl)hexanenitrile

> <STRUCTURE_SMILES>
Clc1ccc(cc1)C(CCCC)(Cn2cncn2)C#N

> <STRUCTURE_Parent_SMILES>
Clc1ccc(cc1)C(CCCC)(Cn2cncn2)C#N

> <STRUCTURE_InChI>
InChI=1S/C15H17ClN4/c1-2-3-8-15(9-17,10-20-12-18-11-19-20)13-4-6-14(16)7-5-13/h4-7,11-12H,2-3,8,10H2,1H3

> <STRUCTURE_InChIKey>
HZJKXKUJVSEEFU-UHFFFAOYSA-N

> <Substance_modify_yyyymmdd>
20080429

> <DSSTox_CID_Parent>
4315

> <ChemicalReplicateCount>
1

> <Coord_Metals>
0

> <Index>
217

> <Canonical_Smiles>
CCCCC(Cn1cncn1)(C#N)c2ccc(Cl)cc2

> <Molecular_Weight>
288.77528

> <Frequency>
1

$$$$

  SciTegic          2D

 20 19  0  0  0  0            999 V2000
    2.6000    0.0000    0.0000 C   0  0
    5.2000    0.0000    0.0000 P   0  0
    3.9000    0.7500    0.0000 O   0  0
    1.3000    0.7500    0.0000 C   0  0
    5.2000    1.2000    0.0000 O   0  0
    2.6000   -1.2000    0.0000 Br  0  0
    0.2606    0.1503    0.0000 Br  0  0
    0.2609    1.3502    0.0000 Cl  0  0
    1.3000    1.9500    0.0000 Cl  0  0
    6.5000    0.7500    0.0000 O   0  0
    5.2000   -1.5007    0.0000 O   0  0
    3.9007   -2.2520    0.0000 C   0  0
    7.7999    0.0000    0.0000 C   0  0
    3.4659   -0.5001    0.0000 H   0  0
    3.9007   -3.2520    0.0000 H   0  0
    3.0345   -1.7523    0.0000 H   0  0
    3.0347   -2.7521    0.0000 H   0  0
    8.6661    0.4997    0.0000 H   0  0
    7.7999   -1.0000    0.0000 H   0  0
    8.6659   -0.5001    0.0000 H   0  0
  1  3  1  0
  1  4  1  0
  1  6  1  0
  2  3  1  0
  2  5  2  0
  2 10  1  0
  2 11  1  0
  4  7  1  0
  4  8  1  0
  4  9  1  0
 10 13  1  0
 11 12  1  0
  1 14  1  0
 12 15  1  0
 12 16  1  0
 12 17  1  0
 13 18  1  0
 13 19  1  0
 13 20  1  0
M  END
> <DSSTox_RID>
40537

> <DSSTox_CID>
4209

> <DSSTox_Generic_SID>
24209

> <DSSTox_FileID>
218_TOXCST_v3a

> <STRUCTURE_Formula>
C4H7Br2Cl2O4P

> <STRUCTURE_MolecularWeight>
380.7837

> <STRUCTURE_ChemicalType>
defined organic

> <STRUCTURE_TestedForm_DefinedOrganic>
parent

> <STRUCTURE_Shown>
tested chemical

> <TestSubstance_ChemicalName>
Naled

> <Source_ChemicalName>
Naled

> <TestSubstance_CASRN>
300-76-5

> <TestSubstance_Description>
single chemical compound

> <STRUCTURE_ChemicalName_IUPAC>
1,2-dibromo-2,2-dichloroethyl dimethyl phosphate

> <STRUCTURE_SMILES>
O=P(OC)(OC)OC(Br)C(Cl)(Cl)Br

> <STRUCTURE_Parent_SMILES>
O=P(OC)(OC)OC(Br)C(Cl)(Cl)Br

> <STRUCTURE_InChI>
InChI=1S/C4H7Br2Cl2O4P/c1-10-13(9,11-2)12-3(5)4(6,7)8/h3H,1-2H3

> <STRUCTURE_InChIKey>
BUYMVQAILCEWRR-UHFFFAOYSA-N

> <Substance_modify_yyyymmdd>
20080429

> <DSSTox_CID_Parent>
4209

> <ChemicalReplicateCount>
1

> <Coord_Metals>
0

> <Index>
218

> <Canonical_Smiles>
COP(=O)(OC)OC(Br)C(Cl)(Cl)Br

> <Molecular_Weight>
380.78374

> <Frequency>
1

$$$$

  SciTegic          2D

 41 42  0  0  0  0            999 V2000
   -2.5812    5.2552    0.0000 C   0  0
   -1.2907    2.9981    0.0000 O   0  0
   -1.2964    1.4973    0.0000 C   0  0
   -2.5870    3.7544    0.0000 C   0  0
    0.0000    0.7486    0.0000 C   0  0
   -1.2790    6.0014    0.0000 N   0  0
   -3.6183    5.8589    0.0000 O   0  0
    0.0000   -0.7486    0.0000 C   0  0
   -2.6111    0.7486    0.0000 C   0  0
   -2.6111   -0.7486    0.0000 C   0  0
   -3.8899    3.0095    0.0000 C   0  0
    0.0188    5.2476    0.0000 C   0  0
   -1.2777    7.5022    0.0000 C   0  0
    1.2964    1.4973    0.0000 C   0  0
   -1.2964   -1.4973    0.0000 C   0  0
    1.2964   -1.4973    0.0000 C   0  0
    1.3210    5.9938    0.0000 C   0  0
   -2.5763    8.2546    0.0000 C   0  0
    2.5929    0.7486    0.0000 C   0  0
    2.5929   -0.7486    0.0000 C   0  0
   -1.7189    4.2508    0.0000 H   0  0
   -3.4756    1.2512    0.0000 H   0  0
   -3.4756   -1.2512    0.0000 H   0  0
   -3.8947    2.0095    0.0000 H   0  0
   -4.7536    3.5134    0.0000 H   0  0
   -4.7582    2.5136    0.0000 H   0  0
    0.0158    4.2476    0.0000 H   0  0
   -0.8486    4.7500    0.0000 H   0  0
   -0.4111    8.0012    0.0000 H   0  0
   -0.4122    7.0013    0.0000 H   0  0
    1.2964    2.4973    0.0000 H   0  0
   -1.2934   -2.4973    0.0000 H   0  0
    1.2964   -2.4973    0.0000 H   0  0
    2.1857    5.4915    0.0000 H   0  0
    1.3239    6.9938    0.0000 H   0  0
    2.1884    6.4914    0.0000 H   0  0
   -2.5754    9.2546    0.0000 H   0  0
   -3.4429    7.7557    0.0000 H   0  0
   -3.4418    8.7555    0.0000 H   0  0
    3.4589    1.2486    0.0000 H   0  0
    3.4589   -1.2486    0.0000 H   0  0
  1  4  1  0
  1  6  1  0
  1  7  2  0
  2  4  1  0
  2  3  1  0
  3  5  2  0
  3  9  1  0
  4 11  1  0
  5  8  1  0
  5 14  1  0
  6 12  1  0
  6 13  1  0
  8 16  1  0
  8 15  2  0
  9 10  2  0
 10 15  1  0
 12 17  1  0
 13 18  1  0
 14 19  2  0
 16 20  2  0
 19 20  1  0
  4 21  1  0
  9 22  1  0
 10 23  1  0
 11 24  1  0
 11 25  1  0
 11 26  1  0
 12 27  1  0
 12 28  1  0
 13 29  1  0
 13 30  1  0
 14 31  1  0
 15 32  1  0
 16 33  1  0
 17 34  1  0
 17 35  1  0
 17 36  1  0
 18 37  1  0
 18 38  1  0
 18 39  1  0
 19 40  1  0
 20 41  1  0
M  END
> <DSSTox_RID>
40538

> <DSSTox_CID>
4211

> <DSSTox_Generic_SID>
24211

> <DSSTox_FileID>
219_TOXCST_v3a

> <STRUCTURE_Formula>
C17H21NO2

> <STRUCTURE_MolecularWeight>
271.3541

> <STRUCTURE_ChemicalType>
defined organic

> <STRUCTURE_TestedForm_DefinedOrganic>
parent

> <STRUCTURE_Shown>
tested chemical

> <TestSubstance_ChemicalName>
Napropamide

> <Source_ChemicalName>
Napropamide

> <TestSubstance_CASRN>
15299-99-7

> <TestSubstance_Description>
single chemical compound

> <ChemicalNote>
mixture of (R,S) isomers; structure shown without stereochem

> <STRUCTURE_ChemicalName_IUPAC>
N,N-diethyl-2-(1-naphthyloxy)propanamide

> <STRUCTURE_SMILES>
CCN(CC)C(=O)C(C)Oc2cccc1ccccc12

> <STRUCTURE_Parent_SMILES>
CCN(CC)C(=O)C(C)Oc2cccc1ccccc12

> <STRUCTURE_InChI>
InChI=1S/C17H21NO2/c1-4-18(5-2)17(19)13(3)20-16-12-8-10-14-9-6-7-11-15(14)16/h6-13H,4-5H2,1-3H3

> <STRUCTURE_InChIKey>
WXZVAROIGSFCFJ-UHFFFAOYSA-N

> <Substance_modify_yyyymmdd>
20080429

> <DSSTox_CID_Parent>
4211

> <ChemicalReplicateCount>
1

> <Coord_Metals>
0

> <Index>
219

> <Canonical_Smiles>
CCN(CC)C(=O)C(C)Oc1cccc2ccccc12

> <Molecular_Weight>
271.35414

> <Frequency>
1

$$$$

  SciTegic          2D

 29 30  0  0  0  0            999 V2000
    3.6375   -0.9049    0.0000 O   0  0
    2.5973   -1.5031    0.0000 C   0  0
    1.2990   -0.7500    0.0000 C   0  0
    1.2990    0.7500    0.0000 C   0  0
    0.0000    1.5000    0.0000 C   0  0
   -1.2990    0.7500    0.0000 C   0  0
   -1.2990   -0.7500    0.0000 C   0  0
    0.0000   -1.5000    0.0000 C   0  0
   -2.3383   -1.3500    0.0000 Cl  0  0
    2.5972    1.5031    0.0000 O   0  0
    2.5951   -3.0039    0.0000 N   0  0
    3.8933   -3.7570    0.0000 C   0  0
    3.8934   -5.2570    0.0000 C   0  0
    5.1924   -6.0070    0.0000 C   0  0
    6.4915   -5.2571    0.0000 C   0  0
    6.4915   -3.7571    0.0000 C   0  0
    5.1925   -3.0070    0.0000 C   0  0
    5.1925   -1.8070    0.0000 Cl  0  0
    7.7928   -6.0048    0.0000 N   0  0
    8.8311   -5.4034    0.0000 O   0  0
    7.7948   -7.2048    0.0000 O   0  0
    0.0000    2.5000    0.0000 H   0  0
   -2.1651    1.2500    0.0000 H   0  0
    0.0000   -2.5000    0.0000 H   0  0
    2.5958    2.5031    0.0000 H   0  0
    1.7282   -3.5024    0.0000 H   0  0
    3.0274   -5.7570    0.0000 H   0  0
    5.1924   -7.0070    0.0000 H   0  0
    7.3575   -3.2571    0.0000 H   0  0
  1  2  2  0
  2  3  1  0
  2 11  1  0
  3  4  2  0
  3  8  1  0
  4  5  1  0
  4 10  1  0
  5  6  2  0
  6  7  1  0
  7  8  2  0
  7  9  1  0
 11 12  1  0
 12 13  2  0
 12 17  1  0
 13 14  1  0
 14 15  2  0
 15 16  1  0
 15 19  1  0
 16 17  2  0
 17 18  1  0
 19 20  2  0
 19 21  2  0
  5 22  1  0
  6 23  1  0
  8 24  1  0
 10 25  1  0
 11 26  1  0
 13 27  1  0
 14 28  1  0
 16 29  1  0
M  END
> <DSSTox_RID>
40539

> <DSSTox_CID>
20362

> <DSSTox_Generic_SID>
40362

> <DSSTox_FileID>
220_TOXCST_v3a

> <STRUCTURE_Formula>
C13H8Cl2N2O4

> <STRUCTURE_MolecularWeight>
327.1196

> <STRUCTURE_ChemicalType>
defined organic

> <STRUCTURE_TestedForm_DefinedOrganic>
parent

> <STRUCTURE_Shown>
tested chemical

> <TestSubstance_ChemicalName>
Niclosamide

> <Source_ChemicalName>
Niclosamide

> <TestSubstance_CASRN>
50-65-7

> <TestSubstance_Description>
single chemical compound

> <STRUCTURE_ChemicalName_IUPAC>
5-chloro-N-(2-chloro-4-nitrophenyl)-2-hydroxybenzamide

> <STRUCTURE_SMILES>
O=C(NC2=CC=C([N+]([O-])=O)C=C2Cl)C1=C(O)C=CC(Cl)=C1

> <STRUCTURE_Parent_SMILES>
O=C(NC2=CC=C([N+]([O-])=O)C=C2Cl)C1=C(O)C=CC(Cl)=C1

> <STRUCTURE_InChI>
InChI=1S/C13H8Cl2N2O4/c14-7-1-4-12(18)9(5-7)13(19)16-11-3-2-8(17(20)21)6-10(11)15/h1-6,18H,(H,16,19)

> <STRUCTURE_InChIKey>
RJMUSRYZPJIFPJ-UHFFFAOYSA-N

> <Substance_modify_yyyymmdd>
20080429

> <DSSTox_CID_Parent>
20362

> <ChemicalReplicateCount>
1

> <Note_TOXCST>
structure changed v2b

> <Coord_Metals>
0

> <Index>
220

> <Canonical_Smiles>
Oc1ccc(Cl)cc1C(=O)Nc2ccc(cc2Cl)N(=O)=O

> <Molecular_Weight>
327.11962

> <Frequency>
1

$$$$

  SciTegic          2D

 14 14  0  0  0  0            999 V2000
    2.5988    1.5004    0.0000 C   0  0
    1.2990   -0.7500    0.0000 N   0  0
    1.2990    0.7500    0.0000 C   0  0
    0.0000   -1.5000    0.0000 C   0  0
    3.6384    0.9011    0.0000 Cl  0  0
    2.5984    2.7004    0.0000 Cl  0  0
    3.6377    2.1009    0.0000 Cl  0  0
    0.0000   -2.7000    0.0000 Cl  0  0
    0.0000    1.5000    0.0000 C   0  0
   -1.2990    0.7500    0.0000 C   0  0
   -1.2990   -0.7500    0.0000 C   0  0
    0.0000    2.5000    0.0000 H   0  0
   -2.1651    1.2500    0.0000 H   0  0
   -2.1651   -1.2500    0.0000 H   0  0
  1  3  1  0
  1  5  1  0
  1  6  1  0
  1  7  1  0
  2  3  2  0
  2  4  1  0
  3  9  1  0
  4  8  1  0
  4 11  2  0
  9 10  2  0
 10 11  1  0
  9 12  1  0
 10 13  1  0
 11 14  1  0
M  END
> <DSSTox_RID>
40313

> <DSSTox_CID>
4216

> <DSSTox_Generic_SID>
24216

> <DSSTox_FileID>
221_TOXCST_v3a

> <STRUCTURE_Formula>
C6H3Cl4N

> <STRUCTURE_MolecularWeight>
230.9067

> <STRUCTURE_ChemicalType>
defined organic

> <STRUCTURE_TestedForm_DefinedOrganic>
parent

> <STRUCTURE_Shown>
tested chemical

> <TestSubstance_ChemicalName>
Nitrapyrin

> <Source_ChemicalName>
Nitrapyrin

> <TestSubstance_CASRN>
1929-82-4

> <TestSubstance_Description>
single chemical compound

> <STRUCTURE_ChemicalName_IUPAC>
2-chloro-6-(trichloromethyl)pyridine

> <STRUCTURE_SMILES>
ClC(Cl)(C1=NC(Cl)=CC=C1)Cl

> <STRUCTURE_Parent_SMILES>
ClC(Cl)(C1=NC(Cl)=CC=C1)Cl

> <STRUCTURE_InChI>
InChI=1S/C6H3Cl4N/c7-5-3-1-2-4(11-5)6(8,9)10/h1-3H

> <STRUCTURE_InChIKey>
DCUJJWWUNKIJPH-UHFFFAOYSA-N

> <Substance_modify_yyyymmdd>
20080429

> <DSSTox_CID_Parent>
4216

> <ChemicalReplicateCount>
1

> <Coord_Metals>
0

> <Index>
221

> <Canonical_Smiles>
Clc1cccc(n1)C(Cl)(Cl)Cl

> <Molecular_Weight>
230.90671

> <Frequency>
1

$$$$

  SciTegic          2D

 29 30  0  0  0  0            999 V2000
    1.2990   -0.7500    0.0000 C   0  0
    1.2990    0.7500    0.0000 N   0  0
    0.0000   -1.5000    0.0000 C   0  0
    0.0000    1.5000    0.0000 N   0  0
   -1.2990   -0.7500    0.0000 C   0  0
    6.4978    0.7562    0.0000 C   0  0
   -1.2990    0.7500    0.0000 C   0  0
    2.5987    1.5004    0.0000 C   0  0
    5.1969    1.5046    0.0000 C   0  0
    3.8991    0.7525    0.0000 C   0  0
    2.3383   -1.3500    0.0000 O   0  0
    0.0000   -2.7000    0.0000 Cl  0  0
   -2.6003   -1.4978    0.0000 N   0  0
    6.5005   -0.4438    0.0000 F   0  0
    7.5359    1.3582    0.0000 F   0  0
    7.5383    0.1584    0.0000 F   0  0
    2.5964    3.0004    0.0000 C   0  0
    5.1945    3.0046    0.0000 C   0  0
    3.8943    3.7525    0.0000 C   0  0
   -3.8990   -0.7455    0.0000 C   0  0
   -2.1651    1.2500    0.0000 H   0  0
    3.9007   -0.2475    0.0000 H   0  0
   -2.6021   -2.4978    0.0000 H   0  0
    1.7296    3.4991    0.0000 H   0  0
    6.0597    3.5060    0.0000 H   0  0
    3.8927    4.7525    0.0000 H   0  0
   -4.7661   -1.2437    0.0000 H   0  0
   -4.7641   -0.2439    0.0000 H   0  0
   -3.8973    0.2545    0.0000 H   0  0
  1  2  1  0
  1  3  1  0
  1 11  2  0
  2  4  1  0
  2  8  1  0
  3  5  2  0
  3 12  1  0
  4  7  2  0
  5  7  1  0
  5 13  1  0
  6  9  1  0
  6 14  1  0
  6 15  1  0
  6 16  1  0
  8 10  1  0
  8 17  2  0
  9 10  2  0
  9 18  1  0
 13 20  1  0
 17 19  1  0
 18 19  2  0
  7 21  1  0
 10 22  1  0
 13 23  1  0
 17 24  1  0
 18 25  1  0
 19 26  1  0
 20 27  1  0
 20 28  1  0
 20 29  1  0
M  END
> <DSSTox_RID>
40540

> <DSSTox_CID>
4234

> <DSSTox_Generic_SID>
24234

> <DSSTox_FileID>
222_TOXCST_v3a

> <STRUCTURE_Formula>
C12H9ClF3N3O

> <STRUCTURE_MolecularWeight>
303.6676

> <STRUCTURE_ChemicalType>
defined organic

> <STRUCTURE_TestedForm_DefinedOrganic>
parent

> <STRUCTURE_Shown>
tested chemical

> <TestSubstance_ChemicalName>
Norflurazon

> <Source_ChemicalName>
Norflurazon

> <TestSubstance_CASRN>
27314-13-2

> <TestSubstance_Description>
single chemical compound

> <STRUCTURE_ChemicalName_IUPAC>
4-chloro-5-(methylamino)-2-[3-(trifluoromethyl)phenyl]pyridazin-3(2H)-one

> <STRUCTURE_SMILES>
FC(F)(F)c1cc(ccc1)N2\N=C/C(NC)=C(/Cl)C2=O

> <STRUCTURE_Parent_SMILES>
FC(F)(F)c1cc(ccc1)N2\N=C/C(NC)=C(/Cl)C2=O

> <STRUCTURE_InChI>
InChI=1S/C12H9ClF3N3O/c1-17-9-6-18-19(11(20)10(9)13)8-4-2-3-7(5-8)12(14,15)16/h2-6,17H,1H3

> <STRUCTURE_InChIKey>
NVGOPFQZYCNLDU-UHFFFAOYSA-N

> <Substance_modify_yyyymmdd>
20080429

> <DSSTox_CID_Parent>
4234

> <ChemicalReplicateCount>
1

> <Coord_Metals>
0

> <Index>
222

> <Canonical_Smiles>
CNC1=C(Cl)C(=O)N(N=C1)c2cccc(c2)C(F)(F)F

> <Molecular_Weight>
303.66756

> <Frequency>
1

$$$$

  SciTegic          2D

 41 42  0  0  0  0            999 V2000
    2.5973   -1.5031    0.0000 C   0  0
    9.0836   -9.7649    0.0000 C   0  0
    2.5951   -3.0039    0.0000 N   0  0
    1.2990   -0.7500    0.0000 C   0  0
    3.8933   -3.7570    0.0000 C   0  0
   10.3796  -12.0189    0.0000 O   0  0
   11.6777  -12.7720    0.0000 C   0  0
   10.3817  -10.5181    0.0000 C   0  0
    9.0857   -8.2641    0.0000 O   0  0
    7.7875   -7.5110    0.0000 C   0  0
    6.4885   -8.2610    0.0000 C   0  0
    3.8912   -5.2578    0.0000 N   0  0
    5.1895   -7.5109    0.0000 C   0  0
    3.6375   -0.9049    0.0000 O   0  0
    1.2990    0.7500    0.0000 C   0  0
    0.0000   -1.5000    0.0000 C   0  0
    5.1894   -6.0109    0.0000 C   0  0
    4.9336   -3.1588    0.0000 O   0  0
    8.0433  -10.3631    0.0000 F   0  0
    8.0453   -9.1633    0.0000 F   0  0
    7.7876   -6.0110    0.0000 C   0  0
   11.6760  -13.9720    0.0000 F   0  0
   12.7180  -12.1738    0.0000 F   0  0
   12.7160  -13.3737    0.0000 F   0  0
   11.4220   -9.9199    0.0000 F   0  0
    6.4884   -9.4610    0.0000 Cl  0  0
    6.4885   -5.2610    0.0000 C   0  0
    0.0000   -2.7000    0.0000 F   0  0
    2.3383    1.3500    0.0000 F   0  0
   -1.2990    0.7500    0.0000 C   0  0
    0.0000    1.5000    0.0000 C   0  0
   -1.2990   -0.7500    0.0000 C   0  0
    1.7282   -3.5024    0.0000 H   0  0
   11.2470  -11.0194    0.0000 H   0  0
    3.0243   -5.7563    0.0000 H   0  0
    4.3234   -8.0109    0.0000 H   0  0
    8.6536   -5.5110    0.0000 H   0  0
    6.4886   -4.2610    0.0000 H   0  0
   -2.1651    1.2500    0.0000 H   0  0
    0.0000    2.5000    0.0000 H   0  0
   -2.1651   -1.2500    0.0000 H   0  0
  1  3  1  0
  1  4  1  0
  1 14  2  0
  2  9  1  0
  2  8  1  0
  2 19  1  0
  2 20  1  0
  3  5  1  0
  4 15  2  0
  4 16  1  0
  5 12  1  0
  5 18  2  0
  6  8  1  0
  6  7  1  0
  7 22  1  0
  7 23  1  0
  7 24  1  0
  8 25  1  0
  9 10  1  0
 10 21  2  0
 10 11  1  0
 11 13  2  0
 11 26  1  0
 12 17  1  0
 13 17  1  0
 15 29  1  0
 15 31  1  0
 16 28  1  0
 16 32  2  0
 17 27  2  0
 21 27  1  0
 30 31  2  0
 30 32  1  0
  3 33  1  0
  8 34  1  0
 12 35  1  0
 13 36  1  0
 21 37  1  0
 27 38  1  0
 30 39  1  0
 31 40  1  0
 32 41  1  0
M  END
> <DSSTox_RID>
40541

> <DSSTox_CID>
14773

> <DSSTox_Generic_SID>
34773

> <DSSTox_FileID>
223_TOXCST_v3a

> <STRUCTURE_Formula>
C17H9ClF8N2O4

> <STRUCTURE_MolecularWeight>
492.7046

> <STRUCTURE_ChemicalType>
defined organic

> <STRUCTURE_TestedForm_DefinedOrganic>
parent

> <STRUCTURE_Shown>
tested chemical

> <TestSubstance_ChemicalName>
Novaluron

> <Source_ChemicalName>
Novaluron

> <TestSubstance_CASRN>
116714-46-6

> <TestSubstance_Description>
single chemical compound

> <STRUCTURE_ChemicalName_IUPAC>
N-({3-chloro-4-[1,1,2-trifluoro-2-(trifluoromethoxy)ethoxy]phenyl}carbamoyl)-2,6-difluorobenzamide

> <STRUCTURE_SMILES>
O=C(C(C(F)=CC=C1)=C1F)NC(NC2=CC(Cl)=C(C=C2)OC(F)(F)C(F)OC(F)(F)F)=O

> <STRUCTURE_Parent_SMILES>
O=C(C(C(F)=CC=C1)=C1F)NC(NC2=CC(Cl)=C(C=C2)OC(F)(F)C(F)OC(F)(F)F)=O

> <STRUCTURE_InChI>
InChI=1S/C17H9ClF8N2O4/c18-8-6-7(4-5-11(8)31-16(22,23)14(21)32-17(24,25)26)27-15(30)28-13(29)12-9(19)2-1-3-10(12)20/h1-6,14H,(H2,27,28,29,30)

> <STRUCTURE_InChIKey>
NJPPVKZQTLUDBO-UHFFFAOYSA-N

> <Substance_modify_yyyymmdd>
20080429

> <DSSTox_CID_Parent>
14773

> <ChemicalReplicateCount>
1

> <Coord_Metals>
0

> <Index>
223

> <Canonical_Smiles>
FC(OC(F)(F)F)C(F)(F)Oc1ccc(NC(=O)NC(=O)c2c(F)cccc2F)cc1Cl

> <Molecular_Weight>
492.70458

> <Frequency>
1

$$$$

  SciTegic          2D

 41 41  0  0  0  0            999 V2000
    1.2990   -0.7500    0.0000 C   0  0
    0.0000    1.5000    0.0000 C   0  0
   -2.5988   -1.5004    0.0000 S   0  0
    1.2990    0.7500    0.0000 C   0  0
    2.5973   -1.5031    0.0000 N   0  0
   -0.0031    3.0008    0.0000 N   0  0
   -1.2990   -0.7500    0.0000 C   0  0
   -1.2990    0.7500    0.0000 C   0  0
    0.0000   -1.5000    0.0000 C   0  0
    2.5972    1.5031    0.0000 N   0  0
   -3.6378   -0.9001    0.0000 O   0  0
   -3.6383   -2.0999    0.0000 O   0  0
    2.5956   -2.7031    0.0000 O   0  0
    1.0345    3.6036    0.0000 O   0  0
   -1.0438    3.5984    0.0000 O   0  0
    3.4642   -1.0046    0.0000 O   0  0
   -2.5997   -3.0012    0.0000 N   0  0
    2.5951    3.0039    0.0000 C   0  0
    3.8968    0.7523    0.0000 C   0  0
    3.8933    3.7570    0.0000 C   0  0
    5.1972    1.5015    0.0000 C   0  0
    3.8912    5.2578    0.0000 C   0  0
    6.4968    0.7507    0.0000 C   0  0
   -2.1651    1.2500    0.0000 H   0  0
    0.0000   -2.5000    0.0000 H   0  0
   -3.4658   -3.5012    0.0000 H   0  0
   -1.7339   -3.5015    0.0000 H   0  0
    1.7299    2.5026    0.0000 H   0  0
    1.7282    3.5024    0.0000 H   0  0
    3.0305    0.2527    0.0000 H   0  0
    3.8961   -0.2477    0.0000 H   0  0
    3.8952    2.7570    0.0000 H   0  0
    4.7602    3.2585    0.0000 H   0  0
    4.3316    2.0022    0.0000 H   0  0
    5.1979    2.5015    0.0000 H   0  0
    4.7561    5.7596    0.0000 H   0  0
    3.8892    6.2578    0.0000 H   0  0
    3.0243    5.7563    0.0000 H   0  0
    7.3632    1.2498    0.0000 H   0  0
    7.3624    0.2500    0.0000 H   0  0
    6.4961   -0.2493    0.0000 H   0  0
  1  4  1  0
  1  5  1  0
  1  9  2  0
  2  4  2  0
  2  6  1  0
  2  8  1  0
  3  7  1  0
  3 11  2  0
  3 12  2  0
  3 17  1  0
  4 10  1  0
  5 13  2  0
  5 16  2  0
  6 14  2  0
  6 15  2  0
  7  9  1  0
  7  8  2  0
 10 18  1  0
 10 19  1  0
 18 20  1  0
 19 21  1  0
 20 22  1  0
 21 23  1  0
  8 24  1  0
  9 25  1  0
 17 26  1  0
 17 27  1  0
 18 28  1  0
 18 29  1  0
 19 30  1  0
 19 31  1  0
 20 32  1  0
 20 33  1  0
 21 34  1  0
 21 35  1  0
 22 36  1  0
 22 37  1  0
 22 38  1  0
 23 39  1  0
 23 40  1  0
 23 41  1  0
M  END
> <DSSTox_RID>
40543

> <DSSTox_CID>
4238

> <DSSTox_Generic_SID>
24238

> <DSSTox_FileID>
224_TOXCST_v3a

> <STRUCTURE_Formula>
C12H18N4O6S

> <STRUCTURE_MolecularWeight>
346.3595

> <STRUCTURE_ChemicalType>
defined organic

> <STRUCTURE_TestedForm_DefinedOrganic>
parent

> <STRUCTURE_Shown>
tested chemical

> <TestSubstance_ChemicalName>
Oryzalin

> <Source_ChemicalName>
Oryzalin

> <TestSubstance_CASRN>
19044-88-3

> <TestSubstance_Description>
single chemical compound

> <STRUCTURE_ChemicalName_IUPAC>
4-(dipropylamino)-3,5-dinitrobenzenesulfonamide

> <STRUCTURE_SMILES>
[O-][N+](=O)c1cc(cc([N+]([O-])=O)c1N(CCC)CCC)S(N)(=O)=O

> <STRUCTURE_Parent_SMILES>
[O-][N+](=O)c1cc(cc([N+]([O-])=O)c1N(CCC)CCC)S(N)(=O)=O

> <STRUCTURE_InChI>
InChI=1S/C12H18N4O6S/c1-3-5-14(6-4-2)12-10(15(17)18)7-9(23(13,21)22)8-11(12)16(19)20/h7-8H,3-6H2,1-2H3,(H2,13,21,22)

> <STRUCTURE_InChIKey>
UNAHYJYOSSSJHH-UHFFFAOYSA-N

> <Substance_modify_yyyymmdd>
20080429

> <DSSTox_CID_Parent>
4238

> <ChemicalReplicateCount>
1

> <Coord_Metals>
0

> <Index>
224

> <Canonical_Smiles>
CCCN(CCC)c1c(cc(cc1N(=O)=O)S(=O)(=O)N)N(=O)=O

> <Molecular_Weight>
346.35952

> <Frequency>
1

$$$$

  SciTegic          2D

 40 41  0  0  0  0            999 V2000
    2.5987   -1.5004    0.0000 N   0  0
    2.7343   -2.9815    0.0000 N   0  0
    3.9511   -0.8815    0.0000 C   0  0
    4.9531   -1.9978    0.0000 O   0  0
    4.2010   -3.2956    0.0000 C   0  0
    1.2990   -0.7500    0.0000 C   0  0
    1.2990    0.7500    0.0000 C   0  0
    0.0000   -1.5000    0.0000 C   0  0
    0.0000    1.5000    0.0000 C   0  0
   -1.2990   -0.7500    0.0000 C   0  0
   -1.2990    0.7500    0.0000 C   0  0
    4.8082   -4.6653    0.0000 C   0  0
    4.1955    0.2934    0.0000 O   0  0
   -0.0031    3.0008    0.0000 O   0  0
    0.0000   -2.7000    0.0000 Cl  0  0
   -2.3383    1.3500    0.0000 Cl  0  0
   -1.3039    3.7494    0.0000 C   0  0
    3.9249   -5.8787    0.0000 C   0  0
    6.3006   -4.8241    0.0000 C   0  0
    3.2872   -4.5006    0.0000 C   0  0
   -1.3070    5.2502    0.0000 C   0  0
   -2.6023    2.9967    0.0000 C   0  0
    2.1651    1.2500    0.0000 H   0  0
   -2.1651   -1.2500    0.0000 H   0  0
   -0.4388    4.2509    0.0000 H   0  0
    4.3302   -6.7929    0.0000 H   0  0
    2.9305   -5.7729    0.0000 H   0  0
    3.3360   -6.6869    0.0000 H   0  0
    6.7067   -5.7379    0.0000 H   0  0
    6.8891   -4.0156    0.0000 H   0  0
    7.2950   -4.9294    0.0000 H   0  0
    2.8827   -3.5861    0.0000 H   0  0
    2.2929   -4.3934    0.0000 H   0  0
    2.6971   -5.3080    0.0000 H   0  0
   -2.1738    5.7490    0.0000 H   0  0
   -0.4419    5.7517    0.0000 H   0  0
   -1.3086    6.2502    0.0000 H   0  0
   -2.6012    1.9967    0.0000 H   0  0
   -3.4690    3.4955    0.0000 H   0  0
   -3.4677    2.4956    0.0000 H   0  0
  1  2  1  0
  1  3  1  0
  1  6  1  0
  2  5  2  0
  3  4  1  0
  3 13  2  0
  4  5  1  0
  5 12  1  0
  6  7  1  0
  6  8  2  0
  7  9  2  0
  8 10  1  0
  8 15  1  0
  9 14  1  0
  9 11  1  0
 10 11  2  0
 11 16  1  0
 12 18  1  0
 12 19  1  0
 12 20  1  0
 14 17  1  0
 17 21  1  0
 17 22  1  0
  7 23  1  0
 10 24  1  0
 17 25  1  0
 18 26  1  0
 18 27  1  0
 18 28  1  0
 19 29  1  0
 19 30  1  0
 19 31  1  0
 20 32  1  0
 20 33  1  0
 20 34  1  0
 21 35  1  0
 21 36  1  0
 21 37  1  0
 22 38  1  0
 22 39  1  0
 22 40  1  0
M  END
> <DSSTox_RID>
40544

> <DSSTox_CID>
4239

> <DSSTox_Generic_SID>
24239

> <DSSTox_FileID>
225_TOXCST_v3a

> <STRUCTURE_Formula>
C15H18Cl2N2O3

> <STRUCTURE_MolecularWeight>
345.221

> <STRUCTURE_ChemicalType>
defined organic

> <STRUCTURE_TestedForm_DefinedOrganic>
parent

> <STRUCTURE_Shown>
tested chemical

> <TestSubstance_ChemicalName>
Oxadiazon

> <Source_ChemicalName>
Oxadiazon

> <TestSubstance_CASRN>
19666-30-9

> <TestSubstance_Description>
single chemical compound

> <STRUCTURE_ChemicalName_IUPAC>
5-tert-butyl-3-(2,4-dichloro-5-isopropoxyphenyl)-1,3,4-oxadiazol-2(3H)-one

> <STRUCTURE_SMILES>
O=C2O\C(=N/N2c1cc(OC(C)C)c(Cl)cc1Cl)C(C)(C)C

> <STRUCTURE_Parent_SMILES>
O=C2O\C(=N/N2c1cc(OC(C)C)c(Cl)cc1Cl)C(C)(C)C

> <STRUCTURE_InChI>
InChI=1S/C15H18Cl2N2O3/c1-8(2)21-12-7-11(9(16)6-10(12)17)19-14(20)22-13(18-19)15(3,4)5/h6-8H,1-5H3

> <STRUCTURE_InChIKey>
CHNUNORXWHYHNE-UHFFFAOYSA-N

> <Substance_modify_yyyymmdd>
20080429

> <DSSTox_CID_Parent>
4239

> <ChemicalReplicateCount>
1

> <Coord_Metals>
0

> <Index>
225

> <Canonical_Smiles>
CC(C)Oc1cc(N2N=C(OC2=O)C(C)(C)C)c(Cl)cc1Cl

> <Molecular_Weight>
345.22102

> <Frequency>
1

$$$$

  SciTegic          2D

 27 26  0  0  0  0            999 V2000
    9.0999    1.9500    0.0000 O   0  0
    9.0999    0.7500    0.0000 C   0  0
    7.7999    0.0000    0.0000 C   0  0
    6.5000    0.7500    0.0000 N   0  0
    5.2000    0.0000    0.0000 O   0  0
    3.9000    0.7500    0.0000 C   0  0
    3.9000    1.9500    0.0000 O   0  0
    2.6000    0.0000    0.0000 N   0  0
    1.3000    0.7500    0.0000 C   0  0
    7.7969   -1.5008    0.0000 S   0  0
    6.4960   -2.2494    0.0000 C   0  0
   10.3999    0.0000    0.0000 N   0  0
   11.6999    0.7500    0.0000 C   0  0
   10.3968   -1.5008    0.0000 C   0  0
    2.6000   -1.0000    0.0000 H   0  0
    0.4338    0.2503    0.0000 H   0  0
    0.4340    1.2501    0.0000 H   0  0
    1.3000    1.7500    0.0000 H   0  0
    6.4940   -3.2494    0.0000 H   0  0
    5.6291   -2.7477    0.0000 H   0  0
    5.6309   -1.7479    0.0000 H   0  0
   12.5661    0.2503    0.0000 H   0  0
   11.6999    1.7500    0.0000 H   0  0
   12.5659    1.2501    0.0000 H   0  0
    9.5301   -1.9996    0.0000 H   0  0
   10.3953   -2.5008    0.0000 H   0  0
   11.2620   -2.0023    0.0000 H   0  0
  1  2  2  0
  2  3  1  0
  2 12  1  0
  3  4  2  0
  3 10  1  0
  4  5  1  0
  5  6  1  0
  6  7  2  0
  6  8  1  0
  8  9  1  0
 10 11  1  0
 12 13  1  0
 12 14  1  0
  8 15  1  0
  9 16  1  0
  9 17  1  0
  9 18  1  0
 11 19  1  0
 11 20  1  0
 11 21  1  0
 13 22  1  0
 13 23  1  0
 13 24  1  0
 14 25  1  0
 14 26  1  0
 14 27  1  0
M  END
> <DSSTox_RID>
40545

> <DSSTox_CID>
1086

> <DSSTox_Generic_SID>
21086

> <DSSTox_FileID>
226_TOXCST_v3a

> <STRUCTURE_Formula>
C7H13N3O3S

> <STRUCTURE_MolecularWeight>
219.2614

> <STRUCTURE_ChemicalType>
defined organic

> <STRUCTURE_TestedForm_DefinedOrganic>
parent

> <STRUCTURE_Shown>
tested chemical

> <TestSubstance_ChemicalName>
Oxamyl

> <Source_ChemicalName>
Oxamyl

> <TestSubstance_CASRN>
23135-22-0

> <TestSubstance_Description>
single chemical compound

> <STRUCTURE_ChemicalName_IUPAC>
methyl (1Z)-2-(dimethylamino)-N-{[(methylamino)carbonyl]oxy}-2-oxoethanimidothioate

> <STRUCTURE_SMILES>
O=C(C(=NOC(=O)NC)SC)N(C)C

> <STRUCTURE_Parent_SMILES>
O=C(C(=NOC(=O)NC)SC)N(C)C

> <STRUCTURE_InChI>
InChI=1S/C7H13N3O3S/c1-8-7(12)13-9-5(14-4)6(11)10(2)3/h1-4H3,(H,8,12)/b9-5-

> <STRUCTURE_InChIKey>
KZAUOCCYDRDERY-UITAMQMPSA-N

> <Substance_modify_yyyymmdd>
20080429

> <DSSTox_CID_Parent>
1086

> <ChemicalReplicateCount>
1

> <Note_TOXCST>
IUPAC and SMILES corrected v3a

> <Coord_Metals>
0

> <Index>
226

> <Canonical_Smiles>
CNC(=O)ON=C(SC)C(=O)N(C)C

> <Molecular_Weight>
219.26141

> <Frequency>
1

$$$$

  SciTegic          2D

 46 48  0  0  0  0            999 V2000
    2.5973   -1.5031    0.0000 C   0  0
    3.6375   -0.9049    0.0000 O   0  0
    1.2990   -0.7500    0.0000 C   0  0
    2.5951   -3.0039    0.0000 O   0  0
    1.2990    0.7500    0.0000 C   0  0
    0.0000   -1.5000    0.0000 C   0  0
    0.0000    1.5000    0.0000 C   0  0
   -1.2990   -0.7500    0.0000 C   0  0
   -1.2990    0.7500    0.0000 C   0  0
    2.5988    1.5004    0.0000 S   0  0
    2.5984    2.7004    0.0000 O   0  0
    3.6377    2.1009    0.0000 O   0  0
    3.8990    0.7508    0.0000 N   0  0
    5.1988    1.5013    0.0000 C   0  0
    5.1984    2.7013    0.0000 O   0  0
    6.4990    0.7517    0.0000 N   0  0
    9.0994    0.7548    0.0000 N   0  0
    7.7958    3.0022    0.0000 N   0  0
    7.7987    1.5021    0.0000 C   0  0
   10.3938    3.0075    0.0000 C   0  0
   10.3969    1.5075    0.0000 C   0  0
    9.0933    3.7548    0.0000 C   0  0
    9.0902    5.2556    0.0000 C   0  0
   11.6982    0.7597    0.0000 C   0  0
    5.6514   -2.7464    0.0000 O   0  0
    4.2033   -2.3554    0.0000 C   0  0
    3.8933   -3.7570    0.0000 C   0  0
    5.2604   -4.1945    0.0000 C   0  0
    0.0000   -2.5000    0.0000 H   0  0
    0.0000    2.5000    0.0000 H   0  0
   -2.1651   -1.2500    0.0000 H   0  0
   -2.1651    1.2500    0.0000 H   0  0
    3.8993   -0.2492    0.0000 H   0  0
    6.4993   -0.2483    0.0000 H   0  0
   11.2588    3.5092    0.0000 H   0  0
    8.2235    5.7544    0.0000 H   0  0
    9.9554    5.7571    0.0000 H   0  0
    9.0886    6.2556    0.0000 H   0  0
   11.7008   -0.2403    0.0000 H   0  0
   12.5630    1.2618    0.0000 H   0  0
   12.5654    0.2619    0.0000 H   0  0
    3.2035   -2.3784    0.0000 H   0  0
    4.6863   -1.4798    0.0000 H   0  0
    3.8916   -4.7570    0.0000 H   0  0
    4.7374   -5.0469    0.0000 H   0  0
    6.2602   -4.2178    0.0000 H   0  0
  1  2  2  0
  1  3  1  0
  1  4  1  0
  3  5  2  0
  3  6  1  0
  4 27  1  0
  5  7  1  0
  5 10  1  0
  6  8  2  0
  7  9  2  0
  8  9  1  0
 10 11  2  0
 10 12  2  0
 10 13  1  0
 13 14  1  0
 14 15  2  0
 14 16  1  0
 16 19  1  0
 17 19  2  0
 17 21  1  0
 18 19  1  0
 18 22  2  0
 20 21  2  0
 20 22  1  0
 21 24  1  0
 22 23  1  0
 25 26  1  0
 25 28  1  0
 26 27  1  0
 27 28  1  0
  6 29  1  0
  7 30  1  0
  8 31  1  0
  9 32  1  0
 13 33  1  0
 16 34  1  0
 20 35  1  0
 23 36  1  0
 23 37  1  0
 23 38  1  0
 24 39  1  0
 24 40  1  0
 24 41  1  0
 26 42  1  0
 26 43  1  0
 27 44  1  0
 28 45  1  0
 28 46  1  0
M  END
> <DSSTox_RID>
40356

> <DSSTox_CID>
14364

> <DSSTox_Generic_SID>
34364

> <DSSTox_FileID>
227_TOXCST_v3a

> <STRUCTURE_Formula>
C17H18N4O6S

> <STRUCTURE_MolecularWeight>
406.413

> <STRUCTURE_ChemicalType>
defined organic

> <STRUCTURE_TestedForm_DefinedOrganic>
parent

> <STRUCTURE_Shown>
tested chemical

> <TestSubstance_ChemicalName>
Oxasulfuron

> <Source_ChemicalName>
Oxasulfuron

> <TestSubstance_CASRN>
144651-06-9

> <TestSubstance_Description>
single chemical compound

> <STRUCTURE_ChemicalName_IUPAC>
oxetan-3-yl 2-({[(4,6-dimethylpyrimidin-2-yl)carbamoyl]amino}sulfonyl)benzoate

> <STRUCTURE_SMILES>
O=C(OC2COC2)C1=C(S(=O)(NC(NC3=NC(C)=CC(C)=N3)=O)=O)C=CC=C1

> <STRUCTURE_Parent_SMILES>
O=C(OC2COC2)C1=C(S(=O)(NC(NC3=NC(C)=CC(C)=N3)=O)=O)C=CC=C1

> <STRUCTURE_InChI>
InChI=1S/C17H18N4O6S/c1-10-7-11(2)19-16(18-10)20-17(23)21-28(24,25)14-6-4-3-5-13(14)15(22)27-12-8-26-9-12/h3-7,12H,8-9H2,1-2H3,(H2,18,19,20,21,23)

> <STRUCTURE_InChIKey>
IOXAXYHXMLCCJJ-UHFFFAOYSA-N

> <Substance_modify_yyyymmdd>
20080429

> <DSSTox_CID_Parent>
14364

> <ChemicalReplicateCount>
1

> <Coord_Metals>
0

> <Index>
227

> <Canonical_Smiles>
Cc1cc(C)nc(NC(=O)NS(=O)(=O)c2ccccc2C(=O)OC3COC3)n1

> <Molecular_Weight>
406.41302

> <Frequency>
1

$$$$

  SciTegic          2D

 35 36  0  0  0  0            999 V2000
    2.5973   -1.5031    0.0000 N   0  0
    1.2990   -0.7500    0.0000 C   0  0
   -7.7891   -1.5185    0.0000 C   0  0
    1.2990    0.7500    0.0000 C   0  0
   -6.4920   -0.7636    0.0000 C   0  0
   -3.8990    0.7455    0.0000 C   0  0
   -5.2007    1.4909    0.0000 C   0  0
    0.0000    1.5000    0.0000 C   0  0
    0.0000   -1.5000    0.0000 C   0  0
   -6.4972    0.7364    0.0000 C   0  0
    2.5956   -2.7031    0.0000 O   0  0
   -2.6003    1.4977    0.0000 O   0  0
    3.6375   -0.9049    0.0000 O   0  0
   -1.2990    0.7500    0.0000 C   0  0
   -5.1903   -1.5091    0.0000 C   0  0
   -3.8939   -0.7546    0.0000 C   0  0
   -7.7857   -2.7185    0.0000 F   0  0
   -8.8302   -0.9218    0.0000 F   0  0
   -8.8266   -2.1216    0.0000 F   0  0
   -1.2990   -0.7500    0.0000 C   0  0
   -5.2049    2.6909    0.0000 Cl  0  0
    2.5972    1.5031    0.0000 O   0  0
    2.5951    3.0039    0.0000 C   0  0
    3.8933    3.7570    0.0000 C   0  0
    0.0000    2.5000    0.0000 H   0  0
    0.0000   -2.5000    0.0000 H   0  0
   -7.3649    1.2334    0.0000 H   0  0
   -5.1869   -2.5091    0.0000 H   0  0
   -3.0262   -1.2516    0.0000 H   0  0
   -2.1651   -1.2500    0.0000 H   0  0
    1.7282    3.5024    0.0000 H   0  0
    1.7299    2.5026    0.0000 H   0  0
    3.8919    4.7570    0.0000 H   0  0
    4.7602    3.2585    0.0000 H   0  0
    4.7585    4.2584    0.0000 H   0  0
  1  2  1  0
  1 11  2  0
  1 13  2  0
  2  4  1  0
  2  9  2  0
  3  5  1  0
  3 17  1  0
  3 18  1  0
  3 19  1  0
  4  8  2  0
  4 22  1  0
  5 15  2  0
  5 10  1  0
  6 12  1  0
  6  7  1  0
  6 16  2  0
  7 10  2  0
  7 21  1  0
  8 14  1  0
  9 20  1  0
 12 14  1  0
 14 20  2  0
 15 16  1  0
 22 23  1  0
 23 24  1  0
  8 25  1  0
  9 26  1  0
 10 27  1  0
 15 28  1  0
 16 29  1  0
 20 30  1  0
 23 31  1  0
 23 32  1  0
 24 33  1  0
 24 34  1  0
 24 35  1  0
M  END
> <DSSTox_RID>
40546

> <DSSTox_CID>
4241

> <DSSTox_Generic_SID>
24241

> <DSSTox_FileID>
228_TOXCST_v3a

> <STRUCTURE_Formula>
C15H11ClF3NO4

> <STRUCTURE_MolecularWeight>
361.7003

> <STRUCTURE_ChemicalType>
defined organic

> <STRUCTURE_TestedForm_DefinedOrganic>
parent

> <STRUCTURE_Shown>
tested chemical

> <TestSubstance_ChemicalName>
Oxyfluorfen

> <Source_ChemicalName>
Oxyfluorfen

> <TestSubstance_CASRN>
42874-03-3

> <TestSubstance_Description>
single chemical compound

> <STRUCTURE_ChemicalName_IUPAC>
2-chloro-1-(3-ethoxy-4-nitrophenoxy)-4-(trifluoromethyl)benzene

> <STRUCTURE_SMILES>
Clc2cc(ccc2Oc1ccc([N+]([O-])=O)c(OCC)c1)C(F)(F)F

> <STRUCTURE_Parent_SMILES>
Clc2cc(ccc2Oc1ccc([N+]([O-])=O)c(OCC)c1)C(F)(F)F

> <STRUCTURE_InChI>
InChI=1S/C15H11ClF3NO4/c1-2-23-14-8-10(4-5-12(14)20(21)22)24-13-6-3-9(7-11(13)16)15(17,18)19/h3-8H,2H2,1H3

> <STRUCTURE_InChIKey>
OQMBBFQZGJFLBU-UHFFFAOYSA-N

> <Substance_modify_yyyymmdd>
20080429

> <DSSTox_CID_Parent>
4241

> <ChemicalReplicateCount>
1

> <Coord_Metals>
0

> <Index>
228

> <Canonical_Smiles>
CCOc1cc(Oc2ccc(cc2Cl)C(F)(F)F)ccc1N(=O)=O

> <Molecular_Weight>
361.70034

> <Frequency>
1

$$$$

  SciTegic          2D

 57 60  0  0  0  0            999 V2000
    1.9711    0.2243    0.0000 C   0  0
   -0.6089    0.2243    0.0000 C   0  0
    1.9711   -1.2660    0.0000 C   0  0
    4.5671    0.2243    0.0000 C   0  0
    0.6891    0.9935    0.0000 C   0  0
   -0.6089   -1.2660    0.0000 C   0  0
    3.2691    0.9935    0.0000 C   0  0
    4.5671   -1.2660    0.0000 C   0  0
   -1.9070    0.9935    0.0000 C   0  0
   -1.9070   -2.0191    0.0000 C   0  0
    3.2691   -2.0191    0.0000 C   0  0
    0.6891   -2.0191    0.0000 C   0  0
   -3.2050    0.2243    0.0000 C   0  0
   -3.2050   -1.2660    0.0000 C   0  0
    5.8752    0.9603    0.0000 C   0  0
    4.2482   -3.1297    0.0000 N   0  0
    3.2722    2.4940    0.0000 O   0  0
   -1.9070    2.1935    0.0000 O   0  0
   -4.5030    0.9935    0.0000 C   0  0
    1.9739    1.7256    0.0000 O   0  0
    6.9076    0.3486    0.0000 O   0  0
    0.6937    2.4940    0.0000 O   0  0
    5.4337   -1.7650    0.0000 O   0  0
    1.9909   -2.7247    0.0000 O   0  0
    5.8928    2.4611    0.0000 N   0  0
   -4.5030   -2.0191    0.0000 C   0  0
   -4.5061    2.4940    0.0000 O   0  0
   -5.8010   -1.2660    0.0000 C   0  0
   -5.8010    0.2243    0.0000 C   0  0
    5.7263   -2.8697    0.0000 C   0  0
    3.7376   -4.5410    0.0000 C   0  0
   -0.6070   -2.7279    0.0000 O   0  0
   -3.2071   -2.7282    0.0000 C   0  0
    2.8357   -0.7636    0.0000 H   0  0
    0.2571   -0.7660    0.0000 H   0  0
    2.3912   -2.4980    0.0000 H   0  0
   -0.1874   -2.5005    0.0000 H   0  0
    4.1389    2.9928    0.0000 H   0  0
    2.8405    2.2246    0.0000 H   0  0
   -0.1705    2.9972    0.0000 H   0  0
    2.8558   -2.2228    0.0000 H   0  0
    6.7642    2.9515    0.0000 H   0  0
    5.0325    2.9709    0.0000 H   0  0
   -4.5030   -3.0191    0.0000 H   0  0
   -5.3728    2.9928    0.0000 H   0  0
   -6.6676   -1.7650    0.0000 H   0  0
   -6.6698    0.7194    0.0000 H   0  0
    6.3693   -3.6356    0.0000 H   0  0
    6.0685   -1.9301    0.0000 H   0  0
    6.7111   -2.6960    0.0000 H   0  0
    4.3814   -5.3062    0.0000 H   0  0
    2.7531   -4.7163    0.0000 H   0  0
    3.3970   -5.4812    0.0000 H   0  0
    0.2592   -2.2282    0.0000 H   0  0
   -3.2079   -3.7282    0.0000 H   0  0
   -2.3414   -3.2287    0.0000 H   0  0
   -4.0729   -2.2278    0.0000 H   0  0
  1  3  1  0
  1  5  1  0
  1  7  1  0
  1 20  1  0
  2  5  2  0
  2  6  1  0
  2  9  1  0
  3 11  1  0
  3 12  1  0
  4  7  2  0
  4  8  1  0
  4 15  1  0
  5 22  1  0
  6 10  1  0
  6 12  1  0
  7 17  1  0
  8 23  2  0
  8 11  1  0
  9 13  1  0
  9 18  2  0
 10 14  1  0
 10 32  1  0
 10 33  1  0
 11 16  1  0
 12 24  1  0
 13 14  2  0
 13 19  1  0
 14 26  1  0
 15 21  2  0
 15 25  1  0
 16 30  1  0
 16 31  1  0
 19 27  1  0
 19 29  2  0
 26 28  2  0
 28 29  1  0
  3 34  1  0
  6 35  1  0
 11 36  1  0
 12 37  1  0
 17 38  1  0
 20 39  1  0
 22 40  1  0
 24 41  1  0
 25 42  1  0
 25 43  1  0
 26 44  1  0
 27 45  1  0
 28 46  1  0
 29 47  1  0
 30 48  1  0
 30 49  1  0
 30 50  1  0
 31 51  1  0
 31 52  1  0
 31 53  1  0
 32 54  1  0
 33 55  1  0
 33 56  1  0
 33 57  1  0
M  END
> <DSSTox_RID>
40317

> <DSSTox_CID>
3412

> <DSSTox_Generic_SID>
23412

> <DSSTox_FileID>
229_TOXCST_v3a

> <STRUCTURE_Formula>
C22H28N2O11

> <STRUCTURE_MolecularWeight>
496.4645

> <STRUCTURE_ChemicalType>
defined organic

> <STRUCTURE_TestedForm_DefinedOrganic>
complex 2H2O

> <STRUCTURE_Shown>
tested chemical

> <TestSubstance_ChemicalName>
Oxytetracycline dihydrate

> <Source_ChemicalName>
Oxytetracycline dihydrate

> <TestSubstance_CASRN>
6153-64-6

> <TestSubstance_Description>
single chemical compound

> <ChemicalNote>
stereochem; tautomers; parent [79-57-2]

> <STRUCTURE_ChemicalName_IUPAC>
(4S,4aR,5S,5aR,6S,12aS)-4-(dimethylamino)-3,5,6,10,12,12a-hexahydroxy-6-methyl-1,11-dioxo-1,4,4a,5,5a,6,11,12a-octahydrotetracene-2-carboxamide dihydrate

> <STRUCTURE_SMILES>
O=C1[C@](C(O)=C2[C@@]3([H])[C@@](O)(C)C4=C(C(O)=CC=C4)C2=O)(O)[C@]([C@H]3O)([H])[C@H](N(C)C)C(O)=C1C(N)=O.O.O

> <STRUCTURE_Parent_SMILES>
[C@]\21([C@H]([C@@H](C(=C(/C1=O)C(=O)N)\O)N(C)C)[C@H]([C@H]3/C(=C/2O)C(c4c([C@]3(O)C)cccc4O)=O)O)O

> <STRUCTURE_InChI>
InChI=1S/C22H24N2O9.2H2O/c1-21(32)7-5-4-6-8(25)9(7)15(26)10-12(21)17(28)13-14(24(2)3)16(27)11(20(23)31)19(30)22(13,33)18(10)29;;/h4-6,12-14,17,25,27-29,32-33H,1-3H3,(H2,23,31);2*1H2/t12-,13-,14+,17+,2
1-,22+;;/m1../s1

> <STRUCTURE_InChIKey>
SRRPEXWCHWWJOC-JEKSYDDFSA-N

> <Substance_modify_yyyymmdd>
20080429

> <DSSTox_CID_Parent>
14260

> <ChemicalReplicateCount>
1

> <Note_TOXCST>
changed to dihydrate v2b

> <Coord_Metals>
0

> <Index>
229

> <Canonical_Smiles>
CN(C)C1C2C(O)C3C(=C(O)C2(O)C(=C(C(=O)N)C1=O)O)C(=O)c4c(O)cccc4C3(C)O

> <Molecular_Weight>
460.43396

> <Frequency>
1

$$$$

  SciTegic          2D

 40 41  0  0  0  0            999 V2000
    2.7161   -4.4600    0.0000 N   0  0
    1.7513   -3.3103    0.0000 C   0  0
    4.7602   -5.7294    0.0000 N   0  0
    2.3391   -5.8987    0.0000 N   0  0
    0.2735   -3.5714    0.0000 C   0  0
    4.1983   -4.3386    0.0000 C   0  0
    3.6111   -6.6935    0.0000 C   0  0
   -0.2389   -4.9820    0.0000 C   0  0
    2.7153   -2.1600    0.0000 C   0  0
    2.2020   -0.7497    0.0000 C   0  0
   -0.6912   -2.4217    0.0000 O   0  0
    0.2736    1.5484    0.0000 C   0  0
   -0.4977    2.4677    0.0000 Cl  0  0
    2.7150    0.6598    0.0000 C   0  0
    0.7248   -1.0102    0.0000 C   0  0
    1.7508    1.8089    0.0000 C   0  0
   -0.2394    0.1389    0.0000 C   0  0
   -1.7166   -5.2445    0.0000 C   0  0
   -1.2257   -3.8128    0.0000 C   0  0
    0.7268   -6.1308    0.0000 C   0  0
    1.4095   -4.2501    0.0000 H   0  0
   -0.7113   -3.7454    0.0000 H   0  0
    4.7231   -3.4874    0.0000 H   0  0
    3.6809   -7.6911    0.0000 H   0  0
    3.3580   -1.3939    0.0000 H   0  0
    3.7002   -2.3334    0.0000 H   0  0
   -0.3498   -1.4818    0.0000 H   0  0
    3.6998    0.8335    0.0000 H   0  0
    0.3828   -1.9499    0.0000 H   0  0
    2.0929    2.7486    0.0000 H   0  0
   -1.2242   -0.0348    0.0000 H   0  0
   -2.0581   -6.1845    0.0000 H   0  0
   -2.3602   -4.4791    0.0000 H   0  0
   -2.7013   -5.4190    0.0000 H   0  0
   -2.2101   -3.9886    0.0000 H   0  0
   -1.8703   -3.0483    0.0000 H   0  0
   -0.8860   -2.8723    0.0000 H   0  0
    0.3863   -7.0710    0.0000 H   0  0
    1.7114   -5.9559    0.0000 H   0  0
   -0.2577   -6.3058    0.0000 H   0  0
  2  1  1  0
  1  4  1  0
  1  6  1  0
  2  5  1  0
  2  9  1  0
  3  6  2  0
  3  7  1  0
  4  7  2  0
  5  8  1  0
  5 11  1  0
  8 18  1  0
  8 19  1  0
  8 20  1  0
  9 10  1  0
 10 14  1  0
 10 15  2  0
 12 17  2  0
 12 13  1  0
 12 16  1  0
 14 16  2  0
 15 17  1  0
  2 21  1  0
  5 22  1  0
  6 23  1  0
  7 24  1  0
  9 25  1  0
  9 26  1  0
 11 27  1  0
 14 28  1  0
 15 29  1  0
 16 30  1  0
 17 31  1  0
 18 32  1  0
 18 33  1  0
 18 34  1  0
 19 35  1  0
 19 36  1  0
 19 37  1  0
 20 38  1  0
 20 39  1  0
 20 40  1  0
M  END
> <DSSTox_RID>
40547

> <DSSTox_CID>
4242

> <DSSTox_Generic_SID>
24242

> <DSSTox_FileID>
230_TOXCST_v3a

> <STRUCTURE_Formula>
C15H20ClN3O

> <STRUCTURE_MolecularWeight>
293.7918

> <STRUCTURE_ChemicalType>
defined organic

> <STRUCTURE_TestedForm_DefinedOrganic>
parent

> <STRUCTURE_Shown>
representative isomer in mixture

> <TestSubstance_ChemicalName>
Paclobutrazol

> <Source_ChemicalName>
Paclobutrazol

> <TestSubstance_CASRN>
76738-62-0

> <TestSubstance_Description>
mixture or formulation

> <ChemicalNote>
mixture of (2S,3S) and (2R,3R); structure shown (2S,3S); stereochem

> <STRUCTURE_ChemicalName_IUPAC>
(2S,3S)-1-(4-chlorophenyl)-4,4-dimethyl-2-(1H-1,2,4-triazol-1-yl)pentan-3-ol

> <STRUCTURE_SMILES>
O[C@H]([C@H](Cc1ccc(Cl)cc1)n2cncn2)C(C)(C)C

> <STRUCTURE_Parent_SMILES>
O[C@H]([C@H](Cc1ccc(Cl)cc1)n2cncn2)C(C)(C)C

> <STRUCTURE_InChI>
InChI=1S/C15H20ClN3O/c1-15(2,3)14(20)13(19-10-17-9-18-19)8-11-4-6-12(16)7-5-11/h4-7,9-10,13-14,20H,8H2,1-3H3/t13-,14+/m0/s1

> <STRUCTURE_InChIKey>
RMOGWMIKYWRTKW-UONOGXRCSA-N

> <Substance_modify_yyyymmdd>
20080429

> <DSSTox_CID_Parent>
4242

> <ChemicalReplicateCount>
1

> <Coord_Metals>
0

> <Index>
230

> <Canonical_Smiles>
CC(C)(C)C(O)C(Cc1ccc(Cl)cc1)n2cncn2

> <Molecular_Weight>
293.7918

> <Frequency>
1

$$$$

  SciTegic          2D

 32 32  0  0  0  0            999 V2000
    3.9019    0.4438    0.0000 S   0  0
    3.8990   -0.7562    0.0000 P   0  0
    2.5973   -1.5031    0.0000 O   0  0
    2.5923   -3.0039    0.0000 C   0  0
    3.8873   -3.7609    0.0000 C   0  0
    3.8792   -5.2609    0.0000 C   0  0
    2.5761   -6.0039    0.0000 C   0  0
    1.2812   -5.2469    0.0000 C   0  0
    1.2892   -3.7469    0.0000 C   0  0
    2.5650   -7.5047    0.0000 N   0  0
    1.5217   -8.0976    0.0000 O   0  0
    3.5999   -8.1120    0.0000 O   0  0
    5.1972   -1.5092    0.0000 O   0  0
    6.4990   -0.7623    0.0000 C   0  0
    7.7972   -1.5154    0.0000 C   0  0
    2.5769    0.0138    0.0000 O   0  0
    2.5817    1.5146    0.0000 C   0  0
    1.2848    2.2700    0.0000 C   0  0
    4.7560   -3.2656    0.0000 H   0  0
    4.7425   -5.7655    0.0000 H   0  0
    0.4125   -5.7422    0.0000 H   0  0
    0.4259   -3.2423    0.0000 H   0  0
    6.5014    0.2377    0.0000 H   0  0
    5.6342   -0.2601    0.0000 H   0  0
    8.6646   -1.0177    0.0000 H   0  0
    7.7948   -2.5154    0.0000 H   0  0
    8.6620   -2.0176    0.0000 H   0  0
    3.4461    1.0117    0.0000 H   0  0
    3.4495    2.0116    0.0000 H   0  0
    1.2880    3.2700    0.0000 H   0  0
    0.4205    2.7729    0.0000 H   0  0
    0.4171    1.7730    0.0000 H   0  0
  1  2  2  0
  2  3  1  0
  2 13  1  0
  2 16  1  0
  3  4  1  0
  4  5  2  0
  4  9  1  0
  5  6  1  0
  6  7  2  0
  7  8  1  0
  7 10  1  0
  8  9  2  0
 10 11  2  0
 10 12  2  0
 13 14  1  0
 14 15  1  0
 16 17  1  0
 17 18  1  0
  5 19  1  0
  6 20  1  0
  8 21  1  0
  9 22  1  0
 14 23  1  0
 14 24  1  0
 15 25  1  0
 15 26  1  0
 15 27  1  0
 17 28  1  0
 17 29  1  0
 18 30  1  0
 18 31  1  0
 18 32  1  0
M  END
> <DSSTox_RID>
40548

> <DSSTox_CID>
1100

> <DSSTox_Generic_SID>
21100

> <DSSTox_FileID>
231_TOXCST_v3a

> <STRUCTURE_Formula>
C10H14NO5PS

> <STRUCTURE_MolecularWeight>
291.2606

> <STRUCTURE_ChemicalType>
defined organic

> <STRUCTURE_TestedForm_DefinedOrganic>
parent

> <STRUCTURE_Shown>
tested chemical

> <TestSubstance_ChemicalName>
Parathion

> <Source_ChemicalName>
Parathion

> <TestSubstance_CASRN>
56-38-2

> <TestSubstance_Description>
single chemical compound

> <STRUCTURE_ChemicalName_IUPAC>
O,O-diethyl O-(4-nitrophenyl) thiophosphate

> <STRUCTURE_SMILES>
S=P(OC1=CC=C(C=C1)[N+](=O)[O-])(OCC)OCC

> <STRUCTURE_Parent_SMILES>
S=P(OC1=CC=C(C=C1)[N+](=O)[O-])(OCC)OCC

> <STRUCTURE_InChI>
InChI=1S/C10H14NO5PS/c1-3-14-17(18,15-4-2)16-10-7-5-9(6-8-10)11(12)13/h5-8H,3-4H2,1-2H3

> <STRUCTURE_InChIKey>
LCCNCVORNKJIRZ-UHFFFAOYSA-N

> <Substance_modify_yyyymmdd>
20080429

> <DSSTox_CID_Parent>
1100

> <ChemicalReplicateCount>
1

> <Relationship_CID>
demethylated analog of 855

> <Coord_Metals>
0

> <Index>
231

> <Canonical_Smiles>
CCOP(=S)(OCC)Oc1ccc(cc1)N(=O)=O

> <Molecular_Weight>
291.26062

> <Frequency>
1

$$$$

  SciTegic          2D

 26 26  0  0  0  0            999 V2000
    3.6337   -3.6051    0.0000 S   0  0
    2.5951   -3.0039    0.0000 P   0  0
    2.5973   -1.5031    0.0000 O   0  0
    1.2990   -0.7500    0.0000 C   0  0
    1.2990    0.7500    0.0000 C   0  0
    0.0000    1.5000    0.0000 C   0  0
   -1.2990    0.7500    0.0000 C   0  0
   -1.2990   -0.7500    0.0000 C   0  0
    0.0000   -1.5000    0.0000 C   0  0
   -2.6003    1.4977    0.0000 N   0  0
   -3.6387    0.8962    0.0000 O   0  0
   -2.6024    2.6977    0.0000 O   0  0
    1.2948   -3.7533    0.0000 O   0  0
    1.2926   -5.2541    0.0000 C   0  0
    3.9220   -2.2423    0.0000 O   0  0
    5.2203   -2.9952    0.0000 C   0  0
    2.1651    1.2500    0.0000 H   0  0
    0.0000    2.5000    0.0000 H   0  0
   -2.1651   -1.2500    0.0000 H   0  0
    0.0000   -2.5000    0.0000 H   0  0
    0.4262   -5.7534    0.0000 H   0  0
    2.1581   -5.7551    0.0000 H   0  0
    1.2917   -6.2541    0.0000 H   0  0
    6.0876   -2.4974    0.0000 H   0  0
    5.2181   -3.9952    0.0000 H   0  0
    6.0852   -3.4972    0.0000 H   0  0
  1  2  2  0
  2  3  1  0
  2 13  1  0
  2 15  1  0
  3  4  1  0
  4  5  2  0
  4  9  1  0
  5  6  1  0
  6  7  2  0
  7  8  1  0
  7 10  1  0
  8  9  2  0
 10 11  2  0
 10 12  2  0
 13 14  1  0
 15 16  1  0
  5 17  1  0
  6 18  1  0
  8 19  1  0
  9 20  1  0
 14 21  1  0
 14 22  1  0
 14 23  1  0
 16 24  1  0
 16 25  1  0
 16 26  1  0
M  END
> <DSSTox_RID>
40524

> <DSSTox_CID>
855

> <DSSTox_Generic_SID>
20855

> <DSSTox_FileID>
232_TOXCST_v3a

> <STRUCTURE_Formula>
C8H10NO5PS

> <STRUCTURE_MolecularWeight>
263.2075

> <STRUCTURE_ChemicalType>
defined organic

> <STRUCTURE_TestedForm_DefinedOrganic>
parent

> <STRUCTURE_Shown>
tested chemical

> <TestSubstance_ChemicalName>
Parathion-methyl

> <Source_ChemicalName>
Parathion-methyl

> <TestSubstance_CASRN>
298-00-0

> <TestSubstance_Description>
single chemical compound

> <STRUCTURE_ChemicalName_IUPAC>
O,O-dimethyl O-(4-nitrophenyl) thiophosphate

> <STRUCTURE_SMILES>
S=P(OC1=CC=C(C=C1)[N+](=O)[O-])(OC)OC

> <STRUCTURE_Parent_SMILES>
S=P(OC1=CC=C(C=C1)[N+](=O)[O-])(OC)OC

> <STRUCTURE_InChI>
InChI=1S/C8H10NO5PS/c1-12-15(16,13-2)14-8-5-3-7(4-6-8)9(10)11/h3-6H,1-2H3

> <STRUCTURE_InChIKey>
RLBIQVVOMOPOHC-UHFFFAOYSA-N

> <Substance_modify_yyyymmdd>
20080429

> <DSSTox_CID_Parent>
855

> <ChemicalReplicateCount>
1

> <Relationship_CID>
methyl analog of 1100

> <Coord_Metals>
0

> <Index>
232

> <Canonical_Smiles>
COP(=S)(OC)Oc1ccc(cc1)N(=O)=O

> <Molecular_Weight>
263.20746

> <Frequency>
1

$$$$

  SciTegic          2D

 39 39  0  0  0  0            999 V2000
    1.2990   -0.7500    0.0000 C   0  0
    0.0000    1.5000    0.0000 C   0  0
    1.2990    0.7500    0.0000 C   0  0
    2.5973   -1.5031    0.0000 N   0  0
   -0.5162    2.9093    0.0000 N   0  0
   -1.2990    0.7500    0.0000 C   0  0
    0.0000   -1.5000    0.0000 C   0  0
   -1.2990   -0.7500    0.0000 C   0  0
    2.5972    1.5031    0.0000 N   0  0
    2.5956   -2.7031    0.0000 O   0  0
   -1.6983    3.1160    0.0000 O   0  0
    0.2535    3.8299    0.0000 O   0  0
    3.6375   -0.9049    0.0000 O   0  0
    2.5951    3.0039    0.0000 C   0  0
   -2.5988    1.5004    0.0000 C   0  0
   -2.5988   -1.5004    0.0000 C   0  0
    1.2947    3.7533    0.0000 C   0  0
    3.8939    3.7557    0.0000 C   0  0
    1.2926    5.2541    0.0000 C   0  0
    5.1950    3.0076    0.0000 C   0  0
    0.0000   -2.5000    0.0000 H   0  0
    3.4641    1.0046    0.0000 H   0  0
    1.7296    2.5030    0.0000 H   0  0
   -2.5994    2.5004    0.0000 H   0  0
   -3.4647    1.0001    0.0000 H   0  0
   -3.4651    2.0000    0.0000 H   0  0
   -3.4651   -1.0010    0.0000 H   0  0
   -2.5985   -2.5004    0.0000 H   0  0
   -3.4646   -2.0008    0.0000 H   0  0
    1.2957    2.7533    0.0000 H   0  0
    0.4293    3.2523    0.0000 H   0  0
    4.7592    4.2571    0.0000 H   0  0
    3.8925    4.7557    0.0000 H   0  0
    0.4262    5.7534    0.0000 H   0  0
    1.2916    6.2541    0.0000 H   0  0
    2.1581    5.7551    0.0000 H   0  0
    6.0605    3.5086    0.0000 H   0  0
    6.0617    2.5087    0.0000 H   0  0
    5.1964    2.0076    0.0000 H   0  0
  1  3  1  0
  1  4  1  0
  1  7  2  0
  2  3  2  0
  2  5  1  0
  2  6  1  0
  3  9  1  0
  4 10  2  0
  4 13  2  0
  5 11  2  0
  5 12  2  0
  6  8  2  0
  6 15  1  0
  7  8  1  0
  8 16  1  0
  9 14  1  0
 14 17  1  0
 14 18  1  0
 17 19  1  0
 18 20  1  0
  7 21  1  0
  9 22  1  0
 14 23  1  0
 15 24  1  0
 15 25  1  0
 15 26  1  0
 16 27  1  0
 16 28  1  0
 16 29  1  0
 17 30  1  0
 17 31  1  0
 18 32  1  0
 18 33  1  0
 19 34  1  0
 19 35  1  0
 19 36  1  0
 20 37  1  0
 20 38  1  0
 20 39  1  0
M  END
> <DSSTox_RID>
40549

> <DSSTox_CID>
4245

> <DSSTox_Generic_SID>
24245

> <DSSTox_FileID>
233_TOXCST_v3a

> <STRUCTURE_Formula>
C13H19N3O4

> <STRUCTURE_MolecularWeight>
281.3077

> <STRUCTURE_ChemicalType>
defined organic

> <STRUCTURE_TestedForm_DefinedOrganic>
parent

> <STRUCTURE_Shown>
tested chemical

> <TestSubstance_ChemicalName>
Pendimethalin

> <Source_ChemicalName>
Pendimethalin

> <TestSubstance_CASRN>
40487-42-1

> <TestSubstance_Description>
single chemical compound

> <STRUCTURE_ChemicalName_IUPAC>
N-(1-ethylpropyl)-3,4-dimethyl-2,6-dinitroaniline

> <STRUCTURE_SMILES>
[O-][N+](=O)c1c(C)c(C)cc([N+]([O-])=O)c1NC(CC)CC

> <STRUCTURE_Parent_SMILES>
[O-][N+](=O)c1c(C)c(C)cc([N+]([O-])=O)c1NC(CC)CC

> <STRUCTURE_InChI>
InChI=1S/C13H19N3O4/c1-5-10(6-2)14-12-11(15(17)18)7-8(3)9(4)13(12)16(19)20/h7,10,14H,5-6H2,1-4H3

> <STRUCTURE_InChIKey>
CHIFOSRWCNZCFN-UHFFFAOYSA-N

> <Substance_modify_yyyymmdd>
20080429

> <DSSTox_CID_Parent>
4245

> <ChemicalReplicateCount>
1

> <Coord_Metals>
0

> <Index>
233

> <Canonical_Smiles>
CCC(CC)Nc1c(cc(C)c(C)c1N(=O)=O)N(=O)=O

> <Molecular_Weight>
281.30766

> <Frequency>
1

$$$$

  SciTegic          2D

 46 48  0  0  0  0            999 V2000
    7.1134   -2.5382    0.0000 C   0  0
    6.3513   -1.2462    0.0000 C   0  0
    8.6133   -2.5243    0.0000 C   0  0
    7.0892    0.0597    0.0000 C   0  0
    9.3512   -1.2183    0.0000 C   0  0
    8.5891    0.0737    0.0000 C   0  0
    6.3778   -3.8464    0.0000 O   0  0
    4.8506   -1.2602    0.0000 S   0  0
    6.3267    1.3524    0.0000 C   0  0
    5.1267    1.3420    0.0000 F   0  0
    6.9173    2.3970    0.0000 F   0  0
    5.7175    2.3863    0.0000 F   0  0
    4.2606   -2.3052    0.0000 O   0  0
    3.6506   -1.2719    0.0000 O   0  0
    4.0872    0.0320    0.0000 N   0  0
    2.5889    0.0182    0.0000 C   0  0
    1.7138    1.2033    0.0000 N   0  0
    1.7138   -1.2033    0.0000 N   0  0
    0.2917    0.7475    0.0000 N   0  0
    0.2917   -0.7475    0.0000 C   0  0
   -1.0028    1.5132    0.0000 C   0  0
   -2.3155    0.7475    0.0000 N   0  0
   -1.0028   -1.5132    0.0000 C   0  0
   -2.3155   -0.7475    0.0000 C   0  0
   -0.9971    3.0138    0.0000 O   0  0
   -2.2935    3.7700    0.0000 C   0  0
   -0.9971   -3.0138    0.0000 O   0  0
   -2.2935   -3.7700    0.0000 C   0  0
    7.1421   -5.1381    0.0000 C   0  0
    6.4065   -6.4463    0.0000 C   0  0
    7.0177   -7.4790    0.0000 F   0  0
    5.2066   -6.4595    0.0000 F   0  0
    9.1214   -3.3856    0.0000 H   0  0
   10.3511   -1.2090    0.0000 H   0  0
    9.0810    0.9444    0.0000 H   0  0
    4.5789    0.9028    0.0000 H   0  0
   -3.1826   -1.2456    0.0000 H   0  0
   -2.2897    4.7699    0.0000 H   0  0
   -3.1616    3.2735    0.0000 H   0  0
   -3.1576    4.2734    0.0000 H   0  0
   -2.2897   -4.7699    0.0000 H   0  0
   -3.1616   -3.2735    0.0000 H   0  0
   -3.1576   -4.2734    0.0000 H   0  0
    7.6327   -4.2666    0.0000 H   0  0
    8.1421   -5.1270    0.0000 H   0  0
    5.9160   -7.3177    0.0000 H   0  0
  1  2  1  0
  1  3  2  0
  1  7  1  0
  2  4  2  0
  2  8  1  0
  3  5  1  0
  4  6  1  0
  4  9  1  0
  5  6  2  0
  7 29  1  0
  8 13  2  0
  8 14  2  0
  8 15  1  0
  9 10  1  0
  9 11  1  0
  9 12  1  0
 15 16  1  0
 16 17  2  0
 16 18  1  0
 17 19  1  0
 18 20  2  0
 19 21  1  0
 19 20  1  0
 20 23  1  0
 21 22  2  0
 21 25  1  0
 22 24  1  0
 23 24  2  0
 23 27  1  0
 25 26  1  0
 27 28  1  0
 29 30  1  0
 30 31  1  0
 30 32  1  0
  3 33  1  0
  5 34  1  0
  6 35  1  0
 15 36  1  0
 24 37  1  0
 26 38  1  0
 26 39  1  0
 26 40  1  0
 28 41  1  0
 28 42  1  0
 28 43  1  0
 29 44  1  0
 29 45  1  0
 30 46  1  0
M  END
> <DSSTox_RID>
40550

> <DSSTox_CID>
14803

> <DSSTox_Generic_SID>
34803

> <DSSTox_FileID>
234_TOXCST_v3a

> <STRUCTURE_Formula>
C16H14F5N5O5S

> <STRUCTURE_MolecularWeight>
483.3699

> <STRUCTURE_ChemicalType>
defined organic

> <STRUCTURE_TestedForm_DefinedOrganic>
parent

> <STRUCTURE_Shown>
tested chemical

> <TestSubstance_ChemicalName>
Penoxsulam

> <Source_ChemicalName>
Penoxsulam

> <TestSubstance_CASRN>
219714-96-2

> <TestSubstance_Description>
single chemical compound

> <STRUCTURE_ChemicalName_IUPAC>
2-(2,2-difluoroethoxy)-N-(5,8-dimethoxy[1,2,4]triazolo[1,5-c]pyrimidin-2-yl)-6-(trifluoromethyl)benzenesulfonamide

> <STRUCTURE_SMILES>
FC(F)(F)C1=C(S(=O)(NC3=NN2C(OC)=NC=C(OC)C2=N3)=O)C(OCC(F)F)=CC=C1

> <STRUCTURE_Parent_SMILES>
FC(F)(F)C1=C(S(=O)(NC3=NN2C(OC)=NC=C(OC)C2=N3)=O)C(OCC(F)F)=CC=C1

> <STRUCTURE_InChI>
InChI=1S/C16H14F5N5O5S/c1-29-10-6-22-15(30-2)26-13(10)23-14(24-26)25-32(27,28)12-8(16(19,20)21)4-3-5-9(12)31-7-11(17)18/h3-6,11H,7H2,1-2H3,(H,24,25)

> <STRUCTURE_InChIKey>
SYJGKVOENHZYMQ-UHFFFAOYSA-N

> <Substance_modify_yyyymmdd>
20080429

> <DSSTox_CID_Parent>
14803

> <ChemicalReplicateCount>
1

> <Note_TOXCST>
IUPAC and SMILES corrected v3a

> <Coord_Metals>
0

> <Index>
234

> <Canonical_Smiles>
COc1cnc(OC)n2nc(NS(=O)(=O)c3c(OCC(F)F)cccc3C(F)(F)F)nc12

> <Molecular_Weight>
483.36987

> <Frequency>
1

$$$$

  SciTegic          2D

 30 29  0  0  0  0            999 V2000
   10.3999    0.0000    0.0000 C   0  0
    9.0999    0.7500    0.0000 C   0  0
    7.7999    0.0000    0.0000 C   0  0
    6.5000    0.7500    0.0000 C   0  0
    5.2000    0.0000    0.0000 C   0  0
    3.9000    0.7500    0.0000 C   0  0
    2.6000    0.0000    0.0000 C   0  0
    1.3000    0.7500    0.0000 C   0  0
   11.6999    0.7500    0.0000 S   0  0
   11.6999    1.9500    0.0000 O   0  0
   12.9999    0.0000    0.0000 O   0  0
   12.7390    1.3502    0.0000 O   0  0
   10.3999   -1.2000    0.0000 F   0  0
    9.3608   -0.6002    0.0000 F   0  0
    9.0999    1.9500    0.0000 F   0  0
    8.0608    1.3502    0.0000 F   0  0
    7.7999   -1.2000    0.0000 F   0  0
    6.7608   -0.6002    0.0000 F   0  0
    6.5000    1.9500    0.0000 F   0  0
    5.4608    1.3502    0.0000 F   0  0
    5.2000   -1.2000    0.0000 F   0  0
    4.1608   -0.6002    0.0000 F   0  0
    3.9000    1.9500    0.0000 F   0  0
    2.8608    1.3502    0.0000 F   0  0
    2.6000   -1.2000    0.0000 F   0  0
    1.5608   -0.6002    0.0000 F   0  0
    0.2606    0.1503    0.0000 F   0  0
    1.3000    1.9500    0.0000 F   0  0
    0.2609    1.3502    0.0000 F   0  0
   13.8661    0.4997    0.0000 H   0  0
  1  2  1  0
  1  9  1  0
  1 13  1  0
  1 14  1  0
  2  3  1  0
  2 15  1  0
  2 16  1  0
  3  4  1  0
  3 17  1  0
  3 18  1  0
  4  5  1  0
  4 19  1  0
  4 20  1  0
  5  6  1  0
  5 21  1  0
  5 22  1  0
  6  7  1  0
  6 23  1  0
  6 24  1  0
  7  8  1  0
  7 25  1  0
  7 26  1  0
  8 27  1  0
  8 28  1  0
  8 29  1  0
  9 10  2  0
  9 11  1  0
  9 12  2  0
 11 30  1  0
M  END
> <DSSTox_RID>
40753

> <DSSTox_CID>
11864

> <DSSTox_Generic_SID>
31864

> <DSSTox_FileID>
235_TOXCST_v3a

> <STRUCTURE_Formula>
C8HF17O3S

> <STRUCTURE_MolecularWeight>
500.1296

> <STRUCTURE_ChemicalType>
defined organic

> <STRUCTURE_TestedForm_DefinedOrganic>
parent

> <STRUCTURE_Shown>
tested chemical

> <TestSubstance_ChemicalName>
Perfluorooctane sulfonic acid

> <Source_ChemicalName>
Perfluorooctane sulfonic acid

> <TestSubstance_CASRN>
1763-23-1

> <TestSubstance_Description>
single chemical compound

> <STRUCTURE_ChemicalName_IUPAC>
1,1,2,2,3,3,4,4,5,5,6,6,7,7,8,8,8-heptadecafluorooctane-1-sulfonic acid

> <STRUCTURE_SMILES>
O=S(C(F)(F)C(F)(F)C(F)(F)C(F)(F)C(F)(F)C(F)(F)C(F)(F)C(F)(F)F)(O)=O

> <STRUCTURE_Parent_SMILES>
O=S(C(F)(F)C(F)(F)C(F)(F)C(F)(F)C(F)(F)C(F)(F)C(F)(F)C(F)(F)F)(O)=O

> <STRUCTURE_InChI>
InChI=1S/C8HF17O3S/c9-1(10,3(13,14)5(17,18)7(21,22)23)2(11,12)4(15,16)6(19,20)8(24,25)29(26,27)28/h(H,26,27,28)

> <STRUCTURE_InChIKey>
YFSUTJLHUFNCNZ-UHFFFAOYSA-N

> <Substance_modify_yyyymmdd>
20080429

> <DSSTox_CID_Parent>
11864

> <ChemicalReplicateCount>
1

> <Relationship_CID>
sulfonic acid analog of PFOA 11865

> <Coord_Metals>
0

> <Index>
235

> <Canonical_Smiles>
OS(=O)(=O)C(F)(F)C(F)(F)C(F)(F)C(F)(F)C(F)(F)C(F)(F)C(F)(F)C(F)(F)F

> <Molecular_Weight>
500.12959

> <Frequency>
1

$$$$

  SciTegic          2D

 26 25  0  0  0  0            999 V2000
   10.3999    0.0000    0.0000 C   0  0
    9.0999    0.7500    0.0000 C   0  0
    7.7999    0.0000    0.0000 C   0  0
    6.5000    0.7500    0.0000 C   0  0
    5.2000    0.0000    0.0000 C   0  0
    3.9000    0.7500    0.0000 C   0  0
    2.6000    0.0000    0.0000 C   0  0
    1.3000    0.7500    0.0000 C   0  0
   10.3999   -1.2000    0.0000 O   0  0
   11.6999    0.7500    0.0000 O   0  0
   10.1391    1.3502    0.0000 F   0  0
    9.0999    1.9500    0.0000 F   0  0
    6.7608   -0.6002    0.0000 F   0  0
    7.7999   -1.2000    0.0000 F   0  0
    5.4608    1.3502    0.0000 F   0  0
    6.5000    1.9500    0.0000 F   0  0
    4.1608   -0.6002    0.0000 F   0  0
    5.2000   -1.2000    0.0000 F   0  0
    2.8608    1.3502    0.0000 F   0  0
    3.9000    1.9500    0.0000 F   0  0
    1.5608   -0.6002    0.0000 F   0  0
    2.6000   -1.2000    0.0000 F   0  0
    0.2606    0.1503    0.0000 F   0  0
    0.2609    1.3502    0.0000 F   0  0
    1.3000    1.9500    0.0000 F   0  0
   12.5661    0.2503    0.0000 H   0  0
  1  2  1  0
  1 10  1  0
  1  9  2  0
  2  3  1  0
  2 11  1  0
  2 12  1  0
  3  4  1  0
  3 13  1  0
  3 14  1  0
  4  5  1  0
  4 15  1  0
  4 16  1  0
  5  6  1  0
  5 17  1  0
  5 18  1  0
  6  7  1  0
  6 19  1  0
  6 20  1  0
  7  8  1  0
  7 21  1  0
  7 22  1  0
  8 23  1  0
  8 24  1  0
  8 25  1  0
 10 26  1  0
M  END
> <DSSTox_RID>
40754

> <DSSTox_CID>
11865

> <DSSTox_Generic_SID>
31865

> <DSSTox_FileID>
236_TOXCST_v3a

> <STRUCTURE_Formula>
C8HF15O2

> <STRUCTURE_MolecularWeight>
414.0684

> <STRUCTURE_ChemicalType>
defined organic

> <STRUCTURE_TestedForm_DefinedOrganic>
parent

> <STRUCTURE_Shown>
tested chemical

> <TestSubstance_ChemicalName>
Perfluorooctanoic acid

> <Source_ChemicalName>
Perfluorooctanoic acid

> <TestSubstance_CASRN>
335-67-1

> <TestSubstance_Description>
single chemical compound

> <STRUCTURE_ChemicalName_IUPAC>
pentadecafluorooctanoic acid

> <STRUCTURE_SMILES>
O=C(O)C(F)(F)C(F)(F)C(F)(F)C(F)(F)C(F)(F)C(F)(F)C(F)(F)F

> <STRUCTURE_Parent_SMILES>
O=C(O)C(F)(F)C(F)(F)C(F)(F)C(F)(F)C(F)(F)C(F)(F)C(F)(F)F

> <STRUCTURE_InChI>
InChI=1S/C8HF15O2/c9-2(10,1(24)25)3(11,12)4(13,14)5(15,16)6(17,18)7(19,20)8(21,22)23/h(H,24,25)

> <STRUCTURE_InChIKey>
SNGREZUHAYWORS-UHFFFAOYSA-N

> <Substance_modify_yyyymmdd>
20080429

> <DSSTox_CID_Parent>
11865

> <ChemicalReplicateCount>
1

> <Relationship_CID>
carboxylic acid analog of PFOS 11864

> <Coord_Metals>
0

> <Index>
236

> <Canonical_Smiles>
OC(=O)C(F)(F)C(F)(F)C(F)(F)C(F)(F)C(F)(F)C(F)(F)C(F)(F)F

> <Molecular_Weight>
414.06838

> <Frequency>
1

$$$$

  SciTegic          2D

 46 48  0  0  0  0            999 V2000
   -0.4253  -10.4931    0.0000 C   0  0
   -0.9401  -11.9020    0.0000 C   0  0
   -2.4176  -12.1606    0.0000 C   0  0
   -3.3804  -11.0103    0.0000 C   0  0
   -4.6826  -11.7564    0.0000 O   0  0
   -5.9803  -11.0025    0.0000 C   0  0
   -7.2830  -11.7463    0.0000 C   0  0
   -8.5785  -10.9901    0.0000 C   0  0
   -8.5714   -9.4902    0.0000 C   0  0
   -7.2688   -8.7463    0.0000 C   0  0
   -5.9733   -9.5024    0.0000 C   0  0
   -2.8655   -9.6014    0.0000 C   0  0
   -1.3880   -9.3428    0.0000 C   0  0
   -0.8729   -7.9331    0.0000 C   0  0
    0.6053   -7.6735    0.0000 O   0  0
    1.1204   -6.2638    0.0000 C   0  0
    0.3499   -5.3438    0.0000 O   0  0
    2.5986   -6.0041    0.0000 C   0  0
    3.2338   -4.7720    0.0000 C   0  0
    1.9160   -4.0315    0.0000 C   0  0
    4.5154   -3.9697    0.0000 C   0  0
    3.9832   -6.0714    0.0000 C   0  0
    5.4803   -5.8632    0.0000 C   0  0
    6.3889   -7.0578    0.0000 C   0  0
    7.5794   -6.9070    0.0000 Cl  0  0
    5.9246   -8.1643    0.0000 Cl  0  0
    0.5598  -10.3207    0.0000 H   0  0
   -0.2983  -12.6688    0.0000 H   0  0
   -2.7608  -13.0998    0.0000 H   0  0
   -7.2877  -12.7463    0.0000 H   0  0
   -9.4468  -11.4860    0.0000 H   0  0
   -9.4350   -8.9861    0.0000 H   0  0
   -7.2641   -7.7463    0.0000 H   0  0
   -5.1049   -9.0065    0.0000 H   0  0
   -3.5074   -8.8346    0.0000 H   0  0
   -0.5301   -6.9937    0.0000 H   0  0
   -1.5150   -7.1665    0.0000 H   0  0
    2.5983   -7.0041    0.0000 H   0  0
    1.0618   -4.5515    0.0000 H   0  0
    1.0385   -3.5519    0.0000 H   0  0
    1.8925   -3.0318    0.0000 H   0  0
    4.4925   -2.9700    0.0000 H   0  0
    5.3696   -3.4499    0.0000 H   0  0
    5.3928   -4.4495    0.0000 H   0  0
    3.9708   -7.0713    0.0000 H   0  0
    5.8673   -4.9411    0.0000 H   0  0
  1  2  2  0
  1 13  1  0
  2  3  1  0
  3  4  2  0
  4  5  1  0
  4 12  1  0
  5  6  1  0
  6  7  2  0
  6 11  1  0
  7  8  1  0
  8  9  2  0
  9 10  1  0
 10 11  2  0
 12 13  2  0
 13 14  1  0
 14 15  1  0
 15 16  1  0
 16 17  2  0
 16 18  1  0
 18 19  1  0
 18 22  1  0
 19 20  1  0
 19 21  1  0
 19 22  1  0
 22 23  1  0
 23 24  2  0
 24 25  1  0
 24 26  1  0
  1 27  1  0
  2 28  1  0
  3 29  1  0
  7 30  1  0
  8 31  1  0
  9 32  1  0
 10 33  1  0
 11 34  1  0
 12 35  1  0
 14 36  1  0
 14 37  1  0
 18 38  1  0
 20 39  1  0
 20 40  1  0
 20 41  1  0
 21 42  1  0
 21 43  1  0
 21 44  1  0
 22 45  1  0
 23 46  1  0
M  END
> <DSSTox_RID>
40554

> <DSSTox_CID>
2292

> <DSSTox_Generic_SID>
22292

> <DSSTox_FileID>
237_TOXCST_v3a

> <STRUCTURE_Formula>
C21H20Cl2O3

> <STRUCTURE_MolecularWeight>
391.2877

> <STRUCTURE_ChemicalType>
defined organic

> <STRUCTURE_TestedForm_DefinedOrganic>
parent

> <STRUCTURE_Shown>
tested chemical

> <TestSubstance_ChemicalName>
Permethrin

> <Source_ChemicalName>
Permethrin

> <TestSubstance_CASRN>
52645-53-1

> <TestSubstance_Description>
single chemical compound

> <ChemicalNote>
mixture of (1R,S), (3R,S) isomers; structure shown without stereochem

> <STRUCTURE_ChemicalName_IUPAC>
[3-(phenyloxy)phenyl]methyl 3-(2,2-dichloroethenyl)-2,2-dimethylcyclopropanecarboxylate

> <STRUCTURE_SMILES>
C1=CC=C(OC2=CC=CC=C2)C=C1COC(=O)C3C(C)(C)C3C=C(Cl)Cl

> <STRUCTURE_Parent_SMILES>
C1=CC=C(OC2=CC=CC=C2)C=C1COC(=O)C3C(C)(C)C3C=C(Cl)Cl

> <STRUCTURE_InChI>
InChI=1S/C21H20Cl2O3/c1-21(2)17(12-18(22)23)19(21)20(24)25-13-14-7-6-10-16(11-14)26-15-8-4-3-5-9-15/h3-12,17,19H,13H2,1-2H3

> <STRUCTURE_InChIKey>
RLLPVAHGXHCWKJ-UHFFFAOYSA-N

> <Substance_modify_yyyymmdd>
20080429

> <DSSTox_CID_Parent>
2292

> <ChemicalReplicateCount>
1

> <Coord_Metals>
0

> <Index>
237

> <Canonical_Smiles>
CC1(C)C(C=C(Cl)Cl)C1C(=O)OCc2cccc(Oc3ccccc3)c2

> <Molecular_Weight>
391.2877

> <Frequency>
1

$$$$

  SciTegic          2D

 20 20  0  0  0  0            999 V2000
    1.2990   -0.7500    0.0000 C   0  0
    1.2990    0.7500    0.0000 C   0  0
    0.0000    1.5000    0.0000 C   0  0
   -1.2990    0.7500    0.0000 C   0  0
   -1.2990   -0.7500    0.0000 C   0  0
    0.0000   -1.5000    0.0000 C   0  0
   -0.0031   -3.0008    0.0000 O   0  0
   -1.3039   -3.7494    0.0000 C   0  0
   -1.3070   -5.2502    0.0000 C   0  0
   -2.6078   -5.9988    0.0000 O   0  0
    2.1651   -1.2500    0.0000 H   0  0
    2.1651    1.2500    0.0000 H   0  0
    0.0000    2.5000    0.0000 H   0  0
   -2.1651    1.2500    0.0000 H   0  0
   -2.1651   -1.2500    0.0000 H   0  0
   -2.1691   -3.2479    0.0000 H   0  0
   -1.3023   -2.7494    0.0000 H   0  0
   -0.4418   -5.7517    0.0000 H   0  0
   -1.3086   -6.2502    0.0000 H   0  0
   -2.6099   -6.9988    0.0000 H   0  0
  1  2  2  0
  1  6  1  0
  2  3  1  0
  3  4  2  0
  4  5  1  0
  5  6  2  0
  6  7  1  0
  7  8  1  0
  8  9  1  0
  9 10  1  0
  1 11  1  0
  2 12  1  0
  3 13  1  0
  4 14  1  0
  5 15  1  0
  8 16  1  0
  8 17  1  0
  9 18  1  0
  9 19  1  0
 10 20  1  0
M  END
> <DSSTox_RID>
40450

> <DSSTox_CID>
1976

> <DSSTox_Generic_SID>
21976

> <DSSTox_FileID>
238_TOXCST_v3a

> <STRUCTURE_Formula>
C8H10O2

> <STRUCTURE_MolecularWeight>
138.1638

> <STRUCTURE_ChemicalType>
defined organic

> <STRUCTURE_TestedForm_DefinedOrganic>
parent

> <STRUCTURE_Shown>
tested chemical

> <TestSubstance_ChemicalName>
2-Phenoxyethanol

> <Source_ChemicalName>
Phenoxyethanol

> <TestSubstance_CASRN>
122-99-6

> <TestSubstance_Description>
single chemical compound

> <STRUCTURE_ChemicalName_IUPAC>
2-phenoxyethanol

> <STRUCTURE_SMILES>
C1=CC=CC=C1OCCO

> <STRUCTURE_Parent_SMILES>
C1=CC=CC=C1OCCO

> <STRUCTURE_InChI>
InChI=1S/C8H10O2/c9-6-7-10-8-4-2-1-3-5-8/h1-5,9H,6-7H2

> <STRUCTURE_InChIKey>
QCDWFXQBSFUVSP-UHFFFAOYSA-N

> <Substance_modify_yyyymmdd>
20080429

> <DSSTox_CID_Parent>
1976

> <ChemicalReplicateCount>
1

> <Coord_Metals>
0

> <Index>
238

> <Canonical_Smiles>
OCCOc1ccccc1

> <Molecular_Weight>
138.16379

> <Frequency>
1

$$$$

  SciTegic          2D

 36 37  0  0  0  0            999 V2000
    4.1820   -0.3904    0.0000 N   0  0
    2.7523    0.0720    0.0000 C   0  0
    2.7519    1.5452    0.0000 O   0  0
    5.0549    0.8213    0.0000 C   0  0
    4.1211   -4.3589    0.0000 P   0  0
    4.1665    2.0237    0.0000 C   0  0
    4.6507   -1.8134    0.0000 C   0  0
    3.6516   -2.9334    0.0000 S   0  0
    4.7525    3.4088    0.0000 C   0  0
    3.3215   -5.2536    0.0000 S   0  0
    6.5511    0.9747    0.0000 C   0  0
    1.7820   -0.6341    0.0000 O   0  0
    5.5902   -4.6660    0.0000 O   0  0
    2.6230   -4.0484    0.0000 O   0  0
    6.2633    3.5731    0.0000 C   0  0
    7.1518    2.3707    0.0000 C   0  0
    6.7451    4.6721    0.0000 Cl  0  0
    6.0597   -6.0915    0.0000 C   0  0
    1.6238   -5.1683    0.0000 C   0  0
    7.5288   -6.3985    0.0000 C   0  0
    0.1542   -4.8638    0.0000 C   0  0
    5.6297   -2.0171    0.0000 H   0  0
    4.9640   -2.7631    0.0000 H   0  0
    4.1558    4.2113    0.0000 H   0  0
    7.1429    0.1686    0.0000 H   0  0
    8.1452    2.4854    0.0000 H   0  0
    5.3933   -6.8371    0.0000 H   0  0
    5.0808   -5.8873    0.0000 H   0  0
    2.6029   -5.3716    0.0000 H   0  0
    1.9374   -6.1179    0.0000 H   0  0
    7.8416   -7.3483    0.0000 H   0  0
    8.1952   -5.6529    0.0000 H   0  0
    8.5077   -6.6027    0.0000 H   0  0
   -0.5116   -5.6100    0.0000 H   0  0
   -0.1594   -3.9143    0.0000 H   0  0
   -0.8249   -4.6605    0.0000 H   0  0
  1  2  1  0
  1  4  1  0
  1  7  1  0
  2  3  1  0
  2 12  2  0
  3  6  1  0
  4  6  1  0
  4 11  2  0
  5  8  1  0
  5 10  2  0
  5 13  1  0
  5 14  1  0
  6  9  2  0
  7  8  1  0
  9 15  1  0
 11 16  1  0
 13 18  1  0
 14 19  1  0
 15 16  2  0
 15 17  1  0
 18 20  1  0
 19 21  1  0
  7 22  1  0
  7 23  1  0
  9 24  1  0
 11 25  1  0
 16 26  1  0
 18 27  1  0
 18 28  1  0
 19 29  1  0
 19 30  1  0
 20 31  1  0
 20 32  1  0
 20 33  1  0
 21 34  1  0
 21 35  1  0
 21 36  1  0
M  END
> <DSSTox_RID>
40555

> <DSSTox_CID>
4259

> <DSSTox_Generic_SID>
24259

> <DSSTox_FileID>
239_TOXCST_v3a

> <STRUCTURE_Formula>
C12H15ClNO4PS2

> <STRUCTURE_MolecularWeight>
367.8086

> <STRUCTURE_ChemicalType>
defined organic

> <STRUCTURE_TestedForm_DefinedOrganic>
parent

> <STRUCTURE_Shown>
tested chemical

> <TestSubstance_ChemicalName>
Phosalone

> <Source_ChemicalName>
Phosalone

> <TestSubstance_CASRN>
2310-17-0

> <TestSubstance_Description>
single chemical compound

> <STRUCTURE_ChemicalName_IUPAC>
S-[(6-chloro-2-oxo-1,3-benzoxazol-3(2H)-yl)methyl] O,O-diethyl dithiophosphate

> <STRUCTURE_SMILES>
CCOP(=S)(OCC)SCN1c2ccc(Cl)cc2OC1=O

> <STRUCTURE_Parent_SMILES>
CCOP(=S)(OCC)SCN1c2ccc(Cl)cc2OC1=O

> <STRUCTURE_InChI>
InChI=1S/C12H15ClNO4PS2/c1-3-16-19(20,17-4-2)21-8-14-10-6-5-9(13)7-11(10)18-12(14)15/h5-7H,3-4,8H2,1-2H3

> <STRUCTURE_InChIKey>
IOUNQDKNJZEDEP-UHFFFAOYSA-N

> <Substance_modify_yyyymmdd>
20080429

> <DSSTox_CID_Parent>
4259

> <ChemicalReplicateCount>
1

> <Coord_Metals>
0

> <Index>
239

> <Canonical_Smiles>
CCOP(=S)(OCC)SCN1C(=O)Oc2cc(Cl)ccc12

> <Molecular_Weight>
367.80856

> <Frequency>
1

$$$$

  SciTegic          2D

 16 16  0  0  0  0            999 V2000
    1.2990   -0.7500    0.0000 C   0  0
    1.2990    0.7500    0.0000 N   0  0
    0.0000   -1.5000    0.0000 C   0  0
   -1.2990    0.7500    0.0000 C   0  0
   -1.2990   -0.7500    0.0000 C   0  0
    0.0000    1.5000    0.0000 C   0  0
    2.6003   -1.4977    0.0000 C   0  0
    2.6024   -2.6977    0.0000 O   0  0
   -2.6003   -1.4978    0.0000 N   0  0
   -2.3383    1.3500    0.0000 Cl  0  0
    0.0000   -2.7000    0.0000 Cl  0  0
    0.0000    2.7000    0.0000 Cl  0  0
    3.8990   -0.7455    0.0000 O   0  0
   -3.4657   -0.9965    0.0000 H   0  0
   -2.6021   -2.4978    0.0000 H   0  0
    4.7661   -1.2437    0.0000 H   0  0
  1  2  2  0
  1  3  1  0
  1  7  1  0
  2  6  1  0
  3  5  2  0
  3 11  1  0
  4  5  1  0
  4 10  1  0
  4  6  2  0
  5  9  1  0
  6 12  1  0
  7  8  2  0
  7 13  1  0
  9 14  1  0
  9 15  1  0
 13 16  1  0
M  END
> <DSSTox_RID>
40559

> <DSSTox_CID>
1160

> <DSSTox_Generic_SID>
21160

> <DSSTox_FileID>
240_TOXCST_v3a

> <STRUCTURE_Formula>
C6H3Cl3N2O2

> <STRUCTURE_MolecularWeight>
241.4592

> <STRUCTURE_ChemicalType>
defined organic

> <STRUCTURE_TestedForm_DefinedOrganic>
parent

> <STRUCTURE_Shown>
tested chemical

> <TestSubstance_ChemicalName>
Picloram

> <Source_ChemicalName>
Picloram

> <TestSubstance_CASRN>
1918-02-1

> <TestSubstance_Description>
single chemical compound

> <STRUCTURE_ChemicalName_IUPAC>
4-amino-3,5,6-trichloropyridine-2-carboxylic acid

> <STRUCTURE_SMILES>
ClC1=C(Cl)N=C(C(O)=O)C(Cl)=C1N

> <STRUCTURE_Parent_SMILES>
ClC1=C(Cl)N=C(C(O)=O)C(Cl)=C1N

> <STRUCTURE_InChI>
InChI=1S/C6H3Cl3N2O2/c7-1-3(10)2(8)5(9)11-4(1)6(12)13/h(H2,10,11)(H,12,13)

> <STRUCTURE_InChIKey>
NQQVFXUMIDALNH-UHFFFAOYSA-N

> <Substance_modify_yyyymmdd>
20080429

> <DSSTox_CID_Parent>
1160

> <ChemicalReplicateCount>
1

> <Coord_Metals>
0

> <Index>
240

> <Canonical_Smiles>
Nc1c(Cl)c(Cl)nc(C(=O)O)c1Cl

> <Molecular_Weight>
241.45922

> <Frequency>
1

$$$$

  SciTegic          2D

 54 55  0  0  0  0            999 V2000
   -4.9361    3.7316    0.0000 C   0  0
   -3.6313    2.9900    0.0000 C   0  0
   -3.6202    1.4892    0.0000 C   0  0
   -2.3155    0.7475    0.0000 C   0  0
   -1.0028    1.5132    0.0000 C   0  0
    0.2917    0.7475    0.0000 C   0  0
    0.2917   -0.7475    0.0000 C   0  0
   -1.0028   -1.5132    0.0000 C   0  0
   -2.3155   -0.7475    0.0000 C   0  0
   -3.6202   -1.4892    0.0000 C   0  0
   -4.9153   -0.7308    0.0000 O   0  0
   -6.2201   -1.4724    0.0000 C   0  0
   -7.5152   -0.7140    0.0000 C   0  0
   -8.8200   -1.4556    0.0000 O   0  0
  -10.1151   -0.6972    0.0000 C   0  0
  -11.4200   -1.4388    0.0000 C   0  0
  -12.7151   -0.6804    0.0000 O   0  0
  -14.0199   -1.4220    0.0000 C   0  0
  -15.3150   -0.6636    0.0000 C   0  0
  -16.6198   -1.4052    0.0000 C   0  0
  -17.9149   -0.6468    0.0000 C   0  0
    1.7138   -1.2033    0.0000 O   0  0
    2.5889    0.0182    0.0000 C   0  0
    1.7138    1.2033    0.0000 O   0  0
   -4.9435    4.7315    0.0000 H   0  0
   -5.7986    3.2254    0.0000 H   0  0
   -5.8058    4.2253    0.0000 H   0  0
   -2.7689    3.4961    0.0000 H   0  0
   -2.7617    2.4963    0.0000 H   0  0
   -4.4826    0.9831    0.0000 H   0  0
   -3.6132    0.4892    0.0000 H   0  0
   -0.9997    2.5132    0.0000 H   0  0
   -0.9997   -2.5132    0.0000 H   0  0
   -3.6266   -2.4892    0.0000 H   0  0
   -4.4893   -1.9837    0.0000 H   0  0
   -6.2266   -2.4724    0.0000 H   0  0
   -5.3574   -1.9781    0.0000 H   0  0
   -7.5088    0.2860    0.0000 H   0  0
   -8.3779   -0.2083    0.0000 H   0  0
  -10.1087    0.3028    0.0000 H   0  0
   -9.2460   -0.2027    0.0000 H   0  0
  -11.4264   -2.4388    0.0000 H   0  0
  -12.2891   -1.9333    0.0000 H   0  0
  -14.0263   -2.4219    0.0000 H   0  0
  -13.1572   -1.9277    0.0000 H   0  0
  -15.3085    0.3364    0.0000 H   0  0
  -14.4458   -0.1690    0.0000 H   0  0
  -16.6263   -2.4051    0.0000 H   0  0
  -15.7571   -1.9109    0.0000 H   0  0
  -18.7843   -1.1409    0.0000 H   0  0
  -17.9085    0.3532    0.0000 H   0  0
  -18.7776   -0.1410    0.0000 H   0  0
    3.0696    0.8951    0.0000 H   0  0
    3.0823   -0.8516    0.0000 H   0  0
  1  2  1  0
  2  3  1  0
  3  4  1  0
  4  5  2  0
  4  9  1  0
  5  6  1  0
  6  7  2  0
  6 24  1  0
  7  8  1  0
  7 22  1  0
  8  9  2  0
  9 10  1  0
 10 11  1  0
 11 12  1  0
 12 13  1  0
 13 14  1  0
 14 15  1  0
 15 16  1  0
 16 17  1  0
 17 18  1  0
 18 19  1  0
 19 20  1  0
 20 21  1  0
 22 23  1  0
 23 24  1  0
  1 25  1  0
  1 26  1  0
  1 27  1  0
  2 28  1  0
  2 29  1  0
  3 30  1  0
  3 31  1  0
  5 32  1  0
  8 33  1  0
 10 34  1  0
 10 35  1  0
 12 36  1  0
 12 37  1  0
 13 38  1  0
 13 39  1  0
 15 40  1  0
 15 41  1  0
 16 42  1  0
 16 43  1  0
 18 44  1  0
 18 45  1  0
 19 46  1  0
 19 47  1  0
 20 48  1  0
 20 49  1  0
 21 50  1  0
 21 51  1  0
 21 52  1  0
 23 53  1  0
 23 54  1  0
M  END
> <DSSTox_RID>
40560

> <DSSTox_CID>
1166

> <DSSTox_Generic_SID>
21166

> <DSSTox_FileID>
241_TOXCST_v3a

> <STRUCTURE_Formula>
C19H30O5

> <STRUCTURE_MolecularWeight>
338.4385

> <STRUCTURE_ChemicalType>
defined organic

> <STRUCTURE_TestedForm_DefinedOrganic>
parent

> <STRUCTURE_Shown>
tested chemical

> <TestSubstance_ChemicalName>
Piperonyl butoxide

> <Source_ChemicalName>
Piperonyl butoxide

> <TestSubstance_CASRN>
51-03-6

> <TestSubstance_Description>
single chemical compound

> <STRUCTURE_ChemicalName_IUPAC>
5-{[(2-{[2-(butyloxy)ethyl]oxy}ethyl)oxy]methyl}-6-propyl-1,3-benzodioxole

> <STRUCTURE_SMILES>
CCCC1=CC2=C(C=C1COCCOCCOCCCC)OCO2

> <STRUCTURE_Parent_SMILES>
CCCC1=CC2=C(C=C1COCCOCCOCCCC)OCO2

> <STRUCTURE_InChI>
InChI=1S/C19H30O5/c1-3-5-7-20-8-9-21-10-11-22-14-17-13-19-18(23-15-24-19)12-16(17)6-4-2/h12-13H,3-11,14-15H2,1-2H3

> <STRUCTURE_InChIKey>
FIPWRIJSWJWJAI-UHFFFAOYSA-N

> <Substance_modify_yyyymmdd>
20080429

> <DSSTox_CID_Parent>
1166

> <ChemicalReplicateCount>
1

> <Coord_Metals>
0

> <Index>
241

> <Canonical_Smiles>
CCCCOCCOCCOCc1cc2OCOc2cc1CCC

> <Molecular_Weight>
338.4385

> <Frequency>
1

$$$$

  SciTegic          2D

 35 35  0  0  0  0            999 V2000
    1.2990   -0.7500    0.0000 N   0  0
    1.2990    0.7500    0.0000 C   0  0
    0.0000   -1.5000    0.0000 C   0  0
    2.6003    1.4978    0.0000 O   0  0
    3.8990    0.7455    0.0000 C   0  0
   -1.2990   -0.7500    0.0000 N   0  0
    0.0000    1.5000    0.0000 C   0  0
   -1.2990    0.7500    0.0000 C   0  0
   -0.0031   -3.0008    0.0000 N   0  0
    5.2003    1.4932    0.0000 N   0  0
    3.8969   -0.4545    0.0000 O   0  0
    0.0000    3.0008    0.0000 C   0  0
   -2.5988    1.5004    0.0000 C   0  0
   -1.3039   -3.7494    0.0000 C   0  0
    1.2969   -3.7508    0.0000 C   0  0
    6.4990    0.7410    0.0000 C   0  0
    5.1998    2.9941    0.0000 C   0  0
    0.8657    3.5014    0.0000 H   0  0
   -0.8662    3.5005    0.0000 H   0  0
   -0.0005    4.0008    0.0000 H   0  0
   -3.4651    1.0009    0.0000 H   0  0
   -2.5985    2.5004    0.0000 H   0  0
   -3.4646    2.0008    0.0000 H   0  0
   -1.3060   -4.7494    0.0000 H   0  0
   -2.1709   -4.2478    0.0000 H   0  0
   -2.1691   -3.2479    0.0000 H   0  0
    2.1631   -3.2511    0.0000 H   0  0
    2.1629   -4.2510    0.0000 H   0  0
    1.2969   -4.7508    0.0000 H   0  0
    7.3660    1.2392    0.0000 H   0  0
    6.4973   -0.2590    0.0000 H   0  0
    7.3641    0.2394    0.0000 H   0  0
    4.3340    3.4944    0.0000 H   0  0
    6.0658    3.4941    0.0000 H   0  0
    5.2000    3.9941    0.0000 H   0  0
  1  2  1  0
  1  3  2  0
  2  4  1  0
  2  7  2  0
  3  6  1  0
  3  9  1  0
  4  5  1  0
  5 10  1  0
  5 11  2  0
  6  8  2  0
  7 12  1  0
  7  8  1  0
  8 13  1  0
  9 14  1  0
  9 15  1  0
 10 16  1  0
 10 17  1  0
 12 18  1  0
 12 19  1  0
 12 20  1  0
 13 21  1  0
 13 22  1  0
 13 23  1  0
 14 24  1  0
 14 25  1  0
 14 26  1  0
 15 27  1  0
 15 28  1  0
 15 29  1  0
 16 30  1  0
 16 31  1  0
 16 32  1  0
 17 33  1  0
 17 34  1  0
 17 35  1  0
M  END
> <DSSTox_RID>
40561

> <DSSTox_CID>
12569

> <DSSTox_Generic_SID>
32569

> <DSSTox_FileID>
242_TOXCST_v3a

> <STRUCTURE_Formula>
C11H18N4O2

> <STRUCTURE_MolecularWeight>
238.2862

> <STRUCTURE_ChemicalType>
defined organic

> <STRUCTURE_TestedForm_DefinedOrganic>
parent

> <STRUCTURE_Shown>
tested chemical

> <TestSubstance_ChemicalName>
Pirimicarb

> <Source_ChemicalName>
Pirimicarb

> <TestSubstance_CASRN>
23103-98-2

> <TestSubstance_Description>
single chemical compound

> <STRUCTURE_ChemicalName_IUPAC>
2-(dimethylamino)-5,6-dimethylpyrimidin-4-yl dimethylcarbamate

> <STRUCTURE_SMILES>
O=C(N(C)C)OC(N=C(N(C)C)N=C1C)=C1C

> <STRUCTURE_Parent_SMILES>
O=C(N(C)C)OC(N=C(N(C)C)N=C1C)=C1C

> <STRUCTURE_InChI>
InChI=1S/C11H18N4O2/c1-7-8(2)12-10(14(3)4)13-9(7)17-11(16)15(5)6/h1-6H3

> <STRUCTURE_InChIKey>
YFGYUFNIOHWBOB-UHFFFAOYSA-N

> <Substance_modify_yyyymmdd>
20080429

> <DSSTox_CID_Parent>
12569

> <ChemicalReplicateCount>
1

> <Coord_Metals>
0

> <Index>
242

> <Canonical_Smiles>
CN(C)C(=O)Oc1nc(nc(C)c1C)N(C)C

> <Molecular_Weight>
238.28621

> <Frequency>
1

$$$$

  SciTegic          2D

 39 39  0  0  0  0            999 V2000
    1.2990   -0.7500    0.0000 N   0  0
    1.2990    0.7500    0.0000 C   0  0
    1.3039   -3.7494    0.0000 P   0  0
    0.0000   -1.5000    0.0000 C   0  0
    0.0000    1.5000    0.0000 N   0  0
    0.0031   -3.0008    0.0000 O   0  0
   -1.2990   -0.7500    0.0000 C   0  0
    2.5972    1.5031    0.0000 N   0  0
    2.3421   -3.1476    0.0000 S   0  0
   -1.2990    0.7500    0.0000 C   0  0
    1.3070   -5.2502    0.0000 O   0  0
    1.3034   -2.2194    0.0000 O   0  0
    3.8990    0.7562    0.0000 C   0  0
    2.5906    3.0039    0.0000 C   0  0
   -2.5988    1.5004    0.0000 C   0  0
    2.6025   -1.4678    0.0000 C   0  0
    2.6078   -5.9988    0.0000 C   0  0
    5.1972    1.5093    0.0000 C   0  0
    1.2880    3.7494    0.0000 C   0  0
   -2.1651   -1.2500    0.0000 H   0  0
    3.0343    0.2540    0.0000 H   0  0
    3.9014   -0.2438    0.0000 H   0  0
    3.4587    2.5076    0.0000 H   0  0
    3.4545    3.5075    0.0000 H   0  0
   -2.5994    2.5004    0.0000 H   0  0
   -3.4647    1.0001    0.0000 H   0  0
   -3.4651    2.0000    0.0000 H   0  0
    2.6022   -0.4678    0.0000 H   0  0
    3.4683   -0.9674    0.0000 H   0  0
    3.4688   -1.9673    0.0000 H   0  0
    2.6099   -6.9988    0.0000 H   0  0
    3.4730   -5.4973    0.0000 H   0  0
    3.4748   -6.4971    0.0000 H   0  0
    6.0646    1.0116    0.0000 H   0  0
    6.0620    2.0115    0.0000 H   0  0
    5.1948    2.5093    0.0000 H   0  0
    1.2836    4.7494    0.0000 H   0  0
    0.4198    4.2457    0.0000 H   0  0
    0.4240    3.2458    0.0000 H   0  0
  1  2  2  0
  1  4  1  0
  2  5  1  0
  2  8  1  0
  3  6  1  0
  3  9  2  0
  3 11  1  0
  3 12  1  0
  4  6  1  0
  4  7  2  0
  5 10  2  0
  7 10  1  0
  8 13  1  0
  8 14  1  0
 10 15  1  0
 11 17  1  0
 12 16  1  0
 13 18  1  0
 14 19  1  0
  7 20  1  0
 13 21  1  0
 13 22  1  0
 14 23  1  0
 14 24  1  0
 15 25  1  0
 15 26  1  0
 15 27  1  0
 16 28  1  0
 16 29  1  0
 16 30  1  0
 17 31  1  0
 17 32  1  0
 17 33  1  0
 18 34  1  0
 18 35  1  0
 18 36  1  0
 19 37  1  0
 19 38  1  0
 19 39  1  0
M  END
> <DSSTox_RID>
40562

> <DSSTox_CID>
4266

> <DSSTox_Generic_SID>
24266

> <DSSTox_FileID>
243_TOXCST_v3a

> <STRUCTURE_Formula>
C11H20N3O3PS

> <STRUCTURE_MolecularWeight>
305.3336

> <STRUCTURE_ChemicalType>
defined organic

> <STRUCTURE_TestedForm_DefinedOrganic>
parent

> <STRUCTURE_Shown>
tested chemical

> <TestSubstance_ChemicalName>
Pirimiphos-methyl

> <Source_ChemicalName>
Pirimiphos-methyl

> <TestSubstance_CASRN>
29232-93-7

> <TestSubstance_Description>
single chemical compound

> <STRUCTURE_ChemicalName_IUPAC>
O-[2-(diethylamino)-6-methylpyrimidin-4-yl] O,O-dimethyl thiophosphate

> <STRUCTURE_SMILES>
CCN(CC)c1nc(C)cc(OP(=S)(OC)OC)n1

> <STRUCTURE_Parent_SMILES>
CCN(CC)c1nc(C)cc(OP(=S)(OC)OC)n1

> <STRUCTURE_InChI>
InChI=1S/C11H20N3O3PS/c1-6-14(7-2)11-12-9(3)8-10(13-11)17-18(19,15-4)16-5/h8H,6-7H2,1-5H3

> <STRUCTURE_InChIKey>
QHOQHJPRIBSPCY-UHFFFAOYSA-N

> <Substance_modify_yyyymmdd>
20080429

> <DSSTox_CID_Parent>
4266

> <ChemicalReplicateCount>
1

> <Coord_Metals>
0

> <Index>
243

> <Canonical_Smiles>
CCN(CC)c1nc(C)cc(OP(=S)(OC)OC)n1

> <Molecular_Weight>
305.33356

> <Frequency>
1

$$$$

  SciTegic          2D

 46 47  0  0  0  0            999 V2000
    4.6346   -1.8339    0.0000 C   0  0
    4.3800   -0.4712    0.0000 C   0  0
    5.7691   -1.0372    0.0000 C   0  0
    3.6269   -2.9460    0.0000 C   0  0
    2.4540   -2.6925    0.0000 O   0  0
    4.0853   -4.3751    0.0000 O   0  0
    2.8851   -0.6953    0.0000 C   0  0
    4.8995    0.9487    0.0000 C   0  0
    7.1303   -0.3800    0.0000 C   0  0
    8.3614   -1.2384    0.0000 C   0  0
    9.7207   -0.6023    0.0000 C   0  0
    8.2299   -2.7335    0.0000 C   0  0
    3.1040   -5.4931    0.0000 C   0  0
    4.5433   -5.9155    0.0000 C   0  0
    4.5863   -7.4149    0.0000 C   0  0
    3.1736   -7.9191    0.0000 C   0  0
    2.2575   -6.7314    0.0000 C   0  0
    5.7297   -5.0005    0.0000 C   0  0
    2.8357   -9.0706    0.0000 O   0  0
    5.8232   -8.2604    0.0000 C   0  0
    5.7101   -9.7570    0.0000 C   0  0
    5.5970  -11.2536    0.0000 C   0  0
    5.2480   -2.6236    0.0000 H   0  0
    6.3730   -1.8343    0.0000 H   0  0
    2.5298   -1.6301    0.0000 H   0  0
    1.8980   -0.8551    0.0000 H   0  0
    2.2530    0.0796    0.0000 H   0  0
    4.2679    1.7240    0.0000 H   0  0
    5.2549    1.8834    0.0000 H   0  0
    5.8866    1.1084    0.0000 H   0  0
    7.2158    0.6164    0.0000 H   0  0
   10.5410   -1.1743    0.0000 H   0  0
   10.6263   -0.1781    0.0000 H   0  0
    9.8062    0.3940    0.0000 H   0  0
    7.3237   -3.1563    0.0000 H   0  0
    8.1428   -3.7297    0.0000 H   0  0
    9.0490   -3.3071    0.0000 H   0  0
    2.1176   -5.3289    0.0000 H   0  0
    1.7457   -5.8723    0.0000 H   0  0
    1.7957   -7.6183    0.0000 H   0  0
    5.5973   -4.0093    0.0000 H   0  0
    6.6544   -5.3812    0.0000 H   0  0
    6.5218   -4.3901    0.0000 H   0  0
    6.7246   -7.8274    0.0000 H   0  0
    6.6490   -8.8244    0.0000 H   0  0
    5.5217  -12.2507    0.0000 H   0  0
  1  2  1  0
  1  3  1  0
  1  4  1  0
  2  3  1  0
  2  7  1  0
  2  8  1  0
  3  9  1  0
  4  5  2  0
  4  6  1  0
 13  6  1  0
  9 10  2  0
 10 11  1  0
 10 12  1  0
 13 14  1  0
 13 17  1  0
 14 15  2  0
 14 18  1  0
 15 16  1  0
 15 20  1  0
 16 17  1  0
 16 19  2  0
 20 21  1  0
 21 22  3  0
  1 23  1  0
  3 24  1  0
  7 25  1  0
  7 26  1  0
  7 27  1  0
  8 28  1  0
  8 29  1  0
  8 30  1  0
  9 31  1  0
 11 32  1  0
 11 33  1  0
 11 34  1  0
 12 35  1  0
 12 36  1  0
 12 37  1  0
 13 38  1  0
 17 39  1  0
 17 40  1  0
 18 41  1  0
 18 42  1  0
 18 43  1  0
 20 44  1  0
 20 45  1  0
 22 46  1  0
M  END
> <DSSTox_RID>
40564

> <DSSTox_CID>
12572

> <DSSTox_Generic_SID>
32572

> <DSSTox_FileID>
244_TOXCST_v3a

> <STRUCTURE_Formula>
C19H24O3

> <STRUCTURE_MolecularWeight>
300.3921

> <STRUCTURE_ChemicalType>
defined organic

> <STRUCTURE_TestedForm_DefinedOrganic>
parent

> <STRUCTURE_Shown>
representative isomer in mixture

> <TestSubstance_ChemicalName>
Prallethrin

> <Source_ChemicalName>
Prallethrin

> <TestSubstance_CASRN>
23031-36-9

> <TestSubstance_Description>
mixture or formulation

> <ChemicalNote>
mixture of 8 isomers; primarily (1R,trans,S) and (1R,cis,S) in approx 4:1; structure shown (1R,trans,S); stereochem; tautomers

> <STRUCTURE_ChemicalName_IUPAC>
(1R)-2-methyl-4-oxo-3-prop-2-yn-1-ylcyclopent-2-en-1-yl (1S,3S)-2,2-dimethyl-3-(2-methylprop-1-en-1-yl)cyclopropanecarboxylate

> <STRUCTURE_SMILES>
O=[C@](O[C@H](C2)C(C)=C(CC#C)C2=O)[C@@H]1C(C)(C)[C@H]1/C=C(C)/C

> <STRUCTURE_Parent_SMILES>
O=[C@](O[C@H](C2)C(C)=C(CC#C)C2=O)[C@@H]1C(C)(C)[C@H]1/C=C(C)/C

> <STRUCTURE_InChI>
InChI=1S/C19H24O3/c1-7-8-13-12(4)16(10-15(13)20)22-18(21)17-14(9-11(2)3)19(17,5)6/h1,9,14,16-17H,8,10H2,2-6H3/t14-,16+,17+/m0/s1

> <STRUCTURE_InChIKey>
SMKRKQBMYOFFMU-USXIJHARSA-N

> <Substance_modify_yyyymmdd>
20080429

> <DSSTox_CID_Parent>
12572

> <ChemicalReplicateCount>
1

> <Coord_Metals>
0

> <Index>
244

> <Canonical_Smiles>
CC(=CC1C(C(=O)OC2CC(=O)C(=C2C)CC#C)C1(C)C)C

> <Molecular_Weight>
300.39206

> <Frequency>
1

$$$$

  SciTegic          2D

 43 44  0  0  0  0            999 V2000
    2.5973   -1.5031    0.0000 C   0  0
    3.6375   -0.9049    0.0000 O   0  0
    1.2990   -0.7500    0.0000 C   0  0
    2.5951   -3.0039    0.0000 O   0  0
    1.2990    0.7500    0.0000 C   0  0
    0.0000   -1.5000    0.0000 C   0  0
    0.0000    1.5000    0.0000 C   0  0
   -1.2990   -0.7500    0.0000 C   0  0
   -1.2990    0.7500    0.0000 C   0  0
    2.5988    1.5004    0.0000 S   0  0
    2.5984    2.7004    0.0000 O   0  0
    3.6377    2.1009    0.0000 O   0  0
    3.8990    0.7508    0.0000 N   0  0
    5.1988    1.5013    0.0000 C   0  0
    5.1984    2.7013    0.0000 O   0  0
    6.4990    0.7517    0.0000 N   0  0
    9.0994    0.7548    0.0000 N   0  0
    7.7958    3.0022    0.0000 N   0  0
    7.7987    1.5021    0.0000 C   0  0
   10.3938    3.0075    0.0000 C   0  0
   10.3969    1.5075    0.0000 C   0  0
    9.0933    3.7548    0.0000 C   0  0
    9.0871    5.2556    0.0000 O   0  0
    7.7848    6.0015    0.0000 C   0  0
    7.7798    7.2015    0.0000 F   0  0
    6.7478    5.3976    0.0000 F   0  0
   11.6966    0.7570    0.0000 O   0  0
   11.6976   -0.7438    0.0000 C   0  0
   12.7368   -1.3438    0.0000 F   0  0
   10.6585   -1.3441    0.0000 F   0  0
    3.8933   -3.7570    0.0000 C   0  0
    0.0000   -2.5000    0.0000 H   0  0
    0.0000    2.5000    0.0000 H   0  0
   -2.1651   -1.2500    0.0000 H   0  0
   -2.1651    1.2500    0.0000 H   0  0
    3.8993   -0.2492    0.0000 H   0  0
    6.4993   -0.2483    0.0000 H   0  0
   11.2588    3.5092    0.0000 H   0  0
    6.9168    6.4981    0.0000 H   0  0
   11.6977   -1.7438    0.0000 H   0  0
    3.8919   -4.7570    0.0000 H   0  0
    4.7586   -4.2584    0.0000 H   0  0
    4.7602   -3.2585    0.0000 H   0  0
  1  2  2  0
  1  3  1  0
  1  4  1  0
  3  5  2  0
  3  6  1  0
  4 31  1  0
  5  7  1  0
  5 10  1  0
  6  8  2  0
  7  9  2  0
  8  9  1  0
 10 11  2  0
 10 12  2  0
 10 13  1  0
 13 14  1  0
 14 15  2  0
 14 16  1  0
 16 19  1  0
 17 19  2  0
 17 21  1  0
 18 19  1  0
 18 22  2  0
 20 21  2  0
 20 22  1  0
 21 27  1  0
 22 23  1  0
 23 24  1  0
 24 25  1  0
 24 26  1  0
 27 28  1  0
 28 29  1  0
 28 30  1  0
  6 32  1  0
  7 33  1  0
  8 34  1  0
  9 35  1  0
 13 36  1  0
 16 37  1  0
 20 38  1  0
 24 39  1  0
 28 40  1  0
 31 41  1  0
 31 42  1  0
 31 43  1  0
M  END
> <DSSTox_RID>
40565

> <DSSTox_CID>
12463

> <DSSTox_Generic_SID>
32463

> <DSSTox_FileID>
245_TOXCST_v3a

> <STRUCTURE_Formula>
C15H12F4N4O7S

> <STRUCTURE_MolecularWeight>
468.337

> <STRUCTURE_ChemicalType>
defined organic

> <STRUCTURE_TestedForm_DefinedOrganic>
parent

> <STRUCTURE_Shown>
tested chemical

> <TestSubstance_ChemicalName>
Primisulfuron-methyl

> <Source_ChemicalName>
Primisulfuron-methyl

> <TestSubstance_CASRN>
86209-51-0

> <TestSubstance_Description>
single chemical compound

> <STRUCTURE_ChemicalName_IUPAC>
methyl 2-[({[4,6-bis(difluoromethoxy)pyrimidin-2-yl]carbamoyl}amino)sulfonyl]benzoate

> <STRUCTURE_SMILES>
O=C(OC)C1=C(S(=O)(NC(NC2=NC(OC(F)F)=CC(OC(F)F)=N2)=O)=O)C=CC=C1

> <STRUCTURE_Parent_SMILES>
O=C(OC)C1=C(S(=O)(NC(NC2=NC(OC(F)F)=CC(OC(F)F)=N2)=O)=O)C=CC=C1

> <STRUCTURE_InChI>
InChI=1S/C15H12F4N4O7S/c1-28-11(24)7-4-2-3-5-8(7)31(26,27)23-15(25)22-14-20-9(29-12(16)17)6-10(21-14)30-13(18)19/h2-6,12-13H,1H3,(H2,20,21,22,23,25)

> <STRUCTURE_InChIKey>
ZTYVMAQSHCZXLF-UHFFFAOYSA-N

> <Substance_modify_yyyymmdd>
20080429

> <DSSTox_CID_Parent>
12463

> <ChemicalReplicateCount>
1

> <Coord_Metals>
0

> <Index>
245

> <Canonical_Smiles>
COC(=O)c1ccccc1S(=O)(=O)NC(=O)Nc2nc(OC(F)F)cc(OC(F)F)n2

> <Molecular_Weight>
468.33699

> <Frequency>
1

$$$$

  SciTegic          2D

 39 40  0  0  0  0            999 V2000
    6.4912   -5.2640    0.0000 N   0  0
    5.1894   -6.0109    0.0000 C   0  0
    1.2990   -0.7500    0.0000 C   0  0
    1.2990    0.7500    0.0000 C   0  0
    0.0000   -1.5000    0.0000 C   0  0
    8.8466   -4.7718    0.0000 N   0  0
    7.8422   -5.8859    0.0000 C   0  0
   -1.2990   -0.7500    0.0000 C   0  0
    0.0000    1.5000    0.0000 C   0  0
    3.8912   -5.2578    0.0000 N   0  0
    6.6300   -3.7832    0.0000 C   0  0
   -1.2990    0.7500    0.0000 C   0  0
    5.1866   -7.2109    0.0000 O   0  0
    8.0974   -3.4723    0.0000 C   0  0
    0.0000   -2.7000    0.0000 Cl  0  0
    2.3383    1.3500    0.0000 Cl  0  0
    2.5973   -1.5031    0.0000 O   0  0
   -2.3383    1.3500    0.0000 Cl  0  0
    2.5951   -3.0039    0.0000 C   0  0
    3.8933   -3.7570    0.0000 C   0  0
    2.5917   -6.0086    0.0000 C   0  0
    2.5912   -7.5095    0.0000 C   0  0
    1.2917   -8.2603    0.0000 C   0  0
    8.0436   -6.8654    0.0000 H   0  0
   -2.1651   -1.2500    0.0000 H   0  0
    0.0000    2.5000    0.0000 H   0  0
    5.8833   -3.1180    0.0000 H   0  0
    8.5047   -2.5590    0.0000 H   0  0
    1.7282   -3.5024    0.0000 H   0  0
    1.7299   -2.5025    0.0000 H   0  0
    4.7602   -3.2585    0.0000 H   0  0
    4.7586   -4.2584    0.0000 H   0  0
    2.5915   -5.0086    0.0000 H   0  0
    1.7256   -5.5086    0.0000 H   0  0
    3.4573   -7.0096    0.0000 H   0  0
    3.4572   -8.0095    0.0000 H   0  0
    1.2914   -9.2603    0.0000 H   0  0
    0.4256   -8.7602    0.0000 H   0  0
    0.4257   -7.7603    0.0000 H   0  0
  1  2  1  0
  1  7  1  0
  1 11  1  0
  2 10  1  0
  2 13  2  0
  3 17  1  0
  3  4  2  0
  3  5  1  0
  4  9  1  0
  4 16  1  0
  5  8  2  0
  5 15  1  0
  6  7  2  0
  6 14  1  0
  8 12  1  0
  9 12  2  0
 10 20  1  0
 10 21  1  0
 11 14  2  0
 12 18  1  0
 17 19  1  0
 19 20  1  0
 21 22  1  0
 22 23  1  0
  7 24  1  0
  8 25  1  0
  9 26  1  0
 11 27  1  0
 14 28  1  0
 19 29  1  0
 19 30  1  0
 20 31  1  0
 20 32  1  0
 21 33  1  0
 21 34  1  0
 22 35  1  0
 22 36  1  0
 23 37  1  0
 23 38  1  0
 23 39  1  0
M  END
> <DSSTox_RID>
40566

> <DSSTox_CID>
4270

> <DSSTox_Generic_SID>
24270

> <DSSTox_FileID>
246_TOXCST_v3a

> <STRUCTURE_Formula>
C15H16Cl3N3O2

> <STRUCTURE_MolecularWeight>
376.6654

> <STRUCTURE_ChemicalType>
defined organic

> <STRUCTURE_TestedForm_DefinedOrganic>
parent

> <STRUCTURE_Shown>
tested chemical

> <TestSubstance_ChemicalName>
Prochloraz

> <Source_ChemicalName>
Prochloraz

> <TestSubstance_CASRN>
67747-09-5

> <TestSubstance_Description>
single chemical compound

> <STRUCTURE_ChemicalName_IUPAC>
N-propyl-N-[2-(2,4,6-trichlorophenoxy)ethyl]-1H-imidazole-1-carboxamide

> <STRUCTURE_SMILES>
O=C(N(CCOc1c(Cl)cc(Cl)cc1Cl)CCC)n2ccnc2

> <STRUCTURE_Parent_SMILES>
O=C(N(CCOc1c(Cl)cc(Cl)cc1Cl)CCC)n2ccnc2

> <STRUCTURE_InChI>
InChI=1S/C15H16Cl3N3O2/c1-2-4-20(15(22)21-5-3-19-10-21)6-7-23-14-12(17)8-11(16)9-13(14)18/h3,5,8-10H,2,4,6-7H2,1H3

> <STRUCTURE_InChIKey>
TVLSRXXIMLFWEO-UHFFFAOYSA-N

> <Substance_modify_yyyymmdd>
20080429

> <DSSTox_CID_Parent>
4270

> <ChemicalReplicateCount>
1

> <Coord_Metals>
0

> <Index>
246

> <Canonical_Smiles>
CCCN(CCOc1c(Cl)cc(Cl)cc1Cl)C(=O)n2ccnc2

> <Molecular_Weight>
376.66544

> <Frequency>
1

$$$$

  SciTegic          2D

 41 41  0  0  0  0            999 V2000
    1.2990   -0.7500    0.0000 C   0  0
    1.2990    0.7500    0.0000 C   0  0
    0.0000   -1.5000    0.0000 C   0  0
    0.0000    1.5000    0.0000 C   0  0
   -1.2990   -0.7500    0.0000 C   0  0
   -1.2990    0.7500    0.0000 C   0  0
   -0.0031   -3.0008    0.0000 N   0  0
    2.5972    1.5031    0.0000 N   0  0
   -1.3039   -3.7494    0.0000 C   0  0
    1.2969   -3.7508    0.0000 C   0  0
   -1.3070   -5.2502    0.0000 C   0  0
   -2.6078   -5.9988    0.0000 C   0  0
    1.2983   -5.2517    0.0000 C   0  0
    2.5983   -6.0017    0.0000 C   0  0
    0.0000    3.0008    0.0000 C   0  0
    1.0388    3.6015    0.0000 F   0  0
   -1.0394    3.6005    0.0000 F   0  0
   -0.0006    4.2008    0.0000 F   0  0
    2.5973   -1.5031    0.0000 N   0  0
    2.5956   -2.7031    0.0000 O   0  0
    3.6375   -0.9049    0.0000 O   0  0
   -2.6003   -1.4978    0.0000 N   0  0
   -3.6387   -0.8963    0.0000 O   0  0
   -2.6024   -2.6978    0.0000 O   0  0
   -2.1651    1.2500    0.0000 H   0  0
    2.5958    2.5031    0.0000 H   0  0
    3.4641    1.0046    0.0000 H   0  0
   -1.3023   -2.7494    0.0000 H   0  0
   -2.1691   -3.2479    0.0000 H   0  0
    1.2964   -2.7508    0.0000 H   0  0
    2.1626   -3.2503    0.0000 H   0  0
   -0.4400   -4.7519    0.0000 H   0  0
   -0.4418   -5.7517    0.0000 H   0  0
   -2.6099   -6.9988    0.0000 H   0  0
   -3.4748   -6.4971    0.0000 H   0  0
   -3.4730   -5.4973    0.0000 H   0  0
    0.4319   -4.7523    0.0000 H   0  0
    0.4326   -5.7522    0.0000 H   0  0
    2.5993   -7.0017    0.0000 H   0  0
    3.4648   -6.5010    0.0000 H   0  0
    3.4640   -5.5011    0.0000 H   0  0
  1  2  1  0
  1  3  2  0
  1 19  1  0
  2  4  2  0
  2  8  1  0
  3  5  1  0
  3  7  1  0
  4  6  1  0
  4 15  1  0
  5  6  2  0
  5 22  1  0
  7  9  1  0
  7 10  1  0
  9 11  1  0
 10 13  1  0
 11 12  1  0
 13 14  1  0
 15 16  1  0
 15 17  1  0
 15 18  1  0
 19 20  2  0
 19 21  2  0
 22 23  2  0
 22 24  2  0
  6 25  1  0
  8 26  1  0
  8 27  1  0
  9 28  1  0
  9 29  1  0
 10 30  1  0
 10 31  1  0
 11 32  1  0
 11 33  1  0
 12 34  1  0
 12 35  1  0
 12 36  1  0
 13 37  1  0
 13 38  1  0
 14 39  1  0
 14 40  1  0
 14 41  1  0
M  END
> <DSSTox_RID>
40300

> <DSSTox_CID>
14210

> <DSSTox_Generic_SID>
34210

> <DSSTox_FileID>
247_TOXCST_v3a

> <STRUCTURE_Formula>
C13H17F3N4O4

> <STRUCTURE_MolecularWeight>
350.2937

> <STRUCTURE_ChemicalType>
defined organic

> <STRUCTURE_TestedForm_DefinedOrganic>
parent

> <STRUCTURE_Shown>
tested chemical

> <TestSubstance_ChemicalName>
Prodiamine

> <Source_ChemicalName>
Prodiamine

> <TestSubstance_CASRN>
29091-21-2

> <TestSubstance_Description>
single chemical compound

> <STRUCTURE_ChemicalName_IUPAC>
2,6-dinitro-N,N-dipropyl-4-(trifluoromethyl)benzene-1,3-diamine

> <STRUCTURE_SMILES>
NC1=C(C(F)(F)F)C=C([N+]([O-])=O)C(N(CCC)CCC)=C1[N+]([O-])=O

> <STRUCTURE_Parent_SMILES>
NC1=C(C(F)(F)F)C=C([N+]([O-])=O)C(N(CCC)CCC)=C1[N+]([O-])=O

> <STRUCTURE_InChI>
InChI=1S/C13H17F3N4O4/c1-3-5-18(6-4-2)11-9(19(21)22)7-8(13(14,15)16)10(17)12(11)20(23)24/h7H,3-6,17H2,1-2H3

> <STRUCTURE_InChIKey>
RSVPPPHXAASNOL-UHFFFAOYSA-N

> <Substance_modify_yyyymmdd>
20080429

> <DSSTox_CID_Parent>
14210

> <ChemicalReplicateCount>
1

> <Coord_Metals>
0

> <Index>
247

> <Canonical_Smiles>
CCCN(CCC)c1c(cc(c(N)c1N(=O)=O)C(F)(F)F)N(=O)=O

> <Molecular_Weight>
350.29368

> <Frequency>
1

$$$$

  SciTegic          2D

 33 33  0  0  0  0            999 V2000
    1.2990   -0.7500    0.0000 C   0  0
    0.0000   -1.5000    0.0000 C   0  0
   -1.2990   -0.7500    0.0000 C   0  0
   -1.2990    0.7500    0.0000 C   0  0
    0.0000    1.5000    0.0000 C   0  0
    1.2990    0.7500    0.0000 C   0  0
   -2.5973    1.5031    0.0000 O   0  0
   -2.5951    3.0039    0.0000 P   0  0
   -3.8933    3.7570    0.0000 S   0  0
   -1.5549    3.6021    0.0000 O   0  0
   -3.9229    2.2437    0.0000 O   0  0
   -2.3383   -1.3500    0.0000 Cl  0  0
    2.3383   -1.3500    0.0000 Br  0  0
   -3.8912    5.2578    0.0000 C   0  0
   -5.2203    2.9980    0.0000 C   0  0
   -5.1894    6.0109    0.0000 C   0  0
   -5.1873    7.5117    0.0000 C   0  0
   -6.5228    2.2523    0.0000 C   0  0
    0.0000   -2.5000    0.0000 H   0  0
    0.0000    2.5000    0.0000 H   0  0
    2.1651    1.2500    0.0000 H   0  0
   -3.0243    5.7563    0.0000 H   0  0
   -3.0260    4.7564    0.0000 H   0  0
   -5.2170    3.9980    0.0000 H   0  0
   -4.3527    3.4953    0.0000 H   0  0
   -6.0563    5.5124    0.0000 H   0  0
   -5.1913    5.0109    0.0000 H   0  0
   -6.0523    8.0135    0.0000 H   0  0
   -4.3204    8.0102    0.0000 H   0  0
   -5.1854    8.5117    0.0000 H   0  0
   -7.3873    2.7549    0.0000 H   0  0
   -6.5262    1.2523    0.0000 H   0  0
   -7.3904    1.7551    0.0000 H   0  0
  1 13  1  0
  1  6  1  0
  1  2  2  0
  2  3  1  0
  3 12  1  0
  3  4  2  0
  4  5  1  0
  4  7  1  0
  5  6  2  0
  7  8  1  0
  8  9  1  0
  8 10  2  0
  8 11  1  0
  9 14  1  0
 11 15  1  0
 14 16  1  0
 15 18  1  0
 16 17  1  0
  2 19  1  0
  5 20  1  0
  6 21  1  0
 14 22  1  0
 14 23  1  0
 15 24  1  0
 15 25  1  0
 16 26  1  0
 16 27  1  0
 17 28  1  0
 17 29  1  0
 17 30  1  0
 18 31  1  0
 18 32  1  0
 18 33  1  0
M  END
> <DSSTox_RID>
40567

> <DSSTox_CID>
12464

> <DSSTox_Generic_SID>
32464

> <DSSTox_FileID>
248_TOXCST_v3a

> <STRUCTURE_Formula>
C11H15BrClO3PS

> <STRUCTURE_MolecularWeight>
373.6308

> <STRUCTURE_ChemicalType>
defined organic

> <STRUCTURE_TestedForm_DefinedOrganic>
parent

> <STRUCTURE_Shown>
tested chemical

> <TestSubstance_ChemicalName>
Profenofos

> <Source_ChemicalName>
Profenofos

> <TestSubstance_CASRN>
41198-08-7

> <TestSubstance_Description>
single chemical compound

> <STRUCTURE_ChemicalName_IUPAC>
O-(4-bromo-2-chlorophenyl) O-ethyl S-propyl thiophosphate

> <STRUCTURE_SMILES>
O=P(SCCC)(OCC)OC(C=C1)=C(Cl)C=C1Br

> <STRUCTURE_Parent_SMILES>
O=P(SCCC)(OCC)OC(C=C1)=C(Cl)C=C1Br

> <STRUCTURE_InChI>
InChI=1S/C11H15BrClO3PS/c1-3-7-18-17(14,15-4-2)16-11-6-5-9(12)8-10(11)13/h5-6,8H,3-4,7H2,1-2H3

> <STRUCTURE_InChIKey>
QYMMJNLHFKGANY-UHFFFAOYSA-N

> <Substance_modify_yyyymmdd>
20080429

> <DSSTox_CID_Parent>
12464

> <ChemicalReplicateCount>
1

> <Coord_Metals>
0

> <Index>
248

> <Canonical_Smiles>
CCCSP(=O)(OCC)Oc1ccc(Br)cc1Cl

> <Molecular_Weight>
373.63076

> <Frequency>
1

$$$$

  SciTegic          2D

 27 27  0  0  0  0            999 V2000
    1.2990   -0.7500    0.0000 C   0  0
    1.2990    0.7500    0.0000 C   0  0
    0.0000   -1.5000    0.0000 C   0  0
    0.0000    1.5000    0.0000 C   0  0
   -1.2990   -0.7500    0.0000 C   0  0
   -1.2990    0.7500    0.0000 C   0  0
    1.7710   -2.1532    0.0000 C   0  0
    3.2342   -2.4869    0.0000 O   0  0
    0.9552   -3.0333    0.0000 O   0  0
   -2.1651   -1.2500    0.0000 O   0  0
    0.0000    2.7000    0.0000 O   0  0
   -2.7502    0.4571    0.0000 C   0  0
   -3.1045   -0.6894    0.0000 O   0  0
   -3.7708    1.5575    0.0000 C   0  0
   -5.2343    1.2247    0.0000 C   0  0
    2.1526   -0.2289    0.0000 H   0  0
    0.4215    0.2706    0.0000 H   0  0
    1.2755    1.7497    0.0000 H   0  0
    0.8776   -1.9794    0.0000 H   0  0
   -0.8775   -1.9795    0.0000 H   0  0
   -1.2745    1.7497    0.0000 H   0  0
    3.5298   -3.4422    0.0000 H   0  0
   -3.4756    2.5129    0.0000 H   0  0
   -2.7958    1.7796    0.0000 H   0  0
   -5.9143    1.9579    0.0000 H   0  0
   -5.5295    0.2693    0.0000 H   0  0
   -6.2093    1.0025    0.0000 H   0  0
  1  2  1  0
  1  3  1  0
  1  7  1  0
  2  4  1  0
  3  5  1  0
  4  6  1  0
  4 11  2  0
  5  6  1  0
  5 10  2  0
  6 12  1  0
  7  8  1  0
  7  9  2  0
 12 13  2  0
 12 14  1  0
 14 15  1  0
  1 16  1  0
  2 17  1  0
  2 18  1  0
  3 19  1  0
  3 20  1  0
  6 21  1  0
  8 22  1  0
 14 23  1  0
 14 24  1  0
 15 25  1  0
 15 26  1  0
 15 27  1  0
M  END
> <DSSTox_RID>
40402

> <DSSTox_CID>
14496

> <DSSTox_Generic_SID>
34496

> <DSSTox_FileID>
249_TOXCST_v3a

> <STRUCTURE_Formula>
C20H22CaO10

> <STRUCTURE_MolecularWeight>
462.4607

> <STRUCTURE_ChemicalType>
defined organic

> <STRUCTURE_TestedForm_DefinedOrganic>
salt bis Ca

> <STRUCTURE_Shown>
tested chemical

> <TestSubstance_ChemicalName>
Prohexadione-calcium

> <Source_ChemicalName>
Prohexadione-calcium

> <TestSubstance_CASRN>
127277-53-6

> <TestSubstance_Description>
single chemical compound

> <ChemicalNote>
parent [88805-35-0]

> <STRUCTURE_ChemicalName_IUPAC>
calcium bis(3,5-dioxo-4-propionylcyclohexanecarboxylate)

> <STRUCTURE_SMILES>
[O-]C(C(CC1=O)CC(C1C(CC)=O)=O)=O.[O-]C(C(CC2=O)CC(C2C(CC)=O)=O)=O.[Ca+2]

> <STRUCTURE_Parent_SMILES>
OC(C(CC1=O)CC(C1C(CC)=O)=O)=O

> <STRUCTURE_InChI>
InChI=1S/2C10H12O5.Ca/c2*1-2-6(11)9-7(12)3-5(10(14)15)4-8(9)13;/h2*5,9H,2-4H2,1H3,(H,14,15);/q;;+2/p-2

> <STRUCTURE_InChIKey>
SAZAPFZGSHYFGB-UHFFFAOYSA-L

> <Substance_modify_yyyymmdd>
20080429

> <DSSTox_CID_Parent>
23966

> <ChemicalReplicateCount>
1

> <Coord_Metals>
0

> <Index>
249

> <Canonical_Smiles>
CCC(=O)C1C(=O)CC(CC1=O)C(=O)O

> <Molecular_Weight>
212.19927

> <Frequency>
1

$$$$

  SciTegic          2D

 35 35  0  0  0  0            999 V2000
    1.2990   -0.7500    0.0000 C   0  0
    1.2990    0.7500    0.0000 N   0  0
    0.0000    1.5000    0.0000 C   0  0
   -0.0031    3.0008    0.0000 N   0  0
   -1.3039    3.7494    0.0000 C   0  0
   -1.3070    5.2502    0.0000 C   0  0
   -2.6023    2.9967    0.0000 C   0  0
   -1.2990    0.7500    0.0000 N   0  0
   -1.2990   -0.7500    0.0000 C   0  0
    0.0000   -1.5000    0.0000 N   0  0
   -2.5972   -1.5031    0.0000 O   0  0
   -2.5951   -3.0039    0.0000 C   0  0
    2.5973   -1.5031    0.0000 N   0  0
    2.5951   -3.0039    0.0000 C   0  0
    3.8933   -3.7570    0.0000 C   0  0
    1.2941   -3.7520    0.0000 C   0  0
    0.8620    3.5023    0.0000 H   0  0
   -0.4388    4.2509    0.0000 H   0  0
   -2.1738    5.7490    0.0000 H   0  0
   -1.3086    6.2502    0.0000 H   0  0
   -0.4419    5.7517    0.0000 H   0  0
   -2.6012    1.9967    0.0000 H   0  0
   -3.4677    2.4956    0.0000 H   0  0
   -3.4690    3.4955    0.0000 H   0  0
   -3.4601   -3.5057    0.0000 H   0  0
   -1.7282   -3.5024    0.0000 H   0  0
   -2.5932   -4.0039    0.0000 H   0  0
    3.4642   -1.0046    0.0000 H   0  0
    3.4620   -2.5054    0.0000 H   0  0
    3.8919   -4.7570    0.0000 H   0  0
    4.7586   -4.2584    0.0000 H   0  0
    4.7602   -3.2585    0.0000 H   0  0
    0.4287   -3.2511    0.0000 H   0  0
    0.4275   -4.2509    0.0000 H   0  0
    1.2927   -4.7520    0.0000 H   0  0
  1  2  2  0
  1 10  1  0
  1 13  1  0
  2  3  1  0
  3  4  1  0
  3  8  2  0
  4  5  1  0
  5  6  1  0
  5  7  1  0
  8  9  1  0
  9 10  2  0
  9 11  1  0
 11 12  1  0
 13 14  1  0
 14 15  1  0
 14 16  1  0
  4 17  1  0
  5 18  1  0
  6 19  1  0
  6 20  1  0
  6 21  1  0
  7 22  1  0
  7 23  1  0
  7 24  1  0
 12 25  1  0
 12 26  1  0
 12 27  1  0
 13 28  1  0
 14 29  1  0
 15 30  1  0
 15 31  1  0
 15 32  1  0
 16 33  1  0
 16 34  1  0
 16 35  1  0
M  END
> <DSSTox_RID>
40568

> <DSSTox_CID>
2341

> <DSSTox_Generic_SID>
22341

> <DSSTox_FileID>
250_TOXCST_v3a

> <STRUCTURE_Formula>
C10H19N5O

> <STRUCTURE_MolecularWeight>
225.2908

> <STRUCTURE_ChemicalType>
defined organic

> <STRUCTURE_TestedForm_DefinedOrganic>
parent

> <STRUCTURE_Shown>
tested chemical

> <TestSubstance_ChemicalName>
Prometon

> <Source_ChemicalName>
Prometon

> <TestSubstance_CASRN>
1610-18-0

> <TestSubstance_Description>
single chemical compound

> <STRUCTURE_ChemicalName_IUPAC>
N,N'-diisopropyl-6-methoxy-1,3,5-triazine-2,4-diamine

> <STRUCTURE_SMILES>
C1(N=C(NC(C)C)N=C(N=1)OC)NC(C)C

> <STRUCTURE_Parent_SMILES>
C1(N=C(NC(C)C)N=C(N=1)OC)NC(C)C

> <STRUCTURE_InChI>
InChI=1S/C10H19N5O/c1-6(2)11-8-13-9(12-7(3)4)15-10(14-8)16-5/h6-7H,1-5H3,(H2,11,12,13,14,15)

> <STRUCTURE_InChIKey>
ISEUFVQQFVOBCY-UHFFFAOYSA-N

> <Substance_modify_yyyymmdd>
20080429

> <DSSTox_CID_Parent>
2341

> <ChemicalReplicateCount>
1

> <Coord_Metals>
0

> <Index>
250

> <Canonical_Smiles>
COc1nc(NC(C)C)nc(NC(C)C)n1

> <Molecular_Weight>
225.29075

> <Frequency>
1

$$$$

  SciTegic          2D

 35 35  0  0  0  0            999 V2000
   -5.2003    1.4932    0.0000 C   0  0
    3.8933    3.7570    0.0000 C   0  0
    1.2941    3.7520    0.0000 C   0  0
   -1.3039   -3.7494    0.0000 C   0  0
   -3.8964   -0.7553    0.0000 C   0  0
   -3.8990    0.7455    0.0000 C   0  0
    2.5951    3.0039    0.0000 C   0  0
   -0.0031   -3.0008    0.0000 S   0  0
    2.5972    1.5031    0.0000 N   0  0
   -2.6003    1.4977    0.0000 N   0  0
    1.2990   -0.7500    0.0000 N   0  0
    1.2990    0.7500    0.0000 C   0  0
    0.0000   -1.5000    0.0000 C   0  0
    0.0000    1.5000    0.0000 N   0  0
   -1.2990   -0.7500    0.0000 N   0  0
   -1.2990    0.7500    0.0000 C   0  0
   -6.0656    0.9920    0.0000 H   0  0
   -6.0671    1.9918    0.0000 H   0  0
   -5.2021    2.4932    0.0000 H   0  0
    3.8919    4.7570    0.0000 H   0  0
    4.7585    4.2584    0.0000 H   0  0
    4.7602    3.2585    0.0000 H   0  0
    0.4286    3.2511    0.0000 H   0  0
    0.4274    4.2509    0.0000 H   0  0
    1.2927    4.7520    0.0000 H   0  0
   -1.3060   -4.7494    0.0000 H   0  0
   -2.1691   -3.2479    0.0000 H   0  0
   -2.1709   -4.2478    0.0000 H   0  0
   -3.0298   -1.2543    0.0000 H   0  0
   -3.8951   -1.7553    0.0000 H   0  0
   -4.7617   -1.2565    0.0000 H   0  0
   -3.9008    1.7455    0.0000 H   0  0
    3.4620    2.5054    0.0000 H   0  0
    3.4641    1.0046    0.0000 H   0  0
   -2.6021    2.4977    0.0000 H   0  0
  1  6  1  0
  2  7  1  0
  3  7  1  0
  4  8  1  0
  5  6  1  0
  6 10  1  0
  7  9  1  0
  8 13  1  0
  9 12  1  0
 10 16  1  0
 11 12  2  0
 11 13  1  0
 12 14  1  0
 13 15  2  0
 14 16  2  0
 15 16  1  0
  1 17  1  0
  1 18  1  0
  1 19  1  0
  2 20  1  0
  2 21  1  0
  2 22  1  0
  3 23  1  0
  3 24  1  0
  3 25  1  0
  4 26  1  0
  4 27  1  0
  4 28  1  0
  5 29  1  0
  5 30  1  0
  5 31  1  0
  6 32  1  0
  7 33  1  0
  9 34  1  0
 10 35  1  0
M  END
> <DSSTox_RID>
40569

> <DSSTox_CID>
4272

> <DSSTox_Generic_SID>
24272

> <DSSTox_FileID>
251_TOXCST_v3a

> <STRUCTURE_Formula>
C10H19N5S

> <STRUCTURE_MolecularWeight>
241.3564

> <STRUCTURE_ChemicalType>
defined organic

> <STRUCTURE_TestedForm_DefinedOrganic>
parent

> <STRUCTURE_Shown>
tested chemical

> <TestSubstance_ChemicalName>
Prometryn

> <Source_ChemicalName>
Prometryn

> <TestSubstance_CASRN>
7287-19-6

> <TestSubstance_Description>
single chemical compound

> <STRUCTURE_ChemicalName_IUPAC>
N,N'-diisopropyl-6-(methylthio)-1,3,5-triazine-2,4-diamine

> <STRUCTURE_SMILES>
CSc1nc(NC(C)C)nc(NC(C)C)n1

> <STRUCTURE_Parent_SMILES>
CSc1nc(NC(C)C)nc(NC(C)C)n1

> <STRUCTURE_InChI>
InChI=1S/C10H19N5S/c1-6(2)11-8-13-9(12-7(3)4)15-10(14-8)16-5/h6-7H,1-5H3,(H2,11,12,13,14,15)

> <STRUCTURE_InChIKey>
AAEVYOVXGOFMJO-UHFFFAOYSA-N

> <Substance_modify_yyyymmdd>
20080429

> <DSSTox_CID_Parent>
4272

> <ChemicalReplicateCount>
1

> <Coord_Metals>
0

> <Index>
251

> <Canonical_Smiles>
CSc1nc(NC(C)C)nc(NC(C)C)n1

> <Molecular_Weight>
241.35635

> <Frequency>
1

$$$$

  SciTegic          2D

 33 32  0  0  0  0            999 V2000
    9.0999    0.7500    0.0000 C   0  0
    9.0999    1.9500    0.0000 O   0  0
   10.3999    0.0000    0.0000 O   0  0
    7.7999    0.0000    0.0000 N   0  0
    6.5000    0.7500    0.0000 C   0  0
    5.2000    0.0000    0.0000 C   0  0
    3.9000    0.7500    0.0000 C   0  0
    2.6000    0.0000    0.0000 N   0  0
    1.3000    0.7500    0.0000 C   0  0
    2.5969   -1.5008    0.0000 C   0  0
   11.6999    0.7500    0.0000 C   0  0
   12.9999    0.0000    0.0000 C   0  0
   14.2999    0.7500    0.0000 C   0  0
    7.7999   -1.0000    0.0000 H   0  0
    7.3659    1.2501    0.0000 H   0  0
    6.5000    1.7500    0.0000 H   0  0
    4.3340   -0.5001    0.0000 H   0  0
    5.2000   -1.0000    0.0000 H   0  0
    3.0340    1.2501    0.0000 H   0  0
    3.9000    1.7500    0.0000 H   0  0
    0.4338    0.2503    0.0000 H   0  0
    0.4340    1.2501    0.0000 H   0  0
    1.3000    1.7500    0.0000 H   0  0
    1.7302   -1.9996    0.0000 H   0  0
    2.5953   -2.5008    0.0000 H   0  0
    3.4620   -2.0023    0.0000 H   0  0
   11.6999    1.7500    0.0000 H   0  0
   10.8340    1.2501    0.0000 H   0  0
   12.9999   -1.0000    0.0000 H   0  0
   12.1340   -0.5001    0.0000 H   0  0
   15.1661    0.2503    0.0000 H   0  0
   14.2999    1.7500    0.0000 H   0  0
   15.1658    1.2501    0.0000 H   0  0
  1  2  2  0
  1  3  1  0
  1  4  1  0
  3 11  1  0
  4  5  1  0
  5  6  1  0
  6  7  1  0
  7  8  1  0
  8  9  1  0
  8 10  1  0
 11 12  1  0
 12 13  1  0
  4 14  1  0
  5 15  1  0
  5 16  1  0
  6 17  1  0
  6 18  1  0
  7 19  1  0
  7 20  1  0
  9 21  1  0
  9 22  1  0
  9 23  1  0
 10 24  1  0
 10 25  1  0
 10 26  1  0
 11 27  1  0
 11 28  1  0
 12 29  1  0
 12 30  1  0
 13 31  1  0
 13 32  1  0
 13 33  1  0
M  END
> <DSSTox_RID>
40571

> <DSSTox_CID>
14849

> <DSSTox_Generic_SID>
34849

> <DSSTox_FileID>
252_TOXCST_v3a

> <STRUCTURE_Formula>
C9H21ClN2O2

> <STRUCTURE_MolecularWeight>
224.7282

> <STRUCTURE_ChemicalType>
defined organic

> <STRUCTURE_TestedForm_DefinedOrganic>
complex HCl

> <STRUCTURE_Shown>
tested chemical

> <TestSubstance_ChemicalName>
Propamocarb hydrochloride

> <Source_ChemicalName>
Propamocarb hydrochloride

> <TestSubstance_CASRN>
25606-41-1

> <TestSubstance_Description>
single chemical compound

> <ChemicalNote>
parent [24579-73-5]

> <STRUCTURE_ChemicalName_IUPAC>
propyl [3-(dimethylamino)propyl]carbamate hydrochloride

> <STRUCTURE_SMILES>
O=C(NCCCN(C)C)OCCC.Cl

> <STRUCTURE_Parent_SMILES>
O=C(NCCCN(C)C)OCCC

> <STRUCTURE_InChI>
InChI=1S/C9H20N2O2.ClH/c1-4-8-13-9(12)10-6-5-7-11(2)3;/h4-8H2,1-3H3,(H,10,12);1H

> <STRUCTURE_InChIKey>
MKIMSXGUTQTKJU-UHFFFAOYSA-N

> <Substance_modify_yyyymmdd>
20080429

> <DSSTox_CID_Parent>
20295

> <ChemicalReplicateCount>
1

> <Coord_Metals>
0

> <Index>
252

> <Canonical_Smiles>
CCCOC(=O)NCCCN(C)C

> <Molecular_Weight>
188.26729

> <Frequency>
1

$$$$

  SciTegic          2D

 22 22  0  0  0  0            999 V2000
    1.2990   -0.7500    0.0000 C   0  0
    1.2990    0.7500    0.0000 C   0  0
    2.3383    1.3500    0.0000 Cl  0  0
    0.0000    1.5000    0.0000 C   0  0
    0.0000    2.7000    0.0000 Cl  0  0
   -1.2990    0.7500    0.0000 C   0  0
   -1.2990   -0.7500    0.0000 C   0  0
    0.0000   -1.5000    0.0000 C   0  0
   -0.0031   -3.0008    0.0000 N   0  0
   -1.3039   -3.7494    0.0000 C   0  0
   -2.3421   -3.1476    0.0000 O   0  0
   -1.3070   -5.2502    0.0000 C   0  0
   -2.6078   -5.9988    0.0000 C   0  0
    2.1651   -1.2500    0.0000 H   0  0
   -2.1651    1.2500    0.0000 H   0  0
   -2.1651   -1.2500    0.0000 H   0  0
    0.8621   -3.5023    0.0000 H   0  0
   -0.4418   -5.7517    0.0000 H   0  0
   -0.4400   -4.7519    0.0000 H   0  0
   -2.6099   -6.9988    0.0000 H   0  0
   -3.4730   -5.4973    0.0000 H   0  0
   -3.4748   -6.4971    0.0000 H   0  0
  1  2  2  0
  1  8  1  0
  2  3  1  0
  2  4  1  0
  4  5  1  0
  4  6  2  0
  6  7  1  0
  7  8  2  0
  8  9  1  0
  9 10  1  0
 10 11  2  0
 10 12  1  0
 12 13  1  0
  1 14  1  0
  6 15  1  0
  7 16  1  0
  9 17  1  0
 12 18  1  0
 12 19  1  0
 13 20  1  0
 13 21  1  0
 13 22  1  0
M  END
> <DSSTox_RID>
40572

> <DSSTox_CID>
2111

> <DSSTox_Generic_SID>
22111

> <DSSTox_FileID>
253_TOXCST_v3a

> <STRUCTURE_Formula>
C9H9Cl2NO

> <STRUCTURE_MolecularWeight>
218.0799

> <STRUCTURE_ChemicalType>
defined organic

> <STRUCTURE_TestedForm_DefinedOrganic>
parent

> <STRUCTURE_Shown>
tested chemical

> <TestSubstance_ChemicalName>
Propanil

> <Source_ChemicalName>
Propanil

> <TestSubstance_CASRN>
709-98-8

> <TestSubstance_Description>
single chemical compound

> <STRUCTURE_ChemicalName_IUPAC>
N-(3,4-dichlorophenyl)propanamide

> <STRUCTURE_SMILES>
C1=C(Cl)C(Cl)=CC=C1NC(=O)CC

> <STRUCTURE_Parent_SMILES>
C1=C(Cl)C(Cl)=CC=C1NC(=O)CC

> <STRUCTURE_InChI>
InChI=1S/C9H9Cl2NO/c1-2-9(13)12-6-3-4-7(10)8(11)5-6/h3-5H,2H2,1H3,(H,12,13)

> <STRUCTURE_InChIKey>
LFULEKSKNZEWOE-UHFFFAOYSA-N

> <Substance_modify_yyyymmdd>
20080429

> <DSSTox_CID_Parent>
2111

> <ChemicalReplicateCount>
1

> <Coord_Metals>
0

> <Index>
253

> <Canonical_Smiles>
CCC(=O)Nc1ccc(Cl)c(Cl)c1

> <Molecular_Weight>
218.07985

> <Frequency>
1

$$$$

  SciTegic          2D

 50 51  0  0  0  0            999 V2000
    0.8068   -3.3033    0.0000 S   0  0
    1.7710   -2.1532    0.0000 O   0  0
    1.2990   -0.7500    0.0000 C   0  0
    0.8686   -7.2743    0.0000 C   0  0
    1.3816   -8.6847    0.0000 C   0  0
    1.2990    0.7500    0.0000 C   0  0
    1.7710    2.1532    0.0000 O   0  0
   -0.1781   -3.1298    0.0000 O   0  0
    7.4469    3.8870    0.0000 C   0  0
    6.1707    3.0971    0.0000 C   0  0
    5.7011    1.6725    0.0000 C   0  0
    5.1718    4.2161    0.0000 C   0  0
    1.3198   -4.7137    0.0000 O   0  0
    3.2342    2.4869    0.0000 C   0  0
    3.7033    3.9105    0.0000 C   0  0
    4.2326    1.3669    0.0000 C   0  0
    0.3556   -5.8638    0.0000 C   0  0
    0.0000   -1.5000    0.0000 C   0  0
    8.7695    3.1776    0.0000 C   0  0
    7.4004    5.3870    0.0000 C   0  0
    7.4914    2.3577    0.0000 C   0  0
    0.0000    1.5000    0.0000 C   0  0
   -1.2990   -0.7500    0.0000 C   0  0
   -1.2990    0.7500    0.0000 C   0  0
    2.1526   -0.2289    0.0000 H   0  0
    1.7234   -9.6244    0.0000 H   0  0
    0.4210    0.2714    0.0000 H   0  0
    6.3671    0.9265    0.0000 H   0  0
    5.4849    5.1658    0.0000 H   0  0
    3.0372    4.6564    0.0000 H   0  0
    3.9192    0.4173    0.0000 H   0  0
   -0.6293   -5.6903    0.0000 H   0  0
    0.0133   -4.9242    0.0000 H   0  0
   -0.8776   -1.9794    0.0000 H   0  0
    0.8775   -1.9795    0.0000 H   0  0
    9.6198    3.7039    0.0000 H   0  0
    8.8004    2.1781    0.0000 H   0  0
    9.6505    2.7045    0.0000 H   0  0
    8.2502    5.9141    0.0000 H   0  0
    6.5192    5.8597    0.0000 H   0  0
    7.3690    6.3865    0.0000 H   0  0
    6.6406    1.8322    0.0000 H   0  0
    7.5209    1.3581    0.0000 H   0  0
    8.3717    1.8833    0.0000 H   0  0
    0.8776    1.9794    0.0000 H   0  0
   -0.8775    1.9795    0.0000 H   0  0
   -2.1530   -0.2297    0.0000 H   0  0
   -0.4450   -0.2298    0.0000 H   0  0
   -1.2755    1.7497    0.0000 H   0  0
   -2.1531    0.2298    0.0000 H   0  0
  1  2  1  0
  1  8  2  0
  1 13  1  0
  2  3  1  0
  3  6  1  0
  3 18  1  0
  4 17  1  0
  4  5  3  0
  6  7  1  0
  6 22  1  0
  7 14  1  0
  9 10  1  0
  9 19  1  0
  9 20  1  0
  9 21  1  0
 10 11  2  0
 10 12  1  0
 11 16  1  0
 12 15  2  0
 13 17  1  0
 14 15  1  0
 14 16  2  0
 18 23  1  0
 22 24  1  0
 23 24  1  0
  3 25  1  0
  5 26  1  0
  6 27  1  0
 11 28  1  0
 12 29  1  0
 15 30  1  0
 16 31  1  0
 17 32  1  0
 17 33  1  0
 18 34  1  0
 18 35  1  0
 19 36  1  0
 19 37  1  0
 19 38  1  0
 20 39  1  0
 20 40  1  0
 20 41  1  0
 21 42  1  0
 21 43  1  0
 21 44  1  0
 22 45  1  0
 22 46  1  0
 23 47  1  0
 23 48  1  0
 24 49  1  0
 24 50  1  0
M  END
> <DSSTox_RID>
40574

> <DSSTox_CID>
4276

> <DSSTox_Generic_SID>
24276

> <DSSTox_FileID>
254_TOXCST_v3a

> <STRUCTURE_Formula>
C19H26O4S

> <STRUCTURE_MolecularWeight>
350.4723

> <STRUCTURE_ChemicalType>
defined organic

> <STRUCTURE_TestedForm_DefinedOrganic>
parent

> <STRUCTURE_Shown>
tested chemical

> <TestSubstance_ChemicalName>
Propargite

> <Source_ChemicalName>
Propargite

> <TestSubstance_CASRN>
2312-35-8

> <TestSubstance_Description>
single chemical compound

> <STRUCTURE_ChemicalName_IUPAC>
2-(4-tert-butylphenoxy)cyclohexyl prop-2-yn-1-yl sulfite

> <STRUCTURE_SMILES>
CC(C)(C)c1ccc(cc1)OC2CCCCC2OS(=O)OCC#C

> <STRUCTURE_Parent_SMILES>
CC(C)(C)c1ccc(cc1)OC2CCCCC2OS(=O)OCC#C

> <STRUCTURE_InChI>
InChI=1S/C19H26O4S/c1-5-14-21-24(20)23-18-9-7-6-8-17(18)22-16-12-10-15(11-13-16)19(2,3)4/h1,10-13,17-18H,6-9,14H2,2-4H3

> <STRUCTURE_InChIKey>
ZYHMJXZULPZUED-UHFFFAOYSA-N

> <Substance_modify_yyyymmdd>
20080429

> <DSSTox_CID_Parent>
4276

> <ChemicalReplicateCount>
1

> <Coord_Metals>
0

> <Index>
254

> <Canonical_Smiles>
CC(C)(C)c1ccc(OC2CCCCC2OS(=O)OCC#C)cc1

> <Molecular_Weight>
350.47234

> <Frequency>
1

$$$$

  SciTegic          2D

 31 31  0  0  0  0            999 V2000
    2.3383   -1.3500    0.0000 Cl  0  0
    1.2990   -0.7500    0.0000 C   0  0
    1.2990    0.7500    0.0000 N   0  0
    0.0000    1.5000    0.0000 C   0  0
   -1.2990    0.7500    0.0000 N   0  0
   -1.2990   -0.7500    0.0000 C   0  0
    0.0000   -1.5000    0.0000 N   0  0
   -2.5972   -1.5031    0.0000 N   0  0
   -2.5951   -3.0039    0.0000 C   0  0
   -3.8933   -3.7570    0.0000 C   0  0
   -1.2941   -3.7520    0.0000 C   0  0
   -0.0031    3.0008    0.0000 N   0  0
   -1.3039    3.7494    0.0000 C   0  0
   -1.3070    5.2502    0.0000 C   0  0
   -2.6023    2.9967    0.0000 C   0  0
   -3.4641   -1.0046    0.0000 H   0  0
   -3.4620   -2.5054    0.0000 H   0  0
   -3.8919   -4.7570    0.0000 H   0  0
   -4.7585   -4.2584    0.0000 H   0  0
   -4.7602   -3.2585    0.0000 H   0  0
   -0.4286   -3.2511    0.0000 H   0  0
   -0.4275   -4.2509    0.0000 H   0  0
   -1.2927   -4.7520    0.0000 H   0  0
    0.8620    3.5023    0.0000 H   0  0
   -0.4388    4.2509    0.0000 H   0  0
   -2.1738    5.7490    0.0000 H   0  0
   -1.3086    6.2502    0.0000 H   0  0
   -0.4419    5.7517    0.0000 H   0  0
   -2.6012    1.9967    0.0000 H   0  0
   -3.4677    2.4956    0.0000 H   0  0
   -3.4690    3.4955    0.0000 H   0  0
  1  2  1  0
  2  3  2  0
  2  7  1  0
  3  4  1  0
  4  5  2  0
  4 12  1  0
  5  6  1  0
  6  7  2  0
  6  8  1  0
  8  9  1  0
  9 10  1  0
  9 11  1  0
 12 13  1  0
 13 14  1  0
 13 15  1  0
  8 16  1  0
  9 17  1  0
 10 18  1  0
 10 19  1  0
 10 20  1  0
 11 21  1  0
 11 22  1  0
 11 23  1  0
 12 24  1  0
 13 25  1  0
 14 26  1  0
 14 27  1  0
 14 28  1  0
 15 29  1  0
 15 30  1  0
 15 31  1  0
M  END
> <DSSTox_RID>
40297

> <DSSTox_CID>
1196

> <DSSTox_Generic_SID>
21196

> <DSSTox_FileID>
255_TOXCST_v3a

> <STRUCTURE_Formula>
C9H16ClN5

> <STRUCTURE_MolecularWeight>
229.7098

> <STRUCTURE_ChemicalType>
defined organic

> <STRUCTURE_TestedForm_DefinedOrganic>
parent

> <STRUCTURE_Shown>
tested chemical

> <TestSubstance_ChemicalName>
Propazine

> <Source_ChemicalName>
Propazine

> <TestSubstance_CASRN>
139-40-2

> <TestSubstance_Description>
single chemical compound

> <STRUCTURE_ChemicalName_IUPAC>
6-chloro-N,N'-diisopropyl-1,3,5-triazine-2,4-diamine

> <STRUCTURE_SMILES>
ClC1=NC(=NC(=N1)NC(C)C)NC(C)C

> <STRUCTURE_Parent_SMILES>
ClC1=NC(=NC(=N1)NC(C)C)NC(C)C

> <STRUCTURE_InChI>
InChI=1S/C9H16ClN5/c1-5(2)11-8-13-7(10)14-9(15-8)12-6(3)4/h5-6H,1-4H3,(H2,11,12,13,14,15)

> <STRUCTURE_InChIKey>
WJNRPILHGGKWCK-UHFFFAOYSA-N

> <Substance_modify_yyyymmdd>
20080429

> <DSSTox_CID_Parent>
1196

> <ChemicalReplicateCount>
1

> <Coord_Metals>
0

> <Index>
255

> <Canonical_Smiles>
CC(C)Nc1nc(Cl)nc(NC(C)C)n1

> <Molecular_Weight>
229.70983

> <Frequency>
1

$$$$

  SciTegic          2D

 37 36  0  0  0  0            999 V2000
   10.3999    0.0000    0.0000 P   0  0
    6.5000    0.7500    0.0000 C   0  0
    5.2000    0.0000    0.0000 C   0  0
    7.7999    0.0000    0.0000 C   0  0
    9.0999    0.7500    0.0000 O   0  0
   11.4388    0.6007    0.0000 S   0  0
   10.4013   -1.5008    0.0000 N   0  0
    5.2000   -1.2000    0.0000 O   0  0
    3.9000    0.7500    0.0000 O   0  0
   10.4011    1.5300    0.0000 O   0  0
    7.8030   -1.5008    0.0000 C   0  0
    2.6000    0.0000    0.0000 C   0  0
   11.7013   -2.2508    0.0000 C   0  0
   11.7010    2.2801    0.0000 C   0  0
    1.3000    0.7500    0.0000 C   0  0
    2.6000   -1.5007    0.0000 C   0  0
   11.7028   -3.7516    0.0000 C   0  0
    6.5000    1.7500    0.0000 H   0  0
    9.5356   -2.0014    0.0000 H   0  0
    8.6698   -1.9996    0.0000 H   0  0
    7.8046   -2.5008    0.0000 H   0  0
    6.9379   -2.0023    0.0000 H   0  0
    2.6000    1.0000    0.0000 H   0  0
   11.7009   -1.2508    0.0000 H   0  0
   12.5670   -1.7503    0.0000 H   0  0
   11.7018    3.2801    0.0000 H   0  0
   12.5674    2.7796    0.0000 H   0  0
   12.5668    1.7797    0.0000 H   0  0
    0.4338    0.2503    0.0000 H   0  0
    1.3000    1.7500    0.0000 H   0  0
    0.4340    1.2501    0.0000 H   0  0
    1.7343   -2.0013    0.0000 H   0  0
    3.4662   -2.0005    0.0000 H   0  0
    2.6005   -2.5007    0.0000 H   0  0
   12.5689   -4.2514    0.0000 H   0  0
   10.8371   -4.2522    0.0000 H   0  0
   11.7032   -4.7516    0.0000 H   0  0
  1  5  1  0
  1  6  2  0
  1  7  1  0
  1 10  1  0
  2  4  2  0
  2  3  1  0
  3  8  2  0
  3  9  1  0
  4  5  1  0
  4 11  1  0
  7 13  1  0
  9 12  1  0
 10 14  1  0
 12 15  1  0
 12 16  1  0
 13 17  1  0
  2 18  1  0
  7 19  1  0
 11 20  1  0
 11 21  1  0
 11 22  1  0
 12 23  1  0
 13 24  1  0
 13 25  1  0
 14 26  1  0
 14 27  1  0
 14 28  1  0
 15 29  1  0
 15 30  1  0
 15 31  1  0
 16 32  1  0
 16 33  1  0
 16 34  1  0
 17 35  1  0
 17 36  1  0
 17 37  1  0
M  END
> <DSSTox_RID>
40575

> <DSSTox_CID>
12470

> <DSSTox_Generic_SID>
32470

> <DSSTox_FileID>
256_TOXCST_v3a

> <STRUCTURE_Formula>
C10H20NO4PS

> <STRUCTURE_MolecularWeight>
281.3089

> <STRUCTURE_ChemicalType>
defined organic

> <STRUCTURE_TestedForm_DefinedOrganic>
parent

> <STRUCTURE_Shown>
tested chemical

> <TestSubstance_ChemicalName>
Propetamphos

> <Source_ChemicalName>
Propetamphos

> <TestSubstance_CASRN>
31218-83-4

> <TestSubstance_Description>
single chemical compound

> <ChemicalNote>
stereochem

> <STRUCTURE_ChemicalName_IUPAC>
isopropyl (2E)-3-{[(ethylamino)(methoxy)phosphorothioyl]oxy}but-2-enoate

> <STRUCTURE_SMILES>
S=P(NCC)(OC)O/C(C)=C([H])/C(OC(C)C)=O

> <STRUCTURE_Parent_SMILES>
S=P(NCC)(OC)O/C(C)=C([H])/C(OC(C)C)=O

> <STRUCTURE_InChI>
InChI=1S/C10H20NO4PS/c1-6-11-16(17,13-5)15-9(4)7-10(12)14-8(2)3/h7-8H,6H2,1-5H3,(H,11,17)/b9-7+

> <STRUCTURE_InChIKey>
BZNDWPRGXNILMS-VQHVLOKHSA-N

> <Substance_modify_yyyymmdd>
20080429

> <DSSTox_CID_Parent>
12470

> <ChemicalReplicateCount>
1

> <Coord_Metals>
0

> <Index>
256

> <Canonical_Smiles>
CCNP(=S)(OC)OC(=CC(=O)OC(C)C)C

> <Molecular_Weight>
281.30886

> <Frequency>
1

$$$$

  SciTegic          2D

 39 41  0  0  0  0            999 V2000
    2.5978   -1.5030    0.0000 C   0  0
    1.2990   -0.7500    0.0000 C   0  0
    2.5955   -3.0038    0.0000 C   0  0
    3.9119   -2.1471    0.0000 O   0  0
    2.7019   -0.0432    0.0000 O   0  0
    1.2990    0.7500    0.0000 C   0  0
    0.0000   -1.5000    0.0000 C   0  0
    1.2951   -3.7531    0.0000 N   0  0
    4.9175   -1.0340    0.0000 C   0  0
    4.1696    0.2662    0.0000 C   0  0
    0.0000    1.5000    0.0000 C   0  0
    2.3383    1.3500    0.0000 Cl  0  0
   -1.2990   -0.7500    0.0000 C   0  0
    1.1561   -5.2338    0.0000 C   0  0
   -0.0556   -3.1308    0.0000 N   0  0
    5.4984   -2.4034    0.0000 C   0  0
   -1.2990    0.7500    0.0000 C   0  0
   -0.3114   -5.5444    0.0000 N   0  0
   -1.0603   -4.2447    0.0000 C   0  0
    6.9848   -2.6111    0.0000 C   0  0
   -2.3383    1.3500    0.0000 Cl  0  0
    7.5490   -4.0018    0.0000 C   0  0
    2.5945   -4.0038    0.0000 H   0  0
    3.4610   -3.5048    0.0000 H   0  0
    0.0000   -2.5000    0.0000 H   0  0
    5.4937   -0.2168    0.0000 H   0  0
    5.1658    0.3542    0.0000 H   0  0
    3.5712    1.0674    0.0000 H   0  0
    0.0000    2.5000    0.0000 H   0  0
   -2.1651   -1.2500    0.0000 H   0  0
    1.9026   -5.8991    0.0000 H   0  0
    5.8739   -3.3302    0.0000 H   0  0
    4.8836   -3.1921    0.0000 H   0  0
   -2.0547   -4.1393    0.0000 H   0  0
    6.6093   -1.6842    0.0000 H   0  0
    7.5995   -1.8223    0.0000 H   0  0
    8.5394   -4.1401    0.0000 H   0  0
    7.9245   -4.9286    0.0000 H   0  0
    6.9343   -4.7905    0.0000 H   0  0
  1  2  1  0
  1  3  1  0
  1  4  1  0
  1  5  1  0
  2  6  2  0
  2  7  1  0
  3  8  1  0
  4  9  1  0
  5 10  1  0
  6 11  1  0
  6 12  1  0
  7 13  2  0
  8 14  1  0
  8 15  1  0
  9 16  1  0
  9 10  1  0
 11 17  2  0
 13 17  1  0
 14 18  2  0
 15 19  2  0
 16 20  1  0
 17 21  1  0
 18 19  1  0
 20 22  1  0
  3 23  1  0
  3 24  1  0
  7 25  1  0
  9 26  1  0
 10 27  1  0
 10 28  1  0
 11 29  1  0
 13 30  1  0
 14 31  1  0
 16 32  1  0
 16 33  1  0
 19 34  1  0
 20 35  1  0
 20 36  1  0
 22 37  1  0
 22 38  1  0
 22 39  1  0
M  END
> <DSSTox_RID>
40576

> <DSSTox_CID>
4280

> <DSSTox_Generic_SID>
24280

> <DSSTox_FileID>
257_TOXCST_v3a

> <STRUCTURE_Formula>
C15H17Cl2N3O2

> <STRUCTURE_MolecularWeight>
342.2204

> <STRUCTURE_ChemicalType>
defined organic

> <STRUCTURE_TestedForm_DefinedOrganic>
parent

> <STRUCTURE_Shown>
tested chemical

> <TestSubstance_ChemicalName>
Propiconazole

> <Source_ChemicalName>
Propiconazole

> <TestSubstance_CASRN>
60207-90-1

> <TestSubstance_Description>
single chemical compound

> <ChemicalNote>
mixture of stereoisomers; structure shown without stereochem

> <STRUCTURE_ChemicalName_IUPAC>
1-{[2-(2,4-dichlorophenyl)-4-propyl-1,3-dioxolan-2-yl]methyl}-1H-1,2,4-triazole

> <STRUCTURE_SMILES>
Clc1ccc(c(Cl)c1)C3(Cn2ncnc2)OCC(CCC)O3

> <STRUCTURE_Parent_SMILES>
Clc1ccc(c(Cl)c1)C3(Cn2ncnc2)OCC(CCC)O3

> <STRUCTURE_InChI>
InChI=1S/C15H17Cl2N3O2/c1-2-3-12-7-21-15(22-12,8-20-10-18-9-19-20)13-5-4-11(16)6-14(13)17/h4-6,9-10,12H,2-3,7-8H2,1H3

> <STRUCTURE_InChIKey>
STJLVHWMYQXCPB-UHFFFAOYSA-N

> <Substance_modify_yyyymmdd>
20080429

> <DSSTox_CID_Parent>
4280

> <ChemicalReplicateCount>
1

> <Coord_Metals>
0

> <Index>
257

> <Canonical_Smiles>
CCCC1COC(Cn2cncn2)(O1)c3ccc(Cl)cc3Cl

> <Molecular_Weight>
342.22038

> <Frequency>
1

$$$$

  SciTegic          2D

 30 30  0  0  0  0            999 V2000
    5.1972   -1.5092    0.0000 C   0  0
    3.8990   -0.7562    0.0000 C   0  0
    3.9026    0.7446    0.0000 C   0  0
    2.5973   -1.5031    0.0000 O   0  0
    1.2990   -0.7500    0.0000 C   0  0
    1.2990    0.7500    0.0000 C   0  0
    0.0000    1.5000    0.0000 C   0  0
   -1.2990    0.7500    0.0000 C   0  0
   -1.2990   -0.7500    0.0000 C   0  0
    0.0000   -1.5000    0.0000 C   0  0
   -0.0031   -3.0008    0.0000 O   0  0
   -1.3039   -3.7494    0.0000 C   0  0
   -2.3421   -3.1476    0.0000 O   0  0
   -1.3070   -5.2502    0.0000 N   0  0
   -2.6078   -5.9988    0.0000 C   0  0
    6.0646   -1.0116    0.0000 H   0  0
    6.0620   -2.0114    0.0000 H   0  0
    5.1949   -2.5092    0.0000 H   0  0
    3.8967   -1.7562    0.0000 H   0  0
    3.0381    1.2472    0.0000 H   0  0
    4.7699    1.2422    0.0000 H   0  0
    3.9054    1.7446    0.0000 H   0  0
    2.1651    1.2500    0.0000 H   0  0
    0.0000    2.5000    0.0000 H   0  0
   -2.1651    1.2500    0.0000 H   0  0
   -2.1651   -1.2500    0.0000 H   0  0
   -0.4418   -5.7517    0.0000 H   0  0
   -2.6099   -6.9988    0.0000 H   0  0
   -3.4730   -5.4973    0.0000 H   0  0
   -3.4748   -6.4971    0.0000 H   0  0
  1  2  1  0
  2  3  1  0
  2  4  1  0
  4  5  1  0
  5  6  2  0
  5 10  1  0
  6  7  1  0
  7  8  2  0
  8  9  1  0
  9 10  2  0
 10 11  1  0
 11 12  1  0
 12 13  2  0
 12 14  1  0
 14 15  1  0
  1 16  1  0
  1 17  1  0
  1 18  1  0
  2 19  1  0
  3 20  1  0
  3 21  1  0
  3 22  1  0
  6 23  1  0
  7 24  1  0
  8 25  1  0
  9 26  1  0
 14 27  1  0
 15 28  1  0
 15 29  1  0
 15 30  1  0
M  END
> <DSSTox_RID>
40577

> <DSSTox_CID>
1948

> <DSSTox_Generic_SID>
21948

> <DSSTox_FileID>
258_TOXCST_v3a

> <STRUCTURE_Formula>
C11H15NO3

> <STRUCTURE_MolecularWeight>
209.2417

> <STRUCTURE_ChemicalType>
defined organic

> <STRUCTURE_TestedForm_DefinedOrganic>
parent

> <STRUCTURE_Shown>
tested chemical

> <TestSubstance_ChemicalName>
Propoxur

> <Source_ChemicalName>
Propoxur

> <TestSubstance_CASRN>
114-26-1

> <TestSubstance_Description>
single chemical compound

> <STRUCTURE_ChemicalName_IUPAC>
2-[(1-methylethyl)oxy]phenyl methylcarbamate

> <STRUCTURE_SMILES>
CC(C)OC1=CC=CC=C1OC(=O)NC

> <STRUCTURE_Parent_SMILES>
CC(C)OC1=CC=CC=C1OC(=O)NC

> <STRUCTURE_InChI>
InChI=1S/C11H15NO3/c1-8(2)14-9-6-4-5-7-10(9)15-11(13)12-3/h4-8H,1-3H3,(H,12,13)

> <STRUCTURE_InChIKey>
ISRUGXGCCGIOQO-UHFFFAOYSA-N

> <Substance_modify_yyyymmdd>
20080429

> <DSSTox_CID_Parent>
1948

> <ChemicalReplicateCount>
1

> <Coord_Metals>
0

> <Index>
258

> <Canonical_Smiles>
CNC(=O)Oc1ccccc1OC(C)C

> <Molecular_Weight>
209.24169

> <Frequency>
1

$$$$

  SciTegic          2D

 45 46  0  0  0  0            999 V2000
    6.4990   -0.7516    0.0000 N   0  0
    6.6348    0.7294    0.0000 N   0  0
    8.1015    1.0434    0.0000 C   0  0
    8.8534   -0.2546    0.0000 N   0  0
    7.8513   -1.3707    0.0000 C   0  0
    5.1988   -1.5012    0.0000 C   0  0
    5.1984   -2.7012    0.0000 O   0  0
    3.8990   -0.7508    0.0000 N   0  0
    8.7061    2.4142    0.0000 O   0  0
    7.8205    3.6259    0.0000 C   0  0
   10.3436   -0.4091    0.0000 C   0  0
    8.0954   -2.5456    0.0000 O   0  0
    2.5988   -1.5004    0.0000 S   0  0
    3.6377   -2.1009    0.0000 O   0  0
    2.5984   -2.7004    0.0000 O   0  0
    1.2990   -0.7500    0.0000 C   0  0
    1.2990    0.7500    0.0000 C   0  0
    0.0000   -1.5000    0.0000 C   0  0
    0.0000    1.5000    0.0000 C   0  0
   -1.2990   -0.7500    0.0000 C   0  0
   -1.2990    0.7500    0.0000 C   0  0
    2.5972    1.5031    0.0000 C   0  0
    3.6375    0.9049    0.0000 O   0  0
    2.5951    3.0039    0.0000 O   0  0
    3.8933    3.7570    0.0000 C   0  0
    8.4262    4.9991    0.0000 C   0  0
    7.5405    6.2108    0.0000 C   0  0
    3.8993    0.2492    0.0000 H   0  0
    6.8263    3.5182    0.0000 H   0  0
    7.4165    2.7111    0.0000 H   0  0
   10.9308    0.4004    0.0000 H   0  0
   10.7514   -1.3222    0.0000 H   0  0
   11.3383   -0.5127    0.0000 H   0  0
    0.0000   -2.5000    0.0000 H   0  0
    0.0000    2.5000    0.0000 H   0  0
   -2.1651   -1.2500    0.0000 H   0  0
   -2.1651    1.2500    0.0000 H   0  0
    3.8919    4.7570    0.0000 H   0  0
    4.7585    4.2584    0.0000 H   0  0
    4.7602    3.2585    0.0000 H   0  0
    9.4203    5.1068    0.0000 H   0  0
    9.0166    4.1920    0.0000 H   0  0
    7.9441    7.1257    0.0000 H   0  0
    6.5463    6.1031    0.0000 H   0  0
    6.9501    7.0178    0.0000 H   0  0
  1  2  1  0
  1  5  1  0
  1  6  1  0
  2  3  2  0
  3  4  1  0
  3  9  1  0
  4  5  1  0
  4 11  1  0
  5 12  2  0
  6  7  2  0
  6  8  1  0
  8 13  1  0
  9 10  1  0
 10 26  1  0
 13 14  2  0
 13 15  2  0
 13 16  1  0
 16 17  2  0
 16 18  1  0
 17 19  1  0
 17 22  1  0
 18 20  2  0
 19 21  2  0
 20 21  1  0
 22 23  2  0
 22 24  1  0
 24 25  1  0
 26 27  1  0
  8 28  1  0
 10 29  1  0
 10 30  1  0
 11 31  1  0
 11 32  1  0
 11 33  1  0
 18 34  1  0
 19 35  1  0
 20 36  1  0
 21 37  1  0
 25 38  1  0
 25 39  1  0
 25 40  1  0
 26 41  1  0
 26 42  1  0
 27 43  1  0
 27 44  1  0
 27 45  1  0
M  END
> <DSSTox_RID>
40578

> <DSSTox_CID>
14864

> <DSSTox_Generic_SID>
34864

> <DSSTox_FileID>
259_TOXCST_v3a

> <STRUCTURE_Formula>
C15H17N4NaO7S

> <STRUCTURE_MolecularWeight>
420.3728

> <STRUCTURE_ChemicalType>
defined organic

> <STRUCTURE_TestedForm_DefinedOrganic>
salt Na

> <STRUCTURE_Shown>
tested chemical

> <TestSubstance_ChemicalName>
Propoxycarbazone-sodium

> <Source_ChemicalName>
Propoxycarbazone-sodium

> <TestSubstance_CASRN>
181274-15-7

> <TestSubstance_Description>
single chemical compound

> <ChemicalNote>
parent [145026-81-9]

> <STRUCTURE_ChemicalName_IUPAC>
sodium {[2-(methoxycarbonyl)phenyl]sulfonyl}[(4-methyl-5-oxo-3-propoxy-4,5-dihydro-1H-1,2,4-triazol-1-yl)carbonyl]azanide

> <STRUCTURE_SMILES>
O=C([N-]S(=O)(C2=C(C(OC)=O)C=CC=C2)=O)N1N=C(OCCC)N(C)C1=O.[Na+]

> <STRUCTURE_Parent_SMILES>
O=C(NS(=O)(C2=C(C(OC)=O)C=CC=C2)=O)N1N=C(OCCC)N(C)C1=O

> <STRUCTURE_InChI>
InChI=1S/C15H18N4O7S.Na/c1-4-9-26-14-16-19(15(22)18(14)2)13(21)17-27(23,24)11-8-6-5-7-10(11)12(20)25-3;/h5-8H,4,9H2,1-3H3,(H,17,21);/q;+1/p-1

> <STRUCTURE_InChIKey>
JRQGDDUXDKCWRF-UHFFFAOYSA-M

> <Substance_modify_yyyymmdd>
20080429

> <DSSTox_CID_Parent>
17704

> <ChemicalReplicateCount>
1

> <Coord_Metals>
0

> <Index>
259

> <Canonical_Smiles>
CCCOC1=NN(C(=O)NS(=O)(=O)c2ccccc2C(=O)OC)C(=O)N1C

> <Molecular_Weight>
398.39102

> <Frequency>
1

$$$$

  SciTegic          2D

 27 27  0  0  0  0            999 V2000
    3.8898   -5.2577    0.0000 C   0  0
    3.8933   -3.7570    0.0000 C   0  0
    2.5951   -3.0039    0.0000 N   0  0
    2.5973   -1.5031    0.0000 C   0  0
    3.6375   -0.9049    0.0000 O   0  0
    1.2990   -0.7500    0.0000 C   0  0
    1.2990    0.7500    0.0000 C   0  0
    0.0000    1.5000    0.0000 C   0  0
   -1.2990    0.7500    0.0000 C   0  0
   -1.2990   -0.7500    0.0000 C   0  0
    0.0000   -1.5000    0.0000 C   0  0
   -2.3383   -1.3500    0.0000 Cl  0  0
    0.0000    2.7000    0.0000 Cl  0  0
    5.1951   -3.0101    0.0000 C   0  0
    6.4969   -2.2632    0.0000 C   0  0
    2.5648   -4.5158    0.0000 C   0  0
    4.7543   -5.7603    0.0000 H   0  0
    3.8869   -6.2577    0.0000 H   0  0
    3.0224   -5.7554    0.0000 H   0  0
    1.7282   -3.5024    0.0000 H   0  0
    2.1651    1.2500    0.0000 H   0  0
   -2.1651    1.2500    0.0000 H   0  0
    0.0000   -2.5000    0.0000 H   0  0
    7.3642   -1.7655    0.0000 H   0  0
    1.7008   -4.0122    0.0000 H   0  0
    1.6966   -5.0121    0.0000 H   0  0
    2.5604   -5.5157    0.0000 H   0  0
  1  2  1  0
  2  3  1  0
  2 14  1  0
  2 16  1  0
  3  4  1  0
  4  5  2  0
  4  6  1  0
  6  7  2  0
  6 11  1  0
  7  8  1  0
  8  9  2  0
  8 13  1  0
  9 10  1  0
 10 11  2  0
 10 12  1  0
 14 15  3  0
  1 17  1  0
  1 18  1  0
  1 19  1  0
  3 20  1  0
  7 21  1  0
  9 22  1  0
 11 23  1  0
 15 24  1  0
 16 25  1  0
 16 26  1  0
 16 27  1  0
M  END
> <DSSTox_RID>
40320

> <DSSTox_CID>
420

> <DSSTox_Generic_SID>
20420

> <DSSTox_FileID>
260_TOXCST_v3a

> <STRUCTURE_Formula>
C12H11Cl2NO

> <STRUCTURE_MolecularWeight>
256.1278

> <STRUCTURE_ChemicalType>
defined organic

> <STRUCTURE_TestedForm_DefinedOrganic>
parent

> <STRUCTURE_Shown>
tested chemical

> <TestSubstance_ChemicalName>
Propyzamide

> <Source_ChemicalName>
Propyzamide

> <TestSubstance_CASRN>
23950-58-5

> <TestSubstance_Description>
single chemical compound

> <STRUCTURE_ChemicalName_IUPAC>
3,5-dichloro-N-(1,1-dimethylprop-2-yn-1-yl)benzamide

> <STRUCTURE_SMILES>
CC(NC(=O)C1=CC(=CC(=C1)Cl)Cl)(C#C)C

> <STRUCTURE_Parent_SMILES>
CC(NC(=O)C1=CC(=CC(=C1)Cl)Cl)(C#C)C

> <STRUCTURE_InChI>
InChI=1S/C12H11Cl2NO/c1-4-12(2,3)15-11(16)8-5-9(13)7-10(14)6-8/h1,5-7H,2-3H3,(H,15,16)

> <STRUCTURE_InChIKey>
PHNUZKMIPFFYSO-UHFFFAOYSA-N

> <Substance_modify_yyyymmdd>
20080429

> <DSSTox_CID_Parent>
420

> <ChemicalReplicateCount>
1

> <Coord_Metals>
0

> <Index>
260

> <Canonical_Smiles>
CC(C)(NC(=O)c1cc(Cl)cc(Cl)c1)C#C

> <Molecular_Weight>
256.12783

> <Frequency>
1

$$$$

  SciTegic          2D

 44 45  0  0  0  0            999 V2000
    1.2990   -0.7500    0.0000 C   0  0
    1.2990    0.7500    0.0000 C   0  0
    0.0000    1.5000    0.0000 C   0  0
   -1.2990    0.7500    0.0000 C   0  0
   -1.2990   -0.7500    0.0000 C   0  0
    0.0000   -1.5000    0.0000 C   0  0
    2.5988   -1.5004    0.0000 S   0  0
    2.5984   -2.7004    0.0000 O   0  0
    3.6377   -2.1009    0.0000 O   0  0
    3.8990   -0.7508    0.0000 N   0  0
    5.1988   -1.5012    0.0000 C   0  0
    5.1984   -2.7012    0.0000 O   0  0
    6.4990   -0.7516    0.0000 N   0  0
    9.0994   -0.7548    0.0000 N   0  0
    7.7988   -1.5020    0.0000 C   0  0
    7.7958   -3.0021    0.0000 N   0  0
    9.0933   -3.7547    0.0000 C   0  0
   10.3938   -3.0074    0.0000 N   0  0
   10.3969   -1.5074    0.0000 C   0  0
    9.0933   -5.2556    0.0000 O   0  0
   10.3926   -6.0068    0.0000 C   0  0
   11.6982   -0.7596    0.0000 C   0  0
    0.0000   -3.0008    0.0000 C   0  0
    1.2993   -3.7521    0.0000 C   0  0
    1.2993   -5.2529    0.0000 C   0  0
    2.3381   -5.8535    0.0000 F   0  0
    0.2599   -5.8526    0.0000 F   0  0
    1.2987   -6.4529    0.0000 F   0  0
    2.1651    1.2500    0.0000 H   0  0
    0.0000    2.5000    0.0000 H   0  0
   -2.1651    1.2500    0.0000 H   0  0
   -2.1651   -1.2500    0.0000 H   0  0
    3.8993    0.2492    0.0000 H   0  0
    6.4993    0.2484    0.0000 H   0  0
   10.3926   -7.0068    0.0000 H   0  0
   11.2588   -5.5070    0.0000 H   0  0
   11.2586   -6.5069    0.0000 H   0  0
   11.7008    0.2404    0.0000 H   0  0
   12.5630   -1.2617    0.0000 H   0  0
   12.5655   -0.2618    0.0000 H   0  0
   -0.8662   -3.5006    0.0000 H   0  0
   -0.8659   -2.5007    0.0000 H   0  0
    2.1655   -3.2523    0.0000 H   0  0
    1.2998   -2.7521    0.0000 H   0  0
  1  2  1  0
  1  6  2  0
  1  7  1  0
  2  3  2  0
  3  4  1  0
  4  5  2  0
  5  6  1  0
  6 23  1  0
  7  8  2  0
  7 10  1  0
  7  9  2  0
 10 11  1  0
 11 12  2  0
 11 13  1  0
 13 15  1  0
 14 15  2  0
 14 19  1  0
 15 16  1  0
 16 17  2  0
 17 18  1  0
 17 20  1  0
 18 19  2  0
 19 22  1  0
 20 21  1  0
 23 24  1  0
 24 25  1  0
 25 26  1  0
 25 27  1  0
 25 28  1  0
  2 29  1  0
  3 30  1  0
  4 31  1  0
  5 32  1  0
 10 33  1  0
 13 34  1  0
 21 35  1  0
 21 36  1  0
 21 37  1  0
 22 38  1  0
 22 39  1  0
 22 40  1  0
 23 41  1  0
 23 42  1  0
 24 43  1  0
 24 44  1  0
M  END
> <DSSTox_RID>
40579
40768
40769

> <DSSTox_CID>
14868
14868
14868

> <DSSTox_Generic_SID>
34868
34868
34868

> <DSSTox_FileID>
261_TOXCST_v3a
262_TOXCST_v3a
263_TOXCST_v3a

> <STRUCTURE_Formula>
C15H16F3N5O4S
C15H16F3N5O4S
C15H16F3N5O4S

> <STRUCTURE_MolecularWeight>
419.3788
419.3788
419.3788

> <STRUCTURE_ChemicalType>
defined organic
defined organic
defined organic

> <STRUCTURE_TestedForm_DefinedOrganic>
parent
parent
parent

> <STRUCTURE_Shown>
tested chemical
tested chemical
tested chemical

> <TestSubstance_ChemicalName>
Prosulfuron
Prosulfuron
Prosulfuron

> <Source_ChemicalName>
Prosulfuron
Prosulfuron
Prosulfuron

> <TestSubstance_CASRN>
94125-34-5
94125-34-5
94125-34-5

> <TestSubstance_Description>
single chemical compound
single chemical compound
single chemical compound

> <STRUCTURE_ChemicalName_IUPAC>
N-[(4-methoxy-6-methyl-1,3,5-triazin-2-yl)carbamoyl]-2-(3,3,3-trifluoropropyl)benzenesulfonamide
N-[(4-methoxy-6-methyl-1,3,5-triazin-2-yl)carbamoyl]-2-(3,3,3-trifluoropropyl)benzenesulfonamide
N-[(4-methoxy-6-methyl-1,3,5-triazin-2-yl)carbamoyl]-2-(3,3,3-trifluoropropyl)benzenesulfonamide

> <STRUCTURE_SMILES>
O=S(C1=C(CCC(F)(F)F)C=CC=C1)(NC(NC2=NC(OC)=NC(C)=N2)=O)=O
O=S(C1=C(CCC(F)(F)F)C=CC=C1)(NC(NC2=NC(OC)=NC(C)=N2)=O)=O
O=S(C1=C(CCC(F)(F)F)C=CC=C1)(NC(NC2=NC(OC)=NC(C)=N2)=O)=O

> <STRUCTURE_Parent_SMILES>
O=S(C1=C(CCC(F)(F)F)C=CC=C1)(NC(NC2=NC(OC)=NC(C)=N2)=O)=O
O=S(C1=C(CCC(F)(F)F)C=CC=C1)(NC(NC2=NC(OC)=NC(C)=N2)=O)=O
O=S(C1=C(CCC(F)(F)F)C=CC=C1)(NC(NC2=NC(OC)=NC(C)=N2)=O)=O

> <STRUCTURE_InChI>
InChI=1S/C15H16F3N5O4S/c1-9-19-12(22-14(20-9)27-2)21-13(24)23-28(25,26)11-6-4-3-5-10(11)7-8-15(16,17)18/h3-6H,7-8H2,1-2H3,(H2,19,20,21,22,23,24)
InChI=1S/C15H16F3N5O4S/c1-9-19-12(22-14(20-9)27-2)21-13(24)23-28(25,26)11-6-4-3-5-10(11)7-8-15(16,17)18/h3-6H,7-8H2,1-2H3,(H2,19,20,21,22,23,24)
InChI=1S/C15H16F3N5O4S/c1-9-19-12(22-14(20-9)27-2)21-13(24)23-28(25,26)11-6-4-3-5-10(11)7-8-15(16,17)18/h3-6H,7-8H2,1-2H3,(H2,19,20,21,22,23,24)

> <STRUCTURE_InChIKey>
LTUNNEGNEKBSEH-UHFFFAOYSA-N
LTUNNEGNEKBSEH-UHFFFAOYSA-N
LTUNNEGNEKBSEH-UHFFFAOYSA-N

> <Substance_modify_yyyymmdd>
20080429
20080429
20080429

> <DSSTox_CID_Parent>
14868
14868
14868

> <ChemicalReplicateCount>
1 of 3
2 of 3
3 of 3

> <Relationship_CID>
triplicate of 14868
triplicate of 14868
triplicate of 14868

> <Coord_Metals>
0
0
0

> <Index>
261
262
263

> <Canonical_Smiles>
COc1nc(C)nc(NC(=O)NS(=O)(=O)c2ccccc2CCC(F)(F)F)n1

> <Molecular_Weight>
419.37884
419.37884
419.37884

> <Frequency>
3

$$$$

  SciTegic          2D

 27 28  0  0  0  0            999 V2000
    2.3383   -1.3500    0.0000 O   0  0
    1.2990   -0.7500    0.0000 C   0  0
    1.2990    0.7500    0.0000 N   0  0
    0.0000    1.5000    0.0000 N   0  0
   -1.2990    0.7500    0.0000 C   0  0
   -2.5988    1.5004    0.0000 C   0  0
   -1.2990   -0.7500    0.0000 C   0  0
    0.0000   -1.5000    0.0000 N   0  0
    0.0031   -3.0008    0.0000 N   0  0
    1.3039   -3.7494    0.0000 C   0  0
    1.3070   -5.2502    0.0000 C   0  0
    2.6060   -6.0003    0.0000 C   0  0
    2.6061   -7.5003    0.0000 N   0  0
    1.3071   -8.2503    0.0000 C   0  0
    0.0080   -7.5003    0.0000 C   0  0
    0.0080   -6.0003    0.0000 C   0  0
    2.1651    1.2500    0.0000 H   0  0
   -2.5994    2.5004    0.0000 H   0  0
   -3.4647    1.0001    0.0000 H   0  0
   -3.4651    2.0000    0.0000 H   0  0
   -2.1530   -0.2297    0.0000 H   0  0
   -1.2755   -1.7497    0.0000 H   0  0
    2.1691   -3.2479    0.0000 H   0  0
    3.4721   -5.5003    0.0000 H   0  0
    1.3071   -9.2503    0.0000 H   0  0
   -0.8580   -8.0004    0.0000 H   0  0
   -0.8581   -5.5004    0.0000 H   0  0
  1  2  2  0
  2  3  1  0
  2  8  1  0
  3  4  1  0
  4  5  2  0
  5  6  1  0
  5  7  1  0
  7  8  1  0
  9  8  1  0
  9 10  2  0
 10 11  1  0
 11 12  1  0
 11 16  2  0
 12 13  2  0
 13 14  1  0
 14 15  2  0
 15 16  1  0
  3 17  1  0
  6 18  1  0
  6 19  1  0
  6 20  1  0
  7 21  1  0
  7 22  1  0
 10 23  1  0
 12 24  1  0
 14 25  1  0
 15 26  1  0
 16 27  1  0
M  END
> <DSSTox_RID>
40295

> <DSSTox_CID>
12637

> <DSSTox_Generic_SID>
32637

> <DSSTox_FileID>
264_TOXCST_v3a

> <STRUCTURE_Formula>
C10H11N5O

> <STRUCTURE_MolecularWeight>
217.2272

> <STRUCTURE_ChemicalType>
defined organic

> <STRUCTURE_TestedForm_DefinedOrganic>
parent

> <STRUCTURE_Shown>
tested chemical

> <TestSubstance_ChemicalName>
Pymetrozine

> <Source_ChemicalName>
Pymetrozine

> <TestSubstance_CASRN>
123312-89-0

> <TestSubstance_Description>
single chemical compound

> <ChemicalNote>
stereochem

> <STRUCTURE_ChemicalName_IUPAC>
6-methyl-4-{[(1E)-pyridin-3-ylmethylene]amino}-4,5-dihydro-1,2,4-triazin-3(2H)-one

> <STRUCTURE_SMILES>
O=C1NN=C(CN1/N=C/C2=CC=CN=C2)C

> <STRUCTURE_Parent_SMILES>
O=C1NN=C(CN1/N=C/C2=CC=CN=C2)C

> <STRUCTURE_InChI>
InChI=1S/C10H11N5O/c1-8-7-15(10(16)14-13-8)12-6-9-3-2-4-11-5-9/h2-6H,7H2,1H3,(H,14,16)/b12-6+

> <STRUCTURE_InChIKey>
QHMTXANCGGJZRX-WUXMJOGZSA-N

> <Substance_modify_yyyymmdd>
20080429

> <DSSTox_CID_Parent>
12637

> <ChemicalReplicateCount>
1

> <Coord_Metals>
0

> <Index>
264

> <Canonical_Smiles>
CC1=NNC(=O)N(C1)N=Cc2cccnc2

> <Molecular_Weight>
217.22723

> <Frequency>
1

$$$$

  SciTegic          2D

 45 47  0  0  0  0            999 V2000
    3.8958   -3.7556    0.0000 C   0  0
    2.5968   -3.0039    0.0000 O   0  0
    2.5973   -1.5031    0.0000 N   0  0
    1.2990   -0.7500    0.0000 C   0  0
    1.2990    0.7500    0.0000 C   0  0
    0.0000    1.5000    0.0000 C   0  0
   -1.2990    0.7500    0.0000 C   0  0
   -1.2990   -0.7500    0.0000 C   0  0
    0.0000   -1.5000    0.0000 C   0  0
    0.0000   -3.0008    0.0000 C   0  0
    1.2993   -3.7521    0.0000 O   0  0
    1.2993   -5.2529    0.0000 C   0  0
    0.0840   -6.1102    0.0000 N   0  0
    0.5446   -7.5378    0.0000 N   0  0
    2.0446   -7.5408    0.0000 C   0  0
    2.5110   -6.1152    0.0000 C   0  0
   -0.3400   -8.7501    0.0000 C   0  0
   -1.8343   -8.7022    0.0000 C   0  0
   -2.6248   -9.9770    0.0000 C   0  0
   -1.9160  -11.2990    0.0000 C   0  0
   -0.4167  -11.3461    0.0000 C   0  0
    0.3738  -10.0713    0.0000 C   0  0
   -2.5484  -12.3188    0.0000 Cl  0  0
    3.8990   -0.7562    0.0000 C   0  0
    3.9019    0.4438    0.0000 O   0  0
    5.1972   -1.5092    0.0000 O   0  0
    6.4990   -0.7623    0.0000 C   0  0
    3.8955   -4.7556    0.0000 H   0  0
    4.7622   -3.2561    0.0000 H   0  0
    4.7616   -4.2560    0.0000 H   0  0
    2.1651    1.2500    0.0000 H   0  0
    0.0000    2.5000    0.0000 H   0  0
   -2.1651    1.2500    0.0000 H   0  0
   -2.1651   -1.2500    0.0000 H   0  0
   -0.8662   -3.5006    0.0000 H   0  0
   -0.0005   -4.0008    0.0000 H   0  0
    2.6307   -8.3510    0.0000 H   0  0
    3.4609   -5.8025    0.0000 H   0  0
   -2.3065   -7.8207    0.0000 H   0  0
   -3.6243   -9.9455    0.0000 H   0  0
    0.0558  -12.2275    0.0000 H   0  0
    1.3733  -10.1012    0.0000 H   0  0
    7.3640   -1.2641    0.0000 H   0  0
    6.5014    0.2377    0.0000 H   0  0
    7.3661   -0.2642    0.0000 H   0  0
  1  2  1  0
  2  3  1  0
  3  4  1  0
  3 24  1  0
  4  5  1  0
  4  9  2  0
  5  6  2  0
  6  7  1  0
  7  8  2  0
  8  9  1  0
  9 10  1  0
 10 11  1  0
 11 12  1  0
 12 13  2  0
 12 16  1  0
 13 14  1  0
 14 15  1  0
 14 17  1  0
 15 16  2  0
 17 18  1  0
 17 22  2  0
 18 19  2  0
 19 20  1  0
 20 21  2  0
 20 23  1  0
 21 22  1  0
 24 25  2  0
 24 26  1  0
 26 27  1  0
  1 28  1  0
  1 29  1  0
  1 30  1  0
  5 31  1  0
  6 32  1  0
  7 33  1  0
  8 34  1  0
 10 35  1  0
 10 36  1  0
 15 37  1  0
 16 38  1  0
 18 39  1  0
 19 40  1  0
 21 41  1  0
 22 42  1  0
 27 43  1  0
 27 44  1  0
 27 45  1  0
M  END
> <DSSTox_RID>
40580

> <DSSTox_CID>
12638

> <DSSTox_Generic_SID>
32638

> <DSSTox_FileID>
265_TOXCST_v3a

> <STRUCTURE_Formula>
C19H18ClN3O4

> <STRUCTURE_MolecularWeight>
387.8169

> <STRUCTURE_ChemicalType>
defined organic

> <STRUCTURE_TestedForm_DefinedOrganic>
parent

> <STRUCTURE_Shown>
tested chemical

> <TestSubstance_ChemicalName>
Pyraclostrobin

> <Source_ChemicalName>
Pyraclostrobin

> <TestSubstance_CASRN>
175013-18-0

> <TestSubstance_Description>
single chemical compound

> <STRUCTURE_ChemicalName_IUPAC>
methyl [2-({[1-(4-chlorophenyl)-1H-pyrazol-3-yl]oxy}methyl)phenyl]methoxycarbamate

> <STRUCTURE_SMILES>
ClC3=CC=C(C=C3)N(C=C2)N=C2OCC1=C(C=CC=C1)N(C(OC)=O)OC

> <STRUCTURE_Parent_SMILES>
ClC3=CC=C(C=C3)N(C=C2)N=C2OCC1=C(C=CC=C1)N(C(OC)=O)OC

> <STRUCTURE_InChI>
InChI=1S/C19H18ClN3O4/c1-25-19(24)23(26-2)17-6-4-3-5-14(17)13-27-18-11-12-22(21-18)16-9-7-15(20)8-10-16/h3-12H,13H2,1-2H3

> <STRUCTURE_InChIKey>
HZRSNVGNWUDEFX-UHFFFAOYSA-N

> <Substance_modify_yyyymmdd>
20080429

> <DSSTox_CID_Parent>
12638

> <ChemicalReplicateCount>
1

> <Coord_Metals>
0

> <Index>
265

> <Canonical_Smiles>
CON(C(=O)OC)c1ccccc1COc2ccn(n2)c3ccc(Cl)cc3

> <Molecular_Weight>
387.81692

> <Frequency>
1

$$$$

  SciTegic          2D

 39 40  0  0  0  0            999 V2000
    3.8933   -3.7570    0.0000 C   0  0
    4.9336   -3.1588    0.0000 O   0  0
    3.8912   -5.2578    0.0000 O   0  0
    2.5951   -3.0039    0.0000 C   0  0
    2.5973   -1.5031    0.0000 O   0  0
    1.2990   -0.7500    0.0000 C   0  0
    1.2990    0.7500    0.0000 C   0  0
    0.0000   -1.5000    0.0000 C   0  0
    0.0000    1.5000    0.0000 C   0  0
   -1.2990   -0.7500    0.0000 C   0  0
   -1.2990    0.7500    0.0000 C   0  0
    2.3383    1.3500    0.0000 Cl  0  0
   -2.7343   -2.9815    0.0000 N   0  0
   -4.2010   -3.2957    0.0000 N   0  0
   -3.9511   -0.8815    0.0000 C   0  0
   -4.9530   -1.9978    0.0000 C   0  0
   -2.5987   -1.5004    0.0000 C   0  0
   -4.1955    0.2933    0.0000 Cl  0  0
   -6.4430   -1.8405    0.0000 O   0  0
   -7.0536   -0.4695    0.0000 C   0  0
   -8.2470   -0.3435    0.0000 F   0  0
   -6.3481    0.5012    0.0000 F   0  0
   -4.8082   -4.6653    0.0000 C   0  0
   -2.3383    1.3500    0.0000 F   0  0
    5.1894   -6.0109    0.0000 C   0  0
    5.1873   -7.5117    0.0000 C   0  0
    1.7299   -2.5025    0.0000 H   0  0
    1.7282   -3.5024    0.0000 H   0  0
    0.0000   -2.5000    0.0000 H   0  0
    0.0000    2.5000    0.0000 H   0  0
   -7.4601    0.4442    0.0000 H   0  0
   -4.2196   -5.4738    0.0000 H   0  0
   -5.8026   -4.7711    0.0000 H   0  0
   -5.2139   -5.5793    0.0000 H   0  0
    5.1913   -5.0109    0.0000 H   0  0
    6.0563   -5.5124    0.0000 H   0  0
    6.0523   -8.0135    0.0000 H   0  0
    5.1854   -8.5117    0.0000 H   0  0
    4.3204   -8.0102    0.0000 H   0  0
  1  2  2  0
  1  3  1  0
  1  4  1  0
  3 25  1  0
  4  5  1  0
  5  6  1  0
  6  7  2  0
  6  8  1  0
  7  9  1  0
  7 12  1  0
  8 10  2  0
  9 11  2  0
 10 11  1  0
 10 17  1  0
 11 24  1  0
 13 14  1  0
 13 17  2  0
 14 16  1  0
 14 23  1  0
 15 16  2  0
 15 17  1  0
 15 18  1  0
 16 19  1  0
 19 20  1  0
 20 21  1  0
 20 22  1  0
 25 26  1  0
  4 27  1  0
  4 28  1  0
  8 29  1  0
  9 30  1  0
 20 31  1  0
 23 32  1  0
 23 33  1  0
 23 34  1  0
 25 35  1  0
 25 36  1  0
 26 37  1  0
 26 38  1  0
 26 39  1  0
M  END
> <DSSTox_RID>
40581

> <DSSTox_CID>
14871

> <DSSTox_Generic_SID>
34871

> <DSSTox_FileID>
266_TOXCST_v3a

> <STRUCTURE_Formula>
C15H13Cl2F3N2O4

> <STRUCTURE_MolecularWeight>
413.1759

> <STRUCTURE_ChemicalType>
defined organic

> <STRUCTURE_TestedForm_DefinedOrganic>
parent

> <STRUCTURE_Shown>
tested chemical

> <TestSubstance_ChemicalName>
Pyraflufen-ethyl

> <Source_ChemicalName>
Pyraflufen-ethyl

> <TestSubstance_CASRN>
129630-19-9

> <TestSubstance_Description>
single chemical compound

> <STRUCTURE_ChemicalName_IUPAC>
ethyl {2-chloro-5-[4-chloro-5-(difluoromethoxy)-1-methyl-1H-pyrazol-3-yl]-4-fluorophenoxy}acetate

> <STRUCTURE_SMILES>
O=C(COC1=C(Cl)C=C(F)C(C2=NN(C)C(OC(F)F)=C2Cl)=C1)OCC

> <STRUCTURE_Parent_SMILES>
O=C(COC1=C(Cl)C=C(F)C(C2=NN(C)C(OC(F)F)=C2Cl)=C1)OCC

> <STRUCTURE_InChI>
InChI=1S/C15H13Cl2F3N2O4/c1-3-24-11(23)6-25-10-4-7(9(18)5-8(10)16)13-12(17)14(22(2)21-13)26-15(19)20/h4-5,15H,3,6H2,1-2H3

> <STRUCTURE_InChIKey>
APTZNLHMIGJTEW-UHFFFAOYSA-N

> <Substance_modify_yyyymmdd>
20080429

> <DSSTox_CID_Parent>
14871

> <ChemicalReplicateCount>
1

> <Coord_Metals>
0

> <Index>
266

> <Canonical_Smiles>
CCOC(=O)COc1cc(c(F)cc1Cl)c2nn(C)c(OC(F)F)c2Cl

> <Molecular_Weight>
413.17592

> <Frequency>
1

$$$$

  SciTegic          2D

 49 50  0  0  0  0            999 V2000
    1.2990   -0.7500    0.0000 N   0  0
    1.2990    0.7500    0.0000 N   0  0
    0.0000    1.5000    0.0000 C   0  0
    0.0000   -1.5000    0.0000 C   0  0
   -1.2990    0.7500    0.0000 C   0  0
   -1.2990   -0.7500    0.0000 C   0  0
    0.0000    2.7000    0.0000 O   0  0
   -2.3383    1.3500    0.0000 Cl  0  0
    2.2637    1.8997    0.0000 C   0  0
    3.7419    1.6400    0.0000 C   0  0
    1.7500    3.3098    0.0000 C   0  0
    2.7848    0.4612    0.0000 C   0  0
   -2.6003   -1.4978    0.0000 S   0  0
   -3.8990   -0.7455    0.0000 C   0  0
   -5.2003   -1.4932    0.0000 C   0  0
   -5.2034   -2.9932    0.0000 C   0  0
   -6.4978   -0.7406    0.0000 C   0  0
   -6.5040   -3.7406    0.0000 C   0  0
   -7.7984   -1.4879    0.0000 C   0  0
   -7.8015   -2.9879    0.0000 C   0  0
   -9.2800   -3.2455    0.0000 C   0  0
   -9.7971   -4.6544    0.0000 C   0  0
  -10.2420   -2.0935    0.0000 C   0  0
   -8.2972   -4.4180    0.0000 C   0  0
    0.0000   -2.5000    0.0000 H   0  0
    4.3847    2.4061    0.0000 H   0  0
    4.0843    0.7005    0.0000 H   0  0
    4.7268    1.4666    0.0000 H   0  0
    2.3920    4.0764    0.0000 H   0  0
    0.7651    3.4828    0.0000 H   0  0
    1.4072    4.2492    0.0000 H   0  0
    2.1413   -0.3042    0.0000 H   0  0
    3.1258   -0.4789    0.0000 H   0  0
    3.7694    0.2863    0.0000 H   0  0
   -3.8973    0.2545    0.0000 H   0  0
   -3.0322   -0.2469    0.0000 H   0  0
   -4.3384   -3.4950    0.0000 H   0  0
   -6.4958    0.2594    0.0000 H   0  0
   -6.5060   -4.7406    0.0000 H   0  0
   -8.6634   -0.9861    0.0000 H   0  0
  -10.7823   -4.8260    0.0000 H   0  0
   -9.1562   -5.4220    0.0000 H   0  0
  -10.1412   -5.5933    0.0000 H   0  0
  -11.2273   -2.2642    0.0000 H   0  0
   -9.8974   -1.1548    0.0000 H   0  0
  -10.8826   -1.3257    0.0000 H   0  0
   -7.3122   -4.2454    0.0000 H   0  0
   -7.6551   -5.1846    0.0000 H   0  0
   -8.6400   -5.3574    0.0000 H   0  0
  1  2  1  0
  1  4  2  0
  2  3  1  0
  2  9  1  0
  3  5  1  0
  3  7  2  0
  4  6  1  0
  5  6  2  0
  5  8  1  0
  6 13  1  0
  9 10  1  0
  9 11  1  0
  9 12  1  0
 13 14  1  0
 14 15  1  0
 15 16  2  0
 15 17  1  0
 16 18  1  0
 17 19  2  0
 18 20  2  0
 19 20  1  0
 20 21  1  0
 21 22  1  0
 21 23  1  0
 21 24  1  0
  4 25  1  0
 10 26  1  0
 10 27  1  0
 10 28  1  0
 11 29  1  0
 11 30  1  0
 11 31  1  0
 12 32  1  0
 12 33  1  0
 12 34  1  0
 14 35  1  0
 14 36  1  0
 16 37  1  0
 17 38  1  0
 18 39  1  0
 19 40  1  0
 22 41  1  0
 22 42  1  0
 22 43  1  0
 23 44  1  0
 23 45  1  0
 23 46  1  0
 24 47  1  0
 24 48  1  0
 24 49  1  0
M  END
> <DSSTox_RID>
40583

> <DSSTox_CID>
12573

> <DSSTox_Generic_SID>
32573

> <DSSTox_FileID>
267_TOXCST_v3a

> <STRUCTURE_Formula>
C19H25ClN2OS

> <STRUCTURE_MolecularWeight>
364.9326

> <STRUCTURE_ChemicalType>
defined organic

> <STRUCTURE_TestedForm_DefinedOrganic>
parent

> <STRUCTURE_Shown>
tested chemical

> <TestSubstance_ChemicalName>
Pyridaben

> <Source_ChemicalName>
Pyridaben

> <TestSubstance_CASRN>
96489-71-3

> <TestSubstance_Description>
single chemical compound

> <STRUCTURE_ChemicalName_IUPAC>
2-tert-butyl-5-[(4-tert-butylbenzyl)thio]-4-chloropyridazin-3(2H)-one

> <STRUCTURE_SMILES>
O=C1N(C(C)(C)C)N=CC(SCC2=CC=C(C(C)(C)C)C=C2)=C1Cl

> <STRUCTURE_Parent_SMILES>
O=C1N(C(C)(C)C)N=CC(SCC2=CC=C(C(C)(C)C)C=C2)=C1Cl

> <STRUCTURE_InChI>
InChI=1S/C19H25ClN2OS/c1-18(2,3)14-9-7-13(8-10-14)12-24-15-11-21-22(19(4,5)6)17(23)16(15)20/h7-11H,12H2,1-6H3

> <STRUCTURE_InChIKey>
DWFZBUWUXWZWKD-UHFFFAOYSA-N

> <Substance_modify_yyyymmdd>
20080429

> <DSSTox_CID_Parent>
12573

> <ChemicalReplicateCount>
1

> <Coord_Metals>
0

> <Index>
267

> <Canonical_Smiles>
CC(C)(C)N1N=CC(=C(Cl)C1=O)SCc2ccc(cc2)C(C)(C)C

> <Molecular_Weight>
364.9326

> <Frequency>
1

$$$$

  SciTegic          2D

 28 29  0  0  0  0            999 V2000
    1.2990   -0.7500    0.0000 N   0  0
    0.0000    1.5000    0.0000 N   0  0
    1.2990    0.7500    0.0000 C   0  0
   -1.2990   -0.7500    0.0000 C   0  0
    0.0000   -1.5000    0.0000 C   0  0
   -1.2990    0.7500    0.0000 C   0  0
    2.5972    1.5031    0.0000 N   0  0
   -2.5988    1.5004    0.0000 C   0  0
    0.0000   -3.0008    0.0000 C   0  0
    2.5951    3.0039    0.0000 C   0  0
    3.8915    3.7585    0.0000 C   0  0
    1.2934    3.7495    0.0000 C   0  0
    3.8863    5.2585    0.0000 C   0  0
    1.2883    5.2495    0.0000 C   0  0
    2.5847    6.0040    0.0000 C   0  0
   -2.1651   -1.2500    0.0000 H   0  0
    3.4641    1.0046    0.0000 H   0  0
   -2.5994    2.5004    0.0000 H   0  0
   -3.4647    1.0001    0.0000 H   0  0
   -3.4651    2.0000    0.0000 H   0  0
    0.8657   -3.5014    0.0000 H   0  0
   -0.8662   -3.5006    0.0000 H   0  0
   -0.0005   -4.0008    0.0000 H   0  0
    4.7593    3.2615    0.0000 H   0  0
    0.4291    3.2465    0.0000 H   0  0
    4.7506    5.7615    0.0000 H   0  0
    0.4205    5.7465    0.0000 H   0  0
    2.5812    7.0040    0.0000 H   0  0
  1  3  2  0
  1  5  1  0
  2  3  1  0
  2  6  2  0
  3  7  1  0
  4  5  2  0
  4  6  1  0
  5  9  1  0
  6  8  1  0
  7 10  1  0
 10 11  2  0
 10 12  1  0
 11 13  1  0
 12 14  2  0
 13 15  2  0
 14 15  1  0
  4 16  1  0
  7 17  1  0
  8 18  1  0
  8 19  1  0
  8 20  1  0
  9 21  1  0
  9 22  1  0
  9 23  1  0
 11 24  1  0
 12 25  1  0
 13 26  1  0
 14 27  1  0
 15 28  1  0
M  END
> <DSSTox_RID>
40584

> <DSSTox_CID>
14877

> <DSSTox_Generic_SID>
34877

> <DSSTox_FileID>
268_TOXCST_v3a

> <STRUCTURE_Formula>
C12H13N3

> <STRUCTURE_MolecularWeight>
199.2517

> <STRUCTURE_ChemicalType>
defined organic

> <STRUCTURE_TestedForm_DefinedOrganic>
parent

> <STRUCTURE_Shown>
tested chemical

> <TestSubstance_ChemicalName>
Pyrimethanil

> <Source_ChemicalName>
Pyrimethanil

> <TestSubstance_CASRN>
53112-28-0

> <TestSubstance_Description>
single chemical compound

> <STRUCTURE_ChemicalName_IUPAC>
4,6-dimethyl-N-phenylpyrimidin-2-amine

> <STRUCTURE_SMILES>
CC1=NC(NC2=CC=CC=C2)=NC(C)=C1

> <STRUCTURE_Parent_SMILES>
CC1=NC(NC2=CC=CC=C2)=NC(C)=C1

> <STRUCTURE_InChI>
InChI=1S/C12H13N3/c1-9-8-10(2)14-12(13-9)15-11-6-4-3-5-7-11/h3-8H,1-2H3,(H,13,14,15)

> <STRUCTURE_InChIKey>
ZLIBICFPKPWGIZ-UHFFFAOYSA-N

> <Substance_modify_yyyymmdd>
20080429

> <DSSTox_CID_Parent>
14877

> <ChemicalReplicateCount>
1

> <Coord_Metals>
0

> <Index>
268

> <Canonical_Smiles>
Cc1cc(C)nc(Nc2ccccc2)n1

> <Molecular_Weight>
199.25171

> <Frequency>
1

$$$$

  SciTegic          2D

 43 45  0  0  0  0            999 V2000
    1.2990   -0.7500    0.0000 C   0  0
    2.5973   -1.5031    0.0000 O   0  0
    1.2990    0.7500    0.0000 C   0  0
    0.0000   -1.5000    0.0000 C   0  0
    2.5951   -3.0039    0.0000 C   0  0
    0.0000    1.5000    0.0000 C   0  0
   -1.2990   -0.7500    0.0000 C   0  0
    3.8915   -3.7585    0.0000 C   0  0
    1.2935   -3.7495    0.0000 C   0  0
   -1.2990    0.7500    0.0000 C   0  0
    3.8864   -5.2585    0.0000 C   0  0
    1.2883   -5.2495    0.0000 C   0  0
   -2.6003    1.4977    0.0000 O   0  0
    2.5847   -6.0040    0.0000 C   0  0
   -3.8990    0.7455    0.0000 C   0  0
   -5.2003    1.4932    0.0000 C   0  0
   -6.4990    0.7409    0.0000 O   0  0
   -5.2029    2.9939    0.0000 C   0  0
   -7.8003    1.4887    0.0000 C   0  0
   -9.0994    0.7387    0.0000 C   0  0
   -7.8004    2.9887    0.0000 N   0  0
  -10.3984    1.4886    0.0000 C   0  0
   -9.0995    3.7387    0.0000 C   0  0
  -10.3985    2.9886    0.0000 C   0  0
    2.1651    1.2500    0.0000 H   0  0
    0.0000   -2.5000    0.0000 H   0  0
    0.0000    2.5000    0.0000 H   0  0
   -2.1651   -1.2500    0.0000 H   0  0
    4.7593   -3.2615    0.0000 H   0  0
    0.4292   -3.2465    0.0000 H   0  0
    4.7506   -5.7615    0.0000 H   0  0
    0.4205   -5.7465    0.0000 H   0  0
    2.5813   -7.0040    0.0000 H   0  0
   -3.0322    0.2468    0.0000 H   0  0
   -3.8973   -0.2545    0.0000 H   0  0
   -5.1986    0.4932    0.0000 H   0  0
   -6.0695    3.4930    0.0000 H   0  0
   -4.3376    3.4952    0.0000 H   0  0
   -5.2042    3.9939    0.0000 H   0  0
   -9.0994   -0.2613    0.0000 H   0  0
  -11.2645    0.9886    0.0000 H   0  0
   -9.0995    4.7387    0.0000 H   0  0
  -11.2645    3.4886    0.0000 H   0  0
  1  2  1  0
  1  3  1  0
  1  4  2  0
  2  5  1  0
  3  6  2  0
  4  7  1  0
  5  8  2  0
  5  9  1  0
  6 10  1  0
  7 10  2  0
  8 11  1  0
  9 12  2  0
 10 13  1  0
 11 14  2  0
 12 14  1  0
 13 15  1  0
 15 16  1  0
 16 17  1  0
 16 18  1  0
 17 19  1  0
 19 20  1  0
 19 21  2  0
 20 22  2  0
 21 23  1  0
 22 24  1  0
 23 24  2  0
  3 25  1  0
  4 26  1  0
  6 27  1  0
  7 28  1  0
  8 29  1  0
  9 30  1  0
 11 31  1  0
 12 32  1  0
 14 33  1  0
 15 34  1  0
 15 35  1  0
 16 36  1  0
 18 37  1  0
 18 38  1  0
 18 39  1  0
 20 40  1  0
 22 41  1  0
 23 42  1  0
 24 43  1  0
M  END
> <DSSTox_RID>
40585

> <DSSTox_CID>
12640

> <DSSTox_Generic_SID>
32640

> <DSSTox_FileID>
269_TOXCST_v3a

> <STRUCTURE_Formula>
C20H19NO3

> <STRUCTURE_MolecularWeight>
321.3698

> <STRUCTURE_ChemicalType>
defined organic

> <STRUCTURE_TestedForm_DefinedOrganic>
parent

> <STRUCTURE_Shown>
tested chemical

> <TestSubstance_ChemicalName>
Pyriproxyfen

> <Source_ChemicalName>
Pyriproxyfen

> <TestSubstance_CASRN>
95737-68-1

> <TestSubstance_Description>
single chemical compound

> <STRUCTURE_ChemicalName_IUPAC>
2-[1-methyl-2-(4-phenoxyphenoxy)ethoxy]pyridine

> <STRUCTURE_SMILES>
CC(OC3=NC=CC=C3)COC2=CC=C(C=C2)OC1=CC=CC=C1

> <STRUCTURE_Parent_SMILES>
CC(OC3=NC=CC=C3)COC2=CC=C(C=C2)OC1=CC=CC=C1

> <STRUCTURE_InChI>
InChI=1S/C20H19NO3/c1-16(23-20-9-5-6-14-21-20)15-22-17-10-12-19(13-11-17)24-18-7-3-2-4-8-18/h2-14,16H,15H2,1H3

> <STRUCTURE_InChIKey>
NHDHVHZZCFYRSB-UHFFFAOYSA-N

> <Substance_modify_yyyymmdd>
20080429

> <DSSTox_CID_Parent>
12640

> <ChemicalReplicateCount>
1

> <Coord_Metals>
0

> <Index>
269

> <Canonical_Smiles>
CC(COc1ccc(Oc2ccccc2)cc1)Oc3ccccn3

> <Molecular_Weight>
321.36976

> <Frequency>
1

$$$$

  SciTegic          2D

 32 33  0  0  0  0            999 V2000
    1.2990   -0.7500    0.0000 C   0  0
    1.2990    0.7500    0.0000 C   0  0
    0.0000   -1.5000    0.0000 C   0  0
    2.5973   -1.5031    0.0000 C   0  0
    2.5972    1.5031    0.0000 S   0  0
    0.0000    1.5000    0.0000 C   0  0
   -1.2990   -0.7500    0.0000 C   0  0
    0.0000   -2.7000    0.0000 Cl  0  0
    2.5951   -3.0039    0.0000 O   0  0
    3.6375   -0.9049    0.0000 O   0  0
    2.5951    3.0039    0.0000 C   0  0
   -1.2990    0.7500    0.0000 C   0  0
    3.8915    3.7585    0.0000 N   0  0
    1.2934    3.7495    0.0000 N   0  0
    3.8863    5.2585    0.0000 C   0  0
    1.2883    5.2495    0.0000 C   0  0
    2.5847    6.0040    0.0000 C   0  0
    5.1850    6.0108    0.0000 O   0  0
   -0.0156    5.9927    0.0000 O   0  0
    6.4863    5.2630    0.0000 C   0  0
   -1.3117    5.2360    0.0000 C   0  0
    0.0000    2.5000    0.0000 H   0  0
   -2.1651   -1.2500    0.0000 H   0  0
    3.4601   -3.5057    0.0000 H   0  0
   -2.1651    1.2500    0.0000 H   0  0
    2.5812    7.0040    0.0000 H   0  0
    7.3516    5.7642    0.0000 H   0  0
    6.4880    4.2630    0.0000 H   0  0
    7.3531    4.7644    0.0000 H   0  0
   -2.1805    5.7312    0.0000 H   0  0
   -1.3065    4.2360    0.0000 H   0  0
   -2.1750    4.7313    0.0000 H   0  0
  1  2  2  0
  1  3  1  0
  1  4  1  0
  2  5  1  0
  2  6  1  0
  3  7  2  0
  3  8  1  0
  4  9  1  0
  4 10  2  0
  5 11  1  0
  6 12  2  0
  7 12  1  0
 11 13  2  0
 11 14  1  0
 13 15  1  0
 14 16  2  0
 15 17  2  0
 15 18  1  0
 16 19  1  0
 16 17  1  0
 18 20  1  0
 19 21  1  0
  6 22  1  0
  7 23  1  0
  9 24  1  0
 12 25  1  0
 17 26  1  0
 20 27  1  0
 20 28  1  0
 20 29  1  0
 21 30  1  0
 21 31  1  0
 21 32  1  0
M  END
> <DSSTox_RID>
40586

> <DSSTox_CID>
12673

> <DSSTox_Generic_SID>
32673

> <DSSTox_FileID>
270_TOXCST_v3a

> <STRUCTURE_Formula>
C13H10ClN2NaO4S

> <STRUCTURE_MolecularWeight>
348.7373

> <STRUCTURE_ChemicalType>
defined organic

> <STRUCTURE_TestedForm_DefinedOrganic>
salt Na

> <STRUCTURE_Shown>
tested chemical

> <TestSubstance_ChemicalName>
Pyrithiobac-sodium

> <Source_ChemicalName>
Pyrithiobac-sodium

> <TestSubstance_CASRN>
123343-16-8

> <TestSubstance_Description>
single chemical compound

> <ChemicalNote>
parent [123342-93-8]

> <STRUCTURE_ChemicalName_IUPAC>
sodium 2-chloro-6-[(4,6-dimethoxypyrimidin-2-yl)thio]benzoate

> <STRUCTURE_SMILES>
ClC1=CC=CC(SC2=NC(OC)=CC(OC)=N2)=C1C([O-])=O.[Na+]

> <STRUCTURE_Parent_SMILES>
ClC1=CC=CC(SC2=NC(OC)=CC(OC)=N2)=C1C(O)=O

> <STRUCTURE_InChI>
InChI=1S/C13H11ClN2O4S.Na/c1-19-9-6-10(20-2)16-13(15-9)21-8-5-3-4-7(14)11(8)12(17)18;/h3-6H,1-2H3,(H,17,18);/q;+1/p-1

> <STRUCTURE_InChIKey>
CNILNQMBAHKMFS-UHFFFAOYSA-M

> <Substance_modify_yyyymmdd>
20080429

> <DSSTox_CID_Parent>
17703

> <ChemicalReplicateCount>
1

> <Coord_Metals>
0

> <Index>
270

> <Canonical_Smiles>
COc1cc(OC)nc(Sc2cccc(Cl)c2C(=O)O)n1

> <Molecular_Weight>
326.75544

> <Frequency>
1

$$$$

  SciTegic          2D

 20 21  0  0  0  0            999 V2000
   -3.6486    1.3517    0.0000 Cl  0  0
   -2.6111    0.7486    0.0000 C   0  0
   -1.2964    1.4973    0.0000 C   0  0
    0.0000    0.7486    0.0000 C   0  0
    0.0000   -0.7486    0.0000 C   0  0
   -1.2964   -1.4973    0.0000 C   0  0
   -2.6111   -0.7486    0.0000 C   0  0
    1.2964   -1.4973    0.0000 C   0  0
    2.5929   -0.7486    0.0000 C   0  0
    2.5929    0.7486    0.0000 C   0  0
    1.2964    1.4973    0.0000 N   0  0
    3.6321   -1.3486    0.0000 Cl  0  0
   -1.2907    2.9981    0.0000 C   0  0
   -0.2489    3.5938    0.0000 O   0  0
   -2.5870    3.7544    0.0000 O   0  0
   -1.2934   -2.4973    0.0000 H   0  0
   -3.4756   -1.2512    0.0000 H   0  0
    1.2964   -2.4973    0.0000 H   0  0
    3.4589    1.2486    0.0000 H   0  0
   -2.5831    4.7544    0.0000 H   0  0
  1  2  1  0
  2  3  2  0
  2  7  1  0
  3  4  1  0
  3 13  1  0
  4  5  1  0
  4 11  2  0
  5  6  1  0
  5  8  2  0
  6  7  2  0
  8  9  1  0
  9 10  2  0
  9 12  1  0
 10 11  1  0
 13 14  2  0
 13 15  1  0
  6 16  1  0
  7 17  1  0
  8 18  1  0
 10 19  1  0
 15 20  1  0
M  END
> <DSSTox_RID>
40587

> <DSSTox_CID>
12641

> <DSSTox_Generic_SID>
32641

> <DSSTox_FileID>
271_TOXCST_v3a

> <STRUCTURE_Formula>
C10H5Cl2NO2

> <STRUCTURE_MolecularWeight>
242.0582

> <STRUCTURE_ChemicalType>
defined organic

> <STRUCTURE_TestedForm_DefinedOrganic>
parent

> <STRUCTURE_Shown>
tested chemical

> <TestSubstance_ChemicalName>
Quinclorac

> <Source_ChemicalName>
Quinclorac

> <TestSubstance_CASRN>
84087-01-4

> <TestSubstance_Description>
single chemical compound

> <STRUCTURE_ChemicalName_IUPAC>
3,7-dichloroquinoline-8-carboxylic acid

> <STRUCTURE_SMILES>
ClC2=C(C(O)=O)C1=NC=C(Cl)C=C1C=C2

> <STRUCTURE_Parent_SMILES>
ClC2=C(C(O)=O)C1=NC=C(Cl)C=C1C=C2

> <STRUCTURE_InChI>
InChI=1S/C10H5Cl2NO2/c11-6-3-5-1-2-7(12)8(10(14)15)9(5)13-4-6/h1-4H,(H,14,15)

> <STRUCTURE_InChIKey>
FFSSWMQPCJRCRV-UHFFFAOYSA-N

> <Substance_modify_yyyymmdd>
20080429

> <DSSTox_CID_Parent>
12641

> <ChemicalReplicateCount>
1

> <Coord_Metals>
0

> <Index>
271

> <Canonical_Smiles>
OC(=O)c1c(Cl)ccc2cc(Cl)cnc12

> <Molecular_Weight>
242.05819

> <Frequency>
1

$$$$

  SciTegic          2D

 28 30  0  0  0  0            999 V2000
   -1.2964    1.4973    0.0000 C   0  0
    0.0000    0.7486    0.0000 C   0  0
   -1.2907    2.9981    0.0000 O   0  0
   -2.6111    0.7486    0.0000 C   0  0
    0.0000   -0.7486    0.0000 C   0  0
    1.2964    1.4973    0.0000 C   0  0
   -2.5870    3.7544    0.0000 C   0  0
   -2.6111   -0.7486    0.0000 C   0  0
    1.2964   -1.4973    0.0000 C   0  0
   -1.2964   -1.4973    0.0000 N   0  0
    2.5929    0.7486    0.0000 C   0  0
    1.2964    2.6973    0.0000 Cl  0  0
   -2.5835    5.2544    0.0000 C   0  0
   -3.8880    3.0076    0.0000 C   0  0
    2.5929   -0.7486    0.0000 C   0  0
   -3.8807    6.0076    0.0000 C   0  0
   -5.1852    3.7608    0.0000 C   0  0
    3.6321   -1.3486    0.0000 Cl  0  0
   -5.1815    5.2608    0.0000 C   0  0
   -6.2193    5.8633    0.0000 F   0  0
   -3.4756    1.2512    0.0000 H   0  0
   -3.4756   -1.2512    0.0000 H   0  0
    1.2964   -2.4973    0.0000 H   0  0
    3.4589    1.2486    0.0000 H   0  0
   -1.7162    5.7523    0.0000 H   0  0
   -3.8905    2.0076    0.0000 H   0  0
   -3.8782    7.0076    0.0000 H   0  0
   -6.0524    3.2629    0.0000 H   0  0
  1  2  1  0
  1  3  1  0
  1  4  2  0
  2  5  1  0
  2  6  2  0
  3  7  1  0
  4  8  1  0
  5  9  2  0
  5 10  1  0
  6 11  1  0
  6 12  1  0
  7 13  2  0
  7 14  1  0
  8 10  2  0
  9 15  1  0
 11 15  2  0
 13 16  1  0
 14 17  2  0
 15 18  1  0
 16 19  2  0
 17 19  1  0
 19 20  1  0
  4 21  1  0
  8 22  1  0
  9 23  1  0
 11 24  1  0
 13 25  1  0
 14 26  1  0
 16 27  1  0
 17 28  1  0
M  END
> <DSSTox_RID>
40588

> <DSSTox_CID>
14881

> <DSSTox_Generic_SID>
34881

> <DSSTox_FileID>
272_TOXCST_v3a

> <STRUCTURE_Formula>
C15H8Cl2FNO

> <STRUCTURE_MolecularWeight>
308.1345

> <STRUCTURE_ChemicalType>
defined organic

> <STRUCTURE_TestedForm_DefinedOrganic>
parent

> <STRUCTURE_Shown>
tested chemical

> <TestSubstance_ChemicalName>
Quinoxyfen

> <Source_ChemicalName>
Quinoxyfen

> <TestSubstance_CASRN>
124495-18-7

> <TestSubstance_Description>
single chemical compound

> <STRUCTURE_ChemicalName_IUPAC>
5,7-dichloro-4-(4-fluorophenoxy)quinoline

> <STRUCTURE_SMILES>
ClC2=C1C(OC3=CC=C(F)C=C3)=CC=NC1=CC(Cl)=C2

> <STRUCTURE_Parent_SMILES>
ClC2=C1C(OC3=CC=C(F)C=C3)=CC=NC1=CC(Cl)=C2

> <STRUCTURE_InChI>
InChI=1S/C15H8Cl2FNO/c16-9-7-12(17)15-13(8-9)19-6-5-14(15)20-11-3-1-10(18)2-4-11/h1-8H

> <STRUCTURE_InChIKey>
WRPIRSINYZBGPK-UHFFFAOYSA-N

> <Substance_modify_yyyymmdd>
20080429

> <DSSTox_CID_Parent>
14881

> <ChemicalReplicateCount>
1

> <Coord_Metals>
0

> <Index>
272

> <Canonical_Smiles>
Fc1ccc(Oc2ccnc3cc(Cl)cc(Cl)c23)cc1

> <Molecular_Weight>
308.13452

> <Frequency>
1

$$$$

  SciTegic          2D

 14 14  0  0  0  0            999 V2000
    2.3383   -1.3500    0.0000 Cl  0  0
    1.2990   -0.7500    0.0000 C   0  0
    1.2990    0.7500    0.0000 C   0  0
    0.0000    1.5000    0.0000 C   0  0
   -1.2990    0.7500    0.0000 C   0  0
   -1.2990   -0.7500    0.0000 C   0  0
    0.0000   -1.5000    0.0000 C   0  0
    0.0000   -2.7000    0.0000 Cl  0  0
   -2.3383   -1.3500    0.0000 Cl  0  0
   -2.3383    1.3500    0.0000 Cl  0  0
    0.0000    2.7000    0.0000 Cl  0  0
    2.5972    1.5031    0.0000 N   0  0
    2.5955    2.7031    0.0000 O   0  0
    3.6375    0.9049    0.0000 O   0  0
  1  2  1  0
  2  3  2  0
  2  7  1  0
  3  4  1  0
  3 12  1  0
  4  5  2  0
  4 11  1  0
  5  6  1  0
  5 10  1  0
  6  7  2  0
  6  9  1  0
  7  8  1  0
 12 13  2  0
 12 14  2  0
M  END
> <DSSTox_RID>
40551

> <DSSTox_CID>
1105

> <DSSTox_Generic_SID>
21105

> <DSSTox_FileID>
273_TOXCST_v3a

> <STRUCTURE_Formula>
C6Cl5NO2

> <STRUCTURE_MolecularWeight>
295.3347

> <STRUCTURE_ChemicalType>
defined organic

> <STRUCTURE_TestedForm_DefinedOrganic>
parent

> <STRUCTURE_Shown>
tested chemical

> <TestSubstance_ChemicalName>
Pentachloronitrobenzene

> <Source_ChemicalName>
Quintozene

> <TestSubstance_CASRN>
82-68-8

> <TestSubstance_Description>
single chemical compound

> <STRUCTURE_ChemicalName_IUPAC>
1,2,3,4,5-pentachloro-6-nitrobenzene

> <STRUCTURE_SMILES>
ClC1=C(C(=C(C(=C1Cl)Cl)Cl)Cl)[N+](=O)[O-]

> <STRUCTURE_Parent_SMILES>
ClC1=C(C(=C(C(=C1Cl)Cl)Cl)Cl)[N+](=O)[O-]

> <STRUCTURE_InChI>
InChI=1S/C6Cl5NO2/c7-1-2(8)4(10)6(12(13)14)5(11)3(1)9

> <STRUCTURE_InChIKey>
LKPLKUMXSAEKID-UHFFFAOYSA-N

> <Substance_modify_yyyymmdd>
20080429

> <DSSTox_CID_Parent>
1105

> <ChemicalReplicateCount>
1

> <Coord_Metals>
0

> <Index>
273

> <Canonical_Smiles>
Clc1c(Cl)c(Cl)c(c(Cl)c1Cl)N(=O)=O

> <Molecular_Weight>
295.3347

> <Frequency>
1

$$$$

  SciTegic          2D

 43 45  0  0  0  0            999 V2000
   -1.2964    1.4973    0.0000 N   0  0
   -1.2964   -1.4973    0.0000 N   0  0
   -2.6111    0.7486    0.0000 C   0  0
    0.0000   -0.7486    0.0000 C   0  0
   -5.1892    9.7577    0.0000 C   0  0
    0.0000    0.7486    0.0000 C   0  0
    1.2964   -1.4973    0.0000 C   0  0
   -5.1916    8.2569    0.0000 C   0  0
   -3.8935    7.5036    0.0000 O   0  0
   -3.9091    1.5019    0.0000 O   0  0
   -4.3223   10.2561    0.0000 O   0  0
   -2.6111   -0.7486    0.0000 C   0  0
    1.2964    1.4973    0.0000 C   0  0
    2.5929   -0.7486    0.0000 C   0  0
   -3.8958    6.0028    0.0000 C   0  0
   -3.9067    3.0027    0.0000 C   0  0
   -6.4873   10.5110    0.0000 O   0  0
    2.5929    0.7486    0.0000 C   0  0
    3.6321   -1.3486    0.0000 Cl  0  0
   -5.1976    5.2575    0.0000 C   0  0
   -2.5995    5.2481    0.0000 C   0  0
   -5.2030    3.7575    0.0000 C   0  0
   -2.6050    3.7481    0.0000 C   0  0
   -3.8637    9.0169    0.0000 C   0  0
   -6.4850   12.0118    0.0000 C   0  0
   -7.7831   12.7651    0.0000 C   0  0
    1.2964   -2.4973    0.0000 H   0  0
   -6.0585    7.7585    0.0000 H   0  0
   -3.4756   -1.2512    0.0000 H   0  0
    1.2964    2.4973    0.0000 H   0  0
    3.4589    1.2486    0.0000 H   0  0
   -6.0618    5.7607    0.0000 H   0  0
   -1.7317    5.7450    0.0000 H   0  0
   -6.0709    3.2607    0.0000 H   0  0
   -1.7408    3.2450    0.0000 H   0  0
   -2.9993    8.5142    0.0000 H   0  0
   -2.9961    9.5141    0.0000 H   0  0
   -3.8603   10.0169    0.0000 H   0  0
   -5.6180   12.5102    0.0000 H   0  0
   -5.6198   11.5103    0.0000 H   0  0
   -7.7815   13.7651    0.0000 H   0  0
   -8.6500   12.2667    0.0000 H   0  0
   -8.6482   13.2666    0.0000 H   0  0
  1  3  1  0
  1  6  2  0
  2  4  2  0
  2 12  1  0
  3 10  1  0
  3 12  2  0
  4  6  1  0
  4  7  1  0
  5  8  1  0
  5 11  2  0
  5 17  1  0
  6 13  1  0
  7 14  2  0
  8  9  1  0
  8 24  1  0
  9 15  1  0
 10 16  1  0
 13 18  2  0
 14 18  1  0
 14 19  1  0
 15 21  1  0
 15 20  2  0
 16 22  2  0
 16 23  1  0
 17 25  1  0
 20 22  1  0
 21 23  2  0
 25 26  1  0
  7 27  1  0
  8 28  1  0
 12 29  1  0
 13 30  1  0
 18 31  1  0
 20 32  1  0
 21 33  1  0
 22 34  1  0
 23 35  1  0
 24 36  1  0
 24 37  1  0
 24 38  1  0
 25 39  1  0
 25 40  1  0
 26 41  1  0
 26 42  1  0
 26 43  1  0
M  END
> <DSSTox_RID>
40589

> <DSSTox_CID>
3889

> <DSSTox_Generic_SID>
23889

> <DSSTox_FileID>
274_TOXCST_v3a

> <STRUCTURE_Formula>
C19H17ClN2O4

> <STRUCTURE_MolecularWeight>
372.8023

> <STRUCTURE_ChemicalType>
defined organic

> <STRUCTURE_TestedForm_DefinedOrganic>
parent

> <STRUCTURE_Shown>
tested chemical

> <TestSubstance_ChemicalName>
Quizalofop-ethyl

> <Source_ChemicalName>
Quizalofop-ethyl

> <TestSubstance_CASRN>
76578-14-8

> <TestSubstance_Description>
single chemical compound

> <STRUCTURE_ChemicalName_IUPAC>
ethyl 2-{4-[(6-chloroquinoxalin-2-yl)oxy]phenoxy}propanoate

> <STRUCTURE_SMILES>
CCOC(=O)C(C)Oc1ccc(cc1)Oc2cnc3cc(Cl)ccc3n2

> <STRUCTURE_Parent_SMILES>
CCOC(=O)C(C)Oc1ccc(cc1)Oc2cnc3cc(Cl)ccc3n2

> <STRUCTURE_InChI>
InChI=1S/C19H17ClN2O4/c1-3-24-19(23)12(2)25-14-5-7-15(8-6-14)26-18-11-21-17-10-13(20)4-9-16(17)22-18/h4-12H,3H2,1-2H3

> <STRUCTURE_InChIKey>
OSUHJPCHFDQAIT-UHFFFAOYSA-N

> <Substance_modify_yyyymmdd>
20080429

> <DSSTox_CID_Parent>
3889

> <ChemicalReplicateCount>
1

> <Coord_Metals>
0

> <Index>
274

> <Canonical_Smiles>
CCOC(=O)C(C)Oc1ccc(Oc2cnc3cc(Cl)ccc3n2)cc1

> <Molecular_Weight>
372.80228

> <Frequency>
1

$$$$

  SciTegic          2D

 51 53  0  0  0  0            999 V2000
    9.4051   -1.2472    0.0000 C   0  0
    9.0614    0.2137    0.0000 C   0  0
    7.6251    0.6491    0.0000 C   0  0
   10.1542    1.2425    0.0000 C   0  0
    9.7902    2.7096    0.0000 C   0  0
   11.0039    3.5911    0.0000 C   0  0
   11.6021    4.9792    0.0000 C   0  0
   11.9361    2.4007    0.0000 C   0  0
    9.7119    4.0936    0.0000 C   0  0
    8.2193    3.9367    0.0000 C   0  0
    7.7316    2.8403    0.0000 O   0  0
    7.3364    5.1504    0.0000 O   0  0
    5.8438    4.9935    0.0000 C   0  0
    4.9624    6.2050    0.0000 C   0  0
    5.4250    7.6319    0.0000 C   0  0
    4.2109    8.5128    0.0000 O   0  0
    3.0188    7.6236    0.0000 C   0  0
    1.5911    8.0865    0.0000 C   0  0
    0.4758    7.0822    0.0000 C   0  0
    0.7877    5.6150    0.0000 C   0  0
   -0.3270    4.6113    0.0000 C   0  0
   -1.7536    5.0748    0.0000 C   0  0
   -2.0655    6.5420    0.0000 C   0  0
   -0.9508    7.5457    0.0000 C   0  0
    3.4624    6.2041    0.0000 C   0  0
    8.6770   -1.9327    0.0000 H   0  0
    9.6345   -2.2205    0.0000 H   0  0
   10.3627   -1.5353    0.0000 H   0  0
    7.3973    1.6228    0.0000 H   0  0
    6.6680    0.9387    0.0000 H   0  0
    6.8956   -0.0349    0.0000 H   0  0
   11.1118    0.9544    0.0000 H   0  0
    8.7945    2.6170    0.0000 H   0  0
   10.9954    5.7742    0.0000 H   0  0
   11.9871    5.9022    0.0000 H   0  0
   12.5938    5.1075    0.0000 H   0  0
   12.9279    2.5283    0.0000 H   0  0
   12.5426    1.6056    0.0000 H   0  0
   11.5509    1.4778    0.0000 H   0  0
   10.1190    5.0070    0.0000 H   0  0
    5.4373    4.0798    0.0000 H   0  0
    6.4317    4.1846    0.0000 H   0  0
    6.3758    7.9415    0.0000 H   0  0
    1.3829    9.0645    0.0000 H   0  0
    2.3340    8.7560    0.0000 H   0  0
    1.7387    5.3060    0.0000 H   0  0
   -0.1191    3.6331    0.0000 H   0  0
   -2.4968    4.4057    0.0000 H   0  0
   -3.0165    6.8510    0.0000 H   0  0
   -1.1587    8.5239    0.0000 H   0  0
    2.8703    5.3982    0.0000 H   0  0
  1  2  1  0
  2  3  1  0
  2  4  2  0
  4  5  1  0
  5  6  1  0
  5  9  1  0
  6  7  1  0
  6  8  1  0
  6  9  1  0
  9 10  1  0
 10 11  2  0
 10 12  1  0
 12 13  1  0
 13 14  1  0
 14 15  2  0
 14 25  1  0
 15 16  1  0
 16 17  1  0
 17 18  1  0
 17 25  2  0
 18 19  1  0
 19 20  2  0
 19 24  1  0
 20 21  1  0
 21 22  2  0
 22 23  1  0
 23 24  2  0
  1 26  1  0
  1 27  1  0
  1 28  1  0
  3 29  1  0
  3 30  1  0
  3 31  1  0
  4 32  1  0
  5 33  1  0
  7 34  1  0
  7 35  1  0
  7 36  1  0
  8 37  1  0
  8 38  1  0
  8 39  1  0
  9 40  1  0
 13 41  1  0
 13 42  1  0
 15 43  1  0
 18 44  1  0
 18 45  1  0
 20 46  1  0
 21 47  1  0
 22 48  1  0
 23 49  1  0
 24 50  1  0
 25 51  1  0
M  END
> <DSSTox_RID>
40590

> <DSSTox_CID>
2253

> <DSSTox_Generic_SID>
22253

> <DSSTox_FileID>
275_TOXCST_v3a

> <STRUCTURE_Formula>
C22H26O3

> <STRUCTURE_MolecularWeight>
338.44

> <STRUCTURE_ChemicalType>
defined organic

> <STRUCTURE_TestedForm_DefinedOrganic>
parent

> <STRUCTURE_Shown>
tested chemical

> <TestSubstance_ChemicalName>
Resmethrin

> <Source_ChemicalName>
Resmethrin

> <TestSubstance_CASRN>
10453-86-8

> <TestSubstance_Description>
single chemical compound

> <ChemicalNote>
mixture of (1R,S), (3R,S) isomers; structure shown without stereochem

> <STRUCTURE_ChemicalName_IUPAC>
(5-benzyl-3-furyl)methyl 2,2-dimethyl-3-(2-methylprop-1-en-1-yl)cyclopropanecarboxylate

> <STRUCTURE_SMILES>
CC(C)=CC1C(C)(C)C1C(=O)OCC2=COC(CC3=CC=CC=C3)=C2

> <STRUCTURE_Parent_SMILES>
CC(C)=CC1C(C)(C)C1C(=O)OCC2=COC(CC3=CC=CC=C3)=C2

> <STRUCTURE_InChI>
InChI=1S/C22H26O3/c1-15(2)10-19-20(22(19,3)4)21(23)25-14-17-12-18(24-13-17)11-16-8-6-5-7-9-16/h5-10,12-13,19-20H,11,14H2,1-4H3

> <STRUCTURE_InChIKey>
VEMKTZHHVJILDY-UHFFFAOYSA-N

> <Substance_modify_yyyymmdd>
20080429

> <DSSTox_CID_Parent>
2253

> <ChemicalReplicateCount>
1

> <Coord_Metals>
0

> <Index>
275

> <Canonical_Smiles>
CC(=CC1C(C(=O)OCc2coc(Cc3ccccc3)c2)C1(C)C)C

> <Molecular_Weight>
338.44004

> <Frequency>
1

$$$$

  SciTegic          2D

 45 46  0  0  0  0            999 V2000
    1.2990   -0.7500    0.0000 C   0  0
    0.0000   -1.5000    0.0000 C   0  0
    1.2990    0.7500    0.0000 N   0  0
   -1.2990   -0.7500    0.0000 C   0  0
    0.0000    1.5000    0.0000 C   0  0
   -1.2990    0.7500    0.0000 C   0  0
    2.5988   -1.5004    0.0000 S   0  0
    3.8990   -0.7508    0.0000 N   0  0
    0.0000   -3.0008    0.0000 S   0  0
    1.2993   -3.7521    0.0000 C   0  0
    5.1988   -1.5012    0.0000 C   0  0
    6.4990   -0.7516    0.0000 N   0  0
    1.2993   -5.2529    0.0000 C   0  0
    7.7988   -1.5020    0.0000 C   0  0
    9.0994   -0.7548    0.0000 N   0  0
    7.7958   -3.0021    0.0000 N   0  0
   10.3969   -1.5074    0.0000 C   0  0
    9.0933   -3.7547    0.0000 C   0  0
   10.3938   -3.0074    0.0000 C   0  0
    2.5984   -2.7004    0.0000 O   0  0
    3.6377   -2.1009    0.0000 O   0  0
   -1.0394   -3.6005    0.0000 O   0  0
   -1.0391   -2.4007    0.0000 O   0  0
    5.1984   -2.7012    0.0000 O   0  0
   11.6966   -0.7569    0.0000 O   0  0
    9.0871   -5.2556    0.0000 O   0  0
   11.6976    0.7439    0.0000 C   0  0
    7.7848   -6.0015    0.0000 C   0  0
   -2.1651   -1.2500    0.0000 H   0  0
    0.0000    2.5000    0.0000 H   0  0
   -2.1651    1.2500    0.0000 H   0  0
    3.8993    0.2492    0.0000 H   0  0
    2.1655   -3.2523    0.0000 H   0  0
    1.2998   -2.7521    0.0000 H   0  0
    6.4993    0.2484    0.0000 H   0  0
    2.1650   -5.7534    0.0000 H   0  0
    0.4331   -5.7526    0.0000 H   0  0
    1.2988   -6.2529    0.0000 H   0  0
   11.2589   -3.5092    0.0000 H   0  0
   12.5636    1.2439    0.0000 H   0  0
   10.8317    1.2441    0.0000 H   0  0
   11.6977    1.7439    0.0000 H   0  0
    7.7807   -7.0015    0.0000 H   0  0
    6.9207   -5.4982    0.0000 H   0  0
    6.9168   -6.4981    0.0000 H   0  0
  1  3  2  0
  1  7  1  0
  1  2  1  0
  2  4  2  0
  2  9  1  0
  3  5  1  0
  4  6  1  0
  5  6  2  0
  7  8  1  0
  7 20  2  0
  7 21  2  0
  8 11  1  0
  9 10  1  0
  9 22  2  0
  9 23  2  0
 10 13  1  0
 11 12  1  0
 11 24  2  0
 12 14  1  0
 14 15  2  0
 14 16  1  0
 15 17  1  0
 16 18  2  0
 17 19  2  0
 17 25  1  0
 18 19  1  0
 18 26  1  0
 25 27  1  0
 26 28  1  0
  4 29  1  0
  5 30  1  0
  6 31  1  0
  8 32  1  0
 10 33  1  0
 10 34  1  0
 12 35  1  0
 13 36  1  0
 13 37  1  0
 13 38  1  0
 19 39  1  0
 27 40  1  0
 27 41  1  0
 27 42  1  0
 28 43  1  0
 28 44  1  0
 28 45  1  0
M  END
> <DSSTox_RID>
40591

> <DSSTox_CID>
12642

> <DSSTox_Generic_SID>
32642

> <DSSTox_FileID>
276_TOXCST_v3a

> <STRUCTURE_Formula>
C14H17N5O7S2

> <STRUCTURE_MolecularWeight>
431.4441

> <STRUCTURE_ChemicalType>
defined organic

> <STRUCTURE_TestedForm_DefinedOrganic>
parent

> <STRUCTURE_Shown>
tested chemical

> <TestSubstance_ChemicalName>
Rimsulfuron

> <Source_ChemicalName>
Rimsulfuron

> <TestSubstance_CASRN>
122931-48-0

> <TestSubstance_Description>
single chemical compound

> <STRUCTURE_ChemicalName_IUPAC>
N-[(4,6-dimethoxypyrimidin-2-yl)carbamoyl]-3-(ethylsulfonyl)pyridine-2-sulfonamide

> <STRUCTURE_SMILES>
O=S(C1=NC=CC=C1S(CC)(=O)=O)(NC(NC2=NC(OC)=CC(OC)=N2)=O)=O

> <STRUCTURE_Parent_SMILES>
O=S(C1=NC=CC=C1S(CC)(=O)=O)(NC(NC2=NC(OC)=CC(OC)=N2)=O)=O

> <STRUCTURE_InChI>
InChI=1S/C14H17N5O7S2/c1-4-27(21,22)9-6-5-7-15-12(9)28(23,24)19-14(20)18-13-16-10(25-2)8-11(17-13)26-3/h5-8H,4H2,1-3H3,(H2,16,17,18,19,20)

> <STRUCTURE_InChIKey>
MEFOUWRMVYJCQC-UHFFFAOYSA-N

> <Substance_modify_yyyymmdd>
20080429

> <DSSTox_CID_Parent>
12642

> <ChemicalReplicateCount>
1

> <Coord_Metals>
0

> <Index>
276

> <Canonical_Smiles>
CCS(=O)(=O)c1cccnc1S(=O)(=O)NC(=O)Nc2nc(OC)cc(OC)n2

> <Molecular_Weight>
431.44408

> <Frequency>
1

$$$$

  SciTegic          2D

 51 55  0  0  0  0            999 V2000
    1.7200    0.8500    0.0000 C   0  0
   -1.1300    0.9200    0.0000 C   0  0
   -1.1300   -0.6700    0.0000 C   0  0
    0.3500    1.7000    0.0000 C   0  0
    3.2000    1.7000    0.0000 C   0  0
   -2.6700   -1.4700    0.0000 C   0  0
    1.7200   -0.7700    0.0000 O   0  0
    0.2000   -1.5700    0.0000 C   0  0
   -2.6700   -3.1400    0.0000 C   0  0
    4.8000    3.9200    0.0000 O   0  0
    3.2000    3.3200    0.0000 C   0  0
    4.8000    1.2200    0.0000 C   0  0
    5.8100    2.6000    0.0000 C   0  0
   -4.0100   -0.5600    0.0000 C   0  0
   -1.2700   -3.9900    0.0000 O   0  0
   -4.1300   -3.8900    0.0000 C   0  0
    0.3500    3.3200    0.0000 C   0  0
   -5.5600   -1.3400    0.0000 C   0  0
   -5.5600   -2.9900    0.0000 C   0  0
    6.5210    3.9076    0.0000 C   0  0
    0.2000   -3.2400    0.0000 C   0  0
   -2.1575    1.5399    0.0000 O   0  0
    1.7700    4.1500    0.0000 C   0  0
    5.7573    5.1996    0.0000 C   0  0
   -6.8468   -0.5729    0.0000 O   0  0
   -6.8791   -3.7034    0.0000 O   0  0
    8.0217    3.9266    0.0000 C   0  0
   -8.1579   -2.9178    0.0000 C   0  0
   -6.8263    0.9278    0.0000 C   0  0
   -1.9847   -0.1509    0.0000 H   0  0
    1.0561   -2.0868    0.0000 H   0  0
    5.7832    1.0372    0.0000 H   0  0
    4.1262    0.4811    0.0000 H   0  0
    6.3065    1.7319    0.0000 H   0  0
   -3.9449    0.4379    0.0000 H   0  0
   -4.1736   -4.8890    0.0000 H   0  0
   -0.5174    3.8177    0.0000 H   0  0
    1.0683   -2.7439    0.0000 H   0  0
    0.1528   -4.2389    0.0000 H   0  0
    1.7685    5.1500    0.0000 H   0  0
    6.2479    6.0710    0.0000 H   0  0
    4.7574    5.1890    0.0000 H   0  0
    8.5113    4.7985    0.0000 H   0  0
    9.0217    3.9387    0.0000 H   0  0
    8.5324    3.0668    0.0000 H   0  0
   -9.0376   -3.3933    0.0000 H   0  0
   -8.1302   -1.9181    0.0000 H   0  0
   -9.0097   -2.3939    0.0000 H   0  0
   -7.6851    1.4401    0.0000 H   0  0
   -5.9534    1.4156    0.0000 H   0  0
   -6.8122    1.9277    0.0000 H   0  0
  1  4  2  0
  1  5  1  0
  1  7  1  0
  2  4  1  0
  2 22  2  0
  2  3  1  0
  3  8  1  0
  3  6  1  0
  4 17  1  0
  5 11  2  0
  5 12  1  0
  6 14  1  0
  6  9  2  0
  7  8  1  0
  8 21  1  0
  9 15  1  0
  9 16  1  0
 10 11  1  0
 10 13  1  0
 11 23  1  0
 12 13  1  0
 13 20  1  0
 14 18  2  0
 15 21  1  0
 16 19  2  0
 17 23  2  0
 18 25  1  0
 18 19  1  0
 19 26  1  0
 20 24  2  0
 20 27  1  0
 25 29  1  0
 26 28  1  0
  3 30  1  0
  8 31  1  0
 12 32  1  0
 12 33  1  0
 13 34  1  0
 14 35  1  0
 16 36  1  0
 17 37  1  0
 21 38  1  0
 21 39  1  0
 23 40  1  0
 24 41  1  0
 24 42  1  0
 27 43  1  0
 27 44  1  0
 27 45  1  0
 28 46  1  0
 28 47  1  0
 28 48  1  0
 29 49  1  0
 29 50  1  0
 29 51  1  0
M  END
> <DSSTox_RID>
40592

> <DSSTox_CID>
1248

> <DSSTox_Generic_SID>
21248

> <DSSTox_FileID>
277_TOXCST_v3a

> <STRUCTURE_Formula>
C23H22O6

> <STRUCTURE_MolecularWeight>
394.4172

> <STRUCTURE_ChemicalType>
defined organic

> <STRUCTURE_TestedForm_DefinedOrganic>
parent

> <STRUCTURE_Shown>
tested chemical

> <TestSubstance_ChemicalName>
Rotenone

> <Source_ChemicalName>
Rotenone

> <TestSubstance_CASRN>
83-79-4

> <TestSubstance_Description>
single chemical compound

> <ChemicalNote>
stereochem

> <STRUCTURE_ChemicalName_IUPAC>
(2R,6aS,12aS)-2-isopropenyl-8,9-dimethoxy-1,2,12,12a-tetrahydrochromeno[3,4-b]furo[2,3-h]chromen-6(6aH)-one

> <STRUCTURE_SMILES>
O=C([C@](C(C=C4OC)=C(C=C4OC)OC3)([H])[C@]3([H])O2)C(C=C5)=C2C1=C5O[C@@H]([C@@](C)=C)C1

> <STRUCTURE_Parent_SMILES>
O=C([C@](C(C=C4OC)=C(C=C4OC)OC3)([H])[C@]3([H])O2)C(C=C5)=C2C1=C5O[C@@H]([C@@](C)=C)C1

> <STRUCTURE_InChI>
InChI=1S/C23H22O6/c1-11(2)16-8-14-15(28-16)6-5-12-22(24)21-13-7-18(25-3)19(26-4)9-17(13)27-10-20(21)29-23(12)14/h5-7,9,16,20-21H,1,8,10H2,2-4H3/t16-,20-,21+/m1/s1

> <STRUCTURE_InChIKey>
JUVIOZPCNVVQFO-HBGVWJBISA-N

> <Substance_modify_yyyymmdd>
20080429

> <DSSTox_CID_Parent>
1248

> <ChemicalReplicateCount>
1

> <Coord_Metals>
0

> <Index>
277

> <Canonical_Smiles>
COc1cc2OCC3Oc4c5CC(Oc5ccc4C(=O)C3c2cc1OC)C(=C)C

> <Molecular_Weight>
394.41718

> <Frequency>
1

$$$$

  SciTegic          2D

 51 51  0  0  0  0            999 V2000
    1.2990   -0.7500    0.0000 C   0  0
    1.2990    0.7500    0.0000 C   0  0
    0.0000   -1.5000    0.0000 C   0  0
    2.5973   -1.5031    0.0000 C   0  0
    0.0000    1.5000    0.0000 C   0  0
   -1.2990   -0.7500    0.0000 C   0  0
   -1.2990    0.7500    0.0000 C   0  0
    0.0000   -2.7000    0.0000 O   0  0
    2.5951   -3.0039    0.0000 N   0  0
    2.6003    1.4978    0.0000 O   0  0
   -2.7502    0.4571    0.0000 C   0  0
    3.8933   -3.7570    0.0000 O   0  0
   -5.2343    1.2247    0.0000 S   0  0
   -3.7708    1.5575    0.0000 C   0  0
    3.8999   -0.7576    0.0000 C   0  0
   -6.2549    2.3251    0.0000 C   0  0
    3.8912   -5.2578    0.0000 C   0  0
    5.1972   -1.5121    0.0000 C   0  0
   -3.3278    2.9913    0.0000 C   0  0
   -7.7184    1.9923    0.0000 C   0  0
    5.1894   -6.0109    0.0000 C   0  0
    6.4998   -0.7667    0.0000 C   0  0
   -0.8776    1.9794    0.0000 H   0  0
    0.8775    1.9795    0.0000 H   0  0
   -2.1530   -0.2297    0.0000 H   0  0
   -1.2755   -1.7497    0.0000 H   0  0
   -0.4455    0.2289    0.0000 H   0  0
    3.4656    0.9965    0.0000 H   0  0
   -3.0454   -0.4983    0.0000 H   0  0
   -3.7252    0.2349    0.0000 H   0  0
   -4.0661    0.6020    0.0000 H   0  0
    3.0357   -0.2545    0.0000 H   0  0
    3.9033    0.2424    0.0000 H   0  0
   -5.2799    2.5473    0.0000 H   0  0
   -5.9597    3.2805    0.0000 H   0  0
    3.0260   -4.7564    0.0000 H   0  0
    3.0243   -5.7563    0.0000 H   0  0
    4.3295   -2.0092    0.0000 H   0  0
    5.1937   -2.5121    0.0000 H   0  0
   -2.3529    3.2140    0.0000 H   0  0
   -3.0330    3.9469    0.0000 H   0  0
   -4.0078    3.7245    0.0000 H   0  0
   -8.3984    2.7255    0.0000 H   0  0
   -8.6934    1.7701    0.0000 H   0  0
   -8.0136    1.0369    0.0000 H   0  0
    5.1880   -7.0109    0.0000 H   0  0
    6.0546   -6.5123    0.0000 H   0  0
    6.0563   -5.5124    0.0000 H   0  0
    7.3643   -1.2694    0.0000 H   0  0
    7.3675   -0.2695    0.0000 H   0  0
    6.5033    0.2333    0.0000 H   0  0
  1  2  2  0
  1  3  1  0
  1  4  1  0
  2  5  1  0
  2 10  1  0
  3  6  1  0
  3  8  2  0
  4  9  2  0
  4 15  1  0
  5  7  1  0
  6  7  1  0
  7 11  1  0
  9 12  1  0
 11 14  1  0
 12 17  1  0
 13 14  1  0
 13 16  1  0
 14 19  1  0
 15 18  1  0
 16 20  1  0
 17 21  1  0
 18 22  1  0
  5 23  1  0
  5 24  1  0
  6 25  1  0
  6 26  1  0
  7 27  1  0
 10 28  1  0
 11 29  1  0
 11 30  1  0
 14 31  1  0
 15 32  1  0
 15 33  1  0
 16 34  1  0
 16 35  1  0
 17 36  1  0
 17 37  1  0
 18 38  1  0
 18 39  1  0
 19 40  1  0
 19 41  1  0
 19 42  1  0
 20 43  1  0
 20 44  1  0
 20 45  1  0
 21 46  1  0
 21 47  1  0
 21 48  1  0
 22 49  1  0
 22 50  1  0
 22 51  1  0
M  END
> <DSSTox_RID>
40593

> <DSSTox_CID>
4304

> <DSSTox_Generic_SID>
24304

> <DSSTox_FileID>
278_TOXCST_v3a

> <STRUCTURE_Formula>
C17H29NO3S

> <STRUCTURE_MolecularWeight>
327.4821

> <STRUCTURE_ChemicalType>
defined organic

> <STRUCTURE_TestedForm_DefinedOrganic>
parent

> <STRUCTURE_Shown>
tested chemical

> <TestSubstance_ChemicalName>
Sethoxydim

> <Source_ChemicalName>
Sethoxydim

> <TestSubstance_CASRN>
74051-80-2

> <TestSubstance_Description>
single chemical compound

> <STRUCTURE_ChemicalName_IUPAC>
2-[1-(ethoxyimino)butyl]-5-[2-(ethylthio)propyl]-3-hydroxy-2-cyclohexen-1-one

> <STRUCTURE_SMILES>
O=C1C(/C(CCC)=N/OCC)=C(O)CC(CC(SCC)C)C1

> <STRUCTURE_Parent_SMILES>
O=C1C(/C(CCC)=N/OCC)=C(O)CC(CC(SCC)C)C1

> <STRUCTURE_InChI>
InChI=1S/C17H29NO3S/c1-5-8-14(18-21-6-2)17-15(19)10-13(11-16(17)20)9-12(4)22-7-3/h12-13,19H,5-11H2,1-4H3

> <STRUCTURE_InChIKey>
CSPPKDPQLUUTND-UHFFFAOYSA-N

> <Substance_modify_yyyymmdd>
20080429

> <DSSTox_CID_Parent>
4304

> <ChemicalReplicateCount>
1

> <Coord_Metals>
0

> <Index>
278

> <Canonical_Smiles>
CCCC(=NOCC)C1=C(O)CC(CC(C)SCC)CC1=O

> <Molecular_Weight>
327.48206

> <Frequency>
1

$$$$

  SciTegic          2D

 25 25  0  0  0  0            999 V2000
    2.3383   -1.3500    0.0000 Cl  0  0
    1.2990   -0.7500    0.0000 C   0  0
    1.2990    0.7500    0.0000 N   0  0
    0.0000    1.5000    0.0000 C   0  0
   -1.2990    0.7500    0.0000 N   0  0
   -1.2990   -0.7500    0.0000 C   0  0
    0.0000   -1.5000    0.0000 N   0  0
   -2.5972   -1.5031    0.0000 N   0  0
   -2.5951   -3.0039    0.0000 C   0  0
   -3.8933   -3.7570    0.0000 C   0  0
   -0.0031    3.0008    0.0000 N   0  0
   -1.3039    3.7494    0.0000 C   0  0
   -1.3070    5.2502    0.0000 C   0  0
   -3.4641   -1.0046    0.0000 H   0  0
   -1.7299   -2.5025    0.0000 H   0  0
   -1.7282   -3.5024    0.0000 H   0  0
   -3.8919   -4.7570    0.0000 H   0  0
   -4.7585   -4.2584    0.0000 H   0  0
   -4.7602   -3.2585    0.0000 H   0  0
    0.8620    3.5023    0.0000 H   0  0
   -1.3023    2.7494    0.0000 H   0  0
   -2.1691    3.2479    0.0000 H   0  0
   -2.1738    5.7490    0.0000 H   0  0
   -1.3086    6.2502    0.0000 H   0  0
   -0.4419    5.7517    0.0000 H   0  0
  1  2  1  0
  2  3  2  0
  2  7  1  0
  3  4  1  0
  4  5  2  0
  4 11  1  0
  5  6  1  0
  6  7  2  0
  6  8  1  0
  8  9  1  0
  9 10  1  0
 11 12  1  0
 12 13  1  0
  8 14  1  0
  9 15  1  0
  9 16  1  0
 10 17  1  0
 10 18  1  0
 10 19  1  0
 11 20  1  0
 12 21  1  0
 12 22  1  0
 13 23  1  0
 13 24  1  0
 13 25  1  0
M  END
> <DSSTox_RID>
40298

> <DSSTox_CID>
1268

> <DSSTox_Generic_SID>
21268

> <DSSTox_FileID>
279_TOXCST_v3a

> <STRUCTURE_Formula>
C7H12ClN5

> <STRUCTURE_MolecularWeight>
201.6567

> <STRUCTURE_ChemicalType>
defined organic

> <STRUCTURE_TestedForm_DefinedOrganic>
parent

> <STRUCTURE_Shown>
tested chemical

> <TestSubstance_ChemicalName>
Simazine

> <Source_ChemicalName>
Simazine

> <TestSubstance_CASRN>
122-34-9

> <TestSubstance_Description>
single chemical compound

> <STRUCTURE_ChemicalName_IUPAC>
6-chloro-N,N'-diethyl-1,3,5-triazine-2,4-diamine

> <STRUCTURE_SMILES>
ClC1=NC(=NC(=N1)NCC)NCC

> <STRUCTURE_Parent_SMILES>
ClC1=NC(=NC(=N1)NCC)NCC

> <STRUCTURE_InChI>
InChI=1S/C7H12ClN5/c1-3-9-6-11-5(8)12-7(13-6)10-4-2/h3-4H2,1-2H3,(H2,9,10,11,12,13)

> <STRUCTURE_InChIKey>
ODCWYMIRDDJXKW-UHFFFAOYSA-N

> <Substance_modify_yyyymmdd>
20080429

> <DSSTox_CID_Parent>
1268

> <ChemicalReplicateCount>
1

> <Coord_Metals>
0

> <Index>
279

> <Canonical_Smiles>
CCNc1nc(Cl)nc(NCC)n1

> <Molecular_Weight>
201.65667

> <Frequency>
1

$$$$

  SciTegic          2D

 51 53  0  0  0  0            999 V2000
   -0.0893   -5.6402    0.0000 C   0  0
   -1.5757   -5.8417    0.0000 C   0  0
    0.4795   -4.2522    0.0000 C   0  0
   -2.4934   -4.6551    0.0000 C   0  0
   -0.4357   -3.0705    0.0000 C   0  0
   -1.9246   -3.2671    0.0000 C   0  0
    0.6453    1.6369    0.0000 C   0  0
    1.4168    0.3387    0.0000 C   0  0
    1.3688    2.9514    0.0000 C   0  0
    2.8965    0.3658    0.0000 C   0  0
    2.9156    2.9767    0.0000 C   0  0
    3.6567    1.7000    0.0000 C   0  0
    1.4332   -1.1562    0.0000 C   0  0
   -0.0089    0.7755    0.0000 O   0  0
   -0.8586   -0.4270    0.0000 C   0  0
    0.0186   -1.6401    0.0000 C   0  0
   -2.0586   -0.4335    0.0000 O   0  0
    2.6551   -2.0234    0.0000 O   0  0
    4.0197   -1.3987    0.0000 C   0  0
    4.1135   -0.4031    0.0000 O   0  0
    5.2436   -2.2673    0.0000 C   0  0
    0.6449   -6.5894    0.0000 Cl  0  0
   -3.6825   -4.8163    0.0000 Cl  0  0
    5.3842   -0.7438    0.0000 C   0  0
    6.6082   -1.6425    0.0000 C   0  0
    5.1028   -3.7614    0.0000 C   0  0
    7.8321   -2.5111    0.0000 C   0  0
   -1.9548   -6.7670    0.0000 H   0  0
    1.4704   -4.1176    0.0000 H   0  0
   -2.5351   -2.4751    0.0000 H   0  0
    1.6445    1.6774    0.0000 H   0  0
    0.1517    2.5065    0.0000 H   0  0
    1.8731    3.8149    0.0000 H   0  0
    0.3696    2.9097    0.0000 H   0  0
    2.3860   -0.4941    0.0000 H   0  0
    3.8959    0.4018    0.0000 H   0  0
    3.9155    2.9630    0.0000 H   0  0
    2.3880    3.8262    0.0000 H   0  0
    2.6571    1.6722    0.0000 H   0  0
    4.1396    0.8243    0.0000 H   0  0
    4.5682   -0.1658    0.0000 H   0  0
    5.4766    0.2519    0.0000 H   0  0
    6.2927   -0.3258    0.0000 H   0  0
    6.7020   -0.6469    0.0000 H   0  0
    6.5143   -2.6381    0.0000 H   0  0
    5.9178   -4.3409    0.0000 H   0  0
    4.1936   -4.1777    0.0000 H   0  0
    5.0086   -4.7569    0.0000 H   0  0
    8.7413   -2.0948    0.0000 H   0  0
    7.7383   -3.5067    0.0000 H   0  0
    8.6473   -3.0903    0.0000 H   0  0
  1  2  1  0
  1  3  2  0
  1 22  1  0
  2  4  2  0
  3  5  1  0
  4  6  1  0
  4 23  1  0
  5  6  2  0
  5 16  1  0
  7  8  1  0
  7  9  1  0
  8 10  1  0
  8 13  1  0
  8 14  1  0
  9 11  1  0
 10 12  1  0
 11 12  1  0
 13 16  2  0
 13 18  1  0
 14 15  1  0
 15 16  1  0
 15 17  2  0
 18 19  1  0
 19 20  2  0
 19 21  1  0
 21 24  1  0
 21 25  1  0
 21 26  1  0
 25 27  1  0
  2 28  1  0
  3 29  1  0
  6 30  1  0
  7 31  1  0
  7 32  1  0
  9 33  1  0
  9 34  1  0
 10 35  1  0
 10 36  1  0
 11 37  1  0
 11 38  1  0
 12 39  1  0
 12 40  1  0
 24 41  1  0
 24 42  1  0
 24 43  1  0
 25 44  1  0
 25 45  1  0
 26 46  1  0
 26 47  1  0
 26 48  1  0
 27 49  1  0
 27 50  1  0
 27 51  1  0
M  END
> <DSSTox_RID>
40596

> <DSSTox_CID>
14928

> <DSSTox_Generic_SID>
34928

> <DSSTox_FileID>
280_TOXCST_v3a

> <STRUCTURE_Formula>
C21H24Cl2O4

> <STRUCTURE_MolecularWeight>
411.3189

> <STRUCTURE_ChemicalType>
defined organic

> <STRUCTURE_TestedForm_DefinedOrganic>
parent

> <STRUCTURE_Shown>
tested chemical

> <TestSubstance_ChemicalName>
Spirodiclofen

> <Source_ChemicalName>
Spirodiclofen

> <TestSubstance_CASRN>
148477-71-8

> <TestSubstance_Description>
single chemical compound

> <STRUCTURE_ChemicalName_IUPAC>
3-(3,5-dichlorophenyl)-2-oxo-1-oxaspiro[4.5]dec-3-en-4-yl 2,2-dimethylbutanoate

> <STRUCTURE_SMILES>
O=C2OC1(C(OC(C(CC)(C)C)=O)=C2C3=CC(Cl)=CC(Cl)=C3)CCCCC1

> <STRUCTURE_Parent_SMILES>
O=C2OC1(C(OC(C(CC)(C)C)=O)=C2C3=CC(Cl)=CC(Cl)=C3)CCCCC1

> <STRUCTURE_InChI>
InChI=1S/C21H24Cl2O4/c1-4-20(2,3)19(25)26-17-16(13-10-14(22)12-15(23)11-13)18(24)27-21(17)8-6-5-7-9-21/h10-12H,4-9H2,1-3H3

> <STRUCTURE_InChIKey>
OYNVHVAEOLJJPV-UHFFFAOYSA-N

> <Substance_modify_yyyymmdd>
20080429

> <DSSTox_CID_Parent>
14928

> <ChemicalReplicateCount>
1

> <Coord_Metals>
0

> <Index>
280

> <Canonical_Smiles>
CCC(C)(C)C(=O)OC1=C(C(=O)OC12CCCCC2)c3cc(Cl)cc(Cl)c3

> <Molecular_Weight>
411.31886

> <Frequency>
1

$$$$

  SciTegic          2D

 56 57  0  0  0  0            999 V2000
   -1.8930   -3.3688    0.0000 N   0  0
   -1.4391   -1.9383    0.0000 C   0  0
   -0.8574   -0.4287    0.0000 O   0  0
    0.0186   -1.6401    0.0000 C   0  0
    1.4351   -1.1556    0.0000 C   0  0
    1.4351    0.3168    0.0000 O   0  0
    0.0186    0.7828    0.0000 C   0  0
    1.3979    1.3979    0.0000 C   0  0
    1.5656    2.8889    0.0000 C   0  0
    0.3168    3.8022    0.0000 C   0  0
   -1.0251    3.1871    0.0000 C   0  0
   -1.1742    1.6588    0.0000 C   0  0
    1.6816    4.3771    0.0000 C   0  0
    1.9049    5.8612    0.0000 C   0  0
    2.8555    3.4421    0.0000 C   0  0
    0.4866    5.3326    0.0000 C   0  0
   -0.8831   -4.4790    0.0000 C   0  0
   -1.3386   -5.9090    0.0000 C   0  0
   -3.3587   -3.6919    0.0000 C   0  0
   -3.8126   -5.1224    0.0000 C   0  0
   -5.2783   -5.4455    0.0000 C   0  0
   -2.4158   -2.1531    0.0000 H   0  0
   -2.1136   -1.2000    0.0000 H   0  0
    0.7030   -2.3693    0.0000 H   0  0
    1.3228   -2.1492    0.0000 H   0  0
    2.3390   -0.7277    0.0000 H   0  0
    0.6052    2.0075    0.0000 H   0  0
    2.3029    1.8232    0.0000 H   0  0
    1.6520    3.8852    0.0000 H   0  0
    2.3575    2.2783    0.0000 H   0  0
   -0.5082    4.3672    0.0000 H   0  0
   -1.9248    2.7505    0.0000 H   0  0
   -0.2247    2.5877    0.0000 H   0  0
   -1.2535    0.6619    0.0000 H   0  0
   -1.9696    2.2649    0.0000 H   0  0
    2.8354    6.2274    0.0000 H   0  0
    2.0532    6.8502    0.0000 H   0  0
    1.1227    6.4843    0.0000 H   0  0
    3.7864    3.8074    0.0000 H   0  0
    3.6374    2.8187    0.0000 H   0  0
    2.7067    2.4532    0.0000 H   0  0
    0.6364    6.3213    0.0000 H   0  0
   -0.2947    5.9567    0.0000 H   0  0
   -0.4446    4.9681    0.0000 H   0  0
    0.0939   -4.2657    0.0000 H   0  0
   -0.5791   -3.5263    0.0000 H   0  0
   -0.6656   -6.6487    0.0000 H   0  0
   -2.3156   -6.1223    0.0000 H   0  0
   -1.6426   -6.8617    0.0000 H   0  0
   -4.0332   -2.9536    0.0000 H   0  0
   -3.0567   -2.7386    0.0000 H   0  0
   -3.1382   -5.8607    0.0000 H   0  0
   -2.8360   -4.9076    0.0000 H   0  0
   -5.5807   -6.3987    0.0000 H   0  0
   -5.9527   -4.7072    0.0000 H   0  0
   -6.2549   -5.6603    0.0000 H   0  0
  1  2  1  0
  1 17  1  0
  1 19  1  0
  2  4  1  0
  3  4  1  0
  3  7  1  0
  4  5  1  0
  5  6  1  0
  6  7  1  0
  7  8  1  0
  7 12  1  0
  8  9  1  0
  9 10  1  0
 10 11  1  0
 10 13  1  0
 11 12  1  0
 13 14  1  0
 13 15  1  0
 13 16  1  0
 17 18  1  0
 19 20  1  0
 20 21  1  0
  2 22  1  0
  2 23  1  0
  4 24  1  0
  5 25  1  0
  5 26  1  0
  8 27  1  0
  8 28  1  0
  9 29  1  0
  9 30  1  0
 10 31  1  0
 11 32  1  0
 11 33  1  0
 12 34  1  0
 12 35  1  0
 14 36  1  0
 14 37  1  0
 14 38  1  0
 15 39  1  0
 15 40  1  0
 15 41  1  0
 16 42  1  0
 16 43  1  0
 16 44  1  0
 17 45  1  0
 17 46  1  0
 18 47  1  0
 18 48  1  0
 18 49  1  0
 19 50  1  0
 19 51  1  0
 20 52  1  0
 20 53  1  0
 21 54  1  0
 21 55  1  0
 21 56  1  0
M  END
> <DSSTox_RID>
40301

> <DSSTox_CID>
14212

> <DSSTox_Generic_SID>
34212

> <DSSTox_FileID>
281_TOXCST_v3a

> <STRUCTURE_Formula>
C18H35NO2

> <STRUCTURE_MolecularWeight>
297.476

> <STRUCTURE_ChemicalType>
defined organic

> <STRUCTURE_TestedForm_DefinedOrganic>
parent

> <STRUCTURE_Shown>
tested chemical

> <TestSubstance_ChemicalName>
Spiroxamine

> <Source_ChemicalName>
Spiroxamine

> <TestSubstance_CASRN>
118134-30-8

> <TestSubstance_Description>
single chemical compound

> <STRUCTURE_ChemicalName_IUPAC>
N-[(8-tert-butyl-1,4-dioxaspiro[4.5]dec-2-yl)methyl]-N-ethylpropan-1-amine

> <STRUCTURE_SMILES>
CC(C)(C)C(CC2)CCC12OC(CO1)CN(CCC)CC

> <STRUCTURE_Parent_SMILES>
CC(C)(C)C(CC2)CCC12OC(CO1)CN(CCC)CC

> <STRUCTURE_InChI>
InChI=1S/C18H35NO2/c1-6-12-19(7-2)13-16-14-20-18(21-16)10-8-15(9-11-18)17(3,4)5/h15-16H,6-14H2,1-5H3

> <STRUCTURE_InChIKey>
PUYXTUJWRLOUCW-UHFFFAOYSA-N

> <Substance_modify_yyyymmdd>
20080429

> <DSSTox_CID_Parent>
14212

> <ChemicalReplicateCount>
1

> <Coord_Metals>
0

> <Index>
281

> <Canonical_Smiles>
CCCN(CC)CC1COC2(CCC(CC2)C(C)(C)C)O1

> <Molecular_Weight>
297.476

> <Frequency>
1

$$$$

  SciTegic          2D

 33 34  0  0  0  0            999 V2000
    3.8933   -3.7570    0.0000 C   0  0
    2.5951   -3.0039    0.0000 S   0  0
    1.5548   -3.6021    0.0000 O   0  0
    1.5568   -2.4023    0.0000 O   0  0
    2.5973   -1.5031    0.0000 N   0  0
    1.2990   -0.7500    0.0000 C   0  0
    1.2990    0.7500    0.0000 C   0  0
    0.0000   -1.5000    0.0000 C   0  0
    0.0000    1.5000    0.0000 C   0  0
   -1.2990   -0.7500    0.0000 C   0  0
   -1.2990    0.7500    0.0000 C   0  0
    2.3383    1.3500    0.0000 Cl  0  0
   -2.3383    1.3500    0.0000 Cl  0  0
   -2.5987   -1.5004    0.0000 N   0  0
   -2.7343   -2.9815    0.0000 N   0  0
   -4.2010   -3.2957    0.0000 C   0  0
   -4.9530   -1.9978    0.0000 N   0  0
   -3.9511   -0.8815    0.0000 C   0  0
   -6.4433   -1.8436    0.0000 C   0  0
   -7.1477   -2.8151    0.0000 F   0  0
   -6.9328   -0.7479    0.0000 F   0  0
   -4.8082   -4.6653    0.0000 C   0  0
   -4.1955    0.2933    0.0000 O   0  0
    3.8919   -4.7570    0.0000 H   0  0
    4.7602   -3.2585    0.0000 H   0  0
    4.7586   -4.2584    0.0000 H   0  0
    3.4642   -1.0046    0.0000 H   0  0
    0.0000   -2.5000    0.0000 H   0  0
    0.0000    2.5000    0.0000 H   0  0
   -7.4380   -1.7402    0.0000 H   0  0
   -4.2196   -5.4738    0.0000 H   0  0
   -5.8026   -4.7711    0.0000 H   0  0
   -5.2139   -5.5793    0.0000 H   0  0
  1  2  1  0
  2  3  2  0
  2  5  1  0
  2  4  2  0
  5  6  1  0
  6  7  2  0
  6  8  1  0
  7  9  1  0
  7 12  1  0
  8 10  2  0
  9 11  2  0
 10 11  1  0
 10 14  1  0
 11 13  1  0
 14 15  1  0
 14 18  1  0
 15 16  2  0
 16 17  1  0
 16 22  1  0
 17 18  1  0
 17 19  1  0
 18 23  2  0
 19 20  1  0
 19 21  1  0
  1 24  1  0
  1 25  1  0
  1 26  1  0
  5 27  1  0
  8 28  1  0
  9 29  1  0
 19 30  1  0
 22 31  1  0
 22 32  1  0
 22 33  1  0
M  END
> <DSSTox_RID>
40598

> <DSSTox_CID>
12645

> <DSSTox_Generic_SID>
32645

> <DSSTox_FileID>
282_TOXCST_v3a

> <STRUCTURE_Formula>
C11H10Cl2F2N4O3S

> <STRUCTURE_MolecularWeight>
387.1899

> <STRUCTURE_ChemicalType>
defined organic

> <STRUCTURE_TestedForm_DefinedOrganic>
parent

> <STRUCTURE_Shown>
tested chemical

> <TestSubstance_ChemicalName>
Sulfentrazone

> <Source_ChemicalName>
Sulfentrazone

> <TestSubstance_CASRN>
122836-35-5

> <TestSubstance_Description>
single chemical compound

> <STRUCTURE_ChemicalName_IUPAC>
N-{2,4-dichloro-5-[4-(difluoromethyl)-3-methyl-5-oxo-4,5-dihydro-1H-1,2,4-triazol-1-yl]phenyl}methanesulfonamide

> <STRUCTURE_SMILES>
O=S(NC1=C(Cl)C=C(Cl)C(N2N=C(C)N(C(F)F)C2=O)=C1)(C)=O

> <STRUCTURE_Parent_SMILES>
O=S(NC1=C(Cl)C=C(Cl)C(N2N=C(C)N(C(F)F)C2=O)=C1)(C)=O

> <STRUCTURE_InChI>
InChI=1S/C11H10Cl2F2N4O3S/c1-5-16-19(11(20)18(5)10(14)15)9-4-8(17-23(2,21)22)6(12)3-7(9)13/h3-4,10,17H,1-2H3

> <STRUCTURE_InChIKey>
OORLZFUTLGXMEF-UHFFFAOYSA-N

> <Substance_modify_yyyymmdd>
20080429

> <DSSTox_CID_Parent>
12645

> <ChemicalReplicateCount>
1

> <Coord_Metals>
0

> <Index>
282

> <Canonical_Smiles>
CC1=NN(C(=O)N1C(F)F)c2cc(NS(=O)(=O)C)c(Cl)cc2Cl

> <Molecular_Weight>
387.1899

> <Frequency>
1

$$$$

  SciTegic          2D

 12 12  0  0  0  0            999 V2000
    1.2990   -0.7500    0.0000 N   0  0
    1.2990    0.7500    0.0000 C   0  0
    0.0000    1.5000    0.0000 N   0  0
   -1.2990    0.7500    0.0000 C   0  0
   -1.2990   -0.7500    0.0000 N   0  0
    0.0000   -1.5000    0.0000 C   0  0
    2.3383    1.3500    0.0000 O   0  0
   -2.3383    1.3500    0.0000 O   0  0
    0.0000   -2.7000    0.0000 O   0  0
    2.3383   -1.3500    0.0000 Cl  0  0
    0.0000    2.7000    0.0000 Cl  0  0
   -2.3383   -1.3500    0.0000 Cl  0  0
  1  2  1  0
  1  6  1  0
  1 10  1  0
  2  3  1  0
  2  7  2  0
  3  4  1  0
  3 11  1  0
  4  5  1  0
  4  8  2  0
  5  6  1  0
  5 12  1  0
  6  9  2  0
M  END
> <DSSTox_RID>
40622

> <DSSTox_CID>
6523

> <DSSTox_Generic_SID>
26523

> <DSSTox_FileID>
283_TOXCST_v3a

> <STRUCTURE_Formula>
C3Cl3N3O3

> <STRUCTURE_MolecularWeight>
232.4094

> <STRUCTURE_ChemicalType>
defined organic

> <STRUCTURE_TestedForm_DefinedOrganic>
parent

> <STRUCTURE_Shown>
tested chemical

> <TestSubstance_ChemicalName>
Symclosene

> <Source_ChemicalName>
Symclosene

> <TestSubstance_CASRN>
87-90-1

> <TestSubstance_Description>
single chemical compound

> <STRUCTURE_ChemicalName_IUPAC>
1,3,5-trichloro-1,3,5-triazinane-2,4,6-trione

> <STRUCTURE_SMILES>
O=C(N(Cl)C(N1Cl)=O)N(Cl)C1=O

> <STRUCTURE_Parent_SMILES>
O=C(N(Cl)C(N1Cl)=O)N(Cl)C1=O

> <STRUCTURE_InChI>
InChI=1S/C3Cl3N3O3/c4-7-1(10)8(5)3(12)9(6)2(7)11

> <STRUCTURE_InChIKey>
YRIZYWQGELRKNT-UHFFFAOYSA-N

> <Substance_modify_yyyymmdd>
20080429

> <DSSTox_CID_Parent>
6523

> <ChemicalReplicateCount>
1

> <Coord_Metals>
0

> <Index>
283

> <Canonical_Smiles>
ClN1C(=O)N(Cl)C(=O)N(Cl)C1=O

> <Molecular_Weight>
232.4094

> <Frequency>
1

$$$$

  SciTegic          2D

 20 21  0  0  0  0            999 V2000
    6.3215    1.3677    0.0000 S   0  0
    7.0552    2.6770    0.0000 C   0  0
    7.6418    3.7238    0.0000 N   0  0
    4.8208    1.3475    0.0000 C   0  0
    4.0872    0.0382    0.0000 S   0  0
    1.7138   -1.2033    0.0000 N   0  0
    1.7138    1.2033    0.0000 S   0  0
    2.5889    0.0182    0.0000 C   0  0
    0.2917   -0.7475    0.0000 C   0  0
    0.2917    0.7475    0.0000 C   0  0
   -1.0028    1.5132    0.0000 C   0  0
   -2.3155    0.7475    0.0000 C   0  0
   -2.3155   -0.7475    0.0000 C   0  0
   -1.0028   -1.5132    0.0000 C   0  0
    4.3095    2.2069    0.0000 H   0  0
    5.3093    2.2201    0.0000 H   0  0
   -0.9997    2.5132    0.0000 H   0  0
   -3.1826    1.2456    0.0000 H   0  0
   -3.1826   -1.2456    0.0000 H   0  0
   -0.9997   -2.5132    0.0000 H   0  0
  1  2  1  0
  1  4  1  0
  2  3  3  0
  4  5  1  0
  5  8  1  0
  6  8  2  0
  6  9  1  0
  7  8  1  0
  7 10  1  0
  9 10  1  0
  9 14  2  0
 10 11  2  0
 11 12  1  0
 12 13  2  0
 13 14  1  0
  4 15  1  0
  4 16  1  0
 11 17  1  0
 12 18  1  0
 13 19  1  0
 14 20  1  0
M  END
> <DSSTox_RID>
40306

> <DSSTox_CID>
12647

> <DSSTox_Generic_SID>
32647

> <DSSTox_FileID>
284_TOXCST_v3a

> <STRUCTURE_Formula>
C9H6N2S3

> <STRUCTURE_MolecularWeight>
238.3523

> <STRUCTURE_ChemicalType>
defined organic

> <STRUCTURE_TestedForm_DefinedOrganic>
parent

> <STRUCTURE_Shown>
tested chemical

> <TestSubstance_ChemicalName>
2-(Thiocyanomethylthio)benzothiazole

> <Source_ChemicalName>
TCMTB

> <TestSubstance_CASRN>
21564-17-0

> <TestSubstance_Description>
single chemical compound

> <STRUCTURE_ChemicalName_IUPAC>
(1,3-benzothiazol-2-ylthio)methyl thiocyanate

> <STRUCTURE_SMILES>
N#CSCSC2=NC1=CC=CC=C1S2

> <STRUCTURE_Parent_SMILES>
N#CSCSC2=NC1=CC=CC=C1S2

> <STRUCTURE_InChI>
InChI=1S/C9H6N2S3/c10-5-12-6-13-9-11-7-3-1-2-4-8(7)14-9/h1-4H,6H2

> <STRUCTURE_InChIKey>
TUBQDCKAWGHZPF-UHFFFAOYSA-N

> <Substance_modify_yyyymmdd>
20080429

> <DSSTox_CID_Parent>
12647

> <ChemicalReplicateCount>
1

> <Coord_Metals>
0

> <Index>
284

> <Canonical_Smiles>
N#CSCSc1nc2ccccc2s1

> <Molecular_Weight>
238.35233

> <Frequency>
1

$$$$

  SciTegic          2D

 54 55  0  0  0  0            999 V2000
    2.0528   -0.5215    0.0000 C   0  0
    0.8717   -0.3096    0.0000 O   0  0
    2.5615   -1.9335    0.0000 C   0  0
    3.8565   -2.6905    0.0000 C   0  0
    1.2584   -2.6765    0.0000 C   0  0
    3.8484   -4.1905    0.0000 C   0  0
    1.2504   -4.1765    0.0000 C   0  0
    2.5453   -4.9335    0.0000 C   0  0
    5.1441   -4.9479    0.0000 C   0  0
   -0.0534   -4.9199    0.0000 C   0  0
    3.0206    0.6256    0.0000 N   0  0
    4.3189   -0.1275    0.0000 N   0  0
    3.0242    2.1263    0.0000 C   0  0
    1.7270    2.8813    0.0000 C   0  0
    4.3270    2.8716    0.0000 C   0  0
    1.6974    1.3646    0.0000 C   0  0
    5.6206    0.6194    0.0000 C   0  0
    5.6235    1.8194    0.0000 O   0  0
    6.9188   -0.1337    0.0000 C   0  0
    7.8878    1.0114    0.0000 C   0  0
    7.4262   -1.5453    0.0000 C   0  0
    9.3639    0.7449    0.0000 C   0  0
    8.9023   -1.8118    0.0000 C   0  0
    9.8712   -0.6667    0.0000 C   0  0
   11.3481   -0.9334    0.0000 C   0  0
   12.3183    0.2118    0.0000 C   0  0
    4.7252   -2.1952    0.0000 H   0  0
    0.3951   -2.1719    0.0000 H   0  0
    2.5400   -5.9335    0.0000 H   0  0
    6.0131   -4.4531    0.0000 H   0  0
    5.1384   -5.9479    0.0000 H   0  0
    6.0072   -5.4530    0.0000 H   0  0
   -0.9171   -4.4158    0.0000 H   0  0
   -0.0585   -5.9199    0.0000 H   0  0
   -0.9219   -5.4157    0.0000 H   0  0
    4.3165   -1.1275    0.0000 H   0  0
    0.8590    2.3848    0.0000 H   0  0
    0.8629    3.3847    0.0000 H   0  0
    1.7308    3.8813    0.0000 H   0  0
    5.1913    2.3686    0.0000 H   0  0
    5.1948    3.3685    0.0000 H   0  0
    4.3307    3.8716    0.0000 H   0  0
    1.6944    0.3646    0.0000 H   0  0
    0.8299    0.8670    0.0000 H   0  0
    0.8327    1.8669    0.0000 H   0  0
    7.5496    1.9525    0.0000 H   0  0
    6.7803   -2.3087    0.0000 H   0  0
   10.0098    1.5083    0.0000 H   0  0
    9.2405   -2.7529    0.0000 H   0  0
   11.6860   -1.8746    0.0000 H   0  0
   10.7021   -1.6967    0.0000 H   0  0
   13.3023    0.0341    0.0000 H   0  0
   11.9804    1.1530    0.0000 H   0  0
   12.9643    0.9751    0.0000 H   0  0
  1  2  2  0
  1  3  1  0
  1 11  1  0
  3  4  2  0
  3  5  1  0
  4  6  1  0
  5  7  2  0
  6  8  2  0
  6  9  1  0
  7  8  1  0
  7 10  1  0
 11 12  1  0
 11 13  1  0
 12 17  1  0
 13 14  1  0
 13 15  1  0
 13 16  1  0
 17 18  2  0
 17 19  1  0
 19 20  2  0
 19 21  1  0
 20 22  1  0
 21 23  2  0
 22 24  2  0
 23 24  1  0
 24 25  1  0
 25 26  1  0
  4 27  1  0
  5 28  1  0
  8 29  1  0
  9 30  1  0
  9 31  1  0
  9 32  1  0
 10 33  1  0
 10 34  1  0
 10 35  1  0
 12 36  1  0
 14 37  1  0
 14 38  1  0
 14 39  1  0
 15 40  1  0
 15 41  1  0
 15 42  1  0
 16 43  1  0
 16 44  1  0
 16 45  1  0
 20 46  1  0
 21 47  1  0
 22 48  1  0
 23 49  1  0
 25 50  1  0
 25 51  1  0
 26 52  1  0
 26 53  1  0
 26 54  1  0
M  END
> <DSSTox_RID>
40600

> <DSSTox_CID>
14948

> <DSSTox_Generic_SID>
34948

> <DSSTox_FileID>
285_TOXCST_v3a

> <STRUCTURE_Formula>
C22H28N2O2

> <STRUCTURE_MolecularWeight>
352.4699

> <STRUCTURE_ChemicalType>
defined organic

> <STRUCTURE_TestedForm_DefinedOrganic>
parent

> <STRUCTURE_Shown>
tested chemical

> <TestSubstance_ChemicalName>
Tebufenozide

> <Source_ChemicalName>
Tebufenozide

> <TestSubstance_CASRN>
112410-23-8

> <TestSubstance_Description>
single chemical compound

> <STRUCTURE_ChemicalName_IUPAC>
N-tert-butyl-N'-(4-ethylbenzoyl)-3,5-dimethylbenzohydrazide

> <STRUCTURE_SMILES>
O=C(N(C(C)(C)C)NC(C2=CC=C(CC)C=C2)=O)C1=CC(C)=CC(C)=C1

> <STRUCTURE_Parent_SMILES>
O=C(N(C(C)(C)C)NC(C2=CC=C(CC)C=C2)=O)C1=CC(C)=CC(C)=C1

> <STRUCTURE_InChI>
InChI=1S/C22H28N2O2/c1-7-17-8-10-18(11-9-17)20(25)23-24(22(4,5)6)21(26)19-13-15(2)12-16(3)14-19/h8-14H,7H2,1-6H3,(H,23,25)

> <STRUCTURE_InChIKey>
QYPNKSZPJQQLRK-UHFFFAOYSA-N

> <Substance_modify_yyyymmdd>
20080429

> <DSSTox_CID_Parent>
14948

> <ChemicalReplicateCount>
1

> <Coord_Metals>
0

> <Index>
285

> <Canonical_Smiles>
CCc1ccc(cc1)C(=O)NN(C(=O)c2cc(C)cc(C)c2)C(C)(C)C

> <Molecular_Weight>
352.46992

> <Frequency>
1

$$$$

  SciTegic          2D

 47 48  0  0  0  0            999 V2000
    8.8534   -0.2546    0.0000 N   0  0
    7.8513   -1.3707    0.0000 N   0  0
    6.6348    0.7294    0.0000 C   0  0
    6.4990   -0.7516    0.0000 C   0  0
    8.1015    1.0434    0.0000 C   0  0
    5.1988   -1.5012    0.0000 C   0  0
    5.1984   -2.7012    0.0000 O   0  0
    3.8990   -0.7508    0.0000 N   0  0
    5.7371    1.5258    0.0000 Cl  0  0
    2.5988   -1.5004    0.0000 C   0  0
    1.2990   -0.7500    0.0000 C   0  0
    1.2990    0.7500    0.0000 C   0  0
    0.0000   -1.5000    0.0000 C   0  0
    0.0000    1.5000    0.0000 C   0  0
   -1.2990   -0.7500    0.0000 C   0  0
   -1.2990    0.7500    0.0000 C   0  0
   -2.7771    1.0106    0.0000 C   0  0
   -3.2913    2.4206    0.0000 C   0  0
   -3.7414   -0.1393    0.0000 C   0  0
   -1.7918    2.1811    0.0000 C   0  0
    8.7090    2.4130    0.0000 C   0  0
   10.2013    2.5729    0.0000 C   0  0
    8.1536   -2.8381    0.0000 C   0  0
    3.8993    0.2492    0.0000 H   0  0
    2.5985   -2.5004    0.0000 H   0  0
    3.4646   -2.0008    0.0000 H   0  0
    2.1651    1.2500    0.0000 H   0  0
    0.0000   -2.5000    0.0000 H   0  0
    0.0000    2.5000    0.0000 H   0  0
   -2.1651   -1.2500    0.0000 H   0  0
   -4.2761    2.5942    0.0000 H   0  0
   -2.6487    3.1868    0.0000 H   0  0
   -3.6335    3.3602    0.0000 H   0  0
   -4.7263    0.0334    0.0000 H   0  0
   -3.3987   -1.0788    0.0000 H   0  0
   -4.3835   -0.9059    0.0000 H   0  0
   -0.8072    2.0065    0.0000 H   0  0
   -1.1482    2.9464    0.0000 H   0  0
   -2.1327    3.1212    0.0000 H   0  0
    8.1198    3.2210    0.0000 H   0  0
    7.7146    2.3069    0.0000 H   0  0
   10.6067    3.4870    0.0000 H   0  0
   10.7904    1.7649    0.0000 H   0  0
   11.1956    2.6790    0.0000 H   0  0
    9.1025   -3.1537    0.0000 H   0  0
    7.4060   -3.5023    0.0000 H   0  0
    8.3549   -3.8176    0.0000 H   0  0
  1  2  1  0
  1  5  2  0
  2  4  1  0
  2 23  1  0
  3  4  2  0
  3  5  1  0
  3  9  1  0
  4  6  1  0
  5 21  1  0
  6  7  2  0
  6  8  1  0
  8 10  1  0
 10 11  1  0
 11 12  2  0
 11 13  1  0
 12 14  1  0
 13 15  2  0
 14 16  2  0
 15 16  1  0
 16 17  1  0
 17 18  1  0
 17 19  1  0
 17 20  1  0
 21 22  1  0
  8 24  1  0
 10 25  1  0
 10 26  1  0
 12 27  1  0
 13 28  1  0
 14 29  1  0
 15 30  1  0
 18 31  1  0
 18 32  1  0
 18 33  1  0
 19 34  1  0
 19 35  1  0
 19 36  1  0
 20 37  1  0
 20 38  1  0
 20 39  1  0
 21 40  1  0
 21 41  1  0
 22 42  1  0
 22 43  1  0
 22 44  1  0
 23 45  1  0
 23 46  1  0
 23 47  1  0
M  END
> <DSSTox_RID>
40303

> <DSSTox_CID>
14223

> <DSSTox_Generic_SID>
34223

> <DSSTox_FileID>
286_TOXCST_v3a

> <STRUCTURE_Formula>
C18H24ClN3O

> <STRUCTURE_MolecularWeight>
333.8557

> <STRUCTURE_ChemicalType>
defined organic

> <STRUCTURE_TestedForm_DefinedOrganic>
parent

> <STRUCTURE_Shown>
tested chemical

> <TestSubstance_ChemicalName>
Tebufenpyrad

> <Source_ChemicalName>
Tebufenpyrad

> <TestSubstance_CASRN>
119168-77-3

> <TestSubstance_Description>
single chemical compound

> <STRUCTURE_ChemicalName_IUPAC>
N-(4-tert-butylbenzyl)-4-chloro-3-ethyl-1-methyl-1H-pyrazole-5-carboxamide

> <STRUCTURE_SMILES>
O=C(NCC2=CC=C(C(C)(C)C)C=C2)C1=C(Cl)C(CC)=NN1C

> <STRUCTURE_Parent_SMILES>
O=C(NCC2=CC=C(C(C)(C)C)C=C2)C1=C(Cl)C(CC)=NN1C

> <STRUCTURE_InChI>
InChI=1S/C18H24ClN3O/c1-6-14-15(19)16(22(5)21-14)17(23)20-11-12-7-9-13(10-8-12)18(2,3)4/h7-10H,6,11H2,1-5H3,(H,20,23)

> <STRUCTURE_InChIKey>
ZZYSLNWGKKDOML-UHFFFAOYSA-N

> <Substance_modify_yyyymmdd>
20080429

> <DSSTox_CID_Parent>
14223

> <ChemicalReplicateCount>
1

> <Coord_Metals>
0

> <Index>
286

> <Canonical_Smiles>
CCc1nn(C)c(C(=O)NCc2ccc(cc2)C(C)(C)C)c1Cl

> <Molecular_Weight>
333.85566

> <Frequency>
1

$$$$

  SciTegic          2D

 43 43  0  0  0  0            999 V2000
    2.5951   -3.0039    0.0000 P   0  0
    2.5903   -4.5339    0.0000 O   0  0
    2.5973   -1.5031    0.0000 O   0  0
    3.8933   -3.7570    0.0000 O   0  0
    1.2990   -0.7500    0.0000 C   0  0
    1.5548   -3.6021    0.0000 S   0  0
    0.0000   -1.5000    0.0000 C   0  0
   -1.2990   -0.7500    0.0000 N   0  0
   -1.2990    0.7500    0.0000 C   0  0
    0.0000    1.5000    0.0000 N   0  0
    1.2990    0.7500    0.0000 C   0  0
   -2.2638    1.8997    0.0000 C   0  0
    5.1951   -3.0101    0.0000 C   0  0
    1.2886   -5.2810    0.0000 C   0  0
    6.4933   -3.7632    0.0000 C   0  0
    5.1987   -1.5093    0.0000 C   0  0
    1.2838   -6.7818    0.0000 C   0  0
   -3.7419    1.6400    0.0000 C   0  0
   -1.7500    3.3098    0.0000 C   0  0
   -2.7848    0.4612    0.0000 C   0  0
    0.0000   -2.5000    0.0000 H   0  0
    2.1651    1.2500    0.0000 H   0  0
    5.1927   -4.0101    0.0000 H   0  0
    0.4240   -4.7785    0.0000 H   0  0
    1.2913   -4.2810    0.0000 H   0  0
    7.3607   -3.2655    0.0000 H   0  0
    6.4909   -4.7632    0.0000 H   0  0
    7.3581   -4.2654    0.0000 H   0  0
    4.3341   -1.0067    0.0000 H   0  0
    6.0660   -1.0117    0.0000 H   0  0
    5.2015   -0.5093    0.0000 H   0  0
    0.4165   -7.2796    0.0000 H   0  0
    2.1484   -7.2843    0.0000 H   0  0
    1.2811   -7.7818    0.0000 H   0  0
   -4.3847    2.4060    0.0000 H   0  0
   -4.0843    0.7004    0.0000 H   0  0
   -4.7268    1.4665    0.0000 H   0  0
   -2.3921    4.0764    0.0000 H   0  0
   -0.7651    3.4828    0.0000 H   0  0
   -1.4073    4.2492    0.0000 H   0  0
   -2.1413   -0.3042    0.0000 H   0  0
   -3.1258   -0.4789    0.0000 H   0  0
   -3.7694    0.2863    0.0000 H   0  0
  1  4  1  0
  1  6  2  0
  1  2  1  0
  1  3  1  0
  2 14  1  0
  3  5  1  0
  4 13  1  0
  5 11  1  0
  5  7  2  0
  7  8  1  0
  8  9  2  0
  9 10  1  0
  9 12  1  0
 10 11  2  0
 12 18  1  0
 12 19  1  0
 12 20  1  0
 13 15  1  0
 13 16  1  0
 14 17  1  0
  7 21  1  0
 11 22  1  0
 13 23  1  0
 14 24  1  0
 14 25  1  0
 15 26  1  0
 15 27  1  0
 15 28  1  0
 16 29  1  0
 16 30  1  0
 16 31  1  0
 17 32  1  0
 17 33  1  0
 17 34  1  0
 18 35  1  0
 18 36  1  0
 18 37  1  0
 19 38  1  0
 19 39  1  0
 19 40  1  0
 20 41  1  0
 20 42  1  0
 20 43  1  0
M  END
> <DSSTox_RID>
40558

> <DSSTox_CID>
12482

> <DSSTox_Generic_SID>
32482

> <DSSTox_FileID>
287_TOXCST_v3a

> <STRUCTURE_Formula>
C13H23N2O3PS

> <STRUCTURE_MolecularWeight>
318.3721

> <STRUCTURE_ChemicalType>
defined organic

> <STRUCTURE_TestedForm_DefinedOrganic>
parent

> <STRUCTURE_Shown>
tested chemical

> <TestSubstance_ChemicalName>
Tebupirimfos

> <Source_ChemicalName>
Tebupirimfos

> <TestSubstance_CASRN>
96182-53-5

> <TestSubstance_Description>
single chemical compound

> <STRUCTURE_ChemicalName_IUPAC>
O-(2-tert-butylpyrimidin-5-yl) O-ethyl O-isopropyl thiophosphate

> <STRUCTURE_SMILES>
S=P(OCC)(OC1=CN=C(C(C)(C)C)N=C1)OC(C)C

> <STRUCTURE_Parent_SMILES>
S=P(OCC)(OC1=CN=C(C(C)(C)C)N=C1)OC(C)C

> <STRUCTURE_InChI>
InChI=1S/C13H23N2O3PS/c1-7-16-19(20,17-10(2)3)18-11-8-14-12(15-9-11)13(4,5)6/h8-10H,7H2,1-6H3

> <STRUCTURE_InChIKey>
AWYOMXWDGWUJHS-UHFFFAOYSA-N

> <Substance_modify_yyyymmdd>
20080429

> <DSSTox_CID_Parent>
12482

> <ChemicalReplicateCount>
1

> <Coord_Metals>
0

> <Index>
287

> <Canonical_Smiles>
CCOP(=S)(OC(C)C)Oc1cnc(nc1)C(C)(C)C

> <Molecular_Weight>
318.37208

> <Frequency>
1

$$$$

  SciTegic          2D

 31 31  0  0  0  0            999 V2000
    0.7500   -1.0323    0.0000 C   0  0
    1.2135    0.3943    0.0000 S   0  0
   -0.7500   -1.0323    0.0000 N   0  0
    0.0000    1.2760    0.0000 C   0  0
    1.6281   -2.2462    0.0000 N   0  0
   -1.2135    0.3943    0.0000 N   0  0
    1.0157   -3.6164    0.0000 C   0  0
    0.0000    2.7742    0.0000 C   0  0
   -0.1779   -3.7398    0.0000 O   0  0
    1.8954   -4.8324    0.0000 N   0  0
    3.1213   -2.0950    0.0000 C   0  0
    1.2993    3.5255    0.0000 C   0  0
   -1.2999    3.5242    0.0000 C   0  0
    1.3238    2.0072    0.0000 C   0  0
    1.2830   -6.2026    0.0000 C   0  0
    2.8901   -4.7297    0.0000 H   0  0
    3.7065   -2.9059    0.0000 H   0  0
    4.1162   -1.9938    0.0000 H   0  0
    3.5313   -1.1829    0.0000 H   0  0
    1.2993    4.5255    0.0000 H   0  0
    2.1654    3.0257    0.0000 H   0  0
    2.1652    4.0256    0.0000 H   0  0
   -1.3009    4.5242    0.0000 H   0  0
   -2.1656    3.0236    0.0000 H   0  0
   -2.1664    4.0235    0.0000 H   0  0
    1.3228    1.0072    0.0000 H   0  0
    2.1893    1.5062    0.0000 H   0  0
    2.1904    2.5061    0.0000 H   0  0
    1.8691   -7.0129    0.0000 H   0  0
    0.8745   -7.1154    0.0000 H   0  0
    0.2882   -6.3054    0.0000 H   0  0
  1  2  1  0
  1  3  2  0
  1  5  1  0
  2  4  1  0
  3  6  1  0
  4  8  1  0
  4  6  2  0
  5  7  1  0
  5 11  1  0
  7  9  2  0
  7 10  1  0
  8 12  1  0
  8 13  1  0
  8 14  1  0
 10 15  1  0
 10 16  1  0
 11 17  1  0
 11 18  1  0
 11 19  1  0
 12 20  1  0
 12 21  1  0
 12 22  1  0
 13 23  1  0
 13 24  1  0
 13 25  1  0
 14 26  1  0
 14 27  1  0
 14 28  1  0
 15 29  1  0
 15 30  1  0
 15 31  1  0
M  END
> <DSSTox_RID>
40601

> <DSSTox_CID>
4316

> <DSSTox_Generic_SID>
24316

> <DSSTox_FileID>
288_TOXCST_v3a

> <STRUCTURE_Formula>
C9H16N4OS

> <STRUCTURE_MolecularWeight>
228.3145

> <STRUCTURE_ChemicalType>
defined organic

> <STRUCTURE_TestedForm_DefinedOrganic>
parent

> <STRUCTURE_Shown>
tested chemical

> <TestSubstance_ChemicalName>
Tebuthiuron

> <Source_ChemicalName>
Tebuthiuron

> <TestSubstance_CASRN>
34014-18-1

> <TestSubstance_Description>
single chemical compound

> <STRUCTURE_ChemicalName_IUPAC>
N-(5-tert-butyl-1,3,4-thiadiazol-2-yl)-N,N'-dimethylurea

> <STRUCTURE_SMILES>
O=C(NC)N(C)c1nnc(s1)C(C)(C)C

> <STRUCTURE_Parent_SMILES>
O=C(NC)N(C)c1nnc(s1)C(C)(C)C

> <STRUCTURE_InChI>
InChI=1S/C9H16N4OS/c1-9(2,3)6-11-12-8(15-6)13(5)7(14)10-4/h1-5H3,(H,10,14)

> <STRUCTURE_InChIKey>
HBPDKDSFLXWOAE-UHFFFAOYSA-N

> <Substance_modify_yyyymmdd>
20080429

> <DSSTox_CID_Parent>
4316

> <ChemicalReplicateCount>
1

> <Coord_Metals>
0

> <Index>
288

> <Canonical_Smiles>
CNC(=O)N(C)c1nnc(s1)C(C)(C)C

> <Molecular_Weight>
228.31453

> <Frequency>
1

$$$$

  SciTegic          2D

 41 42  0  0  0  0            999 V2000
    6.4990   -0.7516    0.0000 C   0  0
    5.7495    0.4146    0.0000 C   0  0
    7.2495    0.4139    0.0000 C   0  0
    5.9848   -2.1616    0.0000 C   0  0
    4.8028   -2.3689    0.0000 O   0  0
    6.9481   -3.3125    0.0000 O   0  0
    8.2626    1.5357    0.0000 C   0  0
    9.7265    1.2046    0.0000 C   0  0
   10.7459    2.3061    0.0000 C   0  0
   10.0821    0.0585    0.0000 Cl  0  0
   11.9163    2.0413    0.0000 F   0  0
   11.5605    3.1872    0.0000 F   0  0
   10.3903    3.4522    0.0000 F   0  0
    4.4494   -0.3565    0.0000 C   0  0
    5.6956    1.9255    0.0000 C   0  0
    6.4338   -4.7225    0.0000 C   0  0
    7.3971   -5.8735    0.0000 C   0  0
    8.8746   -5.6149    0.0000 C   0  0
    6.8823   -7.2823    0.0000 C   0  0
    9.8374   -6.7651    0.0000 C   0  0
    7.8450   -8.4326    0.0000 C   0  0
    9.3226   -8.1740    0.0000 C   0  0
    9.2865   -4.4877    0.0000 F   0  0
   11.0194   -6.5583    0.0000 F   0  0
    7.4332   -9.5597    0.0000 F   0  0
    5.7003   -7.4892    0.0000 F   0  0
   10.2858   -9.3250    0.0000 C   0  0
    7.3649   -1.2519    0.0000 H   0  0
    8.1093   -0.0968    0.0000 H   0  0
    7.9663    2.4908    0.0000 H   0  0
    4.4726   -1.3562    0.0000 H   0  0
    3.5953   -0.8766    0.0000 H   0  0
    3.5719    0.1230    0.0000 H   0  0
    4.8183    2.4056    0.0000 H   0  0
    5.6725    2.9253    0.0000 H   0  0
    6.5498    2.4455    0.0000 H   0  0
    5.4489   -4.8952    0.0000 H   0  0
    5.7917   -3.9560    0.0000 H   0  0
   11.2709   -9.1532    0.0000 H   0  0
    9.9423  -10.2641    0.0000 H   0  0
   10.9273  -10.0921    0.0000 H   0  0
  1  2  1  0
  1  3  1  0
  1  4  1  0
  2  3  1  0
  2 14  1  0
  2 15  1  0
  7  3  1  0
  4  5  2  0
  4  6  1  0
  6 16  1  0
  7  8  2  0
  8  9  1  0
  8 10  1  0
  9 11  1  0
  9 12  1  0
  9 13  1  0
 16 17  1  0
 17 18  2  0
 17 19  1  0
 18 20  1  0
 18 23  1  0
 19 21  2  0
 19 26  1  0
 20 22  2  0
 20 24  1  0
 21 22  1  0
 21 25  1  0
 22 27  1  0
  1 28  1  0
  3 29  1  0
  7 30  1  0
 14 31  1  0
 14 32  1  0
 14 33  1  0
 15 34  1  0
 15 35  1  0
 15 36  1  0
 16 37  1  0
 16 38  1  0
 27 39  1  0
 27 40  1  0
 27 41  1  0
M  END
> <DSSTox_RID>
40602

> <DSSTox_CID>
12577

> <DSSTox_Generic_SID>
32577

> <DSSTox_FileID>
289_TOXCST_v3a

> <STRUCTURE_Formula>
C17H14ClF7O2

> <STRUCTURE_MolecularWeight>
418.7337

> <STRUCTURE_ChemicalType>
defined organic

> <STRUCTURE_TestedForm_DefinedOrganic>
parent

> <STRUCTURE_Shown>
tested chemical

> <TestSubstance_ChemicalName>
Tefluthrin

> <Source_ChemicalName>
Tefluthrin

> <TestSubstance_CASRN>
79538-32-2

> <TestSubstance_Description>
single chemical compound

> <ChemicalNote>
mixture of (R,S) isomers; structure shown without stereochem

> <STRUCTURE_ChemicalName_IUPAC>
2,3,5,6-tetrafluoro-4-methylbenzyl 3-[(1Z)-2-chloro-3,3,3-trifluoroprop-1-en-1-yl]-2,2-dimethylcyclopropanecarboxylate

> <STRUCTURE_SMILES>
O=C(OCC2=C(F)C(F)=C(C)C(F)=C2F)C1C(C)(C)C1/C=C(Cl)/C(F)(F)F

> <STRUCTURE_Parent_SMILES>
O=C(OCC2=C(F)C(F)=C(C)C(F)=C2F)C1C(C)(C)C1/C=C(Cl)/C(F)(F)F

> <STRUCTURE_InChI>
InChI=1S/C17H14ClF7O2/c1-6-11(19)13(21)7(14(22)12(6)20)5-27-15(26)10-8(16(10,2)3)4-9(18)17(23,24)25/h4,8,10H,5H2,1-3H3/b9-4-

> <STRUCTURE_InChIKey>
ZFHGXWPMULPQSE-WTKPLQERSA-N

> <Substance_modify_yyyymmdd>
20080429

> <DSSTox_CID_Parent>
12577

> <ChemicalReplicateCount>
1

> <Coord_Metals>
0

> <Index>
289

> <Canonical_Smiles>
Cc1c(F)c(F)c(COC(=O)C2C(C=C(Cl)C(F)(F)F)C2(C)C)c(F)c1F

> <Molecular_Weight>
418.73368

> <Frequency>
1

$$$$

  SciTegic          2D

 47 48  0  0  0  0            999 V2000
    1.2990   -0.7500    0.0000 C   0  0
    1.2990    0.7500    0.0000 C   0  0
    0.0000    1.5000    0.0000 C   0  0
   -1.2990    0.7500    0.0000 C   0  0
   -1.2990   -0.7500    0.0000 C   0  0
    0.0000   -1.5000    0.0000 C   0  0
    2.3383   -1.3500    0.0000 O   0  0
    2.5972    1.5031    0.0000 C   0  0
    3.8999    0.7576    0.0000 C   0  0
    5.1972    1.5122    0.0000 C   0  0
    2.5951    3.0039    0.0000 N   0  0
    3.8933    3.7570    0.0000 O   0  0
    3.8912    5.2578    0.0000 C   0  0
    5.1894    6.0109    0.0000 C   0  0
    5.1872    7.5118    0.0000 C   0  0
    6.2252    8.1139    0.0000 Cl  0  0
    0.0031    3.0008    0.0000 O   0  0
   -3.8069   -3.7384    0.0000 O   0  0
   -3.8247   -2.2385    0.0000 C   0  0
   -2.5346   -1.4732    0.0000 C   0  0
   -1.2641   -2.2299    0.0000 C   0  0
   -1.2090   -3.7076    0.0000 C   0  0
   -2.4991   -4.4729    0.0000 C   0  0
   -2.1530    0.2297    0.0000 H   0  0
   -1.2756    1.7497    0.0000 H   0  0
   -0.4215   -0.2705    0.0000 H   0  0
   -0.8776   -1.9794    0.0000 H   0  0
    0.8775   -1.9795    0.0000 H   0  0
    3.0357    0.2545    0.0000 H   0  0
    3.9033   -0.2424    0.0000 H   0  0
    6.0651    1.0155    0.0000 H   0  0
    6.0614    2.0153    0.0000 H   0  0
    5.1937    2.5122    0.0000 H   0  0
    3.0259    4.7565    0.0000 H   0  0
    3.0243    5.7563    0.0000 H   0  0
    6.0563    5.5125    0.0000 H   0  0
    4.3203    8.0102    0.0000 H   0  0
    0.8698    3.4996    0.0000 H   0  0
   -3.8129   -1.2385    0.0000 H   0  0
   -4.6725   -2.7687    0.0000 H   0  0
   -2.5580   -2.4729    0.0000 H   0  0
   -3.4112   -0.9919    0.0000 H   0  0
   -0.3980   -2.7298    0.0000 H   0  0
   -2.0976   -3.2489    0.0000 H   0  0
   -1.2069   -4.7076    0.0000 H   0  0
   -1.6159   -4.9419    0.0000 H   0  0
   -3.3709   -4.9628    0.0000 H   0  0
  1  2  1  0
  1  6  1  0
  1  7  2  0
  2  3  2  0
  2  8  1  0
  3  4  1  0
  3 17  1  0
  4  5  1  0
  5  6  1  0
  5 21  1  0
  8  9  1  0
  8 11  2  0
  9 10  1  0
 11 12  1  0
 12 13  1  0
 13 14  1  0
 14 15  2  0
 15 16  1  0
 18 19  1  0
 18 23  1  0
 19 20  1  0
 20 21  1  0
 21 22  1  0
 22 23  1  0
  4 24  1  0
  4 25  1  0
  5 26  1  0
  6 27  1  0
  6 28  1  0
  9 29  1  0
  9 30  1  0
 10 31  1  0
 10 32  1  0
 10 33  1  0
 13 34  1  0
 13 35  1  0
 14 36  1  0
 15 37  1  0
 17 38  1  0
 19 39  1  0
 19 40  1  0
 20 41  1  0
 20 42  1  0
 21 43  1  0
 22 44  1  0
 22 45  1  0
 23 46  1  0
 23 47  1  0
M  END
> <DSSTox_RID>
40315

> <DSSTox_CID>
14252

> <DSSTox_Generic_SID>
34252

> <DSSTox_FileID>
290_TOXCST_v3a

> <STRUCTURE_Formula>
C17H24ClNO4

> <STRUCTURE_MolecularWeight>
341.8298

> <STRUCTURE_ChemicalType>
defined organic

> <STRUCTURE_TestedForm_DefinedOrganic>
parent

> <STRUCTURE_Shown>
tested chemical

> <TestSubstance_ChemicalName>
Tepraloxydim

> <Source_ChemicalName>
Tepraloxydim

> <TestSubstance_CASRN>
149979-41-9

> <TestSubstance_Description>
single chemical compound

> <ChemicalNote>
stereochem

> <STRUCTURE_ChemicalName_IUPAC>
2-[(1E)-N-{[(2E)-3-chloroprop-2-en-1-yl]oxy}propanimidoyl]-3-hydroxy-5-(tetrahydro-2H-pyran-4-yl)cyclohex-2-en-1-one

> <STRUCTURE_SMILES>
O=C1C(/C(CC)=N/OC/C=C/Cl)=C(O)CC(C2CCOCC2)C1

> <STRUCTURE_Parent_SMILES>
O=C1C(/C(CC)=N/OC/C=C/Cl)=C(O)CC(C2CCOCC2)C1

> <STRUCTURE_InChI>
InChI=1S/C17H24ClNO4/c1-2-14(19-23-7-3-6-18)17-15(20)10-13(11-16(17)21)12-4-8-22-9-5-12/h3,6,12-13,20H,2,4-5,7-11H2,1H3/b6-3+,19-14+

> <STRUCTURE_InChIKey>
IOYNQIMAUDJVEI-BMVIKAAMSA-N

> <Substance_modify_yyyymmdd>
20080429

> <DSSTox_CID_Parent>
14252

> <ChemicalReplicateCount>
1

> <Coord_Metals>
0

> <Index>
290

> <Canonical_Smiles>
CCC(=NOCC=CCl)C1=C(O)CC(CC1=O)C2CCOCC2

> <Molecular_Weight>
341.82976

> <Frequency>
1

$$$$

  SciTegic          2D

 27 27  0  0  0  0            999 V2000
    1.2990   -0.7500    0.0000 N   0  0
    1.2990    0.7500    0.0000 C   0  0
    0.0000   -1.5000    0.0000 C   0  0
    0.0000    1.5000    0.0000 C   0  0
   -1.2990   -0.7500    0.0000 N   0  0
   -1.2990    0.7500    0.0000 C   0  0
    2.2638   -1.8997    0.0000 C   0  0
    0.0000   -2.7000    0.0000 O   0  0
    2.3383    1.3500    0.0000 O   0  0
    0.0000    2.7000    0.0000 Cl  0  0
   -2.5988    1.5004    0.0000 C   0  0
    3.7419   -1.6400    0.0000 C   0  0
    1.7500   -3.3098    0.0000 C   0  0
    2.7848   -0.4612    0.0000 C   0  0
   -2.1651   -1.2500    0.0000 H   0  0
   -2.5994    2.5004    0.0000 H   0  0
   -3.4647    1.0001    0.0000 H   0  0
   -3.4651    2.0000    0.0000 H   0  0
    4.3847   -2.4061    0.0000 H   0  0
    4.0843   -0.7004    0.0000 H   0  0
    4.7268   -1.4665    0.0000 H   0  0
    2.3921   -4.0764    0.0000 H   0  0
    0.7651   -3.4828    0.0000 H   0  0
    1.4073   -4.2492    0.0000 H   0  0
    2.1413    0.3042    0.0000 H   0  0
    3.1258    0.4789    0.0000 H   0  0
    3.7694   -0.2863    0.0000 H   0  0
  1  2  1  0
  1  3  1  0
  1  7  1  0
  2  4  1  0
  2  9  2  0
  3  5  1  0
  3  8  2  0
  4 10  1  0
  4  6  2  0
  5  6  1  0
  6 11  1  0
  7 12  1  0
  7 13  1  0
  7 14  1  0
  5 15  1  0
 11 16  1  0
 11 17  1  0
 11 18  1  0
 12 19  1  0
 12 20  1  0
 12 21  1  0
 13 22  1  0
 13 23  1  0
 13 24  1  0
 14 25  1  0
 14 26  1  0
 14 27  1  0
M  END
> <DSSTox_RID>
40603

> <DSSTox_CID>
4317

> <DSSTox_Generic_SID>
24317

> <DSSTox_FileID>
291_TOXCST_v3a

> <STRUCTURE_Formula>
C9H13ClN2O2

> <STRUCTURE_MolecularWeight>
216.6647

> <STRUCTURE_ChemicalType>
defined organic

> <STRUCTURE_TestedForm_DefinedOrganic>
parent

> <STRUCTURE_Shown>
tested chemical

> <TestSubstance_ChemicalName>
Terbacil

> <Source_ChemicalName>
Terbacil

> <TestSubstance_CASRN>
5902-51-2

> <TestSubstance_Description>
single chemical compound

> <STRUCTURE_ChemicalName_IUPAC>
3-tert-butyl-5-chloro-6-methylpyrimidine-2,4(1H,3H)-dione

> <STRUCTURE_SMILES>
O=C1NC(/C)=C(/Cl)C(=O)N1C(C)(C)C

> <STRUCTURE_Parent_SMILES>
O=C1NC(/C)=C(/Cl)C(=O)N1C(C)(C)C

> <STRUCTURE_InChI>
InChI=1S/C9H13ClN2O2/c1-5-6(10)7(13)12(8(14)11-5)9(2,3)4/h1-4H3,(H,11,14)

> <STRUCTURE_InChIKey>
NBQCNZYJJMBDKY-UHFFFAOYSA-N

> <Substance_modify_yyyymmdd>
20080429

> <DSSTox_CID_Parent>
4317

> <ChemicalReplicateCount>
1

> <Coord_Metals>
0

> <Index>
291

> <Canonical_Smiles>
CC1=C(Cl)C(=O)N(C(=O)N1)C(C)(C)C

> <Molecular_Weight>
216.66471

> <Frequency>
1

$$$$

  SciTegic          2D

 34 35  0  0  0  0            999 V2000
    5.1988   -1.5011    0.0000 N   0  0
    5.3367   -2.9819    0.0000 N   0  0
    6.8039   -3.2937    0.0000 C   0  0
    7.5538   -1.9946    0.0000 N   0  0
    6.5501   -0.8799    0.0000 C   0  0
    3.8990   -0.7507    0.0000 C   0  0
    2.5989   -1.5004    0.0000 C   0  0
    2.5954   -3.0013    0.0000 C   0  0
    1.2990   -0.7500    0.0000 C   0  0
    1.2990    0.7500    0.0000 C   0  0
    0.0000   -1.5000    0.0000 C   0  0
    0.0000    1.5000    0.0000 C   0  0
   -1.2990   -0.7500    0.0000 C   0  0
   -1.2990    0.7500    0.0000 C   0  0
    2.3383    1.3500    0.0000 Cl  0  0
   -2.3383    1.3500    0.0000 Cl  0  0
    1.2944   -3.7495    0.0000 O   0  0
    1.2909   -5.2503    0.0000 C   0  0
   -0.0101   -5.9986    0.0000 C   0  0
    2.3315   -4.6526    0.0000 F   0  0
    2.3290   -5.8524    0.0000 F   0  0
   -0.0128   -7.1986    0.0000 F   0  0
   -1.0506   -6.5963    0.0000 F   0  0
    7.2107   -4.2072    0.0000 H   0  0
    6.7521    0.0995    0.0000 H   0  0
    3.8993    0.2493    0.0000 H   0  0
    4.7651   -0.2508    0.0000 H   0  0
    1.7323   -1.9994    0.0000 H   0  0
    2.5936   -4.0013    0.0000 H   0  0
    3.4604   -3.5030    0.0000 H   0  0
    0.0000   -2.5000    0.0000 H   0  0
    0.0000    2.5000    0.0000 H   0  0
   -2.1651   -1.2500    0.0000 H   0  0
   -0.8751   -5.4968    0.0000 H   0  0
  1  2  1  0
  1  5  1  0
  1  6  1  0
  2  3  2  0
  3  4  1  0
  4  5  2  0
  6  7  1  0
  7  8  1  0
  7  9  1  0
  8 17  1  0
  9 10  2  0
  9 11  1  0
 10 12  1  0
 10 15  1  0
 11 13  2  0
 12 14  2  0
 13 14  1  0
 14 16  1  0
 17 18  1  0
 18 19  1  0
 18 20  1  0
 18 21  1  0
 19 22  1  0
 19 23  1  0
  3 24  1  0
  5 25  1  0
  6 26  1  0
  6 27  1  0
  7 28  1  0
  8 29  1  0
  8 30  1  0
 11 31  1  0
 12 32  1  0
 13 33  1  0
 19 34  1  0
M  END
> <DSSTox_RID>
40604

> <DSSTox_CID>
14956

> <DSSTox_Generic_SID>
34956

> <DSSTox_FileID>
292_TOXCST_v3a

> <STRUCTURE_Formula>
C13H11Cl2F4N3O

> <STRUCTURE_MolecularWeight>
372.1456

> <STRUCTURE_ChemicalType>
defined organic

> <STRUCTURE_TestedForm_DefinedOrganic>
parent

> <STRUCTURE_Shown>
tested chemical

> <TestSubstance_ChemicalName>
Tetraconazole

> <Source_ChemicalName>
Tetraconazole

> <TestSubstance_CASRN>
112281-77-3

> <TestSubstance_Description>
single chemical compound

> <ChemicalNote>
mixture of (R,S) isomers; structure shown without stereochem

> <STRUCTURE_ChemicalName_IUPAC>
1-[2-(2,4-dichlorophenyl)-3-(1,1,2,2-tetrafluoroethoxy)propyl]-1H-1,2,4-triazole

> <STRUCTURE_SMILES>
ClC2=C(C=CC(Cl)=C2)C(COC(F)(F)C(F)F)CN1N=CN=C1

> <STRUCTURE_Parent_SMILES>
ClC2=C(C=CC(Cl)=C2)C(COC(F)(F)C(F)F)CN1N=CN=C1

> <STRUCTURE_InChI>
InChI=1S/C13H11Cl2F4N3O/c14-9-1-2-10(11(15)3-9)8(4-22-7-20-6-21-22)5-23-13(18,19)12(16)17/h1-3,6-8,12H,4-5H2

> <STRUCTURE_InChIKey>
LQDARGUHUSPFNL-UHFFFAOYSA-N

> <Substance_modify_yyyymmdd>
20080429

> <DSSTox_CID_Parent>
14956

> <ChemicalReplicateCount>
1

> <Coord_Metals>
0

> <Index>
292

> <Canonical_Smiles>
FC(F)C(F)(F)OCC(Cn1cncn1)c2ccc(Cl)cc2Cl

> <Molecular_Weight>
372.14555

> <Frequency>
1

$$$$

  SciTegic          2D

 49 51  0  0  0  0            999 V2000
   11.0155   -0.5823    0.0000 N   0  0
    5.8214    3.2889    0.0000 C   0  0
    7.1122    4.0530    0.0000 C   0  0
   10.4251   -1.9320    0.0000 C   0  0
   12.5108   -0.7313    0.0000 C   0  0
    7.0607    2.6677    0.0000 C   0  0
   11.5296   -2.9370    0.0000 C   0  0
   12.8253   -2.1912    0.0000 C   0  0
   10.2534    0.7078    0.0000 C   0  0
    7.3372    1.1926    0.0000 C   0  0
    6.8870    5.5477    0.0000 C   0  0
    8.7526    0.6936    0.0000 O   0  0
    9.2515   -2.1822    0.0000 O   0  0
   13.3101    0.1637    0.0000 O   0  0
    8.0712    6.4698    0.0000 C   0  0
    6.4261    0.4117    0.0000 O   0  0
    5.0960    1.9627    0.0000 C   0  0
    5.0047    4.5612    0.0000 C   0  0
   14.1347   -2.9310    0.0000 C   0  0
   11.5118   -4.4409    0.0000 C   0  0
    7.8657    7.9565    0.0000 C   0  0
    9.4605    5.9020    0.0000 C   0  0
   12.8303   -5.1965    0.0000 C   0  0
   14.1260   -4.4507    0.0000 C   0  0
    8.1122    4.0520    0.0000 H   0  0
    8.0607    2.6788    0.0000 H   0  0
   10.7449    1.5787    0.0000 H   0  0
    9.7451    1.5689    0.0000 H   0  0
    5.9606    5.9241    0.0000 H   0  0
    5.6257    1.1145    0.0000 H   0  0
    4.6264    1.0799    0.0000 H   0  0
    4.0966    1.9278    0.0000 H   0  0
    4.0052    4.5269    0.0000 H   0  0
    4.4751    5.4095    0.0000 H   0  0
    5.4744    5.4440    0.0000 H   0  0
   14.9899   -3.4492    0.0000 H   0  0
   14.1101   -1.9313    0.0000 H   0  0
   11.5304   -5.4407    0.0000 H   0  0
   10.6596   -3.9176    0.0000 H   0  0
    8.6547    8.5708    0.0000 H   0  0
    7.7283    8.9470    0.0000 H   0  0
    6.9392    8.3329    0.0000 H   0  0
    9.5963    4.9113    0.0000 H   0  0
   10.3863    5.5241    0.0000 H   0  0
   10.2507    6.5147    0.0000 H   0  0
   13.7085   -5.6749    0.0000 H   0  0
   12.8530   -4.1968    0.0000 H   0  0
   14.0987   -5.4503    0.0000 H   0  0
   14.9817   -3.9333    0.0000 H   0  0
  1  4  1  0
  1  5  1  0
  1  9  1  0
  2  6  1  0
  2 17  1  0
  2 18  1  0
  2  3  1  0
  3  6  1  0
  3 11  1  0
  4  7  1  0
  4 13  2  0
  5  8  1  0
  5 14  2  0
  6 10  1  0
  7 20  1  0
  7  8  2  0
  8 19  1  0
  9 12  1  0
 10 12  1  0
 10 16  2  0
 11 15  2  0
 15 21  1  0
 15 22  1  0
 19 24  1  0
 20 23  1  0
 23 24  1  0
  3 25  1  0
  6 26  1  0
  9 27  1  0
  9 28  1  0
 11 29  1  0
 17 30  1  0
 17 31  1  0
 17 32  1  0
 18 33  1  0
 18 34  1  0
 18 35  1  0
 19 36  1  0
 19 37  1  0
 20 38  1  0
 20 39  1  0
 21 40  1  0
 21 41  1  0
 21 42  1  0
 22 43  1  0
 22 44  1  0
 22 45  1  0
 23 46  1  0
 23 47  1  0
 24 48  1  0
 24 49  1  0
M  END
> <DSSTox_RID>
40605

> <DSSTox_CID>
12649

> <DSSTox_Generic_SID>
32649

> <DSSTox_FileID>
293_TOXCST_v3a

> <STRUCTURE_Formula>
C19H25NO4

> <STRUCTURE_MolecularWeight>
331.4061

> <STRUCTURE_ChemicalType>
defined organic

> <STRUCTURE_TestedForm_DefinedOrganic>
parent

> <STRUCTURE_Shown>
representative isomer in mixture

> <TestSubstance_ChemicalName>
Tetramethrin

> <Source_ChemicalName>
Tetramethrin

> <TestSubstance_CASRN>
7696-12-0

> <TestSubstance_Description>
mixture or formulation

> <ChemicalNote>
mixture of four stereoisomers: [1R,trans]; [1R,cis], [1S,trans]; and [1S,cis]; approx ratio 4:1:4:1; structure shown 1R,trans; stereochem

> <STRUCTURE_ChemicalName_IUPAC>
(1,3-dioxo-1,3,4,5,6,7-hexahydro-2H-isoindol-2-yl)methyl (1R,3R)-2,2-dimethyl-3-(2-methylprop-1-en-1-yl)cyclopropanecarboxylate

> <STRUCTURE_SMILES>
O=C(C2=C1CCCC2)N(CO[C@@]([C@H]3C([C@@H]3\C=C(C)/C)(C)C)=O)C1=O

> <STRUCTURE_Parent_SMILES>
O=C(C2=C1CCCC2)N(CO[C@@]([C@H]3C([C@@H]3\C=C(C)/C)(C)C)=O)C1=O

> <STRUCTURE_InChI>
InChI=1S/C19H25NO4/c1-11(2)9-14-15(19(14,3)4)18(23)24-10-20-16(21)12-7-5-6-8-13(12)17(20)22/h9,14-15H,5-8,10H2,1-4H3/t14-,15+/m1/s1

> <STRUCTURE_InChIKey>
CXBMCYHAMVGWJQ-CABCVRRESA-N

> <Substance_modify_yyyymmdd>
20080429

> <DSSTox_CID_Parent>
12649

> <ChemicalReplicateCount>
1

> <Coord_Metals>
0

> <Index>
293

> <Canonical_Smiles>
CC(=CC1C(C(=O)OCN2C(=O)C3=C(CCCC3)C2=O)C1(C)C)C

> <Molecular_Weight>
331.4061

> <Frequency>
1

$$$$

  SciTegic          2D

 21 23  0  0  0  0            999 V2000
    1.7138    1.2033    0.0000 N   0  0
    2.5889    0.0182    0.0000 C   0  0
    1.7138   -1.2033    0.0000 N   0  0
    0.2917   -0.7475    0.0000 C   0  0
    0.2917    0.7475    0.0000 C   0  0
   -1.0028    1.5132    0.0000 C   0  0
   -2.3155    0.7475    0.0000 C   0  0
   -2.3155   -0.7475    0.0000 C   0  0
   -1.0028   -1.5132    0.0000 C   0  0
    4.0896    0.0290    0.0000 C   0  0
    5.0454   -1.1042    0.0000 C   0  0
    6.4277   -0.5216    0.0000 S   0  0
    6.3008    0.9730    0.0000 C   0  0
    4.8401    1.3141    0.0000 N   0  0
    2.0279   -2.1527    0.0000 H   0  0
   -0.9997    2.5132    0.0000 H   0  0
   -3.1826    1.2456    0.0000 H   0  0
   -3.1826   -1.2456    0.0000 H   0  0
   -0.9997   -2.5132    0.0000 H   0  0
    4.8120   -2.0766    0.0000 H   0  0
    7.0571    1.6271    0.0000 H   0  0
  1  2  2  0
  1  5  1  0
  2  3  1  0
  2 10  1  0
  3  4  1  0
  4  5  2  0
  4  9  1  0
  5  6  1  0
  6  7  2  0
  7  8  1  0
  8  9  2  0
 10 11  2  0
 10 14  1  0
 11 12  1  0
 12 13  1  0
 13 14  2  0
  3 15  1  0
  6 16  1  0
  7 17  1  0
  8 18  1  0
  9 19  1  0
 11 20  1  0
 13 21  1  0
M  END
> <DSSTox_RID>
40607

> <DSSTox_CID>
1337

> <DSSTox_Generic_SID>
21337

> <DSSTox_FileID>
294_TOXCST_v3a

> <STRUCTURE_Formula>
C10H7N3S

> <STRUCTURE_MolecularWeight>
201.2477

> <STRUCTURE_ChemicalType>
defined organic

> <STRUCTURE_TestedForm_DefinedOrganic>
parent

> <STRUCTURE_Shown>
tested chemical

> <TestSubstance_ChemicalName>
Thiabendazole

> <Source_ChemicalName>
Thiabendazole

> <TestSubstance_CASRN>
148-79-8

> <TestSubstance_Description>
single chemical compound

> <STRUCTURE_ChemicalName_IUPAC>
2-(1,3-thiazol-4-yl)-1H-benzimidazole

> <STRUCTURE_SMILES>
N1C(=NC2=C1C=CC=C2)C3=CSC=N3

> <STRUCTURE_Parent_SMILES>
N1C(=NC2=C1C=CC=C2)C3=CSC=N3

> <STRUCTURE_InChI>
InChI=1S/C10H7N3S/c1-2-4-8-7(3-1)12-10(13-8)9-5-14-6-11-9/h1-6H,(H,12,13)

> <STRUCTURE_InChIKey>
WJCNZQLZVWNLKY-UHFFFAOYSA-N

> <Substance_modify_yyyymmdd>
20080429

> <DSSTox_CID_Parent>
1337

> <ChemicalReplicateCount>
1

> <Coord_Metals>
0

> <Index>
294

> <Canonical_Smiles>
c1ccc2[nH]c(nc2c1)c3cscn3

> <Molecular_Weight>
201.24767

> <Frequency>
1

$$$$

  SciTegic          2D

 25 26  0  0  0  0            999 V2000
    6.2543   -0.2587    0.0000 S   0  0
    5.2499   -1.3728    0.0000 C   0  0
    3.8990   -0.7508    0.0000 N   0  0
    4.0377    0.7299    0.0000 C   0  0
    5.5052    1.0408    0.0000 C   0  0
    5.5523   -2.8401    0.0000 N   0  0
    2.5988   -1.5004    0.0000 C   0  0
    1.2990   -0.7500    0.0000 C   0  0
    1.2990    0.7500    0.0000 C   0  0
    0.0000   -1.5000    0.0000 C   0  0
    0.0000    1.5000    0.0000 N   0  0
   -1.2990   -0.7500    0.0000 C   0  0
   -1.2990    0.7500    0.0000 C   0  0
   -2.3383    1.3500    0.0000 Cl  0  0
    6.9764   -3.3138    0.0000 C   0  0
    8.1150   -3.6925    0.0000 N   0  0
    4.2546    1.7061    0.0000 H   0  0
    3.0930    0.4022    0.0000 H   0  0
    4.9058    1.8413    0.0000 H   0  0
    6.5012    1.1300    0.0000 H   0  0
    2.5985   -2.5004    0.0000 H   0  0
    3.4646   -2.0008    0.0000 H   0  0
    2.1651    1.2500    0.0000 H   0  0
    0.0000   -2.5000    0.0000 H   0  0
   -2.1651   -1.2500    0.0000 H   0  0
  1  2  1  0
  1  5  1  0
  2  3  1  0
  2  6  2  0
  3  4  1  0
  3  7  1  0
  4  5  1  0
  6 15  1  0
  7  8  1  0
  8  9  1  0
  8 10  2  0
  9 11  2  0
 10 12  1  0
 11 13  1  0
 12 13  2  0
 13 14  1  0
 15 16  3  0
  4 17  1  0
  4 18  1  0
  5 19  1  0
  5 20  1  0
  7 21  1  0
  7 22  1  0
  9 23  1  0
 10 24  1  0
 12 25  1  0
M  END
> <DSSTox_RID>
40608

> <DSSTox_CID>
14961

> <DSSTox_Generic_SID>
34961

> <DSSTox_FileID>
295_TOXCST_v3a

> <STRUCTURE_Formula>
C10H9ClN4S

> <STRUCTURE_MolecularWeight>
252.7233

> <STRUCTURE_ChemicalType>
defined organic

> <STRUCTURE_TestedForm_DefinedOrganic>
parent

> <STRUCTURE_Shown>
tested chemical

> <TestSubstance_ChemicalName>
Thiacloprid

> <Source_ChemicalName>
Thiacloprid

> <TestSubstance_CASRN>
111988-49-9

> <TestSubstance_Description>
single chemical compound

> <STRUCTURE_ChemicalName_IUPAC>
{(2Z)-3-[(6-chloropyridin-3-yl)methyl]-1,3-thiazolidin-2-ylidene}cyanamide

> <STRUCTURE_SMILES>
ClC2=CC=C(C=N2)CN1/C(SCC1)=N/C#N

> <STRUCTURE_Parent_SMILES>
ClC2=CC=C(C=N2)CN1/C(SCC1)=N/C#N

> <STRUCTURE_InChI>
InChI=1S/C10H9ClN4S/c11-9-2-1-8(5-13-9)6-15-3-4-16-10(15)14-7-12/h1-2,5H,3-4,6H2/b14-10-

> <STRUCTURE_InChIKey>
HOKKPVIRMVDYPB-UVTDQMKNSA-N

> <Substance_modify_yyyymmdd>
20080429

> <DSSTox_CID_Parent>
14961

> <ChemicalReplicateCount>
1

> <Coord_Metals>
0

> <Index>
295

> <Canonical_Smiles>
Clc1ccc(CN2CCSC2=NC#N)cn1

> <Molecular_Weight>
252.72325

> <Frequency>
1

$$$$

  SciTegic          2D

 28 29  0  0  0  0            999 V2000
    1.2990   -0.7500    0.0000 O   0  0
    1.2990    0.7500    0.0000 C   0  0
    0.0000    1.5000    0.0000 N   0  0
   -1.2990    0.7500    0.0000 C   0  0
   -1.2990   -0.7500    0.0000 N   0  0
    0.0000   -1.5000    0.0000 C   0  0
   -2.6003    1.4977    0.0000 N   0  0
    0.0000    3.0008    0.0000 C   0  0
    2.9031    5.5458    0.0000 N   0  0
    2.6510    3.1319    0.0000 S   0  0
    3.6539    4.2472    0.0000 C   0  0
    1.4361    5.2330    0.0000 C   0  0
    1.2993    3.7521    0.0000 C   0  0
    4.8475    4.1225    0.0000 Cl  0  0
   -2.5988   -1.5004    0.0000 C   0  0
   -3.8990    0.7455    0.0000 N   0  0
   -4.9395    1.3433    0.0000 O   0  0
   -3.8969   -0.4545    0.0000 O   0  0
    1.2754    1.7497    0.0000 H   0  0
    2.1531    0.2298    0.0000 H   0  0
   -0.8776   -1.9794    0.0000 H   0  0
    0.8775   -1.9795    0.0000 H   0  0
   -0.8662    3.5005    0.0000 H   0  0
   -0.8660    2.5007    0.0000 H   0  0
    0.6885    5.8972    0.0000 H   0  0
   -3.4651   -1.0010    0.0000 H   0  0
   -2.5985   -2.5004    0.0000 H   0  0
   -3.4646   -2.0008    0.0000 H   0  0
  1  2  1  0
  1  6  1  0
  2  3  1  0
  3  4  1  0
  3  8  1  0
  4  5  1  0
  4  7  2  0
  5  6  1  0
  5 15  1  0
  7 16  1  0
  8 13  1  0
  9 11  2  0
  9 12  1  0
 10 11  1  0
 10 13  1  0
 11 14  1  0
 12 13  2  0
 16 17  2  0
 16 18  2  0
  2 19  1  0
  2 20  1  0
  6 21  1  0
  6 22  1  0
  8 23  1  0
  8 24  1  0
 12 25  1  0
 15 26  1  0
 15 27  1  0
 15 28  1  0
M  END
> <DSSTox_RID>
40609

> <DSSTox_CID>
14962

> <DSSTox_Generic_SID>
34962

> <DSSTox_FileID>
296_TOXCST_v3a

> <STRUCTURE_Formula>
C8H10ClN5O3S

> <STRUCTURE_MolecularWeight>
291.7147

> <STRUCTURE_ChemicalType>
defined organic

> <STRUCTURE_TestedForm_DefinedOrganic>
parent

> <STRUCTURE_Shown>
tested chemical

> <TestSubstance_ChemicalName>
Thiamethoxam

> <Source_ChemicalName>
Thiamethoxam

> <TestSubstance_CASRN>
153719-23-4

> <TestSubstance_Description>
single chemical compound

> <STRUCTURE_ChemicalName_IUPAC>
(4Z)-3-[(2-chloro-1,3-thiazol-5-yl)methyl]-5-methyl-N-nitro-1,3,5-oxadiazinan-4-imine

> <STRUCTURE_SMILES>
ClC(S2)=NC=C2CN1COCN(C)/C1=N/[N+]([O-])=O

> <STRUCTURE_Parent_SMILES>
ClC(S2)=NC=C2CN1COCN(C)/C1=N/[N+]([O-])=O

> <STRUCTURE_InChI>
InChI=1S/C8H10ClN5O3S/c1-12-4-17-5-13(8(12)11-14(15)16)3-6-2-10-7(9)18-6/h2H,3-5H2,1H3/b11-8-

> <STRUCTURE_InChIKey>
NWWZPOKUUAIXIW-FLIBITNWSA-N

> <Substance_modify_yyyymmdd>
20080429

> <DSSTox_CID_Parent>
14962

> <ChemicalReplicateCount>
1

> <Coord_Metals>
0

> <Index>
296

> <Canonical_Smiles>
CN1COCN(Cc2cnc(Cl)s2)C1=NN(=O)=O

> <Molecular_Weight>
291.7147

> <Frequency>
1

$$$$

  SciTegic          2D

 43 44  0  0  0  0            999 V2000
    1.2990   -0.7500    0.0000 N   0  0
    1.2990    0.7500    0.0000 C   0  0
    0.0000   -1.5000    0.0000 C   0  0
   -1.2990   -0.7500    0.0000 C   0  0
    0.0000    1.5000    0.0000 C   0  0
   -1.2990    0.7500    0.0000 C   0  0
   -2.7776   -1.0076    0.0000 C   0  0
   -3.5468   -0.0865    0.0000 O   0  0
   -2.7816   -2.5084    0.0000 O   0  0
    0.0000   -3.0008    0.0000 C   0  0
    1.0389   -3.6015    0.0000 F   0  0
   -1.0394   -3.6005    0.0000 F   0  0
    1.2121    3.8625    0.0000 N   0  0
   -1.2149    3.8587    0.0000 S   0  0
    0.0000    3.0008    0.0000 C   0  0
    0.7463    5.2884    0.0000 C   0  0
   -0.7537    5.2860    0.0000 C   0  0
   -2.5988    1.5004    0.0000 C   0  0
   -4.0770    1.2407    0.0000 C   0  0
   -4.5921   -0.1689    0.0000 C   0  0
   -5.0406    2.3913    0.0000 C   0  0
    2.5988    1.5004    0.0000 C   0  0
    3.6384    0.9011    0.0000 F   0  0
    2.5984    2.7004    0.0000 F   0  0
    3.6377    2.1009    0.0000 F   0  0
   -4.0829   -3.2562    0.0000 C   0  0
   -0.0005   -4.0008    0.0000 H   0  0
    0.3245    6.1950    0.0000 H   0  0
    1.7394    5.1707    0.0000 H   0  0
   -0.3347    6.1940    0.0000 H   0  0
   -1.7463    5.1651    0.0000 H   0  0
   -1.7327    2.0003    0.0000 H   0  0
   -2.5985    2.5004    0.0000 H   0  0
   -3.4349    0.4741    0.0000 H   0  0
   -5.5770   -0.3420    0.0000 H   0  0
   -3.9500   -0.9356    0.0000 H   0  0
   -4.9348   -1.1084    0.0000 H   0  0
   -4.6982    3.3309    0.0000 H   0  0
   -6.0255    2.2182    0.0000 H   0  0
   -5.6830    3.1576    0.0000 H   0  0
   -4.0856   -4.2561    0.0000 H   0  0
   -4.9502   -3.7540    0.0000 H   0  0
   -4.9478   -2.7541    0.0000 H   0  0
  1  2  1  0
  1  3  2  0
  2  5  2  0
  2 22  1  0
  3  4  1  0
  3 10  1  0
  4  6  2  0
  4  7  1  0
  5  6  1  0
  5 15  1  0
  6 18  1  0
  7  8  2  0
  7  9  1  0
  9 26  1  0
 10 11  1  0
 10 12  1  0
 13 15  2  0
 13 16  1  0
 14 15  1  0
 14 17  1  0
 16 17  1  0
 18 19  1  0
 19 20  1  0
 19 21  1  0
 22 23  1  0
 22 24  1  0
 22 25  1  0
 10 27  1  0
 16 28  1  0
 16 29  1  0
 17 30  1  0
 17 31  1  0
 18 32  1  0
 18 33  1  0
 19 34  1  0
 20 35  1  0
 20 36  1  0
 20 37  1  0
 21 38  1  0
 21 39  1  0
 21 40  1  0
 26 41  1  0
 26 42  1  0
 26 43  1  0
M  END
> <DSSTox_RID>
40610

> <DSSTox_CID>
12488

> <DSSTox_Generic_SID>
32488

> <DSSTox_FileID>
297_TOXCST_v3a

> <STRUCTURE_Formula>
C16H17F5N2O2S

> <STRUCTURE_MolecularWeight>
396.3754

> <STRUCTURE_ChemicalType>
defined organic

> <STRUCTURE_TestedForm_DefinedOrganic>
parent

> <STRUCTURE_Shown>
tested chemical

> <TestSubstance_ChemicalName>
Thiazopyr

> <Source_ChemicalName>
Thiazopyr

> <TestSubstance_CASRN>
117718-60-2

> <TestSubstance_Description>
single chemical compound

> <STRUCTURE_ChemicalName_IUPAC>
methyl 2-(difluoromethyl)-5-(4,5-dihydro-1,3-thiazol-2-yl)-4-isobutyl-6-(trifluoromethyl)nicotinate

> <STRUCTURE_SMILES>
O=C(OC)C1=C(CC(C)C)C(C2=NCCS2)=C(C(F)(F)F)N=C1C(F)F

> <STRUCTURE_Parent_SMILES>
O=C(OC)C1=C(CC(C)C)C(C2=NCCS2)=C(C(F)(F)F)N=C1C(F)F

> <STRUCTURE_InChI>
InChI=1S/C16H17F5N2O2S/c1-7(2)6-8-9(15(24)25-3)11(13(17)18)23-12(16(19,20)21)10(8)14-22-4-5-26-14/h7,13H,4-6H2,1-3H3

> <STRUCTURE_InChIKey>
YIJZJEYQBAAWRJ-UHFFFAOYSA-N

> <Substance_modify_yyyymmdd>
20080429

> <DSSTox_CID_Parent>
12488

> <ChemicalReplicateCount>
1

> <Coord_Metals>
0

> <Index>
297

> <Canonical_Smiles>
COC(=O)c1c(CC(C)C)c(C2=NCCS2)c(nc1C(F)F)C(F)(F)F

> <Molecular_Weight>
396.37539

> <Frequency>
1

$$$$

  SciTegic          2D

 23 24  0  0  0  0            999 V2000
    2.6747   -6.1134    0.0000 S   0  0
    3.1332   -7.5416    0.0000 N   0  0
    4.6332   -7.5468    0.0000 N   0  0
    5.1017   -6.1218    0.0000 C   0  0
    3.8912   -5.2578    0.0000 C   0  0
    3.8933   -3.7570    0.0000 N   0  0
    2.5951   -3.0039    0.0000 C   0  0
    1.5548   -3.6021    0.0000 O   0  0
    2.5973   -1.5031    0.0000 N   0  0
    1.2990   -0.7500    0.0000 C   0  0
    1.2990    0.7500    0.0000 C   0  0
    0.0000   -1.5000    0.0000 C   0  0
    0.0000    1.5000    0.0000 C   0  0
   -1.2990   -0.7500    0.0000 C   0  0
   -1.2990    0.7500    0.0000 C   0  0
    6.0520   -5.8105    0.0000 H   0  0
    4.7602   -3.2585    0.0000 H   0  0
    3.4642   -1.0046    0.0000 H   0  0
    2.1651    1.2500    0.0000 H   0  0
    0.0000   -2.5000    0.0000 H   0  0
    0.0000    2.5000    0.0000 H   0  0
   -2.1651   -1.2500    0.0000 H   0  0
   -2.1651    1.2500    0.0000 H   0  0
  1  2  1  0
  1  5  1  0
  2  3  2  0
  3  4  1  0
  4  5  2  0
  5  6  1  0
  6  7  1  0
  7  8  2  0
  7  9  1  0
  9 10  1  0
 10 11  2  0
 10 12  1  0
 11 13  1  0
 12 14  2  0
 13 15  2  0
 14 15  1  0
  4 16  1  0
  6 17  1  0
  9 18  1  0
 11 19  1  0
 12 20  1  0
 13 21  1  0
 14 22  1  0
 15 23  1  0
M  END
> <DSSTox_RID>
40611

> <DSSTox_CID>
12651

> <DSSTox_Generic_SID>
32651

> <DSSTox_FileID>
298_TOXCST_v3a

> <STRUCTURE_Formula>
C9H8N4OS

> <STRUCTURE_MolecularWeight>
220.251

> <STRUCTURE_ChemicalType>
defined organic

> <STRUCTURE_TestedForm_DefinedOrganic>
parent

> <STRUCTURE_Shown>
tested chemical

> <TestSubstance_ChemicalName>
Thidiazuron

> <Source_ChemicalName>
Thidiazuron

> <TestSubstance_CASRN>
51707-55-2

> <TestSubstance_Description>
single chemical compound

> <STRUCTURE_ChemicalName_IUPAC>
1-phenyl-3-(1,2,3-thiadiazol-5-yl)urea

> <STRUCTURE_SMILES>
O=C(NC2=CC=CC=C2)NC1=CN=NS1

> <STRUCTURE_Parent_SMILES>
O=C(NC2=CC=CC=C2)NC1=CN=NS1

> <STRUCTURE_InChI>
InChI=1S/C9H8N4OS/c14-9(12-8-6-10-13-15-8)11-7-4-2-1-3-5-7/h1-6H,(H2,11,12,14)

> <STRUCTURE_InChIKey>
HFCYZXMHUIHAQI-UHFFFAOYSA-N

> <Substance_modify_yyyymmdd>
20080429

> <DSSTox_CID_Parent>
12651

> <ChemicalReplicateCount>
1

> <Coord_Metals>
0

> <Index>
298

> <Canonical_Smiles>
O=C(Nc1ccccc1)Nc2cnns2

> <Molecular_Weight>
220.25101

> <Frequency>
1

$$$$

  SciTegic          2D

 32 32  0  0  0  0            999 V2000
    5.1988   -1.5012    0.0000 C   0  0
    5.1984   -2.7012    0.0000 O   0  0
    6.4990   -0.7516    0.0000 N   0  0
    3.8990   -0.7508    0.0000 S   0  0
    7.7988   -1.5020    0.0000 C   0  0
    9.0990   -0.7525    0.0000 C   0  0
    6.4964    0.7492    0.0000 C   0  0
    5.1958    1.4982    0.0000 C   0  0
    2.5988   -1.5004    0.0000 C   0  0
    1.2990   -0.7500    0.0000 C   0  0
    1.2990    0.7500    0.0000 C   0  0
    0.0000   -1.5000    0.0000 C   0  0
    0.0000    1.5000    0.0000 C   0  0
   -1.2990   -0.7500    0.0000 C   0  0
   -1.2990    0.7500    0.0000 C   0  0
   -2.3383    1.3500    0.0000 Cl  0  0
    7.7984   -2.5020    0.0000 H   0  0
    6.9326   -2.0019    0.0000 H   0  0
    9.9650   -1.2525    0.0000 H   0  0
    9.0993    0.2475    0.0000 H   0  0
    9.9651   -0.2526    0.0000 H   0  0
    7.3632    0.2506    0.0000 H   0  0
    7.3617    1.2504    0.0000 H   0  0
    5.1941    2.4982    0.0000 H   0  0
    4.3290    1.9968    0.0000 H   0  0
    4.3305    0.9969    0.0000 H   0  0
    2.5985   -2.5004    0.0000 H   0  0
    3.4646   -2.0008    0.0000 H   0  0
    2.1651    1.2500    0.0000 H   0  0
    0.0000   -2.5000    0.0000 H   0  0
    0.0000    2.5000    0.0000 H   0  0
   -2.1651   -1.2500    0.0000 H   0  0
  1  2  2  0
  1  4  1  0
  1  3  1  0
  3  5  1  0
  3  7  1  0
  4  9  1  0
  5  6  1  0
  7  8  1  0
  9 10  1  0
 10 11  2  0
 10 12  1  0
 11 13  1  0
 12 14  2  0
 13 15  2  0
 14 15  1  0
 15 16  1  0
  5 17  1  0
  5 18  1  0
  6 19  1  0
  6 20  1  0
  6 21  1  0
  7 22  1  0
  7 23  1  0
  8 24  1  0
  8 25  1  0
  8 26  1  0
  9 27  1  0
  9 28  1  0
 11 29  1  0
 12 30  1  0
 13 31  1  0
 14 32  1  0
M  END
> <DSSTox_RID>
40612

> <DSSTox_CID>
4337

> <DSSTox_Generic_SID>
24337

> <DSSTox_FileID>
299_TOXCST_v3a

> <STRUCTURE_Formula>
C12H16ClNOS

> <STRUCTURE_MolecularWeight>
257.7795

> <STRUCTURE_ChemicalType>
defined organic

> <STRUCTURE_TestedForm_DefinedOrganic>
parent

> <STRUCTURE_Shown>
tested chemical

> <TestSubstance_ChemicalName>
Thiobencarb

> <Source_ChemicalName>
Thiobencarb

> <TestSubstance_CASRN>
28249-77-6

> <TestSubstance_Description>
single chemical compound

> <STRUCTURE_ChemicalName_IUPAC>
S-(4-chlorobenzyl) diethylthiocarbamate

> <STRUCTURE_SMILES>
Clc1ccc(CSC(=O)N(CC)CC)cc1

> <STRUCTURE_Parent_SMILES>
Clc1ccc(CSC(=O)N(CC)CC)cc1

> <STRUCTURE_InChI>
InChI=1S/C12H16ClNOS/c1-3-14(4-2)12(15)16-9-10-5-7-11(13)8-6-10/h5-8H,3-4,9H2,1-2H3

> <STRUCTURE_InChIKey>
QHTQREMOGMZHJV-UHFFFAOYSA-N

> <Substance_modify_yyyymmdd>
20080429

> <DSSTox_CID_Parent>
4337

> <ChemicalReplicateCount>
1

> <Coord_Metals>
0

> <Index>
299

> <Canonical_Smiles>
CCN(CC)C(=O)SCc1ccc(Cl)cc1

> <Molecular_Weight>
257.77953

> <Frequency>
1

$$$$

  SciTegic          2D

 39 38  0  0  0  0            999 V2000
   11.6968    2.2508    0.0000 C   0  0
   11.6999    0.7500    0.0000 N   0  0
   10.3999    0.0000    0.0000 S   0  0
    9.0999    0.7500    0.0000 N   0  0
    7.7999    0.0000    0.0000 C   0  0
    7.7999   -1.2000    0.0000 O   0  0
    6.5000    0.7500    0.0000 O   0  0
    5.2000    0.0000    0.0000 N   0  0
    3.9000    0.7500    0.0000 C   0  0
    2.6000    0.0000    0.0000 S   0  0
    1.3000    0.7500    0.0000 C   0  0
    3.8969    2.2508    0.0000 C   0  0
    9.1030    2.2508    0.0000 C   0  0
   12.9999    0.0000    0.0000 C   0  0
   12.9999   -1.2000    0.0000 O   0  0
   14.2999    0.7500    0.0000 O   0  0
   15.5999    0.0000    0.0000 N   0  0
   16.8999    0.7500    0.0000 C   0  0
   18.1999    0.0000    0.0000 S   0  0
   19.4998    0.7500    0.0000 C   0  0
   16.9030    2.2508    0.0000 C   0  0
   10.8301    2.7496    0.0000 H   0  0
   12.5620    2.7523    0.0000 H   0  0
   11.6952    3.2508    0.0000 H   0  0
    0.4338    0.2503    0.0000 H   0  0
    1.3000    1.7500    0.0000 H   0  0
    0.4340    1.2501    0.0000 H   0  0
    3.0301    2.7496    0.0000 H   0  0
    4.7620    2.7523    0.0000 H   0  0
    3.8953    3.2508    0.0000 H   0  0
    9.9698    2.7496    0.0000 H   0  0
    8.2379    2.7523    0.0000 H   0  0
    9.1046    3.2508    0.0000 H   0  0
   20.3660    0.2503    0.0000 H   0  0
   19.4998    1.7500    0.0000 H   0  0
   20.3658    1.2501    0.0000 H   0  0
   17.7697    2.7496    0.0000 H   0  0
   16.9045    3.2508    0.0000 H   0  0
   16.0378    2.7523    0.0000 H   0  0
  1  2  1  0
  2  3  1  0
  2 14  1  0
  3  4  1  0
  4  5  1  0
  4 13  1  0
  5  6  2  0
  5  7  1  0
  8  7  1  0
  8  9  2  0
  9 10  1  0
  9 12  1  0
 10 11  1  0
 14 15  2  0
 14 16  1  0
 17 16  1  0
 17 18  2  0
 18 19  1  0
 18 21  1  0
 19 20  1  0
  1 22  1  0
  1 23  1  0
  1 24  1  0
 11 25  1  0
 11 26  1  0
 11 27  1  0
 12 28  1  0
 12 29  1  0
 12 30  1  0
 13 31  1  0
 13 32  1  0
 13 33  1  0
 20 34  1  0
 20 35  1  0
 20 36  1  0
 21 37  1  0
 21 38  1  0
 21 39  1  0
M  END
> <DSSTox_RID>
40613

> <DSSTox_CID>
12578

> <DSSTox_Generic_SID>
32578

> <DSSTox_FileID>
300_TOXCST_v3a

> <STRUCTURE_Formula>
C10H18N4O4S3

> <STRUCTURE_MolecularWeight>
354.4693

> <STRUCTURE_ChemicalType>
defined organic

> <STRUCTURE_TestedForm_DefinedOrganic>
parent

> <STRUCTURE_Shown>
tested chemical

> <TestSubstance_ChemicalName>
Thiodicarb

> <Source_ChemicalName>
Thiodicarb

> <TestSubstance_CASRN>
59669-26-0

> <TestSubstance_Description>
single chemical compound

> <STRUCTURE_ChemicalName_IUPAC>
dimethyl N,N'-(thiobis((methylimino)carbonyloxy))bis(thioimidoacetate)

> <STRUCTURE_SMILES>
O=C(O/N=C(C)/SC)N(C)SN(C(O/N=C(C)/SC)=O)C

> <STRUCTURE_Parent_SMILES>
O=C(O/N=C(C)/SC)N(C)SN(C(O/N=C(C)/SC)=O)C

> <STRUCTURE_InChI>
InChI=1S/C10H18N4O4S3/c1-7(19-5)11-17-9(15)13(3)21-14(4)10(16)18-12-8(2)20-6/h1-6H3/b11-7+,12-8+

> <STRUCTURE_InChIKey>
XDOTVMNBCQVZKG-MKICQXMISA-N

> <Substance_modify_yyyymmdd>
20080429

> <DSSTox_CID_Parent>
12578

> <ChemicalReplicateCount>
1

> <Coord_Metals>
0

> <Index>
300

> <Canonical_Smiles>
CSC(=NOC(=O)N(C)SN(C)C(=O)ON=C(C)SC)C

> <Molecular_Weight>
354.46932

> <Frequency>
1

$$$$

  SciTegic          2D

 36 36  0  0  0  0            999 V2000
    2.5951    3.0039    0.0000 C   0  0
    2.5951   -3.0039    0.0000 C   0  0
    3.8933    3.7570    0.0000 N   0  0
    3.8933   -3.7570    0.0000 N   0  0
    3.8912    5.2578    0.0000 C   0  0
    3.8912   -5.2578    0.0000 C   0  0
    2.5972    1.5031    0.0000 N   0  0
    2.5973   -1.5031    0.0000 N   0  0
    1.2990   -0.7500    0.0000 C   0  0
    1.2990    0.7500    0.0000 C   0  0
    1.5548   -3.6021    0.0000 S   0  0
    1.5548    3.6021    0.0000 S   0  0
    2.8509    5.8560    0.0000 O   0  0
    2.8509   -5.8560    0.0000 O   0  0
    5.1894    6.0109    0.0000 O   0  0
    5.1894   -6.0109    0.0000 O   0  0
    0.0000    1.5000    0.0000 C   0  0
    0.0000   -1.5000    0.0000 C   0  0
    5.1873   -7.5117    0.0000 C   0  0
    5.1872    7.5118    0.0000 C   0  0
   -1.2990   -0.7500    0.0000 C   0  0
   -1.2990    0.7500    0.0000 C   0  0
    4.7602    3.2585    0.0000 H   0  0
    4.7602   -3.2585    0.0000 H   0  0
    3.4641    1.0046    0.0000 H   0  0
    3.4642   -1.0046    0.0000 H   0  0
    0.0000    2.5000    0.0000 H   0  0
    0.0000   -2.5000    0.0000 H   0  0
    6.0523   -8.0135    0.0000 H   0  0
    4.3204   -8.0102    0.0000 H   0  0
    5.1854   -8.5117    0.0000 H   0  0
    6.0522    8.0135    0.0000 H   0  0
    4.3203    8.0102    0.0000 H   0  0
    5.1853    8.5118    0.0000 H   0  0
   -2.1651   -1.2500    0.0000 H   0  0
   -2.1651    1.2500    0.0000 H   0  0
  1  3  1  0
  1  7  1  0
  1 12  2  0
  2  8  1  0
  2  4  1  0
  2 11  2  0
  3  5  1  0
  4  6  1  0
  5 13  2  0
  5 15  1  0
  6 14  2  0
  6 16  1  0
  7 10  1  0
  8  9  1  0
  9 10  2  0
  9 18  1  0
 10 17  1  0
 15 20  1  0
 16 19  1  0
 17 22  2  0
 18 21  2  0
 21 22  1  0
  3 23  1  0
  4 24  1  0
  7 25  1  0
  8 26  1  0
 17 27  1  0
 18 28  1  0
 19 29  1  0
 19 30  1  0
 19 31  1  0
 20 32  1  0
 20 33  1  0
 20 34  1  0
 21 35  1  0
 22 36  1  0
M  END
> <DSSTox_RID>
40614

> <DSSTox_CID>
4338

> <DSSTox_Generic_SID>
24338

> <DSSTox_FileID>
301_TOXCST_v3a

> <STRUCTURE_Formula>
C12H14N4O4S2

> <STRUCTURE_MolecularWeight>
342.394

> <STRUCTURE_ChemicalType>
defined organic

> <STRUCTURE_TestedForm_DefinedOrganic>
parent

> <STRUCTURE_Shown>
tested chemical

> <TestSubstance_ChemicalName>
Thiophanate-methyl

> <Source_ChemicalName>
Thiophanate-methyl

> <TestSubstance_CASRN>
23564-05-8

> <TestSubstance_Description>
single chemical compound

> <STRUCTURE_ChemicalName_IUPAC>
dimethyl [1,2-phenylenebis(iminocarbonothioyl)]biscarbamate

> <STRUCTURE_SMILES>
S=C(Nc1ccccc1NC(=S)NC(=O)OC)NC(=O)OC

> <STRUCTURE_Parent_SMILES>
S=C(Nc1ccccc1NC(=S)NC(=O)OC)NC(=O)OC

> <STRUCTURE_InChI>
InChI=1S/C12H14N4O4S2/c1-19-11(17)15-9(21)13-7-5-3-4-6-8(7)14-10(22)16-12(18)20-2/h3-6H,1-2H3,(H2,13,15,17,21)(H2,14,16,18,22)

> <STRUCTURE_InChIKey>
QGHREAKMXXNCOA-UHFFFAOYSA-N

> <Substance_modify_yyyymmdd>
20080429

> <DSSTox_CID_Parent>
4338

> <ChemicalReplicateCount>
1

> <Coord_Metals>
0

> <Index>
301

> <Canonical_Smiles>
COC(=O)NC(=S)Nc1ccccc1NC(=S)NC(=O)OC

> <Molecular_Weight>
342.39396

> <Frequency>
1

$$$$

  SciTegic          2D

 24 23  0  0  0  0            999 V2000
    3.9000    1.9500    0.0000 S   0  0
    3.9000    0.7500    0.0000 C   0  0
    2.6000    0.0000    0.0000 N   0  0
    1.3000    0.7500    0.0000 C   0  0
    2.6031   -1.5008    0.0000 C   0  0
    5.2000    0.0000    0.0000 S   0  0
    6.5000    0.7500    0.0000 S   0  0
    7.7999    0.0000    0.0000 C   0  0
    7.7999   -1.2000    0.0000 S   0  0
    9.0999    0.7500    0.0000 N   0  0
   10.3999    0.0000    0.0000 C   0  0
    9.0968    2.2508    0.0000 C   0  0
    0.4338    0.2503    0.0000 H   0  0
    1.3000    1.7500    0.0000 H   0  0
    0.4340    1.2501    0.0000 H   0  0
    3.4698   -1.9996    0.0000 H   0  0
    2.6046   -2.5008    0.0000 H   0  0
    1.7379   -2.0023    0.0000 H   0  0
   11.2661    0.4997    0.0000 H   0  0
   10.3999   -1.0000    0.0000 H   0  0
   11.2659   -0.5001    0.0000 H   0  0
    8.2301    2.7496    0.0000 H   0  0
    9.0953    3.2508    0.0000 H   0  0
    9.9620    2.7523    0.0000 H   0  0
  1  2  2  0
  2  3  1  0
  2  6  1  0
  3  4  1  0
  3  5  1  0
  6  7  1  0
  7  8  1  0
  8  9  2  0
  8 10  1  0
 10 11  1  0
 10 12  1  0
  4 13  1  0
  4 14  1  0
  4 15  1  0
  5 16  1  0
  5 17  1  0
  5 18  1  0
 11 19  1  0
 11 20  1  0
 11 21  1  0
 12 22  1  0
 12 23  1  0
 12 24  1  0
M  END
> <DSSTox_RID>
40606

> <DSSTox_CID>
1332

> <DSSTox_Generic_SID>
21332

> <DSSTox_FileID>
302_TOXCST_v3a

> <STRUCTURE_Formula>
C6H12N2S4

> <STRUCTURE_MolecularWeight>
240.4329

> <STRUCTURE_ChemicalType>
defined organic

> <STRUCTURE_TestedForm_DefinedOrganic>
parent

> <STRUCTURE_Shown>
tested chemical

> <TestSubstance_ChemicalName>
Thiram

> <Source_ChemicalName>
Thiram

> <TestSubstance_CASRN>
137-26-8

> <TestSubstance_Description>
single chemical compound

> <STRUCTURE_ChemicalName_IUPAC>
[dithiobis(carbonothioylnitrilo)]tetramethane

> <STRUCTURE_SMILES>
S=C(N(C)C)SSC(=S)N(C)C

> <STRUCTURE_Parent_SMILES>
S=C(N(C)C)SSC(=S)N(C)C

> <STRUCTURE_InChI>
InChI=1S/C6H12N2S4/c1-7(2)5(9)11-12-6(10)8(3)4/h1-4H3

> <STRUCTURE_InChIKey>
KUAZQDVKQLNFPE-UHFFFAOYSA-N

> <Substance_modify_yyyymmdd>
20080429

> <DSSTox_CID_Parent>
1332

> <ChemicalReplicateCount>
1

> <Coord_Metals>
0

> <Index>
302

> <Canonical_Smiles>
CN(C)C(=S)SSC(=S)N(C)C

> <Molecular_Weight>
240.43287

> <Frequency>
1

$$$$

  SciTegic          2D

 51 52  0  0  0  0            999 V2000
    1.2990   -0.7500    0.0000 C   0  0
    1.2990    0.7500    0.0000 C   0  0
    0.0000   -1.5000    0.0000 C   0  0
   -1.2990    0.7500    0.0000 C   0  0
   -2.7625    0.9726    0.0000 C   0  0
   -3.6993   -0.1990    0.0000 C   0  0
   -3.3087    2.3696    0.0000 C   0  0
    0.0000    1.5000    0.0000 C   0  0
   -1.2990   -0.7500    0.0000 C   0  0
    2.2614   -1.9017    0.0000 C   0  0
   -5.1822    0.0266    0.0000 C   0  0
   -4.7916    2.5951    0.0000 C   0  0
    0.0000   -2.7000    0.0000 O   0  0
    1.7461   -3.3113    0.0000 N   0  0
   -5.7284    1.4236    0.0000 C   0  0
    2.6003    1.4978    0.0000 O   0  0
    2.7084   -4.4629    0.0000 O   0  0
   -3.1528   -1.5968    0.0000 C   0  0
   -2.3714    3.5417    0.0000 C   0  0
    3.7404   -1.6467    0.0000 C   0  0
   -7.2122    1.6493    0.0000 C   0  0
    2.1931   -5.8725    0.0000 C   0  0
    4.7015   -2.7994    0.0000 C   0  0
    3.1554   -7.0242    0.0000 C   0  0
   -1.2756    1.7497    0.0000 H   0  0
    0.0236    0.5003    0.0000 H   0  0
    0.8775    1.9795    0.0000 H   0  0
   -2.1530   -0.2297    0.0000 H   0  0
   -1.2755   -1.7497    0.0000 H   0  0
   -5.8068   -0.7544    0.0000 H   0  0
   -5.1557    3.5265    0.0000 H   0  0
    3.4656    0.9965    0.0000 H   0  0
   -2.1643   -1.7477    0.0000 H   0  0
   -3.7776   -2.3776    0.0000 H   0  0
   -2.7892   -2.5283    0.0000 H   0  0
   -1.3826    3.3920    0.0000 H   0  0
   -2.7358    4.4730    0.0000 H   0  0
   -1.7472    4.3230    0.0000 H   0  0
    3.1004   -0.8783    0.0000 H   0  0
    4.0857   -0.7082    0.0000 H   0  0
   -7.8372    0.8686    0.0000 H   0  0
   -7.5760    2.5807    0.0000 H   0  0
   -8.2007    1.8001    0.0000 H   0  0
    1.5515   -5.1055    0.0000 H   0  0
    1.2080   -6.0445    0.0000 H   0  0
    5.6869   -2.6295    0.0000 H   0  0
    5.3415   -3.5678    0.0000 H   0  0
    4.3562   -3.7379    0.0000 H   0  0
    2.8121   -7.9634    0.0000 H   0  0
    3.7970   -7.7913    0.0000 H   0  0
    4.1406   -6.8523    0.0000 H   0  0
  1  2  2  0
  1  3  1  0
  1 10  1  0
  2  8  1  0
  2 16  1  0
  3  9  1  0
  3 13  2  0
  4  9  1  0
  4  5  1  0
  4  8  1  0
  5  6  2  0
  5  7  1  0
  6 11  1  0
  6 18  1  0
  7 12  2  0
  7 19  1  0
 10 14  2  0
 10 20  1  0
 11 15  2  0
 12 15  1  0
 14 17  1  0
 15 21  1  0
 17 22  1  0
 20 23  1  0
 22 24  1  0
  4 25  1  0
  8 26  1  0
  8 27  1  0
  9 28  1  0
  9 29  1  0
 11 30  1  0
 12 31  1  0
 16 32  1  0
 18 33  1  0
 18 34  1  0
 18 35  1  0
 19 36  1  0
 19 37  1  0
 19 38  1  0
 20 39  1  0
 20 40  1  0
 21 41  1  0
 21 42  1  0
 21 43  1  0
 22 44  1  0
 22 45  1  0
 23 46  1  0
 23 47  1  0
 23 48  1  0
 24 49  1  0
 24 50  1  0
 24 51  1  0
M  END
> <DSSTox_RID>
40615

> <DSSTox_CID>
14973

> <DSSTox_Generic_SID>
34973

> <DSSTox_FileID>
303_TOXCST_v3a

> <STRUCTURE_Formula>
C20H27NO3

> <STRUCTURE_MolecularWeight>
329.4333

> <STRUCTURE_ChemicalType>
defined organic

> <STRUCTURE_TestedForm_DefinedOrganic>
parent

> <STRUCTURE_Shown>
tested chemical

> <TestSubstance_ChemicalName>
Tralkoxydim

> <Source_ChemicalName>
Tralkoxydim

> <TestSubstance_CASRN>
87820-88-0

> <TestSubstance_Description>
single chemical compound

> <STRUCTURE_ChemicalName_IUPAC>
2-(N-ethoxypropanimidoyl)-3-hydroxy-5-mesitylcyclohex-2-en-1-one

> <STRUCTURE_SMILES>
O=C1C(C(CC)=NOCC)=C(O)CC(C2=C(C)C=C(C)C=C2C)C1

> <STRUCTURE_Parent_SMILES>
O=C1C(C(CC)=NOCC)=C(O)CC(C2=C(C)C=C(C)C=C2C)C1

> <STRUCTURE_InChI>
InChI=1S/C20H27NO3/c1-6-16(21-24-7-2)20-17(22)10-15(11-18(20)23)19-13(4)8-12(3)9-14(19)5/h8-9,15,22H,6-7,10-11H2,1-5H3

> <STRUCTURE_InChIKey>
DQFPEYARZIQXRM-UHFFFAOYSA-N

> <Substance_modify_yyyymmdd>
20080429

> <DSSTox_CID_Parent>
14973

> <ChemicalReplicateCount>
1

> <Coord_Metals>
0

> <Index>
303

> <Canonical_Smiles>
CCON=C(CC)C1=C(O)CC(CC1=O)c2c(C)cc(C)cc2C

> <Molecular_Weight>
329.43328

> <Frequency>
1

$$$$

  SciTegic          2D

 36 37  0  0  0  0            999 V2000
   -0.0119   -7.5003    0.0000 C   0  0
    1.2866   -8.2529    0.0000 N   0  0
   -1.3143   -8.2461    0.0000 C   0  0
    3.6407   -8.7506    0.0000 N   0  0
    1.4218   -9.7340    0.0000 N   0  0
    2.6390   -7.6342    0.0000 C   0  0
    2.8885  -10.0484    0.0000 C   0  0
   -0.0101   -5.9994    0.0000 O   0  0
   -1.3205   -9.7469    0.0000 C   0  0
   -2.1784   -7.7428    0.0000 O   0  0
   -1.3085   -5.2467    0.0000 C   0  0
   -3.9070   -3.7473    0.0000 C   0  0
   -4.9463   -3.1475    0.0000 Cl  0  0
   -1.3089   -3.7466    0.0000 C   0  0
   -2.6074   -5.9970    0.0000 C   0  0
   -2.6081   -2.9970    0.0000 C   0  0
   -3.9066   -5.2473    0.0000 C   0  0
   -2.6228  -10.4928    0.0000 C   0  0
   -0.0237  -10.5023    0.0000 C   0  0
   -2.6411   -8.9744    0.0000 C   0  0
   -0.8767   -6.9982    0.0000 H   0  0
    2.8427   -6.6552    0.0000 H   0  0
    3.2937  -10.9626    0.0000 H   0  0
   -0.4430   -3.2464    0.0000 H   0  0
   -2.6071   -6.9970    0.0000 H   0  0
   -2.6083   -1.9970    0.0000 H   0  0
   -4.7725   -5.7475    0.0000 H   0  0
   -2.6270  -11.4928    0.0000 H   0  0
   -3.4909  -10.9894    0.0000 H   0  0
   -3.4870   -9.9895    0.0000 H   0  0
    0.8446  -10.0061    0.0000 H   0  0
    0.8402  -11.0060    0.0000 H   0  0
   -0.0278  -11.5023    0.0000 H   0  0
   -2.6360   -7.9745    0.0000 H   0  0
   -3.5098   -9.4698    0.0000 H   0  0
   -3.5045   -8.4699    0.0000 H   0  0
  1  2  1  0
  1  3  1  0
  1  8  1  0
  2  5  1  0
  2  6  1  0
  3  9  1  0
  3 10  2  0
  4  6  2  0
  4  7  1  0
  5  7  2  0
  8 11  1  0
  9 18  1  0
  9 19  1  0
  9 20  1  0
 11 14  1  0
 11 15  2  0
 12 17  2  0
 12 13  1  0
 12 16  1  0
 14 16  2  0
 15 17  1  0
  1 21  1  0
  6 22  1  0
  7 23  1  0
 14 24  1  0
 15 25  1  0
 16 26  1  0
 17 27  1  0
 18 28  1  0
 18 29  1  0
 18 30  1  0
 19 31  1  0
 19 32  1  0
 19 33  1  0
 20 34  1  0
 20 35  1  0
 20 36  1  0
M  END
> <DSSTox_RID>
40616

> <DSSTox_CID>
3897

> <DSSTox_Generic_SID>
23897

> <DSSTox_FileID>
304_TOXCST_v3a

> <STRUCTURE_Formula>
C14H16ClN3O2

> <STRUCTURE_MolecularWeight>
293.7487

> <STRUCTURE_ChemicalType>
defined organic

> <STRUCTURE_TestedForm_DefinedOrganic>
parent

> <STRUCTURE_Shown>
tested chemical

> <TestSubstance_ChemicalName>
Triadimefon

> <Source_ChemicalName>
Triadimefon

> <TestSubstance_CASRN>
43121-43-3

> <TestSubstance_Description>
single chemical compound

> <ChemicalNote>
mixture of (R,S) isomers; structure shown without stereochem

> <STRUCTURE_ChemicalName_IUPAC>
1-(4-chlorophenoxy)-3,3-dimethyl-1-(1H-1,2,4-triazol-1-yl)butan-2-one

> <STRUCTURE_SMILES>
CC(C)(C)C(=O)C(Oc1ccc(Cl)cc1)n2cncn2

> <STRUCTURE_Parent_SMILES>
CC(C)(C)C(=O)C(Oc1ccc(Cl)cc1)n2cncn2

> <STRUCTURE_InChI>
InChI=1S/C14H16ClN3O2/c1-14(2,3)12(19)13(18-9-16-8-17-18)20-11-6-4-10(15)5-7-11/h4-9,13H,1-3H3

> <STRUCTURE_InChIKey>
WURBVZBTWMNKQT-UHFFFAOYSA-N

> <Substance_modify_yyyymmdd>
20080429

> <DSSTox_CID_Parent>
3897

> <ChemicalReplicateCount>
1

> <Coord_Metals>
0

> <Index>
304

> <Canonical_Smiles>
CC(C)(C)C(=O)C(Oc1ccc(Cl)cc1)n2cncn2

> <Molecular_Weight>
293.74874

> <Frequency>
1

$$$$

  SciTegic          2D

 38 39  0  0  0  0            999 V2000
    2.5951   -3.0039    0.0000 C   0  0
    2.5987   -1.5032    0.0000 C   0  0
    1.3005   -0.7501    0.0000 C   0  0
    1.3026    0.7507    0.0000 C   0  0
    3.9005   -0.7563    0.0000 O   0  0
    1.2934   -3.7508    0.0000 O   0  0
    1.2884   -5.2516    0.0000 C   0  0
   -0.0116   -6.0000    0.0000 C   0  0
    2.5865   -6.0033    0.0000 C   0  0
   -0.0135   -7.5000    0.0000 C   0  0
    2.5846   -7.5033    0.0000 C   0  0
    1.2846   -8.2516    0.0000 C   0  0
    1.2831   -9.4516    0.0000 Cl  0  0
    2.6254    0.0151    0.0000 C   0  0
   -0.0005   -1.4982    0.0000 C   0  0
    3.8933   -3.7570    0.0000 N   0  0
    4.0281   -5.2381    0.0000 N   0  0
    5.4946   -5.5530    0.0000 C   0  0
    6.2473   -4.2555    0.0000 N   0  0
    5.2459   -3.1387    0.0000 C   0  0
    2.5927   -4.0039    0.0000 H   0  0
    2.6011   -0.5032    0.0000 H   0  0
    0.4376    1.2525    0.0000 H   0  0
    1.3045    1.7507    0.0000 H   0  0
    2.1695    1.2492    0.0000 H   0  0
    4.7654   -1.2580    0.0000 H   0  0
   -0.8770   -5.4989    0.0000 H   0  0
    3.4531   -5.5044    0.0000 H   0  0
   -0.8802   -7.9989    0.0000 H   0  0
    3.4499   -8.0044    0.0000 H   0  0
    2.6258    1.0151    0.0000 H   0  0
    3.4913   -0.4851    0.0000 H   0  0
    3.4916    0.5148    0.0000 H   0  0
   -0.8660   -0.9972    0.0000 H   0  0
   -0.0019   -2.4982    0.0000 H   0  0
   -0.8672   -1.9971    0.0000 H   0  0
    5.8995   -6.4673    0.0000 H   0  0
    5.4500   -2.1597    0.0000 H   0  0
  1  2  1  0
  1  6  1  0
  1 16  1  0
  2  3  1  0
  2  5  1  0
  3  4  1  0
  3 14  1  0
  3 15  1  0
  6  7  1  0
  7  8  2  0
  7  9  1  0
  8 10  1  0
  9 11  2  0
 10 12  2  0
 11 12  1  0
 12 13  1  0
 16 17  1  0
 16 20  1  0
 17 18  2  0
 18 19  1  0
 19 20  2  0
  1 21  1  0
  2 22  1  0
  4 23  1  0
  4 24  1  0
  4 25  1  0
  5 26  1  0
  8 27  1  0
  9 28  1  0
 10 29  1  0
 11 30  1  0
 14 31  1  0
 14 32  1  0
 14 33  1  0
 15 34  1  0
 15 35  1  0
 15 36  1  0
 18 37  1  0
 20 38  1  0
M  END
> <DSSTox_RID>
40617

> <DSSTox_CID>
12493

> <DSSTox_Generic_SID>
32493

> <DSSTox_FileID>
305_TOXCST_v3a

> <STRUCTURE_Formula>
C14H18ClN3O2

> <STRUCTURE_MolecularWeight>
295.7646

> <STRUCTURE_ChemicalType>
defined organic

> <STRUCTURE_TestedForm_DefinedOrganic>
parent

> <STRUCTURE_Shown>
tested chemical

> <TestSubstance_ChemicalName>
Triadimenol

> <Source_ChemicalName>
Triadimenol

> <TestSubstance_CASRN>
55219-65-3

> <TestSubstance_Description>
single chemical compound

> <ChemicalNote>
mixture of A (1RS,2SR), B (1RS,2RS) isomers (7:3); structure shown without stereochem

> <STRUCTURE_ChemicalName_IUPAC>
1-(4-chlorophenoxy)-3,3-dimethyl-1-(1H-1,2,4-triazol-1-yl)butan-2-ol

> <STRUCTURE_SMILES>
OC(C(C)(C)C)C(N2N=CN=C2)OC1=CC=C(Cl)C=C1

> <STRUCTURE_Parent_SMILES>
OC(C(C)(C)C)C(N2N=CN=C2)OC1=CC=C(Cl)C=C1

> <STRUCTURE_InChI>
InChI=1S/C14H18ClN3O2/c1-14(2,3)12(19)13(18-9-16-8-17-18)20-11-6-4-10(15)5-7-11/h4-9,12-13,19H,1-3H3

> <STRUCTURE_InChIKey>
BAZVSMNPJJMILC-UHFFFAOYSA-N

> <Substance_modify_yyyymmdd>
20080429

> <DSSTox_CID_Parent>
12493

> <ChemicalReplicateCount>
1

> <Coord_Metals>
0

> <Index>
305

> <Canonical_Smiles>
CC(C)(C)C(O)C(Oc1ccc(Cl)cc1)n2cncn2

> <Molecular_Weight>
295.76462

> <Frequency>
1

$$$$

  SciTegic          2D

 32 31  0  0  0  0            999 V2000
    6.5000    0.7500    0.0000 C   0  0
    2.6000    0.0000    0.0000 C   0  0
    1.3000    0.7500    0.0000 C   0  0
    7.7999    0.0000    0.0000 N   0  0
    5.2000    0.0000    0.0000 S   0  0
    3.9000    0.7500    0.0000 C   0  0
    6.5000    1.9500    0.0000 O   0  0
    2.6000   -1.2000    0.0000 Cl  0  0
    0.2606    0.1503    0.0000 Cl  0  0
    1.3000    1.9500    0.0000 Cl  0  0
    9.2780    0.2601    0.0000 C   0  0
    7.7999   -1.5007    0.0000 C   0  0
    9.7927    1.6700    0.0000 C   0  0
    6.2534   -1.5797    0.0000 C   0  0
    8.2932    1.4310    0.0000 C   0  0
    8.5051   -2.8794    0.0000 C   0  0
    3.9000    1.7500    0.0000 H   0  0
    4.7659    1.2501    0.0000 H   0  0
    9.9203   -0.5063    0.0000 H   0  0
    8.6660   -2.0006    0.0000 H   0  0
   10.7776    1.8433    0.0000 H   0  0
    9.1504    2.4364    0.0000 H   0  0
   10.1352    2.6095    0.0000 H   0  0
    5.7530   -0.7139    0.0000 H   0  0
    5.2535   -1.5927    0.0000 H   0  0
    5.7758   -2.4583    0.0000 H   0  0
    7.3085    1.2567    0.0000 H   0  0
    8.6343    2.3710    0.0000 H   0  0
    7.6498    2.1965    0.0000 H   0  0
    9.5051   -2.8797    0.0000 H   0  0
    7.9832   -3.7324    0.0000 H   0  0
    8.9940   -3.7518    0.0000 H   0  0
  1  4  1  0
  1  5  1  0
  1  7  2  0
  2  6  1  0
  2  3  2  0
  2  8  1  0
  3  9  1  0
  3 10  1  0
  4 11  1  0
  4 12  1  0
  5  6  1  0
 11 13  1  0
 11 15  1  0
 12 14  1  0
 12 16  1  0
  6 17  1  0
  6 18  1  0
 11 19  1  0
 12 20  1  0
 13 21  1  0
 13 22  1  0
 13 23  1  0
 14 24  1  0
 14 25  1  0
 14 26  1  0
 15 27  1  0
 15 28  1  0
 15 29  1  0
 16 30  1  0
 16 31  1  0
 16 32  1  0
M  END
> <DSSTox_RID>
40618

> <DSSTox_CID>
4344

> <DSSTox_Generic_SID>
24344

> <DSSTox_FileID>
306_TOXCST_v3a

> <STRUCTURE_Formula>
C10H16Cl3NOS

> <STRUCTURE_MolecularWeight>
304.6641

> <STRUCTURE_ChemicalType>
defined organic

> <STRUCTURE_TestedForm_DefinedOrganic>
parent

> <STRUCTURE_Shown>
tested chemical

> <TestSubstance_ChemicalName>
Tri-allate

> <Source_ChemicalName>
Tri-allate

> <TestSubstance_CASRN>
2303-17-5

> <TestSubstance_Description>
single chemical compound

> <STRUCTURE_ChemicalName_IUPAC>
S-(2,3,3-trichloroprop-2-en-1-yl) diisopropylthiocarbamate

> <STRUCTURE_SMILES>
CC(C)N(C(=O)SCC(\Cl)=C(/Cl)Cl)C(C)C

> <STRUCTURE_Parent_SMILES>
CC(C)N(C(=O)SCC(\Cl)=C(/Cl)Cl)C(C)C

> <STRUCTURE_InChI>
InChI=1S/C10H16Cl3NOS/c1-6(2)14(7(3)4)10(15)16-5-8(11)9(12)13/h6-7H,5H2,1-4H3

> <STRUCTURE_InChIKey>
MWBPRDONLNQCFV-UHFFFAOYSA-N

> <Substance_modify_yyyymmdd>
20080429

> <DSSTox_CID_Parent>
4344

> <ChemicalReplicateCount>
1

> <Coord_Metals>
0

> <Index>
306

> <Canonical_Smiles>
CC(C)N(C(C)C)C(=O)SCC(=C(Cl)Cl)Cl

> <Molecular_Weight>
304.66414

> <Frequency>
1

$$$$

  SciTegic          2D

 42 43  0  0  0  0            999 V2000
    1.2990   -0.7500    0.0000 C   0  0
    1.2990    0.7500    0.0000 C   0  0
    0.0000    1.5000    0.0000 C   0  0
   -1.2990    0.7500    0.0000 C   0  0
   -1.2990   -0.7500    0.0000 C   0  0
    0.0000   -1.5000    0.0000 C   0  0
    2.5988   -1.5004    0.0000 S   0  0
    2.5984   -2.7004    0.0000 O   0  0
    3.6377   -2.1009    0.0000 O   0  0
    3.8990   -0.7508    0.0000 N   0  0
   -0.0031   -3.0008    0.0000 O   0  0
   -1.3039   -3.7494    0.0000 C   0  0
   -1.3070   -5.2502    0.0000 C   0  0
   -2.3471   -5.8487    0.0000 Cl  0  0
    5.1988   -1.5012    0.0000 C   0  0
    5.1984   -2.7012    0.0000 O   0  0
    6.4990   -0.7516    0.0000 N   0  0
    9.0994   -0.7548    0.0000 N   0  0
    7.7988   -1.5020    0.0000 C   0  0
    7.7958   -3.0021    0.0000 N   0  0
    9.0933   -3.7547    0.0000 C   0  0
   10.3938   -3.0074    0.0000 N   0  0
   10.3969   -1.5074    0.0000 C   0  0
    9.0933   -5.2556    0.0000 O   0  0
   10.3926   -6.0068    0.0000 C   0  0
   11.6982   -0.7596    0.0000 C   0  0
    2.1651    1.2500    0.0000 H   0  0
    0.0000    2.5000    0.0000 H   0  0
   -2.1651    1.2500    0.0000 H   0  0
   -2.1651   -1.2500    0.0000 H   0  0
    3.8993    0.2492    0.0000 H   0  0
   -2.1691   -3.2479    0.0000 H   0  0
   -1.3023   -2.7494    0.0000 H   0  0
   -0.4418   -5.7517    0.0000 H   0  0
   -1.3086   -6.2502    0.0000 H   0  0
    6.4993    0.2484    0.0000 H   0  0
   10.3926   -7.0068    0.0000 H   0  0
   11.2588   -5.5070    0.0000 H   0  0
   11.2586   -6.5069    0.0000 H   0  0
   11.7008    0.2404    0.0000 H   0  0
   12.5630   -1.2617    0.0000 H   0  0
   12.5655   -0.2618    0.0000 H   0  0
  1  2  1  0
  1  6  2  0
  1  7  1  0
  2  3  2  0
  3  4  1  0
  4  5  2  0
  5  6  1  0
  6 11  1  0
  7  8  2  0
  7 10  1  0
  7  9  2  0
 10 15  1  0
 11 12  1  0
 12 13  1  0
 13 14  1  0
 15 16  2  0
 15 17  1  0
 17 19  1  0
 18 19  2  0
 18 23  1  0
 19 20  1  0
 20 21  2  0
 21 22  1  0
 21 24  1  0
 22 23  2  0
 23 26  1  0
 24 25  1  0
  2 27  1  0
  3 28  1  0
  4 29  1  0
  5 30  1  0
 10 31  1  0
 12 32  1  0
 12 33  1  0
 13 34  1  0
 13 35  1  0
 17 36  1  0
 25 37  1  0
 25 38  1  0
 25 39  1  0
 26 40  1  0
 26 41  1  0
 26 42  1  0
M  END
> <DSSTox_RID>
40619

> <DSSTox_CID>
4345

> <DSSTox_Generic_SID>
24345

> <DSSTox_FileID>
307_TOXCST_v3a

> <STRUCTURE_Formula>
C14H16ClN5O5S

> <STRUCTURE_MolecularWeight>
401.8253

> <STRUCTURE_ChemicalType>
defined organic

> <STRUCTURE_TestedForm_DefinedOrganic>
parent

> <STRUCTURE_Shown>
tested chemical

> <TestSubstance_ChemicalName>
Triasulfuron

> <Source_ChemicalName>
Triasulfuron

> <TestSubstance_CASRN>
82097-50-5

> <TestSubstance_Description>
single chemical compound

> <STRUCTURE_ChemicalName_IUPAC>
2-(2-chloroethoxy)-N-{[(4-methoxy-6-methyl-1,3,5-triazin-2-yl)amino]carbonyl}benzenesulfonamide

> <STRUCTURE_SMILES>
Cc2nc(NC(=O)NS(=O)(=O)c1ccccc1OCCCl)nc(OC)n2

> <STRUCTURE_Parent_SMILES>
Cc2nc(NC(=O)NS(=O)(=O)c1ccccc1OCCCl)nc(OC)n2

> <STRUCTURE_InChI>
InChI=1S/C14H16ClN5O5S/c1-9-16-12(19-14(17-9)24-2)18-13(21)20-26(22,23)11-6-4-3-5-10(11)25-8-7-15/h3-6H,7-8H2,1-2H3,(H2,16,17,18,19,20,21)

> <STRUCTURE_InChIKey>
XOPFESVZMSQIKC-UHFFFAOYSA-N

> <Substance_modify_yyyymmdd>
20080429

> <DSSTox_CID_Parent>
4345

> <ChemicalReplicateCount>
1

> <Coord_Metals>
0

> <Index>
307

> <Canonical_Smiles>
COc1nc(C)nc(NC(=O)NS(=O)(=O)c2ccccc2OCCCl)n1

> <Molecular_Weight>
401.82534

> <Frequency>
1

$$$$

  SciTegic          2D

 44 45  0  0  0  0            999 V2000
    1.2990   -0.7500    0.0000 C   0  0
    1.2990    0.7500    0.0000 C   0  0
    2.5988   -1.5004    0.0000 S   0  0
    0.0000   -1.5000    0.0000 C   0  0
    0.0000    1.5000    0.0000 C   0  0
    2.5972    1.5031    0.0000 C   0  0
    3.8990   -0.7508    0.0000 N   0  0
    2.5984   -2.7004    0.0000 O   0  0
    3.6377   -2.1009    0.0000 O   0  0
   -1.2990   -0.7500    0.0000 C   0  0
   -1.2990    0.7500    0.0000 C   0  0
    2.5951    3.0039    0.0000 O   0  0
    3.6375    0.9049    0.0000 O   0  0
    5.1988   -1.5012    0.0000 C   0  0
    3.8933    3.7570    0.0000 C   0  0
    6.4990   -0.7516    0.0000 N   0  0
    5.1984   -2.7012    0.0000 O   0  0
    7.7988   -1.5020    0.0000 C   0  0
    9.0994   -0.7548    0.0000 N   0  0
    7.7958   -3.0021    0.0000 N   0  0
   10.3969   -1.5074    0.0000 C   0  0
    9.0933   -3.7547    0.0000 C   0  0
   10.3938   -3.0074    0.0000 N   0  0
   11.6997   -0.7623    0.0000 O   0  0
    9.0902   -5.2556    0.0000 C   0  0
   12.9969   -1.5172    0.0000 C   0  0
    6.4964    0.7492    0.0000 C   0  0
    0.0000   -2.5000    0.0000 H   0  0
    0.0000    2.5000    0.0000 H   0  0
    3.8993    0.2492    0.0000 H   0  0
   -2.1651   -1.2500    0.0000 H   0  0
   -2.1651    1.2500    0.0000 H   0  0
    3.8919    4.7570    0.0000 H   0  0
    4.7585    4.2584    0.0000 H   0  0
    4.7602    3.2585    0.0000 H   0  0
    8.2235   -5.7544    0.0000 H   0  0
    9.9554   -5.7571    0.0000 H   0  0
    9.0887   -6.2556    0.0000 H   0  0
   13.8649   -1.0208    0.0000 H   0  0
   12.9931   -2.5172    0.0000 H   0  0
   13.8609   -2.0206    0.0000 H   0  0
    5.6298    1.2482    0.0000 H   0  0
    6.4951    1.7492    0.0000 H   0  0
    7.3617    1.2504    0.0000 H   0  0
  1  2  1  0
  1  3  1  0
  1  4  2  0
  2  5  2  0
  2  6  1  0
  3  7  1  0
  3  8  2  0
  3  9  2  0
  4 10  1  0
  5 11  1  0
  6 12  1  0
  6 13  2  0
  7 14  1  0
 10 11  2  0
 12 15  1  0
 14 16  1  0
 14 17  2  0
 16 18  1  0
 16 27  1  0
 18 19  2  0
 18 20  1  0
 19 21  1  0
 20 22  2  0
 21 23  2  0
 21 24  1  0
 22 25  1  0
 22 23  1  0
 24 26  1  0
  4 28  1  0
  5 29  1  0
  7 30  1  0
 10 31  1  0
 11 32  1  0
 15 33  1  0
 15 34  1  0
 15 35  1  0
 25 36  1  0
 25 37  1  0
 25 38  1  0
 26 39  1  0
 26 40  1  0
 26 41  1  0
 27 42  1  0
 27 43  1  0
 27 44  1  0
M  END
> <DSSTox_RID>
40620

> <DSSTox_CID>
4101

> <DSSTox_Generic_SID>
24101

> <DSSTox_FileID>
308_TOXCST_v3a

> <STRUCTURE_Formula>
C15H17N5O6S

> <STRUCTURE_MolecularWeight>
395.3904

> <STRUCTURE_ChemicalType>
defined organic

> <STRUCTURE_TestedForm_DefinedOrganic>
parent

> <STRUCTURE_Shown>
tested chemical

> <TestSubstance_ChemicalName>
Tribenuron-methyl

> <Source_ChemicalName>
Tribenuron-methyl

> <TestSubstance_CASRN>
101200-48-0

> <TestSubstance_Description>
single chemical compound

> <STRUCTURE_ChemicalName_IUPAC>
methyl 2-[({[(4-methoxy-6-methyl-1,3,5-triazin-2-yl)(methyl)amino]carbonyl}amino)sulfonyl]benzoate

> <STRUCTURE_SMILES>
Cc1nc(nc(OC)n1)N(C)C(=O)NS(=O)(=O)c2ccccc2C(=O)OC

> <STRUCTURE_Parent_SMILES>
Cc1nc(nc(OC)n1)N(C)C(=O)NS(=O)(=O)c2ccccc2C(=O)OC

> <STRUCTURE_InChI>
InChI=1S/C15H17N5O6S/c1-9-16-13(18-14(17-9)26-4)20(2)15(22)19-27(23,24)11-8-6-5-7-10(11)12(21)25-3/h5-8H,1-4H3,(H,19,22)

> <STRUCTURE_InChIKey>
VLCQZHSMCYCDJL-UHFFFAOYSA-N

> <Substance_modify_yyyymmdd>
20080429

> <DSSTox_CID_Parent>
4101

> <ChemicalReplicateCount>
1

> <Coord_Metals>
0

> <Index>
308

> <Canonical_Smiles>
COC(=O)c1ccccc1S(=O)(=O)NC(=O)N(C)c2nc(C)nc(OC)n2

> <Molecular_Weight>
395.39038

> <Frequency>
1

$$$$

  SciTegic          2D

 44 43  0  0  0  0            999 V2000
    7.7999    0.0000    0.0000 P   0  0
    6.5000    0.7500    0.0000 S   0  0
    9.0999    0.7500    0.0000 S   0  0
    7.7999   -1.5007    0.0000 S   0  0
    5.2000    0.0000    0.0000 C   0  0
    6.5007   -2.2520    0.0000 C   0  0
   10.3999    0.0000    0.0000 C   0  0
    7.7999    1.2000    0.0000 O   0  0
    3.9000    0.7500    0.0000 C   0  0
    2.6000    0.0000    0.0000 C   0  0
    1.3000    0.7500    0.0000 C   0  0
    6.5007   -3.7528    0.0000 C   0  0
    5.2014   -4.5040    0.0000 C   0  0
    5.2014   -6.0049    0.0000 C   0  0
   11.6999    0.7500    0.0000 C   0  0
   12.9999    0.0000    0.0000 C   0  0
   14.2999    0.7500    0.0000 C   0  0
    5.2000   -1.0000    0.0000 H   0  0
    6.0659   -0.5001    0.0000 H   0  0
    5.6345   -1.7523    0.0000 H   0  0
    6.5002   -1.2520    0.0000 H   0  0
   10.3999   -1.0000    0.0000 H   0  0
    9.5340   -0.5001    0.0000 H   0  0
    3.9000    1.7500    0.0000 H   0  0
    3.0340    1.2501    0.0000 H   0  0
    2.6000   -1.0000    0.0000 H   0  0
    1.7340   -0.5001    0.0000 H   0  0
    0.4338    0.2503    0.0000 H   0  0
    1.3000    1.7500    0.0000 H   0  0
    0.4340    1.2501    0.0000 H   0  0
    7.3668   -4.2525    0.0000 H   0  0
    7.3666   -3.2527    0.0000 H   0  0
    4.3352   -4.0043    0.0000 H   0  0
    5.2009   -3.5040    0.0000 H   0  0
    4.3357   -6.5054    0.0000 H   0  0
    6.0676   -6.5046    0.0000 H   0  0
    5.2019   -7.0049    0.0000 H   0  0
   11.6999    1.7500    0.0000 H   0  0
   10.8340    1.2501    0.0000 H   0  0
   12.9999   -1.0000    0.0000 H   0  0
   12.1340   -0.5001    0.0000 H   0  0
   15.1661    0.2503    0.0000 H   0  0
   14.2999    1.7500    0.0000 H   0  0
   15.1658    1.2501    0.0000 H   0  0
  1  2  1  0
  1  3  1  0
  1  4  1  0
  1  8  2  0
  2  5  1  0
  3  7  1  0
  4  6  1  0
  5  9  1  0
  6 12  1  0
  7 15  1  0
  9 10  1  0
 10 11  1  0
 12 13  1  0
 13 14  1  0
 15 16  1  0
 16 17  1  0
  5 18  1  0
  5 19  1  0
  6 20  1  0
  6 21  1  0
  7 22  1  0
  7 23  1  0
  9 24  1  0
  9 25  1  0
 10 26  1  0
 10 27  1  0
 11 28  1  0
 11 29  1  0
 11 30  1  0
 12 31  1  0
 12 32  1  0
 13 33  1  0
 13 34  1  0
 14 35  1  0
 14 36  1  0
 14 37  1  0
 15 38  1  0
 15 39  1  0
 16 40  1  0
 16 41  1  0
 17 42  1  0
 17 43  1  0
 17 44  1  0
M  END
> <DSSTox_RID>
40510

> <DSSTox_CID>
4174

> <DSSTox_Generic_SID>
24174

> <DSSTox_FileID>
309_TOXCST_v3a

> <STRUCTURE_Formula>
C12H27OPS3

> <STRUCTURE_MolecularWeight>
314.5109

> <STRUCTURE_ChemicalType>
defined organic

> <STRUCTURE_TestedForm_DefinedOrganic>
parent

> <STRUCTURE_Shown>
tested chemical

> <TestSubstance_ChemicalName>
Tribufos

> <Source_ChemicalName>
Tribufos

> <TestSubstance_CASRN>
78-48-8

> <TestSubstance_Description>
single chemical compound

> <STRUCTURE_ChemicalName_IUPAC>
S,S,S-tributyl trithiophosphate

> <STRUCTURE_SMILES>
CCCCSP(=O)(SCCCC)SCCCC

> <STRUCTURE_Parent_SMILES>
CCCCSP(=O)(SCCCC)SCCCC

> <STRUCTURE_InChI>
InChI=1S/C12H27OPS3/c1-4-7-10-15-14(13,16-11-8-5-2)17-12-9-6-3/h4-12H2,1-3H3

> <STRUCTURE_InChIKey>
ZOKXUAHZSKEQSS-UHFFFAOYSA-N

> <Substance_modify_yyyymmdd>
20080429

> <DSSTox_CID_Parent>
4174

> <ChemicalReplicateCount>
1

> <Coord_Metals>
0

> <Index>
309

> <Canonical_Smiles>
CCCCSP(=O)(SCCCC)SCCCC

> <Molecular_Weight>
314.51094

> <Frequency>
1

$$$$

  SciTegic          2D

 20 19  0  0  0  0            999 V2000
    3.9000    0.7500    0.0000 P   0  0
    2.6000    0.0000    0.0000 C   0  0
    1.3000    0.7500    0.0000 C   0  0
    3.9000    1.9500    0.0000 O   0  0
    0.2606    0.1503    0.0000 Cl  0  0
    0.2609    1.3502    0.0000 Cl  0  0
    1.3000    1.9500    0.0000 Cl  0  0
    5.2000    0.0000    0.0000 O   0  0
    2.5761    1.5169    0.0000 O   0  0
    2.6000   -1.5007    0.0000 O   0  0
    2.5773    3.0177    0.0000 C   0  0
    6.5000    0.7500    0.0000 C   0  0
    1.7340   -0.5001    0.0000 H   0  0
    1.7343   -2.0013    0.0000 H   0  0
    1.7120    3.5189    0.0000 H   0  0
    2.5786    4.0177    0.0000 H   0  0
    3.4439    3.5167    0.0000 H   0  0
    7.3661    0.2503    0.0000 H   0  0
    6.5000    1.7500    0.0000 H   0  0
    7.3659    1.2501    0.0000 H   0  0
  1  2  1  0
  1  4  2  0
  1  8  1  0
  1  9  1  0
  2  3  1  0
  2 10  1  0
  3  5  1  0
  3  6  1  0
  3  7  1  0
  8 12  1  0
  9 11  1  0
  2 13  1  0
 10 14  1  0
 11 15  1  0
 11 16  1  0
 11 17  1  0
 12 18  1  0
 12 19  1  0
 12 20  1  0
M  END
> <DSSTox_RID>
40621

> <DSSTox_CID>
1389

> <DSSTox_Generic_SID>
21389

> <DSSTox_FileID>
310_TOXCST_v3a

> <STRUCTURE_Formula>
C4H8Cl3O4P

> <STRUCTURE_MolecularWeight>
257.4367

> <STRUCTURE_ChemicalType>
defined organic

> <STRUCTURE_TestedForm_DefinedOrganic>
parent

> <STRUCTURE_Shown>
tested chemical

> <TestSubstance_ChemicalName>
Trichlorfon

> <Source_ChemicalName>
Trichlorfon

> <TestSubstance_CASRN>
52-68-6

> <TestSubstance_Description>
single chemical compound

> <STRUCTURE_ChemicalName_IUPAC>
dimethyl (2,2,2-trichloro-1-hydroxyethyl)phosphonate

> <STRUCTURE_SMILES>
OC(C(Cl)(Cl)Cl)P(=O)(OC)OC

> <STRUCTURE_Parent_SMILES>
OC(C(Cl)(Cl)Cl)P(=O)(OC)OC

> <STRUCTURE_InChI>
InChI=1S/C4H8Cl3O4P/c1-10-12(9,11-2)3(8)4(5,6)7/h3,8H,1-2H3

> <STRUCTURE_InChIKey>
NFACJZMKEDPNKN-UHFFFAOYSA-N

> <Substance_modify_yyyymmdd>
20080429

> <DSSTox_CID_Parent>
1389

> <ChemicalReplicateCount>
1

> <Coord_Metals>
0

> <Index>
310

> <Canonical_Smiles>
COP(=O)(OC)C(O)C(Cl)(Cl)Cl

> <Molecular_Weight>
257.43668

> <Frequency>
1

$$$$

  SciTegic          2D

 18 18  0  0  0  0            999 V2000
    1.2990   -0.7500    0.0000 N   0  0
    1.2990    0.7500    0.0000 C   0  0
    0.0000   -1.5000    0.0000 C   0  0
   -1.2990    0.7500    0.0000 C   0  0
    0.0000    1.5000    0.0000 C   0  0
   -1.2990   -0.7500    0.0000 C   0  0
    2.6003    1.4978    0.0000 O   0  0
    5.2003    1.4932    0.0000 C   0  0
    5.2024    2.6932    0.0000 O   0  0
    0.0000   -2.7000    0.0000 Cl  0  0
    3.8990    0.7455    0.0000 C   0  0
   -2.3383   -1.3500    0.0000 Cl  0  0
    0.0000    2.7000    0.0000 Cl  0  0
    6.4990    0.7410    0.0000 O   0  0
   -2.1651    1.2500    0.0000 H   0  0
    3.0322    0.2469    0.0000 H   0  0
    3.8973   -0.2545    0.0000 H   0  0
    7.3660    1.2392    0.0000 H   0  0
  1  2  1  0
  1  3  2  0
  2  5  2  0
  2  7  1  0
  3  6  1  0
  3 10  1  0
  4  6  2  0
  4  5  1  0
  5 13  1  0
  6 12  1  0
  7 11  1  0
  8 11  1  0
  8  9  2  0
  8 14  1  0
  4 15  1  0
 11 16  1  0
 11 17  1  0
 14 18  1  0
M  END
> <DSSTox_RID>
40623

> <DSSTox_CID>
12497

> <DSSTox_Generic_SID>
32497

> <DSSTox_FileID>
311_TOXCST_v3a

> <STRUCTURE_Formula>
C7H4Cl3NO3

> <STRUCTURE_MolecularWeight>
256.4706

> <STRUCTURE_ChemicalType>
defined organic

> <STRUCTURE_TestedForm_DefinedOrganic>
parent

> <STRUCTURE_Shown>
tested chemical

> <TestSubstance_ChemicalName>
Triclopyr

> <Source_ChemicalName>
Triclopyr

> <TestSubstance_CASRN>
55335-06-3

> <TestSubstance_Description>
single chemical compound

> <STRUCTURE_ChemicalName_IUPAC>
[(3,5,6-trichloropyridin-2-yl)oxy]acetic acid

> <STRUCTURE_SMILES>
O=C(O)COC1=C(Cl)C=C(Cl)C(Cl)=N1

> <STRUCTURE_Parent_SMILES>
O=C(O)COC1=C(Cl)C=C(Cl)C(Cl)=N1

> <STRUCTURE_InChI>
InChI=1S/C7H4Cl3NO3/c8-3-1-4(9)7(11-6(3)10)14-2-5(12)13/h1H,2H2,(H,12,13)

> <STRUCTURE_InChIKey>
REEQLXCGVXDJSQ-UHFFFAOYSA-N

> <Substance_modify_yyyymmdd>
20080429

> <DSSTox_CID_Parent>
12497

> <ChemicalReplicateCount>
1

> <Coord_Metals>
0

> <Index>
311

> <Canonical_Smiles>
OC(=O)COc1nc(Cl)c(Cl)cc1Cl

> <Molecular_Weight>
256.47055

> <Frequency>
1

$$$$

  SciTegic          2D

 24 25  0  0  0  0            999 V2000
    2.5973   -1.5031    0.0000 O   0  0
    1.2990   -0.7500    0.0000 C   0  0
    2.5951   -3.0039    0.0000 C   0  0
    1.2990    0.7500    0.0000 C   0  0
    3.8915   -3.7585    0.0000 C   0  0
    0.0000    1.5000    0.0000 C   0  0
    3.8864   -5.2585    0.0000 C   0  0
    0.0000   -1.5000    0.0000 C   0  0
    1.2935   -3.7495    0.0000 C   0  0
    2.5847   -6.0040    0.0000 C   0  0
   -1.2990    0.7500    0.0000 C   0  0
    2.3383    1.3500    0.0000 Cl  0  0
    5.1954   -3.0153    0.0000 O   0  0
   -1.2990   -0.7500    0.0000 C   0  0
    1.2883   -5.2495    0.0000 C   0  0
   -2.3383    1.3500    0.0000 Cl  0  0
    2.5806   -7.2040    0.0000 Cl  0  0
    0.0000    2.5000    0.0000 H   0  0
    4.7506   -5.7615    0.0000 H   0  0
    0.0000   -2.5000    0.0000 H   0  0
    0.4292   -3.2465    0.0000 H   0  0
    6.0590   -3.5195    0.0000 H   0  0
   -2.1651   -1.2500    0.0000 H   0  0
    0.4205   -5.7465    0.0000 H   0  0
  1  2  1  0
  1  3  1  0
  2  4  1  0
  2  8  2  0
  3  5  2  0
  3  9  1  0
  4  6  2  0
  4 12  1  0
  5  7  1  0
  5 13  1  0
  6 11  1  0
  7 10  2  0
  8 14  1  0
  9 15  2  0
 10 15  1  0
 10 17  1  0
 11 14  2  0
 11 16  1  0
  6 18  1  0
  7 19  1  0
  8 20  1  0
  9 21  1  0
 13 22  1  0
 14 23  1  0
 15 24  1  0
M  END
> <DSSTox_RID>
40328

> <DSSTox_CID>
12498

> <DSSTox_Generic_SID>
32498

> <DSSTox_FileID>
312_TOXCST_v3a

> <STRUCTURE_Formula>
C12H7Cl3O2

> <STRUCTURE_MolecularWeight>
289.5418

> <STRUCTURE_ChemicalType>
defined organic

> <STRUCTURE_TestedForm_DefinedOrganic>
parent

> <STRUCTURE_Shown>
tested chemical

> <TestSubstance_ChemicalName>
Triclosan

> <Source_ChemicalName>
Triclosan

> <TestSubstance_CASRN>
3380-34-5

> <TestSubstance_Description>
single chemical compound

> <STRUCTURE_ChemicalName_IUPAC>
5-chloro-2-(2,4-dichlorophenoxy)phenol

> <STRUCTURE_SMILES>
Clc2cc(Cl)ccc2Oc1ccc(Cl)cc1O

> <STRUCTURE_Parent_SMILES>
Clc2cc(Cl)ccc2Oc1ccc(Cl)cc1O

> <STRUCTURE_InChI>
InChI=1S/C12H7Cl3O2/c13-7-1-3-11(9(15)5-7)17-12-4-2-8(14)6-10(12)16/h1-6,16H

> <STRUCTURE_InChIKey>
XEFQLINVKFYRCS-UHFFFAOYSA-N

> <Substance_modify_yyyymmdd>
20080429

> <DSSTox_CID_Parent>
12498

> <ChemicalReplicateCount>
1

> <Coord_Metals>
0

> <Index>
312

> <Canonical_Smiles>
Oc1cc(Cl)ccc1Oc2ccc(Cl)cc2Cl

> <Molecular_Weight>
289.54178

> <Frequency>
1

$$$$

  SciTegic          2D

 48 49  0  0  0  0            999 V2000
    2.5951   -3.0039    0.0000 C   0  0
    1.5548   -3.6021    0.0000 O   0  0
    3.8933   -3.7570    0.0000 O   0  0
    2.5973   -1.5031    0.0000 C   0  0
    3.8999   -0.7576    0.0000 N   0  0
    5.1972   -1.5121    0.0000 O   0  0
    6.4998   -0.7667    0.0000 C   0  0
    1.2990   -0.7500    0.0000 C   0  0
    1.2990    0.7500    0.0000 C   0  0
    0.0000   -1.5000    0.0000 C   0  0
    0.0000    1.5000    0.0000 C   0  0
   -1.2990   -0.7500    0.0000 C   0  0
   -1.2990    0.7500    0.0000 C   0  0
    2.5988    1.5004    0.0000 C   0  0
    2.5997    3.0013    0.0000 O   0  0
    3.8995    3.7517    0.0000 N   0  0
    3.9004    5.2525    0.0000 C   0  0
    2.5993    6.0006    0.0000 C   0  0
    5.2002    6.0029    0.0000 C   0  0
    5.2033    7.5029    0.0000 C   0  0
    6.4978    5.2503    0.0000 C   0  0
    6.5039    8.2503    0.0000 C   0  0
    7.7983    5.9977    0.0000 C   0  0
    7.8014    7.4977    0.0000 C   0  0
    6.5069    9.7511    0.0000 C   0  0
    5.4693   10.3539    0.0000 F   0  0
    7.5475   10.3487    0.0000 F   0  0
    6.5099   10.9511    0.0000 F   0  0
    3.8912   -5.2578    0.0000 C   0  0
    7.3643   -1.2694    0.0000 H   0  0
    7.3675   -0.2695    0.0000 H   0  0
    6.5033    0.2333    0.0000 H   0  0
    0.0000   -2.5000    0.0000 H   0  0
    0.0000    2.5000    0.0000 H   0  0
   -2.1651   -1.2500    0.0000 H   0  0
   -2.1651    1.2500    0.0000 H   0  0
    3.4650    2.0000    0.0000 H   0  0
    3.4647    1.0002    0.0000 H   0  0
    1.7339    5.4997    0.0000 H   0  0
    1.7327    6.4995    0.0000 H   0  0
    2.5979    7.0006    0.0000 H   0  0
    4.3383    8.0047    0.0000 H   0  0
    6.4958    4.2503    0.0000 H   0  0
    8.6633    5.4959    0.0000 H   0  0
    8.6684    7.9959    0.0000 H   0  0
    4.7562   -5.7596    0.0000 H   0  0
    3.0243   -5.7563    0.0000 H   0  0
    3.8893   -6.2578    0.0000 H   0  0
  1  2  2  0
  1  3  1  0
  1  4  1  0
  3 29  1  0
  4  5  2  0
  4  8  1  0
  5  6  1  0
  6  7  1  0
  8  9  2  0
  8 10  1  0
  9 11  1  0
  9 14  1  0
 10 12  2  0
 11 13  2  0
 12 13  1  0
 14 15  1  0
 16 15  1  0
 16 17  2  0
 17 18  1  0
 17 19  1  0
 19 20  2  0
 19 21  1  0
 20 22  1  0
 21 23  2  0
 22 24  2  0
 22 25  1  0
 23 24  1  0
 25 26  1  0
 25 27  1  0
 25 28  1  0
  7 30  1  0
  7 31  1  0
  7 32  1  0
 10 33  1  0
 11 34  1  0
 12 35  1  0
 13 36  1  0
 14 37  1  0
 14 38  1  0
 18 39  1  0
 18 40  1  0
 18 41  1  0
 20 42  1  0
 21 43  1  0
 23 44  1  0
 24 45  1  0
 29 46  1  0
 29 47  1  0
 29 48  1  0
M  END
> <DSSTox_RID>
40624

> <DSSTox_CID>
12580

> <DSSTox_Generic_SID>
32580

> <DSSTox_FileID>
313_TOXCST_v3a

> <STRUCTURE_Formula>
C20H19F3N2O4

> <STRUCTURE_MolecularWeight>
408.3711

> <STRUCTURE_ChemicalType>
defined organic

> <STRUCTURE_TestedForm_DefinedOrganic>
parent

> <STRUCTURE_Shown>
tested chemical

> <TestSubstance_ChemicalName>
Trifloxystrobin

> <Source_ChemicalName>
Trifloxystrobin

> <TestSubstance_CASRN>
141517-21-7

> <TestSubstance_Description>
single chemical compound

> <ChemicalNote>
stereochem

> <STRUCTURE_ChemicalName_IUPAC>
methyl (2E)-(methoxyimino)(2-{[({(1E)-1-[3-(trifluoromethyl)phenyl]ethylidene}amino)oxy]methyl}phenyl)acetate

> <STRUCTURE_SMILES>
O=C(/C(C1=C(CO\N=C(C2=CC(C(F)(F)F)=CC=C2)/C)C=CC=C1)=N/OC)OC

> <STRUCTURE_Parent_SMILES>
O=C(/C(C1=C(CO\N=C(C2=CC(C(F)(F)F)=CC=C2)/C)C=CC=C1)=N/OC)OC

> <STRUCTURE_InChI>
InChI=1S/C20H19F3N2O4/c1-13(14-8-6-9-16(11-14)20(21,22)23)24-29-12-15-7-4-5-10-17(15)18(25-28-3)19(26)27-2/h4-11H,12H2,1-3H3/b24-13+,25-18+

> <STRUCTURE_InChIKey>
ONCZDRURRATYFI-TVJDWZFNSA-N

> <Substance_modify_yyyymmdd>
20080429

> <DSSTox_CID_Parent>
12580

> <ChemicalReplicateCount>
1

> <Coord_Metals>
0

> <Index>
313

> <Canonical_Smiles>
CON=C(C(=O)OC)c1ccccc1CON=C(C)c2cccc(c2)C(F)(F)F

> <Molecular_Weight>
408.37106

> <Frequency>
1

$$$$

  SciTegic          2D

 43 44  0  0  0  0            999 V2000
    1.2990   -0.7500    0.0000 N   0  0
    1.2990    0.7500    0.0000 C   0  0
    0.0000   -1.5000    0.0000 C   0  0
   -1.2990   -0.7500    0.0000 C   0  0
    0.0000    1.5000    0.0000 C   0  0
   -1.2990    0.7500    0.0000 C   0  0
    0.0000   -3.0008    0.0000 S   0  0
   -1.0394   -3.6005    0.0000 O   0  0
   -0.0006   -4.2008    0.0000 O   0  0
    1.2993   -3.7521    0.0000 N   0  0
    1.2993   -5.2529    0.0000 C   0  0
    0.2599   -5.8526    0.0000 O   0  0
    2.5986   -6.0041    0.0000 N   0  0
    3.8961   -8.2577    0.0000 N   0  0
    1.2980   -8.2524    0.0000 N   0  0
    2.5986   -7.5049    0.0000 C   0  0
    2.5925  -10.5050    0.0000 C   0  0
    3.8930   -9.7577    0.0000 C   0  0
    1.2949   -9.7524    0.0000 C   0  0
   -0.0079  -10.4975    0.0000 O   0  0
   -1.3050   -9.7426    0.0000 C   0  0
    5.1928  -10.5081    0.0000 O   0  0
    6.4930   -9.7584    0.0000 C   0  0
   -2.6003   -1.4978    0.0000 O   0  0
   -3.8990   -0.7455    0.0000 C   0  0
   -5.2003   -1.4932    0.0000 C   0  0
   -6.2387   -0.8918    0.0000 F   0  0
   -5.2024   -2.6932    0.0000 F   0  0
   -6.2405   -2.0916    0.0000 F   0  0
    2.1651    1.2500    0.0000 H   0  0
    0.0000    2.5000    0.0000 H   0  0
   -2.1651    1.2500    0.0000 H   0  0
    2.1655   -3.2523    0.0000 H   0  0
    3.4648   -5.5044    0.0000 H   0  0
    2.5904  -11.5050    0.0000 H   0  0
   -2.1731  -10.2390    0.0000 H   0  0
   -1.3013   -8.7426    0.0000 H   0  0
   -2.1691   -9.2392    0.0000 H   0  0
    7.3590  -10.2584    0.0000 H   0  0
    6.4933   -8.7584    0.0000 H   0  0
    7.3591   -9.2586    0.0000 H   0  0
   -3.8973    0.2545    0.0000 H   0  0
   -3.0322   -0.2469    0.0000 H   0  0
  1  2  1  0
  1  3  2  0
  2  5  2  0
  3  4  1  0
  3  7  1  0
  4  6  2  0
  4 24  1  0
  5  6  1  0
  7  8  2  0
  7 10  1  0
  7  9  2  0
 10 11  1  0
 11 12  2  0
 11 13  1  0
 13 16  1  0
 14 16  2  0
 14 18  1  0
 15 16  1  0
 15 19  2  0
 17 18  2  0
 17 19  1  0
 18 22  1  0
 19 20  1  0
 20 21  1  0
 22 23  1  0
 24 25  1  0
 25 26  1  0
 26 27  1  0
 26 28  1  0
 26 29  1  0
  2 30  1  0
  5 31  1  0
  6 32  1  0
 10 33  1  0
 13 34  1  0
 17 35  1  0
 21 36  1  0
 21 37  1  0
 21 38  1  0
 23 39  1  0
 23 40  1  0
 23 41  1  0
 25 42  1  0
 25 43  1  0
M  END
> <DSSTox_RID>
40318

> <DSSTox_CID>
20222

> <DSSTox_Generic_SID>
40222

> <DSSTox_FileID>
314_TOXCST_v3a

> <STRUCTURE_Formula>
C14H13F3N5NaO6S

> <STRUCTURE_MolecularWeight>
459.3329

> <STRUCTURE_ChemicalType>
defined organic

> <STRUCTURE_TestedForm_DefinedOrganic>
salt Na

> <STRUCTURE_Shown>
tested chemical

> <TestSubstance_ChemicalName>
Trifloxysulfuron-sodium

> <Source_ChemicalName>
Trifloxysulfuron-sodium

> <TestSubstance_CASRN>
199119-58-9

> <TestSubstance_Description>
single chemical compound

> <ChemicalNote>
parent [145099-21-4]

> <STRUCTURE_ChemicalName_IUPAC>
sodium [(4,6-dimethoxypyrimidin-2-yl)carbamoyl]{[3-(2,2,2-trifluoroethoxy)pyridin-2-yl]sulfonyl}azanide

> <STRUCTURE_SMILES>
O=S(C1=NC=CC=C1OCC(F)(F)F)([N-]C(NC2=NC(OC)=CC(OC)=N2)=O)=O.[Na+]

> <STRUCTURE_Parent_SMILES>
O=S(C1=NC=CC=C1OCC(F)(F)F)(NC(NC2=NC(OC)=CC(OC)=N2)=O)=O

> <STRUCTURE_InChI>
InChI=1S/C14H14F3N5O6S.Na/c1-26-9-6-10(27-2)20-12(19-9)21-13(23)22-29(24,25)11-8(4-3-5-18-11)28-7-14(15,16)17;/h3-6H,7H2,1-2H3,(H2,19,20,21,22,23);/q;+1/p-1

> <STRUCTURE_InChIKey>
UFEIWEXHHOXPGP-UHFFFAOYSA-M

> <Substance_modify_yyyymmdd>
20080429

> <DSSTox_CID_Parent>
23971

> <ChemicalReplicateCount>
1

> <Coord_Metals>
0

> <Index>
314

> <Canonical_Smiles>
COc1cc(OC)nc(NC(=O)NS(=O)(=O)c2ncccc2OCC(F)(F)F)n1

> <Molecular_Weight>
437.35106

> <Frequency>
1

$$$$

  SciTegic          2D

 38 39  0  0  0  0            999 V2000
    6.2460   -4.2620    0.0000 N   0  0
    3.8934   -3.7569    0.0000 N   0  0
    5.2478   -3.1425    0.0000 C   0  0
    5.4897   -5.5574    0.0000 C   0  0
    4.0240   -5.2384    0.0000 C   0  0
    2.5951   -3.0039    0.0000 C   0  0
    1.2926   -3.7495    0.0000 C   0  0
    2.5973   -1.5030    0.0000 N   0  0
    1.2990   -0.7500    0.0000 C   0  0
    1.2990    0.7500    0.0000 C   0  0
    0.0000   -1.5000    0.0000 C   0  0
    0.0000    1.5000    0.0000 C   0  0
   -1.2990   -0.7500    0.0000 C   0  0
   -1.2990    0.7500    0.0000 C   0  0
   -2.3383    1.3500    0.0000 Cl  0  0
    2.5988    1.5004    0.0000 C   0  0
    3.6384    0.9011    0.0000 F   0  0
    2.5984    2.7004    0.0000 F   0  0
    3.6377    2.1009    0.0000 F   0  0
    1.2860   -5.2503    0.0000 O   0  0
   -0.0165   -5.9958    0.0000 C   0  0
   -0.0231   -7.4966    0.0000 C   0  0
   -1.3256   -8.2422    0.0000 C   0  0
    5.4546   -2.1641    0.0000 H   0  0
    5.8920   -6.4729    0.0000 H   0  0
    3.2737   -5.8995    0.0000 H   0  0
    0.4245   -4.2458    0.0000 H   0  0
    0.4286   -3.2460    0.0000 H   0  0
    0.0000   -2.5000    0.0000 H   0  0
    0.0000    2.5000    0.0000 H   0  0
   -2.1651   -1.2500    0.0000 H   0  0
   -0.0126   -4.9958    0.0000 H   0  0
   -0.8805   -5.4923    0.0000 H   0  0
    0.8450   -7.0003    0.0000 H   0  0
    0.8409   -8.0002    0.0000 H   0  0
   -1.3300   -9.2422    0.0000 H   0  0
   -2.1938   -8.7385    0.0000 H   0  0
   -2.1896   -7.7387    0.0000 H   0  0
  1  3  2  0
  1  4  1  0
  2  3  1  0
  2  5  1  0
  2  6  1  0
  4  5  2  0
  6  7  1  0
  6  8  2  0
  7 20  1  0
  8  9  1  0
  9 10  2  0
  9 11  1  0
 10 12  1  0
 10 16  1  0
 11 13  2  0
 12 14  2  0
 13 14  1  0
 14 15  1  0
 16 17  1  0
 16 18  1  0
 16 19  1  0
 20 21  1  0
 21 22  1  0
 22 23  1  0
  3 24  1  0
  4 25  1  0
  5 26  1  0
  7 27  1  0
  7 28  1  0
 11 29  1  0
 12 30  1  0
 13 31  1  0
 21 32  1  0
 21 33  1  0
 22 34  1  0
 22 35  1  0
 23 36  1  0
 23 37  1  0
 23 38  1  0
M  END
> <DSSTox_RID>
40625

> <DSSTox_CID>
12500

> <DSSTox_Generic_SID>
32500

> <DSSTox_FileID>
315_TOXCST_v3a

> <STRUCTURE_Formula>
C15H15ClF3N3O

> <STRUCTURE_MolecularWeight>
345.7473

> <STRUCTURE_ChemicalType>
defined organic

> <STRUCTURE_TestedForm_DefinedOrganic>
parent

> <STRUCTURE_Shown>
tested chemical

> <TestSubstance_ChemicalName>
Triflumizole

> <Source_ChemicalName>
Triflumizole

> <TestSubstance_CASRN>
68694-11-1

> <TestSubstance_Description>
single chemical compound

> <STRUCTURE_ChemicalName_IUPAC>
4-chloro-N-[(1E)-1-(1H-imidazol-1-yl)-2-propoxyethylidene]-2-(trifluoromethyl)aniline

> <STRUCTURE_SMILES>
ClC2=CC(C(F)(F)F)=C(C=C2)/N=C(COCCC)/N1C=NC=C1

> <STRUCTURE_Parent_SMILES>
ClC2=CC(C(F)(F)F)=C(C=C2)/N=C(COCCC)/N1C=NC=C1

> <STRUCTURE_InChI>
InChI=1S/C15H15ClF3N3O/c1-2-7-23-9-14(22-6-5-20-10-22)21-13-4-3-11(16)8-12(13)15(17,18)19/h3-6,8,10H,2,7,9H2,1H3/b21-14+

> <STRUCTURE_InChIKey>
HSMVPDGQOIQYSR-KGENOOAVSA-N

> <Substance_modify_yyyymmdd>
20080429

> <DSSTox_CID_Parent>
12500

> <ChemicalReplicateCount>
1

> <Coord_Metals>
0

> <Index>
315

> <Canonical_Smiles>
CCCOCC(=Nc1ccc(Cl)cc1C(F)(F)F)n2ccnc2

> <Molecular_Weight>
345.7473

> <Frequency>
1

$$$$

  SciTegic          2D

 39 39  0  0  0  0            999 V2000
    2.5956   -2.7031    0.0000 O   0  0
    2.5973   -1.5031    0.0000 N   0  0
    1.2990   -0.7500    0.0000 C   0  0
    1.2990    0.7500    0.0000 C   0  0
    0.0000    1.5000    0.0000 C   0  0
   -1.2990    0.7500    0.0000 C   0  0
   -1.2990   -0.7500    0.0000 C   0  0
    0.0000   -1.5000    0.0000 C   0  0
   -2.5988   -1.5004    0.0000 C   0  0
   -3.6384   -0.9011    0.0000 F   0  0
   -2.5984   -2.7004    0.0000 F   0  0
   -3.6377   -2.1009    0.0000 F   0  0
   -0.0031    3.0008    0.0000 N   0  0
    1.0345    3.6036    0.0000 O   0  0
   -1.0438    3.5984    0.0000 O   0  0
    2.5972    1.5031    0.0000 N   0  0
    2.5951    3.0039    0.0000 C   0  0
    3.8933    3.7570    0.0000 C   0  0
    3.8912    5.2578    0.0000 C   0  0
    3.8968    0.7523    0.0000 C   0  0
    5.1972    1.5015    0.0000 C   0  0
    6.4968    0.7507    0.0000 C   0  0
    3.4642   -1.0046    0.0000 O   0  0
   -2.1651    1.2500    0.0000 H   0  0
    0.0000   -2.5000    0.0000 H   0  0
    1.7299    2.5026    0.0000 H   0  0
    1.7282    3.5024    0.0000 H   0  0
    3.8952    2.7570    0.0000 H   0  0
    4.7602    3.2585    0.0000 H   0  0
    4.7561    5.7596    0.0000 H   0  0
    3.8892    6.2578    0.0000 H   0  0
    3.0243    5.7563    0.0000 H   0  0
    3.0305    0.2527    0.0000 H   0  0
    3.8961   -0.2477    0.0000 H   0  0
    4.3316    2.0022    0.0000 H   0  0
    5.1979    2.5015    0.0000 H   0  0
    7.3632    1.2498    0.0000 H   0  0
    7.3624    0.2500    0.0000 H   0  0
    6.4961   -0.2493    0.0000 H   0  0
  1  2  2  0
  2  3  1  0
  2 23  2  0
  3  4  2  0
  3  8  1  0
  4  5  1  0
  4 16  1  0
  5  6  2  0
  5 13  1  0
  6  7  1  0
  7  8  2  0
  7  9  1  0
  9 10  1  0
  9 11  1  0
  9 12  1  0
 13 14  2  0
 13 15  2  0
 16 17  1  0
 16 20  1  0
 17 18  1  0
 18 19  1  0
 20 21  1  0
 21 22  1  0
  6 24  1  0
  8 25  1  0
 17 26  1  0
 17 27  1  0
 18 28  1  0
 18 29  1  0
 19 30  1  0
 19 31  1  0
 19 32  1  0
 20 33  1  0
 20 34  1  0
 21 35  1  0
 21 36  1  0
 22 37  1  0
 22 38  1  0
 22 39  1  0
M  END
> <DSSTox_RID>
40626

> <DSSTox_CID>
1395

> <DSSTox_Generic_SID>
21395

> <DSSTox_FileID>
316_TOXCST_v3a

> <STRUCTURE_Formula>
C13H16F3N3O4

> <STRUCTURE_MolecularWeight>
335.279

> <STRUCTURE_ChemicalType>
defined organic

> <STRUCTURE_TestedForm_DefinedOrganic>
parent

> <STRUCTURE_Shown>
tested chemical

> <TestSubstance_ChemicalName>
Trifluralin

> <Source_ChemicalName>
Trifluralin

> <TestSubstance_CASRN>
1582-09-8

> <TestSubstance_Description>
single chemical compound

> <STRUCTURE_ChemicalName_IUPAC>
2,6-dinitro-N,N-dipropyl-4-(trifluoromethyl)aniline

> <STRUCTURE_SMILES>
O=[N+](C1=C(C(=CC(=C1)C(F)(F)F)[N+](=O)[O-])N(CCC)CCC)[O-]

> <STRUCTURE_Parent_SMILES>
O=[N+](C1=C(C(=CC(=C1)C(F)(F)F)[N+](=O)[O-])N(CCC)CCC)[O-]

> <STRUCTURE_InChI>
InChI=1S/C13H16F3N3O4/c1-3-5-17(6-4-2)12-10(18(20)21)7-9(13(14,15)16)8-11(12)19(22)23/h7-8H,3-6H2,1-2H3

> <STRUCTURE_InChIKey>
ZSDSQXJSNMTJDA-UHFFFAOYSA-N

> <Substance_modify_yyyymmdd>
20080429

> <DSSTox_CID_Parent>
1395

> <ChemicalReplicateCount>
1

> <Coord_Metals>
0

> <Index>
316

> <Canonical_Smiles>
CCCN(CCC)c1c(cc(cc1N(=O)=O)C(F)(F)F)N(=O)=O

> <Molecular_Weight>
335.27904

> <Frequency>
1

$$$$

  SciTegic          2D

 52 53  0  0  0  0            999 V2000
    2.5973   -1.5031    0.0000 C   0  0
    3.6375   -0.9049    0.0000 O   0  0
    1.2990   -0.7500    0.0000 C   0  0
    2.5951   -3.0039    0.0000 O   0  0
    1.2990    0.7500    0.0000 C   0  0
    0.0000   -1.5000    0.0000 C   0  0
    0.0000    1.5000    0.0000 C   0  0
   -1.2990   -0.7500    0.0000 C   0  0
   -1.2990    0.7500    0.0000 C   0  0
    2.5988    1.5004    0.0000 S   0  0
    2.5984    2.7004    0.0000 O   0  0
    3.6377    2.1009    0.0000 O   0  0
    3.8990    0.7508    0.0000 N   0  0
    5.1988    1.5013    0.0000 C   0  0
    5.1984    2.7013    0.0000 O   0  0
    6.4990    0.7517    0.0000 N   0  0
    9.0994    0.7548    0.0000 N   0  0
    7.7987    1.5021    0.0000 C   0  0
    7.7958    3.0022    0.0000 N   0  0
    9.0933    3.7548    0.0000 C   0  0
   10.3938    3.0075    0.0000 N   0  0
   10.3969    1.5075    0.0000 C   0  0
    9.0933    5.2557    0.0000 N   0  0
   10.3926    6.0069    0.0000 C   0  0
    7.7918    6.0030    0.0000 C   0  0
   11.6997    0.7624    0.0000 O   0  0
   12.9969    1.5173    0.0000 C   0  0
   14.2997    0.7722    0.0000 C   0  0
   15.3368    1.3758    0.0000 F   0  0
   14.3042   -0.4278    0.0000 F   0  0
   15.3411    0.1760    0.0000 F   0  0
    0.0000    3.0008    0.0000 C   0  0
    3.8933   -3.7570    0.0000 C   0  0
    0.0000   -2.5000    0.0000 H   0  0
   -2.1651   -1.2500    0.0000 H   0  0
   -2.1651    1.2500    0.0000 H   0  0
    3.8993   -0.2492    0.0000 H   0  0
    6.4993   -0.2483    0.0000 H   0  0
   10.3926    7.0069    0.0000 H   0  0
   11.2585    6.5070    0.0000 H   0  0
   11.2587    5.5071    0.0000 H   0  0
    6.9266    5.5015    0.0000 H   0  0
    6.9248    6.5014    0.0000 H   0  0
    7.7897    7.0030    0.0000 H   0  0
   12.9931    2.5173    0.0000 H   0  0
   12.1290    2.0142    0.0000 H   0  0
    0.8657    3.5014    0.0000 H   0  0
   -0.8662    3.5005    0.0000 H   0  0
   -0.0005    4.0008    0.0000 H   0  0
    3.8919   -4.7570    0.0000 H   0  0
    4.7586   -4.2584    0.0000 H   0  0
    4.7602   -3.2585    0.0000 H   0  0
  1  2  2  0
  1  3  1  0
  1  4  1  0
  3  5  2  0
  3  6  1  0
  4 33  1  0
  5  7  1  0
  5 10  1  0
  6  8  2  0
  7  9  2  0
  7 32  1  0
  8  9  1  0
 10 11  2  0
 10 12  2  0
 10 13  1  0
 13 14  1  0
 14 15  2  0
 14 16  1  0
 16 18  1  0
 17 18  2  0
 17 22  1  0
 18 19  1  0
 19 20  2  0
 20 21  1  0
 20 23  1  0
 21 22  2  0
 22 26  1  0
 23 24  1  0
 23 25  1  0
 26 27  1  0
 27 28  1  0
 28 29  1  0
 28 30  1  0
 28 31  1  0
  6 34  1  0
  8 35  1  0
  9 36  1  0
 13 37  1  0
 16 38  1  0
 24 39  1  0
 24 40  1  0
 24 41  1  0
 25 42  1  0
 25 43  1  0
 25 44  1  0
 27 45  1  0
 27 46  1  0
 32 47  1  0
 32 48  1  0
 32 49  1  0
 33 50  1  0
 33 51  1  0
 33 52  1  0
M  END
> <DSSTox_RID>
40627

> <DSSTox_CID>
12502

> <DSSTox_Generic_SID>
32502

> <DSSTox_FileID>
317_TOXCST_v3a

> <STRUCTURE_Formula>
C17H19F3N6O6S

> <STRUCTURE_MolecularWeight>
492.4296

> <STRUCTURE_ChemicalType>
defined organic

> <STRUCTURE_TestedForm_DefinedOrganic>
parent

> <STRUCTURE_Shown>
tested chemical

> <TestSubstance_ChemicalName>
Triflusulfuron-methyl

> <Source_ChemicalName>
Triflusulfuron-methyl

> <TestSubstance_CASRN>
126535-15-7

> <TestSubstance_Description>
single chemical compound

> <STRUCTURE_ChemicalName_IUPAC>
methyl 2-[({[4-(dimethylamino)-6-(2,2,2-trifluoroethoxy)-1,3,5-triazin-2-yl]carbamoyl}amino)sulfonyl]-3-methylbenzoate

> <STRUCTURE_SMILES>
O=C(OC)C1=C(S(=O)(NC(NC2=NC(N(C)C)=NC(OCC(F)(F)F)=N2)=O)=O)C(C)=CC=C1

> <STRUCTURE_Parent_SMILES>
O=C(OC)C1=C(S(=O)(NC(NC2=NC(N(C)C)=NC(OCC(F)(F)F)=N2)=O)=O)C(C)=CC=C1

> <STRUCTURE_InChI>
InChI=1S/C17H19F3N6O6S/c1-9-6-5-7-10(12(27)31-4)11(9)33(29,30)25-15(28)22-13-21-14(26(2)3)24-16(23-13)32-8-17(18,19)20/h5-7H,8H2,1-4H3,(H2,21,22,23,24,25,28)

> <STRUCTURE_InChIKey>
IMEVJVISCHQJRM-UHFFFAOYSA-N

> <Substance_modify_yyyymmdd>
20080429

> <DSSTox_CID_Parent>
12502

> <ChemicalReplicateCount>
1

> <Coord_Metals>
0

> <Index>
317

> <Canonical_Smiles>
COC(=O)c1cccc(C)c1S(=O)(=O)NC(=O)Nc2nc(OCC(F)(F)F)nc(n2)N(C)C

> <Molecular_Weight>
492.42956

> <Frequency>
1

$$$$

  SciTegic          2D

 42 44  0  0  0  0            999 V2000
    3.8056   -3.8679    0.0000 C   0  0
    3.3372   -5.2929    0.0000 C   0  0
    1.8372   -5.2877    0.0000 C   0  0
    1.3786   -3.8595    0.0000 C   0  0
    2.5951   -3.0039    0.0000 C   0  0
    4.8982   -4.8779    0.0000 O   0  0
    2.5973   -1.5031    0.0000 C   0  0
    1.2990   -0.7500    0.0000 C   0  0
    1.2990    0.7500    0.0000 C   0  0
    0.0000   -1.5000    0.0000 C   0  0
    0.0000    1.5000    0.0000 C   0  0
   -1.2990   -0.7500    0.0000 C   0  0
   -1.2990    0.7500    0.0000 C   0  0
   -2.3383    1.3500    0.0000 Cl  0  0
    4.8144   -5.1189    0.0000 C   0  0
    2.7058   -6.6402    0.0000 C   0  0
    4.0890   -2.4069    0.0000 C   0  0
    5.5149   -1.9386    0.0000 N   0  0
    6.7104   -2.8232    0.0000 N   0  0
    7.9211   -1.9377    0.0000 C   0  0
    7.4530   -0.5126    0.0000 N   0  0
    5.9530   -0.5174    0.0000 C   0  0
    2.2544   -6.1965    0.0000 H   0  0
    0.8447   -5.1650    0.0000 H   0  0
    0.6389   -4.5324    0.0000 H   0  0
    1.1940   -2.8767    0.0000 H   0  0
    4.6931   -5.8566    0.0000 H   0  0
    3.4642   -1.0046    0.0000 H   0  0
    2.1651    1.2500    0.0000 H   0  0
    0.0000   -2.5000    0.0000 H   0  0
    0.0000    2.5000    0.0000 H   0  0
   -2.1651   -1.2500    0.0000 H   0  0
    5.2247   -4.2069    0.0000 H   0  0
    5.8093   -5.0181    0.0000 H   0  0
    5.3993   -5.9300    0.0000 H   0  0
    3.2902   -7.4517    0.0000 H   0  0
    2.2954   -7.5521    0.0000 H   0  0
    1.7109   -6.7408    0.0000 H   0  0
    4.2940   -1.4282    0.0000 H   0  0
    3.3440   -1.7399    0.0000 H   0  0
    8.8731   -2.2437    0.0000 H   0  0
    5.3578    0.2862    0.0000 H   0  0
  1  2  1  0
  1  5  1  0
  1  6  1  0
  1 17  1  0
  2  3  1  0
  2 15  1  0
  2 16  1  0
  3  4  1  0
  4  5  1  0
  5  7  2  0
  7  8  1  0
  8  9  2  0
  8 10  1  0
  9 11  1  0
 10 12  2  0
 11 13  2  0
 12 13  1  0
 13 14  1  0
 17 18  1  0
 18 19  1  0
 18 22  1  0
 19 20  2  0
 20 21  1  0
 21 22  2  0
  3 23  1  0
  3 24  1  0
  4 25  1  0
  4 26  1  0
  6 27  1  0
  7 28  1  0
  9 29  1  0
 10 30  1  0
 11 31  1  0
 12 32  1  0
 15 33  1  0
 15 34  1  0
 15 35  1  0
 16 36  1  0
 16 37  1  0
 16 38  1  0
 17 39  1  0
 17 40  1  0
 20 41  1  0
 22 42  1  0
M  END
> <DSSTox_RID>
40629

> <DSSTox_CID>
12655

> <DSSTox_Generic_SID>
32655

> <DSSTox_FileID>
318_TOXCST_v3a

> <STRUCTURE_Formula>
C17H20ClN3O

> <STRUCTURE_MolecularWeight>
317.8132

> <STRUCTURE_ChemicalType>
defined organic

> <STRUCTURE_TestedForm_DefinedOrganic>
parent

> <STRUCTURE_Shown>
tested chemical

> <TestSubstance_ChemicalName>
Triticonazole

> <Source_ChemicalName>
Triticonazole

> <TestSubstance_CASRN>
131983-72-7

> <TestSubstance_Description>
single chemical compound

> <ChemicalNote>
stereochem

> <STRUCTURE_ChemicalName_IUPAC>
(5E)-5-(4-chlorobenzylidene)-2,2-dimethyl-1-(1H-1,2,4-triazol-1-ylmethyl)cyclopentanol

> <STRUCTURE_SMILES>
OC1(CN3N=CN=C3)C(C)(C)CC\C1=C/C2=CC=C(Cl)C=C2

> <STRUCTURE_Parent_SMILES>
OC1(CN3N=CN=C3)C(C)(C)CC\C1=C/C2=CC=C(Cl)C=C2

> <STRUCTURE_InChI>
InChI=1S/C17H20ClN3O/c1-16(2)8-7-14(9-13-3-5-15(18)6-4-13)17(16,22)10-21-12-19-11-20-21/h3-6,9,11-12,22H,7-8,10H2,1-2H3/b14-9+

> <STRUCTURE_InChIKey>
PPDBOQMNKNNODG-NTEUORMPSA-N

> <Substance_modify_yyyymmdd>
20080429

> <DSSTox_CID_Parent>
12655

> <ChemicalReplicateCount>
1

> <Coord_Metals>
0

> <Index>
318

> <Canonical_Smiles>
CC1(C)CCC(=Cc2ccc(Cl)cc2)C1(O)Cn3cncn3

> <Molecular_Weight>
317.8132

> <Frequency>
1

$$$$

  SciTegic          2D

 27 28  0  0  0  0            999 V2000
    2.5987   -1.5004    0.0000 N   0  0
    3.9511   -0.8815    0.0000 C   0  0
    4.9531   -1.9978    0.0000 O   0  0
    4.2010   -3.2956    0.0000 C   0  0
    2.7343   -2.9815    0.0000 C   0  0
    1.8365   -3.7777    0.0000 O   0  0
    3.3056   -4.4835    0.0000 C   0  0
    3.8691   -5.8745    0.0000 C   0  0
    5.6828   -3.4300    0.0000 C   0  0
    4.1955    0.2934    0.0000 O   0  0
    1.2990   -0.7500    0.0000 C   0  0
    1.2990    0.7500    0.0000 C   0  0
    0.0000    1.5000    0.0000 C   0  0
    0.0000    2.7000    0.0000 Cl  0  0
   -1.2990    0.7500    0.0000 C   0  0
   -1.2990   -0.7500    0.0000 C   0  0
    0.0000   -1.5000    0.0000 C   0  0
   -2.3383   -1.3500    0.0000 Cl  0  0
    2.3152   -4.3455    0.0000 H   0  0
    3.2547   -6.6635    0.0000 H   0  0
    4.8596   -6.0125    0.0000 H   0  0
    6.0887   -4.3439    0.0000 H   0  0
    6.6772   -3.5356    0.0000 H   0  0
    6.2715   -2.6217    0.0000 H   0  0
    2.1651    1.2500    0.0000 H   0  0
   -2.1651    1.2500    0.0000 H   0  0
    0.0000   -2.5000    0.0000 H   0  0
  1  2  1  0
  1  5  1  0
  1 11  1  0
  2  3  1  0
  2 10  2  0
  3  4  1  0
  4  5  1  0
  4  7  1  0
  4  9  1  0
  5  6  2  0
  7  8  2  0
 11 12  2  0
 11 17  1  0
 12 13  1  0
 13 14  1  0
 13 15  2  0
 15 16  1  0
 16 17  2  0
 16 18  1  0
  7 19  1  0
  8 20  1  0
  8 21  1  0
  9 22  1  0
  9 23  1  0
  9 24  1  0
 12 25  1  0
 15 26  1  0
 17 27  1  0
M  END
> <DSSTox_RID>
40632

> <DSSTox_CID>
2361

> <DSSTox_Generic_SID>
22361

> <DSSTox_FileID>
319_TOXCST_v3a

> <STRUCTURE_Formula>
C12H9Cl2NO3

> <STRUCTURE_MolecularWeight>
286.1108

> <STRUCTURE_ChemicalType>
defined organic

> <STRUCTURE_TestedForm_DefinedOrganic>
parent

> <STRUCTURE_Shown>
tested chemical

> <TestSubstance_ChemicalName>
Vinclozolin

> <Source_ChemicalName>
Vinclozolin

> <TestSubstance_CASRN>
50471-44-8

> <TestSubstance_Description>
single chemical compound

> <ChemicalNote>
mixture of (R,S) isomers; structure shown without stereochem

> <STRUCTURE_ChemicalName_IUPAC>
3-(3,5-dichlorophenyl)-5-methyl-5-vinyl-1,3-oxazolidine-2,4-dione

> <STRUCTURE_SMILES>
N1(C(OC(C1=O)(C=C)C)=O)C2=CC(Cl)=CC(=C2)Cl

> <STRUCTURE_Parent_SMILES>
N1(C(OC(C1=O)(C=C)C)=O)C2=CC(Cl)=CC(=C2)Cl

> <STRUCTURE_InChI>
InChI=1S/C12H9Cl2NO3/c1-3-12(2)10(16)15(11(17)18-12)9-5-7(13)4-8(14)6-9/h3-6H,1H2,2H3

> <STRUCTURE_InChIKey>
FSCWZHGZWWDELK-UHFFFAOYSA-N

> <Substance_modify_yyyymmdd>
20080429

> <DSSTox_CID_Parent>
2361

> <ChemicalReplicateCount>
1

> <Coord_Metals>
0

> <Index>
319

> <Canonical_Smiles>
CC1(OC(=O)N(C1=O)c2cc(Cl)cc(Cl)c2)C=C

> <Molecular_Weight>
286.11076

> <Frequency>
1

$$$$

  SciTegic          2D

 36 36  0  0  0  0            999 V2000
    2.5973   -1.5031    0.0000 C   0  0
    2.5944   -2.7031    0.0000 O   0  0
    1.2990   -0.7500    0.0000 C   0  0
    1.2990    0.7500    0.0000 C   0  0
    0.0000   -1.5000    0.0000 C   0  0
    0.0000    1.5000    0.0000 C   0  0
   -1.2990   -0.7500    0.0000 C   0  0
   -1.2990    0.7500    0.0000 C   0  0
    3.8990   -0.7562    0.0000 N   0  0
    0.0000    2.7000    0.0000 Cl  0  0
   -2.3383   -1.3500    0.0000 Cl  0  0
    4.8614   -1.9078    0.0000 C   0  0
    6.3401   -1.6512    0.0000 C   0  0
    7.3024   -2.8029    0.0000 C   0  0
    8.4848   -2.5977    0.0000 Cl  0  0
    5.3907   -0.4724    0.0000 C   0  0
    6.8697   -0.2172    0.0000 C   0  0
    4.3447   -3.3169    0.0000 C   0  0
    6.6843   -0.7123    0.0000 O   0  0
   -2.5988    1.5004    0.0000 C   0  0
    2.1651    1.2500    0.0000 H   0  0
    0.0000   -2.5000    0.0000 H   0  0
    3.9014    0.2438    0.0000 H   0  0
    7.9433   -3.5705    0.0000 H   0  0
    6.9582   -3.7418    0.0000 H   0  0
    4.4052   -0.6420    0.0000 H   0  0
    4.7510    0.2962    0.0000 H   0  0
    7.2157    0.7211    0.0000 H   0  0
    7.8552   -0.0476    0.0000 H   0  0
    7.5094   -0.9857    0.0000 H   0  0
    4.9852   -4.0848    0.0000 H   0  0
    3.3595   -3.4879    0.0000 H   0  0
    4.0000   -4.2556    0.0000 H   0  0
   -2.5994    2.5004    0.0000 H   0  0
   -3.4647    1.0001    0.0000 H   0  0
   -3.4651    2.0000    0.0000 H   0  0
  1  2  2  0
  1  3  1  0
  1  9  1  0
  3  4  2  0
  3  5  1  0
  4  6  1  0
  5  7  2  0
  6  8  2  0
  6 10  1  0
  7  8  1  0
  7 11  1  0
  8 20  1  0
  9 12  1  0
 12 13  1  0
 12 16  1  0
 12 18  1  0
 13 14  1  0
 13 19  2  0
 14 15  1  0
 16 17  1  0
  4 21  1  0
  5 22  1  0
  9 23  1  0
 14 24  1  0
 14 25  1  0
 16 26  1  0
 16 27  1  0
 17 28  1  0
 17 29  1  0
 17 30  1  0
 18 31  1  0
 18 32  1  0
 18 33  1  0
 20 34  1  0
 20 35  1  0
 20 36  1  0
M  END
> <DSSTox_RID>
40633

> <DSSTox_CID>
12581

> <DSSTox_Generic_SID>
32581

> <DSSTox_FileID>
320_TOXCST_v3a

> <STRUCTURE_Formula>
C14H16Cl3NO2

> <STRUCTURE_MolecularWeight>
336.6413

> <STRUCTURE_ChemicalType>
defined organic

> <STRUCTURE_TestedForm_DefinedOrganic>
parent

> <STRUCTURE_Shown>
tested chemical

> <TestSubstance_ChemicalName>
Zoxamide

> <Source_ChemicalName>
Zoxamide

> <TestSubstance_CASRN>
156052-68-5

> <TestSubstance_Description>
single chemical compound

> <STRUCTURE_ChemicalName_IUPAC>
3,5-dichloro-N-(3-chloro-1-ethyl-1-methyl-2-oxopropyl)-4-methylbenzamide

> <STRUCTURE_SMILES>
O=C(NC(CC)(C)C(CCl)=O)C1=CC(Cl)=C(C)C(Cl)=C1

> <STRUCTURE_Parent_SMILES>
O=C(NC(CC)(C)C(CCl)=O)C1=CC(Cl)=C(C)C(Cl)=C1

> <STRUCTURE_InChI>
InChI=1S/C14H16Cl3NO2/c1-4-14(3,12(19)7-15)18-13(20)9-5-10(16)8(2)11(17)6-9/h5-6H,4,7H2,1-3H3,(H,18,20)

> <STRUCTURE_InChIKey>
SOUGWDPPRBKJEX-UHFFFAOYSA-N

> <Substance_modify_yyyymmdd>
20080429

> <DSSTox_CID_Parent>
12581

> <ChemicalReplicateCount>
1

> <Coord_Metals>
0

> <Index>
320

> <Canonical_Smiles>
CCC(C)(NC(=O)c1cc(Cl)c(C)c(Cl)c1)C(=O)CCl

> <Molecular_Weight>
336.64134

> <Frequency>
1

$$$$
