2207
  Marvin  02231216192D 0   1.00000     0.00000     0

 14 15  0  0  0  0  0  0  0  0999 V2000
    0.1571   -1.0631    0.0000 O   0  0  0  0  0  0  0  0  0
    0.8716   -0.6506    0.0000 C   0  0  0  0  0  0  0  0  0
   -0.5574   -0.6506    0.0000 C   0  0  0  0  0  0  0  0  0
   -1.2718   -1.0631    0.0000 C   0  0  0  0  0  0  0  0  0
   -1.9863   -0.6506    0.0000 C   0  0  0  0  0  0  0  0  0
   -1.9863    0.1744    0.0000 C   0  0  0  0  0  0  0  0  0
   -2.7709    0.4293    0.0000 N   0  0  0  0  0  0  0  0  0
   -3.2558   -0.2381    0.0000 C   0  0  0  0  0  0  0  0  0
   -2.7709   -0.9056    0.0000 C   0  0  0  0  0  0  0  0  0
   -3.0259   -1.6902    0.0000 C   0  0  0  0  0  0  0  0  0
   -3.8328   -1.8617    0.0000 C   0  0  0  0  0  0  0  0  0
   -4.0878   -2.6464    0.0000 N   0  0  0  0  0  0  0  0  0
   -1.2718    0.5869    0.0000 C   0  0  0  0  0  0  0  0  0
   -0.5574    0.1744    0.0000 C   0  0  0  0  0  0  0  0  0
  1  2  1  0  0  0  0
  1  3  1  0  0  0  0
  3  4  4  0  0  0  0
  3 14  4  0  0  0  0
  4  5  4  0  0  0  0
  5  6  4  0  0  0  0
  5  9  4  0  0  0  0
  6  7  4  0  0  0  0
  6 13  4  0  0  0  0
  7  8  4  0  0  0  0
  8  9  4  0  0  0  0
  9 10  1  0  0  0  0
 10 11  1  0  0  0  0
 11 12  1  0  0  0  0
 13 14  4  0  0  0  0
M  STY  1   1 DAT
M  SAL   1  1   7
M  SDT   1 MRV_IMPLICIT_H                                        
M  SDD   1     0.0000    0.0000    DR    ALL  0       0  
M  SED   1 IMPL_H1
M  END
>  <Name_Molregno>
2207

>  <5-HT1B>
8.15

>  <5-HT1D>
8.32

>  <5-HT1E>
5.5

>  <5-HT2A>
6.83

>  <5-HT2C>
7.28

>  <5-HT6>
7.39

>  <5-HT7>
8.7

$$$$
2246
  Marvin  02231216192D 0   1.00000     0.00000     0

 23 26  0  0  0  0  0  0  0  0999 V2000
    0.0748    1.8640    0.0000 Cl  0  0  0  0  0  0  0  0  0
    0.8818    1.6925    0.0000 C   0  0  0  0  0  0  0  0  0
    1.4339    2.3056    0.0000 C   0  0  0  0  0  0  0  0  0
    2.2408    2.1340    0.0000 C   0  0  0  0  0  0  0  0  0
    2.4958    1.3494    0.0000 C   0  0  0  0  0  0  0  0  0
    3.3027    1.1779    0.0000 N   0  0  0  0  0  0  0  0  0
    3.8548    1.7910    0.0000 C   0  0  0  0  0  0  0  0  0
    4.6617    1.6194    0.0000 C   0  0  0  0  0  0  0  0  0
    4.9167    0.8348    0.0000 N   0  0  0  0  0  0  0  0  0
    4.3646    0.2217    0.0000 C   0  0  0  0  0  0  0  0  0
    3.5577    0.3933    0.0000 C   0  0  0  0  0  0  0  0  0
    5.7237    0.6633    0.0000 C   0  0  0  0  0  0  0  0  0
    5.9786   -0.1213    0.0000 C   0  0  0  0  0  0  0  0  0
    6.7632   -0.3763    0.0000 C   0  0  0  0  0  0  0  0  0
    7.4777    0.0362    0.0000 C   0  0  0  0  0  0  0  0  0
    8.1922   -0.3763    0.0000 C   0  0  0  0  0  0  0  0  0
    8.1922   -1.2013    0.0000 C   0  0  0  0  0  0  0  0  0
    7.4777   -1.6138    0.0000 N   0  0  0  0  0  0  0  0  0
    6.7632   -1.2013    0.0000 C   0  0  0  0  0  0  0  0  0
    5.9786   -1.4562    0.0000 N   0  0  0  0  0  0  0  0  0
    5.4937   -0.7888    0.0000 C   0  0  0  0  0  0  0  0  0
    1.9437    0.7363    0.0000 C   0  0  0  0  0  0  0  0  0
    1.1368    0.9078    0.0000 C   0  0  0  0  0  0  0  0  0
  1  2  1  0  0  0  0
  2  3  4  0  0  0  0
  2 23  4  0  0  0  0
  3  4  4  0  0  0  0
  4  5  4  0  0  0  0
  5  6  1  0  0  0  0
  5 22  4  0  0  0  0
  6  7  1  0  0  0  0
  6 11  1  0  0  0  0
  7  8  1  0  0  0  0
  8  9  1  0  0  0  0
  9 10  1  0  0  0  0
  9 12  1  0  0  0  0
 10 11  1  0  0  0  0
 12 13  1  0  0  0  0
 13 14  4  0  0  0  0
 13 21  4  0  0  0  0
 14 15  4  0  0  0  0
 14 19  4  0  0  0  0
 15 16  4  0  0  0  0
 16 17  4  0  0  0  0
 17 18  4  0  0  0  0
 18 19  4  0  0  0  0
 19 20  4  0  0  0  0
 20 21  4  0  0  0  0
 22 23  4  0  0  0  0
M  STY  1   1 DAT
M  SAL   1  1  20
M  SDT   1 MRV_IMPLICIT_H                                        
M  SDD   1     0.0000    0.0000    DR    ALL  0       0  
M  SED   1 IMPL_H1
M  END
>  <Name_Molregno>
2246

>  <5-HT1A>
5.18

>  <5-HT1B>
5

>  <5-HT1D>
5

>  <5-HT1E>
5

>  <5-HT2A>
6.17

>  <5-HT2C>
5.5

>  <5-HT5>
5

>  <5-HT6>
5.78

>  <5-HT7>
6.65

>  <DOPAMINE D2>
5.31

>  <DOPAMINE D3>
5.16

>  <DOPAMINE D4>
9.34

$$$$
6593
  Marvin  02231216192D 0   1.00000     0.00000     0

 26 30  0  0  1  0  0  0  0  0999 V2000
    6.3424    1.1120    0.0000 O   0  0  0  0  0  0  0  0  0
    5.8040    0.4869    0.0000 C   0  0  0  0  0  0  0  0  0
    6.0761   -0.2920    0.0000 C   0  0  0  0  0  0  0  0  0
    5.5377   -0.9170    0.0000 C   0  0  0  0  0  0  0  0  0
    4.7272   -0.7633    0.0000 C   0  0  0  0  0  0  0  0  0
    4.4550    0.0155    0.0000 C   0  0  0  0  0  0  0  0  0
    3.6445    0.1692    0.0000 C   0  0  0  0  0  0  0  0  0
    3.1061   -0.4559    0.0000 C   0  0  0  0  0  0  0  0  0
    3.3782   -1.2347    0.0000 N   0  0  0  0  0  0  0  0  0
    4.1888   -1.3884    0.0000 C   0  0  0  0  0  0  0  0  0
    2.8398   -1.8598    0.0000 C   0  0  0  0  0  0  0  0  0
    2.0292   -1.7061    0.0000 C   0  0  0  0  0  0  0  0  0
    1.7571   -0.9272    0.0000 C   0  0  0  0  0  0  0  0  0
    2.2955   -0.3021    0.0000 C   0  0  0  0  0  0  0  0  0
    1.8674    0.4031    0.0000 N   0  0  0  0  0  0  0  0  0
    1.0644    0.2138    0.0000 C   0  0  0  0  0  0  0  0  0
    0.9962   -0.6083    0.0000 C   0  0  0  0  0  0  0  0  0
    0.2501   -0.9604    0.0000 C   0  0  0  0  0  0  0  0  0
   -0.4278   -0.4903    0.0000 C   0  0  0  0  0  0  0  0  0
   -0.3597    0.3319    0.0000 C   0  0  0  0  0  0  0  0  0
    0.3864    0.6840    0.0000 C   0  0  0  0  0  0  0  0  0
    4.9934    0.6406    0.0000 C   0  0  0  0  0  0  0  0  0
    4.7213    1.4194    0.0000 C   0  0  0  0  0  0  0  0  0
    5.2597    2.0445    0.0000 O   0  0  0  0  0  0  0  0  0
    4.9875    2.8233    0.0000 C   0  0  0  0  0  0  0  0  0
    3.9107    1.5731    0.0000 O   0  0  0  0  0  0  0  0  0
  1  2  1  0  0  0  0
  2  3  1  0  0  0  0
  2 22  1  0  0  0  0
  3  4  1  0  0  0  0
  4  5  1  0  0  0  0
  5  6  1  0  0  0  0
  5 10  1  0  0  0  0
  6  7  1  0  0  0  0
  6 22  1  0  0  0  0
  7  8  1  0  0  0  0
  8  9  1  0  0  0  0
  8 14  1  0  0  0  0
  9 10  1  0  0  0  0
  9 11  1  0  0  0  0
 11 12  1  0  0  0  0
 12 13  1  0  0  0  0
 13 14  4  0  0  0  0
 13 17  4  0  0  0  0
 14 15  4  0  0  0  0
 15 16  4  0  0  0  0
 16 17  4  0  0  0  0
 16 21  4  0  0  0  0
 17 18  4  0  0  0  0
 18 19  4  0  0  0  0
 19 20  4  0  0  0  0
 20 21  4  0  0  0  0
 22 23  1  0  0  0  0
 23 24  1  0  0  0  0
 23 26  2  0  0  0  0
 24 25  1  0  0  0  0
M  STY  1   1 DAT
M  SAL   1  1  15
M  SDT   1 MRV_IMPLICIT_H                                        
M  SDD   1     0.0000    0.0000    DR    ALL  0       0  
M  SED   1 IMPL_H1
M  END
>  <Name_Molregno>
6593

>  <5-HT1A>
6.3

>  <5-HT1B>
7.45

>  <5-HT1D>
7.09

>  <5-HT1E>
5.75

>  <5-HT2A>
5.66

>  <5-HT2C>
5.49

>  <5-HT7>
5.55

>  <Alpha-1A>
6.32

>  <Alpha-1B>
6.42

>  <Alpha-2A>
8.74

>  <Alpha-2B>
8.53

>  <Alpha-2C>
9.21

>  <DOPAMINE D1>
5

>  <DOPAMINE D2>
6.48

>  <DOPAMINE D3>
5.5

>  <Serotonin transporter>
6

$$$$
10755
  Marvin  02231216192D 0   1.00000     0.00000     0

 24 25  0  0  1  0  0  0  0  0999 V2000
   -0.1028   -0.1028    0.0000 Cl  0  0  0  0  0  0  0  0  0
    0.6116   -0.5153    0.0000 C   0  0  0  0  0  0  0  0  0
    1.3261   -0.1028    0.0000 C   0  0  0  0  0  0  0  0  0
    2.0406   -0.5153    0.0000 C   0  0  0  0  0  0  0  0  0
    2.7550   -0.1028    0.0000 S   0  0  0  0  0  0  0  0  0
    2.3425    0.6117    0.0000 O   0  0  0  0  0  0  0  0  0
    3.1675   -0.8172    0.0000 O   0  0  0  0  0  0  0  0  0
    3.4695    0.3097    0.0000 N   0  0  0  0  0  0  0  0  0
    4.1840   -0.1028    0.0000 C   0  0  0  0  0  0  0  0  0
    4.8985    0.3097    0.0000 C   0  0  0  0  0  0  0  0  0
    5.6129   -0.1028    0.0000 C   0  0  0  0  0  0  0  0  0
    6.3274    0.3097    0.0000 N   0  0  0  0  0  0  0  0  0
    6.3274    1.1347    0.0000 C   0  0  0  0  0  0  0  0  0
    7.0419    1.5472    0.0000 C   0  0  0  0  0  0  0  0  0
    7.7563    1.1347    0.0000 C   0  0  0  0  0  0  0  0  0
    7.7563    0.3097    0.0000 C   0  0  0  0  0  0  0  0  0
    7.0419   -0.1028    0.0000 C   0  0  0  0  0  0  0  0  0
    8.4708    1.5472    0.0000 C   0  0  0  0  0  0  0  0  0
    4.1840   -0.9278    0.0000 C   0  0  0  0  0  0  0  0  0
    3.4695    1.1347    0.0000 C   0  0  0  0  0  0  0  0  0
    2.0406   -1.3403    0.0000 C   0  0  0  0  0  0  0  0  0
    1.3261   -1.7528    0.0000 C   0  0  0  0  0  0  0  0  0
    0.6116   -1.3403    0.0000 C   0  0  0  0  0  0  0  0  0
   -0.1028   -1.7528    0.0000 Cl  0  0  0  0  0  0  0  0  0
  1  2  1  0  0  0  0
  2  3  4  0  0  0  0
  2 23  4  0  0  0  0
  3  4  4  0  0  0  0
  4  5  1  0  0  0  0
  4 21  4  0  0  0  0
  5  6  2  0  0  0  0
  5  7  2  0  0  0  0
  5  8  1  0  0  0  0
  8  9  1  0  0  0  0
  8 20  1  0  0  0  0
  9 10  1  0  0  0  0
  9 19  1  0  0  0  0
 10 11  1  0  0  0  0
 11 12  1  0  0  0  0
 12 13  1  0  0  0  0
 12 17  1  0  0  0  0
 13 14  1  0  0  0  0
 14 15  1  0  0  0  0
 15 16  1  0  0  0  0
 15 18  1  0  0  0  0
 16 17  1  0  0  0  0
 21 22  4  0  0  0  0
 22 23  4  0  0  0  0
 23 24  1  0  0  0  0
M  END
>  <Name_Molregno>
10755

>  <5-HT7>
7.5

$$$$
10762
  Marvin  02231216192D 0   1.00000     0.00000     0

 26 28  0  0  1  0  0  0  0  0999 V2000
   -1.7367   -0.0093    0.0000 S   0  0  0  0  0  0  0  0  0
   -2.1492    0.7052    0.0000 O   0  0  0  0  0  0  0  0  0
   -1.3242   -0.7238    0.0000 O   0  0  0  0  0  0  0  0  0
   -1.0222    0.4032    0.0000 N   0  0  0  0  0  0  0  0  0
   -0.3078   -0.0093    0.0000 C   0  0  0  0  0  0  0  0  0
    0.4067    0.4032    0.0000 C   0  0  0  0  0  0  0  0  0
    1.1212   -0.0093    0.0000 C   0  0  0  0  0  0  0  0  0
    1.8356    0.4032    0.0000 N   0  0  0  0  0  0  0  0  0
    1.8356    1.2282    0.0000 C   0  0  0  0  0  0  0  0  0
    2.5501    1.6407    0.0000 C   0  0  0  0  0  0  0  0  0
    3.2646    1.2282    0.0000 C   0  0  0  0  0  0  0  0  0
    3.2646    0.4032    0.0000 C   0  0  0  0  0  0  0  0  0
    2.5501   -0.0093    0.0000 C   0  0  0  0  0  0  0  0  0
    3.9790    1.6407    0.0000 C   0  0  0  0  0  0  0  0  0
   -0.3078   -0.8343    0.0000 C   0  0  0  0  0  0  0  0  0
   -1.0222    1.2282    0.0000 C   0  0  0  0  0  0  0  0  0
   -2.4512   -0.4218    0.0000 C   0  0  0  0  0  0  0  0  0
   -3.1657   -0.0093    0.0000 C   0  0  0  0  0  0  0  0  0
   -3.8801   -0.4218    0.0000 C   0  0  0  0  0  0  0  0  0
   -3.8801   -1.2468    0.0000 C   0  0  0  0  0  0  0  0  0
   -3.1657   -1.6593    0.0000 C   0  0  0  0  0  0  0  0  0
   -2.4512   -1.2468    0.0000 C   0  0  0  0  0  0  0  0  0
   -4.5946   -0.0093    0.0000 C   0  0  0  0  0  0  0  0  0
   -4.5946    0.8157    0.0000 C   0  0  0  0  0  0  0  0  0
   -3.8801    1.2282    0.0000 C   0  0  0  0  0  0  0  0  0
   -3.1657    0.8157    0.0000 C   0  0  0  0  0  0  0  0  0
  1  2  2  0  0  0  0
  1  3  2  0  0  0  0
  1  4  1  0  0  0  0
  1 17  1  0  0  0  0
  4  5  1  0  0  0  0
  4 16  1  0  0  0  0
  5  6  1  0  0  0  0
  5 15  1  0  0  0  0
  6  7  1  0  0  0  0
  7  8  1  0  0  0  0
  8  9  1  0  0  0  0
  8 13  1  0  0  0  0
  9 10  1  0  0  0  0
 10 11  1  0  0  0  0
 11 12  1  0  0  0  0
 11 14  1  0  0  0  0
 12 13  1  0  0  0  0
 17 18  4  0  0  0  0
 17 22  4  0  0  0  0
 18 19  4  0  0  0  0
 18 26  4  0  0  0  0
 19 20  4  0  0  0  0
 19 23  4  0  0  0  0
 20 21  4  0  0  0  0
 21 22  4  0  0  0  0
 23 24  4  0  0  0  0
 24 25  4  0  0  0  0
 25 26  4  0  0  0  0
M  END
>  <Name_Molregno>
10762

>  <5-HT7>
7.5

$$$$
10768
  Marvin  02231216192D 0   1.00000     0.00000     0

 31 35  0  0  1  0  0  0  0  0999 V2000
   -7.7932    0.6375    0.0000 O   0  0  0  0  0  0  0  0  0
   -8.5665    0.3501    0.0000 C   0  0  0  0  0  0  0  0  0
   -7.6555    1.4510    0.0000 C   0  0  0  0  0  0  0  0  0
   -8.2911    1.9770    0.0000 C   0  0  0  0  0  0  0  0  0
   -8.1533    2.7904    0.0000 C   0  0  0  0  0  0  0  0  0
   -7.3800    3.0778    0.0000 C   0  0  0  0  0  0  0  0  0
   -6.7444    2.5518    0.0000 C   0  0  0  0  0  0  0  0  0
   -6.8822    1.7384    0.0000 C   0  0  0  0  0  0  0  0  0
   -6.2466    1.2124    0.0000 N   0  0  0  0  0  0  0  0  0
   -5.4733    1.4998    0.0000 C   0  0  0  0  0  0  0  0  0
   -4.8377    0.9738    0.0000 C   0  0  0  0  0  0  0  0  0
   -4.9755    0.1604    0.0000 N   0  0  0  0  0  0  0  0  0
   -5.7488   -0.1270    0.0000 C   0  0  0  0  0  0  0  0  0
   -6.3843    0.3990    0.0000 C   0  0  0  0  0  0  0  0  0
   -4.3399   -0.3656    0.0000 C   0  0  0  0  0  0  0  0  0
   -3.5666   -0.0782    0.0000 C   0  0  0  0  0  0  0  0  0
   -2.9310   -0.6042    0.0000 C   0  0  0  0  0  0  0  0  0
   -2.1577   -0.3167    0.0000 C   0  0  0  0  0  0  0  0  0
   -1.5221   -0.8427    0.0000 C   0  0  0  0  0  0  0  0  0
   -2.2346   -1.2552    0.0000 C   0  0  0  0  0  0  0  0  0
   -2.2346   -2.0802    0.0000 C   0  0  0  0  0  0  0  0  0
   -1.5221   -2.4927    0.0000 C   0  0  0  0  0  0  0  0  0
   -0.8096   -2.0802    0.0000 C   0  0  0  0  0  0  0  0  0
   -0.8096   -1.2552    0.0000 C   0  0  0  0  0  0  0  0  0
   -0.0918   -0.8427    0.0000 C   0  0  0  0  0  0  0  0  0
   -0.3971    0.0144    0.0000 N   0  0  0  0  0  0  0  0  0
   -1.2221    0.0144    0.0000 C   0  0  0  0  0  0  0  0  0
   -1.6995    0.6873    0.0000 O   0  0  0  0  0  0  0  0  0
    0.6207   -1.2552    0.0000 C   0  0  0  0  0  0  0  0  0
    0.6207   -2.0802    0.0000 C   0  0  0  0  0  0  0  0  0
   -0.0918   -2.4927    0.0000 C   0  0  0  0  0  0  0  0  0
  1  2  1  0  0  0  0
  1  3  1  0  0  0  0
  3  4  4  0  0  0  0
  3  8  4  0  0  0  0
  4  5  4  0  0  0  0
  5  6  4  0  0  0  0
  6  7  4  0  0  0  0
  7  8  4  0  0  0  0
  8  9  1  0  0  0  0
  9 10  1  0  0  0  0
  9 14  1  0  0  0  0
 10 11  1  0  0  0  0
 11 12  1  0  0  0  0
 12 13  1  0  0  0  0
 12 15  1  0  0  0  0
 13 14  1  0  0  0  0
 15 16  1  0  0  0  0
 16 17  1  0  0  0  0
 17 18  1  0  0  0  0
 18 19  1  0  0  0  0
 19 20  1  0  0  0  0
 19 24  1  0  0  0  0
 19 27  1  0  0  0  0
 20 21  1  0  0  0  0
 21 22  1  0  0  0  0
 22 23  1  0  0  0  0
 23 24  4  0  0  0  0
 23 31  4  0  0  0  0
 24 25  4  0  0  0  0
 25 26  1  0  0  0  0
 25 29  4  0  0  0  0
 26 27  1  0  0  0  0
 27 28  2  0  0  0  0
 29 30  4  0  0  0  0
 30 31  4  0  0  0  0
M  END
>  <Name_Molregno>
10768

>  <5-HT7>
8.67

$$$$
10800
  Marvin  02231216192D 0   1.00000     0.00000     0

 28 32  0  0  1  0  0  0  0  0999 V2000
   -2.2259   -1.4397    0.0000 O   0  0  0  0  0  0  0  0  0
   -1.7485   -2.1125    0.0000 C   0  0  0  0  0  0  0  0  0
   -0.9235   -2.1125    0.0000 N   0  0  0  0  0  0  0  0  0
   -0.6181   -2.9697    0.0000 C   0  0  0  0  0  0  0  0  0
   -1.3360   -3.3822    0.0000 C   0  0  0  0  0  0  0  0  0
   -1.3360   -4.2072    0.0000 C   0  0  0  0  0  0  0  0  0
   -2.0485   -4.6197    0.0000 C   0  0  0  0  0  0  0  0  0
   -2.7610   -4.2072    0.0000 C   0  0  0  0  0  0  0  0  0
   -2.7610   -3.3822    0.0000 C   0  0  0  0  0  0  0  0  0
   -2.0485   -2.9697    0.0000 C   0  0  0  0  0  0  0  0  0
   -2.6841   -2.4437    0.0000 C   0  0  0  0  0  0  0  0  0
   -2.5463   -1.6303    0.0000 C   0  0  0  0  0  0  0  0  0
   -3.1819   -1.1043    0.0000 C   0  0  0  0  0  0  0  0  0
   -3.0442   -0.2909    0.0000 N   0  0  0  0  0  0  0  0  0
   -3.6797    0.2351    0.0000 C   0  0  0  0  0  0  0  0  0
   -3.5420    1.0486    0.0000 C   0  0  0  0  0  0  0  0  0
   -2.7687    1.3360    0.0000 N   0  0  0  0  0  0  0  0  0
   -2.1331    0.8100    0.0000 C   0  0  0  0  0  0  0  0  0
   -2.2709   -0.0034    0.0000 C   0  0  0  0  0  0  0  0  0
   -2.6310    2.1494    0.0000 C   0  0  0  0  0  0  0  0  0
   -3.2665    2.6754    0.0000 C   0  0  0  0  0  0  0  0  0
   -3.1288    3.4888    0.0000 C   0  0  0  0  0  0  0  0  0
   -2.3555    3.7762    0.0000 C   0  0  0  0  0  0  0  0  0
   -1.7199    3.2503    0.0000 C   0  0  0  0  0  0  0  0  0
   -1.8576    2.4368    0.0000 C   0  0  0  0  0  0  0  0  0
   -0.6181   -4.6197    0.0000 C   0  0  0  0  0  0  0  0  0
    0.0944   -4.2072    0.0000 C   0  0  0  0  0  0  0  0  0
    0.0944   -3.3822    0.0000 C   0  0  0  0  0  0  0  0  0
  1  2  2  0  0  0  0
  2  3  1  0  0  0  0
  2 10  1  0  0  0  0
  3  4  1  0  0  0  0
  4  5  4  0  0  0  0
  4 28  4  0  0  0  0
  5  6  4  0  0  0  0
  5 10  1  0  0  0  0
  6  7  1  0  0  0  0
  6 26  4  0  0  0  0
  7  8  1  0  0  0  0
  8  9  1  0  0  0  0
  9 10  1  0  0  0  0
 10 11  1  0  0  0  0
 11 12  1  0  0  0  0
 12 13  1  0  0  0  0
 13 14  1  0  0  0  0
 14 15  1  0  0  0  0
 14 19  1  0  0  0  0
 15 16  1  0  0  0  0
 16 17  1  0  0  0  0
 17 18  1  0  0  0  0
 17 20  1  0  0  0  0
 18 19  1  0  0  0  0
 20 21  4  0  0  0  0
 20 25  4  0  0  0  0
 21 22  4  0  0  0  0
 22 23  4  0  0  0  0
 23 24  4  0  0  0  0
 24 25  4  0  0  0  0
 26 27  4  0  0  0  0
 27 28  4  0  0  0  0
M  END
>  <Name_Molregno>
10800

>  <5-HT7>
8.3

$$$$
10841
  Marvin  02231216192D 0   1.00000     0.00000     0

 23 24  0  0  1  0  0  0  0  0999 V2000
   -0.0333    0.0014    0.0000 S   0  0  0  0  0  0  0  0  0
    0.3792    0.7158    0.0000 O   0  0  0  0  0  0  0  0  0
   -0.4458   -0.7131    0.0000 O   0  0  0  0  0  0  0  0  0
    0.6812   -0.4111    0.0000 N   0  0  0  0  0  0  0  0  0
    1.3957    0.0014    0.0000 C   0  0  0  0  0  0  0  0  0
    2.1102   -0.4111    0.0000 C   0  0  0  0  0  0  0  0  0
    2.8246    0.0014    0.0000 C   0  0  0  0  0  0  0  0  0
    3.5391   -0.4111    0.0000 N   0  0  0  0  0  0  0  0  0
    4.2536    0.0014    0.0000 C   0  0  0  0  0  0  0  0  0
    4.9680   -0.4111    0.0000 C   0  0  0  0  0  0  0  0  0
    4.9680   -1.2361    0.0000 C   0  0  0  0  0  0  0  0  0
    4.2536   -1.6486    0.0000 C   0  0  0  0  0  0  0  0  0
    3.5391   -1.2361    0.0000 C   0  0  0  0  0  0  0  0  0
    5.6825   -1.6486    0.0000 C   0  0  0  0  0  0  0  0  0
    1.3957    0.8264    0.0000 C   0  0  0  0  0  0  0  0  0
    0.6812   -1.2361    0.0000 C   0  0  0  0  0  0  0  0  0
   -0.7477    0.4139    0.0000 C   0  0  0  0  0  0  0  0  0
   -1.4622    0.0014    0.0000 C   0  0  0  0  0  0  0  0  0
   -2.1767    0.4139    0.0000 C   0  0  0  0  0  0  0  0  0
   -2.1767    1.2389    0.0000 C   0  0  0  0  0  0  0  0  0
   -1.4622    1.6514    0.0000 C   0  0  0  0  0  0  0  0  0
   -0.7477    1.2389    0.0000 C   0  0  0  0  0  0  0  0  0
   -2.8911    0.0014    0.0000 C   0  0  0  0  0  0  0  0  0
  1  2  2  0  0  0  0
  1  3  2  0  0  0  0
  1  4  1  0  0  0  0
  1 17  1  0  0  0  0
  4  5  1  0  0  0  0
  4 16  1  0  0  0  0
  5  6  1  0  0  0  0
  5 15  1  0  0  0  0
  6  7  1  0  0  0  0
  7  8  1  0  0  0  0
  8  9  1  0  0  0  0
  8 13  1  0  0  0  0
  9 10  1  0  0  0  0
 10 11  1  0  0  0  0
 11 12  1  0  0  0  0
 11 14  1  0  0  0  0
 12 13  1  0  0  0  0
 17 18  4  0  0  0  0
 17 22  4  0  0  0  0
 18 19  4  0  0  0  0
 19 20  4  0  0  0  0
 19 23  1  0  0  0  0
 20 21  4  0  0  0  0
 21 22  4  0  0  0  0
M  END
>  <Name_Molregno>
10841

>  <5-HT1A>
5.1

>  <5-HT7>
7.49

>  <DOPAMINE D2>
5.4

$$$$
10842
  Marvin  02231216192D 0   1.00000     0.00000     0

 23 24  0  0  1  0  0  0  0  0999 V2000
    0.5799    1.9994    0.0000 Br  0  0  0  0  0  0  0  0  0
    0.9154    1.2457    0.0000 C   0  0  0  0  0  0  0  0  0
    1.7224    1.0742    0.0000 C   0  0  0  0  0  0  0  0  0
    1.8087    0.2537    0.0000 C   0  0  0  0  0  0  0  0  0
    1.0550   -0.0818    0.0000 S   0  0  0  0  0  0  0  0  0
    0.5029    0.5313    0.0000 C   0  0  0  0  0  0  0  0  0
   -0.3175    0.4450    0.0000 Br  0  0  0  0  0  0  0  0  0
    2.5231   -0.1588    0.0000 S   0  0  0  0  0  0  0  0  0
    2.1106   -0.8732    0.0000 O   0  0  0  0  0  0  0  0  0
    2.9356    0.5557    0.0000 O   0  0  0  0  0  0  0  0  0
    3.2376   -0.5713    0.0000 N   0  0  0  0  0  0  0  0  0
    3.9521   -0.1588    0.0000 C   0  0  0  0  0  0  0  0  0
    4.6665   -0.5713    0.0000 C   0  0  0  0  0  0  0  0  0
    5.3810   -0.1588    0.0000 C   0  0  0  0  0  0  0  0  0
    6.0955   -0.5713    0.0000 N   0  0  0  0  0  0  0  0  0
    6.8099   -0.1588    0.0000 C   0  0  0  0  0  0  0  0  0
    7.5244   -0.5713    0.0000 C   0  0  0  0  0  0  0  0  0
    7.5244   -1.3963    0.0000 C   0  0  0  0  0  0  0  0  0
    6.8099   -1.8088    0.0000 C   0  0  0  0  0  0  0  0  0
    6.0955   -1.3963    0.0000 C   0  0  0  0  0  0  0  0  0
    8.2389   -1.8088    0.0000 C   0  0  0  0  0  0  0  0  0
    3.9521    0.6662    0.0000 C   0  0  0  0  0  0  0  0  0
    3.2376   -1.3963    0.0000 C   0  0  0  0  0  0  0  0  0
  1  2  1  0  0  0  0
  2  3  4  0  0  0  0
  2  6  4  0  0  0  0
  3  4  4  0  0  0  0
  4  5  4  0  0  0  0
  4  8  1  0  0  0  0
  5  6  4  0  0  0  0
  6  7  1  0  0  0  0
  8  9  2  0  0  0  0
  8 10  2  0  0  0  0
  8 11  1  0  0  0  0
 11 12  1  0  0  0  0
 11 23  1  0  0  0  0
 12 13  1  0  0  0  0
 12 22  1  0  0  0  0
 13 14  1  0  0  0  0
 14 15  1  0  0  0  0
 15 16  1  0  0  0  0
 15 20  1  0  0  0  0
 16 17  1  0  0  0  0
 17 18  1  0  0  0  0
 18 19  1  0  0  0  0
 18 21  1  0  0  0  0
 19 20  1  0  0  0  0
M  END
>  <Name_Molregno>
10842

>  <5-HT7>
7.8

$$$$
10846
  Marvin  02231216192D 0   1.00000     0.00000     0

 26 28  0  0  1  0  0  0  0  0999 V2000
   -1.6796   -0.4156    0.0000 S   0  0  0  0  0  0  0  0  0
   -2.0921    0.2988    0.0000 O   0  0  0  0  0  0  0  0  0
   -1.2671   -1.1301    0.0000 O   0  0  0  0  0  0  0  0  0
   -0.9651   -0.0031    0.0000 N   0  0  0  0  0  0  0  0  0
   -0.2506   -0.4156    0.0000 C   0  0  0  0  0  0  0  0  0
    0.4638   -0.0031    0.0000 C   0  0  0  0  0  0  0  0  0
    1.1783   -0.4156    0.0000 C   0  0  0  0  0  0  0  0  0
    1.8928   -0.0031    0.0000 N   0  0  0  0  0  0  0  0  0
    1.8928    0.8219    0.0000 C   0  0  0  0  0  0  0  0  0
    2.6073    1.2344    0.0000 C   0  0  0  0  0  0  0  0  0
    3.3217    0.8219    0.0000 C   0  0  0  0  0  0  0  0  0
    3.3217   -0.0031    0.0000 C   0  0  0  0  0  0  0  0  0
    2.6073   -0.4156    0.0000 C   0  0  0  0  0  0  0  0  0
    2.6073    2.0594    0.0000 C   0  0  0  0  0  0  0  0  0
   -0.2506   -1.2406    0.0000 C   0  0  0  0  0  0  0  0  0
   -0.9651    0.8219    0.0000 C   0  0  0  0  0  0  0  0  0
   -2.3940   -0.8281    0.0000 C   0  0  0  0  0  0  0  0  0
   -3.1085   -0.4156    0.0000 C   0  0  0  0  0  0  0  0  0
   -3.8230   -0.8281    0.0000 C   0  0  0  0  0  0  0  0  0
   -3.8230   -1.6531    0.0000 C   0  0  0  0  0  0  0  0  0
   -3.1085   -2.0656    0.0000 C   0  0  0  0  0  0  0  0  0
   -2.3940   -1.6531    0.0000 C   0  0  0  0  0  0  0  0  0
   -4.5375   -0.4156    0.0000 C   0  0  0  0  0  0  0  0  0
   -4.5375    0.4094    0.0000 C   0  0  0  0  0  0  0  0  0
   -3.8230    0.8219    0.0000 C   0  0  0  0  0  0  0  0  0
   -3.1085    0.4094    0.0000 C   0  0  0  0  0  0  0  0  0
  1  2  2  0  0  0  0
  1  3  2  0  0  0  0
  1  4  1  0  0  0  0
  1 17  1  0  0  0  0
  4  5  1  0  0  0  0
  4 16  1  0  0  0  0
  5  6  1  0  0  0  0
  5 15  1  0  0  0  0
  6  7  1  0  0  0  0
  7  8  1  0  0  0  0
  8  9  1  0  0  0  0
  8 13  1  0  0  0  0
  9 10  1  0  0  0  0
 10 11  1  0  0  0  0
 10 14  1  0  0  0  0
 11 12  1  0  0  0  0
 12 13  1  0  0  0  0
 17 18  4  0  0  0  0
 17 22  4  0  0  0  0
 18 19  4  0  0  0  0
 18 26  4  0  0  0  0
 19 20  4  0  0  0  0
 19 23  4  0  0  0  0
 20 21  4  0  0  0  0
 21 22  4  0  0  0  0
 23 24  4  0  0  0  0
 24 25  4  0  0  0  0
 25 26  4  0  0  0  0
M  END
>  <Name_Molregno>
10846

>  <5-HT7>
6.58

$$$$
10925
  Marvin  02231216192D 0   1.00000     0.00000     0

 30 34  0  0  0  0  0  0  0  0999 V2000
   -5.8120    0.0919    0.0000 O   0  0  0  0  0  0  0  0  0
   -5.3346   -0.5809    0.0000 C   0  0  0  0  0  0  0  0  0
   -4.5096   -0.5809    0.0000 N   0  0  0  0  0  0  0  0  0
   -4.2042   -1.4381    0.0000 C   0  0  0  0  0  0  0  0  0
   -4.9221   -1.8506    0.0000 C   0  0  0  0  0  0  0  0  0
   -5.6346   -1.4381    0.0000 C   0  0  0  0  0  0  0  0  0
   -6.3471   -1.8506    0.0000 C   0  0  0  0  0  0  0  0  0
   -6.3471   -2.6756    0.0000 C   0  0  0  0  0  0  0  0  0
   -5.6346   -3.0881    0.0000 C   0  0  0  0  0  0  0  0  0
   -4.9221   -2.6756    0.0000 C   0  0  0  0  0  0  0  0  0
   -4.2042   -3.0881    0.0000 C   0  0  0  0  0  0  0  0  0
   -3.4917   -2.6756    0.0000 C   0  0  0  0  0  0  0  0  0
   -3.4917   -1.8506    0.0000 C   0  0  0  0  0  0  0  0  0
   -4.0341    0.0933    0.0000 C   0  0  0  0  0  0  0  0  0
   -3.2125    0.0186    0.0000 C   0  0  0  0  0  0  0  0  0
   -2.7370    0.6927    0.0000 C   0  0  0  0  0  0  0  0  0
   -1.9154    0.6180    0.0000 C   0  0  0  0  0  0  0  0  0
   -1.4398    1.2922    0.0000 C   0  0  0  0  0  0  0  0  0
   -0.6182    1.2175    0.0000 N   0  0  0  0  0  0  0  0  0
   -0.1427    1.8917    0.0000 C   0  0  0  0  0  0  0  0  0
    0.6789    1.8170    0.0000 C   0  0  0  0  0  0  0  0  0
    1.0250    1.0681    0.0000 N   0  0  0  0  0  0  0  0  0
    0.5495    0.3939    0.0000 C   0  0  0  0  0  0  0  0  0
   -0.2721    0.4686    0.0000 C   0  0  0  0  0  0  0  0  0
    1.8466    0.9934    0.0000 C   0  0  0  0  0  0  0  0  0
    2.3221    1.6675    0.0000 C   0  0  0  0  0  0  0  0  0
    3.1437    1.5928    0.0000 C   0  0  0  0  0  0  0  0  0
    3.4898    0.8439    0.0000 C   0  0  0  0  0  0  0  0  0
    3.0143    0.1698    0.0000 C   0  0  0  0  0  0  0  0  0
    2.1927    0.2445    0.0000 C   0  0  0  0  0  0  0  0  0
  1  2  2  0  0  0  0
  2  3  1  0  0  0  0
  2  6  1  0  0  0  0
  3  4  1  0  0  0  0
  3 14  1  0  0  0  0
  4  5  4  0  0  0  0
  4 13  4  0  0  0  0
  5  6  4  0  0  0  0
  5 10  4  0  0  0  0
  6  7  4  0  0  0  0
  7  8  4  0  0  0  0
  8  9  4  0  0  0  0
  9 10  4  0  0  0  0
 10 11  4  0  0  0  0
 11 12  4  0  0  0  0
 12 13  4  0  0  0  0
 14 15  1  0  0  0  0
 15 16  1  0  0  0  0
 16 17  1  0  0  0  0
 17 18  1  0  0  0  0
 18 19  1  0  0  0  0
 19 20  1  0  0  0  0
 19 24  1  0  0  0  0
 20 21  1  0  0  0  0
 21 22  1  0  0  0  0
 22 23  1  0  0  0  0
 22 25  1  0  0  0  0
 23 24  1  0  0  0  0
 25 26  4  0  0  0  0
 25 30  4  0  0  0  0
 26 27  4  0  0  0  0
 27 28  4  0  0  0  0
 28 29  4  0  0  0  0
 29 30  4  0  0  0  0
M  END
>  <Name_Molregno>
10925

>  <5-HT7>
7.05

$$$$
10956
  Marvin  02231216192D 0   1.00000     0.00000     0

 24 26  0  0  1  0  0  0  0  0999 V2000
    0.1506    0.0052    0.0000 S   0  0  0  0  0  0  0  0  0
    0.9756    0.0052    0.0000 O   0  0  0  0  0  0  0  0  0
   -0.6744    0.0052    0.0000 O   0  0  0  0  0  0  0  0  0
    0.1506   -0.8198    0.0000 N   0  0  0  0  0  0  0  0  0
    0.8180   -1.3047    0.0000 C   0  0  0  0  0  0  0  0  0
    0.5631   -2.0893    0.0000 C   0  0  0  0  0  0  0  0  0
   -0.2619   -2.0893    0.0000 C   0  0  0  0  0  0  0  0  0
   -0.5168   -1.3047    0.0000 C   0  0  0  0  0  0  0  0  0
   -1.3015   -1.0498    0.0000 C   0  0  0  0  0  0  0  0  0
   -1.9146   -1.6018    0.0000 C   0  0  0  0  0  0  0  0  0
   -2.6992   -1.3469    0.0000 N   0  0  0  0  0  0  0  0  0
   -3.3123   -1.8989    0.0000 C   0  0  0  0  0  0  0  0  0
   -4.0969   -1.6440    0.0000 C   0  0  0  0  0  0  0  0  0
   -4.2684   -0.8370    0.0000 C   0  0  0  0  0  0  0  0  0
   -3.6553   -0.2850    0.0000 C   0  0  0  0  0  0  0  0  0
   -2.8707   -0.5399    0.0000 C   0  0  0  0  0  0  0  0  0
   -5.0530   -0.5821    0.0000 C   0  0  0  0  0  0  0  0  0
    0.1506    0.8302    0.0000 C   0  0  0  0  0  0  0  0  0
   -0.5639    1.2427    0.0000 C   0  0  0  0  0  0  0  0  0
   -0.5639    2.0677    0.0000 C   0  0  0  0  0  0  0  0  0
    0.1506    2.4802    0.0000 C   0  0  0  0  0  0  0  0  0
    0.8651    2.0677    0.0000 C   0  0  0  0  0  0  0  0  0
    0.8651    1.2427    0.0000 C   0  0  0  0  0  0  0  0  0
   -1.2783    2.4802    0.0000 C   0  0  0  0  0  0  0  0  0
  1  2  2  0  0  0  0
  1  3  2  0  0  0  0
  1  4  1  0  0  0  0
  1 18  1  0  0  0  0
  4  5  1  0  0  0  0
  4  8  1  0  0  0  0
  5  6  1  0  0  0  0
  6  7  1  0  0  0  0
  7  8  1  0  0  0  0
  8  9  1  0  0  0  0
  9 10  1  0  0  0  0
 10 11  1  0  0  0  0
 11 12  1  0  0  0  0
 11 16  1  0  0  0  0
 12 13  1  0  0  0  0
 13 14  1  0  0  0  0
 14 15  1  0  0  0  0
 14 17  1  0  0  0  0
 15 16  1  0  0  0  0
 18 19  4  0  0  0  0
 18 23  4  0  0  0  0
 19 20  4  0  0  0  0
 20 21  4  0  0  0  0
 20 24  1  0  0  0  0
 21 22  4  0  0  0  0
 22 23  4  0  0  0  0
M  END
>  <Name_Molregno>
10956

>  <5-HT2A>
5.3

>  <5-HT7>
8.52

$$$$
10969
  Marvin  02231216192D 0   1.00000     0.00000     0

 25 28  0  0  1  0  0  0  0  0999 V2000
   -3.0364    1.7261    0.0000 Br  0  0  0  0  0  0  0  0  0
   -2.5591    1.0532    0.0000 C   0  0  0  0  0  0  0  0  0
   -1.7341    1.0532    0.0000 N   0  0  0  0  0  0  0  0  0
   -1.4287    0.1961    0.0000 C   0  0  0  0  0  0  0  0  0
   -2.1466   -0.2164    0.0000 C   0  0  0  0  0  0  0  0  0
   -2.8591    0.1961    0.0000 C   0  0  0  0  0  0  0  0  0
   -3.5716   -0.2164    0.0000 C   0  0  0  0  0  0  0  0  0
   -3.5716   -1.0414    0.0000 C   0  0  0  0  0  0  0  0  0
   -4.2865   -1.4531    0.0000 N   0  0  0  0  0  0  0  0  0
   -4.2875   -2.2781    0.0000 C   0  0  0  0  0  0  0  0  0
   -3.5735   -2.6914    0.0000 C   0  0  0  0  0  0  0  0  0
   -2.8586   -2.2798    0.0000 C   0  0  0  0  0  0  0  0  0
   -2.8576   -1.4548    0.0000 C   0  0  0  0  0  0  0  0  0
   -2.1466   -1.0414    0.0000 C   0  0  0  0  0  0  0  0  0
   -1.4287   -1.4539    0.0000 C   0  0  0  0  0  0  0  0  0
   -0.7162   -1.0414    0.0000 C   0  0  0  0  0  0  0  0  0
   -0.7162   -0.2164    0.0000 C   0  0  0  0  0  0  0  0  0
   -3.5745   -3.5164    0.0000 C   0  0  0  0  0  0  0  0  0
   -4.2895   -3.9281    0.0000 O   0  0  0  0  0  0  0  0  0
   -2.8605   -3.9298    0.0000 N   0  0  0  0  0  0  0  0  0
   -2.8615   -4.7548    0.0000 C   0  0  0  0  0  0  0  0  0
   -2.1476   -5.1681    0.0000 C   0  0  0  0  0  0  0  0  0
   -2.1456   -3.5181    0.0000 C   0  0  0  0  0  0  0  0  0
   -1.4316   -3.9315    0.0000 C   0  0  0  0  0  0  0  0  0
   -5.0005   -1.0397    0.0000 C   0  0  0  0  0  0  0  0  0
  1  2  1  0  0  0  0
  2  3  4  0  0  0  0
  2  6  4  0  0  0  0
  3  4  4  0  0  0  0
  4  5  4  0  0  0  0
  4 17  4  0  0  0  0
  5  6  4  0  0  0  0
  5 14  4  0  0  0  0
  6  7  1  0  0  0  0
  7  8  1  0  0  0  0
  8  9  1  0  0  0  0
  8 13  1  0  0  0  0
  9 10  1  0  0  0  0
  9 25  1  0  0  0  0
 10 11  1  0  0  0  0
 11 12  1  0  0  0  0
 11 18  1  0  0  0  0
 12 13  2  0  0  0  0
 13 14  1  0  0  0  0
 14 15  4  0  0  0  0
 15 16  4  0  0  0  0
 16 17  4  0  0  0  0
 18 19  2  0  0  0  0
 18 20  1  0  0  0  0
 20 21  1  0  0  0  0
 20 23  1  0  0  0  0
 21 22  1  0  0  0  0
 23 24  1  0  0  0  0
M  STY  1   1 DAT
M  SAL   1  1   3
M  SDT   1 MRV_IMPLICIT_H                                        
M  SDD   1     0.0000    0.0000    DR    ALL  0       0  
M  SED   1 IMPL_H1
M  END
>  <Name_Molregno>
10969

>  <5-HT6>
7.77

>  <5-HT7>
7.52

$$$$
11029
  Marvin  02231216192D 0   1.00000     0.00000     0

 24 25  0  0  1  0  0  0  0  0999 V2000
   -0.1028   -0.1028    0.0000 Br  0  0  0  0  0  0  0  0  0
    0.6116   -0.5153    0.0000 C   0  0  0  0  0  0  0  0  0
    1.3261   -0.1028    0.0000 C   0  0  0  0  0  0  0  0  0
    2.0406   -0.5153    0.0000 C   0  0  0  0  0  0  0  0  0
    2.7550   -0.1028    0.0000 S   0  0  0  0  0  0  0  0  0
    2.3425    0.6117    0.0000 O   0  0  0  0  0  0  0  0  0
    3.1675   -0.8172    0.0000 O   0  0  0  0  0  0  0  0  0
    3.4695    0.3097    0.0000 N   0  0  0  0  0  0  0  0  0
    4.1840   -0.1028    0.0000 C   0  0  0  0  0  0  0  0  0
    4.8985    0.3097    0.0000 C   0  0  0  0  0  0  0  0  0
    5.6129   -0.1028    0.0000 C   0  0  0  0  0  0  0  0  0
    6.3274    0.3097    0.0000 N   0  0  0  0  0  0  0  0  0
    6.3274    1.1347    0.0000 C   0  0  0  0  0  0  0  0  0
    7.0419    1.5472    0.0000 C   0  0  0  0  0  0  0  0  0
    7.7563    1.1347    0.0000 C   0  0  0  0  0  0  0  0  0
    7.7563    0.3097    0.0000 C   0  0  0  0  0  0  0  0  0
    7.0419   -0.1028    0.0000 C   0  0  0  0  0  0  0  0  0
    8.4708    1.5472    0.0000 C   0  0  0  0  0  0  0  0  0
    4.1840   -0.9278    0.0000 C   0  0  0  0  0  0  0  0  0
    3.4695    1.1347    0.0000 C   0  0  0  0  0  0  0  0  0
    2.0406   -1.3403    0.0000 C   0  0  0  0  0  0  0  0  0
    1.3261   -1.7528    0.0000 C   0  0  0  0  0  0  0  0  0
    0.6116   -1.3403    0.0000 C   0  0  0  0  0  0  0  0  0
   -0.1028   -1.7528    0.0000 Br  0  0  0  0  0  0  0  0  0
  1  2  1  0  0  0  0
  2  3  4  0  0  0  0
  2 23  4  0  0  0  0
  3  4  4  0  0  0  0
  4  5  1  0  0  0  0
  4 21  4  0  0  0  0
  5  6  2  0  0  0  0
  5  7  2  0  0  0  0
  5  8  1  0  0  0  0
  8  9  1  0  0  0  0
  8 20  1  0  0  0  0
  9 10  1  0  0  0  0
  9 19  1  0  0  0  0
 10 11  1  0  0  0  0
 11 12  1  0  0  0  0
 12 13  1  0  0  0  0
 12 17  1  0  0  0  0
 13 14  1  0  0  0  0
 14 15  1  0  0  0  0
 15 16  1  0  0  0  0
 15 18  1  0  0  0  0
 16 17  1  0  0  0  0
 21 22  4  0  0  0  0
 22 23  4  0  0  0  0
 23 24  1  0  0  0  0
M  END
>  <Name_Molregno>
11029

>  <5-HT7>
7.7

$$$$
13284
  Marvin  02231216192D 0   1.00000     0.00000     0

 29 33  0  0  1  0  0  0  0  0999 V2000
   -3.7167   -2.4180    0.0000 O   0  0  0  0  0  0  0  0  0
   -3.7176   -3.2430    0.0000 C   0  0  0  0  0  0  0  0  0
   -4.4326   -3.6546    0.0000 C   0  0  0  0  0  0  0  0  0
   -4.4336   -4.4796    0.0000 C   0  0  0  0  0  0  0  0  0
   -5.1486   -4.8913    0.0000 C   0  0  0  0  0  0  0  0  0
   -5.8625   -4.4779    0.0000 C   0  0  0  0  0  0  0  0  0
   -5.8616   -3.6529    0.0000 C   0  0  0  0  0  0  0  0  0
   -5.1466   -3.2413    0.0000 C   0  0  0  0  0  0  0  0  0
   -3.0017   -2.0063    0.0000 C   0  0  0  0  0  0  0  0  0
   -2.2877   -2.4197    0.0000 O   0  0  0  0  0  0  0  0  0
   -3.0007   -1.1813    0.0000 N   0  0  0  0  0  0  0  0  0
   -2.2857   -0.7697    0.0000 C   0  0  0  0  0  0  0  0  0
   -2.2848    0.0553    0.0000 C   0  0  0  0  0  0  0  0  0
   -1.5698    0.4670    0.0000 C   0  0  0  0  0  0  0  0  0
   -1.5688    1.2920    0.0000 C   0  0  0  0  0  0  0  0  0
   -2.2828    1.7053    0.0000 C   0  0  0  0  0  0  0  0  0
   -2.9977    1.2937    0.0000 N   0  0  0  0  0  0  0  0  0
   -2.9987    0.4687    0.0000 C   0  0  0  0  0  0  0  0  0
   -3.7117    1.7070    0.0000 C   0  0  0  0  0  0  0  0  0
   -2.2813    2.5295    0.0000 C   0  0  0  0  0  0  0  0  0
   -1.5688    2.9420    0.0000 C   0  0  0  0  0  0  0  0  0
   -0.8563    2.5295    0.0000 C   0  0  0  0  0  0  0  0  0
   -0.8563    1.7045    0.0000 C   0  0  0  0  0  0  0  0  0
   -0.1384    1.2920    0.0000 C   0  0  0  0  0  0  0  0  0
    0.5741    1.7045    0.0000 C   0  0  0  0  0  0  0  0  0
    0.5741    2.5295    0.0000 C   0  0  0  0  0  0  0  0  0
   -0.1384    2.9420    0.0000 C   0  0  0  0  0  0  0  0  0
   -0.4438    3.7991    0.0000 N   0  0  0  0  0  0  0  0  0
   -1.2688    3.7991    0.0000 C   0  0  0  0  0  0  0  0  0
  1  2  1  0  0  0  0
  1  9  1  0  0  0  0
  2  3  1  0  0  0  0
  3  4  4  0  0  0  0
  3  8  4  0  0  0  0
  4  5  4  0  0  0  0
  5  6  4  0  0  0  0
  6  7  4  0  0  0  0
  7  8  4  0  0  0  0
  9 10  2  0  0  0  0
  9 11  1  0  0  0  0
 11 12  1  0  0  0  0
 12 13  1  0  0  0  0
 13 14  1  0  0  0  0
 13 18  1  0  0  0  0
 14 15  1  0  0  0  0
 15 16  1  0  0  0  0
 15 23  1  0  0  0  0
 16 17  1  0  0  0  0
 16 20  1  0  0  0  0
 17 18  1  0  0  0  0
 17 19  1  0  0  0  0
 20 21  1  0  0  0  0
 21 22  4  0  0  0  0
 21 29  4  0  0  0  0
 22 23  4  0  0  0  0
 22 27  4  0  0  0  0
 23 24  4  0  0  0  0
 24 25  4  0  0  0  0
 25 26  4  0  0  0  0
 26 27  4  0  0  0  0
 27 28  4  0  0  0  0
 28 29  4  0  0  0  0
M  STY  1   1 DAT
M  SAL   1  1  28
M  SDT   1 MRV_IMPLICIT_H                                        
M  SDD   1     0.0000    0.0000    DR    ALL  0       0  
M  SED   1 IMPL_H1
M  END
>  <Name_Molregno>
13284

>  <5-HT5>
6.2

>  <5-HT6>
6.4

>  <5-HT7>
8.19

$$$$
16396
  Marvin  02231216192D 0   1.00000     0.00000     0

 37 41  0  0  0  0  0  0  0  0999 V2000
    9.4469    5.2044    0.0000 O   0  0  0  0  0  0  0  0  0
    9.1920    4.4198    0.0000 N   0  0  0  0  0  0  0  0  0
    8.3670    4.4198    0.0000 C   0  0  0  0  0  0  0  0  0
    8.1121    5.2044    0.0000 N   0  0  0  0  0  0  0  0  0
    8.7795    5.6894    0.0000 C   0  0  0  0  0  0  0  0  0
    8.7795    6.5144    0.0000 C   0  0  0  0  0  0  0  0  0
    7.8821    3.7524    0.0000 C   0  0  0  0  0  0  0  0  0
    8.2176    2.9987    0.0000 C   0  0  0  0  0  0  0  0  0
    7.7327    2.3313    0.0000 C   0  0  0  0  0  0  0  0  0
    8.0683    1.5776    0.0000 C   0  0  0  0  0  0  0  0  0
    6.9122    2.4175    0.0000 C   0  0  0  0  0  0  0  0  0
    6.5767    3.1712    0.0000 C   0  0  0  0  0  0  0  0  0
    7.0616    3.8386    0.0000 C   0  0  0  0  0  0  0  0  0
    6.4273    1.7501    0.0000 C   0  0  0  0  0  0  0  0  0
    6.7629    0.9964    0.0000 C   0  0  0  0  0  0  0  0  0
    6.2779    0.3289    0.0000 C   0  0  0  0  0  0  0  0  0
    5.4575    0.4152    0.0000 C   0  0  0  0  0  0  0  0  0
    5.1219    1.1689    0.0000 C   0  0  0  0  0  0  0  0  0
    5.6068    1.8363    0.0000 C   0  0  0  0  0  0  0  0  0
    4.9725   -0.2523    0.0000 C   0  0  0  0  0  0  0  0  0
    4.1521   -0.1660    0.0000 O   0  0  0  0  0  0  0  0  0
    5.3081   -1.0059    0.0000 N   0  0  0  0  0  0  0  0  0
    4.8232   -1.6734    0.0000 C   0  0  0  0  0  0  0  0  0
    5.1587   -2.4270    0.0000 C   0  0  0  0  0  0  0  0  0
    4.6738   -3.0945    0.0000 C   0  0  0  0  0  0  0  0  0
    5.0094   -3.8482    0.0000 N   0  0  0  0  0  0  0  0  0
    5.8298   -3.9344    0.0000 C   0  0  0  0  0  0  0  0  0
    6.1654   -4.6881    0.0000 C   0  0  0  0  0  0  0  0  0
    5.6805   -5.3555    0.0000 N   0  0  0  0  0  0  0  0  0
    4.8600   -5.2693    0.0000 C   0  0  0  0  0  0  0  0  0
    4.5244   -4.5156    0.0000 C   0  0  0  0  0  0  0  0  0
    6.0160   -6.1092    0.0000 C   0  0  0  0  0  0  0  0  0
    3.8533   -3.0082    0.0000 C   0  0  0  0  0  0  0  0  0
    3.3684   -3.6757    0.0000 O   0  0  0  0  0  0  0  0  0
    2.5479   -3.5894    0.0000 C   0  0  0  0  0  0  0  0  0
    3.5178   -2.2546    0.0000 C   0  0  0  0  0  0  0  0  0
    4.0027   -1.5871    0.0000 C   0  0  0  0  0  0  0  0  0
  1  2  4  0  0  0  0
  1  5  4  0  0  0  0
  2  3  4  0  0  0  0
  3  4  4  0  0  0  0
  3  7  1  0  0  0  0
  4  5  4  0  0  0  0
  5  6  1  0  0  0  0
  7  8  4  0  0  0  0
  7 13  4  0  0  0  0
  8  9  4  0  0  0  0
  9 10  1  0  0  0  0
  9 11  4  0  0  0  0
 11 12  4  0  0  0  0
 11 14  1  0  0  0  0
 12 13  4  0  0  0  0
 14 15  4  0  0  0  0
 14 19  4  0  0  0  0
 15 16  4  0  0  0  0
 16 17  4  0  0  0  0
 17 18  4  0  0  0  0
 17 20  1  0  0  0  0
 18 19  4  0  0  0  0
 20 21  2  0  0  0  0
 20 22  1  0  0  0  0
 22 23  1  0  0  0  0
 23 24  4  0  0  0  0
 23 37  4  0  0  0  0
 24 25  4  0  0  0  0
 25 26  1  0  0  0  0
 25 33  4  0  0  0  0
 26 27  1  0  0  0  0
 26 31  1  0  0  0  0
 27 28  1  0  0  0  0
 28 29  1  0  0  0  0
 29 30  1  0  0  0  0
 29 32  1  0  0  0  0
 30 31  1  0  0  0  0
 33 34  1  0  0  0  0
 33 36  4  0  0  0  0
 34 35  1  0  0  0  0
 36 37  4  0  0  0  0
M  END
>  <Name_Molregno>
16396

>  <5-HT1A>
7.14

>  <5-HT1B>
9.05

>  <5-HT1D>
8.78

>  <5-HT1E>
5.4

>  <5-HT2A>
7.59

>  <5-HT2C>
6.99

>  <5-HT5>
5.2

>  <5-HT6>
5.27

>  <5-HT7>
5.4

>  <DOPAMINE D1>
5

>  <DOPAMINE D2>
5

>  <DOPAMINE D3>
5

>  <DOPAMINE D4>
5

>  <DOPAMINE D5>
5

>  <HISTAMINE H1>
5

>  <Muscarinic acetylcholine receptor M1>
5

>  <Muscarinic acetylcholine receptor M2>
5

>  <Muscarinic acetylcholine receptor M3>
5

>  <Muscarinic acetylcholine receptor M4>
5

>  <Muscarinic acetylcholine receptor M5>
5

$$$$
21325
  Marvin  02231216192D 0   1.00000     0.00000     0

 15 16  0  0  0  0  0  0  0  0999 V2000
    0.7633   -0.9168    0.0000 O   0  0  0  0  0  0  0  0  0
    0.0489   -1.3293    0.0000 C   0  0  0  0  0  0  0  0  0
    0.0489   -2.1543    0.0000 N   0  0  0  0  0  0  0  0  0
   -0.6656   -0.9168    0.0000 C   0  0  0  0  0  0  0  0  0
   -1.3801   -1.3293    0.0000 C   0  0  0  0  0  0  0  0  0
   -2.0946   -0.9168    0.0000 C   0  0  0  0  0  0  0  0  0
   -2.0946   -0.0918    0.0000 C   0  0  0  0  0  0  0  0  0
   -2.8792    0.1632    0.0000 N   0  0  0  0  0  0  0  0  0
   -3.3641   -0.5043    0.0000 C   0  0  0  0  0  0  0  0  0
   -2.8792   -1.1717    0.0000 C   0  0  0  0  0  0  0  0  0
   -3.1341   -1.9563    0.0000 C   0  0  0  0  0  0  0  0  0
   -3.9411   -2.1279    0.0000 C   0  0  0  0  0  0  0  0  0
   -4.1960   -2.9125    0.0000 N   0  0  0  0  0  0  0  0  0
   -1.3801    0.3207    0.0000 C   0  0  0  0  0  0  0  0  0
   -0.6656   -0.0918    0.0000 C   0  0  0  0  0  0  0  0  0
  1  2  2  0  0  0  0
  2  3  1  0  0  0  0
  2  4  1  0  0  0  0
  4  5  4  0  0  0  0
  4 15  4  0  0  0  0
  5  6  4  0  0  0  0
  6  7  4  0  0  0  0
  6 10  4  0  0  0  0
  7  8  4  0  0  0  0
  7 14  4  0  0  0  0
  8  9  4  0  0  0  0
  9 10  4  0  0  0  0
 10 11  1  0  0  0  0
 11 12  1  0  0  0  0
 12 13  1  0  0  0  0
 14 15  4  0  0  0  0
M  STY  1   1 DAT
M  SAL   1  1   8
M  SDT   1 MRV_IMPLICIT_H                                        
M  SDD   1     0.0000    0.0000    DR    ALL  0       0  
M  SED   1 IMPL_H1
M  END
>  <Name_Molregno>
21325

>  <5-HT1A>
8.99

>  <5-HT1B>
8.91

>  <5-HT1D>
9.01

>  <5-HT1E>
5.37

>  <5-HT2A>
6.38

>  <5-HT2C>
6.15

>  <5-HT5>
7.7

>  <5-HT6>
6.29

>  <5-HT7>
9.22

$$$$
21432
  Marvin  02231216192D 0   1.00000     0.00000     0

 16 18  0  0  0  0  0  0  0  0999 V2000
    1.8647   -2.8014    0.0000 N   0  0  0  0  0  0  0  0  0
    1.1503   -2.3889    0.0000 C   0  0  0  0  0  0  0  0  0
    1.1503   -1.5639    0.0000 C   0  0  0  0  0  0  0  0  0
    1.8647   -1.1514    0.0000 N   0  0  0  0  0  0  0  0  0
    2.5792   -1.5639    0.0000 C   0  0  0  0  0  0  0  0  0
    2.5792   -2.3889    0.0000 C   0  0  0  0  0  0  0  0  0
    1.8647   -0.3264    0.0000 C   0  0  0  0  0  0  0  0  0
    2.5792    0.0861    0.0000 C   0  0  0  0  0  0  0  0  0
    2.5792    0.9111    0.0000 C   0  0  0  0  0  0  0  0  0
    1.8647    1.3236    0.0000 C   0  0  0  0  0  0  0  0  0
    1.1503    0.9111    0.0000 C   0  0  0  0  0  0  0  0  0
    1.1503    0.0861    0.0000 C   0  0  0  0  0  0  0  0  0
    3.2937    1.3236    0.0000 C   0  0  0  0  0  0  0  0  0
    4.0081    0.9111    0.0000 C   0  0  0  0  0  0  0  0  0
    4.0081    0.0861    0.0000 C   0  0  0  0  0  0  0  0  0
    3.2937   -0.3264    0.0000 C   0  0  0  0  0  0  0  0  0
  1  2  1  0  0  0  0
  1  6  1  0  0  0  0
  2  3  1  0  0  0  0
  3  4  1  0  0  0  0
  4  5  1  0  0  0  0
  4  7  1  0  0  0  0
  5  6  1  0  0  0  0
  7  8  4  0  0  0  0
  7 12  4  0  0  0  0
  8  9  4  0  0  0  0
  8 16  4  0  0  0  0
  9 10  4  0  0  0  0
  9 13  4  0  0  0  0
 10 11  4  0  0  0  0
 11 12  4  0  0  0  0
 13 14  4  0  0  0  0
 14 15  4  0  0  0  0
 15 16  4  0  0  0  0
M  END
>  <Name_Molregno>
21432

>  <5-HT1A>
8.04

>  <5-HT1B>
8.02

>  <5-HT1D>
8.09

>  <5-HT1E>
6.68

>  <5-HT6>
6.96

>  <5-HT7>
7.08

$$$$
26118
  Marvin  02231216192D 0   1.00000     0.00000     0

 39 45  0  0  0  0  0  0  0  0999 V2000
   -1.4437   -5.0537    0.0000 O   0  0  0  0  0  0  0  0  0
   -2.2211   -4.7775    0.0000 N   0  0  0  0  0  0  0  0  0
   -2.1987   -3.9528    0.0000 C   0  0  0  0  0  0  0  0  0
   -1.4074   -3.7193    0.0000 N   0  0  0  0  0  0  0  0  0
   -0.9408   -4.3997    0.0000 C   0  0  0  0  0  0  0  0  0
   -0.1161   -4.4221    0.0000 C   0  0  0  0  0  0  0  0  0
   -2.8527   -3.4499    0.0000 C   0  0  0  0  0  0  0  0  0
   -3.6152   -3.7648    0.0000 C   0  0  0  0  0  0  0  0  0
   -4.2692   -3.2619    0.0000 C   0  0  0  0  0  0  0  0  0
   -5.0317   -3.5769    0.0000 C   0  0  0  0  0  0  0  0  0
   -4.1607   -2.4441    0.0000 C   0  0  0  0  0  0  0  0  0
   -3.3981   -2.1292    0.0000 C   0  0  0  0  0  0  0  0  0
   -2.7441   -2.6321    0.0000 C   0  0  0  0  0  0  0  0  0
   -4.8147   -1.9412    0.0000 C   0  0  0  0  0  0  0  0  0
   -5.5772   -2.2561    0.0000 C   0  0  0  0  0  0  0  0  0
   -6.2312   -1.7532    0.0000 C   0  0  0  0  0  0  0  0  0
   -6.1227   -0.9354    0.0000 C   0  0  0  0  0  0  0  0  0
   -5.3601   -0.6205    0.0000 C   0  0  0  0  0  0  0  0  0
   -4.7061   -1.1234    0.0000 C   0  0  0  0  0  0  0  0  0
   -6.7767   -0.4325    0.0000 C   0  0  0  0  0  0  0  0  0
   -7.5392   -0.7474    0.0000 O   0  0  0  0  0  0  0  0  0
   -6.6681    0.3853    0.0000 N   0  0  0  0  0  0  0  0  0
   -5.9427    0.7783    0.0000 C   0  0  0  0  0  0  0  0  0
   -6.0922    1.5896    0.0000 C   0  0  0  0  0  0  0  0  0
   -6.9101    1.6981    0.0000 C   0  0  0  0  0  0  0  0  0
   -7.2660    0.9539    0.0000 C   0  0  0  0  0  0  0  0  0
   -8.0885    0.8900    0.0000 C   0  0  0  0  0  0  0  0  0
   -8.5551    1.5704    0.0000 C   0  0  0  0  0  0  0  0  0
   -8.1992    2.3146    0.0000 C   0  0  0  0  0  0  0  0  0
   -8.7970    2.8831    0.0000 O   0  0  0  0  0  0  0  0  0
   -9.5224    2.4902    0.0000 C   0  0  0  0  0  0  0  0  0
   -9.3729    1.6789    0.0000 C   0  0  0  0  0  0  0  0  0
   -9.1394    0.8876    0.0000 C   0  0  0  0  0  0  0  0  0
   -9.7079    0.2898    0.0000 C   0  0  0  0  0  0  0  0  0
  -10.5099    0.4832    0.0000 N   0  0  0  0  0  0  0  0  0
  -10.7434    1.2745    0.0000 C   0  0  0  0  0  0  0  0  0
  -10.1749    1.8723    0.0000 C   0  0  0  0  0  0  0  0  0
  -11.0785   -0.1147    0.0000 C   0  0  0  0  0  0  0  0  0
   -7.3766    2.3785    0.0000 C   0  0  0  0  0  0  0  0  0
  1  2  4  0  0  0  0
  1  5  4  0  0  0  0
  2  3  4  0  0  0  0
  3  4  4  0  0  0  0
  3  7  1  0  0  0  0
  4  5  4  0  0  0  0
  5  6  1  0  0  0  0
  7  8  4  0  0  0  0
  7 13  4  0  0  0  0
  8  9  4  0  0  0  0
  9 10  1  0  0  0  0
  9 11  4  0  0  0  0
 11 12  4  0  0  0  0
 11 14  1  0  0  0  0
 12 13  4  0  0  0  0
 14 15  4  0  0  0  0
 14 19  4  0  0  0  0
 15 16  4  0  0  0  0
 16 17  4  0  0  0  0
 17 18  4  0  0  0  0
 17 20  1  0  0  0  0
 18 19  4  0  0  0  0
 20 21  2  0  0  0  0
 20 22  1  0  0  0  0
 22 23  1  0  0  0  0
 22 26  1  0  0  0  0
 23 24  1  0  0  0  0
 24 25  1  0  0  0  0
 25 26  4  0  0  0  0
 25 39  4  0  0  0  0
 26 27  4  0  0  0  0
 27 28  4  0  0  0  0
 28 29  4  0  0  0  0
 28 32  1  0  0  0  0
 29 30  1  0  0  0  0
 29 39  4  0  0  0  0
 30 31  1  0  0  0  0
 31 32  1  0  0  0  0
 32 33  1  0  0  0  0
 32 37  1  0  0  0  0
 33 34  1  0  0  0  0
 34 35  1  0  0  0  0
 35 36  1  0  0  0  0
 35 38  1  0  0  0  0
 36 37  1  0  0  0  0
M  END
>  <Name_Molregno>
26118

>  <5-HT1A>
6

>  <5-HT1B>
8.1

>  <5-HT1D>
6.36

>  <5-HT1E>
5

>  <5-HT2A>
5.67

>  <5-HT2C>
5.95

>  <5-HT6>
5.67

>  <5-HT7>
6

$$$$
26180
  Marvin  02231216192D 0   1.00000     0.00000     0

 36 39  0  0  0  0  0  0  0  0999 V2000
    9.1536    3.6599    0.0000 O   0  0  0  0  0  0  0  0  0
    8.8986    2.8753    0.0000 N   0  0  0  0  0  0  0  0  0
    8.0736    2.8753    0.0000 C   0  0  0  0  0  0  0  0  0
    7.8187    3.6599    0.0000 N   0  0  0  0  0  0  0  0  0
    8.4861    4.1448    0.0000 C   0  0  0  0  0  0  0  0  0
    8.4861    4.9698    0.0000 C   0  0  0  0  0  0  0  0  0
    7.5887    2.2078    0.0000 C   0  0  0  0  0  0  0  0  0
    7.9243    1.4542    0.0000 C   0  0  0  0  0  0  0  0  0
    7.4393    0.7867    0.0000 C   0  0  0  0  0  0  0  0  0
    7.7749    0.0330    0.0000 C   0  0  0  0  0  0  0  0  0
    6.6189    0.8730    0.0000 C   0  0  0  0  0  0  0  0  0
    6.2833    1.6266    0.0000 C   0  0  0  0  0  0  0  0  0
    6.7682    2.2941    0.0000 C   0  0  0  0  0  0  0  0  0
    6.1339    0.2055    0.0000 C   0  0  0  0  0  0  0  0  0
    6.4695   -0.5482    0.0000 C   0  0  0  0  0  0  0  0  0
    5.9846   -1.2156    0.0000 C   0  0  0  0  0  0  0  0  0
    5.1641   -1.1294    0.0000 C   0  0  0  0  0  0  0  0  0
    4.8285   -0.3757    0.0000 C   0  0  0  0  0  0  0  0  0
    5.3134    0.2918    0.0000 C   0  0  0  0  0  0  0  0  0
    4.6792   -1.7968    0.0000 C   0  0  0  0  0  0  0  0  0
    3.8587   -1.7106    0.0000 O   0  0  0  0  0  0  0  0  0
    5.0147   -2.5505    0.0000 N   0  0  0  0  0  0  0  0  0
    4.5298   -3.2179    0.0000 C   0  0  0  0  0  0  0  0  0
    4.8654   -3.9716    0.0000 C   0  0  0  0  0  0  0  0  0
    4.3804   -4.6390    0.0000 C   0  0  0  0  0  0  0  0  0
    4.7160   -5.3927    0.0000 O   0  0  0  0  0  0  0  0  0
    4.2311   -6.0601    0.0000 C   0  0  0  0  0  0  0  0  0
    4.5666   -6.8138    0.0000 C   0  0  0  0  0  0  0  0  0
    4.0817   -7.4813    0.0000 N   0  0  0  0  0  0  0  0  0
    4.4173   -8.2349    0.0000 C   0  0  0  0  0  0  0  0  0
    3.2612   -7.3950    0.0000 C   0  0  0  0  0  0  0  0  0
    3.5600   -4.5528    0.0000 C   0  0  0  0  0  0  0  0  0
    3.0750   -5.2202    0.0000 O   0  0  0  0  0  0  0  0  0
    2.2545   -5.1340    0.0000 C   0  0  0  0  0  0  0  0  0
    3.2244   -3.7991    0.0000 C   0  0  0  0  0  0  0  0  0
    3.7093   -3.1317    0.0000 C   0  0  0  0  0  0  0  0  0
  1  2  4  0  0  0  0
  1  5  4  0  0  0  0
  2  3  4  0  0  0  0
  3  4  4  0  0  0  0
  3  7  1  0  0  0  0
  4  5  4  0  0  0  0
  5  6  1  0  0  0  0
  7  8  4  0  0  0  0
  7 13  4  0  0  0  0
  8  9  4  0  0  0  0
  9 10  1  0  0  0  0
  9 11  4  0  0  0  0
 11 12  4  0  0  0  0
 11 14  1  0  0  0  0
 12 13  4  0  0  0  0
 14 15  4  0  0  0  0
 14 19  4  0  0  0  0
 15 16  4  0  0  0  0
 16 17  4  0  0  0  0
 17 18  4  0  0  0  0
 17 20  1  0  0  0  0
 18 19  4  0  0  0  0
 20 21  2  0  0  0  0
 20 22  1  0  0  0  0
 22 23  1  0  0  0  0
 23 24  4  0  0  0  0
 23 36  4  0  0  0  0
 24 25  4  0  0  0  0
 25 26  1  0  0  0  0
 25 32  4  0  0  0  0
 26 27  1  0  0  0  0
 27 28  1  0  0  0  0
 28 29  1  0  0  0  0
 29 30  1  0  0  0  0
 29 31  1  0  0  0  0
 32 33  1  0  0  0  0
 32 35  4  0  0  0  0
 33 34  1  0  0  0  0
 35 36  4  0  0  0  0
M  END
>  <Name_Molregno>
26180

>  <5-HT1A>
6.3

>  <5-HT1B>
8.7

>  <5-HT1D>
7.67

>  <5-HT1E>
6

>  <5-HT2A>
7.3

>  <5-HT2C>
6.8

>  <5-HT6>
5.5

>  <5-HT7>
5

$$$$
26422
  Marvin  02231216192D 0   1.00000     0.00000     0

 18 19  0  0  0  0  0  0  0  0999 V2000
   -0.0103   -0.2346    0.0000 O   0  0  0  0  0  0  0  0  0
    0.7041   -0.6471    0.0000 C   0  0  0  0  0  0  0  0  0
    1.4186   -0.2346    0.0000 C   0  0  0  0  0  0  0  0  0
    2.1331   -0.6471    0.0000 N   0  0  0  0  0  0  0  0  0
    2.8475   -0.2346    0.0000 C   0  0  0  0  0  0  0  0  0
    2.1331   -1.4721    0.0000 C   0  0  0  0  0  0  0  0  0
   -0.7248   -0.6471    0.0000 C   0  0  0  0  0  0  0  0  0
   -0.7248   -1.4721    0.0000 C   0  0  0  0  0  0  0  0  0
   -1.4393   -1.8846    0.0000 C   0  0  0  0  0  0  0  0  0
   -2.1538   -1.4721    0.0000 C   0  0  0  0  0  0  0  0  0
   -2.1538   -0.6471    0.0000 C   0  0  0  0  0  0  0  0  0
   -1.4393   -0.2346    0.0000 C   0  0  0  0  0  0  0  0  0
   -1.4393    0.5904    0.0000 C   0  0  0  0  0  0  0  0  0
   -2.1538    1.0029    0.0000 C   0  0  0  0  0  0  0  0  0
   -2.1538    1.8279    0.0000 C   0  0  0  0  0  0  0  0  0
   -1.4393    2.2404    0.0000 C   0  0  0  0  0  0  0  0  0
   -0.7248    1.8279    0.0000 C   0  0  0  0  0  0  0  0  0
   -0.7248    1.0029    0.0000 C   0  0  0  0  0  0  0  0  0
  1  2  1  0  0  0  0
  1  7  1  0  0  0  0
  2  3  1  0  0  0  0
  3  4  1  0  0  0  0
  4  5  1  0  0  0  0
  4  6  1  0  0  0  0
  7  8  4  0  0  0  0
  7 12  4  0  0  0  0
  8  9  4  0  0  0  0
  9 10  4  0  0  0  0
 10 11  4  0  0  0  0
 11 12  4  0  0  0  0
 12 13  1  0  0  0  0
 13 14  4  0  0  0  0
 13 18  4  0  0  0  0
 14 15  4  0  0  0  0
 15 16  4  0  0  0  0
 16 17  4  0  0  0  0
 17 18  4  0  0  0  0
M  END
>  <Name_Molregno>
26422

>  <5-HT7>
6.81

$$$$
26653
  Marvin  02231216192D 0   1.00000     0.00000     0

 19 20  0  0  0  0  0  0  0  0999 V2000
   -1.2820   -3.8402    0.0000 S   0  0  0  0  0  0  0  0  0
   -1.6945   -3.1258    0.0000 N   0  0  0  0  0  0  0  0  0
   -1.1424   -2.5127    0.0000 C   0  0  0  0  0  0  0  0  0
   -1.3140   -1.7057    0.0000 C   0  0  0  0  0  0  0  0  0
   -2.0986   -1.4508    0.0000 C   0  0  0  0  0  0  0  0  0
   -2.2701   -0.6438    0.0000 N   0  0  0  0  0  0  0  0  0
   -1.6570   -0.0918    0.0000 C   0  0  0  0  0  0  0  0  0
   -0.8724   -0.3467    0.0000 C   0  0  0  0  0  0  0  0  0
   -0.7009   -1.1537    0.0000 C   0  0  0  0  0  0  0  0  0
   -3.0547   -0.3889    0.0000 C   0  0  0  0  0  0  0  0  0
   -0.3888   -2.8482    0.0000 C   0  0  0  0  0  0  0  0  0
    0.3257   -2.4357    0.0000 O   0  0  0  0  0  0  0  0  0
    1.0402   -2.8482    0.0000 C   0  0  0  0  0  0  0  0  0
    1.7547   -2.4357    0.0000 C   0  0  0  0  0  0  0  0  0
    2.4691   -2.8482    0.0000 C   0  0  0  0  0  0  0  0  0
    3.1836   -2.4357    0.0000 C   0  0  0  0  0  0  0  0  0
    3.8981   -2.8482    0.0000 C   0  0  0  0  0  0  0  0  0
    4.6125   -2.4357    0.0000 C   0  0  0  0  0  0  0  0  0
   -0.4750   -3.6687    0.0000 N   0  0  0  0  0  0  0  0  0
  1  2  4  0  0  0  0
  1 19  4  0  0  0  0
  2  3  4  0  0  0  0
  3  4  1  0  0  0  0
  3 11  4  0  0  0  0
  4  5  1  0  0  0  0
  4  9  2  0  0  0  0
  5  6  1  0  0  0  0
  6  7  1  0  0  0  0
  6 10  1  0  0  0  0
  7  8  1  0  0  0  0
  8  9  1  0  0  0  0
 11 12  1  0  0  0  0
 11 19  4  0  0  0  0
 12 13  1  0  0  0  0
 13 14  1  0  0  0  0
 14 15  1  0  0  0  0
 15 16  1  0  0  0  0
 16 17  1  0  0  0  0
 17 18  1  0  0  0  0
M  END
>  <Name_Molregno>
26653

>  <5-HT1A>
7.2

>  <5-HT1B>
7.3

>  <5-HT1D>
8.2

>  <5-HT1E>
5.6

>  <5-HT2A>
6.9

>  <5-HT2C>
7.4

>  <5-HT6>
5.9

>  <5-HT7>
6.9

>  <Alpha-1B>
5.8

>  <DOPAMINE D2>
6

>  <DOPAMINE D3>
6.4

>  <Muscarinic acetylcholine receptor M1>
6.52

>  <Muscarinic acetylcholine receptor M2>
7.1

>  <Muscarinic acetylcholine receptor M3>
7.25

>  <Muscarinic acetylcholine receptor M4>
7.55

>  <Muscarinic acetylcholine receptor M5>
6.32

$$$$
35324
  Marvin  02231216192D 0   1.00000     0.00000     0

 18 19  0  0  1  0  0  0  0  0999 V2000
    0.9450   -1.8585    0.0000 O   0  0  0  0  0  0  0  0  0
    0.5325   -1.1440    0.0000 C   0  0  0  0  0  0  0  0  0
   -0.2925   -1.1440    0.0000 C   0  0  0  0  0  0  0  0  0
   -0.7050   -1.8585    0.0000 C   0  0  0  0  0  0  0  0  0
   -1.5300   -1.8585    0.0000 C   0  0  0  0  0  0  0  0  0
   -1.9425   -2.5729    0.0000 N   0  0  0  0  0  0  0  0  0
   -2.7675   -2.5729    0.0000 C   0  0  0  0  0  0  0  0  0
   -3.1800   -3.2874    0.0000 C   0  0  0  0  0  0  0  0  0
   -4.0050   -3.2874    0.0000 C   0  0  0  0  0  0  0  0  0
   -1.5300   -3.2874    0.0000 C   0  0  0  0  0  0  0  0  0
   -0.7050   -3.2874    0.0000 C   0  0  0  0  0  0  0  0  0
   -0.2925   -4.0019    0.0000 C   0  0  0  0  0  0  0  0  0
   -1.9425   -1.1440    0.0000 C   0  0  0  0  0  0  0  0  0
   -1.5300   -0.4295    0.0000 C   0  0  0  0  0  0  0  0  0
   -0.7050   -0.4295    0.0000 C   0  0  0  0  0  0  0  0  0
   -0.2925    0.2849    0.0000 C   0  0  0  0  0  0  0  0  0
    0.5325    0.2849    0.0000 C   0  0  0  0  0  0  0  0  0
    0.9450   -0.4295    0.0000 C   0  0  0  0  0  0  0  0  0
  1  2  1  0  0  0  0
  2  3  4  0  0  0  0
  2 18  4  0  0  0  0
  3  4  1  0  0  0  0
  3 15  4  0  0  0  0
  4  5  1  0  0  0  0
  5  6  1  0  0  0  0
  5 13  1  0  0  0  0
  6  7  1  0  0  0  0
  6 10  1  0  0  0  0
  7  8  1  0  0  0  0
  8  9  1  0  0  0  0
 10 11  1  0  0  0  0
 11 12  1  0  0  0  0
 13 14  1  0  0  0  0
 14 15  1  0  0  0  0
 15 16  4  0  0  0  0
 16 17  4  0  0  0  0
 17 18  4  0  0  0  0
M  END
>  <Name_Molregno>
35324

>  <5-HT1A>
8.41

>  <5-HT1B>
6.44

>  <5-HT1D>
6.48

>  <5-HT1E>
5.78

>  <5-HT2A>
5.34

>  <5-HT2C>
5.46

>  <5-HT5>
5.6

>  <5-HT6>
5

>  <5-HT7>
6.52

>  <Alpha-1A>
6.21

>  <Alpha-1B>
6

>  <DOPAMINE D1>
5

>  <DOPAMINE D2>
6.1

>  <DOPAMINE D3>
6.35

>  <DOPAMINE D4>
5.38

$$$$
35706
  Marvin  02231216192D 0   1.00000     0.00000     0

 27 31  0  0  1  0  0  0  0  0999 V2000
    1.9978    0.2722    0.0000 N   0  0  0  0  0  0  0  0  0
    2.4738   -0.5655    0.0000 C   0  0  0  0  0  0  0  0  0
    3.2820   -0.3456    0.0000 C   0  0  0  0  0  0  0  0  0
    3.2820   -1.1706    0.0000 C   0  0  0  0  0  0  0  0  0
    3.9965   -1.5831    0.0000 C   0  0  0  0  0  0  0  0  0
    4.7110   -1.1706    0.0000 C   0  0  0  0  0  0  0  0  0
    4.7110   -0.3456    0.0000 C   0  0  0  0  0  0  0  0  0
    5.4528    0.0554    0.0000 C   0  0  0  0  0  0  0  0  0
    3.9965    0.0669    0.0000 C   0  0  0  0  0  0  0  0  0
    3.9965    0.8919    0.0000 C   0  0  0  0  0  0  0  0  0
    3.2820    1.3044    0.0000 C   0  0  0  0  0  0  0  0  0
    3.2820    2.1294    0.0000 C   0  0  0  0  0  0  0  0  0
    2.5676    2.5419    0.0000 C   0  0  0  0  0  0  0  0  0
    1.8531    2.1294    0.0000 C   0  0  0  0  0  0  0  0  0
    1.1386    2.5419    0.0000 N   0  0  0  0  0  0  0  0  0
    0.4242    2.1294    0.0000 C   0  0  0  0  0  0  0  0  0
    0.4242    1.3044    0.0000 C   0  0  0  0  0  0  0  0  0
    1.1386    0.8919    0.0000 C   0  0  0  0  0  0  0  0  0
    1.8531    1.3044    0.0000 C   0  0  0  0  0  0  0  0  0
    2.5676    0.8919    0.0000 C   0  0  0  0  0  0  0  0  0
    2.5676    0.0669    0.0000 C   0  0  0  0  0  0  0  0  0
    1.8531   -0.3456    0.0000 C   0  0  0  0  0  0  0  0  0
    1.1386    0.0669    0.0000 C   0  0  0  0  0  0  0  0  0
    1.1314    3.3853    0.0000 C   0  0  0  0  0  0  0  0  0
    3.9965    2.5419    0.0000 C   0  0  0  0  0  0  0  0  0
    4.7110    2.1294    0.0000 C   0  0  0  0  0  0  0  0  0
    4.7110    1.3044    0.0000 C   0  0  0  0  0  0  0  0  0
  1  2  3  0  0  0  0
  2  3  1  0  0  0  0
  3  4  4  0  0  0  0
  3  9  4  0  0  0  0
  4  5  4  0  0  0  0
  5  6  4  0  0  0  0
  6  7  4  0  0  0  0
  7  8  1  0  0  0  0
  7  9  4  0  0  0  0
  9 10  1  0  0  0  0
 10 11  4  0  0  0  0
 10 27  4  0  0  0  0
 11 12  4  0  0  0  0
 11 20  1  0  0  0  0
 12 13  1  0  0  0  0
 12 25  4  0  0  0  0
 13 14  1  0  0  0  0
 14 15  1  0  0  0  0
 14 19  1  0  0  0  0
 15 16  1  0  0  0  0
 15 24  1  0  0  0  0
 16 17  1  0  0  0  0
 17 18  1  0  0  0  0
 18 19  4  0  0  0  0
 18 23  4  0  0  0  0
 19 20  4  0  0  0  0
 20 21  4  0  0  0  0
 21 22  4  0  0  0  0
 22 23  4  0  0  0  0
 25 26  4  0  0  0  0
 26 27  4  0  0  0  0
M  END
>  <Name_Molregno>
35706

>  <5-HT1A>
6.48

>  <5-HT7>
8.05

>  <DOPAMINE D2>
5.96

$$$$
36324
  Marvin  02231216192D 0   1.00000     0.00000     0

 24 28  0  0  1  0  0  0  0  0999 V2000
   -3.7992   -2.1397    0.0000 N   0  0  0  0  0  0  0  0  0
   -3.0848   -1.7272    0.0000 C   0  0  0  0  0  0  0  0  0
   -2.3703   -2.1397    0.0000 C   0  0  0  0  0  0  0  0  0
   -1.6558   -1.7272    0.0000 C   0  0  0  0  0  0  0  0  0
   -1.6558   -0.9022    0.0000 C   0  0  0  0  0  0  0  0  0
   -2.3703   -0.4897    0.0000 C   0  0  0  0  0  0  0  0  0
   -3.0848   -0.9022    0.0000 C   0  0  0  0  0  0  0  0  0
   -3.7992   -0.4897    0.0000 C   0  0  0  0  0  0  0  0  0
   -4.5137   -0.9022    0.0000 C   0  0  0  0  0  0  0  0  0
   -4.5137   -1.7272    0.0000 C   0  0  0  0  0  0  0  0  0
   -3.7992    0.3353    0.0000 C   0  0  0  0  0  0  0  0  0
   -3.0848    0.7478    0.0000 C   0  0  0  0  0  0  0  0  0
   -2.3703    0.3353    0.0000 C   0  0  0  0  0  0  0  0  0
   -0.9414   -0.4897    0.0000 C   0  0  0  0  0  0  0  0  0
   -0.2269   -0.9022    0.0000 C   0  0  0  0  0  0  0  0  0
   -0.2269   -1.7272    0.0000 C   0  0  0  0  0  0  0  0  0
   -0.9414   -2.1397    0.0000 C   0  0  0  0  0  0  0  0  0
   -0.9414    0.3353    0.0000 C   0  0  0  0  0  0  0  0  0
   -1.6558    0.7478    0.0000 C   0  0  0  0  0  0  0  0  0
   -1.6558    1.5728    0.0000 C   0  0  0  0  0  0  0  0  0
   -0.9414    1.9853    0.0000 C   0  0  0  0  0  0  0  0  0
   -0.2269    1.5728    0.0000 C   0  0  0  0  0  0  0  0  0
   -0.2269    0.7478    0.0000 C   0  0  0  0  0  0  0  0  0
   -3.7992   -2.9647    0.0000 C   0  0  0  0  0  0  0  0  0
  1  2  1  0  0  0  0
  1 10  1  0  0  0  0
  1 24  1  0  0  0  0
  2  3  1  0  0  0  0
  2  7  1  0  0  0  0
  3  4  1  0  0  0  0
  4  5  4  0  0  0  0
  4 17  4  0  0  0  0
  5  6  1  0  0  0  0
  5 14  4  0  0  0  0
  6  7  4  0  0  0  0
  6 13  4  0  0  0  0
  7  8  4  0  0  0  0
  8  9  1  0  0  0  0
  8 11  4  0  0  0  0
  9 10  1  0  0  0  0
 11 12  4  0  0  0  0
 12 13  4  0  0  0  0
 14 15  4  0  0  0  0
 14 18  1  0  0  0  0
 15 16  4  0  0  0  0
 16 17  4  0  0  0  0
 18 19  4  0  0  0  0
 18 23  4  0  0  0  0
 19 20  4  0  0  0  0
 20 21  4  0  0  0  0
 21 22  4  0  0  0  0
 22 23  4  0  0  0  0
M  END
>  <Name_Molregno>
36324

>  <5-HT1A>
8.74

>  <5-HT7>
8.01

>  <DOPAMINE D2>
6.63

$$$$
36357
  Marvin  02231216192D 0   1.00000     0.00000     0

 20 24  0  0  1  0  0  0  0  0999 V2000
    3.5977    3.0746    0.0000 N   0  0  0  0  0  0  0  0  0
    3.1852    2.3601    0.0000 C   0  0  0  0  0  0  0  0  0
    2.1932    2.2919    0.0000 C   0  0  0  0  0  0  0  0  0
    2.1932    1.4669    0.0000 C   0  0  0  0  0  0  0  0  0
    2.9076    1.0544    0.0000 C   0  0  0  0  0  0  0  0  0
    3.6221    1.4669    0.0000 C   0  0  0  0  0  0  0  0  0
    4.3366    1.0544    0.0000 C   0  0  0  0  0  0  0  0  0
    4.3366    0.2294    0.0000 C   0  0  0  0  0  0  0  0  0
    3.6221   -0.1831    0.0000 C   0  0  0  0  0  0  0  0  0
    2.9076    0.2294    0.0000 C   0  0  0  0  0  0  0  0  0
    2.1932   -0.1831    0.0000 C   0  0  0  0  0  0  0  0  0
    1.4787    0.2294    0.0000 C   0  0  0  0  0  0  0  0  0
    0.7642   -0.1831    0.0000 N   0  0  0  0  0  0  0  0  0
    0.0497    0.2294    0.0000 C   0  0  0  0  0  0  0  0  0
    0.0497    1.0544    0.0000 C   0  0  0  0  0  0  0  0  0
    0.7642    1.4669    0.0000 C   0  0  0  0  0  0  0  0  0
    1.4787    1.0544    0.0000 C   0  0  0  0  0  0  0  0  0
    0.7642    2.2919    0.0000 C   0  0  0  0  0  0  0  0  0
    1.4787    2.7044    0.0000 C   0  0  0  0  0  0  0  0  0
    0.7642   -1.0081    0.0000 C   0  0  0  0  0  0  0  0  0
  1  2  1  0  0  0  0
  2  3  1  0  0  0  0
  2  6  1  0  0  0  0
  3  4  4  0  0  0  0
  3 19  4  0  0  0  0
  4  5  1  0  0  0  0
  4 17  4  0  0  0  0
  5  6  4  0  0  0  0
  5 10  4  0  0  0  0
  6  7  4  0  0  0  0
  7  8  4  0  0  0  0
  8  9  4  0  0  0  0
  9 10  4  0  0  0  0
 10 11  1  0  0  0  0
 11 12  1  0  0  0  0
 12 13  1  0  0  0  0
 12 17  1  0  0  0  0
 13 14  1  0  0  0  0
 13 20  1  0  0  0  0
 14 15  1  0  0  0  0
 15 16  1  0  0  0  0
 16 17  4  0  0  0  0
 16 18  4  0  0  0  0
 18 19  4  0  0  0  0
M  END
>  <Name_Molregno>
36357

>  <5-HT1A>
6.45

>  <5-HT7>
7.8

>  <DOPAMINE D2>
5.96

$$$$
36730
  Marvin  02231216192D 0   1.00000     0.00000     0

 24 26  0  0  1  0  0  0  0  0999 V2000
    0.1506    0.0052    0.0000 S   0  0  0  0  0  0  0  0  0
    0.9756    0.0052    0.0000 O   0  0  0  0  0  0  0  0  0
   -0.6744    0.0052    0.0000 O   0  0  0  0  0  0  0  0  0
    0.1506   -0.8198    0.0000 N   0  0  0  0  0  0  0  0  0
    0.8180   -1.3047    0.0000 C   0  0  0  0  0  0  0  0  0
    0.5631   -2.0893    0.0000 C   0  0  0  0  0  0  0  0  0
   -0.2619   -2.0893    0.0000 C   0  0  0  0  0  0  0  0  0
   -0.5168   -1.3047    0.0000 C   0  0  0  0  0  0  0  0  0
   -1.3015   -1.0498    0.0000 C   0  0  0  0  0  0  0  0  0
   -1.9146   -1.6018    0.0000 C   0  0  0  0  0  0  0  0  0
   -2.6992   -1.3469    0.0000 N   0  0  0  0  0  0  0  0  0
   -3.3123   -1.8989    0.0000 C   0  0  0  0  0  0  0  0  0
   -4.0969   -1.6440    0.0000 C   0  0  0  0  0  0  0  0  0
   -4.2684   -0.8370    0.0000 C   0  0  0  0  0  0  0  0  0
   -3.6553   -0.2850    0.0000 C   0  0  0  0  0  0  0  0  0
   -2.8707   -0.5399    0.0000 C   0  0  0  0  0  0  0  0  0
   -5.0530   -0.5821    0.0000 C   0  0  0  0  0  0  0  0  0
    0.1506    0.8302    0.0000 C   0  0  0  0  0  0  0  0  0
   -0.5639    1.2427    0.0000 C   0  0  0  0  0  0  0  0  0
   -0.5639    2.0677    0.0000 C   0  0  0  0  0  0  0  0  0
   -1.2783    2.4802    0.0000 O   0  0  0  0  0  0  0  0  0
    0.1506    2.4802    0.0000 C   0  0  0  0  0  0  0  0  0
    0.8651    2.0677    0.0000 C   0  0  0  0  0  0  0  0  0
    0.8651    1.2427    0.0000 C   0  0  0  0  0  0  0  0  0
  1  2  2  0  0  0  0
  1  3  2  0  0  0  0
  1  4  1  0  0  0  0
  1 18  1  0  0  0  0
  4  5  1  0  0  0  0
  4  8  1  0  0  0  0
  5  6  1  0  0  0  0
  6  7  1  0  0  0  0
  7  8  1  0  0  0  0
  8  9  1  0  0  0  0
  9 10  1  0  0  0  0
 10 11  1  0  0  0  0
 11 12  1  0  0  0  0
 11 16  1  0  0  0  0
 12 13  1  0  0  0  0
 13 14  1  0  0  0  0
 14 15  1  0  0  0  0
 14 17  1  0  0  0  0
 15 16  1  0  0  0  0
 18 19  4  0  0  0  0
 18 24  4  0  0  0  0
 19 20  4  0  0  0  0
 20 21  1  0  0  0  0
 20 22  4  0  0  0  0
 22 23  4  0  0  0  0
 23 24  4  0  0  0  0
M  END
>  <Name_Molregno>
36730

>  <5-HT1A>
5

>  <5-HT2A>
5

>  <5-HT7>
8.91

>  <DOPAMINE D2>
6.5

$$$$
36732
  Marvin  02231216192D 0   1.00000     0.00000     0

 29 33  0  0  1  0  0  0  0  0999 V2000
   -0.6035   -1.3955    0.0000 O   0  0  0  0  0  0  0  0  0
   -0.1261   -2.0684    0.0000 C   0  0  0  0  0  0  0  0  0
    0.6989   -2.0684    0.0000 N   0  0  0  0  0  0  0  0  0
    1.0042   -2.9255    0.0000 C   0  0  0  0  0  0  0  0  0
    0.2864   -3.3380    0.0000 C   0  0  0  0  0  0  0  0  0
    0.2864   -4.1630    0.0000 C   0  0  0  0  0  0  0  0  0
   -0.4261   -4.5755    0.0000 C   0  0  0  0  0  0  0  0  0
   -1.1386   -4.1630    0.0000 C   0  0  0  0  0  0  0  0  0
   -1.1386   -3.3380    0.0000 C   0  0  0  0  0  0  0  0  0
   -0.4261   -2.9255    0.0000 C   0  0  0  0  0  0  0  0  0
   -1.0617   -2.3995    0.0000 C   0  0  0  0  0  0  0  0  0
   -0.9239   -1.5861    0.0000 C   0  0  0  0  0  0  0  0  0
   -1.5595   -1.0601    0.0000 C   0  0  0  0  0  0  0  0  0
   -1.4218   -0.2467    0.0000 C   0  0  0  0  0  0  0  0  0
   -2.0574    0.2793    0.0000 N   0  0  0  0  0  0  0  0  0
   -2.8307   -0.0081    0.0000 C   0  0  0  0  0  0  0  0  0
   -3.4662    0.5179    0.0000 C   0  0  0  0  0  0  0  0  0
   -3.3285    1.3313    0.0000 C   0  0  0  0  0  0  0  0  0
   -2.5552    1.6187    0.0000 C   0  0  0  0  0  0  0  0  0
   -1.9196    1.0927    0.0000 C   0  0  0  0  0  0  0  0  0
   -3.9641    1.8573    0.0000 C   0  0  0  0  0  0  0  0  0
   -4.7374    1.5699    0.0000 C   0  0  0  0  0  0  0  0  0
   -5.3730    2.0959    0.0000 C   0  0  0  0  0  0  0  0  0
   -5.2352    2.9093    0.0000 C   0  0  0  0  0  0  0  0  0
   -4.4619    3.1967    0.0000 C   0  0  0  0  0  0  0  0  0
   -3.8263    2.6707    0.0000 C   0  0  0  0  0  0  0  0  0
    1.0042   -4.5755    0.0000 C   0  0  0  0  0  0  0  0  0
    1.7167   -4.1630    0.0000 C   0  0  0  0  0  0  0  0  0
    1.7167   -3.3380    0.0000 C   0  0  0  0  0  0  0  0  0
  1  2  2  0  0  0  0
  2  3  1  0  0  0  0
  2 10  1  0  0  0  0
  3  4  1  0  0  0  0
  4  5  4  0  0  0  0
  4 29  4  0  0  0  0
  5  6  4  0  0  0  0
  5 10  1  0  0  0  0
  6  7  1  0  0  0  0
  6 27  4  0  0  0  0
  7  8  1  0  0  0  0
  8  9  1  0  0  0  0
  9 10  1  0  0  0  0
 10 11  1  0  0  0  0
 11 12  1  0  0  0  0
 12 13  1  0  0  0  0
 13 14  1  0  0  0  0
 14 15  1  0  0  0  0
 15 16  1  0  0  0  0
 15 20  1  0  0  0  0
 16 17  1  0  0  0  0
 17 18  1  0  0  0  0
 18 19  2  0  0  0  0
 18 21  1  0  0  0  0
 19 20  1  0  0  0  0
 21 22  4  0  0  0  0
 21 26  4  0  0  0  0
 22 23  4  0  0  0  0
 23 24  4  0  0  0  0
 24 25  4  0  0  0  0
 25 26  4  0  0  0  0
 27 28  4  0  0  0  0
 28 29  4  0  0  0  0
M  END
>  <Name_Molregno>
36732

>  <5-HT1A>
6.77

>  <5-HT7>
8.7

>  <DOPAMINE D2>
6.98

$$$$
37828
  Marvin  02231216192D 0   1.00000     0.00000     0

 22 26  0  0  1  0  0  0  0  0999 V2000
    3.7336    1.9030    0.0000 O   0  0  0  0  0  0  0  0  0
    3.8954    2.7120    0.0000 C   0  0  0  0  0  0  0  0  0
    2.9521    1.6386    0.0000 C   0  0  0  0  0  0  0  0  0
    1.9601    1.5704    0.0000 C   0  0  0  0  0  0  0  0  0
    1.9601    0.7454    0.0000 C   0  0  0  0  0  0  0  0  0
    2.6745    0.3329    0.0000 C   0  0  0  0  0  0  0  0  0
    3.3890    0.7454    0.0000 C   0  0  0  0  0  0  0  0  0
    4.1035    0.3329    0.0000 C   0  0  0  0  0  0  0  0  0
    4.1035   -0.4921    0.0000 C   0  0  0  0  0  0  0  0  0
    3.3890   -0.9046    0.0000 C   0  0  0  0  0  0  0  0  0
    2.6745   -0.4921    0.0000 C   0  0  0  0  0  0  0  0  0
    1.9601   -0.9046    0.0000 C   0  0  0  0  0  0  0  0  0
    1.2456   -0.4921    0.0000 C   0  0  0  0  0  0  0  0  0
    0.5311   -0.9046    0.0000 N   0  0  0  0  0  0  0  0  0
   -0.1834   -0.4921    0.0000 C   0  0  0  0  0  0  0  0  0
   -0.1834    0.3329    0.0000 C   0  0  0  0  0  0  0  0  0
    0.5311    0.7454    0.0000 C   0  0  0  0  0  0  0  0  0
    1.2456    0.3329    0.0000 C   0  0  0  0  0  0  0  0  0
    0.5311    1.5704    0.0000 C   0  0  0  0  0  0  0  0  0
    1.2456    1.9829    0.0000 C   0  0  0  0  0  0  0  0  0
    0.5311   -1.7296    0.0000 C   0  0  0  0  0  0  0  0  0
    2.7902    2.4476    0.0000 C   0  0  0  0  0  0  0  0  0
  1  2  1  0  0  0  0
  1  3  1  0  0  0  0
  3  4  1  0  0  0  0
  3  7  1  0  0  0  0
  3 22  1  0  0  0  0
  4  5  4  0  0  0  0
  4 20  4  0  0  0  0
  5  6  1  0  0  0  0
  5 18  4  0  0  0  0
  6  7  4  0  0  0  0
  6 11  4  0  0  0  0
  7  8  4  0  0  0  0
  8  9  4  0  0  0  0
  9 10  4  0  0  0  0
 10 11  4  0  0  0  0
 11 12  1  0  0  0  0
 12 13  1  0  0  0  0
 13 14  1  0  0  0  0
 13 18  1  0  0  0  0
 14 15  1  0  0  0  0
 14 21  1  0  0  0  0
 15 16  1  0  0  0  0
 16 17  1  0  0  0  0
 17 18  4  0  0  0  0
 17 19  4  0  0  0  0
 19 20  4  0  0  0  0
M  END
>  <Name_Molregno>
37828

>  <5-HT7>
8.96

>  <DOPAMINE D2>
7.65

$$$$
38445
  Marvin  02231216192D 0   1.00000     0.00000     0

 29 32  0  0  0  0  0  0  0  0999 V2000
    9.5911   -1.5592    0.0000 Cl  0  0  0  0  0  0  0  0  0
    8.8766   -1.1467    0.0000 C   0  0  0  0  0  0  0  0  0
    8.1622   -1.5592    0.0000 C   0  0  0  0  0  0  0  0  0
    7.4477   -1.1467    0.0000 C   0  0  0  0  0  0  0  0  0
    7.4477   -0.3217    0.0000 C   0  0  0  0  0  0  0  0  0
    6.6631   -0.0667    0.0000 S   0  0  0  0  0  0  0  0  0
    6.1782   -0.7342    0.0000 C   0  0  0  0  0  0  0  0  0
    5.3532   -0.7342    0.0000 S   0  0  0  0  0  0  0  0  0
    5.3532    0.0908    0.0000 O   0  0  0  0  0  0  0  0  0
    5.3532   -1.5592    0.0000 O   0  0  0  0  0  0  0  0  0
    4.5282   -0.7342    0.0000 N   0  0  0  0  0  0  0  0  0
    4.1157   -0.0197    0.0000 C   0  0  0  0  0  0  0  0  0
    3.2907   -0.0197    0.0000 C   0  0  0  0  0  0  0  0  0
    2.8782    0.6948    0.0000 C   0  0  0  0  0  0  0  0  0
    2.0532    0.6948    0.0000 N   0  0  0  0  0  0  0  0  0
    1.6407   -0.0197    0.0000 C   0  0  0  0  0  0  0  0  0
    0.8157   -0.0197    0.0000 C   0  0  0  0  0  0  0  0  0
    0.4032    0.6948    0.0000 N   0  0  0  0  0  0  0  0  0
    0.8157    1.4092    0.0000 C   0  0  0  0  0  0  0  0  0
    1.6407    1.4092    0.0000 C   0  0  0  0  0  0  0  0  0
    3.2907    1.4092    0.0000 C   0  0  0  0  0  0  0  0  0
    2.8782    2.1237    0.0000 O   0  0  0  0  0  0  0  0  0
    3.2907    2.8382    0.0000 C   0  0  0  0  0  0  0  0  0
    4.1157    1.4092    0.0000 C   0  0  0  0  0  0  0  0  0
    4.5282    0.6948    0.0000 C   0  0  0  0  0  0  0  0  0
    6.6631   -1.4016    0.0000 C   0  0  0  0  0  0  0  0  0
    6.4081   -2.1862    0.0000 C   0  0  0  0  0  0  0  0  0
    8.1622    0.0908    0.0000 C   0  0  0  0  0  0  0  0  0
    8.8766   -0.3217    0.0000 C   0  0  0  0  0  0  0  0  0
  1  2  1  0  0  0  0
  2  3  4  0  0  0  0
  2 29  4  0  0  0  0
  3  4  4  0  0  0  0
  4  5  4  0  0  0  0
  4 26  4  0  0  0  0
  5  6  4  0  0  0  0
  5 28  4  0  0  0  0
  6  7  4  0  0  0  0
  7  8  1  0  0  0  0
  7 26  4  0  0  0  0
  8  9  2  0  0  0  0
  8 10  2  0  0  0  0
  8 11  1  0  0  0  0
 11 12  1  0  0  0  0
 12 13  4  0  0  0  0
 12 25  4  0  0  0  0
 13 14  4  0  0  0  0
 14 15  1  0  0  0  0
 14 21  4  0  0  0  0
 15 16  1  0  0  0  0
 15 20  1  0  0  0  0
 16 17  1  0  0  0  0
 17 18  1  0  0  0  0
 18 19  1  0  0  0  0
 19 20  1  0  0  0  0
 21 22  1  0  0  0  0
 21 24  4  0  0  0  0
 22 23  1  0  0  0  0
 24 25  4  0  0  0  0
 26 27  1  0  0  0  0
 28 29  4  0  0  0  0
M  END
>  <Name_Molregno>
38445

>  <5-HT1A>
6.47

>  <5-HT2A>
5.76

>  <5-HT2C>
6.28

>  <5-HT6>
8.87

>  <5-HT7>
6.59

>  <DOPAMINE D1>
6.92

>  <DOPAMINE D2>
6.34

>  <DOPAMINE D3>
5.88

>  <DOPAMINE D4>
6.89

$$$$
40060
  Marvin  02231216192D 0   1.00000     0.00000     0

 23 26  0  0  0  0  0  0  0  0999 V2000
   -5.1381   -0.8657    0.0000 F   0  0  0  0  0  0  0  0  0
   -5.3930   -0.0811    0.0000 C   0  0  0  0  0  0  0  0  0
   -6.2000    0.0904    0.0000 C   0  0  0  0  0  0  0  0  0
   -6.4549    0.8751    0.0000 C   0  0  0  0  0  0  0  0  0
   -5.9029    1.4882    0.0000 C   0  0  0  0  0  0  0  0  0
   -5.0959    1.3166    0.0000 C   0  0  0  0  0  0  0  0  0
   -4.8410    0.5320    0.0000 C   0  0  0  0  0  0  0  0  0
   -4.0340    0.3605    0.0000 N   0  0  0  0  0  0  0  0  0
   -3.4820    0.9736    0.0000 C   0  0  0  0  0  0  0  0  0
   -2.6750    0.8021    0.0000 C   0  0  0  0  0  0  0  0  0
   -2.4201    0.0174    0.0000 N   0  0  0  0  0  0  0  0  0
   -2.9721   -0.5957    0.0000 C   0  0  0  0  0  0  0  0  0
   -3.7791   -0.4241    0.0000 C   0  0  0  0  0  0  0  0  0
   -1.6131   -0.1541    0.0000 C   0  0  0  0  0  0  0  0  0
   -1.3581   -0.9387    0.0000 C   0  0  0  0  0  0  0  0  0
   -0.5735   -1.1937    0.0000 C   0  0  0  0  0  0  0  0  0
    0.1409   -0.7812    0.0000 C   0  0  0  0  0  0  0  0  0
    0.8554   -1.1937    0.0000 C   0  0  0  0  0  0  0  0  0
    0.8554   -2.0187    0.0000 C   0  0  0  0  0  0  0  0  0
    0.1409   -2.4312    0.0000 N   0  0  0  0  0  0  0  0  0
   -0.5735   -2.0187    0.0000 C   0  0  0  0  0  0  0  0  0
   -1.3581   -2.2736    0.0000 N   0  0  0  0  0  0  0  0  0
   -1.8431   -1.6062    0.0000 C   0  0  0  0  0  0  0  0  0
  1  2  1  0  0  0  0
  2  3  4  0  0  0  0
  2  7  4  0  0  0  0
  3  4  4  0  0  0  0
  4  5  4  0  0  0  0
  5  6  4  0  0  0  0
  6  7  4  0  0  0  0
  7  8  1  0  0  0  0
  8  9  1  0  0  0  0
  8 13  1  0  0  0  0
  9 10  1  0  0  0  0
 10 11  1  0  0  0  0
 11 12  1  0  0  0  0
 11 14  1  0  0  0  0
 12 13  1  0  0  0  0
 14 15  1  0  0  0  0
 15 16  4  0  0  0  0
 15 23  4  0  0  0  0
 16 17  4  0  0  0  0
 16 21  4  0  0  0  0
 17 18  4  0  0  0  0
 18 19  4  0  0  0  0
 19 20  4  0  0  0  0
 20 21  4  0  0  0  0
 21 22  4  0  0  0  0
 22 23  4  0  0  0  0
M  STY  1   1 DAT
M  SAL   1  1  22
M  SDT   1 MRV_IMPLICIT_H                                        
M  SDD   1     0.0000    0.0000    DR    ALL  0       0  
M  SED   1 IMPL_H1
M  END
>  <Name_Molregno>
40060

>  <5-HT1A>
6

>  <5-HT1B>
5

>  <5-HT1D>
5

>  <5-HT1E>
5

>  <5-HT2A>
6.62

>  <5-HT2C>
5

>  <5-HT5>
5

>  <5-HT6>
5

>  <5-HT7>
6.67

$$$$
40138
  Marvin  02231216192D 0   1.00000     0.00000     0

 28 32  0  0  0  0  0  0  0  0999 V2000
    1.1413   -2.5831    0.0000 N   0  0  0  0  0  0  0  0  0
    0.6563   -1.9156    0.0000 C   0  0  0  0  0  0  0  0  0
    1.1413   -1.2482    0.0000 C   0  0  0  0  0  0  0  0  0
    1.9259   -1.5031    0.0000 C   0  0  0  0  0  0  0  0  0
    2.6403   -1.0906    0.0000 C   0  0  0  0  0  0  0  0  0
    3.3548   -1.5031    0.0000 C   0  0  0  0  0  0  0  0  0
    3.3548   -2.3281    0.0000 C   0  0  0  0  0  0  0  0  0
    2.6403   -2.7406    0.0000 N   0  0  0  0  0  0  0  0  0
    1.9259   -2.3281    0.0000 C   0  0  0  0  0  0  0  0  0
    0.8863   -0.4636    0.0000 C   0  0  0  0  0  0  0  0  0
    1.4384    0.1495    0.0000 N   0  0  0  0  0  0  0  0  0
    1.1834    0.9341    0.0000 C   0  0  0  0  0  0  0  0  0
    1.7354    1.5472    0.0000 C   0  0  0  0  0  0  0  0  0
    2.5424    1.3757    0.0000 N   0  0  0  0  0  0  0  0  0
    2.7974    0.5911    0.0000 C   0  0  0  0  0  0  0  0  0
    2.2453   -0.0220    0.0000 C   0  0  0  0  0  0  0  0  0
    3.0944    1.9888    0.0000 C   0  0  0  0  0  0  0  0  0
    2.8395    2.7734    0.0000 C   0  0  0  0  0  0  0  0  0
    3.3915    3.3865    0.0000 C   0  0  0  0  0  0  0  0  0
    4.1985    3.2150    0.0000 C   0  0  0  0  0  0  0  0  0
    4.4535    2.4304    0.0000 C   0  0  0  0  0  0  0  0  0
    3.9014    1.8173    0.0000 C   0  0  0  0  0  0  0  0  0
    4.7505    3.8281    0.0000 C   0  0  0  0  0  0  0  0  0
    4.4956    4.6127    0.0000 C   0  0  0  0  0  0  0  0  0
    5.0476    5.2258    0.0000 C   0  0  0  0  0  0  0  0  0
    5.8546    5.0543    0.0000 C   0  0  0  0  0  0  0  0  0
    6.1096    4.2697    0.0000 C   0  0  0  0  0  0  0  0  0
    5.5575    3.6566    0.0000 C   0  0  0  0  0  0  0  0  0
  1  2  4  0  0  0  0
  1  9  4  0  0  0  0
  2  3  4  0  0  0  0
  3  4  4  0  0  0  0
  3 10  1  0  0  0  0
  4  5  4  0  0  0  0
  4  9  4  0  0  0  0
  5  6  4  0  0  0  0
  6  7  4  0  0  0  0
  7  8  4  0  0  0  0
  8  9  4  0  0  0  0
 10 11  1  0  0  0  0
 11 12  1  0  0  0  0
 11 16  1  0  0  0  0
 12 13  1  0  0  0  0
 13 14  1  0  0  0  0
 14 15  1  0  0  0  0
 14 17  1  0  0  0  0
 15 16  1  0  0  0  0
 17 18  4  0  0  0  0
 17 22  4  0  0  0  0
 18 19  4  0  0  0  0
 19 20  4  0  0  0  0
 20 21  4  0  0  0  0
 20 23  1  0  0  0  0
 21 22  4  0  0  0  0
 23 24  4  0  0  0  0
 23 28  4  0  0  0  0
 24 25  4  0  0  0  0
 25 26  4  0  0  0  0
 26 27  4  0  0  0  0
 27 28  4  0  0  0  0
M  STY  1   1 DAT
M  SAL   1  1   1
M  SDT   1 MRV_IMPLICIT_H                                        
M  SDD   1     0.0000    0.0000    DR    ALL  0       0  
M  SED   1 IMPL_H1
M  END
>  <Name_Molregno>
40138

>  <5-HT1A>
5

>  <5-HT1B>
5

>  <5-HT1D>
5

>  <5-HT1E>
5

>  <5-HT2A>
5.71

>  <5-HT2C>
5

>  <5-HT5>
5

>  <5-HT6>
5

>  <5-HT7>
5

$$$$
40141
  Marvin  02231216192D 0   1.00000     0.00000     0

 25 28  0  0  0  0  0  0  0  0999 V2000
    0.8591   -2.0056    0.0000 N   0  0  0  0  0  0  0  0  0
    0.3742   -1.3381    0.0000 C   0  0  0  0  0  0  0  0  0
    0.8591   -0.6707    0.0000 C   0  0  0  0  0  0  0  0  0
    1.6437   -0.9256    0.0000 C   0  0  0  0  0  0  0  0  0
    2.3582   -0.5131    0.0000 C   0  0  0  0  0  0  0  0  0
    3.0727   -0.9256    0.0000 C   0  0  0  0  0  0  0  0  0
    3.0727   -1.7506    0.0000 C   0  0  0  0  0  0  0  0  0
    2.3582   -2.1631    0.0000 N   0  0  0  0  0  0  0  0  0
    1.6437   -1.7506    0.0000 C   0  0  0  0  0  0  0  0  0
    0.6042    0.1139    0.0000 C   0  0  0  0  0  0  0  0  0
    1.1562    0.7270    0.0000 N   0  0  0  0  0  0  0  0  0
    0.9013    1.5116    0.0000 C   0  0  0  0  0  0  0  0  0
    1.4533    2.1247    0.0000 C   0  0  0  0  0  0  0  0  0
    2.2603    1.9532    0.0000 N   0  0  0  0  0  0  0  0  0
    2.5152    1.1686    0.0000 C   0  0  0  0  0  0  0  0  0
    1.9632    0.5555    0.0000 C   0  0  0  0  0  0  0  0  0
    2.8123    2.5663    0.0000 C   0  0  0  0  0  0  0  0  0
    2.5574    3.3509    0.0000 C   0  0  0  0  0  0  0  0  0
    3.1094    3.9640    0.0000 C   0  0  0  0  0  0  0  0  0
    3.9164    3.7925    0.0000 C   0  0  0  0  0  0  0  0  0
    4.1713    3.0079    0.0000 C   0  0  0  0  0  0  0  0  0
    3.6193    2.3948    0.0000 C   0  0  0  0  0  0  0  0  0
    4.4684    4.4056    0.0000 C   0  0  0  0  0  0  0  0  0
    5.2754    4.2341    0.0000 C   0  0  0  0  0  0  0  0  0
    5.8274    4.8472    0.0000 C   0  0  0  0  0  0  0  0  0
  1  2  4  0  0  0  0
  1  9  4  0  0  0  0
  2  3  4  0  0  0  0
  3  4  4  0  0  0  0
  3 10  1  0  0  0  0
  4  5  4  0  0  0  0
  4  9  4  0  0  0  0
  5  6  4  0  0  0  0
  6  7  4  0  0  0  0
  7  8  4  0  0  0  0
  8  9  4  0  0  0  0
 10 11  1  0  0  0  0
 11 12  1  0  0  0  0
 11 16  1  0  0  0  0
 12 13  1  0  0  0  0
 13 14  1  0  0  0  0
 14 15  1  0  0  0  0
 14 17  1  0  0  0  0
 15 16  1  0  0  0  0
 17 18  4  0  0  0  0
 17 22  4  0  0  0  0
 18 19  4  0  0  0  0
 19 20  4  0  0  0  0
 20 21  4  0  0  0  0
 20 23  1  0  0  0  0
 21 22  4  0  0  0  0
 23 24  1  0  0  0  0
 24 25  1  0  0  0  0
M  STY  1   1 DAT
M  SAL   1  1   1
M  SDT   1 MRV_IMPLICIT_H                                        
M  SDD   1     0.0000    0.0000    DR    ALL  0       0  
M  SED   1 IMPL_H1
M  END
>  <Name_Molregno>
40141

>  <5-HT1A>
5

>  <5-HT1B>
5

>  <5-HT1D>
5

>  <5-HT1E>
5

>  <5-HT2A>
5

>  <5-HT2C>
5

>  <5-HT5>
5

>  <5-HT6>
5.19

>  <5-HT7>
6.15

$$$$
40142
  Marvin  02231216192D 0   1.00000     0.00000     0

 24 27  0  0  0  0  0  0  0  0999 V2000
    0.8175   -1.8909    0.0000 N   0  0  0  0  0  0  0  0  0
    0.3326   -1.2235    0.0000 C   0  0  0  0  0  0  0  0  0
    0.8175   -0.5560    0.0000 C   0  0  0  0  0  0  0  0  0
    1.6022   -0.8110    0.0000 C   0  0  0  0  0  0  0  0  0
    2.3166   -0.3985    0.0000 C   0  0  0  0  0  0  0  0  0
    3.0311   -0.8110    0.0000 C   0  0  0  0  0  0  0  0  0
    3.0311   -1.6360    0.0000 C   0  0  0  0  0  0  0  0  0
    2.3166   -2.0485    0.0000 N   0  0  0  0  0  0  0  0  0
    1.6022   -1.6360    0.0000 C   0  0  0  0  0  0  0  0  0
    0.5626    0.2286    0.0000 C   0  0  0  0  0  0  0  0  0
    1.1146    0.8417    0.0000 N   0  0  0  0  0  0  0  0  0
    0.8597    1.6263    0.0000 C   0  0  0  0  0  0  0  0  0
    1.4117    2.2394    0.0000 C   0  0  0  0  0  0  0  0  0
    2.2187    2.0679    0.0000 N   0  0  0  0  0  0  0  0  0
    2.4736    1.2832    0.0000 C   0  0  0  0  0  0  0  0  0
    1.9216    0.6701    0.0000 C   0  0  0  0  0  0  0  0  0
    2.7707    2.6810    0.0000 C   0  0  0  0  0  0  0  0  0
    2.5158    3.4656    0.0000 C   0  0  0  0  0  0  0  0  0
    3.0678    4.0787    0.0000 C   0  0  0  0  0  0  0  0  0
    3.8748    3.9071    0.0000 C   0  0  0  0  0  0  0  0  0
    4.1297    3.1225    0.0000 C   0  0  0  0  0  0  0  0  0
    3.5777    2.5094    0.0000 C   0  0  0  0  0  0  0  0  0
    4.4268    4.5202    0.0000 C   0  0  0  0  0  0  0  0  0
    4.1719    5.3049    0.0000 C   0  0  0  0  0  0  0  0  0
  1  2  4  0  0  0  0
  1  9  4  0  0  0  0
  2  3  4  0  0  0  0
  3  4  4  0  0  0  0
  3 10  1  0  0  0  0
  4  5  4  0  0  0  0
  4  9  4  0  0  0  0
  5  6  4  0  0  0  0
  6  7  4  0  0  0  0
  7  8  4  0  0  0  0
  8  9  4  0  0  0  0
 10 11  1  0  0  0  0
 11 12  1  0  0  0  0
 11 16  1  0  0  0  0
 12 13  1  0  0  0  0
 13 14  1  0  0  0  0
 14 15  1  0  0  0  0
 14 17  1  0  0  0  0
 15 16  1  0  0  0  0
 17 18  4  0  0  0  0
 17 22  4  0  0  0  0
 18 19  4  0  0  0  0
 19 20  4  0  0  0  0
 20 21  4  0  0  0  0
 20 23  1  0  0  0  0
 21 22  4  0  0  0  0
 23 24  1  0  0  0  0
M  STY  1   1 DAT
M  SAL   1  1   1
M  SDT   1 MRV_IMPLICIT_H                                        
M  SDD   1     0.0000    0.0000    DR    ALL  0       0  
M  SED   1 IMPL_H1
M  END
>  <Name_Molregno>
40142

>  <5-HT1A>
5

>  <5-HT1B>
5

>  <5-HT1D>
5

>  <5-HT1E>
5

>  <5-HT2A>
6.2

>  <5-HT2C>
5

>  <5-HT5>
5

>  <5-HT6>
5.35

>  <5-HT7>
6.39

$$$$
40143
  Marvin  02231216192D 0   1.00000     0.00000     0

 24 27  0  0  0  0  0  0  0  0999 V2000
   -4.8672   -0.8164    0.0000 O   0  0  0  0  0  0  0  0  0
   -5.4192   -1.4295    0.0000 C   0  0  0  0  0  0  0  0  0
   -5.1221   -0.0318    0.0000 C   0  0  0  0  0  0  0  0  0
   -5.9291    0.1397    0.0000 C   0  0  0  0  0  0  0  0  0
   -6.1840    0.9243    0.0000 C   0  0  0  0  0  0  0  0  0
   -5.6320    1.5374    0.0000 C   0  0  0  0  0  0  0  0  0
   -4.8250    1.3659    0.0000 C   0  0  0  0  0  0  0  0  0
   -4.5701    0.5813    0.0000 C   0  0  0  0  0  0  0  0  0
   -3.7631    0.4098    0.0000 N   0  0  0  0  0  0  0  0  0
   -3.2111    1.0229    0.0000 C   0  0  0  0  0  0  0  0  0
   -2.4041    0.8513    0.0000 C   0  0  0  0  0  0  0  0  0
   -2.1492    0.0667    0.0000 N   0  0  0  0  0  0  0  0  0
   -2.7012   -0.5464    0.0000 C   0  0  0  0  0  0  0  0  0
   -3.5082   -0.3749    0.0000 C   0  0  0  0  0  0  0  0  0
   -1.3422   -0.1048    0.0000 C   0  0  0  0  0  0  0  0  0
   -1.0873   -0.8894    0.0000 C   0  0  0  0  0  0  0  0  0
   -0.3026   -1.1444    0.0000 C   0  0  0  0  0  0  0  0  0
    0.4118   -0.7319    0.0000 C   0  0  0  0  0  0  0  0  0
    1.1263   -1.1444    0.0000 C   0  0  0  0  0  0  0  0  0
    1.1263   -1.9694    0.0000 C   0  0  0  0  0  0  0  0  0
    0.4118   -2.3819    0.0000 N   0  0  0  0  0  0  0  0  0
   -0.3026   -1.9694    0.0000 C   0  0  0  0  0  0  0  0  0
   -1.0873   -2.2243    0.0000 N   0  0  0  0  0  0  0  0  0
   -1.5722   -1.5569    0.0000 C   0  0  0  0  0  0  0  0  0
  1  2  1  0  0  0  0
  1  3  1  0  0  0  0
  3  4  4  0  0  0  0
  3  8  4  0  0  0  0
  4  5  4  0  0  0  0
  5  6  4  0  0  0  0
  6  7  4  0  0  0  0
  7  8  4  0  0  0  0
  8  9  1  0  0  0  0
  9 10  1  0  0  0  0
  9 14  1  0  0  0  0
 10 11  1  0  0  0  0
 11 12  1  0  0  0  0
 12 13  1  0  0  0  0
 12 15  1  0  0  0  0
 13 14  1  0  0  0  0
 15 16  1  0  0  0  0
 16 17  4  0  0  0  0
 16 24  4  0  0  0  0
 17 18  4  0  0  0  0
 17 22  4  0  0  0  0
 18 19  4  0  0  0  0
 19 20  4  0  0  0  0
 20 21  4  0  0  0  0
 21 22  4  0  0  0  0
 22 23  4  0  0  0  0
 23 24  4  0  0  0  0
M  STY  1   1 DAT
M  SAL   1  1  23
M  SDT   1 MRV_IMPLICIT_H                                        
M  SDD   1     0.0000    0.0000    DR    ALL  0       0  
M  SED   1 IMPL_H1
M  END
>  <Name_Molregno>
40143

>  <5-HT1A>
6.39

>  <5-HT1B>
5

>  <5-HT1D>
5

>  <5-HT1E>
5

>  <5-HT2A>
5.64

>  <5-HT2C>
5

>  <5-HT5>
5

>  <5-HT6>
5.13

>  <5-HT7>
6.99

$$$$
40144
  Marvin  02231216192D 0   1.00000     0.00000     0

 24 27  0  0  0  0  0  0  0  0999 V2000
    0.8175   -1.8909    0.0000 N   0  0  0  0  0  0  0  0  0
    0.3326   -1.2235    0.0000 C   0  0  0  0  0  0  0  0  0
    0.8175   -0.5560    0.0000 C   0  0  0  0  0  0  0  0  0
    1.6022   -0.8110    0.0000 C   0  0  0  0  0  0  0  0  0
    2.3166   -0.3985    0.0000 C   0  0  0  0  0  0  0  0  0
    3.0311   -0.8110    0.0000 C   0  0  0  0  0  0  0  0  0
    3.0311   -1.6360    0.0000 C   0  0  0  0  0  0  0  0  0
    2.3166   -2.0485    0.0000 N   0  0  0  0  0  0  0  0  0
    1.6022   -1.6360    0.0000 C   0  0  0  0  0  0  0  0  0
    0.5626    0.2286    0.0000 C   0  0  0  0  0  0  0  0  0
    1.1146    0.8417    0.0000 N   0  0  0  0  0  0  0  0  0
    0.8597    1.6263    0.0000 C   0  0  0  0  0  0  0  0  0
    1.4117    2.2394    0.0000 C   0  0  0  0  0  0  0  0  0
    2.2187    2.0679    0.0000 N   0  0  0  0  0  0  0  0  0
    2.4736    1.2832    0.0000 C   0  0  0  0  0  0  0  0  0
    1.9216    0.6701    0.0000 C   0  0  0  0  0  0  0  0  0
    2.7707    2.6810    0.0000 C   0  0  0  0  0  0  0  0  0
    2.5158    3.4656    0.0000 C   0  0  0  0  0  0  0  0  0
    3.0678    4.0787    0.0000 C   0  0  0  0  0  0  0  0  0
    3.8748    3.9071    0.0000 C   0  0  0  0  0  0  0  0  0
    4.1297    3.1225    0.0000 C   0  0  0  0  0  0  0  0  0
    3.5777    2.5094    0.0000 C   0  0  0  0  0  0  0  0  0
    4.4268    4.5202    0.0000 C   0  0  0  0  0  0  0  0  0
    4.1719    5.3049    0.0000 C   0  0  0  0  0  0  0  0  0
  1  2  4  0  0  0  0
  1  9  4  0  0  0  0
  2  3  4  0  0  0  0
  3  4  4  0  0  0  0
  3 10  1  0  0  0  0
  4  5  4  0  0  0  0
  4  9  4  0  0  0  0
  5  6  4  0  0  0  0
  6  7  4  0  0  0  0
  7  8  4  0  0  0  0
  8  9  4  0  0  0  0
 10 11  1  0  0  0  0
 11 12  1  0  0  0  0
 11 16  1  0  0  0  0
 12 13  1  0  0  0  0
 13 14  1  0  0  0  0
 14 15  1  0  0  0  0
 14 17  1  0  0  0  0
 15 16  1  0  0  0  0
 17 18  4  0  0  0  0
 17 22  4  0  0  0  0
 18 19  4  0  0  0  0
 19 20  4  0  0  0  0
 20 21  4  0  0  0  0
 20 23  1  0  0  0  0
 21 22  4  0  0  0  0
 23 24  2  0  0  0  0
M  STY  1   1 DAT
M  SAL   1  1   1
M  SDT   1 MRV_IMPLICIT_H                                        
M  SDD   1     0.0000    0.0000    DR    ALL  0       0  
M  SED   1 IMPL_H1
M  END
>  <Name_Molregno>
40144

>  <5-HT1A>
5.4

>  <5-HT1B>
5

>  <5-HT1D>
5

>  <5-HT1E>
5

>  <5-HT2A>
6.29

>  <5-HT2C>
5

>  <5-HT5>
5

>  <5-HT6>
5

>  <5-HT7>
5

$$$$
40145
  Marvin  02231216192D 0   1.00000     0.00000     0

 26 29  0  0  0  0  0  0  0  0999 V2000
    0.0657    1.7835    0.0000 F   0  0  0  0  0  0  0  0  0
    0.8727    1.6120    0.0000 C   0  0  0  0  0  0  0  0  0
    0.7011    0.8050    0.0000 F   0  0  0  0  0  0  0  0  0
    1.0442    2.4190    0.0000 F   0  0  0  0  0  0  0  0  0
    1.6796    1.4405    0.0000 C   0  0  0  0  0  0  0  0  0
    2.2317    2.0536    0.0000 C   0  0  0  0  0  0  0  0  0
    3.0386    1.8820    0.0000 C   0  0  0  0  0  0  0  0  0
    3.2936    1.0974    0.0000 C   0  0  0  0  0  0  0  0  0
    4.1005    0.9259    0.0000 N   0  0  0  0  0  0  0  0  0
    4.6526    1.5390    0.0000 C   0  0  0  0  0  0  0  0  0
    5.4595    1.3675    0.0000 C   0  0  0  0  0  0  0  0  0
    5.7145    0.5828    0.0000 N   0  0  0  0  0  0  0  0  0
    5.1625   -0.0303    0.0000 C   0  0  0  0  0  0  0  0  0
    4.3555    0.1413    0.0000 C   0  0  0  0  0  0  0  0  0
    6.5215    0.4113    0.0000 C   0  0  0  0  0  0  0  0  0
    6.7764   -0.3733    0.0000 C   0  0  0  0  0  0  0  0  0
    7.5610   -0.6282    0.0000 C   0  0  0  0  0  0  0  0  0
    8.2755   -0.2157    0.0000 C   0  0  0  0  0  0  0  0  0
    8.9900   -0.6282    0.0000 C   0  0  0  0  0  0  0  0  0
    8.9900   -1.4532    0.0000 C   0  0  0  0  0  0  0  0  0
    8.2755   -1.8657    0.0000 N   0  0  0  0  0  0  0  0  0
    7.5610   -1.4532    0.0000 C   0  0  0  0  0  0  0  0  0
    6.7764   -1.7082    0.0000 N   0  0  0  0  0  0  0  0  0
    6.2915   -1.0407    0.0000 C   0  0  0  0  0  0  0  0  0
    2.7415    0.4843    0.0000 C   0  0  0  0  0  0  0  0  0
    1.9346    0.6559    0.0000 C   0  0  0  0  0  0  0  0  0
  1  2  1  0  0  0  0
  2  3  1  0  0  0  0
  2  4  1  0  0  0  0
  2  5  1  0  0  0  0
  5  6  4  0  0  0  0
  5 26  4  0  0  0  0
  6  7  4  0  0  0  0
  7  8  4  0  0  0  0
  8  9  1  0  0  0  0
  8 25  4  0  0  0  0
  9 10  1  0  0  0  0
  9 14  1  0  0  0  0
 10 11  1  0  0  0  0
 11 12  1  0  0  0  0
 12 13  1  0  0  0  0
 12 15  1  0  0  0  0
 13 14  1  0  0  0  0
 15 16  1  0  0  0  0
 16 17  4  0  0  0  0
 16 24  4  0  0  0  0
 17 18  4  0  0  0  0
 17 22  4  0  0  0  0
 18 19  4  0  0  0  0
 19 20  4  0  0  0  0
 20 21  4  0  0  0  0
 21 22  4  0  0  0  0
 22 23  4  0  0  0  0
 23 24  4  0  0  0  0
 25 26  4  0  0  0  0
M  STY  1   1 DAT
M  SAL   1  1  23
M  SDT   1 MRV_IMPLICIT_H                                        
M  SDD   1     0.0000    0.0000    DR    ALL  0       0  
M  SED   1 IMPL_H1
M  END
>  <Name_Molregno>
40145

>  <5-HT1A>
5

>  <5-HT1B>
5

>  <5-HT1D>
5

>  <5-HT1E>
5

>  <5-HT2A>
5.55

>  <5-HT2C>
5

>  <5-HT5>
5

>  <5-HT6>
5.15

>  <5-HT7>
6.5

$$$$
40178
  Marvin  02231216192D 0   1.00000     0.00000     0

 24 27  0  0  0  0  0  0  0  0999 V2000
   -8.4666    1.7569    0.0000 S   0  0  0  0  0  0  0  0  0
   -9.0187    1.1438    0.0000 C   0  0  0  0  0  0  0  0  0
   -7.6597    1.5853    0.0000 C   0  0  0  0  0  0  0  0  0
   -7.1076    2.1984    0.0000 C   0  0  0  0  0  0  0  0  0
   -6.3007    2.0269    0.0000 C   0  0  0  0  0  0  0  0  0
   -6.0457    1.2423    0.0000 C   0  0  0  0  0  0  0  0  0
   -5.2387    1.0708    0.0000 N   0  0  0  0  0  0  0  0  0
   -4.6867    1.6839    0.0000 C   0  0  0  0  0  0  0  0  0
   -3.8797    1.5123    0.0000 C   0  0  0  0  0  0  0  0  0
   -3.6248    0.7277    0.0000 N   0  0  0  0  0  0  0  0  0
   -4.1768    0.1146    0.0000 C   0  0  0  0  0  0  0  0  0
   -4.9838    0.2861    0.0000 C   0  0  0  0  0  0  0  0  0
   -2.8178    0.5562    0.0000 C   0  0  0  0  0  0  0  0  0
   -2.5629   -0.2284    0.0000 C   0  0  0  0  0  0  0  0  0
   -1.7783   -0.4834    0.0000 C   0  0  0  0  0  0  0  0  0
   -1.0638   -0.0709    0.0000 C   0  0  0  0  0  0  0  0  0
   -0.3493   -0.4834    0.0000 C   0  0  0  0  0  0  0  0  0
   -0.3493   -1.3084    0.0000 C   0  0  0  0  0  0  0  0  0
   -1.0638   -1.7209    0.0000 N   0  0  0  0  0  0  0  0  0
   -1.7783   -1.3084    0.0000 C   0  0  0  0  0  0  0  0  0
   -2.5629   -1.5633    0.0000 N   0  0  0  0  0  0  0  0  0
   -3.0478   -0.8959    0.0000 C   0  0  0  0  0  0  0  0  0
   -6.5977    0.6292    0.0000 C   0  0  0  0  0  0  0  0  0
   -7.4047    0.8007    0.0000 C   0  0  0  0  0  0  0  0  0
  1  2  1  0  0  0  0
  1  3  1  0  0  0  0
  3  4  4  0  0  0  0
  3 24  4  0  0  0  0
  4  5  4  0  0  0  0
  5  6  4  0  0  0  0
  6  7  1  0  0  0  0
  6 23  4  0  0  0  0
  7  8  1  0  0  0  0
  7 12  1  0  0  0  0
  8  9  1  0  0  0  0
  9 10  1  0  0  0  0
 10 11  1  0  0  0  0
 10 13  1  0  0  0  0
 11 12  1  0  0  0  0
 13 14  1  0  0  0  0
 14 15  4  0  0  0  0
 14 22  4  0  0  0  0
 15 16  4  0  0  0  0
 15 20  4  0  0  0  0
 16 17  4  0  0  0  0
 17 18  4  0  0  0  0
 18 19  4  0  0  0  0
 19 20  4  0  0  0  0
 20 21  4  0  0  0  0
 21 22  4  0  0  0  0
 23 24  4  0  0  0  0
M  STY  1   1 DAT
M  SAL   1  1  21
M  SDT   1 MRV_IMPLICIT_H                                        
M  SDD   1     0.0000    0.0000    DR    ALL  0       0  
M  SED   1 IMPL_H1
M  END
>  <Name_Molregno>
40178

>  <5-HT1A>
5

>  <5-HT1B>
5

>  <5-HT1D>
5

>  <5-HT1E>
5

>  <5-HT2A>
5

>  <5-HT2C>
5

>  <5-HT5>
5

>  <5-HT6>
5

>  <5-HT7>
6.47

$$$$
40961
  Marvin  02231216192D 0   1.00000     0.00000     0

 24 27  0  0  0  0  0  0  0  0999 V2000
   -8.4666    1.7569    0.0000 O   0  0  0  0  0  0  0  0  0
   -9.0187    1.1438    0.0000 C   0  0  0  0  0  0  0  0  0
   -7.6597    1.5853    0.0000 C   0  0  0  0  0  0  0  0  0
   -7.1076    2.1984    0.0000 C   0  0  0  0  0  0  0  0  0
   -6.3007    2.0269    0.0000 C   0  0  0  0  0  0  0  0  0
   -6.0457    1.2423    0.0000 C   0  0  0  0  0  0  0  0  0
   -5.2387    1.0708    0.0000 N   0  0  0  0  0  0  0  0  0
   -4.6867    1.6839    0.0000 C   0  0  0  0  0  0  0  0  0
   -3.8797    1.5123    0.0000 C   0  0  0  0  0  0  0  0  0
   -3.6248    0.7277    0.0000 N   0  0  0  0  0  0  0  0  0
   -4.1768    0.1146    0.0000 C   0  0  0  0  0  0  0  0  0
   -4.9838    0.2861    0.0000 C   0  0  0  0  0  0  0  0  0
   -2.8178    0.5562    0.0000 C   0  0  0  0  0  0  0  0  0
   -2.5629   -0.2284    0.0000 C   0  0  0  0  0  0  0  0  0
   -1.7783   -0.4834    0.0000 C   0  0  0  0  0  0  0  0  0
   -1.0638   -0.0709    0.0000 C   0  0  0  0  0  0  0  0  0
   -0.3493   -0.4834    0.0000 C   0  0  0  0  0  0  0  0  0
   -0.3493   -1.3084    0.0000 C   0  0  0  0  0  0  0  0  0
   -1.0638   -1.7209    0.0000 N   0  0  0  0  0  0  0  0  0
   -1.7783   -1.3084    0.0000 C   0  0  0  0  0  0  0  0  0
   -2.5629   -1.5633    0.0000 N   0  0  0  0  0  0  0  0  0
   -3.0478   -0.8959    0.0000 C   0  0  0  0  0  0  0  0  0
   -6.5977    0.6292    0.0000 C   0  0  0  0  0  0  0  0  0
   -7.4047    0.8007    0.0000 C   0  0  0  0  0  0  0  0  0
  1  2  1  0  0  0  0
  1  3  1  0  0  0  0
  3  4  4  0  0  0  0
  3 24  4  0  0  0  0
  4  5  4  0  0  0  0
  5  6  4  0  0  0  0
  6  7  1  0  0  0  0
  6 23  4  0  0  0  0
  7  8  1  0  0  0  0
  7 12  1  0  0  0  0
  8  9  1  0  0  0  0
  9 10  1  0  0  0  0
 10 11  1  0  0  0  0
 10 13  1  0  0  0  0
 11 12  1  0  0  0  0
 13 14  1  0  0  0  0
 14 15  4  0  0  0  0
 14 22  4  0  0  0  0
 15 16  4  0  0  0  0
 15 20  4  0  0  0  0
 16 17  4  0  0  0  0
 17 18  4  0  0  0  0
 18 19  4  0  0  0  0
 19 20  4  0  0  0  0
 20 21  4  0  0  0  0
 21 22  4  0  0  0  0
 23 24  4  0  0  0  0
M  STY  1   1 DAT
M  SAL   1  1  21
M  SDT   1 MRV_IMPLICIT_H                                        
M  SDD   1     0.0000    0.0000    DR    ALL  0       0  
M  SED   1 IMPL_H1
M  END
>  <Name_Molregno>
40961

>  <5-HT1A>
5

>  <5-HT1B>
5

>  <5-HT1D>
5

>  <5-HT1E>
5

>  <5-HT2A>
5

>  <5-HT2C>
5

>  <5-HT5>
5

>  <5-HT6>
5

>  <5-HT7>
5

>  <DOPAMINE D2>
5.82

>  <DOPAMINE D3>
5.41

>  <DOPAMINE D4>
8.89

$$$$
40962
  Marvin  02231216192D 0   1.00000     0.00000     0

 23 26  0  0  0  0  0  0  0  0999 V2000
    0.0748    1.8640    0.0000 F   0  0  0  0  0  0  0  0  0
    0.8818    1.6925    0.0000 C   0  0  0  0  0  0  0  0  0
    1.4339    2.3056    0.0000 C   0  0  0  0  0  0  0  0  0
    2.2408    2.1340    0.0000 C   0  0  0  0  0  0  0  0  0
    2.4958    1.3494    0.0000 C   0  0  0  0  0  0  0  0  0
    3.3027    1.1779    0.0000 N   0  0  0  0  0  0  0  0  0
    3.8548    1.7910    0.0000 C   0  0  0  0  0  0  0  0  0
    4.6617    1.6194    0.0000 C   0  0  0  0  0  0  0  0  0
    4.9167    0.8348    0.0000 N   0  0  0  0  0  0  0  0  0
    4.3646    0.2217    0.0000 C   0  0  0  0  0  0  0  0  0
    3.5577    0.3933    0.0000 C   0  0  0  0  0  0  0  0  0
    5.7237    0.6633    0.0000 C   0  0  0  0  0  0  0  0  0
    5.9786   -0.1213    0.0000 C   0  0  0  0  0  0  0  0  0
    6.7632   -0.3763    0.0000 C   0  0  0  0  0  0  0  0  0
    7.4777    0.0362    0.0000 C   0  0  0  0  0  0  0  0  0
    8.1922   -0.3763    0.0000 C   0  0  0  0  0  0  0  0  0
    8.1922   -1.2013    0.0000 C   0  0  0  0  0  0  0  0  0
    7.4777   -1.6138    0.0000 N   0  0  0  0  0  0  0  0  0
    6.7632   -1.2013    0.0000 C   0  0  0  0  0  0  0  0  0
    5.9786   -1.4562    0.0000 N   0  0  0  0  0  0  0  0  0
    5.4937   -0.7888    0.0000 C   0  0  0  0  0  0  0  0  0
    1.9437    0.7363    0.0000 C   0  0  0  0  0  0  0  0  0
    1.1368    0.9078    0.0000 C   0  0  0  0  0  0  0  0  0
  1  2  1  0  0  0  0
  2  3  4  0  0  0  0
  2 23  4  0  0  0  0
  3  4  4  0  0  0  0
  4  5  4  0  0  0  0
  5  6  1  0  0  0  0
  5 22  4  0  0  0  0
  6  7  1  0  0  0  0
  6 11  1  0  0  0  0
  7  8  1  0  0  0  0
  8  9  1  0  0  0  0
  9 10  1  0  0  0  0
  9 12  1  0  0  0  0
 10 11  1  0  0  0  0
 12 13  1  0  0  0  0
 13 14  4  0  0  0  0
 13 21  4  0  0  0  0
 14 15  4  0  0  0  0
 14 19  4  0  0  0  0
 15 16  4  0  0  0  0
 16 17  4  0  0  0  0
 17 18  4  0  0  0  0
 18 19  4  0  0  0  0
 19 20  4  0  0  0  0
 20 21  4  0  0  0  0
 22 23  4  0  0  0  0
M  STY  1   1 DAT
M  SAL   1  1  20
M  SDT   1 MRV_IMPLICIT_H                                        
M  SDD   1     0.0000    0.0000    DR    ALL  0       0  
M  SED   1 IMPL_H1
M  END
>  <Name_Molregno>
40962

>  <5-HT1A>
5.56

>  <5-HT1B>
5

>  <5-HT1D>
5

>  <5-HT1E>
5

>  <5-HT2A>
6.63

>  <5-HT2C>
5

>  <5-HT5>
5

>  <5-HT6>
5

>  <5-HT7>
6.38

$$$$
42179
  Marvin  02231216192D 0   1.00000     0.00000     0

 31 34  0  0  0  0  0  0  0  0999 V2000
    0.8929    1.6421    0.0000 O   0  0  0  0  0  0  0  0  0
    1.6074    2.0546    0.0000 C   0  0  0  0  0  0  0  0  0
    0.8929    0.8171    0.0000 C   0  0  0  0  0  0  0  0  0
    1.6074    0.4046    0.0000 C   0  0  0  0  0  0  0  0  0
    1.6074   -0.4204    0.0000 C   0  0  0  0  0  0  0  0  0
    0.8929   -0.8329    0.0000 C   0  0  0  0  0  0  0  0  0
    0.1785   -0.4204    0.0000 C   0  0  0  0  0  0  0  0  0
    0.1785    0.4046    0.0000 C   0  0  0  0  0  0  0  0  0
   -0.5360    0.8171    0.0000 N   0  0  0  0  0  0  0  0  0
   -1.2505    0.4046    0.0000 C   0  0  0  0  0  0  0  0  0
   -1.9649    0.8171    0.0000 C   0  0  0  0  0  0  0  0  0
   -1.9649    1.6421    0.0000 N   0  0  0  0  0  0  0  0  0
   -1.2505    2.0546    0.0000 C   0  0  0  0  0  0  0  0  0
   -0.5360    1.6421    0.0000 C   0  0  0  0  0  0  0  0  0
   -2.6794    2.0546    0.0000 C   0  0  0  0  0  0  0  0  0
   -3.3939    1.6421    0.0000 C   0  0  0  0  0  0  0  0  0
   -4.1083    2.0546    0.0000 N   0  0  0  0  0  0  0  0  0
   -4.8228    1.6421    0.0000 C   0  0  0  0  0  0  0  0  0
   -4.8228    0.8171    0.0000 O   0  0  0  0  0  0  0  0  0
   -5.5373    2.0546    0.0000 C   0  0  0  0  0  0  0  0  0
   -6.2518    1.6421    0.0000 C   0  0  0  0  0  0  0  0  0
   -6.9662    2.0546    0.0000 C   0  0  0  0  0  0  0  0  0
   -6.9662    2.8796    0.0000 C   0  0  0  0  0  0  0  0  0
   -6.2518    3.2921    0.0000 C   0  0  0  0  0  0  0  0  0
   -5.5373    2.8796    0.0000 C   0  0  0  0  0  0  0  0  0
   -4.1083    2.8796    0.0000 C   0  0  0  0  0  0  0  0  0
   -4.8228    3.2921    0.0000 N   0  0  0  0  0  0  0  0  0
   -4.8228    4.1171    0.0000 C   0  0  0  0  0  0  0  0  0
   -4.1083    4.5296    0.0000 C   0  0  0  0  0  0  0  0  0
   -3.3939    4.1171    0.0000 C   0  0  0  0  0  0  0  0  0
   -3.3939    3.2921    0.0000 C   0  0  0  0  0  0  0  0  0
  1  2  1  0  0  0  0
  1  3  1  0  0  0  0
  3  4  4  0  0  0  0
  3  8  4  0  0  0  0
  4  5  4  0  0  0  0
  5  6  4  0  0  0  0
  6  7  4  0  0  0  0
  7  8  4  0  0  0  0
  8  9  1  0  0  0  0
  9 10  1  0  0  0  0
  9 14  1  0  0  0  0
 10 11  1  0  0  0  0
 11 12  1  0  0  0  0
 12 13  1  0  0  0  0
 12 15  1  0  0  0  0
 13 14  1  0  0  0  0
 15 16  1  0  0  0  0
 16 17  1  0  0  0  0
 17 18  1  0  0  0  0
 17 26  1  0  0  0  0
 18 19  2  0  0  0  0
 18 20  1  0  0  0  0
 20 21  1  0  0  0  0
 20 25  1  0  0  0  0
 21 22  1  0  0  0  0
 22 23  1  0  0  0  0
 23 24  1  0  0  0  0
 24 25  1  0  0  0  0
 26 27  4  0  0  0  0
 26 31  4  0  0  0  0
 27 28  4  0  0  0  0
 28 29  4  0  0  0  0
 29 30  4  0  0  0  0
 30 31  4  0  0  0  0
M  END
>  <Name_Molregno>
42179

>  <5-HT1A>
9.12

>  <5-HT1B>
5

>  <5-HT1D>
5

>  <5-HT1E>
5

>  <5-HT2A>
5.2

>  <5-HT5>
5

>  <5-HT6>
5

>  <5-HT7>
5

>  <Alpha-1A>
7.71

>  <Alpha-1B>
6.33

>  <Alpha-2A>
5

>  <Alpha-2B>
5

>  <Alpha-2C>
5.59

>  <DOPAMINE D1>
5

>  <DOPAMINE D2>
6.57

>  <DOPAMINE D3>
7.17

>  <DOPAMINE D4>
7.79

>  <DOPAMINE D5>
5

>  <HISTAMINE H1>
5

>  <HISTAMINE H2>
5

>  <HISTAMINE H4>
5

>  <Muscarinic acetylcholine receptor M2>
5

>  <Muscarinic acetylcholine receptor M5>
5

$$$$
62720
  Marvin  02231216192D 0   1.00000     0.00000     0

 22 25  0  0  0  0  0  0  0  0999 V2000
   -0.6108   -1.6501    0.0000 O   0  0  0  0  0  0  0  0  0
   -0.0588   -1.0370    0.0000 C   0  0  0  0  0  0  0  0  0
    0.7482   -1.2086    0.0000 N   0  0  0  0  0  0  0  0  0
    1.0031   -1.9932    0.0000 C   0  0  0  0  0  0  0  0  0
    1.8101   -2.1647    0.0000 C   0  0  0  0  0  0  0  0  0
    2.0650   -2.9493    0.0000 C   0  0  0  0  0  0  0  0  0
    1.5130   -3.5624    0.0000 C   0  0  0  0  0  0  0  0  0
    0.7060   -3.3909    0.0000 N   0  0  0  0  0  0  0  0  0
    0.4511   -2.6063    0.0000 C   0  0  0  0  0  0  0  0  0
   -0.3137   -0.2524    0.0000 N   0  0  0  0  0  0  0  0  0
    0.1712    0.4150    0.0000 C   0  0  0  0  0  0  0  0  0
   -0.3137    1.0825    0.0000 C   0  0  0  0  0  0  0  0  0
   -1.0984    0.8275    0.0000 C   0  0  0  0  0  0  0  0  0
   -1.0984    0.0025    0.0000 C   0  0  0  0  0  0  0  0  0
   -1.8128   -0.4100    0.0000 C   0  0  0  0  0  0  0  0  0
   -2.5273    0.0025    0.0000 C   0  0  0  0  0  0  0  0  0
   -2.5273    0.8275    0.0000 C   0  0  0  0  0  0  0  0  0
   -3.3119    1.0825    0.0000 N   0  0  0  0  0  0  0  0  0
   -3.7969    0.4150    0.0000 C   0  0  0  0  0  0  0  0  0
   -3.3119   -0.2524    0.0000 C   0  0  0  0  0  0  0  0  0
   -3.5669    1.8671    0.0000 C   0  0  0  0  0  0  0  0  0
   -1.8128    1.2400    0.0000 C   0  0  0  0  0  0  0  0  0
  1  2  2  0  0  0  0
  2  3  1  0  0  0  0
  2 10  1  0  0  0  0
  3  4  1  0  0  0  0
  4  5  4  0  0  0  0
  4  9  4  0  0  0  0
  5  6  4  0  0  0  0
  6  7  4  0  0  0  0
  7  8  4  0  0  0  0
  8  9  4  0  0  0  0
 10 11  1  0  0  0  0
 10 14  1  0  0  0  0
 11 12  1  0  0  0  0
 12 13  1  0  0  0  0
 13 14  4  0  0  0  0
 13 22  4  0  0  0  0
 14 15  4  0  0  0  0
 15 16  4  0  0  0  0
 16 17  4  0  0  0  0
 16 20  4  0  0  0  0
 17 18  4  0  0  0  0
 17 22  4  0  0  0  0
 18 19  4  0  0  0  0
 18 21  1  0  0  0  0
 19 20  4  0  0  0  0
M  END
>  <Name_Molregno>
62720

>  <5-HT1E>
5.3

>  <5-HT2A>
5.73

>  <5-HT2C>
8.02

>  <5-HT7>
6

>  <DOPAMINE D2>
5

>  <DOPAMINE D3>
5

>  <DOPAMINE D4>
5

$$$$
66613
  Marvin  02231216192D 0   1.00000     0.00000     0

 14 15  0  0  1  0  0  0  0  0999 V2000
   -3.5937   -0.7341    0.0000 O   0  0  0  0  0  0  0  0  0
   -2.8091   -0.9890    0.0000 C   0  0  0  0  0  0  0  0  0
   -2.0946   -0.5765    0.0000 C   0  0  0  0  0  0  0  0  0
   -1.3801   -0.9890    0.0000 C   0  0  0  0  0  0  0  0  0
   -1.3801   -1.8140    0.0000 C   0  0  0  0  0  0  0  0  0
   -2.0946   -2.2265    0.0000 C   0  0  0  0  0  0  0  0  0
   -2.8091   -1.8140    0.0000 C   0  0  0  0  0  0  0  0  0
   -3.5937   -2.0690    0.0000 O   0  0  0  0  0  0  0  0  0
   -4.0786   -1.4015    0.0000 C   0  0  0  0  0  0  0  0  0
   -0.6657   -0.5765    0.0000 C   0  0  0  0  0  0  0  0  0
   -0.6657    0.2485    0.0000 C   0  0  0  0  0  0  0  0  0
    0.0488    0.6610    0.0000 N   0  0  0  0  0  0  0  0  0
    0.0488    1.4860    0.0000 C   0  0  0  0  0  0  0  0  0
   -1.3801    0.6610    0.0000 C   0  0  0  0  0  0  0  0  0
  1  2  1  0  0  0  0
  1  9  1  0  0  0  0
  2  3  4  0  0  0  0
  2  7  4  0  0  0  0
  3  4  4  0  0  0  0
  4  5  4  0  0  0  0
  4 10  1  0  0  0  0
  5  6  4  0  0  0  0
  6  7  4  0  0  0  0
  7  8  1  0  0  0  0
  8  9  1  0  0  0  0
 10 11  1  0  0  0  0
 11 12  1  0  0  0  0
 11 14  1  0  0  0  0
 12 13  1  0  0  0  0
M  END
>  <Name_Molregno>
66613

>  <5-HT1A>
5

>  <5-HT1B>
5

>  <5-HT1D>
5

>  <5-HT1E>
5

>  <5-HT2A>
5

>  <5-HT3>
5

>  <5-HT5>
5

>  <5-HT6>
5

>  <5-HT7>
5

>  <Alpha-1A>
5

>  <Alpha-1B>
5

>  <Alpha-2A>
5.6

>  <Alpha-2B>
5.75

>  <Alpha-2C>
5.95

>  <Beta-1>
5

>  <Beta-2>
5

>  <DOPAMINE D1>
5

>  <DOPAMINE D2>
5

>  <DOPAMINE D3>
5

>  <DOPAMINE D4>
5

>  <DOPAMINE D5>
5

>  <Dopamine transporter>
5

>  <HISTAMINE H1>
5.67

>  <HISTAMINE H2>
5

>  <Muscarinic acetylcholine receptor M1>
5

>  <Muscarinic acetylcholine receptor M2>
5

>  <Muscarinic acetylcholine receptor M3>
5.73

>  <Muscarinic acetylcholine receptor M4>
5.08

>  <Muscarinic acetylcholine receptor M5>
5.2

>  <Norepinephrine transporter>
5

>  <Serotonin transporter>
7.24

$$$$
88815
  Marvin  02231216192D 0   1.00000     0.00000     0

 14 15  0  0  1  0  0  0  0  0999 V2000
   -3.2072   -0.1654    0.0000 S   0  0  0  0  0  0  0  0  0
   -2.4226   -0.4204    0.0000 C   0  0  0  0  0  0  0  0  0
   -1.7081   -0.0079    0.0000 C   0  0  0  0  0  0  0  0  0
   -0.9937   -0.4204    0.0000 C   0  0  0  0  0  0  0  0  0
   -0.2792   -0.0079    0.0000 N   0  0  0  0  0  0  0  0  0
    0.4353   -0.4204    0.0000 C   0  0  0  0  0  0  0  0  0
    1.1498   -0.0079    0.0000 C   0  0  0  0  0  0  0  0  0
    1.8642   -0.4204    0.0000 C   0  0  0  0  0  0  0  0  0
   -0.9937   -1.2454    0.0000 C   0  0  0  0  0  0  0  0  0
   -1.7081   -1.6579    0.0000 C   0  0  0  0  0  0  0  0  0
   -2.4226   -1.2454    0.0000 C   0  0  0  0  0  0  0  0  0
   -3.2072   -1.5003    0.0000 N   0  0  0  0  0  0  0  0  0
   -3.6921   -0.8329    0.0000 C   0  0  0  0  0  0  0  0  0
   -4.5171   -0.8329    0.0000 N   0  0  0  0  0  0  0  0  0
  1  2  4  0  0  0  0
  1 13  4  0  0  0  0
  2  3  1  0  0  0  0
  2 11  4  0  0  0  0
  3  4  1  0  0  0  0
  4  5  1  0  0  0  0
  4  9  1  0  0  0  0
  5  6  1  0  0  0  0
  6  7  1  0  0  0  0
  7  8  1  0  0  0  0
  9 10  1  0  0  0  0
 10 11  1  0  0  0  0
 11 12  4  0  0  0  0
 12 13  4  0  0  0  0
 13 14  1  0  0  0  0
M  END
>  <Name_Molregno>
88815

>  <5-HT1A>
5.67

>  <5-HT1B>
5.26

>  <5-HT1D>
5.39

>  <5-HT1E>
5

>  <5-HT2A>
5

>  <5-HT2C>
5

>  <5-HT3>
5

>  <5-HT5>
5

>  <5-HT6>
5

>  <5-HT7>
5.93

>  <Alpha-1A>
5

>  <Alpha-1B>
5

>  <Alpha-2A>
6.44

>  <Alpha-2B>
6.68

>  <Alpha-2C>
6.14

>  <Beta-1>
5

>  <Beta-2>
5

>  <DOPAMINE D1>
5

>  <DOPAMINE D2>
6.55

>  <DOPAMINE D3>
8.51

>  <DOPAMINE D4>
7.4

>  <DOPAMINE D5>
5

>  <Dopamine transporter>
5

>  <HISTAMINE H1>
5

>  <HISTAMINE H2>
5.57

>  <HISTAMINE H4>
5

>  <Muscarinic acetylcholine receptor M1>
5

>  <Muscarinic acetylcholine receptor M2>
5

>  <Muscarinic acetylcholine receptor M3>
5

>  <Muscarinic acetylcholine receptor M4>
5

>  <Muscarinic acetylcholine receptor M5>
5

>  <Norepinephrine transporter>
5

>  <Serotonin transporter>
5

$$$$
111257
  Marvin  02231216192D 0   1.00000     0.00000     0

 35 40  0  0  1  0  0  0  0  0999 V2000
   -3.8568   -0.4473    0.0000 O   0  0  0  0  0  0  0  0  0
   -4.4983   -0.9661    0.0000 C   0  0  0  0  0  0  0  0  0
   -4.4463   -1.7895    0.0000 N   0  0  0  0  0  0  0  0  0
   -5.2826   -2.1482    0.0000 C   0  0  0  0  0  0  0  0  0
   -5.7394   -1.4578    0.0000 C   0  0  0  0  0  0  0  0  0
   -6.5628   -1.5097    0.0000 C   0  0  0  0  0  0  0  0  0
   -7.0194   -0.8246    0.0000 C   0  0  0  0  0  0  0  0  0
   -6.6525   -0.0875    0.0000 C   0  0  0  0  0  0  0  0  0
   -5.8292   -0.0356    0.0000 C   0  0  0  0  0  0  0  0  0
   -5.3726   -0.7207    0.0000 C   0  0  0  0  0  0  0  0  0
   -4.8877   -0.0533    0.0000 C   0  0  0  0  0  0  0  0  0
   -4.0672   -0.1395    0.0000 C   0  0  0  0  0  0  0  0  0
   -3.5823    0.5279    0.0000 C   0  0  0  0  0  0  0  0  0
   -2.7618    0.4417    0.0000 C   0  0  0  0  0  0  0  0  0
   -2.2769    1.1091    0.0000 N   0  0  0  0  0  0  0  0  0
   -2.6125    1.8628    0.0000 C   0  0  0  0  0  0  0  0  0
   -2.1275    2.5303    0.0000 C   0  0  0  0  0  0  0  0  0
   -1.3071    2.4440    0.0000 C   0  0  0  0  0  0  0  0  0
   -0.9715    1.6904    0.0000 C   0  0  0  0  0  0  0  0  0
   -0.1510    1.7766    0.0000 N   0  0  0  0  0  0  0  0  0
    0.0205    2.5836    0.0000 C   0  0  0  0  0  0  0  0  0
   -0.6940    2.9961    0.0000 C   0  0  0  0  0  0  0  0  0
   -0.6940    3.8211    0.0000 C   0  0  0  0  0  0  0  0  0
    0.0205    4.2336    0.0000 C   0  0  0  0  0  0  0  0  0
    0.7350    3.8211    0.0000 C   0  0  0  0  0  0  0  0  0
    0.7350    2.9961    0.0000 C   0  0  0  0  0  0  0  0  0
    0.4010    1.1635    0.0000 C   0  0  0  0  0  0  0  0  0
    1.2080    1.3350    0.0000 C   0  0  0  0  0  0  0  0  0
    1.4629    2.1196    0.0000 O   0  0  0  0  0  0  0  0  0
    1.7600    0.7219    0.0000 N   0  0  0  0  0  0  0  0  0
    2.5670    0.8935    0.0000 C   0  0  0  0  0  0  0  0  0
   -1.4564    1.0229    0.0000 C   0  0  0  0  0  0  0  0  0
   -6.9293   -2.2521    0.0000 C   0  0  0  0  0  0  0  0  0
   -6.4727   -2.9372    0.0000 C   0  0  0  0  0  0  0  0  0
   -5.6494   -2.8853    0.0000 C   0  0  0  0  0  0  0  0  0
  1  2  2  0  0  0  0
  2  3  1  0  0  0  0
  2 10  1  0  0  0  0
  3  4  1  0  0  0  0
  4  5  4  0  0  0  0
  4 35  4  0  0  0  0
  5  6  4  0  0  0  0
  5 10  1  0  0  0  0
  6  7  1  0  0  0  0
  6 33  4  0  0  0  0
  7  8  1  0  0  0  0
  8  9  1  0  0  0  0
  9 10  1  0  0  0  0
 10 11  1  0  0  0  0
 11 12  1  0  0  0  0
 12 13  1  0  0  0  0
 13 14  1  0  0  0  0
 14 15  1  0  0  0  0
 15 16  1  0  0  0  0
 15 32  1  0  0  0  0
 16 17  1  0  0  0  0
 17 18  1  0  0  0  0
 18 19  4  0  0  0  0
 18 22  4  0  0  0  0
 19 20  4  0  0  0  0
 19 32  1  0  0  0  0
 20 21  4  0  0  0  0
 20 27  1  0  0  0  0
 21 22  4  0  0  0  0
 21 26  4  0  0  0  0
 22 23  4  0  0  0  0
 23 24  4  0  0  0  0
 24 25  4  0  0  0  0
 25 26  4  0  0  0  0
 27 28  1  0  0  0  0
 28 29  2  0  0  0  0
 28 30  1  0  0  0  0
 30 31  1  0  0  0  0
 33 34  4  0  0  0  0
 34 35  4  0  0  0  0
M  END
>  <Name_Molregno>
111257

>  <5-HT7>
8.42

$$$$
129300
  Marvin  02231216192D 0   1.00000     0.00000     0

 26 29  0  0  1  0  0  0  0  0999 V2000
    2.9544   -3.4601    0.0000 F   0  0  0  0  0  0  0  0  0
    3.6922   -3.0911    0.0000 C   0  0  0  0  0  0  0  0  0
    4.0612   -3.8290    0.0000 F   0  0  0  0  0  0  0  0  0
    3.3232   -2.3533    0.0000 F   0  0  0  0  0  0  0  0  0
    4.4301   -2.7221    0.0000 C   0  0  0  0  0  0  0  0  0
    4.4794   -1.8986    0.0000 C   0  0  0  0  0  0  0  0  0
    5.2173   -1.5295    0.0000 C   0  0  0  0  0  0  0  0  0
    5.4368   -0.7343    0.0000 N   0  0  0  0  0  0  0  0  0
    6.2609   -0.6972    0.0000 C   0  0  0  0  0  0  0  0  0
    6.5508   -1.4696    0.0000 C   0  0  0  0  0  0  0  0  0
    5.9058   -1.9840    0.0000 C   0  0  0  0  0  0  0  0  0
    5.8565   -2.8075    0.0000 C   0  0  0  0  0  0  0  0  0
    5.1186   -3.1766    0.0000 C   0  0  0  0  0  0  0  0  0
    4.9224   -0.0892    0.0000 C   0  0  0  0  0  0  0  0  0
    4.1066   -0.2122    0.0000 C   0  0  0  0  0  0  0  0  0
    3.5922    0.4328    0.0000 N   0  0  0  0  0  0  0  0  0
    2.7879    0.2492    0.0000 C   0  0  0  0  0  0  0  0  0
    2.1429    0.7636    0.0000 C   0  0  0  0  0  0  0  0  0
    2.1429    1.5886    0.0000 N   0  0  0  0  0  0  0  0  0
    1.4284    2.0011    0.0000 C   0  0  0  0  0  0  0  0  0
    0.7139    1.5886    0.0000 C   0  0  0  0  0  0  0  0  0
    0.7139    0.7636    0.0000 C   0  0  0  0  0  0  0  0  0
    1.4284    0.3511    0.0000 C   0  0  0  0  0  0  0  0  0
    2.7879    2.1030    0.0000 C   0  0  0  0  0  0  0  0  0
    3.5922    1.9194    0.0000 C   0  0  0  0  0  0  0  0  0
    3.9502    1.1761    0.0000 C   0  0  0  0  0  0  0  0  0
  1  2  1  0  0  0  0
  2  3  1  0  0  0  0
  2  4  1  0  0  0  0
  2  5  1  0  0  0  0
  5  6  4  0  0  0  0
  5 13  4  0  0  0  0
  6  7  4  0  0  0  0
  7  8  4  0  0  0  0
  7 11  4  0  0  0  0
  8  9  4  0  0  0  0
  8 14  1  0  0  0  0
  9 10  4  0  0  0  0
 10 11  4  0  0  0  0
 11 12  4  0  0  0  0
 12 13  4  0  0  0  0
 14 15  1  0  0  0  0
 15 16  1  0  0  0  0
 16 17  1  0  0  0  0
 16 26  1  0  0  0  0
 17 18  1  0  0  0  0
 18 19  1  0  0  0  0
 18 23  1  0  0  0  0
 19 20  1  0  0  0  0
 19 24  1  0  0  0  0
 20 21  1  0  0  0  0
 21 22  1  0  0  0  0
 22 23  1  0  0  0  0
 24 25  1  0  0  0  0
 25 26  1  0  0  0  0
M  END
>  <Name_Molregno>
129300

>  <5-HT7>
8.15

$$$$
129322
  Marvin  02231216192D 0   1.00000     0.00000     0

 23 26  0  0  1  0  0  0  0  0999 V2000
    3.4153   -3.6465    0.0000 Br  0  0  0  0  0  0  0  0  0
    4.1532   -3.2774    0.0000 C   0  0  0  0  0  0  0  0  0
    4.2025   -2.4539    0.0000 C   0  0  0  0  0  0  0  0  0
    4.9404   -2.0849    0.0000 C   0  0  0  0  0  0  0  0  0
    5.1599   -1.2896    0.0000 N   0  0  0  0  0  0  0  0  0
    5.9840   -1.2526    0.0000 C   0  0  0  0  0  0  0  0  0
    6.2739   -2.0250    0.0000 C   0  0  0  0  0  0  0  0  0
    5.6289   -2.5394    0.0000 C   0  0  0  0  0  0  0  0  0
    5.5796   -3.3629    0.0000 C   0  0  0  0  0  0  0  0  0
    4.8417   -3.7319    0.0000 C   0  0  0  0  0  0  0  0  0
    4.6455   -0.6446    0.0000 C   0  0  0  0  0  0  0  0  0
    3.8297   -0.7676    0.0000 C   0  0  0  0  0  0  0  0  0
    3.3153   -0.1225    0.0000 N   0  0  0  0  0  0  0  0  0
    2.5110   -0.3061    0.0000 C   0  0  0  0  0  0  0  0  0
    1.8660    0.2083    0.0000 C   0  0  0  0  0  0  0  0  0
    1.8660    1.0333    0.0000 N   0  0  0  0  0  0  0  0  0
    1.1515    1.4458    0.0000 C   0  0  0  0  0  0  0  0  0
    0.4371    1.0333    0.0000 C   0  0  0  0  0  0  0  0  0
    0.4371    0.2083    0.0000 C   0  0  0  0  0  0  0  0  0
    1.1515   -0.2042    0.0000 C   0  0  0  0  0  0  0  0  0
    2.5110    1.5476    0.0000 C   0  0  0  0  0  0  0  0  0
    3.3153    1.3641    0.0000 C   0  0  0  0  0  0  0  0  0
    3.6733    0.6208    0.0000 C   0  0  0  0  0  0  0  0  0
  1  2  1  0  0  0  0
  2  3  4  0  0  0  0
  2 10  4  0  0  0  0
  3  4  4  0  0  0  0
  4  5  4  0  0  0  0
  4  8  4  0  0  0  0
  5  6  4  0  0  0  0
  5 11  1  0  0  0  0
  6  7  4  0  0  0  0
  7  8  4  0  0  0  0
  8  9  4  0  0  0  0
  9 10  4  0  0  0  0
 11 12  1  0  0  0  0
 12 13  1  0  0  0  0
 13 14  1  0  0  0  0
 13 23  1  0  0  0  0
 14 15  1  0  0  0  0
 15 16  1  0  0  0  0
 15 20  1  0  0  0  0
 16 17  1  0  0  0  0
 16 21  1  0  0  0  0
 17 18  1  0  0  0  0
 18 19  1  0  0  0  0
 19 20  1  0  0  0  0
 21 22  1  0  0  0  0
 22 23  1  0  0  0  0
M  END
>  <Name_Molregno>
129322

>  <5-HT7>
8.52

$$$$
129864
  Marvin  02231216192D 0   1.00000     0.00000     0

 23 26  0  0  1  0  0  0  0  0999 V2000
    3.4153   -3.6465    0.0000 Cl  0  0  0  0  0  0  0  0  0
    4.1532   -3.2774    0.0000 C   0  0  0  0  0  0  0  0  0
    4.2025   -2.4539    0.0000 C   0  0  0  0  0  0  0  0  0
    4.9404   -2.0849    0.0000 C   0  0  0  0  0  0  0  0  0
    5.1599   -1.2896    0.0000 N   0  0  0  0  0  0  0  0  0
    5.9840   -1.2526    0.0000 C   0  0  0  0  0  0  0  0  0
    6.2739   -2.0250    0.0000 C   0  0  0  0  0  0  0  0  0
    5.6289   -2.5394    0.0000 C   0  0  0  0  0  0  0  0  0
    5.5796   -3.3629    0.0000 C   0  0  0  0  0  0  0  0  0
    4.8417   -3.7319    0.0000 C   0  0  0  0  0  0  0  0  0
    4.6455   -0.6446    0.0000 C   0  0  0  0  0  0  0  0  0
    3.8297   -0.7676    0.0000 C   0  0  0  0  0  0  0  0  0
    3.3153   -0.1225    0.0000 N   0  0  0  0  0  0  0  0  0
    2.5110   -0.3061    0.0000 C   0  0  0  0  0  0  0  0  0
    1.8660    0.2083    0.0000 C   0  0  0  0  0  0  0  0  0
    1.8660    1.0333    0.0000 N   0  0  0  0  0  0  0  0  0
    1.1515    1.4458    0.0000 C   0  0  0  0  0  0  0  0  0
    0.4371    1.0333    0.0000 C   0  0  0  0  0  0  0  0  0
    0.4371    0.2083    0.0000 C   0  0  0  0  0  0  0  0  0
    1.1515   -0.2042    0.0000 C   0  0  0  0  0  0  0  0  0
    2.5110    1.5476    0.0000 C   0  0  0  0  0  0  0  0  0
    3.3153    1.3641    0.0000 C   0  0  0  0  0  0  0  0  0
    3.6733    0.6208    0.0000 C   0  0  0  0  0  0  0  0  0
  1  2  1  0  0  0  0
  2  3  4  0  0  0  0
  2 10  4  0  0  0  0
  3  4  4  0  0  0  0
  4  5  4  0  0  0  0
  4  8  4  0  0  0  0
  5  6  4  0  0  0  0
  5 11  1  0  0  0  0
  6  7  4  0  0  0  0
  7  8  4  0  0  0  0
  8  9  4  0  0  0  0
  9 10  4  0  0  0  0
 11 12  1  0  0  0  0
 12 13  1  0  0  0  0
 13 14  1  0  0  0  0
 13 23  1  0  0  0  0
 14 15  1  0  0  0  0
 15 16  1  0  0  0  0
 15 20  1  0  0  0  0
 16 17  1  0  0  0  0
 16 21  1  0  0  0  0
 17 18  1  0  0  0  0
 18 19  1  0  0  0  0
 19 20  1  0  0  0  0
 21 22  1  0  0  0  0
 22 23  1  0  0  0  0
M  END
>  <Name_Molregno>
129864

>  <5-HT7>
8

$$$$
136493
  Marvin  02231216192D 0   1.00000     0.00000     0

 28 32  0  0  1  0  0  0  0  0999 V2000
   -7.4714    2.5795    0.0000 S   0  0  0  0  0  0  0  0  0
   -6.7404    2.1971    0.0000 C   0  0  0  0  0  0  0  0  0
   -5.9671    2.4846    0.0000 C   0  0  0  0  0  0  0  0  0
   -5.3315    1.9586    0.0000 C   0  0  0  0  0  0  0  0  0
   -5.4692    1.1451    0.0000 N   0  0  0  0  0  0  0  0  0
   -6.2425    0.8577    0.0000 C   0  0  0  0  0  0  0  0  0
   -6.8781    1.3837    0.0000 C   0  0  0  0  0  0  0  0  0
   -7.6943    1.2633    0.0000 C   0  0  0  0  0  0  0  0  0
   -8.0610    2.0024    0.0000 C   0  0  0  0  0  0  0  0  0
   -4.8337    0.6192    0.0000 C   0  0  0  0  0  0  0  0  0
   -4.9714   -0.1943    0.0000 C   0  0  0  0  0  0  0  0  0
   -4.3358   -0.7203    0.0000 C   0  0  0  0  0  0  0  0  0
   -4.4736   -1.5337    0.0000 C   0  0  0  0  0  0  0  0  0
   -3.8380   -2.0597    0.0000 C   0  0  0  0  0  0  0  0  0
   -4.5505   -2.4722    0.0000 C   0  0  0  0  0  0  0  0  0
   -4.5505   -3.2972    0.0000 C   0  0  0  0  0  0  0  0  0
   -3.8380   -3.7097    0.0000 C   0  0  0  0  0  0  0  0  0
   -3.1255   -3.2972    0.0000 C   0  0  0  0  0  0  0  0  0
   -3.1255   -2.4722    0.0000 C   0  0  0  0  0  0  0  0  0
   -2.4076   -2.0597    0.0000 C   0  0  0  0  0  0  0  0  0
   -2.7130   -1.2025    0.0000 N   0  0  0  0  0  0  0  0  0
   -2.2375   -0.5284    0.0000 C   0  0  0  0  0  0  0  0  0
   -1.4159   -0.6031    0.0000 C   0  0  0  0  0  0  0  0  0
   -3.5380   -1.2025    0.0000 C   0  0  0  0  0  0  0  0  0
   -4.0154   -0.5297    0.0000 O   0  0  0  0  0  0  0  0  0
   -1.6951   -2.4722    0.0000 C   0  0  0  0  0  0  0  0  0
   -1.6951   -3.2972    0.0000 C   0  0  0  0  0  0  0  0  0
   -2.4076   -3.7097    0.0000 C   0  0  0  0  0  0  0  0  0
  1  2  4  0  0  0  0
  1  9  4  0  0  0  0
  2  3  1  0  0  0  0
  2  7  4  0  0  0  0
  3  4  1  0  0  0  0
  4  5  1  0  0  0  0
  5  6  1  0  0  0  0
  5 10  1  0  0  0  0
  6  7  1  0  0  0  0
  7  8  4  0  0  0  0
  8  9  4  0  0  0  0
 10 11  1  0  0  0  0
 11 12  1  0  0  0  0
 12 13  1  0  0  0  0
 13 14  1  0  0  0  0
 14 15  1  0  0  0  0
 14 19  1  0  0  0  0
 14 24  1  0  0  0  0
 15 16  1  0  0  0  0
 16 17  1  0  0  0  0
 17 18  1  0  0  0  0
 18 19  4  0  0  0  0
 18 28  4  0  0  0  0
 19 20  4  0  0  0  0
 20 21  1  0  0  0  0
 20 26  4  0  0  0  0
 21 22  1  0  0  0  0
 21 24  1  0  0  0  0
 22 23  1  0  0  0  0
 24 25  2  0  0  0  0
 26 27  4  0  0  0  0
 27 28  4  0  0  0  0
M  END
>  <Name_Molregno>
136493

>  <5-HT7>
6.76

$$$$
136494
  Marvin  02231216192D 0   1.00000     0.00000     0

 26 30  0  0  1  0  0  0  0  0999 V2000
   -0.2021   -1.5002    0.0000 O   0  0  0  0  0  0  0  0  0
    0.2753   -2.1731    0.0000 C   0  0  0  0  0  0  0  0  0
    1.1003   -2.1731    0.0000 N   0  0  0  0  0  0  0  0  0
    1.4057   -3.0302    0.0000 C   0  0  0  0  0  0  0  0  0
    0.6878   -3.4427    0.0000 C   0  0  0  0  0  0  0  0  0
    0.6878   -4.2677    0.0000 C   0  0  0  0  0  0  0  0  0
   -0.0247   -4.6802    0.0000 C   0  0  0  0  0  0  0  0  0
   -0.7372   -4.2677    0.0000 C   0  0  0  0  0  0  0  0  0
   -0.7372   -3.4427    0.0000 C   0  0  0  0  0  0  0  0  0
   -0.0247   -3.0302    0.0000 C   0  0  0  0  0  0  0  0  0
   -0.6603   -2.5042    0.0000 C   0  0  0  0  0  0  0  0  0
   -0.5225   -1.6908    0.0000 C   0  0  0  0  0  0  0  0  0
   -1.1581   -1.1648    0.0000 C   0  0  0  0  0  0  0  0  0
   -1.0204   -0.3514    0.0000 C   0  0  0  0  0  0  0  0  0
   -1.6560    0.1746    0.0000 N   0  0  0  0  0  0  0  0  0
   -2.4293   -0.1128    0.0000 C   0  0  0  0  0  0  0  0  0
   -3.0648    0.4131    0.0000 C   0  0  0  0  0  0  0  0  0
   -2.9271    1.2266    0.0000 C   0  0  0  0  0  0  0  0  0
   -3.4394    1.8732    0.0000 N   0  0  0  0  0  0  0  0  0
   -2.9828    2.5603    0.0000 N   0  0  0  0  0  0  0  0  0
   -2.1882    2.3383    0.0000 C   0  0  0  0  0  0  0  0  0
   -2.1538    1.5140    0.0000 C   0  0  0  0  0  0  0  0  0
   -1.5182    0.9880    0.0000 C   0  0  0  0  0  0  0  0  0
    1.4057   -4.6802    0.0000 C   0  0  0  0  0  0  0  0  0
    2.1182   -4.2677    0.0000 C   0  0  0  0  0  0  0  0  0
    2.1182   -3.4427    0.0000 C   0  0  0  0  0  0  0  0  0
  1  2  2  0  0  0  0
  2  3  1  0  0  0  0
  2 10  1  0  0  0  0
  3  4  1  0  0  0  0
  4  5  4  0  0  0  0
  4 26  4  0  0  0  0
  5  6  4  0  0  0  0
  5 10  1  0  0  0  0
  6  7  1  0  0  0  0
  6 24  4  0  0  0  0
  7  8  1  0  0  0  0
  8  9  1  0  0  0  0
  9 10  1  0  0  0  0
 10 11  1  0  0  0  0
 11 12  1  0  0  0  0
 12 13  1  0  0  0  0
 13 14  1  0  0  0  0
 14 15  1  0  0  0  0
 15 16  1  0  0  0  0
 15 23  1  0  0  0  0
 16 17  1  0  0  0  0
 17 18  1  0  0  0  0
 18 19  4  0  0  0  0
 18 22  4  0  0  0  0
 19 20  4  0  0  0  0
 20 21  4  0  0  0  0
 21 22  4  0  0  0  0
 22 23  1  0  0  0  0
 24 25  4  0  0  0  0
 25 26  4  0  0  0  0
M  STY  1   1 DAT
M  SAL   1  1  20
M  SDT   1 MRV_IMPLICIT_H                                        
M  SDD   1     0.0000    0.0000    DR    ALL  0       0  
M  SED   1 IMPL_H1
M  END
>  <Name_Molregno>
136494

>  <5-HT7>
6.09

$$$$
136495
  Marvin  02231216192D 0   1.00000     0.00000     0

 26 30  0  0  1  0  0  0  0  0999 V2000
   -8.1410    1.5498    0.0000 O   0  0  0  0  0  0  0  0  0
   -7.4099    1.1674    0.0000 C   0  0  0  0  0  0  0  0  0
   -6.6366    1.4548    0.0000 C   0  0  0  0  0  0  0  0  0
   -6.0011    0.9289    0.0000 C   0  0  0  0  0  0  0  0  0
   -6.1388    0.1154    0.0000 N   0  0  0  0  0  0  0  0  0
   -6.9121   -0.1720    0.0000 C   0  0  0  0  0  0  0  0  0
   -7.5477    0.3540    0.0000 C   0  0  0  0  0  0  0  0  0
   -8.3639    0.2336    0.0000 C   0  0  0  0  0  0  0  0  0
   -8.7305    0.9727    0.0000 C   0  0  0  0  0  0  0  0  0
   -5.5032   -0.4106    0.0000 C   0  0  0  0  0  0  0  0  0
   -4.7299   -0.1231    0.0000 C   0  0  0  0  0  0  0  0  0
   -4.0943   -0.6491    0.0000 C   0  0  0  0  0  0  0  0  0
   -3.3210   -0.3617    0.0000 C   0  0  0  0  0  0  0  0  0
   -2.6855   -0.8877    0.0000 C   0  0  0  0  0  0  0  0  0
   -3.3980   -1.3002    0.0000 C   0  0  0  0  0  0  0  0  0
   -3.3980   -2.1252    0.0000 C   0  0  0  0  0  0  0  0  0
   -2.6855   -2.5377    0.0000 C   0  0  0  0  0  0  0  0  0
   -1.9730   -2.1252    0.0000 C   0  0  0  0  0  0  0  0  0
   -1.9730   -1.3002    0.0000 C   0  0  0  0  0  0  0  0  0
   -1.2551   -0.8877    0.0000 C   0  0  0  0  0  0  0  0  0
   -1.5605   -0.0306    0.0000 N   0  0  0  0  0  0  0  0  0
   -2.3855   -0.0306    0.0000 C   0  0  0  0  0  0  0  0  0
   -2.8628    0.6423    0.0000 O   0  0  0  0  0  0  0  0  0
   -0.5426   -1.3002    0.0000 C   0  0  0  0  0  0  0  0  0
   -0.5426   -2.1252    0.0000 C   0  0  0  0  0  0  0  0  0
   -1.2551   -2.5377    0.0000 C   0  0  0  0  0  0  0  0  0
  1  2  4  0  0  0  0
  1  9  4  0  0  0  0
  2  3  1  0  0  0  0
  2  7  4  0  0  0  0
  3  4  1  0  0  0  0
  4  5  1  0  0  0  0
  5  6  1  0  0  0  0
  5 10  1  0  0  0  0
  6  7  1  0  0  0  0
  7  8  4  0  0  0  0
  8  9  4  0  0  0  0
 10 11  1  0  0  0  0
 11 12  1  0  0  0  0
 12 13  1  0  0  0  0
 13 14  1  0  0  0  0
 14 15  1  0  0  0  0
 14 19  1  0  0  0  0
 14 22  1  0  0  0  0
 15 16  1  0  0  0  0
 16 17  1  0  0  0  0
 17 18  1  0  0  0  0
 18 19  4  0  0  0  0
 18 26  4  0  0  0  0
 19 20  4  0  0  0  0
 20 21  1  0  0  0  0
 20 24  4  0  0  0  0
 21 22  1  0  0  0  0
 22 23  2  0  0  0  0
 24 25  4  0  0  0  0
 25 26  4  0  0  0  0
M  END
>  <Name_Molregno>
136495

>  <5-HT7>
7.8

$$$$
136496
  Marvin  02231216192D 0   1.00000     0.00000     0

 28 32  0  0  1  0  0  0  0  0999 V2000
    2.2904   -1.6420    0.0000 O   0  0  0  0  0  0  0  0  0
    2.7678   -2.3149    0.0000 C   0  0  0  0  0  0  0  0  0
    3.5928   -2.3149    0.0000 N   0  0  0  0  0  0  0  0  0
    3.8981   -3.1720    0.0000 C   0  0  0  0  0  0  0  0  0
    3.1803   -3.5845    0.0000 C   0  0  0  0  0  0  0  0  0
    3.1803   -4.4095    0.0000 C   0  0  0  0  0  0  0  0  0
    2.4678   -4.8220    0.0000 C   0  0  0  0  0  0  0  0  0
    1.7553   -4.4095    0.0000 C   0  0  0  0  0  0  0  0  0
    1.7553   -3.5845    0.0000 C   0  0  0  0  0  0  0  0  0
    2.4678   -3.1720    0.0000 C   0  0  0  0  0  0  0  0  0
    1.8322   -2.6460    0.0000 C   0  0  0  0  0  0  0  0  0
    1.9699   -1.8326    0.0000 C   0  0  0  0  0  0  0  0  0
    1.3344   -1.3066    0.0000 C   0  0  0  0  0  0  0  0  0
    1.4721   -0.4932    0.0000 C   0  0  0  0  0  0  0  0  0
    0.8365    0.0328    0.0000 C   0  0  0  0  0  0  0  0  0
    0.9743    0.8462    0.0000 N   0  0  0  0  0  0  0  0  0
    1.7476    1.1337    0.0000 C   0  0  0  0  0  0  0  0  0
    1.8853    1.9471    0.0000 C   0  0  0  0  0  0  0  0  0
    1.2497    2.4731    0.0000 C   0  0  0  0  0  0  0  0  0
    0.4764    2.1857    0.0000 C   0  0  0  0  0  0  0  0  0
    0.3387    1.3722    0.0000 C   0  0  0  0  0  0  0  0  0
   -0.1592    2.7116    0.0000 C   0  0  0  0  0  0  0  0  0
   -0.0214    3.5251    0.0000 C   0  0  0  0  0  0  0  0  0
    0.7519    3.8125    0.0000 C   0  0  0  0  0  0  0  0  0
    1.3875    3.2865    0.0000 C   0  0  0  0  0  0  0  0  0
    3.8981   -4.8220    0.0000 C   0  0  0  0  0  0  0  0  0
    4.6106   -4.4095    0.0000 C   0  0  0  0  0  0  0  0  0
    4.6106   -3.5845    0.0000 C   0  0  0  0  0  0  0  0  0
  1  2  2  0  0  0  0
  2  3  1  0  0  0  0
  2 10  1  0  0  0  0
  3  4  1  0  0  0  0
  4  5  4  0  0  0  0
  4 28  4  0  0  0  0
  5  6  4  0  0  0  0
  5 10  1  0  0  0  0
  6  7  1  0  0  0  0
  6 26  4  0  0  0  0
  7  8  1  0  0  0  0
  8  9  1  0  0  0  0
  9 10  1  0  0  0  0
 10 11  1  0  0  0  0
 11 12  1  0  0  0  0
 12 13  1  0  0  0  0
 13 14  1  0  0  0  0
 14 15  1  0  0  0  0
 15 16  1  0  0  0  0
 16 17  1  0  0  0  0
 16 21  1  0  0  0  0
 17 18  1  0  0  0  0
 18 19  1  0  0  0  0
 19 20  4  0  0  0  0
 19 25  4  0  0  0  0
 20 21  1  0  0  0  0
 20 22  4  0  0  0  0
 22 23  4  0  0  0  0
 23 24  4  0  0  0  0
 24 25  4  0  0  0  0
 26 27  4  0  0  0  0
 27 28  4  0  0  0  0
M  END
>  <Name_Molregno>
136496

>  <5-HT7>
7.9

$$$$
136952
  Marvin  02231216192D 0   1.00000     0.00000     0

 26 30  0  0  1  0  0  0  0  0999 V2000
    1.1333   -1.5835    0.0000 O   0  0  0  0  0  0  0  0  0
    1.6107   -2.2564    0.0000 C   0  0  0  0  0  0  0  0  0
    2.4357   -2.2564    0.0000 N   0  0  0  0  0  0  0  0  0
    2.7410   -3.1135    0.0000 C   0  0  0  0  0  0  0  0  0
    2.0232   -3.5260    0.0000 C   0  0  0  0  0  0  0  0  0
    2.0232   -4.3510    0.0000 C   0  0  0  0  0  0  0  0  0
    1.3107   -4.7635    0.0000 C   0  0  0  0  0  0  0  0  0
    0.5982   -4.3510    0.0000 C   0  0  0  0  0  0  0  0  0
    0.5982   -3.5260    0.0000 C   0  0  0  0  0  0  0  0  0
    1.3107   -3.1135    0.0000 C   0  0  0  0  0  0  0  0  0
    0.6751   -2.5875    0.0000 C   0  0  0  0  0  0  0  0  0
    0.8128   -1.7741    0.0000 C   0  0  0  0  0  0  0  0  0
    0.1773   -1.2481    0.0000 C   0  0  0  0  0  0  0  0  0
    0.3150   -0.4347    0.0000 N   0  0  0  0  0  0  0  0  0
    1.0883   -0.1473    0.0000 C   0  0  0  0  0  0  0  0  0
    1.2261    0.6662    0.0000 C   0  0  0  0  0  0  0  0  0
    0.5905    1.1922    0.0000 C   0  0  0  0  0  0  0  0  0
   -0.1828    0.9047    0.0000 C   0  0  0  0  0  0  0  0  0
   -0.3206    0.0913    0.0000 C   0  0  0  0  0  0  0  0  0
   -0.8184    1.4307    0.0000 C   0  0  0  0  0  0  0  0  0
   -0.6807    2.2441    0.0000 C   0  0  0  0  0  0  0  0  0
    0.0926    2.5316    0.0000 C   0  0  0  0  0  0  0  0  0
    0.7282    2.0056    0.0000 C   0  0  0  0  0  0  0  0  0
    2.7410   -4.7635    0.0000 C   0  0  0  0  0  0  0  0  0
    3.4535   -4.3510    0.0000 C   0  0  0  0  0  0  0  0  0
    3.4535   -3.5260    0.0000 C   0  0  0  0  0  0  0  0  0
  1  2  2  0  0  0  0
  2  3  1  0  0  0  0
  2 10  1  0  0  0  0
  3  4  1  0  0  0  0
  4  5  4  0  0  0  0
  4 26  4  0  0  0  0
  5  6  4  0  0  0  0
  5 10  1  0  0  0  0
  6  7  1  0  0  0  0
  6 24  4  0  0  0  0
  7  8  1  0  0  0  0
  8  9  1  0  0  0  0
  9 10  1  0  0  0  0
 10 11  1  0  0  0  0
 11 12  1  0  0  0  0
 12 13  1  0  0  0  0
 13 14  1  0  0  0  0
 14 15  1  0  0  0  0
 14 19  1  0  0  0  0
 15 16  1  0  0  0  0
 16 17  1  0  0  0  0
 17 18  4  0  0  0  0
 17 23  4  0  0  0  0
 18 19  1  0  0  0  0
 18 20  4  0  0  0  0
 20 21  4  0  0  0  0
 21 22  4  0  0  0  0
 22 23  4  0  0  0  0
 24 25  4  0  0  0  0
 25 26  4  0  0  0  0
M  END
>  <Name_Molregno>
136952

>  <5-HT7>
8.08

$$$$
136953
  Marvin  02231216192D 0   1.00000     0.00000     0

 26 30  0  0  1  0  0  0  0  0999 V2000
   -8.1410    1.5498    0.0000 S   0  0  0  0  0  0  0  0  0
   -7.4099    1.1674    0.0000 C   0  0  0  0  0  0  0  0  0
   -6.6366    1.4548    0.0000 C   0  0  0  0  0  0  0  0  0
   -6.0011    0.9289    0.0000 C   0  0  0  0  0  0  0  0  0
   -6.1388    0.1154    0.0000 N   0  0  0  0  0  0  0  0  0
   -6.9121   -0.1720    0.0000 C   0  0  0  0  0  0  0  0  0
   -7.5477    0.3540    0.0000 C   0  0  0  0  0  0  0  0  0
   -8.3639    0.2336    0.0000 C   0  0  0  0  0  0  0  0  0
   -8.7305    0.9727    0.0000 C   0  0  0  0  0  0  0  0  0
   -5.5032   -0.4106    0.0000 C   0  0  0  0  0  0  0  0  0
   -4.7299   -0.1231    0.0000 C   0  0  0  0  0  0  0  0  0
   -4.0943   -0.6491    0.0000 C   0  0  0  0  0  0  0  0  0
   -3.3210   -0.3617    0.0000 C   0  0  0  0  0  0  0  0  0
   -2.6855   -0.8877    0.0000 C   0  0  0  0  0  0  0  0  0
   -3.3980   -1.3002    0.0000 C   0  0  0  0  0  0  0  0  0
   -3.3980   -2.1252    0.0000 C   0  0  0  0  0  0  0  0  0
   -2.6855   -2.5377    0.0000 C   0  0  0  0  0  0  0  0  0
   -1.9730   -2.1252    0.0000 C   0  0  0  0  0  0  0  0  0
   -1.9730   -1.3002    0.0000 C   0  0  0  0  0  0  0  0  0
   -1.2551   -0.8877    0.0000 C   0  0  0  0  0  0  0  0  0
   -1.5605   -0.0306    0.0000 N   0  0  0  0  0  0  0  0  0
   -2.3855   -0.0306    0.0000 C   0  0  0  0  0  0  0  0  0
   -2.8628    0.6423    0.0000 O   0  0  0  0  0  0  0  0  0
   -0.5426   -1.3002    0.0000 C   0  0  0  0  0  0  0  0  0
   -0.5426   -2.1252    0.0000 C   0  0  0  0  0  0  0  0  0
   -1.2551   -2.5377    0.0000 C   0  0  0  0  0  0  0  0  0
  1  2  4  0  0  0  0
  1  9  4  0  0  0  0
  2  3  1  0  0  0  0
  2  7  4  0  0  0  0
  3  4  1  0  0  0  0
  4  5  1  0  0  0  0
  5  6  1  0  0  0  0
  5 10  1  0  0  0  0
  6  7  1  0  0  0  0
  7  8  4  0  0  0  0
  8  9  4  0  0  0  0
 10 11  1  0  0  0  0
 11 12  1  0  0  0  0
 12 13  1  0  0  0  0
 13 14  1  0  0  0  0
 14 15  1  0  0  0  0
 14 19  1  0  0  0  0
 14 22  1  0  0  0  0
 15 16  1  0  0  0  0
 16 17  1  0  0  0  0
 17 18  1  0  0  0  0
 18 19  4  0  0  0  0
 18 26  4  0  0  0  0
 19 20  4  0  0  0  0
 20 21  1  0  0  0  0
 20 24  4  0  0  0  0
 21 22  1  0  0  0  0
 22 23  2  0  0  0  0
 24 25  4  0  0  0  0
 25 26  4  0  0  0  0
M  END
>  <Name_Molregno>
136953

>  <5-HT7>
8.19

$$$$
136955
  Marvin  02231216192D 0   1.00000     0.00000     0

 26 30  0  0  1  0  0  0  0  0999 V2000
   -0.2021   -1.5002    0.0000 O   0  0  0  0  0  0  0  0  0
    0.2753   -2.1731    0.0000 C   0  0  0  0  0  0  0  0  0
    1.1003   -2.1731    0.0000 N   0  0  0  0  0  0  0  0  0
    1.4057   -3.0302    0.0000 C   0  0  0  0  0  0  0  0  0
    0.6878   -3.4427    0.0000 C   0  0  0  0  0  0  0  0  0
    0.6878   -4.2677    0.0000 C   0  0  0  0  0  0  0  0  0
   -0.0247   -4.6802    0.0000 C   0  0  0  0  0  0  0  0  0
   -0.7372   -4.2677    0.0000 C   0  0  0  0  0  0  0  0  0
   -0.7372   -3.4427    0.0000 C   0  0  0  0  0  0  0  0  0
   -0.0247   -3.0302    0.0000 C   0  0  0  0  0  0  0  0  0
   -0.6603   -2.5042    0.0000 C   0  0  0  0  0  0  0  0  0
   -0.5225   -1.6908    0.0000 C   0  0  0  0  0  0  0  0  0
   -1.1581   -1.1648    0.0000 C   0  0  0  0  0  0  0  0  0
   -1.0204   -0.3514    0.0000 C   0  0  0  0  0  0  0  0  0
   -1.6560    0.1746    0.0000 N   0  0  0  0  0  0  0  0  0
   -2.4293   -0.1128    0.0000 C   0  0  0  0  0  0  0  0  0
   -3.0648    0.4131    0.0000 C   0  0  0  0  0  0  0  0  0
   -2.9271    1.2266    0.0000 C   0  0  0  0  0  0  0  0  0
   -3.4394    1.8732    0.0000 N   0  0  0  0  0  0  0  0  0
   -2.9828    2.5603    0.0000 C   0  0  0  0  0  0  0  0  0
   -2.1882    2.3383    0.0000 N   0  0  0  0  0  0  0  0  0
   -2.1538    1.5140    0.0000 C   0  0  0  0  0  0  0  0  0
   -1.5182    0.9880    0.0000 C   0  0  0  0  0  0  0  0  0
    1.4057   -4.6802    0.0000 C   0  0  0  0  0  0  0  0  0
    2.1182   -4.2677    0.0000 C   0  0  0  0  0  0  0  0  0
    2.1182   -3.4427    0.0000 C   0  0  0  0  0  0  0  0  0
  1  2  2  0  0  0  0
  2  3  1  0  0  0  0
  2 10  1  0  0  0  0
  3  4  1  0  0  0  0
  4  5  4  0  0  0  0
  4 26  4  0  0  0  0
  5  6  4  0  0  0  0
  5 10  1  0  0  0  0
  6  7  1  0  0  0  0
  6 24  4  0  0  0  0
  7  8  1  0  0  0  0
  8  9  1  0  0  0  0
  9 10  1  0  0  0  0
 10 11  1  0  0  0  0
 11 12  1  0  0  0  0
 12 13  1  0  0  0  0
 13 14  1  0  0  0  0
 14 15  1  0  0  0  0
 15 16  1  0  0  0  0
 15 23  1  0  0  0  0
 16 17  1  0  0  0  0
 17 18  1  0  0  0  0
 18 19  4  0  0  0  0
 18 22  4  0  0  0  0
 19 20  4  0  0  0  0
 20 21  4  0  0  0  0
 21 22  4  0  0  0  0
 22 23  1  0  0  0  0
 24 25  4  0  0  0  0
 25 26  4  0  0  0  0
M  STY  1   1 DAT
M  SAL   1  1  19
M  SDT   1 MRV_IMPLICIT_H                                        
M  SDD   1     0.0000    0.0000    DR    ALL  0       0  
M  SED   1 IMPL_H1
M  END
>  <Name_Molregno>
136955

>  <5-HT7>
6.25

$$$$
136984
  Marvin  02231216192D 0   1.00000     0.00000     0

 27 31  0  0  1  0  0  0  0  0999 V2000
   -8.2999    1.1487    0.0000 S   0  0  0  0  0  0  0  0  0
   -7.5688    0.7663    0.0000 C   0  0  0  0  0  0  0  0  0
   -6.7955    1.0537    0.0000 C   0  0  0  0  0  0  0  0  0
   -6.1599    0.5277    0.0000 C   0  0  0  0  0  0  0  0  0
   -6.2977   -0.2857    0.0000 N   0  0  0  0  0  0  0  0  0
   -7.0710   -0.5731    0.0000 C   0  0  0  0  0  0  0  0  0
   -7.7066   -0.0471    0.0000 C   0  0  0  0  0  0  0  0  0
   -8.5227   -0.1675    0.0000 C   0  0  0  0  0  0  0  0  0
   -8.8894    0.5715    0.0000 C   0  0  0  0  0  0  0  0  0
   -5.6621   -0.8117    0.0000 C   0  0  0  0  0  0  0  0  0
   -4.8888   -0.5243    0.0000 C   0  0  0  0  0  0  0  0  0
   -4.2532   -1.0503    0.0000 C   0  0  0  0  0  0  0  0  0
   -3.4799   -0.7628    0.0000 C   0  0  0  0  0  0  0  0  0
   -2.8443   -1.2888    0.0000 C   0  0  0  0  0  0  0  0  0
   -3.5568   -1.7013    0.0000 C   0  0  0  0  0  0  0  0  0
   -3.5568   -2.5263    0.0000 C   0  0  0  0  0  0  0  0  0
   -2.8443   -2.9388    0.0000 C   0  0  0  0  0  0  0  0  0
   -2.1318   -2.5263    0.0000 C   0  0  0  0  0  0  0  0  0
   -2.1318   -1.7013    0.0000 C   0  0  0  0  0  0  0  0  0
   -1.4140   -1.2888    0.0000 C   0  0  0  0  0  0  0  0  0
   -1.7193   -0.4317    0.0000 N   0  0  0  0  0  0  0  0  0
   -1.2438    0.2425    0.0000 C   0  0  0  0  0  0  0  0  0
   -2.5443   -0.4317    0.0000 C   0  0  0  0  0  0  0  0  0
   -3.0217    0.2412    0.0000 O   0  0  0  0  0  0  0  0  0
   -0.7015   -1.7013    0.0000 C   0  0  0  0  0  0  0  0  0
   -0.7015   -2.5263    0.0000 C   0  0  0  0  0  0  0  0  0
   -1.4140   -2.9388    0.0000 C   0  0  0  0  0  0  0  0  0
  1  2  4  0  0  0  0
  1  9  4  0  0  0  0
  2  3  1  0  0  0  0
  2  7  4  0  0  0  0
  3  4  1  0  0  0  0
  4  5  1  0  0  0  0
  5  6  1  0  0  0  0
  5 10  1  0  0  0  0
  6  7  1  0  0  0  0
  7  8  4  0  0  0  0
  8  9  4  0  0  0  0
 10 11  1  0  0  0  0
 11 12  1  0  0  0  0
 12 13  1  0  0  0  0
 13 14  1  0  0  0  0
 14 15  1  0  0  0  0
 14 19  1  0  0  0  0
 14 23  1  0  0  0  0
 15 16  1  0  0  0  0
 16 17  1  0  0  0  0
 17 18  1  0  0  0  0
 18 19  4  0  0  0  0
 18 27  4  0  0  0  0
 19 20  4  0  0  0  0
 20 21  1  0  0  0  0
 20 25  4  0  0  0  0
 21 22  1  0  0  0  0
 21 23  1  0  0  0  0
 23 24  2  0  0  0  0
 25 26  4  0  0  0  0
 26 27  4  0  0  0  0
M  END
>  <Name_Molregno>
136984

>  <5-HT7>
8.01

$$$$
137213
  Marvin  02231216192D 0   1.00000     0.00000     0

 27 31  0  0  1  0  0  0  0  0999 V2000
   -0.4743    1.3272    0.0000 O   0  0  0  0  0  0  0  0  0
    0.0031    0.6543    0.0000 C   0  0  0  0  0  0  0  0  0
    0.8281    0.6543    0.0000 N   0  0  0  0  0  0  0  0  0
    1.1334   -0.2028    0.0000 C   0  0  0  0  0  0  0  0  0
    0.4156   -0.6153    0.0000 C   0  0  0  0  0  0  0  0  0
    0.4156   -1.4403    0.0000 C   0  0  0  0  0  0  0  0  0
   -0.2969   -1.8528    0.0000 C   0  0  0  0  0  0  0  0  0
   -1.0094   -1.4403    0.0000 C   0  0  0  0  0  0  0  0  0
   -1.0094   -0.6153    0.0000 C   0  0  0  0  0  0  0  0  0
   -0.2969   -0.2028    0.0000 C   0  0  0  0  0  0  0  0  0
   -0.9325    0.3232    0.0000 C   0  0  0  0  0  0  0  0  0
   -0.7947    1.1366    0.0000 C   0  0  0  0  0  0  0  0  0
   -1.4303    1.6626    0.0000 C   0  0  0  0  0  0  0  0  0
   -1.2926    2.4760    0.0000 C   0  0  0  0  0  0  0  0  0
   -1.9282    3.0020    0.0000 N   0  0  0  0  0  0  0  0  0
   -1.7904    3.8154    0.0000 C   0  0  0  0  0  0  0  0  0
   -2.4260    4.3414    0.0000 C   0  0  0  0  0  0  0  0  0
   -3.1993    4.0540    0.0000 C   0  0  0  0  0  0  0  0  0
   -3.3370    3.2405    0.0000 C   0  0  0  0  0  0  0  0  0
   -2.7015    2.7146    0.0000 C   0  0  0  0  0  0  0  0  0
   -4.1104    2.9531    0.0000 C   0  0  0  0  0  0  0  0  0
   -4.7459    3.4791    0.0000 C   0  0  0  0  0  0  0  0  0
   -4.6082    4.2925    0.0000 C   0  0  0  0  0  0  0  0  0
   -3.8349    4.5800    0.0000 C   0  0  0  0  0  0  0  0  0
    1.1334   -1.8528    0.0000 C   0  0  0  0  0  0  0  0  0
    1.8459   -1.4403    0.0000 C   0  0  0  0  0  0  0  0  0
    1.8459   -0.6153    0.0000 C   0  0  0  0  0  0  0  0  0
  1  2  2  0  0  0  0
  2  3  1  0  0  0  0
  2 10  1  0  0  0  0
  3  4  1  0  0  0  0
  4  5  4  0  0  0  0
  4 27  4  0  0  0  0
  5  6  4  0  0  0  0
  5 10  1  0  0  0  0
  6  7  1  0  0  0  0
  6 25  4  0  0  0  0
  7  8  1  0  0  0  0
  8  9  1  0  0  0  0
  9 10  1  0  0  0  0
 10 11  1  0  0  0  0
 11 12  1  0  0  0  0
 12 13  1  0  0  0  0
 13 14  1  0  0  0  0
 14 15  1  0  0  0  0
 15 16  1  0  0  0  0
 15 20  1  0  0  0  0
 16 17  1  0  0  0  0
 17 18  1  0  0  0  0
 18 19  4  0  0  0  0
 18 24  4  0  0  0  0
 19 20  1  0  0  0  0
 19 21  4  0  0  0  0
 21 22  4  0  0  0  0
 22 23  4  0  0  0  0
 23 24  4  0  0  0  0
 25 26  4  0  0  0  0
 26 27  4  0  0  0  0
M  END
>  <Name_Molregno>
137213

>  <5-HT7>
8.35

$$$$
137398
  Marvin  02231216192D 0   1.00000     0.00000     0

 33 37  0  0  0  0  0  0  0  0999 V2000
    3.8943    2.1300    0.0000 O   0  0  0  0  0  0  0  0  0
    3.1798    2.5425    0.0000 C   0  0  0  0  0  0  0  0  0
    2.4653    2.1300    0.0000 N   0  0  0  0  0  0  0  0  0
    2.4653    1.3050    0.0000 C   0  0  0  0  0  0  0  0  0
    3.1798    0.8925    0.0000 C   0  0  0  0  0  0  0  0  0
    3.1798    0.0675    0.0000 C   0  0  0  0  0  0  0  0  0
    2.4653   -0.3450    0.0000 C   0  0  0  0  0  0  0  0  0
    1.7509    0.0675    0.0000 C   0  0  0  0  0  0  0  0  0
    1.7509    0.8925    0.0000 C   0  0  0  0  0  0  0  0  0
    2.4653   -1.1700    0.0000 C   0  0  0  0  0  0  0  0  0
    1.7509   -1.5825    0.0000 C   0  0  0  0  0  0  0  0  0
    1.7509   -2.4075    0.0000 N   0  0  0  0  0  0  0  0  0
    2.4653   -2.8200    0.0000 C   0  0  0  0  0  0  0  0  0
    2.4653   -3.6450    0.0000 C   0  0  0  0  0  0  0  0  0
    1.7509   -4.0575    0.0000 C   0  0  0  0  0  0  0  0  0
    1.7509   -4.8825    0.0000 C   0  0  0  0  0  0  0  0  0
    1.0364   -5.2950    0.0000 C   0  0  0  0  0  0  0  0  0
    0.3219   -4.8825    0.0000 C   0  0  0  0  0  0  0  0  0
    0.3219   -4.0575    0.0000 C   0  0  0  0  0  0  0  0  0
    1.0364   -3.6450    0.0000 C   0  0  0  0  0  0  0  0  0
    1.0364   -2.8200    0.0000 C   0  0  0  0  0  0  0  0  0
    1.0364   -6.1200    0.0000 C   0  0  0  0  0  0  0  0  0
    1.0364   -6.9450    0.0000 N   0  0  0  0  0  0  0  0  0
    3.1798    3.3675    0.0000 C   0  0  0  0  0  0  0  0  0
    3.8943    3.7800    0.0000 C   0  0  0  0  0  0  0  0  0
    3.8943    4.6050    0.0000 C   0  0  0  0  0  0  0  0  0
    3.1798    5.0175    0.0000 N   0  0  0  0  0  0  0  0  0
    2.4653    4.6050    0.0000 C   0  0  0  0  0  0  0  0  0
    2.4653    3.7800    0.0000 C   0  0  0  0  0  0  0  0  0
    4.6088    5.0175    0.0000 C   0  0  0  0  0  0  0  0  0
    5.3232    4.6050    0.0000 C   0  0  0  0  0  0  0  0  0
    5.3232    3.7800    0.0000 C   0  0  0  0  0  0  0  0  0
    4.6088    3.3675    0.0000 C   0  0  0  0  0  0  0  0  0
  1  2  2  0  0  0  0
  2  3  1  0  0  0  0
  2 24  1  0  0  0  0
  3  4  1  0  0  0  0
  4  5  1  0  0  0  0
  4  9  1  0  0  0  0
  5  6  1  0  0  0  0
  6  7  1  0  0  0  0
  7  8  1  0  0  0  0
  7 10  1  0  0  0  0
  8  9  1  0  0  0  0
 10 11  1  0  0  0  0
 11 12  1  0  0  0  0
 12 13  1  0  0  0  0
 12 21  1  0  0  0  0
 13 14  1  0  0  0  0
 14 15  1  0  0  0  0
 15 16  4  0  0  0  0
 15 20  4  0  0  0  0
 16 17  4  0  0  0  0
 17 18  4  0  0  0  0
 17 22  1  0  0  0  0
 18 19  4  0  0  0  0
 19 20  4  0  0  0  0
 20 21  1  0  0  0  0
 22 23  3  0  0  0  0
 24 25  4  0  0  0  0
 24 29  4  0  0  0  0
 25 26  4  0  0  0  0
 25 33  4  0  0  0  0
 26 27  4  0  0  0  0
 26 30  4  0  0  0  0
 27 28  4  0  0  0  0
 28 29  4  0  0  0  0
 30 31  4  0  0  0  0
 31 32  4  0  0  0  0
 32 33  4  0  0  0  0
M  END
>  <Name_Molregno>
137398

>  <5-HT1A>
5.3

>  <5-HT1B>
5.2

>  <5-HT1D>
5.85

>  <5-HT1E>
5

>  <5-HT2A>
5

>  <5-HT2C>
5

>  <5-HT6>
5

>  <5-HT7>
5

>  <DOPAMINE D2>
6.17

>  <DOPAMINE D3>
8.18

$$$$
148243
  Marvin  02231216192D 0   1.00000     0.00000     0

 19 21  0  0  0  0  0  0  0  0999 V2000
    3.8101   -2.0929    0.0000 N   0  0  0  0  0  0  0  0  0
    3.5552   -2.8775    0.0000 C   0  0  0  0  0  0  0  0  0
    2.7302   -2.8775    0.0000 C   0  0  0  0  0  0  0  0  0
    2.4752   -2.0929    0.0000 N   0  0  0  0  0  0  0  0  0
    3.1427   -1.6080    0.0000 C   0  0  0  0  0  0  0  0  0
    3.1427   -0.7830    0.0000 N   0  0  0  0  0  0  0  0  0
    2.4282   -0.3705    0.0000 C   0  0  0  0  0  0  0  0  0
    1.7137   -0.7830    0.0000 C   0  0  0  0  0  0  0  0  0
    0.9993   -0.3705    0.0000 C   0  0  0  0  0  0  0  0  0
    0.9993    0.4545    0.0000 C   0  0  0  0  0  0  0  0  0
    1.7137    0.8670    0.0000 C   0  0  0  0  0  0  0  0  0
    1.7137    1.6920    0.0000 C   0  0  0  0  0  0  0  0  0
    0.9993    2.1045    0.0000 C   0  0  0  0  0  0  0  0  0
    0.9993    2.9295    0.0000 C   0  0  0  0  0  0  0  0  0
    1.7137    3.3420    0.0000 C   0  0  0  0  0  0  0  0  0
    2.4282    2.9295    0.0000 C   0  0  0  0  0  0  0  0  0
    2.4282    2.1045    0.0000 C   0  0  0  0  0  0  0  0  0
    2.4282    0.4545    0.0000 C   0  0  0  0  0  0  0  0  0
    3.1427    0.8670    0.0000 C   0  0  0  0  0  0  0  0  0
  1  2  1  0  0  0  0
  1  5  1  0  0  0  0
  2  3  1  0  0  0  0
  3  4  1  0  0  0  0
  4  5  2  0  0  0  0
  5  6  1  0  0  0  0
  6  7  1  0  0  0  0
  7  8  4  0  0  0  0
  7 18  4  0  0  0  0
  8  9  4  0  0  0  0
  9 10  4  0  0  0  0
 10 11  4  0  0  0  0
 11 12  1  0  0  0  0
 11 18  4  0  0  0  0
 12 13  4  0  0  0  0
 12 17  4  0  0  0  0
 13 14  4  0  0  0  0
 14 15  4  0  0  0  0
 15 16  4  0  0  0  0
 16 17  4  0  0  0  0
 18 19  1  0  0  0  0
M  END
>  <Name_Molregno>
148243

>  <5-HT7>
7.8

$$$$
148955
  Marvin  02231216192D 0   1.00000     0.00000     0

 16 18  0  0  1  0  0  0  0  0999 V2000
    6.0007   -1.6378    0.0000 F   0  0  0  0  0  0  0  0  0
    5.2862   -1.2253    0.0000 C   0  0  0  0  0  0  0  0  0
    4.5717   -1.6378    0.0000 C   0  0  0  0  0  0  0  0  0
    3.8572   -1.2253    0.0000 C   0  0  0  0  0  0  0  0  0
    3.0726   -1.4803    0.0000 C   0  0  0  0  0  0  0  0  0
    2.5877   -0.8128    0.0000 C   0  0  0  0  0  0  0  0  0
    3.0726   -0.1454    0.0000 C   0  0  0  0  0  0  0  0  0
    3.8572   -0.4003    0.0000 C   0  0  0  0  0  0  0  0  0
    4.5717    0.0122    0.0000 C   0  0  0  0  0  0  0  0  0
    5.2862   -0.4003    0.0000 C   0  0  0  0  0  0  0  0  0
    1.7627   -0.8128    0.0000 C   0  0  0  0  0  0  0  0  0
    1.3502   -0.0984    0.0000 C   0  0  0  0  0  0  0  0  0
    0.5297   -0.0121    0.0000 N   0  0  0  0  0  0  0  0  0
    0.3582    0.7948    0.0000 C   0  0  0  0  0  0  0  0  0
    1.0727    1.2073    0.0000 N   0  0  0  0  0  0  0  0  0
    1.6858    0.6553    0.0000 C   0  0  0  0  0  0  0  0  0
  1  2  1  0  0  0  0
  2  3  4  0  0  0  0
  2 10  4  0  0  0  0
  3  4  4  0  0  0  0
  4  5  1  0  0  0  0
  4  8  4  0  0  0  0
  5  6  1  0  0  0  0
  6  7  1  0  0  0  0
  6 11  1  0  0  0  0
  7  8  1  0  0  0  0
  8  9  4  0  0  0  0
  9 10  4  0  0  0  0
 11 12  1  0  0  0  0
 12 13  1  0  0  0  0
 12 16  1  0  0  0  0
 13 14  1  0  0  0  0
 14 15  2  0  0  0  0
 15 16  1  0  0  0  0
M  END
>  <Name_Molregno>
148955

>  <5-HT1A>
6.11

>  <5-HT2A>
6

>  <5-HT2C>
6

>  <5-HT7>
6

>  <Alpha-2A>
8.23

>  <Alpha-2B>
7.64

>  <Alpha-2C>
7.72

>  <HISTAMINE H1>
6

>  <Serotonin transporter>
7.11

$$$$
155002
  Marvin  02231216192D 0   1.00000     0.00000     0

 19 20  0  0  0  0  0  0  0  0999 V2000
   -0.2370    0.0954    0.0000 S   0  0  0  0  0  0  0  0  0
    0.1755    0.8099    0.0000 O   0  0  0  0  0  0  0  0  0
   -0.6495   -0.6191    0.0000 O   0  0  0  0  0  0  0  0  0
    0.4774   -0.3171    0.0000 N   0  0  0  0  0  0  0  0  0
    1.1919    0.0954    0.0000 C   0  0  0  0  0  0  0  0  0
   -0.9515    0.5079    0.0000 C   0  0  0  0  0  0  0  0  0
   -1.6660    0.0954    0.0000 C   0  0  0  0  0  0  0  0  0
   -2.3805    0.5079    0.0000 C   0  0  0  0  0  0  0  0  0
   -2.3805    1.3329    0.0000 C   0  0  0  0  0  0  0  0  0
   -3.1651    1.5878    0.0000 N   0  0  0  0  0  0  0  0  0
   -3.6500    0.9204    0.0000 C   0  0  0  0  0  0  0  0  0
   -3.1651    0.2529    0.0000 C   0  0  0  0  0  0  0  0  0
   -3.4200   -0.5317    0.0000 C   0  0  0  0  0  0  0  0  0
   -2.8680   -1.1448    0.0000 C   0  0  0  0  0  0  0  0  0
   -3.1229   -1.9294    0.0000 N   0  0  0  0  0  0  0  0  0
   -2.5709   -2.5425    0.0000 C   0  0  0  0  0  0  0  0  0
   -3.9299   -2.1009    0.0000 C   0  0  0  0  0  0  0  0  0
   -1.6660    1.7454    0.0000 C   0  0  0  0  0  0  0  0  0
   -0.9515    1.3329    0.0000 C   0  0  0  0  0  0  0  0  0
  1  2  2  0  0  0  0
  1  3  2  0  0  0  0
  1  4  1  0  0  0  0
  1  6  1  0  0  0  0
  4  5  1  0  0  0  0
  6  7  4  0  0  0  0
  6 19  4  0  0  0  0
  7  8  4  0  0  0  0
  8  9  4  0  0  0  0
  8 12  4  0  0  0  0
  9 10  4  0  0  0  0
  9 18  4  0  0  0  0
 10 11  4  0  0  0  0
 11 12  4  0  0  0  0
 12 13  1  0  0  0  0
 13 14  1  0  0  0  0
 14 15  1  0  0  0  0
 15 16  1  0  0  0  0
 15 17  1  0  0  0  0
 18 19  4  0  0  0  0
M  STY  1   1 DAT
M  SAL   1  1  10
M  SDT   1 MRV_IMPLICIT_H                                        
M  SDD   1     0.0000    0.0000    DR    ALL  0       0  
M  SED   1 IMPL_H1
M  END
>  <Name_Molregno>
155002

>  <5-HT5>
5.3

>  <5-HT6>
5.59

>  <5-HT7>
6.02

$$$$
155183
  Marvin  02231216192D 0   1.00000     0.00000     0

 33 37  0  0  1  0  0  0  0  0999 V2000
    5.1487   -4.5482    0.0000 Cl  0  0  0  0  0  0  0  0  0
    4.9772   -3.7412    0.0000 C   0  0  0  0  0  0  0  0  0
    4.1926   -3.4863    0.0000 C   0  0  0  0  0  0  0  0  0
    4.0211   -2.6793    0.0000 C   0  0  0  0  0  0  0  0  0
    4.6342   -2.1273    0.0000 C   0  0  0  0  0  0  0  0  0
    4.4626   -1.3203    0.0000 O   0  0  0  0  0  0  0  0  0
    5.0757   -0.7683    0.0000 C   0  0  0  0  0  0  0  0  0
    4.9042    0.0387    0.0000 C   0  0  0  0  0  0  0  0  0
    5.5173    0.5907    0.0000 C   0  0  0  0  0  0  0  0  0
    6.3019    0.3358    0.0000 N   0  0  0  0  0  0  0  0  0
    6.4734   -0.4712    0.0000 C   0  0  0  0  0  0  0  0  0
    5.8604   -1.0232    0.0000 C   0  0  0  0  0  0  0  0  0
    6.9150    0.8878    0.0000 C   0  0  0  0  0  0  0  0  0
    6.7435    1.6948    0.0000 C   0  0  0  0  0  0  0  0  0
    7.3566    2.2468    0.0000 C   0  0  0  0  0  0  0  0  0
    7.2703    3.0673    0.0000 N   0  0  0  0  0  0  0  0  0
    6.5559    3.4798    0.0000 S   0  0  0  0  0  0  0  0  0
    6.9684    4.1943    0.0000 O   0  0  0  0  0  0  0  0  0
    6.1434    2.7653    0.0000 O   0  0  0  0  0  0  0  0  0
    5.8414    3.8923    0.0000 C   0  0  0  0  0  0  0  0  0
    5.1269    3.4798    0.0000 C   0  0  0  0  0  0  0  0  0
    4.4125    3.8923    0.0000 C   0  0  0  0  0  0  0  0  0
    3.6278    3.6374    0.0000 N   0  0  0  0  0  0  0  0  0
    3.1429    4.3048    0.0000 C   0  0  0  0  0  0  0  0  0
    3.6278    4.9723    0.0000 C   0  0  0  0  0  0  0  0  0
    4.4125    4.7173    0.0000 C   0  0  0  0  0  0  0  0  0
    5.1269    5.1298    0.0000 C   0  0  0  0  0  0  0  0  0
    5.8414    4.7173    0.0000 C   0  0  0  0  0  0  0  0  0
    8.0240    3.4029    0.0000 C   0  0  0  0  0  0  0  0  0
    8.5761    2.7898    0.0000 C   0  0  0  0  0  0  0  0  0
    8.1636    2.0753    0.0000 C   0  0  0  0  0  0  0  0  0
    5.4188   -2.3822    0.0000 C   0  0  0  0  0  0  0  0  0
    5.5903   -3.1892    0.0000 C   0  0  0  0  0  0  0  0  0
  1  2  1  0  0  0  0
  2  3  4  0  0  0  0
  2 33  4  0  0  0  0
  3  4  4  0  0  0  0
  4  5  4  0  0  0  0
  5  6  1  0  0  0  0
  5 32  4  0  0  0  0
  6  7  1  0  0  0  0
  7  8  1  0  0  0  0
  7 12  1  0  0  0  0
  8  9  1  0  0  0  0
  9 10  1  0  0  0  0
 10 11  1  0  0  0  0
 10 13  1  0  0  0  0
 11 12  1  0  0  0  0
 13 14  1  0  0  0  0
 14 15  1  0  0  0  0
 15 16  1  0  0  0  0
 15 31  1  0  0  0  0
 16 17  1  0  0  0  0
 16 29  1  0  0  0  0
 17 18  2  0  0  0  0
 17 19  2  0  0  0  0
 17 20  1  0  0  0  0
 20 21  4  0  0  0  0
 20 28  4  0  0  0  0
 21 22  4  0  0  0  0
 22 23  4  0  0  0  0
 22 26  4  0  0  0  0
 23 24  4  0  0  0  0
 24 25  4  0  0  0  0
 25 26  4  0  0  0  0
 26 27  4  0  0  0  0
 27 28  4  0  0  0  0
 29 30  1  0  0  0  0
 30 31  1  0  0  0  0
 32 33  4  0  0  0  0
M  STY  1   1 DAT
M  SAL   1  1  23
M  SDT   1 MRV_IMPLICIT_H                                        
M  SDD   1     0.0000    0.0000    DR    ALL  0       0  
M  SED   1 IMPL_H1
M  END
>  <Name_Molregno>
155183

>  <5-HT5>
6.77

>  <5-HT7>
8.7

$$$$
155228
  Marvin  02231216192D 0   1.00000     0.00000     0

 26 29  0  0  1  0  0  0  0  0999 V2000
    0.2157    2.0056    0.0000 S   0  0  0  0  0  0  0  0  0
    0.6282    2.7201    0.0000 O   0  0  0  0  0  0  0  0  0
   -0.1968    1.2911    0.0000 O   0  0  0  0  0  0  0  0  0
    0.9302    1.5931    0.0000 N   0  0  0  0  0  0  0  0  0
    1.6838    1.9287    0.0000 C   0  0  0  0  0  0  0  0  0
    2.2359    1.3156    0.0000 C   0  0  0  0  0  0  0  0  0
    1.8234    0.6011    0.0000 C   0  0  0  0  0  0  0  0  0
    1.0164    0.7726    0.0000 C   0  0  0  0  0  0  0  0  0
    0.4033    0.2206    0.0000 C   0  0  0  0  0  0  0  0  0
    0.5748   -0.5864    0.0000 C   0  0  0  0  0  0  0  0  0
   -0.0383   -1.1384    0.0000 N   0  0  0  0  0  0  0  0  0
    0.1333   -1.9454    0.0000 C   0  0  0  0  0  0  0  0  0
   -0.4798   -2.4974    0.0000 C   0  0  0  0  0  0  0  0  0
   -1.2645   -2.2425    0.0000 C   0  0  0  0  0  0  0  0  0
   -1.4360   -1.4355    0.0000 C   0  0  0  0  0  0  0  0  0
   -0.8229   -0.8835    0.0000 C   0  0  0  0  0  0  0  0  0
   -1.8775   -2.7945    0.0000 C   0  0  0  0  0  0  0  0  0
   -0.4988    2.4181    0.0000 C   0  0  0  0  0  0  0  0  0
   -1.2133    2.0056    0.0000 C   0  0  0  0  0  0  0  0  0
   -1.9277    2.4181    0.0000 C   0  0  0  0  0  0  0  0  0
   -2.7123    2.1632    0.0000 N   0  0  0  0  0  0  0  0  0
   -3.1973    2.8306    0.0000 C   0  0  0  0  0  0  0  0  0
   -2.7123    3.4981    0.0000 C   0  0  0  0  0  0  0  0  0
   -1.9277    3.2431    0.0000 C   0  0  0  0  0  0  0  0  0
   -1.2133    3.6556    0.0000 C   0  0  0  0  0  0  0  0  0
   -0.4988    3.2431    0.0000 C   0  0  0  0  0  0  0  0  0
  1  2  2  0  0  0  0
  1  3  2  0  0  0  0
  1  4  1  0  0  0  0
  1 18  1  0  0  0  0
  4  5  1  0  0  0  0
  4  8  1  0  0  0  0
  5  6  1  0  0  0  0
  6  7  1  0  0  0  0
  7  8  1  0  0  0  0
  8  9  1  0  0  0  0
  9 10  1  0  0  0  0
 10 11  1  0  0  0  0
 11 12  1  0  0  0  0
 11 16  1  0  0  0  0
 12 13  1  0  0  0  0
 13 14  1  0  0  0  0
 14 15  1  0  0  0  0
 14 17  1  0  0  0  0
 15 16  1  0  0  0  0
 18 19  4  0  0  0  0
 18 26  4  0  0  0  0
 19 20  4  0  0  0  0
 20 21  4  0  0  0  0
 20 24  4  0  0  0  0
 21 22  4  0  0  0  0
 22 23  4  0  0  0  0
 23 24  4  0  0  0  0
 24 25  4  0  0  0  0
 25 26  4  0  0  0  0
M  STY  1   1 DAT
M  SAL   1  1  21
M  SDT   1 MRV_IMPLICIT_H                                        
M  SDD   1     0.0000    0.0000    DR    ALL  0       0  
M  SED   1 IMPL_H1
M  END
>  <Name_Molregno>
155228

>  <5-HT7>
8.62

$$$$
155229
  Marvin  02231216192D 0   1.00000     0.00000     0

 27 30  0  0  1  0  0  0  0  0999 V2000
    1.6170   -0.3502    0.0000 S   0  0  0  0  0  0  0  0  0
    2.4420   -0.3502    0.0000 O   0  0  0  0  0  0  0  0  0
    0.7920   -0.3502    0.0000 O   0  0  0  0  0  0  0  0  0
    1.6170   -1.1752    0.0000 N   0  0  0  0  0  0  0  0  0
    2.2844   -1.6602    0.0000 C   0  0  0  0  0  0  0  0  0
    2.0295   -2.4448    0.0000 C   0  0  0  0  0  0  0  0  0
    1.2045   -2.4448    0.0000 C   0  0  0  0  0  0  0  0  0
    0.9495   -1.6602    0.0000 C   0  0  0  0  0  0  0  0  0
    0.1649   -1.4052    0.0000 C   0  0  0  0  0  0  0  0  0
   -0.4482   -1.9572    0.0000 C   0  0  0  0  0  0  0  0  0
   -1.2328   -1.7023    0.0000 N   0  0  0  0  0  0  0  0  0
   -1.8459   -2.2543    0.0000 C   0  0  0  0  0  0  0  0  0
   -2.6305   -1.9994    0.0000 C   0  0  0  0  0  0  0  0  0
   -2.8021   -1.1924    0.0000 C   0  0  0  0  0  0  0  0  0
   -2.1890   -0.6404    0.0000 C   0  0  0  0  0  0  0  0  0
   -1.4044   -0.8953    0.0000 C   0  0  0  0  0  0  0  0  0
   -3.5867   -0.9375    0.0000 C   0  0  0  0  0  0  0  0  0
    1.6170    0.4748    0.0000 C   0  0  0  0  0  0  0  0  0
    2.3314    0.8873    0.0000 C   0  0  0  0  0  0  0  0  0
    2.3314    1.7123    0.0000 C   0  0  0  0  0  0  0  0  0
    1.6170    2.1248    0.0000 C   0  0  0  0  0  0  0  0  0
    0.9025    1.7123    0.0000 C   0  0  0  0  0  0  0  0  0
    0.9025    0.8873    0.0000 C   0  0  0  0  0  0  0  0  0
    3.0459    2.1248    0.0000 C   0  0  0  0  0  0  0  0  0
    3.7604    1.7123    0.0000 C   0  0  0  0  0  0  0  0  0
    3.7604    0.8873    0.0000 C   0  0  0  0  0  0  0  0  0
    3.0459    0.4748    0.0000 C   0  0  0  0  0  0  0  0  0
  1  2  2  0  0  0  0
  1  3  2  0  0  0  0
  1  4  1  0  0  0  0
  1 18  1  0  0  0  0
  4  5  1  0  0  0  0
  4  8  1  0  0  0  0
  5  6  1  0  0  0  0
  6  7  1  0  0  0  0
  7  8  1  0  0  0  0
  8  9  1  0  0  0  0
  9 10  1  0  0  0  0
 10 11  1  0  0  0  0
 11 12  1  0  0  0  0
 11 16  1  0  0  0  0
 12 13  1  0  0  0  0
 13 14  1  0  0  0  0
 14 15  1  0  0  0  0
 14 17  1  0  0  0  0
 15 16  1  0  0  0  0
 18 19  4  0  0  0  0
 18 23  4  0  0  0  0
 19 20  4  0  0  0  0
 19 27  4  0  0  0  0
 20 21  4  0  0  0  0
 20 24  4  0  0  0  0
 21 22  4  0  0  0  0
 22 23  4  0  0  0  0
 24 25  4  0  0  0  0
 25 26  4  0  0  0  0
 26 27  4  0  0  0  0
M  END
>  <Name_Molregno>
155229

>  <5-HT2A>
5.8

>  <5-HT7>
7.2

$$$$
155761
  Marvin  02231216192D 0   1.00000     0.00000     0

 27 30  0  0  1  0  0  0  0  0999 V2000
   -6.1504   -5.1226    0.0000 O   0  0  0  0  0  0  0  0  0
   -6.1494   -4.2976    0.0000 C   0  0  0  0  0  0  0  0  0
   -5.4344   -3.8860    0.0000 C   0  0  0  0  0  0  0  0  0
   -5.0228   -4.6009    0.0000 C   0  0  0  0  0  0  0  0  0
   -5.4361   -5.3149    0.0000 C   0  0  0  0  0  0  0  0  0
   -4.7195   -3.4743    0.0000 C   0  0  0  0  0  0  0  0  0
   -4.7185   -2.6493    0.0000 N   0  0  0  0  0  0  0  0  0
   -4.0035   -2.2377    0.0000 C   0  0  0  0  0  0  0  0  0
   -3.2895   -2.6510    0.0000 O   0  0  0  0  0  0  0  0  0
   -4.0025   -1.4127    0.0000 C   0  0  0  0  0  0  0  0  0
   -3.2875   -1.0010    0.0000 C   0  0  0  0  0  0  0  0  0
   -3.2866   -0.1760    0.0000 C   0  0  0  0  0  0  0  0  0
   -4.0005    0.2373    0.0000 C   0  0  0  0  0  0  0  0  0
   -4.7155   -0.1743    0.0000 N   0  0  0  0  0  0  0  0  0
   -4.7165   -0.9993    0.0000 C   0  0  0  0  0  0  0  0  0
   -5.4295    0.2390    0.0000 C   0  0  0  0  0  0  0  0  0
   -3.9991    1.0615    0.0000 C   0  0  0  0  0  0  0  0  0
   -3.2866    1.4740    0.0000 C   0  0  0  0  0  0  0  0  0
   -2.5741    1.0615    0.0000 C   0  0  0  0  0  0  0  0  0
   -2.5741    0.2365    0.0000 C   0  0  0  0  0  0  0  0  0
   -1.8562   -0.1760    0.0000 C   0  0  0  0  0  0  0  0  0
   -1.1437    0.2365    0.0000 C   0  0  0  0  0  0  0  0  0
   -1.1437    1.0615    0.0000 C   0  0  0  0  0  0  0  0  0
   -1.8562    1.4740    0.0000 C   0  0  0  0  0  0  0  0  0
   -2.1616    2.3311    0.0000 N   0  0  0  0  0  0  0  0  0
   -2.9866    2.3311    0.0000 C   0  0  0  0  0  0  0  0  0
   -5.8461   -3.1710    0.0000 C   0  0  0  0  0  0  0  0  0
  1  2  1  0  0  0  0
  2  3  1  0  0  0  0
  3  4  1  0  0  0  0
  3  6  1  0  0  0  0
  3 27  1  0  0  0  0
  4  5  1  0  0  0  0
  6  7  1  0  0  0  0
  7  8  1  0  0  0  0
  8  9  2  0  0  0  0
  8 10  1  0  0  0  0
 10 11  1  0  0  0  0
 10 15  1  0  0  0  0
 11 12  2  0  0  0  0
 12 13  1  0  0  0  0
 12 20  1  0  0  0  0
 13 14  1  0  0  0  0
 13 17  1  0  0  0  0
 14 15  1  0  0  0  0
 14 16  1  0  0  0  0
 17 18  1  0  0  0  0
 18 19  4  0  0  0  0
 18 26  4  0  0  0  0
 19 20  4  0  0  0  0
 19 24  4  0  0  0  0
 20 21  4  0  0  0  0
 21 22  4  0  0  0  0
 22 23  4  0  0  0  0
 23 24  4  0  0  0  0
 24 25  4  0  0  0  0
 25 26  4  0  0  0  0
M  STY  1   1 DAT
M  SAL   1  1  25
M  SDT   1 MRV_IMPLICIT_H                                        
M  SDD   1     0.0000    0.0000    DR    ALL  0       0  
M  SED   1 IMPL_H1
M  END
>  <Name_Molregno>
155761

>  <5-HT6>
6.74

>  <5-HT7>
7.08

$$$$
155897
  Marvin  02231216192D 0   1.00000     0.00000     0

 24 27  0  0  1  0  0  0  0  0999 V2000
   -3.3501   -2.3253    0.0000 S   0  0  0  0  0  0  0  0  0
   -3.7618   -1.6103    0.0000 O   0  0  0  0  0  0  0  0  0
   -2.9385   -3.0403    0.0000 O   0  0  0  0  0  0  0  0  0
   -2.6352   -1.9136    0.0000 N   0  0  0  0  0  0  0  0  0
   -2.6342   -1.0886    0.0000 C   0  0  0  0  0  0  0  0  0
   -1.9192   -0.6770    0.0000 C   0  0  0  0  0  0  0  0  0
   -1.9182    0.1480    0.0000 C   0  0  0  0  0  0  0  0  0
   -2.6322    0.5614    0.0000 C   0  0  0  0  0  0  0  0  0
   -3.3472    0.1497    0.0000 N   0  0  0  0  0  0  0  0  0
   -3.3482   -0.6753    0.0000 C   0  0  0  0  0  0  0  0  0
   -4.0612    0.5631    0.0000 C   0  0  0  0  0  0  0  0  0
   -2.6307    1.3855    0.0000 C   0  0  0  0  0  0  0  0  0
   -1.9182    1.7980    0.0000 C   0  0  0  0  0  0  0  0  0
   -1.2057    1.3855    0.0000 C   0  0  0  0  0  0  0  0  0
   -1.2057    0.5605    0.0000 C   0  0  0  0  0  0  0  0  0
   -0.4879    0.1480    0.0000 C   0  0  0  0  0  0  0  0  0
    0.2246    0.5605    0.0000 C   0  0  0  0  0  0  0  0  0
    0.2246    1.3855    0.0000 C   0  0  0  0  0  0  0  0  0
   -0.4879    1.7980    0.0000 C   0  0  0  0  0  0  0  0  0
   -0.7932    2.6551    0.0000 N   0  0  0  0  0  0  0  0  0
   -1.6182    2.6551    0.0000 C   0  0  0  0  0  0  0  0  0
   -4.0651   -2.7369    0.0000 N   0  0  0  0  0  0  0  0  0
   -4.0661   -3.5619    0.0000 C   0  0  0  0  0  0  0  0  0
   -4.7791   -2.3236    0.0000 C   0  0  0  0  0  0  0  0  0
  1  2  2  0  0  0  0
  1  3  2  0  0  0  0
  1  4  1  0  0  0  0
  1 22  1  0  0  0  0
  4  5  1  0  0  0  0
  5  6  1  0  0  0  0
  5 10  1  0  0  0  0
  6  7  1  0  0  0  0
  7  8  1  0  0  0  0
  7 15  1  0  0  0  0
  8  9  1  0  0  0  0
  8 12  1  0  0  0  0
  9 10  1  0  0  0  0
  9 11  1  0  0  0  0
 12 13  1  0  0  0  0
 13 14  4  0  0  0  0
 13 21  4  0  0  0  0
 14 15  4  0  0  0  0
 14 19  4  0  0  0  0
 15 16  4  0  0  0  0
 16 17  4  0  0  0  0
 17 18  4  0  0  0  0
 18 19  4  0  0  0  0
 19 20  4  0  0  0  0
 20 21  4  0  0  0  0
 22 23  1  0  0  0  0
 22 24  1  0  0  0  0
M  STY  1   1 DAT
M  SAL   1  1  20
M  SDT   1 MRV_IMPLICIT_H                                        
M  SDD   1     0.0000    0.0000    DR    ALL  0       0  
M  SED   1 IMPL_H1
M  END
>  <Name_Molregno>
155897

>  <5-HT7>
7.74

$$$$
157077
  Marvin  02231216192D 0   1.00000     0.00000     0

 32 36  0  0  0  0  0  0  0  0999 V2000
   -0.2324    0.2724    0.0000 S   0  0  0  0  0  0  0  0  0
    0.1801    0.9869    0.0000 O   0  0  0  0  0  0  0  0  0
   -0.6449   -0.4420    0.0000 O   0  0  0  0  0  0  0  0  0
    0.4820   -0.1401    0.0000 N   0  0  0  0  0  0  0  0  0
    1.1965    0.2724    0.0000 C   0  0  0  0  0  0  0  0  0
    1.9110   -0.1401    0.0000 C   0  0  0  0  0  0  0  0  0
    2.6254    0.2724    0.0000 C   0  0  0  0  0  0  0  0  0
    2.6254    1.0974    0.0000 C   0  0  0  0  0  0  0  0  0
    3.3399    1.5099    0.0000 N   0  0  0  0  0  0  0  0  0
    4.0544    1.0974    0.0000 C   0  0  0  0  0  0  0  0  0
    4.0544    0.2724    0.0000 C   0  0  0  0  0  0  0  0  0
    3.3399   -0.1401    0.0000 C   0  0  0  0  0  0  0  0  0
    3.3399   -0.9651    0.0000 N   0  0  0  0  0  0  0  0  0
    4.0544   -1.3776    0.0000 C   0  0  0  0  0  0  0  0  0
    4.0544   -2.2026    0.0000 C   0  0  0  0  0  0  0  0  0
    3.3399   -2.6151    0.0000 N   0  0  0  0  0  0  0  0  0
    2.6254   -2.2026    0.0000 C   0  0  0  0  0  0  0  0  0
    2.6254   -1.3776    0.0000 C   0  0  0  0  0  0  0  0  0
    1.9110    1.5099    0.0000 C   0  0  0  0  0  0  0  0  0
    1.1965    1.0974    0.0000 C   0  0  0  0  0  0  0  0  0
   -0.9469    0.6849    0.0000 C   0  0  0  0  0  0  0  0  0
   -1.6614    0.2724    0.0000 C   0  0  0  0  0  0  0  0  0
   -2.3759    0.6849    0.0000 C   0  0  0  0  0  0  0  0  0
   -2.3759    1.5099    0.0000 C   0  0  0  0  0  0  0  0  0
   -1.6614    1.9224    0.0000 C   0  0  0  0  0  0  0  0  0
   -0.9469    1.5099    0.0000 C   0  0  0  0  0  0  0  0  0
   -3.0903    1.9224    0.0000 C   0  0  0  0  0  0  0  0  0
   -3.8048    1.5099    0.0000 C   0  0  0  0  0  0  0  0  0
   -4.5193    1.9224    0.0000 C   0  0  0  0  0  0  0  0  0
   -4.5193    2.7474    0.0000 C   0  0  0  0  0  0  0  0  0
   -3.8048    3.1599    0.0000 C   0  0  0  0  0  0  0  0  0
   -3.0903    2.7474    0.0000 C   0  0  0  0  0  0  0  0  0
  1  2  2  0  0  0  0
  1  3  2  0  0  0  0
  1  4  1  0  0  0  0
  1 21  1  0  0  0  0
  4  5  1  0  0  0  0
  5  6  4  0  0  0  0
  5 20  4  0  0  0  0
  6  7  4  0  0  0  0
  7  8  4  0  0  0  0
  7 12  4  0  0  0  0
  8  9  4  0  0  0  0
  8 19  4  0  0  0  0
  9 10  4  0  0  0  0
 10 11  4  0  0  0  0
 11 12  4  0  0  0  0
 12 13  1  0  0  0  0
 13 14  1  0  0  0  0
 13 18  1  0  0  0  0
 14 15  1  0  0  0  0
 15 16  1  0  0  0  0
 16 17  1  0  0  0  0
 17 18  1  0  0  0  0
 19 20  4  0  0  0  0
 21 22  4  0  0  0  0
 21 26  4  0  0  0  0
 22 23  4  0  0  0  0
 23 24  4  0  0  0  0
 24 25  4  0  0  0  0
 24 27  1  0  0  0  0
 25 26  4  0  0  0  0
 27 28  4  0  0  0  0
 27 32  4  0  0  0  0
 28 29  4  0  0  0  0
 29 30  4  0  0  0  0
 30 31  4  0  0  0  0
 31 32  4  0  0  0  0
M  STY  1   1 DAT
M  SAL   1  1   9
M  SDT   1 MRV_IMPLICIT_H                                        
M  SDD   1     0.0000    0.0000    DR    ALL  0       0  
M  SED   1 IMPL_H1
M  END
>  <Name_Molregno>
157077

>  <5-HT1A>
6.2

>  <5-HT1B>
6.5

>  <5-HT1D>
6.8

>  <5-HT2A>
6.3

>  <5-HT6>
9.3

>  <5-HT7>
5

>  <DOPAMINE D2>
5.3

>  <DOPAMINE D3>
5.5

$$$$
157459
  Marvin  02231216192D 0   1.00000     0.00000     0

 32 36  0  0  0  0  0  0  0  0999 V2000
    0.5977    1.2497    0.0000 Cl  0  0  0  0  0  0  0  0  0
    1.0102    0.5352    0.0000 C   0  0  0  0  0  0  0  0  0
    1.8352    0.5352    0.0000 C   0  0  0  0  0  0  0  0  0
    2.2477   -0.1792    0.0000 C   0  0  0  0  0  0  0  0  0
    1.8352   -0.8937    0.0000 C   0  0  0  0  0  0  0  0  0
    2.3873   -1.5068    0.0000 S   0  0  0  0  0  0  0  0  0
    3.1409   -1.1712    0.0000 C   0  0  0  0  0  0  0  0  0
    3.8554   -1.5837    0.0000 S   0  0  0  0  0  0  0  0  0
    3.4429   -2.2982    0.0000 O   0  0  0  0  0  0  0  0  0
    4.2679   -0.8693    0.0000 O   0  0  0  0  0  0  0  0  0
    4.5699   -1.9962    0.0000 N   0  0  0  0  0  0  0  0  0
    5.2843   -1.5837    0.0000 C   0  0  0  0  0  0  0  0  0
    5.9988   -1.9962    0.0000 C   0  0  0  0  0  0  0  0  0
    6.7133   -1.5837    0.0000 C   0  0  0  0  0  0  0  0  0
    6.7133   -0.7587    0.0000 C   0  0  0  0  0  0  0  0  0
    7.4278   -0.3462    0.0000 N   0  0  0  0  0  0  0  0  0
    8.1422   -0.7587    0.0000 C   0  0  0  0  0  0  0  0  0
    8.1422   -1.5837    0.0000 C   0  0  0  0  0  0  0  0  0
    7.4278   -1.9962    0.0000 C   0  0  0  0  0  0  0  0  0
    7.4278   -2.8212    0.0000 N   0  0  0  0  0  0  0  0  0
    8.1422   -3.2337    0.0000 C   0  0  0  0  0  0  0  0  0
    8.1422   -4.0587    0.0000 C   0  0  0  0  0  0  0  0  0
    7.4278   -4.4712    0.0000 N   0  0  0  0  0  0  0  0  0
    6.7133   -4.0587    0.0000 C   0  0  0  0  0  0  0  0  0
    6.7133   -3.2337    0.0000 C   0  0  0  0  0  0  0  0  0
    8.8567   -0.3462    0.0000 C   0  0  0  0  0  0  0  0  0
    5.9988   -0.3462    0.0000 C   0  0  0  0  0  0  0  0  0
    5.2843   -0.7587    0.0000 C   0  0  0  0  0  0  0  0  0
    3.0547   -0.3508    0.0000 C   0  0  0  0  0  0  0  0  0
    3.6678    0.2013    0.0000 C   0  0  0  0  0  0  0  0  0
    1.0102   -0.8937    0.0000 C   0  0  0  0  0  0  0  0  0
    0.5977   -0.1792    0.0000 C   0  0  0  0  0  0  0  0  0
  1  2  1  0  0  0  0
  2  3  4  0  0  0  0
  2 32  4  0  0  0  0
  3  4  4  0  0  0  0
  4  5  4  0  0  0  0
  4 29  4  0  0  0  0
  5  6  4  0  0  0  0
  5 31  4  0  0  0  0
  6  7  4  0  0  0  0
  7  8  1  0  0  0  0
  7 29  4  0  0  0  0
  8  9  2  0  0  0  0
  8 10  2  0  0  0  0
  8 11  1  0  0  0  0
 11 12  1  0  0  0  0
 12 13  4  0  0  0  0
 12 28  4  0  0  0  0
 13 14  4  0  0  0  0
 14 15  4  0  0  0  0
 14 19  4  0  0  0  0
 15 16  4  0  0  0  0
 15 27  4  0  0  0  0
 16 17  4  0  0  0  0
 17 18  4  0  0  0  0
 17 26  1  0  0  0  0
 18 19  4  0  0  0  0
 19 20  1  0  0  0  0
 20 21  1  0  0  0  0
 20 25  1  0  0  0  0
 21 22  1  0  0  0  0
 22 23  1  0  0  0  0
 23 24  1  0  0  0  0
 24 25  1  0  0  0  0
 27 28  4  0  0  0  0
 29 30  1  0  0  0  0
 31 32  4  0  0  0  0
M  STY  1   1 DAT
M  SAL   1  1  16
M  SDT   1 MRV_IMPLICIT_H                                        
M  SDD   1     0.0000    0.0000    DR    ALL  0       0  
M  SED   1 IMPL_H1
M  END
>  <Name_Molregno>
157459

>  <5-HT1A>
6.1

>  <5-HT1B>
5.9

>  <5-HT1D>
6.5

>  <5-HT2A>
5.7

>  <5-HT2C>
5.6

>  <5-HT6>
8.9

>  <5-HT7>
5.3

>  <DOPAMINE D2>
5.2

>  <DOPAMINE D3>
6

$$$$
157806
  Marvin  02231216192D 0   1.00000     0.00000     0

 32 36  0  0  0  0  0  0  0  0999 V2000
    0.6766    1.5468    0.0000 Cl  0  0  0  0  0  0  0  0  0
    1.0891    0.8324    0.0000 C   0  0  0  0  0  0  0  0  0
    1.9141    0.8324    0.0000 C   0  0  0  0  0  0  0  0  0
    2.3266    0.1179    0.0000 C   0  0  0  0  0  0  0  0  0
    1.9141   -0.5966    0.0000 C   0  0  0  0  0  0  0  0  0
    2.4662   -1.2097    0.0000 S   0  0  0  0  0  0  0  0  0
    3.2198   -0.8741    0.0000 C   0  0  0  0  0  0  0  0  0
    3.9343   -1.2866    0.0000 S   0  0  0  0  0  0  0  0  0
    3.5218   -2.0011    0.0000 O   0  0  0  0  0  0  0  0  0
    4.3468   -0.5721    0.0000 O   0  0  0  0  0  0  0  0  0
    4.6488   -1.6991    0.0000 N   0  0  0  0  0  0  0  0  0
    5.3633   -1.2866    0.0000 C   0  0  0  0  0  0  0  0  0
    6.0777   -1.6991    0.0000 C   0  0  0  0  0  0  0  0  0
    6.7922   -1.2866    0.0000 C   0  0  0  0  0  0  0  0  0
    6.7922   -0.4616    0.0000 C   0  0  0  0  0  0  0  0  0
    7.5067   -0.0491    0.0000 N   0  0  0  0  0  0  0  0  0
    8.2211   -0.4616    0.0000 C   0  0  0  0  0  0  0  0  0
    8.2211   -1.2866    0.0000 C   0  0  0  0  0  0  0  0  0
    7.5067   -1.6991    0.0000 C   0  0  0  0  0  0  0  0  0
    7.5067   -2.5241    0.0000 N   0  0  0  0  0  0  0  0  0
    8.2211   -2.9366    0.0000 C   0  0  0  0  0  0  0  0  0
    8.2211   -3.7616    0.0000 C   0  0  0  0  0  0  0  0  0
    7.5067   -4.1741    0.0000 N   0  0  0  0  0  0  0  0  0
    6.7922   -3.7616    0.0000 C   0  0  0  0  0  0  0  0  0
    6.7922   -2.9366    0.0000 C   0  0  0  0  0  0  0  0  0
    7.5067   -4.9991    0.0000 C   0  0  0  0  0  0  0  0  0
    6.0777   -0.0491    0.0000 C   0  0  0  0  0  0  0  0  0
    5.3633   -0.4616    0.0000 C   0  0  0  0  0  0  0  0  0
    3.1336   -0.0536    0.0000 C   0  0  0  0  0  0  0  0  0
    3.7467    0.4984    0.0000 C   0  0  0  0  0  0  0  0  0
    1.0891   -0.5966    0.0000 C   0  0  0  0  0  0  0  0  0
    0.6766    0.1179    0.0000 C   0  0  0  0  0  0  0  0  0
  1  2  1  0  0  0  0
  2  3  4  0  0  0  0
  2 32  4  0  0  0  0
  3  4  4  0  0  0  0
  4  5  4  0  0  0  0
  4 29  4  0  0  0  0
  5  6  4  0  0  0  0
  5 31  4  0  0  0  0
  6  7  4  0  0  0  0
  7  8  1  0  0  0  0
  7 29  4  0  0  0  0
  8  9  2  0  0  0  0
  8 10  2  0  0  0  0
  8 11  1  0  0  0  0
 11 12  1  0  0  0  0
 12 13  4  0  0  0  0
 12 28  4  0  0  0  0
 13 14  4  0  0  0  0
 14 15  4  0  0  0  0
 14 19  4  0  0  0  0
 15 16  4  0  0  0  0
 15 27  4  0  0  0  0
 16 17  4  0  0  0  0
 17 18  4  0  0  0  0
 18 19  4  0  0  0  0
 19 20  1  0  0  0  0
 20 21  1  0  0  0  0
 20 25  1  0  0  0  0
 21 22  1  0  0  0  0
 22 23  1  0  0  0  0
 23 24  1  0  0  0  0
 23 26  1  0  0  0  0
 24 25  1  0  0  0  0
 27 28  4  0  0  0  0
 29 30  1  0  0  0  0
 31 32  4  0  0  0  0
M  STY  1   1 DAT
M  SAL   1  1  16
M  SDT   1 MRV_IMPLICIT_H                                        
M  SDD   1     0.0000    0.0000    DR    ALL  0       0  
M  SED   1 IMPL_H1
M  END
>  <Name_Molregno>
157806

>  <5-HT1A>
6.1

>  <5-HT1B>
6.3

>  <5-HT1D>
6.6

>  <5-HT2A>
6

>  <5-HT2C>
5.3

>  <5-HT6>
9

>  <5-HT7>
5.7

>  <DOPAMINE D2>
5.1

>  <DOPAMINE D3>
5.4

$$$$
157834
  Marvin  02231216192D 0   1.00000     0.00000     0

 31 35  0  0  0  0  0  0  0  0999 V2000
   -0.2147    0.7807    0.0000 Cl  0  0  0  0  0  0  0  0  0
    0.4998    1.1932    0.0000 C   0  0  0  0  0  0  0  0  0
    1.2143    0.7807    0.0000 C   0  0  0  0  0  0  0  0  0
    1.9287    1.1932    0.0000 C   0  0  0  0  0  0  0  0  0
    2.6432    0.7807    0.0000 C   0  0  0  0  0  0  0  0  0
    2.6432   -0.0443    0.0000 C   0  0  0  0  0  0  0  0  0
    3.3577   -0.4568    0.0000 S   0  0  0  0  0  0  0  0  0
    2.9452   -1.1712    0.0000 O   0  0  0  0  0  0  0  0  0
    3.7702    0.2577    0.0000 O   0  0  0  0  0  0  0  0  0
    4.0721   -0.8693    0.0000 N   0  0  0  0  0  0  0  0  0
    4.7866   -0.4568    0.0000 C   0  0  0  0  0  0  0  0  0
    5.5011   -0.8693    0.0000 C   0  0  0  0  0  0  0  0  0
    6.2156   -0.4568    0.0000 C   0  0  0  0  0  0  0  0  0
    6.2156    0.3682    0.0000 C   0  0  0  0  0  0  0  0  0
    6.9300    0.7807    0.0000 N   0  0  0  0  0  0  0  0  0
    7.6445    0.3682    0.0000 C   0  0  0  0  0  0  0  0  0
    7.6445   -0.4568    0.0000 C   0  0  0  0  0  0  0  0  0
    6.9300   -0.8693    0.0000 C   0  0  0  0  0  0  0  0  0
    6.9300   -1.6943    0.0000 N   0  0  0  0  0  0  0  0  0
    7.6445   -2.1068    0.0000 C   0  0  0  0  0  0  0  0  0
    7.6445   -2.9318    0.0000 C   0  0  0  0  0  0  0  0  0
    6.9300   -3.3443    0.0000 N   0  0  0  0  0  0  0  0  0
    6.2156   -2.9318    0.0000 C   0  0  0  0  0  0  0  0  0
    6.2156   -2.1068    0.0000 C   0  0  0  0  0  0  0  0  0
    5.5011    0.7807    0.0000 C   0  0  0  0  0  0  0  0  0
    4.7866    0.3682    0.0000 C   0  0  0  0  0  0  0  0  0
    1.9287   -0.4568    0.0000 C   0  0  0  0  0  0  0  0  0
    1.2143   -0.0443    0.0000 C   0  0  0  0  0  0  0  0  0
    1.9287    2.0182    0.0000 C   0  0  0  0  0  0  0  0  0
    1.2143    2.4307    0.0000 C   0  0  0  0  0  0  0  0  0
    0.4998    2.0182    0.0000 C   0  0  0  0  0  0  0  0  0
  1  2  1  0  0  0  0
  2  3  4  0  0  0  0
  2 31  4  0  0  0  0
  3  4  4  0  0  0  0
  3 28  4  0  0  0  0
  4  5  4  0  0  0  0
  4 29  4  0  0  0  0
  5  6  4  0  0  0  0
  6  7  1  0  0  0  0
  6 27  4  0  0  0  0
  7  8  2  0  0  0  0
  7  9  2  0  0  0  0
  7 10  1  0  0  0  0
 10 11  1  0  0  0  0
 11 12  4  0  0  0  0
 11 26  4  0  0  0  0
 12 13  4  0  0  0  0
 13 14  4  0  0  0  0
 13 18  4  0  0  0  0
 14 15  4  0  0  0  0
 14 25  4  0  0  0  0
 15 16  4  0  0  0  0
 16 17  4  0  0  0  0
 17 18  4  0  0  0  0
 18 19  1  0  0  0  0
 19 20  1  0  0  0  0
 19 24  1  0  0  0  0
 20 21  1  0  0  0  0
 21 22  1  0  0  0  0
 22 23  1  0  0  0  0
 23 24  1  0  0  0  0
 25 26  4  0  0  0  0
 27 28  4  0  0  0  0
 29 30  4  0  0  0  0
 30 31  4  0  0  0  0
M  STY  1   1 DAT
M  SAL   1  1  15
M  SDT   1 MRV_IMPLICIT_H                                        
M  SDD   1     0.0000    0.0000    DR    ALL  0       0  
M  SED   1 IMPL_H1
M  END
>  <Name_Molregno>
157834

>  <5-HT1A>
6.8

>  <5-HT1B>
6.2

>  <5-HT1D>
6.7

>  <5-HT2A>
6

>  <5-HT2C>
5.6

>  <5-HT6>
9

>  <5-HT7>
5.6

>  <DOPAMINE D2>
5.3

>  <DOPAMINE D3>
5.6

$$$$
157908
  Marvin  02231216192D 0   1.00000     0.00000     0

 30 33  0  0  0  0  0  0  0  0999 V2000
   -1.7605   -0.6940    0.0000 S   0  0  0  0  0  0  0  0  0
   -1.3480    0.0205    0.0000 O   0  0  0  0  0  0  0  0  0
   -2.1730   -1.4085    0.0000 O   0  0  0  0  0  0  0  0  0
   -1.0461   -1.1065    0.0000 N   0  0  0  0  0  0  0  0  0
   -0.3316   -0.6940    0.0000 C   0  0  0  0  0  0  0  0  0
    0.3829   -1.1065    0.0000 C   0  0  0  0  0  0  0  0  0
    1.0973   -0.6940    0.0000 C   0  0  0  0  0  0  0  0  0
    1.0973    0.1310    0.0000 C   0  0  0  0  0  0  0  0  0
    1.8118    0.5435    0.0000 N   0  0  0  0  0  0  0  0  0
    2.5263    0.1310    0.0000 C   0  0  0  0  0  0  0  0  0
    2.5263   -0.6940    0.0000 C   0  0  0  0  0  0  0  0  0
    1.8118   -1.1065    0.0000 C   0  0  0  0  0  0  0  0  0
    1.8118   -1.9315    0.0000 N   0  0  0  0  0  0  0  0  0
    2.5263   -2.3440    0.0000 C   0  0  0  0  0  0  0  0  0
    2.5263   -3.1690    0.0000 C   0  0  0  0  0  0  0  0  0
    1.8118   -3.5815    0.0000 N   0  0  0  0  0  0  0  0  0
    1.0973   -3.1690    0.0000 C   0  0  0  0  0  0  0  0  0
    1.0973   -2.3440    0.0000 C   0  0  0  0  0  0  0  0  0
    0.3829    0.5435    0.0000 C   0  0  0  0  0  0  0  0  0
   -0.3316    0.1310    0.0000 C   0  0  0  0  0  0  0  0  0
   -2.4750   -0.2815    0.0000 C   0  0  0  0  0  0  0  0  0
   -3.1895   -0.6940    0.0000 C   0  0  0  0  0  0  0  0  0
   -3.9040   -0.2815    0.0000 C   0  0  0  0  0  0  0  0  0
   -3.9040    0.5435    0.0000 C   0  0  0  0  0  0  0  0  0
   -3.1895    0.9560    0.0000 C   0  0  0  0  0  0  0  0  0
   -2.4750    0.5435    0.0000 C   0  0  0  0  0  0  0  0  0
   -4.6184    0.9560    0.0000 C   0  0  0  0  0  0  0  0  0
   -5.3329    1.3685    0.0000 C   0  0  0  0  0  0  0  0  0
   -4.2059    1.6705    0.0000 C   0  0  0  0  0  0  0  0  0
   -5.0309    0.2415    0.0000 C   0  0  0  0  0  0  0  0  0
  1  2  2  0  0  0  0
  1  3  2  0  0  0  0
  1  4  1  0  0  0  0
  1 21  1  0  0  0  0
  4  5  1  0  0  0  0
  5  6  4  0  0  0  0
  5 20  4  0  0  0  0
  6  7  4  0  0  0  0
  7  8  4  0  0  0  0
  7 12  4  0  0  0  0
  8  9  4  0  0  0  0
  8 19  4  0  0  0  0
  9 10  4  0  0  0  0
 10 11  4  0  0  0  0
 11 12  4  0  0  0  0
 12 13  1  0  0  0  0
 13 14  1  0  0  0  0
 13 18  1  0  0  0  0
 14 15  1  0  0  0  0
 15 16  1  0  0  0  0
 16 17  1  0  0  0  0
 17 18  1  0  0  0  0
 19 20  4  0  0  0  0
 21 22  4  0  0  0  0
 21 26  4  0  0  0  0
 22 23  4  0  0  0  0
 23 24  4  0  0  0  0
 24 25  4  0  0  0  0
 24 27  1  0  0  0  0
 25 26  4  0  0  0  0
 27 28  1  0  0  0  0
 27 29  1  0  0  0  0
 27 30  1  0  0  0  0
M  STY  1   1 DAT
M  SAL   1  1   9
M  SDT   1 MRV_IMPLICIT_H                                        
M  SDD   1     0.0000    0.0000    DR    ALL  0       0  
M  SED   1 IMPL_H1
M  END
>  <Name_Molregno>
157908

>  <5-HT1A>
6.1

>  <5-HT1B>
5.8

>  <5-HT1D>
5.9

>  <5-HT2A>
5.5

>  <5-HT2C>
5.7

>  <5-HT6>
9.2

>  <5-HT7>
5

>  <DOPAMINE D2>
5

>  <DOPAMINE D3>
5.3

$$$$
157986
  Marvin  02231216192D 0   1.00000     0.00000     0

 32 36  0  0  1  0  0  0  0  0999 V2000
    0.6566    1.4750    0.0000 Cl  0  0  0  0  0  0  0  0  0
    1.0691    0.7605    0.0000 C   0  0  0  0  0  0  0  0  0
    1.8941    0.7605    0.0000 C   0  0  0  0  0  0  0  0  0
    2.3066    0.0461    0.0000 C   0  0  0  0  0  0  0  0  0
    1.8941   -0.6684    0.0000 C   0  0  0  0  0  0  0  0  0
    2.4461   -1.2815    0.0000 S   0  0  0  0  0  0  0  0  0
    3.1998   -0.9460    0.0000 C   0  0  0  0  0  0  0  0  0
    3.9142   -1.3585    0.0000 S   0  0  0  0  0  0  0  0  0
    3.5017   -2.0729    0.0000 O   0  0  0  0  0  0  0  0  0
    4.3267   -0.6440    0.0000 O   0  0  0  0  0  0  0  0  0
    4.6287   -1.7710    0.0000 N   0  0  0  0  0  0  0  0  0
    5.3432   -1.3585    0.0000 C   0  0  0  0  0  0  0  0  0
    6.0576   -1.7710    0.0000 C   0  0  0  0  0  0  0  0  0
    6.7721   -1.3585    0.0000 C   0  0  0  0  0  0  0  0  0
    6.7721   -0.5335    0.0000 C   0  0  0  0  0  0  0  0  0
    7.4866   -0.1210    0.0000 N   0  0  0  0  0  0  0  0  0
    8.2011   -0.5335    0.0000 C   0  0  0  0  0  0  0  0  0
    8.2011   -1.3585    0.0000 C   0  0  0  0  0  0  0  0  0
    7.4866   -1.7710    0.0000 C   0  0  0  0  0  0  0  0  0
    7.4866   -2.5960    0.0000 N   0  0  0  0  0  0  0  0  0
    8.2011   -3.0085    0.0000 C   0  0  0  0  0  0  0  0  0
    8.2011   -3.8335    0.0000 C   0  0  0  0  0  0  0  0  0
    7.4866   -4.2460    0.0000 N   0  0  0  0  0  0  0  0  0
    6.7721   -3.8335    0.0000 C   0  0  0  0  0  0  0  0  0
    6.7721   -3.0085    0.0000 C   0  0  0  0  0  0  0  0  0
    8.9155   -4.2460    0.0000 C   0  0  0  0  0  0  0  0  0
    6.0576   -0.1210    0.0000 C   0  0  0  0  0  0  0  0  0
    5.3432   -0.5335    0.0000 C   0  0  0  0  0  0  0  0  0
    3.1135   -0.1255    0.0000 C   0  0  0  0  0  0  0  0  0
    3.7266    0.4266    0.0000 C   0  0  0  0  0  0  0  0  0
    1.0691   -0.6684    0.0000 C   0  0  0  0  0  0  0  0  0
    0.6566    0.0461    0.0000 C   0  0  0  0  0  0  0  0  0
  1  2  1  0  0  0  0
  2  3  4  0  0  0  0
  2 32  4  0  0  0  0
  3  4  4  0  0  0  0
  4  5  4  0  0  0  0
  4 29  4  0  0  0  0
  5  6  4  0  0  0  0
  5 31  4  0  0  0  0
  6  7  4  0  0  0  0
  7  8  1  0  0  0  0
  7 29  4  0  0  0  0
  8  9  2  0  0  0  0
  8 10  2  0  0  0  0
  8 11  1  0  0  0  0
 11 12  1  0  0  0  0
 12 13  4  0  0  0  0
 12 28  4  0  0  0  0
 13 14  4  0  0  0  0
 14 15  4  0  0  0  0
 14 19  4  0  0  0  0
 15 16  4  0  0  0  0
 15 27  4  0  0  0  0
 16 17  4  0  0  0  0
 17 18  4  0  0  0  0
 18 19  4  0  0  0  0
 19 20  1  0  0  0  0
 20 21  1  0  0  0  0
 20 25  1  0  0  0  0
 21 22  1  0  0  0  0
 22 23  1  0  0  0  0
 22 26  1  0  0  0  0
 23 24  1  0  0  0  0
 24 25  1  0  0  0  0
 27 28  4  0  0  0  0
 29 30  1  0  0  0  0
 31 32  4  0  0  0  0
M  STY  1   1 DAT
M  SAL   1  1  16
M  SDT   1 MRV_IMPLICIT_H                                        
M  SDD   1     0.0000    0.0000    DR    ALL  0       0  
M  SED   1 IMPL_H1
M  END
>  <Name_Molregno>
157986

>  <5-HT1A>
6

>  <5-HT1B>
5.6

>  <5-HT1D>
6.4

>  <5-HT2A>
5.6

>  <5-HT2C>
5.4

>  <5-HT6>
8.9

>  <5-HT7>
5.3

>  <DOPAMINE D2>
5.5

>  <DOPAMINE D3>
5.7

$$$$
158033
  Marvin  02231216192D 0   1.00000     0.00000     0

 31 35  0  0  0  0  0  0  0  0999 V2000
   -3.7032   -0.0442    0.0000 Cl  0  0  0  0  0  0  0  0  0
   -4.2552   -0.6573    0.0000 C   0  0  0  0  0  0  0  0  0
   -4.0003   -1.4419    0.0000 C   0  0  0  0  0  0  0  0  0
   -4.5523   -2.0550    0.0000 C   0  0  0  0  0  0  0  0  0
   -5.3593   -1.8835    0.0000 C   0  0  0  0  0  0  0  0  0
   -5.7718   -2.5979    0.0000 S   0  0  0  0  0  0  0  0  0
   -5.2198   -3.2110    0.0000 C   0  0  0  0  0  0  0  0  0
   -5.3913   -4.0180    0.0000 C   0  0  0  0  0  0  0  0  0
   -4.4661   -2.8755    0.0000 C   0  0  0  0  0  0  0  0  0
   -3.7516   -3.2880    0.0000 S   0  0  0  0  0  0  0  0  0
   -4.1641   -4.0024    0.0000 O   0  0  0  0  0  0  0  0  0
   -3.3391   -2.5735    0.0000 O   0  0  0  0  0  0  0  0  0
   -3.0372   -3.7005    0.0000 N   0  0  0  0  0  0  0  0  0
   -2.3227   -3.2880    0.0000 C   0  0  0  0  0  0  0  0  0
   -1.6082   -3.7005    0.0000 C   0  0  0  0  0  0  0  0  0
   -0.8937   -3.2880    0.0000 C   0  0  0  0  0  0  0  0  0
   -0.8937   -2.4630    0.0000 C   0  0  0  0  0  0  0  0  0
   -0.1793   -2.0505    0.0000 N   0  0  0  0  0  0  0  0  0
    0.5352   -2.4630    0.0000 C   0  0  0  0  0  0  0  0  0
    0.5352   -3.2880    0.0000 C   0  0  0  0  0  0  0  0  0
   -0.1793   -3.7005    0.0000 C   0  0  0  0  0  0  0  0  0
   -0.1793   -4.5255    0.0000 N   0  0  0  0  0  0  0  0  0
    0.5352   -4.9380    0.0000 C   0  0  0  0  0  0  0  0  0
    0.5352   -5.7630    0.0000 C   0  0  0  0  0  0  0  0  0
   -0.1793   -6.1755    0.0000 N   0  0  0  0  0  0  0  0  0
   -0.8937   -5.7630    0.0000 C   0  0  0  0  0  0  0  0  0
   -0.8937   -4.9380    0.0000 C   0  0  0  0  0  0  0  0  0
   -1.6082   -2.0505    0.0000 C   0  0  0  0  0  0  0  0  0
   -2.3227   -2.4630    0.0000 C   0  0  0  0  0  0  0  0  0
   -5.6142   -1.0988    0.0000 C   0  0  0  0  0  0  0  0  0
   -5.0622   -0.4858    0.0000 C   0  0  0  0  0  0  0  0  0
  1  2  1  0  0  0  0
  2  3  4  0  0  0  0
  2 31  4  0  0  0  0
  3  4  4  0  0  0  0
  4  5  4  0  0  0  0
  4  9  4  0  0  0  0
  5  6  4  0  0  0  0
  5 30  4  0  0  0  0
  6  7  4  0  0  0  0
  7  8  1  0  0  0  0
  7  9  4  0  0  0  0
  9 10  1  0  0  0  0
 10 11  2  0  0  0  0
 10 12  2  0  0  0  0
 10 13  1  0  0  0  0
 13 14  1  0  0  0  0
 14 15  4  0  0  0  0
 14 29  4  0  0  0  0
 15 16  4  0  0  0  0
 16 17  4  0  0  0  0
 16 21  4  0  0  0  0
 17 18  4  0  0  0  0
 17 28  4  0  0  0  0
 18 19  4  0  0  0  0
 19 20  4  0  0  0  0
 20 21  4  0  0  0  0
 21 22  1  0  0  0  0
 22 23  1  0  0  0  0
 22 27  1  0  0  0  0
 23 24  1  0  0  0  0
 24 25  1  0  0  0  0
 25 26  1  0  0  0  0
 26 27  1  0  0  0  0
 28 29  4  0  0  0  0
 30 31  4  0  0  0  0
M  STY  1   1 DAT
M  SAL   1  1  18
M  SDT   1 MRV_IMPLICIT_H                                        
M  SDD   1     0.0000    0.0000    DR    ALL  0       0  
M  SED   1 IMPL_H1
M  END
>  <Name_Molregno>
158033

>  <5-HT1A>
6.6

>  <5-HT1B>
6.3

>  <5-HT1D>
6.4

>  <5-HT2A>
5.7

>  <5-HT2C>
5.9

>  <5-HT6>
9

>  <5-HT7>
5.8

>  <DOPAMINE D2>
5.4

>  <DOPAMINE D3>
5.8

$$$$
158053
  Marvin  02231216192D 0   1.00000     0.00000     0

 31 35  0  0  0  0  0  0  0  0999 V2000
    0.7824    2.2935    0.0000 Cl  0  0  0  0  0  0  0  0  0
    1.1949    1.5790    0.0000 C   0  0  0  0  0  0  0  0  0
    2.0199    1.5790    0.0000 C   0  0  0  0  0  0  0  0  0
    2.4324    0.8645    0.0000 C   0  0  0  0  0  0  0  0  0
    2.0199    0.1501    0.0000 C   0  0  0  0  0  0  0  0  0
    2.5720   -0.4630    0.0000 S   0  0  0  0  0  0  0  0  0
    3.3256   -0.1275    0.0000 C   0  0  0  0  0  0  0  0  0
    4.0401   -0.5400    0.0000 S   0  0  0  0  0  0  0  0  0
    3.6276   -1.2545    0.0000 O   0  0  0  0  0  0  0  0  0
    4.4526    0.1745    0.0000 O   0  0  0  0  0  0  0  0  0
    4.7546   -0.9525    0.0000 N   0  0  0  0  0  0  0  0  0
    5.4691   -0.5400    0.0000 C   0  0  0  0  0  0  0  0  0
    6.1835   -0.9525    0.0000 C   0  0  0  0  0  0  0  0  0
    6.8980   -0.5400    0.0000 C   0  0  0  0  0  0  0  0  0
    6.8980    0.2850    0.0000 C   0  0  0  0  0  0  0  0  0
    7.6125    0.6975    0.0000 N   0  0  0  0  0  0  0  0  0
    8.3269    0.2850    0.0000 C   0  0  0  0  0  0  0  0  0
    8.3269   -0.5400    0.0000 C   0  0  0  0  0  0  0  0  0
    7.6125   -0.9525    0.0000 C   0  0  0  0  0  0  0  0  0
    7.6125   -1.7775    0.0000 N   0  0  0  0  0  0  0  0  0
    8.3269   -2.1900    0.0000 C   0  0  0  0  0  0  0  0  0
    8.3269   -3.0150    0.0000 C   0  0  0  0  0  0  0  0  0
    7.6125   -3.4275    0.0000 N   0  0  0  0  0  0  0  0  0
    6.8980   -3.0150    0.0000 C   0  0  0  0  0  0  0  0  0
    6.8980   -2.1900    0.0000 C   0  0  0  0  0  0  0  0  0
    6.1835    0.6975    0.0000 C   0  0  0  0  0  0  0  0  0
    5.4691    0.2850    0.0000 C   0  0  0  0  0  0  0  0  0
    3.2394    0.6930    0.0000 C   0  0  0  0  0  0  0  0  0
    3.8525    1.2450    0.0000 C   0  0  0  0  0  0  0  0  0
    1.1949    0.1501    0.0000 C   0  0  0  0  0  0  0  0  0
    0.7824    0.8645    0.0000 C   0  0  0  0  0  0  0  0  0
  1  2  1  0  0  0  0
  2  3  4  0  0  0  0
  2 31  4  0  0  0  0
  3  4  4  0  0  0  0
  4  5  4  0  0  0  0
  4 28  4  0  0  0  0
  5  6  4  0  0  0  0
  5 30  4  0  0  0  0
  6  7  4  0  0  0  0
  7  8  1  0  0  0  0
  7 28  4  0  0  0  0
  8  9  2  0  0  0  0
  8 10  2  0  0  0  0
  8 11  1  0  0  0  0
 11 12  1  0  0  0  0
 12 13  4  0  0  0  0
 12 27  4  0  0  0  0
 13 14  4  0  0  0  0
 14 15  4  0  0  0  0
 14 19  4  0  0  0  0
 15 16  4  0  0  0  0
 15 26  4  0  0  0  0
 16 17  4  0  0  0  0
 17 18  4  0  0  0  0
 18 19  4  0  0  0  0
 19 20  1  0  0  0  0
 20 21  1  0  0  0  0
 20 25  1  0  0  0  0
 21 22  1  0  0  0  0
 22 23  1  0  0  0  0
 23 24  1  0  0  0  0
 24 25  1  0  0  0  0
 26 27  4  0  0  0  0
 28 29  1  0  0  0  0
 30 31  4  0  0  0  0
M  STY  1   1 DAT
M  SAL   1  1  16
M  SDT   1 MRV_IMPLICIT_H                                        
M  SDD   1     0.0000    0.0000    DR    ALL  0       0  
M  SED   1 IMPL_H1
M  END
>  <Name_Molregno>
158053

>  <5-HT1A>
6

>  <5-HT1B>
5.7

>  <5-HT1D>
6.2

>  <5-HT2A>
5.6

>  <5-HT2C>
5.6

>  <5-HT6>
8.7

>  <5-HT7>
5.1

>  <DOPAMINE D2>
5

>  <DOPAMINE D3>
5.8

$$$$
158169
  Marvin  02231216192D 0   1.00000     0.00000     0

 32 36  0  0  0  0  0  0  0  0999 V2000
    0.7068    2.2807    0.0000 Cl  0  0  0  0  0  0  0  0  0
    1.1193    1.5662    0.0000 C   0  0  0  0  0  0  0  0  0
    1.9443    1.5662    0.0000 C   0  0  0  0  0  0  0  0  0
    2.3568    0.8517    0.0000 C   0  0  0  0  0  0  0  0  0
    1.9443    0.1373    0.0000 C   0  0  0  0  0  0  0  0  0
    2.4963   -0.4758    0.0000 S   0  0  0  0  0  0  0  0  0
    3.2500   -0.1403    0.0000 C   0  0  0  0  0  0  0  0  0
    3.9645   -0.5528    0.0000 S   0  0  0  0  0  0  0  0  0
    3.5520   -1.2672    0.0000 O   0  0  0  0  0  0  0  0  0
    4.3770    0.1617    0.0000 O   0  0  0  0  0  0  0  0  0
    4.6789   -0.9653    0.0000 N   0  0  0  0  0  0  0  0  0
    5.3934   -0.5528    0.0000 C   0  0  0  0  0  0  0  0  0
    6.1079   -0.9653    0.0000 C   0  0  0  0  0  0  0  0  0
    6.8223   -0.5528    0.0000 C   0  0  0  0  0  0  0  0  0
    6.8223    0.2722    0.0000 C   0  0  0  0  0  0  0  0  0
    7.5368    0.6847    0.0000 N   0  0  0  0  0  0  0  0  0
    8.2513    0.2722    0.0000 C   0  0  0  0  0  0  0  0  0
    8.2513   -0.5528    0.0000 C   0  0  0  0  0  0  0  0  0
    7.5368   -0.9653    0.0000 C   0  0  0  0  0  0  0  0  0
    7.5368   -1.7903    0.0000 N   0  0  0  0  0  0  0  0  0
    8.2513   -2.2028    0.0000 C   0  0  0  0  0  0  0  0  0
    8.2513   -3.0278    0.0000 C   0  0  0  0  0  0  0  0  0
    7.5368   -3.4403    0.0000 N   0  0  0  0  0  0  0  0  0
    6.8223   -3.0278    0.0000 C   0  0  0  0  0  0  0  0  0
    6.8223   -2.2028    0.0000 C   0  0  0  0  0  0  0  0  0
    6.1079    0.6847    0.0000 C   0  0  0  0  0  0  0  0  0
    5.3934    0.2722    0.0000 C   0  0  0  0  0  0  0  0  0
    3.1638    0.6802    0.0000 C   0  0  0  0  0  0  0  0  0
    3.7768    1.2322    0.0000 C   0  0  0  0  0  0  0  0  0
    4.5615    0.9773    0.0000 C   0  0  0  0  0  0  0  0  0
    1.1193    0.1373    0.0000 C   0  0  0  0  0  0  0  0  0
    0.7068    0.8517    0.0000 C   0  0  0  0  0  0  0  0  0
  1  2  1  0  0  0  0
  2  3  4  0  0  0  0
  2 32  4  0  0  0  0
  3  4  4  0  0  0  0
  4  5  4  0  0  0  0
  4 28  4  0  0  0  0
  5  6  4  0  0  0  0
  5 31  4  0  0  0  0
  6  7  4  0  0  0  0
  7  8  1  0  0  0  0
  7 28  4  0  0  0  0
  8  9  2  0  0  0  0
  8 10  2  0  0  0  0
  8 11  1  0  0  0  0
 11 12  1  0  0  0  0
 12 13  4  0  0  0  0
 12 27  4  0  0  0  0
 13 14  4  0  0  0  0
 14 15  4  0  0  0  0
 14 19  4  0  0  0  0
 15 16  4  0  0  0  0
 15 26  4  0  0  0  0
 16 17  4  0  0  0  0
 17 18  4  0  0  0  0
 18 19  4  0  0  0  0
 19 20  1  0  0  0  0
 20 21  1  0  0  0  0
 20 25  1  0  0  0  0
 21 22  1  0  0  0  0
 22 23  1  0  0  0  0
 23 24  1  0  0  0  0
 24 25  1  0  0  0  0
 26 27  4  0  0  0  0
 28 29  1  0  0  0  0
 29 30  1  0  0  0  0
 31 32  4  0  0  0  0
M  STY  1   1 DAT
M  SAL   1  1  16
M  SDT   1 MRV_IMPLICIT_H                                        
M  SDD   1     0.0000    0.0000    DR    ALL  0       0  
M  SED   1 IMPL_H1
M  END
>  <Name_Molregno>
158169

>  <5-HT1A>
5.4

>  <5-HT1B>
5.5

>  <5-HT1D>
5.6

>  <5-HT2A>
5.9

>  <5-HT2C>
5.9

>  <5-HT6>
8.9

>  <5-HT7>
5.3

>  <DOPAMINE D2>
6

>  <DOPAMINE D3>
5

$$$$
178068
  Marvin  02231216192D 0   1.00000     0.00000     0

 32 35  0  0  0  0  0  0  0  0999 V2000
    3.7835    3.5848    0.0000 O   0  0  0  0  0  0  0  0  0
    3.0690    3.9973    0.0000 C   0  0  0  0  0  0  0  0  0
    3.7835    2.7598    0.0000 C   0  0  0  0  0  0  0  0  0
    4.4980    2.3473    0.0000 C   0  0  0  0  0  0  0  0  0
    4.4980    1.5223    0.0000 C   0  0  0  0  0  0  0  0  0
    3.7835    1.1098    0.0000 C   0  0  0  0  0  0  0  0  0
    3.7835    0.2848    0.0000 N   0  0  0  0  0  0  0  0  0
    4.4980   -0.1277    0.0000 C   0  0  0  0  0  0  0  0  0
    5.2124    0.2848    0.0000 O   0  0  0  0  0  0  0  0  0
    4.4980   -0.9527    0.0000 N   0  0  0  0  0  0  0  0  0
    5.2124   -1.3652    0.0000 C   0  0  0  0  0  0  0  0  0
    5.2124   -2.1902    0.0000 C   0  0  0  0  0  0  0  0  0
    4.4980   -2.6027    0.0000 N   0  0  0  0  0  0  0  0  0
    3.7835   -2.1902    0.0000 C   0  0  0  0  0  0  0  0  0
    3.7835   -1.3652    0.0000 C   0  0  0  0  0  0  0  0  0
    4.4980   -3.4277    0.0000 C   0  0  0  0  0  0  0  0  0
    5.2124   -3.8402    0.0000 C   0  0  0  0  0  0  0  0  0
    5.2124   -4.6652    0.0000 C   0  0  0  0  0  0  0  0  0
    4.4980   -5.0777    0.0000 C   0  0  0  0  0  0  0  0  0
    3.7835   -4.6652    0.0000 C   0  0  0  0  0  0  0  0  0
    3.7835   -3.8402    0.0000 C   0  0  0  0  0  0  0  0  0
    3.0690   -3.4277    0.0000 O   0  0  0  0  0  0  0  0  0
    2.3546   -3.8402    0.0000 C   0  0  0  0  0  0  0  0  0
    3.0690    1.5223    0.0000 C   0  0  0  0  0  0  0  0  0
    3.0690    2.3473    0.0000 C   0  0  0  0  0  0  0  0  0
    2.3546    2.7598    0.0000 N   0  0  0  0  0  0  0  0  0
    1.6401    2.3473    0.0000 C   0  0  0  0  0  0  0  0  0
    0.9256    2.7598    0.0000 C   0  0  0  0  0  0  0  0  0
    0.9256    3.5848    0.0000 N   0  0  0  0  0  0  0  0  0
    1.6401    3.9973    0.0000 C   0  0  0  0  0  0  0  0  0
    2.3546    3.5848    0.0000 C   0  0  0  0  0  0  0  0  0
    0.2111    3.9973    0.0000 C   0  0  0  0  0  0  0  0  0
  1  2  1  0  0  0  0
  1  3  1  0  0  0  0
  3  4  4  0  0  0  0
  3 25  4  0  0  0  0
  4  5  4  0  0  0  0
  5  6  4  0  0  0  0
  6  7  1  0  0  0  0
  6 24  4  0  0  0  0
  7  8  1  0  0  0  0
  8  9  2  0  0  0  0
  8 10  1  0  0  0  0
 10 11  1  0  0  0  0
 10 15  1  0  0  0  0
 11 12  1  0  0  0  0
 12 13  1  0  0  0  0
 13 14  1  0  0  0  0
 13 16  1  0  0  0  0
 14 15  1  0  0  0  0
 16 17  4  0  0  0  0
 16 21  4  0  0  0  0
 17 18  4  0  0  0  0
 18 19  4  0  0  0  0
 19 20  4  0  0  0  0
 20 21  4  0  0  0  0
 21 22  1  0  0  0  0
 22 23  1  0  0  0  0
 24 25  4  0  0  0  0
 25 26  1  0  0  0  0
 26 27  1  0  0  0  0
 26 31  1  0  0  0  0
 27 28  1  0  0  0  0
 28 29  1  0  0  0  0
 29 30  1  0  0  0  0
 29 32  1  0  0  0  0
 30 31  1  0  0  0  0
M  END
>  <Name_Molregno>
178068

>  <5-HT1A>
6.17

>  <5-HT1B>
8.44

>  <5-HT1D>
7.02

>  <5-HT2A>
5.17

>  <5-HT2C>
5.71

>  <5-HT6>
5.62

>  <5-HT7>
5.85

>  <DOPAMINE D1>
5

>  <DOPAMINE D2>
5

>  <DOPAMINE D3>
5

>  <DOPAMINE D4>
5

>  <DOPAMINE D5>
5

>  <HISTAMINE H1>
5

>  <Muscarinic acetylcholine receptor M1>
5

>  <Muscarinic acetylcholine receptor M2>
5

>  <Muscarinic acetylcholine receptor M3>
5

>  <Muscarinic acetylcholine receptor M4>
5

>  <Muscarinic acetylcholine receptor M5>
5

$$$$
190074
  Marvin  02231216192D 0   1.00000     0.00000     0

 18 19  0  0  1  0  0  0  0  0999 V2000
   -0.0067   -0.0070    0.0000 O   0  0  0  0  0  0  0  0  0
    0.7077    0.4055    0.0000 C   0  0  0  0  0  0  0  0  0
    1.4222   -0.0070    0.0000 C   0  0  0  0  0  0  0  0  0
    1.4222   -0.8320    0.0000 O   0  0  0  0  0  0  0  0  0
    2.1367    0.4055    0.0000 C   0  0  0  0  0  0  0  0  0
    2.8511   -0.0070    0.0000 N   0  0  0  0  0  0  0  0  0
    3.5656    0.4055    0.0000 C   0  0  0  0  0  0  0  0  0
    4.2801   -0.0070    0.0000 C   0  0  0  0  0  0  0  0  0
    3.5656    1.2305    0.0000 C   0  0  0  0  0  0  0  0  0
   -0.7212    0.4055    0.0000 C   0  0  0  0  0  0  0  0  0
   -1.4357   -0.0070    0.0000 C   0  0  0  0  0  0  0  0  0
   -2.1502    0.4055    0.0000 C   0  0  0  0  0  0  0  0  0
   -2.7633   -0.1465    0.0000 N   0  0  0  0  0  0  0  0  0
   -2.4277   -0.9002    0.0000 C   0  0  0  0  0  0  0  0  0
   -1.6072   -0.8139    0.0000 C   0  0  0  0  0  0  0  0  0
   -2.1502    1.2305    0.0000 C   0  0  0  0  0  0  0  0  0
   -1.4357    1.6430    0.0000 C   0  0  0  0  0  0  0  0  0
   -0.7212    1.2305    0.0000 C   0  0  0  0  0  0  0  0  0
  1  2  1  0  0  0  0
  1 10  1  0  0  0  0
  2  3  1  0  0  0  0
  3  4  1  0  0  0  0
  3  5  1  0  0  0  0
  5  6  1  0  0  0  0
  6  7  1  0  0  0  0
  7  8  1  0  0  0  0
  7  9  1  0  0  0  0
 10 11  4  0  0  0  0
 10 18  4  0  0  0  0
 11 12  4  0  0  0  0
 11 15  4  0  0  0  0
 12 13  4  0  0  0  0
 12 16  4  0  0  0  0
 13 14  4  0  0  0  0
 14 15  4  0  0  0  0
 16 17  4  0  0  0  0
 17 18  4  0  0  0  0
M  STY  1   1 DAT
M  SAL   1  1  13
M  SDT   1 MRV_IMPLICIT_H                                        
M  SDD   1     0.0000    0.0000    DR    ALL  0       0  
M  SED   1 IMPL_H1
M  END
>  <Name_Molregno>
190074

>  <5-HT1A>
7.39

>  <5-HT1B>
5.39

>  <5-HT1D>
5.11

>  <5-HT1E>
5

>  <5-HT2A>
5.03

>  <5-HT2C>
5

>  <5-HT7>
5

>  <Beta-1>
8.96

>  <Beta-2>
9.04

>  <Serotonin transporter>
5.15

$$$$
199111
  Marvin  02231216192D 0   1.00000     0.00000     0

 14 15  0  0  1  0  0  0  0  0999 V2000
   -0.1663    0.8600    0.0000 N   0  0  0  0  0  0  0  0  0
    0.5482    0.4475    0.0000 C   0  0  0  0  0  0  0  0  0
    1.2627    0.8600    0.0000 C   0  0  0  0  0  0  0  0  0
    1.2627    1.6850    0.0000 C   0  0  0  0  0  0  0  0  0
    1.9771    2.0975    0.0000 C   0  0  0  0  0  0  0  0  0
    2.6916    1.6850    0.0000 C   0  0  0  0  0  0  0  0  0
    2.6916    0.8600    0.0000 C   0  0  0  0  0  0  0  0  0
    1.9771    0.4475    0.0000 C   0  0  0  0  0  0  0  0  0
    1.9771   -0.3775    0.0000 N   0  0  0  0  0  0  0  0  0
    2.6916   -0.7900    0.0000 C   0  0  0  0  0  0  0  0  0
    2.6916   -1.6150    0.0000 C   0  0  0  0  0  0  0  0  0
    1.2627   -0.7900    0.0000 C   0  0  0  0  0  0  0  0  0
    0.5482    2.0975    0.0000 C   0  0  0  0  0  0  0  0  0
   -0.1663    1.6850    0.0000 C   0  0  0  0  0  0  0  0  0
  1  2  4  0  0  0  0
  1 14  4  0  0  0  0
  2  3  4  0  0  0  0
  3  4  4  0  0  0  0
  3  8  1  0  0  0  0
  4  5  1  0  0  0  0
  4 13  4  0  0  0  0
  5  6  1  0  0  0  0
  6  7  1  0  0  0  0
  7  8  1  0  0  0  0
  8  9  1  0  0  0  0
  9 10  1  0  0  0  0
  9 12  1  0  0  0  0
 10 11  1  0  0  0  0
 13 14  4  0  0  0  0
M  END
>  <Name_Molregno>
199111

>  <5-HT1A>
5

>  <5-HT1B>
5

>  <5-HT2C>
5

>  <5-HT3>
5

>  <5-HT5>
5

>  <5-HT6>
5

>  <5-HT7>
5

>  <Beta-1>
5

>  <Beta-2>
5

>  <DOPAMINE D1>
5

>  <DOPAMINE D2>
5

>  <DOPAMINE D3>
5

>  <DOPAMINE D4>
5

>  <DOPAMINE D5>
5

>  <HISTAMINE H1>
5

>  <HISTAMINE H2>
5

>  <Muscarinic acetylcholine receptor M1>
5

>  <Muscarinic acetylcholine receptor M2>
5

>  <Muscarinic acetylcholine receptor M3>
5

>  <Muscarinic acetylcholine receptor M4>
5

>  <Muscarinic acetylcholine receptor M5>
5

$$$$
217302
  Marvin  02231216192D 0   1.00000     0.00000     0

 31 35  0  0  0  0  0  0  0  0999 V2000
   -8.3842    0.5579    0.0000 F   0  0  0  0  0  0  0  0  0
   -8.5558   -0.2490    0.0000 C   0  0  0  0  0  0  0  0  0
   -7.9427   -0.8011    0.0000 C   0  0  0  0  0  0  0  0  0
   -8.1142   -1.6080    0.0000 C   0  0  0  0  0  0  0  0  0
   -8.8988   -1.8630    0.0000 C   0  0  0  0  0  0  0  0  0
   -8.8988   -2.6880    0.0000 N   0  0  0  0  0  0  0  0  0
   -8.1142   -2.9429    0.0000 C   0  0  0  0  0  0  0  0  0
   -7.6293   -2.2755    0.0000 C   0  0  0  0  0  0  0  0  0
   -6.8043   -2.2755    0.0000 C   0  0  0  0  0  0  0  0  0
   -6.3918   -1.5610    0.0000 C   0  0  0  0  0  0  0  0  0
   -5.5668   -1.5610    0.0000 C   0  0  0  0  0  0  0  0  0
   -5.1543   -2.2755    0.0000 N   0  0  0  0  0  0  0  0  0
   -5.5668   -2.9900    0.0000 C   0  0  0  0  0  0  0  0  0
   -6.3918   -2.9900    0.0000 C   0  0  0  0  0  0  0  0  0
   -4.3293   -2.2755    0.0000 C   0  0  0  0  0  0  0  0  0
   -3.9168   -1.5610    0.0000 C   0  0  0  0  0  0  0  0  0
   -3.0918   -1.5610    0.0000 C   0  0  0  0  0  0  0  0  0
   -2.6793   -0.8465    0.0000 C   0  0  0  0  0  0  0  0  0
   -1.8543   -0.8465    0.0000 N   0  0  0  0  0  0  0  0  0
   -1.3694   -1.5140    0.0000 C   0  0  0  0  0  0  0  0  0
   -1.6243   -2.2986    0.0000 O   0  0  0  0  0  0  0  0  0
   -0.5847   -1.2590    0.0000 C   0  0  0  0  0  0  0  0  0
   -0.5847   -0.4340    0.0000 C   0  0  0  0  0  0  0  0  0
    0.1297   -0.0215    0.0000 C   0  0  0  0  0  0  0  0  0
    0.8442   -0.4340    0.0000 C   0  0  0  0  0  0  0  0  0
    0.8442   -1.2590    0.0000 C   0  0  0  0  0  0  0  0  0
    0.1297   -1.6715    0.0000 C   0  0  0  0  0  0  0  0  0
   -1.3694   -0.1791    0.0000 C   0  0  0  0  0  0  0  0  0
   -1.6243    0.6055    0.0000 O   0  0  0  0  0  0  0  0  0
   -9.5119   -1.3110    0.0000 C   0  0  0  0  0  0  0  0  0
   -9.3404   -0.5040    0.0000 C   0  0  0  0  0  0  0  0  0
  1  2  1  0  0  0  0
  2  3  4  0  0  0  0
  2 31  4  0  0  0  0
  3  4  4  0  0  0  0
  4  5  4  0  0  0  0
  4  8  4  0  0  0  0
  5  6  4  0  0  0  0
  5 30  4  0  0  0  0
  6  7  4  0  0  0  0
  7  8  4  0  0  0  0
  8  9  1  0  0  0  0
  9 10  1  0  0  0  0
  9 14  2  0  0  0  0
 10 11  1  0  0  0  0
 11 12  1  0  0  0  0
 12 13  1  0  0  0  0
 12 15  1  0  0  0  0
 13 14  1  0  0  0  0
 15 16  1  0  0  0  0
 16 17  1  0  0  0  0
 17 18  1  0  0  0  0
 18 19  1  0  0  0  0
 19 20  1  0  0  0  0
 19 28  1  0  0  0  0
 20 21  2  0  0  0  0
 20 22  1  0  0  0  0
 22 23  4  0  0  0  0
 22 27  4  0  0  0  0
 23 24  4  0  0  0  0
 23 28  1  0  0  0  0
 24 25  4  0  0  0  0
 25 26  4  0  0  0  0
 26 27  4  0  0  0  0
 28 29  2  0  0  0  0
 30 31  4  0  0  0  0
M  STY  1   1 DAT
M  SAL   1  1   6
M  SDT   1 MRV_IMPLICIT_H                                        
M  SDD   1     0.0000    0.0000    DR    ALL  0       0  
M  SED   1 IMPL_H1
M  END
>  <Name_Molregno>
217302

>  <5-HT1A>
8.6

>  <5-HT2A>
7

>  <5-HT2C>
7.4

>  <5-HT6>
6.4

>  <5-HT7>
7

>  <DOPAMINE D3>
9.1

>  <Serotonin transporter>
9.1

$$$$
230589
  Marvin  02231216192D 0   1.00000     0.00000     0

 21 23  0  0  1  0  0  0  0  0999 V2000
    1.8607    2.5785    0.0000 S   0  0  0  0  0  0  0  0  0
    2.1156    3.3632    0.0000 C   0  0  0  0  0  0  0  0  0
    2.9406    3.3632    0.0000 C   0  0  0  0  0  0  0  0  0
    3.1956    2.5785    0.0000 C   0  0  0  0  0  0  0  0  0
    2.5281    2.0936    0.0000 C   0  0  0  0  0  0  0  0  0
    2.5281    1.2686    0.0000 C   0  0  0  0  0  0  0  0  0
    1.8136    0.8561    0.0000 O   0  0  0  0  0  0  0  0  0
    1.8136    0.0311    0.0000 C   0  0  0  0  0  0  0  0  0
    1.0992   -0.3814    0.0000 C   0  0  0  0  0  0  0  0  0
    1.0992   -1.2064    0.0000 C   0  0  0  0  0  0  0  0  0
    1.8136   -1.6189    0.0000 C   0  0  0  0  0  0  0  0  0
    2.5281   -1.2064    0.0000 C   0  0  0  0  0  0  0  0  0
    2.5281   -0.3814    0.0000 C   0  0  0  0  0  0  0  0  0
    0.3847   -1.6189    0.0000 C   0  0  0  0  0  0  0  0  0
   -0.3298   -1.2064    0.0000 C   0  0  0  0  0  0  0  0  0
   -0.3298   -0.3814    0.0000 C   0  0  0  0  0  0  0  0  0
    0.3847    0.0311    0.0000 C   0  0  0  0  0  0  0  0  0
    3.2426    0.8561    0.0000 C   0  0  0  0  0  0  0  0  0
    3.9571    1.2686    0.0000 C   0  0  0  0  0  0  0  0  0
    4.6715    0.8561    0.0000 N   0  0  0  0  0  0  0  0  0
    4.6715    0.0311    0.0000 C   0  0  0  0  0  0  0  0  0
  1  2  4  0  0  0  0
  1  5  4  0  0  0  0
  2  3  4  0  0  0  0
  3  4  4  0  0  0  0
  4  5  4  0  0  0  0
  5  6  1  0  0  0  0
  6  7  1  0  0  0  0
  6 18  1  0  0  0  0
  7  8  1  0  0  0  0
  8  9  4  0  0  0  0
  8 13  4  0  0  0  0
  9 10  4  0  0  0  0
  9 17  4  0  0  0  0
 10 11  4  0  0  0  0
 10 14  4  0  0  0  0
 11 12  4  0  0  0  0
 12 13  4  0  0  0  0
 14 15  4  0  0  0  0
 15 16  4  0  0  0  0
 16 17  4  0  0  0  0
 18 19  1  0  0  0  0
 19 20  1  0  0  0  0
 20 21  1  0  0  0  0
M  END
>  <Name_Molregno>
230589

>  <5-HT1A>
5.3

>  <5-HT1B>
5.4

>  <5-HT1D>
5.52

>  <5-HT1E>
5.43

>  <5-HT2A>
6.3

>  <5-HT2C>
6.04

>  <5-HT6>
6.38

>  <5-HT7>
5.65

>  <Alpha-2A>
6

>  <DOPAMINE D2>
5

>  <Dopamine transporter>
6.24

>  <HISTAMINE H1>
5.64

>  <Muscarinic acetylcholine receptor M1>
6

>  <Muscarinic acetylcholine receptor M2>
6

>  <Norepinephrine transporter>
7.53

>  <Serotonin transporter>
8.48

$$$$
263477
  Marvin  02231216192D 0   1.00000     0.00000     0

 31 35  0  0  1  0  0  0  0  0999 V2000
    8.0627   -4.1606    0.0000 Cl  0  0  0  0  0  0  0  0  0
    8.0613   -3.3356    0.0000 C   0  0  0  0  0  0  0  0  0
    7.3435   -2.9231    0.0000 C   0  0  0  0  0  0  0  0  0
    7.3435   -2.0981    0.0000 C   0  0  0  0  0  0  0  0  0
    8.0613   -1.6856    0.0000 C   0  0  0  0  0  0  0  0  0
    7.7560   -0.8284    0.0000 N   0  0  0  0  0  0  0  0  0
    6.9310   -0.8284    0.0000 C   0  0  0  0  0  0  0  0  0
    6.4536   -0.1556    0.0000 O   0  0  0  0  0  0  0  0  0
    6.6310   -1.6856    0.0000 C   0  0  0  0  0  0  0  0  0
    5.9185   -2.0981    0.0000 C   0  0  0  0  0  0  0  0  0
    5.9185   -2.9231    0.0000 C   0  0  0  0  0  0  0  0  0
    6.6310   -3.3356    0.0000 C   0  0  0  0  0  0  0  0  0
    5.9954   -1.1596    0.0000 C   0  0  0  0  0  0  0  0  0
    5.2221   -1.4470    0.0000 C   0  0  0  0  0  0  0  0  0
    4.5865   -0.9210    0.0000 C   0  0  0  0  0  0  0  0  0
    3.8132   -1.2084    0.0000 C   0  0  0  0  0  0  0  0  0
    3.1776   -0.6824    0.0000 N   0  0  0  0  0  0  0  0  0
    2.4043   -0.9699    0.0000 C   0  0  0  0  0  0  0  0  0
    1.7687   -0.4439    0.0000 C   0  0  0  0  0  0  0  0  0
    1.9065    0.3695    0.0000 C   0  0  0  0  0  0  0  0  0
    2.6798    0.6570    0.0000 C   0  0  0  0  0  0  0  0  0
    3.3154    0.1310    0.0000 C   0  0  0  0  0  0  0  0  0
    1.2709    0.8955    0.0000 C   0  0  0  0  0  0  0  0  0
    0.4976    0.6081    0.0000 C   0  0  0  0  0  0  0  0  0
   -0.1380    1.1341    0.0000 C   0  0  0  0  0  0  0  0  0
   -0.0003    1.9475    0.0000 C   0  0  0  0  0  0  0  0  0
   -0.6358    2.4735    0.0000 Cl  0  0  0  0  0  0  0  0  0
    0.7731    2.2350    0.0000 C   0  0  0  0  0  0  0  0  0
    1.4086    1.7090    0.0000 C   0  0  0  0  0  0  0  0  0
    8.7738   -2.0981    0.0000 C   0  0  0  0  0  0  0  0  0
    8.7738   -2.9231    0.0000 C   0  0  0  0  0  0  0  0  0
  1  2  1  0  0  0  0
  2  3  4  0  0  0  0
  2 31  4  0  0  0  0
  3  4  4  0  0  0  0
  3 12  1  0  0  0  0
  4  5  4  0  0  0  0
  4  9  1  0  0  0  0
  5  6  1  0  0  0  0
  5 30  4  0  0  0  0
  6  7  1  0  0  0  0
  7  8  2  0  0  0  0
  7  9  1  0  0  0  0
  9 10  1  0  0  0  0
  9 13  1  0  0  0  0
 10 11  1  0  0  0  0
 11 12  1  0  0  0  0
 13 14  1  0  0  0  0
 14 15  1  0  0  0  0
 15 16  1  0  0  0  0
 16 17  1  0  0  0  0
 17 18  1  0  0  0  0
 17 22  1  0  0  0  0
 18 19  1  0  0  0  0
 19 20  1  0  0  0  0
 20 21  2  0  0  0  0
 20 23  1  0  0  0  0
 21 22  1  0  0  0  0
 23 24  4  0  0  0  0
 23 29  4  0  0  0  0
 24 25  4  0  0  0  0
 25 26  4  0  0  0  0
 26 27  1  0  0  0  0
 26 28  4  0  0  0  0
 28 29  4  0  0  0  0
 30 31  4  0  0  0  0
M  END
>  <Name_Molregno>
263477

>  <5-HT7>
8.14

$$$$
266712
  Marvin  02231216192D 0   1.00000     0.00000     0

 18 19  0  0  0  0  0  0  0  0999 V2000
    0.0284   -0.4909    0.0000 S   0  0  0  0  0  0  0  0  0
    0.7429   -0.0784    0.0000 C   0  0  0  0  0  0  0  0  0
    1.4574   -0.4909    0.0000 C   0  0  0  0  0  0  0  0  0
    2.1719   -0.0784    0.0000 N   0  0  0  0  0  0  0  0  0
    2.8863   -0.4909    0.0000 C   0  0  0  0  0  0  0  0  0
    2.1719    0.7466    0.0000 C   0  0  0  0  0  0  0  0  0
   -0.6860   -0.0784    0.0000 C   0  0  0  0  0  0  0  0  0
   -1.4005   -0.4909    0.0000 N   0  0  0  0  0  0  0  0  0
   -2.1150   -0.0784    0.0000 C   0  0  0  0  0  0  0  0  0
   -2.1150    0.7466    0.0000 C   0  0  0  0  0  0  0  0  0
   -1.4005    1.1591    0.0000 C   0  0  0  0  0  0  0  0  0
   -0.6860    0.7466    0.0000 C   0  0  0  0  0  0  0  0  0
   -2.8294   -0.4909    0.0000 C   0  0  0  0  0  0  0  0  0
   -2.8294   -1.3159    0.0000 C   0  0  0  0  0  0  0  0  0
   -3.5439   -1.7284    0.0000 C   0  0  0  0  0  0  0  0  0
   -4.2584   -1.3159    0.0000 C   0  0  0  0  0  0  0  0  0
   -4.2584   -0.4909    0.0000 C   0  0  0  0  0  0  0  0  0
   -3.5439   -0.0784    0.0000 C   0  0  0  0  0  0  0  0  0
  1  2  1  0  0  0  0
  1  7  1  0  0  0  0
  2  3  1  0  0  0  0
  3  4  1  0  0  0  0
  4  5  1  0  0  0  0
  4  6  1  0  0  0  0
  7  8  4  0  0  0  0
  7 12  4  0  0  0  0
  8  9  4  0  0  0  0
  9 10  4  0  0  0  0
  9 13  1  0  0  0  0
 10 11  4  0  0  0  0
 11 12  4  0  0  0  0
 13 14  1  0  0  0  0
 13 18  1  0  0  0  0
 14 15  1  0  0  0  0
 15 16  1  0  0  0  0
 16 17  1  0  0  0  0
 17 18  1  0  0  0  0
M  END
>  <Name_Molregno>
266712

>  <5-HT7>
9.15

$$$$
266765
  Marvin  02231216192D 0   1.00000     0.00000     0

 13 13  0  0  0  0  0  0  0  0999 V2000
   -0.0714    1.0716    0.0000 Br  0  0  0  0  0  0  0  0  0
    0.6430    0.6591    0.0000 C   0  0  0  0  0  0  0  0  0
    1.3575    1.0716    0.0000 N   0  0  0  0  0  0  0  0  0
    2.0720    0.6591    0.0000 C   0  0  0  0  0  0  0  0  0
    2.7865    1.0716    0.0000 S   0  0  0  0  0  0  0  0  0
    3.5009    0.6591    0.0000 C   0  0  0  0  0  0  0  0  0
    4.2154    1.0716    0.0000 C   0  0  0  0  0  0  0  0  0
    4.9299    0.6591    0.0000 N   0  0  0  0  0  0  0  0  0
    5.6443    1.0716    0.0000 C   0  0  0  0  0  0  0  0  0
    4.9299   -0.1659    0.0000 C   0  0  0  0  0  0  0  0  0
    2.0720   -0.1659    0.0000 C   0  0  0  0  0  0  0  0  0
    1.3575   -0.5784    0.0000 C   0  0  0  0  0  0  0  0  0
    0.6430   -0.1659    0.0000 C   0  0  0  0  0  0  0  0  0
  1  2  1  0  0  0  0
  2  3  4  0  0  0  0
  2 13  4  0  0  0  0
  3  4  4  0  0  0  0
  4  5  1  0  0  0  0
  4 11  4  0  0  0  0
  5  6  1  0  0  0  0
  6  7  1  0  0  0  0
  7  8  1  0  0  0  0
  8  9  1  0  0  0  0
  8 10  1  0  0  0  0
 11 12  4  0  0  0  0
 12 13  4  0  0  0  0
M  END
>  <Name_Molregno>
266765

>  <5-HT7>
7.43

$$$$
266767
  Marvin  02231216192D 0   1.00000     0.00000     0

 18 19  0  0  0  0  0  0  0  0999 V2000
    0.0284   -0.4909    0.0000 S   0  0  0  0  0  0  0  0  0
    0.7429   -0.0784    0.0000 C   0  0  0  0  0  0  0  0  0
    1.4574   -0.4909    0.0000 C   0  0  0  0  0  0  0  0  0
    2.1719   -0.0784    0.0000 N   0  0  0  0  0  0  0  0  0
    2.8863   -0.4909    0.0000 C   0  0  0  0  0  0  0  0  0
    2.1719    0.7466    0.0000 C   0  0  0  0  0  0  0  0  0
   -0.6860   -0.0784    0.0000 C   0  0  0  0  0  0  0  0  0
   -1.4005   -0.4909    0.0000 N   0  0  0  0  0  0  0  0  0
   -2.1150   -0.0784    0.0000 C   0  0  0  0  0  0  0  0  0
   -2.1150    0.7466    0.0000 C   0  0  0  0  0  0  0  0  0
   -1.4005    1.1591    0.0000 C   0  0  0  0  0  0  0  0  0
   -0.6860    0.7466    0.0000 C   0  0  0  0  0  0  0  0  0
   -2.8294   -0.4909    0.0000 C   0  0  0  0  0  0  0  0  0
   -2.8294   -1.3159    0.0000 C   0  0  0  0  0  0  0  0  0
   -3.5439   -1.7284    0.0000 C   0  0  0  0  0  0  0  0  0
   -4.2584   -1.3159    0.0000 C   0  0  0  0  0  0  0  0  0
   -4.2584   -0.4909    0.0000 C   0  0  0  0  0  0  0  0  0
   -3.5439   -0.0784    0.0000 C   0  0  0  0  0  0  0  0  0
  1  2  1  0  0  0  0
  1  7  1  0  0  0  0
  2  3  1  0  0  0  0
  3  4  1  0  0  0  0
  4  5  1  0  0  0  0
  4  6  1  0  0  0  0
  7  8  4  0  0  0  0
  7 12  4  0  0  0  0
  8  9  4  0  0  0  0
  9 10  4  0  0  0  0
  9 13  1  0  0  0  0
 10 11  4  0  0  0  0
 11 12  4  0  0  0  0
 13 14  4  0  0  0  0
 13 18  4  0  0  0  0
 14 15  4  0  0  0  0
 15 16  4  0  0  0  0
 16 17  4  0  0  0  0
 17 18  4  0  0  0  0
M  END
>  <Name_Molregno>
266767

>  <5-HT7>
8.21

$$$$
266913
  Marvin  02231216192D 0   1.00000     0.00000     0

 17 18  0  0  0  0  0  0  0  0999 V2000
    0.0038   -1.3883    0.0000 S   0  0  0  0  0  0  0  0  0
   -0.8031   -1.5598    0.0000 C   0  0  0  0  0  0  0  0  0
   -1.2156   -0.8454    0.0000 C   0  0  0  0  0  0  0  0  0
   -0.6636   -0.2323    0.0000 N   0  0  0  0  0  0  0  0  0
    0.0901   -0.5678    0.0000 C   0  0  0  0  0  0  0  0  0
    0.8045   -0.1553    0.0000 S   0  0  0  0  0  0  0  0  0
    1.5190   -0.5678    0.0000 C   0  0  0  0  0  0  0  0  0
    2.2335   -0.1553    0.0000 C   0  0  0  0  0  0  0  0  0
    2.9480   -0.5678    0.0000 N   0  0  0  0  0  0  0  0  0
    3.6624   -0.1553    0.0000 C   0  0  0  0  0  0  0  0  0
    2.9480   -1.3928    0.0000 C   0  0  0  0  0  0  0  0  0
   -2.0361   -0.7591    0.0000 C   0  0  0  0  0  0  0  0  0
   -2.5210   -1.4266    0.0000 C   0  0  0  0  0  0  0  0  0
   -3.3415   -1.3403    0.0000 C   0  0  0  0  0  0  0  0  0
   -3.6771   -0.5867    0.0000 C   0  0  0  0  0  0  0  0  0
   -3.1922    0.0808    0.0000 C   0  0  0  0  0  0  0  0  0
   -2.3717   -0.0055    0.0000 C   0  0  0  0  0  0  0  0  0
  1  2  4  0  0  0  0
  1  5  4  0  0  0  0
  2  3  4  0  0  0  0
  3  4  4  0  0  0  0
  3 12  1  0  0  0  0
  4  5  4  0  0  0  0
  5  6  1  0  0  0  0
  6  7  1  0  0  0  0
  7  8  1  0  0  0  0
  8  9  1  0  0  0  0
  9 10  1  0  0  0  0
  9 11  1  0  0  0  0
 12 13  4  0  0  0  0
 12 17  4  0  0  0  0
 13 14  4  0  0  0  0
 14 15  4  0  0  0  0
 15 16  4  0  0  0  0
 16 17  4  0  0  0  0
M  END
>  <Name_Molregno>
266913

>  <5-HT7>
7.92

$$$$
274329
  Marvin  02231216192D 0   1.00000     0.00000     0

 36 42  0  0  1  0  0  0  0  0999 V2000
   -3.1319    1.5769    0.0000 O   0  0  0  0  0  0  0  0  0
   -3.5444    0.8624    0.0000 C   0  0  0  0  0  0  0  0  0
   -3.1319    0.1480    0.0000 C   0  0  0  0  0  0  0  0  0
   -2.3069    0.1480    0.0000 C   0  0  0  0  0  0  0  0  0
   -1.8944    0.8624    0.0000 N   0  0  0  0  0  0  0  0  0
   -1.0694    0.8624    0.0000 C   0  0  0  0  0  0  0  0  0
   -0.6569    0.1480    0.0000 C   0  0  0  0  0  0  0  0  0
   -1.0694   -0.5665    0.0000 N   0  0  0  0  0  0  0  0  0
   -1.8944   -0.5665    0.0000 C   0  0  0  0  0  0  0  0  0
   -2.3069   -1.2810    0.0000 C   0  0  0  0  0  0  0  0  0
   -3.1319   -1.2810    0.0000 C   0  0  0  0  0  0  0  0  0
   -3.5444   -1.9955    0.0000 N   0  0  0  0  0  0  0  0  0
   -4.3694   -1.9955    0.0000 C   0  0  0  0  0  0  0  0  0
   -4.7819   -1.2810    0.0000 N   0  0  0  0  0  0  0  0  0
   -4.3694   -0.5665    0.0000 C   0  0  0  0  0  0  0  0  0
   -3.5444   -0.5665    0.0000 C   0  0  0  0  0  0  0  0  0
   -4.7819    0.1480    0.0000 C   0  0  0  0  0  0  0  0  0
   -4.3694    0.8624    0.0000 C   0  0  0  0  0  0  0  0  0
   -4.7819    1.5769    0.0000 C   0  0  0  0  0  0  0  0  0
   -5.6069    1.5769    0.0000 C   0  0  0  0  0  0  0  0  0
   -6.0194    0.8624    0.0000 C   0  0  0  0  0  0  0  0  0
   -5.6069    0.1480    0.0000 C   0  0  0  0  0  0  0  0  0
   -1.8944   -1.9955    0.0000 C   0  0  0  0  0  0  0  0  0
   -2.3069   -2.7099    0.0000 O   0  0  0  0  0  0  0  0  0
   -1.0694   -1.9955    0.0000 N   0  0  0  0  0  0  0  0  0
   -0.6569   -2.7099    0.0000 C   0  0  0  0  0  0  0  0  0
    0.1681   -2.7099    0.0000 C   0  0  0  0  0  0  0  0  0
    0.5806   -3.4244    0.0000 C   0  0  0  0  0  0  0  0  0
    0.1681   -4.1389    0.0000 C   0  0  0  0  0  0  0  0  0
   -0.6569   -4.1389    0.0000 C   0  0  0  0  0  0  0  0  0
   -1.0694   -3.4244    0.0000 C   0  0  0  0  0  0  0  0  0
   -1.8944   -3.4244    0.0000 N   0  0  0  0  0  0  0  0  0
    0.1681    0.1480    0.0000 C   0  0  0  0  0  0  0  0  0
    0.5806    0.8624    0.0000 C   0  0  0  0  0  0  0  0  0
    0.1681    1.5769    0.0000 C   0  0  0  0  0  0  0  0  0
   -0.6569    1.5769    0.0000 C   0  0  0  0  0  0  0  0  0
  1  2  1  0  0  0  0
  2  3  4  0  0  0  0
  2 18  4  0  0  0  0
  3  4  1  0  0  0  0
  3 16  4  0  0  0  0
  4  5  2  0  0  0  0
  4  9  1  0  0  0  0
  5  6  1  0  0  0  0
  6  7  1  0  0  0  0
  6 36  1  0  0  0  0
  7  8  1  0  0  0  0
  7 33  1  0  0  0  0
  8  9  1  0  0  0  0
  9 10  2  0  0  0  0
 10 11  1  0  0  0  0
 10 23  1  0  0  0  0
 11 12  4  0  0  0  0
 11 16  4  0  0  0  0
 12 13  4  0  0  0  0
 13 14  4  0  0  0  0
 14 15  4  0  0  0  0
 15 16  4  0  0  0  0
 15 17  4  0  0  0  0
 17 18  4  0  0  0  0
 17 22  4  0  0  0  0
 18 19  4  0  0  0  0
 19 20  4  0  0  0  0
 20 21  4  0  0  0  0
 21 22  4  0  0  0  0
 23 24  2  0  0  0  0
 23 25  1  0  0  0  0
 25 26  1  0  0  0  0
 26 27  1  0  0  0  0
 26 31  1  0  0  0  0
 27 28  1  0  0  0  0
 28 29  1  0  0  0  0
 29 30  1  0  0  0  0
 30 31  1  0  0  0  0
 31 32  1  0  0  0  0
 33 34  1  0  0  0  0
 34 35  1  0  0  0  0
 35 36  1  0  0  0  0
M  END
>  <Name_Molregno>
274329

>  <5-HT6>
5

>  <5-HT7>
5.8

>  <DOPAMINE D2>
5.49

$$$$
296747
  Marvin  02231216192D 0   1.00000     0.00000     0

 36 40  0  0  1  0  0  0  0  0999 V2000
    2.0923    2.6223    0.0000 O   0  0  0  0  0  0  0  0  0
    1.3285    2.9341    0.0000 N   0  0  0  0  0  0  0  0  0
    0.7959    2.3041    0.0000 C   0  0  0  0  0  0  0  0  0
    1.2305    1.6028    0.0000 C   0  0  0  0  0  0  0  0  0
    0.8405    0.8758    0.0000 C   0  0  0  0  0  0  0  0  0
    0.0159    0.8501    0.0000 O   0  0  0  0  0  0  0  0  0
   -0.4187    1.5513    0.0000 C   0  0  0  0  0  0  0  0  0
   -1.2433    1.5255    0.0000 C   0  0  0  0  0  0  0  0  0
   -1.6779    2.2268    0.0000 C   0  0  0  0  0  0  0  0  0
   -2.5025    2.2010    0.0000 O   0  0  0  0  0  0  0  0  0
   -2.9371    2.9023    0.0000 C   0  0  0  0  0  0  0  0  0
   -1.2879    2.9538    0.0000 C   0  0  0  0  0  0  0  0  0
   -1.7225    3.6550    0.0000 O   0  0  0  0  0  0  0  0  0
   -1.3326    4.3820    0.0000 C   0  0  0  0  0  0  0  0  0
   -0.4633    2.9796    0.0000 C   0  0  0  0  0  0  0  0  0
   -0.0287    2.2783    0.0000 C   0  0  0  0  0  0  0  0  0
    2.0317    1.7995    0.0000 C   0  0  0  0  0  0  0  0  0
    2.6617    1.2669    0.0000 C   0  0  0  0  0  0  0  0  0
    2.5155    0.4549    0.0000 N   0  0  0  0  0  0  0  0  0
    3.1455   -0.0777    0.0000 C   0  0  0  0  0  0  0  0  0
    2.9993   -0.8896    0.0000 C   0  0  0  0  0  0  0  0  0
    2.2230   -1.1689    0.0000 N   0  0  0  0  0  0  0  0  0
    1.5930   -0.6363    0.0000 C   0  0  0  0  0  0  0  0  0
    1.7392    0.1756    0.0000 C   0  0  0  0  0  0  0  0  0
    2.0768   -1.9809    0.0000 C   0  0  0  0  0  0  0  0  0
    2.7068   -2.5135    0.0000 C   0  0  0  0  0  0  0  0  0
    2.5606   -3.3254    0.0000 C   0  0  0  0  0  0  0  0  0
    3.1906   -3.8580    0.0000 C   0  0  0  0  0  0  0  0  0
    3.0443   -4.6700    0.0000 C   0  0  0  0  0  0  0  0  0
    2.2681   -4.9493    0.0000 C   0  0  0  0  0  0  0  0  0
    3.6744   -5.2026    0.0000 C   0  0  0  0  0  0  0  0  0
    4.4507   -4.9233    0.0000 C   0  0  0  0  0  0  0  0  0
    5.0807   -5.4559    0.0000 C   0  0  0  0  0  0  0  0  0
    4.9344   -6.2678    0.0000 C   0  0  0  0  0  0  0  0  0
    4.1582   -6.5472    0.0000 C   0  0  0  0  0  0  0  0  0
    3.5281   -6.0145    0.0000 C   0  0  0  0  0  0  0  0  0
  1  2  1  0  0  0  0
  1 17  1  0  0  0  0
  2  3  2  0  0  0  0
  3  4  1  0  0  0  0
  3 16  1  0  0  0  0
  4  5  1  0  0  0  0
  4 17  1  0  0  0  0
  5  6  1  0  0  0  0
  6  7  1  0  0  0  0
  7  8  4  0  0  0  0
  7 16  4  0  0  0  0
  8  9  4  0  0  0  0
  9 10  1  0  0  0  0
  9 12  4  0  0  0  0
 10 11  1  0  0  0  0
 12 13  1  0  0  0  0
 12 15  4  0  0  0  0
 13 14  1  0  0  0  0
 15 16  4  0  0  0  0
 17 18  1  0  0  0  0
 18 19  1  0  0  0  0
 19 20  1  0  0  0  0
 19 24  1  0  0  0  0
 20 21  1  0  0  0  0
 21 22  1  0  0  0  0
 22 23  1  0  0  0  0
 22 25  1  0  0  0  0
 23 24  1  0  0  0  0
 25 26  1  0  0  0  0
 26 27  1  0  0  0  0
 27 28  1  0  0  0  0
 28 29  2  0  0  0  0
 29 30  1  0  0  0  0
 29 31  1  0  0  0  0
 31 32  4  0  0  0  0
 31 36  4  0  0  0  0
 32 33  4  0  0  0  0
 33 34  4  0  0  0  0
 34 35  4  0  0  0  0
 35 36  4  0  0  0  0
M  END
>  <Name_Molregno>
296747

>  <5-HT1A>
6

>  <5-HT2A>
6

>  <5-HT2C>
6

>  <5-HT7>
6

>  <Alpha-2A>
9.19

>  <Alpha-2B>
7.85

>  <Alpha-2C>
9.46

>  <DOPAMINE D3>
6.21

>  <DOPAMINE D4>
6

>  <HISTAMINE H1>
6

>  <Serotonin transporter>
8.18

$$$$
296899
  Marvin  02231216192D 0   1.00000     0.00000     0

 35 39  0  0  1  0  0  0  0  0999 V2000
    2.1989    2.1726    0.0000 O   0  0  0  0  0  0  0  0  0
    1.4352    2.4844    0.0000 N   0  0  0  0  0  0  0  0  0
    0.9025    1.8544    0.0000 C   0  0  0  0  0  0  0  0  0
    1.3371    1.1531    0.0000 C   0  0  0  0  0  0  0  0  0
    0.9472    0.4261    0.0000 C   0  0  0  0  0  0  0  0  0
    0.1226    0.4004    0.0000 O   0  0  0  0  0  0  0  0  0
   -0.3120    1.1016    0.0000 C   0  0  0  0  0  0  0  0  0
   -1.1366    1.0759    0.0000 C   0  0  0  0  0  0  0  0  0
   -1.5713    1.7771    0.0000 C   0  0  0  0  0  0  0  0  0
   -2.3959    1.7513    0.0000 O   0  0  0  0  0  0  0  0  0
   -2.8305    2.4526    0.0000 C   0  0  0  0  0  0  0  0  0
   -1.1813    2.5041    0.0000 C   0  0  0  0  0  0  0  0  0
   -1.6159    3.2053    0.0000 O   0  0  0  0  0  0  0  0  0
   -1.2259    3.9323    0.0000 C   0  0  0  0  0  0  0  0  0
   -0.3567    2.5299    0.0000 C   0  0  0  0  0  0  0  0  0
    0.0779    1.8286    0.0000 C   0  0  0  0  0  0  0  0  0
    2.1384    1.3498    0.0000 C   0  0  0  0  0  0  0  0  0
    2.7684    0.8172    0.0000 C   0  0  0  0  0  0  0  0  0
    2.6222    0.0052    0.0000 N   0  0  0  0  0  0  0  0  0
    3.2522   -0.5274    0.0000 C   0  0  0  0  0  0  0  0  0
    3.1059   -1.3393    0.0000 C   0  0  0  0  0  0  0  0  0
    2.3297   -1.6186    0.0000 N   0  0  0  0  0  0  0  0  0
    1.6996   -1.0860    0.0000 C   0  0  0  0  0  0  0  0  0
    1.8459   -0.2741    0.0000 C   0  0  0  0  0  0  0  0  0
    2.1834   -2.4306    0.0000 C   0  0  0  0  0  0  0  0  0
    1.4071   -2.7099    0.0000 C   0  0  0  0  0  0  0  0  0
    1.2609   -3.5218    0.0000 C   0  0  0  0  0  0  0  0  0
    1.8909   -4.0544    0.0000 C   0  0  0  0  0  0  0  0  0
    2.6672   -3.7751    0.0000 C   0  0  0  0  0  0  0  0  0
    3.2973   -4.3077    0.0000 C   0  0  0  0  0  0  0  0  0
    4.0735   -4.0284    0.0000 C   0  0  0  0  0  0  0  0  0
    4.7036   -4.5610    0.0000 C   0  0  0  0  0  0  0  0  0
    4.5573   -5.3730    0.0000 C   0  0  0  0  0  0  0  0  0
    3.7810   -5.6523    0.0000 C   0  0  0  0  0  0  0  0  0
    3.1510   -5.1197    0.0000 C   0  0  0  0  0  0  0  0  0
  1  2  1  0  0  0  0
  1 17  1  0  0  0  0
  2  3  2  0  0  0  0
  3  4  1  0  0  0  0
  3 16  1  0  0  0  0
  4  5  1  0  0  0  0
  4 17  1  0  0  0  0
  5  6  1  0  0  0  0
  6  7  1  0  0  0  0
  7  8  4  0  0  0  0
  7 16  4  0  0  0  0
  8  9  4  0  0  0  0
  9 10  1  0  0  0  0
  9 12  4  0  0  0  0
 10 11  1  0  0  0  0
 12 13  1  0  0  0  0
 12 15  4  0  0  0  0
 13 14  1  0  0  0  0
 15 16  4  0  0  0  0
 17 18  1  0  0  0  0
 18 19  1  0  0  0  0
 19 20  1  0  0  0  0
 19 24  1  0  0  0  0
 20 21  1  0  0  0  0
 21 22  1  0  0  0  0
 22 23  1  0  0  0  0
 22 25  1  0  0  0  0
 23 24  1  0  0  0  0
 25 26  1  0  0  0  0
 26 27  1  0  0  0  0
 27 28  1  0  0  0  0
 28 29  2  0  0  0  0
 29 30  1  0  0  0  0
 30 31  4  0  0  0  0
 30 35  4  0  0  0  0
 31 32  4  0  0  0  0
 32 33  4  0  0  0  0
 33 34  4  0  0  0  0
 34 35  4  0  0  0  0
M  END
>  <Name_Molregno>
296899

>  <5-HT1A>
6

>  <5-HT2A>
6

>  <5-HT2C>
6

>  <5-HT7>
6

>  <Alpha-2A>
8.59

>  <Alpha-2B>
7.85

>  <Alpha-2C>
8.52

>  <DOPAMINE D3>
6.57

>  <DOPAMINE D4>
6

>  <HISTAMINE H1>
6

>  <Serotonin transporter>
8.5

$$$$
296920
  Marvin  02231216192D 0   1.00000     0.00000     0

 37 42  0  0  1  0  0  0  0  0999 V2000
   -1.2093    0.9861    0.0000 O   0  0  0  0  0  0  0  0  0
   -1.7613    0.3730    0.0000 N   0  0  0  0  0  0  0  0  0
   -1.3488   -0.3415    0.0000 C   0  0  0  0  0  0  0  0  0
   -0.5418   -0.1700    0.0000 C   0  0  0  0  0  0  0  0  0
    0.0102   -0.7830    0.0000 C   0  0  0  0  0  0  0  0  0
   -0.2447   -1.5677    0.0000 O   0  0  0  0  0  0  0  0  0
   -1.0517   -1.7392    0.0000 C   0  0  0  0  0  0  0  0  0
   -1.3066   -2.5238    0.0000 C   0  0  0  0  0  0  0  0  0
   -2.1136   -2.6953    0.0000 C   0  0  0  0  0  0  0  0  0
   -2.3686   -3.4800    0.0000 O   0  0  0  0  0  0  0  0  0
   -3.1755   -3.6515    0.0000 C   0  0  0  0  0  0  0  0  0
   -2.6656   -2.0823    0.0000 C   0  0  0  0  0  0  0  0  0
   -3.4726   -2.2538    0.0000 O   0  0  0  0  0  0  0  0  0
   -4.0247   -1.6407    0.0000 C   0  0  0  0  0  0  0  0  0
   -2.4107   -1.2976    0.0000 C   0  0  0  0  0  0  0  0  0
   -1.6037   -1.1261    0.0000 C   0  0  0  0  0  0  0  0  0
   -0.4556    0.6505    0.0000 C   0  0  0  0  0  0  0  0  0
    0.2589    1.0630    0.0000 C   0  0  0  0  0  0  0  0  0
    0.9734    0.6505    0.0000 N   0  0  0  0  0  0  0  0  0
    1.6878    1.0630    0.0000 C   0  0  0  0  0  0  0  0  0
    2.4023    0.6505    0.0000 C   0  0  0  0  0  0  0  0  0
    2.4023   -0.1745    0.0000 N   0  0  0  0  0  0  0  0  0
    1.6878   -0.5870    0.0000 C   0  0  0  0  0  0  0  0  0
    0.9734   -0.1745    0.0000 C   0  0  0  0  0  0  0  0  0
    3.1168   -0.5870    0.0000 C   0  0  0  0  0  0  0  0  0
    3.8312   -0.1745    0.0000 C   0  0  0  0  0  0  0  0  0
    4.5457   -0.5870    0.0000 C   0  0  0  0  0  0  0  0  0
    5.2602   -0.1745    0.0000 C   0  0  0  0  0  0  0  0  0
    5.9747   -0.5870    0.0000 C   0  0  0  0  0  0  0  0  0
    6.6891   -0.1745    0.0000 C   0  0  0  0  0  0  0  0  0
    6.6891    0.6505    0.0000 C   0  0  0  0  0  0  0  0  0
    5.9747    1.0630    0.0000 C   0  0  0  0  0  0  0  0  0
    5.2602    0.6505    0.0000 C   0  0  0  0  0  0  0  0  0
    7.4036    1.0630    0.0000 C   0  0  0  0  0  0  0  0  0
    8.1181    0.6505    0.0000 C   0  0  0  0  0  0  0  0  0
    8.1181   -0.1745    0.0000 C   0  0  0  0  0  0  0  0  0
    7.4036   -0.5870    0.0000 C   0  0  0  0  0  0  0  0  0
  1  2  1  0  0  0  0
  1 17  1  0  0  0  0
  2  3  2  0  0  0  0
  3  4  1  0  0  0  0
  3 16  1  0  0  0  0
  4  5  1  0  0  0  0
  4 17  1  0  0  0  0
  5  6  1  0  0  0  0
  6  7  1  0  0  0  0
  7  8  4  0  0  0  0
  7 16  4  0  0  0  0
  8  9  4  0  0  0  0
  9 10  1  0  0  0  0
  9 12  4  0  0  0  0
 10 11  1  0  0  0  0
 12 13  1  0  0  0  0
 12 15  4  0  0  0  0
 13 14  1  0  0  0  0
 15 16  4  0  0  0  0
 17 18  1  0  0  0  0
 18 19  1  0  0  0  0
 19 20  1  0  0  0  0
 19 24  1  0  0  0  0
 20 21  1  0  0  0  0
 21 22  1  0  0  0  0
 22 23  1  0  0  0  0
 22 25  1  0  0  0  0
 23 24  1  0  0  0  0
 25 26  1  0  0  0  0
 26 27  1  0  0  0  0
 27 28  1  0  0  0  0
 28 29  4  0  0  0  0
 28 33  4  0  0  0  0
 29 30  4  0  0  0  0
 30 31  4  0  0  0  0
 30 37  4  0  0  0  0
 31 32  4  0  0  0  0
 31 34  4  0  0  0  0
 32 33  4  0  0  0  0
 34 35  4  0  0  0  0
 35 36  4  0  0  0  0
 36 37  4  0  0  0  0
M  END
>  <Name_Molregno>
296920

>  <5-HT1A>
6

>  <5-HT2A>
6

>  <5-HT2C>
6

>  <5-HT7>
6

>  <Alpha-2A>
8.6

>  <Alpha-2B>
7.85

>  <Alpha-2C>
8.81

>  <DOPAMINE D3>
6.97

>  <DOPAMINE D4>
6

>  <HISTAMINE H1>
6.34

>  <Serotonin transporter>
8.77

$$$$
296939
  Marvin  02231216192D 0   1.00000     0.00000     0

 36 40  0  0  1  0  0  0  0  0999 V2000
    1.5477    2.2344    0.0000 O   0  0  0  0  0  0  0  0  0
    0.7839    2.5463    0.0000 N   0  0  0  0  0  0  0  0  0
    0.2513    1.9162    0.0000 C   0  0  0  0  0  0  0  0  0
    0.6859    1.2150    0.0000 C   0  0  0  0  0  0  0  0  0
    0.2959    0.4880    0.0000 C   0  0  0  0  0  0  0  0  0
   -0.5287    0.4622    0.0000 O   0  0  0  0  0  0  0  0  0
   -0.9633    1.1635    0.0000 C   0  0  0  0  0  0  0  0  0
   -1.7879    1.1377    0.0000 C   0  0  0  0  0  0  0  0  0
   -2.2225    1.8389    0.0000 C   0  0  0  0  0  0  0  0  0
   -3.0471    1.8132    0.0000 O   0  0  0  0  0  0  0  0  0
   -3.4817    2.5144    0.0000 C   0  0  0  0  0  0  0  0  0
   -1.8325    2.5659    0.0000 C   0  0  0  0  0  0  0  0  0
   -2.2672    3.2672    0.0000 O   0  0  0  0  0  0  0  0  0
   -1.8772    3.9942    0.0000 C   0  0  0  0  0  0  0  0  0
   -1.0079    2.5917    0.0000 C   0  0  0  0  0  0  0  0  0
   -0.5733    1.8905    0.0000 C   0  0  0  0  0  0  0  0  0
    1.4871    1.4116    0.0000 C   0  0  0  0  0  0  0  0  0
    2.1171    0.8790    0.0000 C   0  0  0  0  0  0  0  0  0
    1.9709    0.0671    0.0000 N   0  0  0  0  0  0  0  0  0
    2.6009   -0.4655    0.0000 C   0  0  0  0  0  0  0  0  0
    2.4547   -1.2775    0.0000 C   0  0  0  0  0  0  0  0  0
    1.6784   -1.5568    0.0000 N   0  0  0  0  0  0  0  0  0
    1.0484   -1.0242    0.0000 C   0  0  0  0  0  0  0  0  0
    1.1946   -0.2122    0.0000 C   0  0  0  0  0  0  0  0  0
    1.5322   -2.3687    0.0000 C   0  0  0  0  0  0  0  0  0
    2.1622   -2.9013    0.0000 C   0  0  0  0  0  0  0  0  0
    2.9385   -2.6220    0.0000 C   0  0  0  0  0  0  0  0  0
    3.5685   -3.1546    0.0000 C   0  0  0  0  0  0  0  0  0
    4.3448   -2.8753    0.0000 C   0  0  0  0  0  0  0  0  0
    4.4910   -2.0634    0.0000 C   0  0  0  0  0  0  0  0  0
    3.8610   -1.5308    0.0000 C   0  0  0  0  0  0  0  0  0
    4.0072   -0.7188    0.0000 C   0  0  0  0  0  0  0  0  0
    4.7835   -0.4395    0.0000 C   0  0  0  0  0  0  0  0  0
    5.4135   -0.9721    0.0000 C   0  0  0  0  0  0  0  0  0
    5.2673   -1.7841    0.0000 C   0  0  0  0  0  0  0  0  0
    3.4223   -3.9666    0.0000 C   0  0  0  0  0  0  0  0  0
  1  2  1  0  0  0  0
  1 17  1  0  0  0  0
  2  3  2  0  0  0  0
  3  4  1  0  0  0  0
  3 16  1  0  0  0  0
  4  5  1  0  0  0  0
  4 17  1  0  0  0  0
  5  6  1  0  0  0  0
  6  7  1  0  0  0  0
  7  8  4  0  0  0  0
  7 16  4  0  0  0  0
  8  9  4  0  0  0  0
  9 10  1  0  0  0  0
  9 12  4  0  0  0  0
 10 11  1  0  0  0  0
 12 13  1  0  0  0  0
 12 15  4  0  0  0  0
 13 14  1  0  0  0  0
 15 16  4  0  0  0  0
 17 18  1  0  0  0  0
 18 19  1  0  0  0  0
 19 20  1  0  0  0  0
 19 24  1  0  0  0  0
 20 21  1  0  0  0  0
 21 22  1  0  0  0  0
 22 23  1  0  0  0  0
 22 25  1  0  0  0  0
 23 24  1  0  0  0  0
 25 26  1  0  0  0  0
 26 27  1  0  0  0  0
 27 28  1  0  0  0  0
 28 29  2  0  0  0  0
 28 36  1  0  0  0  0
 29 30  1  0  0  0  0
 30 31  4  0  0  0  0
 30 35  4  0  0  0  0
 31 32  4  0  0  0  0
 32 33  4  0  0  0  0
 33 34  4  0  0  0  0
 34 35  4  0  0  0  0
M  END
>  <Name_Molregno>
296939

>  <5-HT1A>
6.32

>  <5-HT2A>
6

>  <5-HT2C>
6

>  <5-HT7>
6

>  <Alpha-2A>
9.31

>  <Alpha-2B>
8.52

>  <Alpha-2C>
9.85

>  <DOPAMINE D3>
6.36

>  <DOPAMINE D4>
6

>  <HISTAMINE H1>
6.95

>  <Serotonin transporter>
8.46

$$$$
299949
  Marvin  02231216192D 0   1.00000     0.00000     0

 27 30  0  0  0  0  0  0  0  0999 V2000
   -1.9995    3.6566    0.0000 O   0  0  0  0  0  0  0  0  0
   -1.9995    4.4816    0.0000 C   0  0  0  0  0  0  0  0  0
   -1.2850    3.2441    0.0000 C   0  0  0  0  0  0  0  0  0
   -0.5706    3.6566    0.0000 C   0  0  0  0  0  0  0  0  0
    0.1439    3.2441    0.0000 C   0  0  0  0  0  0  0  0  0
    0.1439    2.4191    0.0000 C   0  0  0  0  0  0  0  0  0
   -0.5706    2.0066    0.0000 C   0  0  0  0  0  0  0  0  0
   -1.2850    2.4191    0.0000 C   0  0  0  0  0  0  0  0  0
   -1.9995    2.0066    0.0000 N   0  0  0  0  0  0  0  0  0
   -1.9995    1.1816    0.0000 C   0  0  0  0  0  0  0  0  0
   -2.7140    0.7691    0.0000 C   0  0  0  0  0  0  0  0  0
   -3.4284    1.1816    0.0000 N   0  0  0  0  0  0  0  0  0
   -3.4284    2.0066    0.0000 C   0  0  0  0  0  0  0  0  0
   -2.7140    2.4191    0.0000 C   0  0  0  0  0  0  0  0  0
   -4.1429    0.7691    0.0000 C   0  0  0  0  0  0  0  0  0
   -4.1429   -0.0559    0.0000 C   0  0  0  0  0  0  0  0  0
   -3.4755   -0.5408    0.0000 C   0  0  0  0  0  0  0  0  0
   -3.7304   -1.3254    0.0000 C   0  0  0  0  0  0  0  0  0
   -4.5554   -1.3254    0.0000 N   0  0  0  0  0  0  0  0  0
   -4.8104   -0.5408    0.0000 C   0  0  0  0  0  0  0  0  0
   -5.0403   -1.9928    0.0000 C   0  0  0  0  0  0  0  0  0
   -4.7048   -2.7465    0.0000 C   0  0  0  0  0  0  0  0  0
   -5.1897   -3.4140    0.0000 C   0  0  0  0  0  0  0  0  0
   -6.0102   -3.3277    0.0000 C   0  0  0  0  0  0  0  0  0
   -6.3457   -2.5741    0.0000 C   0  0  0  0  0  0  0  0  0
   -5.8608   -1.9066    0.0000 C   0  0  0  0  0  0  0  0  0
   -6.1964   -1.1529    0.0000 C   0  0  0  0  0  0  0  0  0
  1  2  1  0  0  0  0
  1  3  1  0  0  0  0
  3  4  4  0  0  0  0
  3  8  4  0  0  0  0
  4  5  4  0  0  0  0
  5  6  4  0  0  0  0
  6  7  4  0  0  0  0
  7  8  4  0  0  0  0
  8  9  1  0  0  0  0
  9 10  1  0  0  0  0
  9 14  1  0  0  0  0
 10 11  1  0  0  0  0
 11 12  1  0  0  0  0
 12 13  1  0  0  0  0
 12 15  1  0  0  0  0
 13 14  1  0  0  0  0
 15 16  1  0  0  0  0
 16 17  4  0  0  0  0
 16 20  4  0  0  0  0
 17 18  4  0  0  0  0
 18 19  4  0  0  0  0
 19 20  4  0  0  0  0
 19 21  1  0  0  0  0
 21 22  4  0  0  0  0
 21 26  4  0  0  0  0
 22 23  4  0  0  0  0
 23 24  4  0  0  0  0
 24 25  4  0  0  0  0
 25 26  4  0  0  0  0
 26 27  1  0  0  0  0
M  END
>  <Name_Molregno>
299949

>  <5-HT7>
8.34

$$$$
299966
  Marvin  02231216192D 0   1.00000     0.00000     0

 31 34  0  0  0  0  0  0  0  0999 V2000
   -2.3638    2.8876    0.0000 O   0  0  0  0  0  0  0  0  0
   -2.3638    3.7126    0.0000 C   0  0  0  0  0  0  0  0  0
   -1.6494    2.4751    0.0000 C   0  0  0  0  0  0  0  0  0
   -0.9349    2.8876    0.0000 C   0  0  0  0  0  0  0  0  0
   -0.2204    2.4751    0.0000 C   0  0  0  0  0  0  0  0  0
   -0.2204    1.6501    0.0000 C   0  0  0  0  0  0  0  0  0
   -0.9349    1.2376    0.0000 C   0  0  0  0  0  0  0  0  0
   -1.6494    1.6501    0.0000 C   0  0  0  0  0  0  0  0  0
   -2.3638    1.2376    0.0000 N   0  0  0  0  0  0  0  0  0
   -2.3638    0.4126    0.0000 C   0  0  0  0  0  0  0  0  0
   -3.0783    0.0001    0.0000 C   0  0  0  0  0  0  0  0  0
   -3.7928    0.4126    0.0000 N   0  0  0  0  0  0  0  0  0
   -3.7928    1.2376    0.0000 C   0  0  0  0  0  0  0  0  0
   -3.0783    1.6501    0.0000 C   0  0  0  0  0  0  0  0  0
   -4.5073    0.0001    0.0000 C   0  0  0  0  0  0  0  0  0
   -4.5073   -0.8249    0.0000 C   0  0  0  0  0  0  0  0  0
   -3.8398   -1.3099    0.0000 C   0  0  0  0  0  0  0  0  0
   -4.0948   -2.0945    0.0000 C   0  0  0  0  0  0  0  0  0
   -4.9198   -2.0945    0.0000 N   0  0  0  0  0  0  0  0  0
   -5.1747   -1.3099    0.0000 C   0  0  0  0  0  0  0  0  0
   -5.4047   -2.7619    0.0000 C   0  0  0  0  0  0  0  0  0
   -5.0691   -3.5156    0.0000 C   0  0  0  0  0  0  0  0  0
   -5.5540   -4.1830    0.0000 C   0  0  0  0  0  0  0  0  0
   -6.3745   -4.0968    0.0000 C   0  0  0  0  0  0  0  0  0
   -6.7101   -3.3431    0.0000 C   0  0  0  0  0  0  0  0  0
   -6.2252   -2.6757    0.0000 C   0  0  0  0  0  0  0  0  0
   -6.5607   -1.9220    0.0000 C   0  0  0  0  0  0  0  0  0
   -4.2486   -3.6018    0.0000 C   0  0  0  0  0  0  0  0  0
   -3.9131   -4.3555    0.0000 O   0  0  0  0  0  0  0  0  0
   -3.0926   -4.4417    0.0000 C   0  0  0  0  0  0  0  0  0
   -3.7637   -2.9344    0.0000 O   0  0  0  0  0  0  0  0  0
  1  2  1  0  0  0  0
  1  3  1  0  0  0  0
  3  4  4  0  0  0  0
  3  8  4  0  0  0  0
  4  5  4  0  0  0  0
  5  6  4  0  0  0  0
  6  7  4  0  0  0  0
  7  8  4  0  0  0  0
  8  9  1  0  0  0  0
  9 10  1  0  0  0  0
  9 14  1  0  0  0  0
 10 11  1  0  0  0  0
 11 12  1  0  0  0  0
 12 13  1  0  0  0  0
 12 15  1  0  0  0  0
 13 14  1  0  0  0  0
 15 16  1  0  0  0  0
 16 17  4  0  0  0  0
 16 20  4  0  0  0  0
 17 18  4  0  0  0  0
 18 19  4  0  0  0  0
 19 20  4  0  0  0  0
 19 21  1  0  0  0  0
 21 22  4  0  0  0  0
 21 26  4  0  0  0  0
 22 23  4  0  0  0  0
 22 28  1  0  0  0  0
 23 24  4  0  0  0  0
 24 25  4  0  0  0  0
 25 26  4  0  0  0  0
 26 27  1  0  0  0  0
 28 29  1  0  0  0  0
 28 31  2  0  0  0  0
 29 30  1  0  0  0  0
M  END
>  <Name_Molregno>
299966

>  <5-HT7>
7.74

$$$$
300042
  Marvin  02231216192D 0   1.00000     0.00000     0

 28 31  0  0  0  0  0  0  0  0999 V2000
   -1.9775    2.5185    0.0000 O   0  0  0  0  0  0  0  0  0
   -1.9775    3.3435    0.0000 C   0  0  0  0  0  0  0  0  0
   -1.2631    2.1060    0.0000 C   0  0  0  0  0  0  0  0  0
   -0.5486    2.5185    0.0000 C   0  0  0  0  0  0  0  0  0
    0.1659    2.1060    0.0000 C   0  0  0  0  0  0  0  0  0
    0.1659    1.2810    0.0000 C   0  0  0  0  0  0  0  0  0
   -0.5486    0.8685    0.0000 C   0  0  0  0  0  0  0  0  0
   -1.2631    1.2810    0.0000 C   0  0  0  0  0  0  0  0  0
   -1.9775    0.8685    0.0000 N   0  0  0  0  0  0  0  0  0
   -1.9775    0.0435    0.0000 C   0  0  0  0  0  0  0  0  0
   -2.6920   -0.3690    0.0000 C   0  0  0  0  0  0  0  0  0
   -3.4065    0.0435    0.0000 N   0  0  0  0  0  0  0  0  0
   -3.4065    0.8685    0.0000 C   0  0  0  0  0  0  0  0  0
   -2.6920    1.2810    0.0000 C   0  0  0  0  0  0  0  0  0
   -4.1210   -0.3690    0.0000 C   0  0  0  0  0  0  0  0  0
   -4.1210   -1.1940    0.0000 C   0  0  0  0  0  0  0  0  0
   -3.4535   -1.6789    0.0000 C   0  0  0  0  0  0  0  0  0
   -3.7085   -2.4636    0.0000 C   0  0  0  0  0  0  0  0  0
   -4.5335   -2.4636    0.0000 N   0  0  0  0  0  0  0  0  0
   -4.7884   -1.6789    0.0000 C   0  0  0  0  0  0  0  0  0
   -5.0184   -3.1310    0.0000 C   0  0  0  0  0  0  0  0  0
   -4.6828   -3.8847    0.0000 C   0  0  0  0  0  0  0  0  0
   -5.1677   -4.5521    0.0000 C   0  0  0  0  0  0  0  0  0
   -5.9882   -4.4659    0.0000 C   0  0  0  0  0  0  0  0  0
   -6.3238   -3.7122    0.0000 C   0  0  0  0  0  0  0  0  0
   -5.8389   -3.0448    0.0000 C   0  0  0  0  0  0  0  0  0
   -6.1744   -2.2911    0.0000 C   0  0  0  0  0  0  0  0  0
   -6.5100   -1.5374    0.0000 N   0  0  0  0  0  0  0  0  0
  1  2  1  0  0  0  0
  1  3  1  0  0  0  0
  3  4  4  0  0  0  0
  3  8  4  0  0  0  0
  4  5  4  0  0  0  0
  5  6  4  0  0  0  0
  6  7  4  0  0  0  0
  7  8  4  0  0  0  0
  8  9  1  0  0  0  0
  9 10  1  0  0  0  0
  9 14  1  0  0  0  0
 10 11  1  0  0  0  0
 11 12  1  0  0  0  0
 12 13  1  0  0  0  0
 12 15  1  0  0  0  0
 13 14  1  0  0  0  0
 15 16  1  0  0  0  0
 16 17  4  0  0  0  0
 16 20  4  0  0  0  0
 17 18  4  0  0  0  0
 18 19  4  0  0  0  0
 19 20  4  0  0  0  0
 19 21  1  0  0  0  0
 21 22  4  0  0  0  0
 21 26  4  0  0  0  0
 22 23  4  0  0  0  0
 23 24  4  0  0  0  0
 24 25  4  0  0  0  0
 25 26  4  0  0  0  0
 26 27  1  0  0  0  0
 27 28  3  0  0  0  0
M  END
>  <Name_Molregno>
300042

>  <5-HT7>
8.27

$$$$
300073
  Marvin  02231216192D 0   1.00000     0.00000     0

 26 29  0  0  0  0  0  0  0  0999 V2000
    2.6383   -3.0579    0.0000 Cl  0  0  0  0  0  0  0  0  0
    1.9239   -2.6454    0.0000 C   0  0  0  0  0  0  0  0  0
    1.2094   -3.0579    0.0000 C   0  0  0  0  0  0  0  0  0
    0.4949   -2.6454    0.0000 C   0  0  0  0  0  0  0  0  0
   -0.2897   -2.9004    0.0000 N   0  0  0  0  0  0  0  0  0
   -0.5446   -3.6850    0.0000 S   0  0  0  0  0  0  0  0  0
    0.2400   -3.9399    0.0000 O   0  0  0  0  0  0  0  0  0
   -1.3293   -3.4301    0.0000 O   0  0  0  0  0  0  0  0  0
   -0.7996   -4.4696    0.0000 C   0  0  0  0  0  0  0  0  0
   -0.2476   -5.0827    0.0000 C   0  0  0  0  0  0  0  0  0
   -0.5025   -5.8673    0.0000 C   0  0  0  0  0  0  0  0  0
   -1.3095   -6.0389    0.0000 C   0  0  0  0  0  0  0  0  0
   -1.5644   -6.8235    0.0000 N   0  0  0  0  0  0  0  0  0
   -1.8615   -5.4258    0.0000 C   0  0  0  0  0  0  0  0  0
   -1.6066   -4.6411    0.0000 C   0  0  0  0  0  0  0  0  0
   -0.7746   -2.2329    0.0000 C   0  0  0  0  0  0  0  0  0
   -0.2897   -1.5655    0.0000 C   0  0  0  0  0  0  0  0  0
    0.4949   -1.8204    0.0000 C   0  0  0  0  0  0  0  0  0
    1.2094   -1.4079    0.0000 C   0  0  0  0  0  0  0  0  0
    1.9239   -1.8204    0.0000 C   0  0  0  0  0  0  0  0  0
   -0.5446   -0.7809    0.0000 C   0  0  0  0  0  0  0  0  0
   -1.3516   -0.6093    0.0000 C   0  0  0  0  0  0  0  0  0
   -1.6066    0.1753    0.0000 C   0  0  0  0  0  0  0  0  0
   -1.0545    0.7884    0.0000 N   0  0  0  0  0  0  0  0  0
   -0.2476    0.6168    0.0000 C   0  0  0  0  0  0  0  0  0
    0.0074   -0.1678    0.0000 C   0  0  0  0  0  0  0  0  0
  1  2  1  0  0  0  0
  2  3  4  0  0  0  0
  2 20  4  0  0  0  0
  3  4  4  0  0  0  0
  4  5  4  0  0  0  0
  4 18  4  0  0  0  0
  5  6  1  0  0  0  0
  5 16  4  0  0  0  0
  6  7  2  0  0  0  0
  6  8  2  0  0  0  0
  6  9  1  0  0  0  0
  9 10  4  0  0  0  0
  9 15  4  0  0  0  0
 10 11  4  0  0  0  0
 11 12  4  0  0  0  0
 12 13  1  0  0  0  0
 12 14  4  0  0  0  0
 14 15  4  0  0  0  0
 16 17  4  0  0  0  0
 17 18  4  0  0  0  0
 17 21  1  0  0  0  0
 18 19  4  0  0  0  0
 19 20  4  0  0  0  0
 21 22  1  0  0  0  0
 21 26  1  0  0  0  0
 22 23  1  0  0  0  0
 23 24  1  0  0  0  0
 24 25  1  0  0  0  0
 25 26  1  0  0  0  0
M  END
>  <Name_Molregno>
300073

>  <5-HT1A>
6.94

>  <5-HT6>
8.52

>  <5-HT7>
5.7

$$$$
300084
  Marvin  02231216192D 0   1.00000     0.00000     0

 27 30  0  0  0  0  0  0  0  0999 V2000
    0.6005   -0.8632    0.0000 S   0  0  0  0  0  0  0  0  0
   -0.1841   -0.6082    0.0000 O   0  0  0  0  0  0  0  0  0
    1.3851   -1.1181    0.0000 O   0  0  0  0  0  0  0  0  0
    0.8555   -0.0785    0.0000 N   0  0  0  0  0  0  0  0  0
    0.3705    0.5889    0.0000 C   0  0  0  0  0  0  0  0  0
    0.8555    1.2563    0.0000 C   0  0  0  0  0  0  0  0  0
    1.6401    1.0014    0.0000 C   0  0  0  0  0  0  0  0  0
    2.3545    1.4139    0.0000 C   0  0  0  0  0  0  0  0  0
    3.0690    1.0014    0.0000 C   0  0  0  0  0  0  0  0  0
    3.7835    1.4139    0.0000 O   0  0  0  0  0  0  0  0  0
    4.4980    1.0014    0.0000 C   0  0  0  0  0  0  0  0  0
    3.0690    0.1764    0.0000 C   0  0  0  0  0  0  0  0  0
    2.3545   -0.2361    0.0000 C   0  0  0  0  0  0  0  0  0
    1.6401    0.1764    0.0000 C   0  0  0  0  0  0  0  0  0
    0.6005    2.0410    0.0000 C   0  0  0  0  0  0  0  0  0
   -0.2065    2.2125    0.0000 C   0  0  0  0  0  0  0  0  0
   -0.4614    2.9971    0.0000 C   0  0  0  0  0  0  0  0  0
    0.0906    3.6102    0.0000 N   0  0  0  0  0  0  0  0  0
    0.8976    3.4387    0.0000 C   0  0  0  0  0  0  0  0  0
    1.1526    2.6541    0.0000 C   0  0  0  0  0  0  0  0  0
    0.3456   -1.6478    0.0000 C   0  0  0  0  0  0  0  0  0
    0.8976   -2.2609    0.0000 C   0  0  0  0  0  0  0  0  0
    0.6427   -3.0455    0.0000 C   0  0  0  0  0  0  0  0  0
   -0.1643   -3.2170    0.0000 C   0  0  0  0  0  0  0  0  0
   -0.4192   -4.0017    0.0000 N   0  0  0  0  0  0  0  0  0
   -0.7163   -2.6039    0.0000 C   0  0  0  0  0  0  0  0  0
   -0.4614   -1.8193    0.0000 C   0  0  0  0  0  0  0  0  0
  1  2  2  0  0  0  0
  1  3  2  0  0  0  0
  1  4  1  0  0  0  0
  1 21  1  0  0  0  0
  4  5  4  0  0  0  0
  4 14  4  0  0  0  0
  5  6  4  0  0  0  0
  6  7  4  0  0  0  0
  6 15  1  0  0  0  0
  7  8  4  0  0  0  0
  7 14  4  0  0  0  0
  8  9  4  0  0  0  0
  9 10  1  0  0  0  0
  9 12  4  0  0  0  0
 10 11  1  0  0  0  0
 12 13  4  0  0  0  0
 13 14  4  0  0  0  0
 15 16  1  0  0  0  0
 15 20  2  0  0  0  0
 16 17  1  0  0  0  0
 17 18  1  0  0  0  0
 18 19  1  0  0  0  0
 19 20  1  0  0  0  0
 21 22  4  0  0  0  0
 21 27  4  0  0  0  0
 22 23  4  0  0  0  0
 23 24  4  0  0  0  0
 24 25  1  0  0  0  0
 24 26  4  0  0  0  0
 26 27  4  0  0  0  0
M  END
>  <Name_Molregno>
300084

>  <5-HT1A>
7.01

>  <5-HT6>
8.52

>  <5-HT7>
5.3

$$$$
300181
  Marvin  02231216192D 0   1.00000     0.00000     0

 25 28  0  0  0  0  0  0  0  0999 V2000
    0.6945    0.9791    0.0000 S   0  0  0  0  0  0  0  0  0
    1.4791    1.2341    0.0000 O   0  0  0  0  0  0  0  0  0
   -0.0901    0.7242    0.0000 O   0  0  0  0  0  0  0  0  0
    0.9494    0.1945    0.0000 N   0  0  0  0  0  0  0  0  0
    0.4645   -0.4729    0.0000 C   0  0  0  0  0  0  0  0  0
    0.9494   -1.1404    0.0000 C   0  0  0  0  0  0  0  0  0
    1.7341   -0.8854    0.0000 C   0  0  0  0  0  0  0  0  0
    1.7341   -0.0604    0.0000 C   0  0  0  0  0  0  0  0  0
    2.4485    0.3521    0.0000 C   0  0  0  0  0  0  0  0  0
    3.1630   -0.0604    0.0000 C   0  0  0  0  0  0  0  0  0
    3.1630   -0.8854    0.0000 C   0  0  0  0  0  0  0  0  0
    2.4485   -1.2979    0.0000 C   0  0  0  0  0  0  0  0  0
    0.6945   -1.9250    0.0000 C   0  0  0  0  0  0  0  0  0
    1.2465   -2.5381    0.0000 C   0  0  0  0  0  0  0  0  0
    0.9916   -3.3227    0.0000 C   0  0  0  0  0  0  0  0  0
    0.1846   -3.4942    0.0000 N   0  0  0  0  0  0  0  0  0
   -0.3674   -2.8811    0.0000 C   0  0  0  0  0  0  0  0  0
   -0.1125   -2.0965    0.0000 C   0  0  0  0  0  0  0  0  0
    0.4396    1.7638    0.0000 C   0  0  0  0  0  0  0  0  0
   -0.3674    1.9353    0.0000 C   0  0  0  0  0  0  0  0  0
   -0.6224    2.7199    0.0000 C   0  0  0  0  0  0  0  0  0
   -0.0703    3.3330    0.0000 C   0  0  0  0  0  0  0  0  0
   -0.3253    4.1176    0.0000 N   0  0  0  0  0  0  0  0  0
    0.7367    3.1615    0.0000 C   0  0  0  0  0  0  0  0  0
    0.9916    2.3769    0.0000 C   0  0  0  0  0  0  0  0  0
  1  2  2  0  0  0  0
  1  3  2  0  0  0  0
  1  4  1  0  0  0  0
  1 19  1  0  0  0  0
  4  5  4  0  0  0  0
  4  8  4  0  0  0  0
  5  6  4  0  0  0  0
  6  7  4  0  0  0  0
  6 13  1  0  0  0  0
  7  8  4  0  0  0  0
  7 12  4  0  0  0  0
  8  9  4  0  0  0  0
  9 10  4  0  0  0  0
 10 11  4  0  0  0  0
 11 12  4  0  0  0  0
 13 14  1  0  0  0  0
 13 18  2  0  0  0  0
 14 15  1  0  0  0  0
 15 16  1  0  0  0  0
 16 17  1  0  0  0  0
 17 18  1  0  0  0  0
 19 20  4  0  0  0  0
 19 25  4  0  0  0  0
 20 21  4  0  0  0  0
 21 22  4  0  0  0  0
 22 23  1  0  0  0  0
 22 24  4  0  0  0  0
 24 25  4  0  0  0  0
M  END
>  <Name_Molregno>
300181

>  <5-HT1A>
5.78

>  <5-HT6>
8.7

>  <5-HT7>
5.81

$$$$
303772
  Marvin  02231216192D 0   1.00000     0.00000     0

 32 36  0  0  0  0  0  0  0  0999 V2000
   -6.5979   -4.9561    0.0000 O   0  0  0  0  0  0  0  0  0
   -7.3124   -5.3686    0.0000 C   0  0  0  0  0  0  0  0  0
   -8.0268   -4.9561    0.0000 C   0  0  0  0  0  0  0  0  0
   -8.7413   -5.3686    0.0000 O   0  0  0  0  0  0  0  0  0
   -8.0268   -4.1311    0.0000 N   0  0  0  0  0  0  0  0  0
   -7.3124   -3.7186    0.0000 C   0  0  0  0  0  0  0  0  0
   -7.3124   -2.8936    0.0000 C   0  0  0  0  0  0  0  0  0
   -6.5979   -2.4811    0.0000 C   0  0  0  0  0  0  0  0  0
   -5.8834   -2.8936    0.0000 C   0  0  0  0  0  0  0  0  0
   -5.8834   -3.7186    0.0000 C   0  0  0  0  0  0  0  0  0
   -6.5979   -4.1311    0.0000 C   0  0  0  0  0  0  0  0  0
   -6.5979   -1.6561    0.0000 C   0  0  0  0  0  0  0  0  0
   -5.8834   -1.2436    0.0000 C   0  0  0  0  0  0  0  0  0
   -5.8834   -0.4186    0.0000 C   0  0  0  0  0  0  0  0  0
   -5.1690   -0.0061    0.0000 C   0  0  0  0  0  0  0  0  0
   -4.4545   -0.4186    0.0000 N   0  0  0  0  0  0  0  0  0
   -4.4545   -1.2436    0.0000 C   0  0  0  0  0  0  0  0  0
   -5.1690   -1.6561    0.0000 C   0  0  0  0  0  0  0  0  0
   -3.7400   -0.0061    0.0000 C   0  0  0  0  0  0  0  0  0
   -3.7400    0.8189    0.0000 C   0  0  0  0  0  0  0  0  0
   -3.0255    1.2314    0.0000 O   0  0  0  0  0  0  0  0  0
   -3.0255    2.0564    0.0000 C   0  0  0  0  0  0  0  0  0
   -2.3111    2.4689    0.0000 C   0  0  0  0  0  0  0  0  0
   -2.3111    3.2939    0.0000 C   0  0  0  0  0  0  0  0  0
   -1.5966    3.7064    0.0000 N   0  0  0  0  0  0  0  0  0
   -0.8821    3.2939    0.0000 C   0  0  0  0  0  0  0  0  0
   -0.8821    2.4689    0.0000 C   0  0  0  0  0  0  0  0  0
   -1.5966    2.0564    0.0000 C   0  0  0  0  0  0  0  0  0
   -0.1677    3.7064    0.0000 C   0  0  0  0  0  0  0  0  0
   -3.0255    3.7064    0.0000 C   0  0  0  0  0  0  0  0  0
   -3.7400    3.2939    0.0000 C   0  0  0  0  0  0  0  0  0
   -3.7400    2.4689    0.0000 C   0  0  0  0  0  0  0  0  0
  1  2  1  0  0  0  0
  1 11  1  0  0  0  0
  2  3  1  0  0  0  0
  3  4  2  0  0  0  0
  3  5  1  0  0  0  0
  5  6  1  0  0  0  0
  6  7  4  0  0  0  0
  6 11  4  0  0  0  0
  7  8  4  0  0  0  0
  8  9  4  0  0  0  0
  8 12  1  0  0  0  0
  9 10  4  0  0  0  0
 10 11  4  0  0  0  0
 12 13  1  0  0  0  0
 13 14  1  0  0  0  0
 13 18  1  0  0  0  0
 14 15  1  0  0  0  0
 15 16  1  0  0  0  0
 16 17  1  0  0  0  0
 16 19  1  0  0  0  0
 17 18  1  0  0  0  0
 19 20  1  0  0  0  0
 20 21  1  0  0  0  0
 21 22  1  0  0  0  0
 22 23  4  0  0  0  0
 22 32  4  0  0  0  0
 23 24  4  0  0  0  0
 23 28  4  0  0  0  0
 24 25  4  0  0  0  0
 24 30  4  0  0  0  0
 25 26  4  0  0  0  0
 26 27  4  0  0  0  0
 26 29  1  0  0  0  0
 27 28  4  0  0  0  0
 30 31  4  0  0  0  0
 31 32  4  0  0  0  0
M  END
>  <Name_Molregno>
303772

>  <5-HT1A>
8.92

>  <5-HT1B>
8

>  <5-HT1D>
8.8

>  <5-HT2A>
5.5

>  <5-HT2C>
5.1

>  <5-HT6>
5

>  <5-HT7>
6.7

>  <Beta-2>
6

>  <DOPAMINE D2>
5.9

>  <DOPAMINE D3>
6.2

>  <Serotonin transporter>
7.1

$$$$
304247
  Marvin  02231216192D 0   1.00000     0.00000     0

 23 25  0  0  1  0  0  0  0  0999 V2000
   -0.1047   -0.3538    0.0000 O   0  0  0  0  0  0  0  0  0
   -0.8192   -0.7663    0.0000 C   0  0  0  0  0  0  0  0  0
   -0.8192   -1.5913    0.0000 C   0  0  0  0  0  0  0  0  0
   -1.5336   -2.0038    0.0000 N   0  0  0  0  0  0  0  0  0
   -1.5336   -2.8288    0.0000 C   0  0  0  0  0  0  0  0  0
   -2.2481   -1.5913    0.0000 C   0  0  0  0  0  0  0  0  0
   -0.1047   -2.0038    0.0000 C   0  0  0  0  0  0  0  0  0
    0.6098   -1.5913    0.0000 C   0  0  0  0  0  0  0  0  0
    0.6098   -0.7663    0.0000 C   0  0  0  0  0  0  0  0  0
    1.3243   -0.3538    0.0000 C   0  0  0  0  0  0  0  0  0
    2.0387   -0.7663    0.0000 C   0  0  0  0  0  0  0  0  0
    2.0387   -1.5913    0.0000 C   0  0  0  0  0  0  0  0  0
    1.3243   -2.0038    0.0000 C   0  0  0  0  0  0  0  0  0
    1.3243    0.4712    0.0000 C   0  0  0  0  0  0  0  0  0
    0.6098    0.8837    0.0000 C   0  0  0  0  0  0  0  0  0
   -0.1047    0.4712    0.0000 O   0  0  0  0  0  0  0  0  0
   -0.8192    0.8837    0.0000 C   0  0  0  0  0  0  0  0  0
    0.6098    1.7087    0.0000 C   0  0  0  0  0  0  0  0  0
    1.3243    2.1212    0.0000 C   0  0  0  0  0  0  0  0  0
    2.0387    1.7087    0.0000 C   0  0  0  0  0  0  0  0  0
    2.0387    0.8837    0.0000 C   0  0  0  0  0  0  0  0  0
    2.7532    0.4712    0.0000 O   0  0  0  0  0  0  0  0  0
    3.4677    0.8837    0.0000 C   0  0  0  0  0  0  0  0  0
  1  2  1  0  0  0  0
  1  9  1  0  0  0  0
  2  3  1  0  0  0  0
  3  4  1  0  0  0  0
  3  7  1  0  0  0  0
  4  5  1  0  0  0  0
  4  6  1  0  0  0  0
  7  8  1  0  0  0  0
  8  9  4  0  0  0  0
  8 13  4  0  0  0  0
  9 10  4  0  0  0  0
 10 11  4  0  0  0  0
 10 14  1  0  0  0  0
 11 12  4  0  0  0  0
 12 13  4  0  0  0  0
 14 15  4  0  0  0  0
 14 21  4  0  0  0  0
 15 16  1  0  0  0  0
 15 18  4  0  0  0  0
 16 17  1  0  0  0  0
 18 19  4  0  0  0  0
 19 20  4  0  0  0  0
 20 21  4  0  0  0  0
 21 22  1  0  0  0  0
 22 23  1  0  0  0  0
M  END
>  <Name_Molregno>
304247

>  <5-HT7>
8.59

$$$$
304273
  Marvin  02231216192D 0   1.00000     0.00000     0

 21 23  0  0  1  0  0  0  0  0999 V2000
   -3.2546   -1.8774    0.0000 O   0  0  0  0  0  0  0  0  0
   -3.9691   -1.4649    0.0000 C   0  0  0  0  0  0  0  0  0
   -3.9691   -0.6399    0.0000 C   0  0  0  0  0  0  0  0  0
   -4.6836   -0.2274    0.0000 N   0  0  0  0  0  0  0  0  0
   -5.3980   -0.6399    0.0000 C   0  0  0  0  0  0  0  0  0
   -4.6836    0.5976    0.0000 C   0  0  0  0  0  0  0  0  0
   -3.2546   -0.2274    0.0000 C   0  0  0  0  0  0  0  0  0
   -2.5401   -0.6399    0.0000 C   0  0  0  0  0  0  0  0  0
   -1.8257   -0.2274    0.0000 C   0  0  0  0  0  0  0  0  0
   -1.1112   -0.6399    0.0000 C   0  0  0  0  0  0  0  0  0
   -1.1112   -1.4649    0.0000 C   0  0  0  0  0  0  0  0  0
   -1.8257   -1.8774    0.0000 C   0  0  0  0  0  0  0  0  0
   -2.5401   -1.4649    0.0000 C   0  0  0  0  0  0  0  0  0
   -0.3967   -0.2274    0.0000 C   0  0  0  0  0  0  0  0  0
   -0.3967    0.5976    0.0000 C   0  0  0  0  0  0  0  0  0
    0.3177    1.0101    0.0000 C   0  0  0  0  0  0  0  0  0
    1.0322    0.5976    0.0000 C   0  0  0  0  0  0  0  0  0
    1.0322   -0.2274    0.0000 C   0  0  0  0  0  0  0  0  0
    0.3177   -0.6399    0.0000 C   0  0  0  0  0  0  0  0  0
    0.3177   -1.4649    0.0000 C   0  0  0  0  0  0  0  0  0
   -1.1112    1.0101    0.0000 C   0  0  0  0  0  0  0  0  0
  1  2  1  0  0  0  0
  1 13  1  0  0  0  0
  2  3  1  0  0  0  0
  3  4  1  0  0  0  0
  3  7  1  0  0  0  0
  4  5  1  0  0  0  0
  4  6  1  0  0  0  0
  7  8  1  0  0  0  0
  8  9  4  0  0  0  0
  8 13  4  0  0  0  0
  9 10  4  0  0  0  0
 10 11  4  0  0  0  0
 10 14  1  0  0  0  0
 11 12  4  0  0  0  0
 12 13  4  0  0  0  0
 14 15  4  0  0  0  0
 14 19  4  0  0  0  0
 15 16  4  0  0  0  0
 15 21  1  0  0  0  0
 16 17  4  0  0  0  0
 17 18  4  0  0  0  0
 18 19  4  0  0  0  0
 19 20  1  0  0  0  0
M  END
>  <Name_Molregno>
304273

>  <5-HT7>
7.87

$$$$
306625
  Marvin  02231216192D 0   1.00000     0.00000     0

 26 28  0  0  1  0  0  0  0  0999 V2000
   -0.2592    0.0553    0.0000 N   0  0  0  0  0  0  0  0  0
   -0.9737    0.4678    0.0000 C   0  0  0  0  0  0  0  0  0
   -0.9737    1.2928    0.0000 N   0  0  0  0  0  0  0  0  0
   -0.2592    1.7053    0.0000 C   0  0  0  0  0  0  0  0  0
    0.4553    1.2928    0.0000 N   0  0  0  0  0  0  0  0  0
    0.4553    0.4678    0.0000 C   0  0  0  0  0  0  0  0  0
    1.1698    0.0553    0.0000 N   0  0  0  0  0  0  0  0  0
    1.8842    0.4678    0.0000 C   0  0  0  0  0  0  0  0  0
    2.5987    0.0553    0.0000 C   0  0  0  0  0  0  0  0  0
    3.3132    0.4678    0.0000 C   0  0  0  0  0  0  0  0  0
    4.0276    0.0553    0.0000 C   0  0  0  0  0  0  0  0  0
    4.7421    0.4678    0.0000 C   0  0  0  0  0  0  0  0  0
    5.4566    0.0553    0.0000 C   0  0  0  0  0  0  0  0  0
    5.4566   -0.7697    0.0000 C   0  0  0  0  0  0  0  0  0
    4.7421   -1.1822    0.0000 C   0  0  0  0  0  0  0  0  0
    4.0276   -0.7697    0.0000 C   0  0  0  0  0  0  0  0  0
   -0.2592    2.5303    0.0000 N   0  0  0  0  0  0  0  0  0
   -1.6881    0.0553    0.0000 N   0  0  0  0  0  0  0  0  0
   -1.6881   -0.7697    0.0000 C   0  0  0  0  0  0  0  0  0
   -0.9737   -1.1822    0.0000 C   0  0  0  0  0  0  0  0  0
   -2.4026   -1.1822    0.0000 C   0  0  0  0  0  0  0  0  0
   -2.4026   -2.0072    0.0000 C   0  0  0  0  0  0  0  0  0
   -3.1171   -2.4197    0.0000 C   0  0  0  0  0  0  0  0  0
   -3.8315   -2.0072    0.0000 C   0  0  0  0  0  0  0  0  0
   -3.8315   -1.1822    0.0000 C   0  0  0  0  0  0  0  0  0
   -3.1171   -0.7697    0.0000 C   0  0  0  0  0  0  0  0  0
  1  2  4  0  0  0  0
  1  6  4  0  0  0  0
  2  3  4  0  0  0  0
  2 18  1  0  0  0  0
  3  4  4  0  0  0  0
  4  5  4  0  0  0  0
  4 17  1  0  0  0  0
  5  6  4  0  0  0  0
  6  7  1  0  0  0  0
  7  8  1  0  0  0  0
  8  9  1  0  0  0  0
  9 10  1  0  0  0  0
 10 11  1  0  0  0  0
 11 12  4  0  0  0  0
 11 16  4  0  0  0  0
 12 13  4  0  0  0  0
 13 14  4  0  0  0  0
 14 15  4  0  0  0  0
 15 16  4  0  0  0  0
 18 19  1  0  0  0  0
 19 20  1  0  0  0  0
 19 21  1  0  0  0  0
 21 22  4  0  0  0  0
 21 26  4  0  0  0  0
 22 23  4  0  0  0  0
 23 24  4  0  0  0  0
 24 25  4  0  0  0  0
 25 26  4  0  0  0  0
M  END
>  <Name_Molregno>
306625

>  <5-HT7>
7.22

$$$$
306631
  Marvin  02231216192D 0   1.00000     0.00000     0

 26 28  0  0  1  0  0  0  0  0999 V2000
   -0.0788   -0.4211    0.0000 O   0  0  0  0  0  0  0  0  0
    0.6356   -0.0086    0.0000 C   0  0  0  0  0  0  0  0  0
    1.3501   -0.4211    0.0000 C   0  0  0  0  0  0  0  0  0
    2.0646   -0.0086    0.0000 N   0  0  0  0  0  0  0  0  0
    2.7791   -0.4211    0.0000 C   0  0  0  0  0  0  0  0  0
    3.4935   -0.0086    0.0000 N   0  0  0  0  0  0  0  0  0
    4.2080   -0.4211    0.0000 C   0  0  0  0  0  0  0  0  0
    4.2080   -1.2461    0.0000 N   0  0  0  0  0  0  0  0  0
    3.4935   -1.6586    0.0000 C   0  0  0  0  0  0  0  0  0
    2.7791   -1.2461    0.0000 N   0  0  0  0  0  0  0  0  0
    3.4935   -2.4836    0.0000 N   0  0  0  0  0  0  0  0  0
    4.9225   -0.0086    0.0000 N   0  0  0  0  0  0  0  0  0
    5.6369   -0.4211    0.0000 C   0  0  0  0  0  0  0  0  0
    5.6369   -1.2461    0.0000 C   0  0  0  0  0  0  0  0  0
    6.3514   -0.0086    0.0000 C   0  0  0  0  0  0  0  0  0
    6.3514    0.8164    0.0000 C   0  0  0  0  0  0  0  0  0
    7.0659    1.2289    0.0000 C   0  0  0  0  0  0  0  0  0
    7.7803    0.8164    0.0000 C   0  0  0  0  0  0  0  0  0
    7.7803   -0.0086    0.0000 C   0  0  0  0  0  0  0  0  0
    7.0659   -0.4211    0.0000 C   0  0  0  0  0  0  0  0  0
   -0.7933   -0.0086    0.0000 C   0  0  0  0  0  0  0  0  0
   -1.5078   -0.4211    0.0000 C   0  0  0  0  0  0  0  0  0
   -2.2222   -0.0086    0.0000 C   0  0  0  0  0  0  0  0  0
   -2.2222    0.8164    0.0000 C   0  0  0  0  0  0  0  0  0
   -1.5078    1.2289    0.0000 C   0  0  0  0  0  0  0  0  0
   -0.7933    0.8164    0.0000 C   0  0  0  0  0  0  0  0  0
  1  2  1  0  0  0  0
  1 21  1  0  0  0  0
  2  3  1  0  0  0  0
  3  4  1  0  0  0  0
  4  5  1  0  0  0  0
  5  6  4  0  0  0  0
  5 10  4  0  0  0  0
  6  7  4  0  0  0  0
  7  8  4  0  0  0  0
  7 12  1  0  0  0  0
  8  9  4  0  0  0  0
  9 10  4  0  0  0  0
  9 11  1  0  0  0  0
 12 13  1  0  0  0  0
 13 14  1  0  0  0  0
 13 15  1  0  0  0  0
 15 16  4  0  0  0  0
 15 20  4  0  0  0  0
 16 17  4  0  0  0  0
 17 18  4  0  0  0  0
 18 19  4  0  0  0  0
 19 20  4  0  0  0  0
 21 22  4  0  0  0  0
 21 26  4  0  0  0  0
 22 23  4  0  0  0  0
 23 24  4  0  0  0  0
 24 25  4  0  0  0  0
 25 26  4  0  0  0  0
M  END
>  <Name_Molregno>
306631

>  <5-HT7>
7.54

$$$$
306632
  Marvin  02231216192D 0   1.00000     0.00000     0

 25 27  0  0  1  0  0  0  0  0999 V2000
   -0.0814   -0.6379    0.0000 O   0  0  0  0  0  0  0  0  0
    0.6330   -0.2254    0.0000 C   0  0  0  0  0  0  0  0  0
    1.3475   -0.6379    0.0000 C   0  0  0  0  0  0  0  0  0
    2.0620   -0.2254    0.0000 N   0  0  0  0  0  0  0  0  0
    2.7764   -0.6379    0.0000 C   0  0  0  0  0  0  0  0  0
    3.4909   -0.2254    0.0000 C   0  0  0  0  0  0  0  0  0
    4.2054   -0.6379    0.0000 C   0  0  0  0  0  0  0  0  0
    4.9199   -0.2254    0.0000 N   0  0  0  0  0  0  0  0  0
    5.6343   -0.6379    0.0000 C   0  0  0  0  0  0  0  0  0
    5.6343   -1.4629    0.0000 C   0  0  0  0  0  0  0  0  0
    6.3488   -0.2254    0.0000 C   0  0  0  0  0  0  0  0  0
    6.3488    0.5996    0.0000 C   0  0  0  0  0  0  0  0  0
    7.0633    1.0121    0.0000 C   0  0  0  0  0  0  0  0  0
    7.7777    0.5996    0.0000 C   0  0  0  0  0  0  0  0  0
    7.7777   -0.2254    0.0000 C   0  0  0  0  0  0  0  0  0
    7.0633   -0.6379    0.0000 C   0  0  0  0  0  0  0  0  0
    4.2054   -1.4629    0.0000 C   0  0  0  0  0  0  0  0  0
    3.4909   -1.8754    0.0000 N   0  0  0  0  0  0  0  0  0
    2.7764   -1.4629    0.0000 C   0  0  0  0  0  0  0  0  0
   -0.7959   -0.2254    0.0000 C   0  0  0  0  0  0  0  0  0
   -1.5104   -0.6379    0.0000 C   0  0  0  0  0  0  0  0  0
   -2.2249   -0.2254    0.0000 C   0  0  0  0  0  0  0  0  0
   -2.2249    0.5996    0.0000 C   0  0  0  0  0  0  0  0  0
   -1.5104    1.0121    0.0000 C   0  0  0  0  0  0  0  0  0
   -0.7959    0.5996    0.0000 C   0  0  0  0  0  0  0  0  0
  1  2  1  0  0  0  0
  1 20  1  0  0  0  0
  2  3  1  0  0  0  0
  3  4  1  0  0  0  0
  4  5  1  0  0  0  0
  5  6  4  0  0  0  0
  5 19  4  0  0  0  0
  6  7  4  0  0  0  0
  7  8  1  0  0  0  0
  7 17  4  0  0  0  0
  8  9  1  0  0  0  0
  9 10  1  0  0  0  0
  9 11  1  0  0  0  0
 11 12  4  0  0  0  0
 11 16  4  0  0  0  0
 12 13  4  0  0  0  0
 13 14  4  0  0  0  0
 14 15  4  0  0  0  0
 15 16  4  0  0  0  0
 17 18  4  0  0  0  0
 18 19  4  0  0  0  0
 20 21  4  0  0  0  0
 20 25  4  0  0  0  0
 21 22  4  0  0  0  0
 22 23  4  0  0  0  0
 23 24  4  0  0  0  0
 24 25  4  0  0  0  0
M  END
>  <Name_Molregno>
306632

>  <5-HT7>
8.4

$$$$
306639
  Marvin  02231216192D 0   1.00000     0.00000     0

 26 28  0  0  1  0  0  0  0  0999 V2000
    0.0939   -0.4196    0.0000 F   0  0  0  0  0  0  0  0  0
    0.8084   -0.8321    0.0000 C   0  0  0  0  0  0  0  0  0
    1.5229   -0.4196    0.0000 C   0  0  0  0  0  0  0  0  0
    2.2373   -0.8321    0.0000 C   0  0  0  0  0  0  0  0  0
    2.2373   -1.6571    0.0000 C   0  0  0  0  0  0  0  0  0
    2.9518   -2.0696    0.0000 O   0  0  0  0  0  0  0  0  0
    3.6663   -1.6571    0.0000 C   0  0  0  0  0  0  0  0  0
    4.3808   -2.0696    0.0000 C   0  0  0  0  0  0  0  0  0
    5.0952   -1.6571    0.0000 N   0  0  0  0  0  0  0  0  0
    5.8097   -2.0696    0.0000 C   0  0  0  0  0  0  0  0  0
    6.5242   -1.6571    0.0000 C   0  0  0  0  0  0  0  0  0
    7.2386   -2.0696    0.0000 C   0  0  0  0  0  0  0  0  0
    7.9531   -1.6571    0.0000 N   0  0  0  0  0  0  0  0  0
    7.9531   -0.8321    0.0000 C   0  0  0  0  0  0  0  0  0
    7.2386   -0.4196    0.0000 C   0  0  0  0  0  0  0  0  0
    8.6676   -0.4196    0.0000 C   0  0  0  0  0  0  0  0  0
    8.6676    0.4054    0.0000 C   0  0  0  0  0  0  0  0  0
    9.3820    0.8179    0.0000 C   0  0  0  0  0  0  0  0  0
   10.0965    0.4054    0.0000 C   0  0  0  0  0  0  0  0  0
   10.0965   -0.4196    0.0000 C   0  0  0  0  0  0  0  0  0
    9.3820   -0.8321    0.0000 C   0  0  0  0  0  0  0  0  0
    7.2386   -2.8946    0.0000 C   0  0  0  0  0  0  0  0  0
    6.5242   -3.3071    0.0000 N   0  0  0  0  0  0  0  0  0
    5.8097   -2.8946    0.0000 C   0  0  0  0  0  0  0  0  0
    1.5229   -2.0696    0.0000 C   0  0  0  0  0  0  0  0  0
    0.8084   -1.6571    0.0000 C   0  0  0  0  0  0  0  0  0
  1  2  1  0  0  0  0
  2  3  4  0  0  0  0
  2 26  4  0  0  0  0
  3  4  4  0  0  0  0
  4  5  4  0  0  0  0
  5  6  1  0  0  0  0
  5 25  4  0  0  0  0
  6  7  1  0  0  0  0
  7  8  1  0  0  0  0
  8  9  1  0  0  0  0
  9 10  1  0  0  0  0
 10 11  4  0  0  0  0
 10 24  4  0  0  0  0
 11 12  4  0  0  0  0
 12 13  1  0  0  0  0
 12 22  4  0  0  0  0
 13 14  1  0  0  0  0
 14 15  1  0  0  0  0
 14 16  1  0  0  0  0
 16 17  4  0  0  0  0
 16 21  4  0  0  0  0
 17 18  4  0  0  0  0
 18 19  4  0  0  0  0
 19 20  4  0  0  0  0
 20 21  4  0  0  0  0
 22 23  4  0  0  0  0
 23 24  4  0  0  0  0
 25 26  4  0  0  0  0
M  END
>  <Name_Molregno>
306639

>  <5-HT7>
8.4

$$$$
306673
  Marvin  02231216192D 0   1.00000     0.00000     0

 24 26  0  0  1  0  0  0  0  0999 V2000
    0.5475    0.3522    0.0000 N   0  0  0  0  0  0  0  0  0
   -0.1670   -0.0603    0.0000 C   0  0  0  0  0  0  0  0  0
   -0.8815    0.3522    0.0000 C   0  0  0  0  0  0  0  0  0
   -1.5959   -0.0603    0.0000 N   0  0  0  0  0  0  0  0  0
   -1.5959   -0.8853    0.0000 C   0  0  0  0  0  0  0  0  0
   -0.8815   -1.2978    0.0000 C   0  0  0  0  0  0  0  0  0
   -2.3104   -1.2978    0.0000 C   0  0  0  0  0  0  0  0  0
   -2.3104   -2.1228    0.0000 C   0  0  0  0  0  0  0  0  0
   -3.0249   -2.5353    0.0000 C   0  0  0  0  0  0  0  0  0
   -3.7393   -2.1228    0.0000 C   0  0  0  0  0  0  0  0  0
   -3.7393   -1.2978    0.0000 C   0  0  0  0  0  0  0  0  0
   -3.0249   -0.8853    0.0000 C   0  0  0  0  0  0  0  0  0
   -0.8815    1.1772    0.0000 C   0  0  0  0  0  0  0  0  0
   -0.1670    1.5897    0.0000 C   0  0  0  0  0  0  0  0  0
   -0.1670    2.4147    0.0000 N   0  0  0  0  0  0  0  0  0
    0.5475    2.8272    0.0000 C   0  0  0  0  0  0  0  0  0
    0.5475    3.6522    0.0000 C   0  0  0  0  0  0  0  0  0
    1.2620    4.0647    0.0000 C   0  0  0  0  0  0  0  0  0
    1.2620    4.8897    0.0000 C   0  0  0  0  0  0  0  0  0
    1.9764    5.3022    0.0000 C   0  0  0  0  0  0  0  0  0
    2.6909    4.8897    0.0000 C   0  0  0  0  0  0  0  0  0
    2.6909    4.0647    0.0000 C   0  0  0  0  0  0  0  0  0
    1.9764    3.6522    0.0000 C   0  0  0  0  0  0  0  0  0
    0.5475    1.1772    0.0000 C   0  0  0  0  0  0  0  0  0
  1  2  4  0  0  0  0
  1 24  4  0  0  0  0
  2  3  4  0  0  0  0
  3  4  1  0  0  0  0
  3 13  4  0  0  0  0
  4  5  1  0  0  0  0
  5  6  1  0  0  0  0
  5  7  1  0  0  0  0
  7  8  4  0  0  0  0
  7 12  4  0  0  0  0
  8  9  4  0  0  0  0
  9 10  4  0  0  0  0
 10 11  4  0  0  0  0
 11 12  4  0  0  0  0
 13 14  4  0  0  0  0
 14 15  1  0  0  0  0
 14 24  4  0  0  0  0
 15 16  1  0  0  0  0
 16 17  1  0  0  0  0
 17 18  1  0  0  0  0
 18 19  4  0  0  0  0
 18 23  4  0  0  0  0
 19 20  4  0  0  0  0
 20 21  4  0  0  0  0
 21 22  4  0  0  0  0
 22 23  4  0  0  0  0
M  END
>  <Name_Molregno>
306673

>  <5-HT7>
7.89

$$$$
306674
  Marvin  02231216192D 0   1.00000     0.00000     0

 25 27  0  0  1  0  0  0  0  0999 V2000
    6.3641    4.9864    0.0000 F   0  0  0  0  0  0  0  0  0
    6.3641    4.1614    0.0000 C   0  0  0  0  0  0  0  0  0
    7.0786    3.7489    0.0000 C   0  0  0  0  0  0  0  0  0
    7.0786    2.9239    0.0000 C   0  0  0  0  0  0  0  0  0
    6.3641    2.5114    0.0000 C   0  0  0  0  0  0  0  0  0
    5.6497    2.9239    0.0000 C   0  0  0  0  0  0  0  0  0
    5.6497    3.7489    0.0000 C   0  0  0  0  0  0  0  0  0
    6.3641    1.6864    0.0000 C   0  0  0  0  0  0  0  0  0
    5.6497    1.2739    0.0000 C   0  0  0  0  0  0  0  0  0
    5.6497    0.4489    0.0000 N   0  0  0  0  0  0  0  0  0
    4.9352    0.0364    0.0000 C   0  0  0  0  0  0  0  0  0
    4.9352   -0.7886    0.0000 C   0  0  0  0  0  0  0  0  0
    4.2207   -1.2011    0.0000 C   0  0  0  0  0  0  0  0  0
    4.2207   -2.0261    0.0000 N   0  0  0  0  0  0  0  0  0
    4.9352   -2.4386    0.0000 C   0  0  0  0  0  0  0  0  0
    5.6497   -2.0261    0.0000 C   0  0  0  0  0  0  0  0  0
    4.9352   -3.2636    0.0000 C   0  0  0  0  0  0  0  0  0
    5.6497   -3.6761    0.0000 C   0  0  0  0  0  0  0  0  0
    5.6497   -4.5011    0.0000 C   0  0  0  0  0  0  0  0  0
    4.9352   -4.9136    0.0000 C   0  0  0  0  0  0  0  0  0
    4.2207   -4.5011    0.0000 C   0  0  0  0  0  0  0  0  0
    4.2207   -3.6761    0.0000 C   0  0  0  0  0  0  0  0  0
    3.5062   -0.7886    0.0000 C   0  0  0  0  0  0  0  0  0
    3.5062    0.0364    0.0000 N   0  0  0  0  0  0  0  0  0
    4.2207    0.4489    0.0000 C   0  0  0  0  0  0  0  0  0
  1  2  1  0  0  0  0
  2  3  4  0  0  0  0
  2  7  4  0  0  0  0
  3  4  4  0  0  0  0
  4  5  4  0  0  0  0
  5  6  4  0  0  0  0
  5  8  1  0  0  0  0
  6  7  4  0  0  0  0
  8  9  1  0  0  0  0
  9 10  1  0  0  0  0
 10 11  1  0  0  0  0
 11 12  4  0  0  0  0
 11 25  4  0  0  0  0
 12 13  4  0  0  0  0
 13 14  1  0  0  0  0
 13 23  4  0  0  0  0
 14 15  1  0  0  0  0
 15 16  1  0  0  0  0
 15 17  1  0  0  0  0
 17 18  4  0  0  0  0
 17 22  4  0  0  0  0
 18 19  4  0  0  0  0
 19 20  4  0  0  0  0
 20 21  4  0  0  0  0
 21 22  4  0  0  0  0
 23 24  4  0  0  0  0
 24 25  4  0  0  0  0
M  END
>  <Name_Molregno>
306674

>  <5-HT7>
7.8

$$$$
306734
  Marvin  02231216192D 0   1.00000     0.00000     0

 27 29  0  0  1  0  0  0  0  0999 V2000
    4.0885    6.4562    0.0000 F   0  0  0  0  0  0  0  0  0
    4.0885    5.6312    0.0000 C   0  0  0  0  0  0  0  0  0
    4.8030    5.2187    0.0000 C   0  0  0  0  0  0  0  0  0
    4.8030    4.3937    0.0000 C   0  0  0  0  0  0  0  0  0
    4.0885    3.9812    0.0000 C   0  0  0  0  0  0  0  0  0
    3.3740    4.3937    0.0000 C   0  0  0  0  0  0  0  0  0
    3.3740    5.2187    0.0000 C   0  0  0  0  0  0  0  0  0
    4.0885    3.1562    0.0000 C   0  0  0  0  0  0  0  0  0
    4.8030    2.7437    0.0000 N   0  0  0  0  0  0  0  0  0
    4.8030    1.9187    0.0000 C   0  0  0  0  0  0  0  0  0
    5.5174    1.5062    0.0000 N   0  0  0  0  0  0  0  0  0
    5.5174    0.6812    0.0000 C   0  0  0  0  0  0  0  0  0
    4.8030    0.2687    0.0000 N   0  0  0  0  0  0  0  0  0
    4.0885    0.6812    0.0000 C   0  0  0  0  0  0  0  0  0
    4.0885    1.5062    0.0000 N   0  0  0  0  0  0  0  0  0
    3.3740    0.2687    0.0000 N   0  0  0  0  0  0  0  0  0
    6.2319    0.2687    0.0000 N   0  0  0  0  0  0  0  0  0
    6.2319   -0.5563    0.0000 C   0  0  0  0  0  0  0  0  0
    6.9464   -0.9688    0.0000 C   0  0  0  0  0  0  0  0  0
    6.9464   -1.7938    0.0000 C   0  0  0  0  0  0  0  0  0
    7.6608   -2.2063    0.0000 C   0  0  0  0  0  0  0  0  0
    7.6608   -3.0313    0.0000 C   0  0  0  0  0  0  0  0  0
    6.9464   -3.4438    0.0000 C   0  0  0  0  0  0  0  0  0
    6.9464   -4.2688    0.0000 F   0  0  0  0  0  0  0  0  0
    6.2319   -3.0313    0.0000 C   0  0  0  0  0  0  0  0  0
    6.2319   -2.2063    0.0000 C   0  0  0  0  0  0  0  0  0
    3.3740    2.7437    0.0000 C   0  0  0  0  0  0  0  0  0
  1  2  1  0  0  0  0
  2  3  4  0  0  0  0
  2  7  4  0  0  0  0
  3  4  4  0  0  0  0
  4  5  4  0  0  0  0
  5  6  4  0  0  0  0
  5  8  1  0  0  0  0
  6  7  4  0  0  0  0
  8  9  1  0  0  0  0
  8 27  1  0  0  0  0
  9 10  1  0  0  0  0
 10 11  4  0  0  0  0
 10 15  4  0  0  0  0
 11 12  4  0  0  0  0
 12 13  4  0  0  0  0
 12 17  1  0  0  0  0
 13 14  4  0  0  0  0
 14 15  4  0  0  0  0
 14 16  1  0  0  0  0
 17 18  1  0  0  0  0
 18 19  1  0  0  0  0
 19 20  1  0  0  0  0
 20 21  4  0  0  0  0
 20 26  4  0  0  0  0
 21 22  4  0  0  0  0
 22 23  4  0  0  0  0
 23 24  1  0  0  0  0
 23 25  4  0  0  0  0
 25 26  4  0  0  0  0
M  END
>  <Name_Molregno>
306734

>  <5-HT7>
8.7

$$$$
306745
  Marvin  02231216192D 0   1.00000     0.00000     0

 26 28  0  0  1  0  0  0  0  0999 V2000
    3.9439    4.0805    0.0000 F   0  0  0  0  0  0  0  0  0
    3.9439    3.2555    0.0000 C   0  0  0  0  0  0  0  0  0
    4.6584    2.8430    0.0000 C   0  0  0  0  0  0  0  0  0
    4.6584    2.0180    0.0000 C   0  0  0  0  0  0  0  0  0
    3.9439    1.6055    0.0000 C   0  0  0  0  0  0  0  0  0
    3.2294    2.0180    0.0000 C   0  0  0  0  0  0  0  0  0
    3.2294    2.8430    0.0000 C   0  0  0  0  0  0  0  0  0
    3.9439    0.7805    0.0000 C   0  0  0  0  0  0  0  0  0
    4.6584    0.3680    0.0000 N   0  0  0  0  0  0  0  0  0
    4.6584   -0.4570    0.0000 C   0  0  0  0  0  0  0  0  0
    5.3729   -0.8695    0.0000 N   0  0  0  0  0  0  0  0  0
    5.3729   -1.6945    0.0000 C   0  0  0  0  0  0  0  0  0
    4.6584   -2.1070    0.0000 N   0  0  0  0  0  0  0  0  0
    3.9439   -1.6945    0.0000 C   0  0  0  0  0  0  0  0  0
    3.9439   -0.8695    0.0000 N   0  0  0  0  0  0  0  0  0
    3.2294   -2.1070    0.0000 N   0  0  0  0  0  0  0  0  0
    6.0873   -2.1070    0.0000 N   0  0  0  0  0  0  0  0  0
    6.0873   -2.9320    0.0000 C   0  0  0  0  0  0  0  0  0
    6.8018   -3.3445    0.0000 C   0  0  0  0  0  0  0  0  0
    6.8018   -4.1695    0.0000 C   0  0  0  0  0  0  0  0  0
    7.5163   -4.5820    0.0000 N   0  0  0  0  0  0  0  0  0
    7.5163   -5.4070    0.0000 C   0  0  0  0  0  0  0  0  0
    6.8018   -5.8195    0.0000 C   0  0  0  0  0  0  0  0  0
    6.0873   -5.4070    0.0000 C   0  0  0  0  0  0  0  0  0
    6.0873   -4.5820    0.0000 C   0  0  0  0  0  0  0  0  0
    3.2294    0.3680    0.0000 C   0  0  0  0  0  0  0  0  0
  1  2  1  0  0  0  0
  2  3  4  0  0  0  0
  2  7  4  0  0  0  0
  3  4  4  0  0  0  0
  4  5  4  0  0  0  0
  5  6  4  0  0  0  0
  5  8  1  0  0  0  0
  6  7  4  0  0  0  0
  8  9  1  0  0  0  0
  8 26  1  0  0  0  0
  9 10  1  0  0  0  0
 10 11  4  0  0  0  0
 10 15  4  0  0  0  0
 11 12  4  0  0  0  0
 12 13  4  0  0  0  0
 12 17  1  0  0  0  0
 13 14  4  0  0  0  0
 14 15  4  0  0  0  0
 14 16  1  0  0  0  0
 17 18  1  0  0  0  0
 18 19  1  0  0  0  0
 19 20  1  0  0  0  0
 20 21  4  0  0  0  0
 20 25  4  0  0  0  0
 21 22  4  0  0  0  0
 22 23  4  0  0  0  0
 23 24  4  0  0  0  0
 24 25  4  0  0  0  0
M  END
>  <Name_Molregno>
306745

>  <5-HT7>
8.05

$$$$
306750
  Marvin  02231216192D 0   1.00000     0.00000     0

 28 30  0  0  1  0  0  0  0  0999 V2000
    0.4802    0.9906    0.0000 O   0  0  0  0  0  0  0  0  0
    1.1946    1.4031    0.0000 C   0  0  0  0  0  0  0  0  0
    1.9091    0.9906    0.0000 C   0  0  0  0  0  0  0  0  0
    2.6236    1.4031    0.0000 N   0  0  0  0  0  0  0  0  0
    3.3381    0.9906    0.0000 C   0  0  0  0  0  0  0  0  0
    4.0525    1.4031    0.0000 N   0  0  0  0  0  0  0  0  0
    4.7670    0.9906    0.0000 C   0  0  0  0  0  0  0  0  0
    4.7670    0.1656    0.0000 N   0  0  0  0  0  0  0  0  0
    4.0525   -0.2469    0.0000 C   0  0  0  0  0  0  0  0  0
    3.3381    0.1656    0.0000 N   0  0  0  0  0  0  0  0  0
    4.0525   -1.0719    0.0000 N   0  0  0  0  0  0  0  0  0
    4.7670   -1.4844    0.0000 C   0  0  0  0  0  0  0  0  0
    5.4815   -1.0719    0.0000 C   0  0  0  0  0  0  0  0  0
    4.7670   -2.3094    0.0000 C   0  0  0  0  0  0  0  0  0
    5.4815   -2.7219    0.0000 C   0  0  0  0  0  0  0  0  0
    5.4815   -3.5469    0.0000 C   0  0  0  0  0  0  0  0  0
    4.7670   -3.9594    0.0000 C   0  0  0  0  0  0  0  0  0
    4.0525   -3.5469    0.0000 C   0  0  0  0  0  0  0  0  0
    4.0525   -2.7219    0.0000 C   0  0  0  0  0  0  0  0  0
    5.4815    1.4031    0.0000 N   0  0  0  0  0  0  0  0  0
    6.1959    0.9906    0.0000 C   0  0  0  0  0  0  0  0  0
    5.4815    2.2281    0.0000 C   0  0  0  0  0  0  0  0  0
   -0.2343    1.4031    0.0000 C   0  0  0  0  0  0  0  0  0
   -0.9488    0.9906    0.0000 C   0  0  0  0  0  0  0  0  0
   -1.6632    1.4031    0.0000 C   0  0  0  0  0  0  0  0  0
   -1.6632    2.2281    0.0000 C   0  0  0  0  0  0  0  0  0
   -0.9488    2.6406    0.0000 C   0  0  0  0  0  0  0  0  0
   -0.2343    2.2281    0.0000 C   0  0  0  0  0  0  0  0  0
  1  2  1  0  0  0  0
  1 23  1  0  0  0  0
  2  3  1  0  0  0  0
  3  4  1  0  0  0  0
  4  5  1  0  0  0  0
  5  6  4  0  0  0  0
  5 10  4  0  0  0  0
  6  7  4  0  0  0  0
  7  8  4  0  0  0  0
  7 20  1  0  0  0  0
  8  9  4  0  0  0  0
  9 10  4  0  0  0  0
  9 11  1  0  0  0  0
 11 12  1  0  0  0  0
 12 13  1  0  0  0  0
 12 14  1  0  0  0  0
 14 15  4  0  0  0  0
 14 19  4  0  0  0  0
 15 16  4  0  0  0  0
 16 17  4  0  0  0  0
 17 18  4  0  0  0  0
 18 19  4  0  0  0  0
 20 21  1  0  0  0  0
 20 22  1  0  0  0  0
 23 24  4  0  0  0  0
 23 28  4  0  0  0  0
 24 25  4  0  0  0  0
 25 26  4  0  0  0  0
 26 27  4  0  0  0  0
 27 28  4  0  0  0  0
M  END
>  <Name_Molregno>
306750

>  <5-HT7>
7.64

$$$$
306751
  Marvin  02231216192D 0   1.00000     0.00000     0

 26 28  0  0  1  0  0  0  0  0999 V2000
    0.6631    1.2619    0.0000 O   0  0  0  0  0  0  0  0  0
    1.3776    1.6744    0.0000 C   0  0  0  0  0  0  0  0  0
    2.0921    1.2619    0.0000 C   0  0  0  0  0  0  0  0  0
    2.8065    1.6744    0.0000 N   0  0  0  0  0  0  0  0  0
    3.5210    1.2619    0.0000 C   0  0  0  0  0  0  0  0  0
    4.2355    1.6744    0.0000 N   0  0  0  0  0  0  0  0  0
    4.9499    1.2619    0.0000 C   0  0  0  0  0  0  0  0  0
    4.9499    0.4369    0.0000 N   0  0  0  0  0  0  0  0  0
    4.2355    0.0244    0.0000 C   0  0  0  0  0  0  0  0  0
    3.5210    0.4369    0.0000 N   0  0  0  0  0  0  0  0  0
    4.2355   -0.8006    0.0000 N   0  0  0  0  0  0  0  0  0
    4.9499   -1.2131    0.0000 C   0  0  0  0  0  0  0  0  0
    5.6644   -0.8006    0.0000 C   0  0  0  0  0  0  0  0  0
    4.9499   -2.0381    0.0000 C   0  0  0  0  0  0  0  0  0
    5.6644   -2.4506    0.0000 C   0  0  0  0  0  0  0  0  0
    5.6644   -3.2756    0.0000 C   0  0  0  0  0  0  0  0  0
    4.9499   -3.6881    0.0000 C   0  0  0  0  0  0  0  0  0
    4.2355   -3.2756    0.0000 C   0  0  0  0  0  0  0  0  0
    4.2355   -2.4506    0.0000 C   0  0  0  0  0  0  0  0  0
    5.6644    1.6744    0.0000 C   0  0  0  0  0  0  0  0  0
   -0.0514    1.6744    0.0000 C   0  0  0  0  0  0  0  0  0
   -0.7658    1.2619    0.0000 C   0  0  0  0  0  0  0  0  0
   -1.4803    1.6744    0.0000 C   0  0  0  0  0  0  0  0  0
   -1.4803    2.4994    0.0000 C   0  0  0  0  0  0  0  0  0
   -0.7658    2.9119    0.0000 C   0  0  0  0  0  0  0  0  0
   -0.0514    2.4994    0.0000 C   0  0  0  0  0  0  0  0  0
  1  2  1  0  0  0  0
  1 21  1  0  0  0  0
  2  3  1  0  0  0  0
  3  4  1  0  0  0  0
  4  5  1  0  0  0  0
  5  6  4  0  0  0  0
  5 10  4  0  0  0  0
  6  7  4  0  0  0  0
  7  8  4  0  0  0  0
  7 20  1  0  0  0  0
  8  9  4  0  0  0  0
  9 10  4  0  0  0  0
  9 11  1  0  0  0  0
 11 12  1  0  0  0  0
 12 13  1  0  0  0  0
 12 14  1  0  0  0  0
 14 15  4  0  0  0  0
 14 19  4  0  0  0  0
 15 16  4  0  0  0  0
 16 17  4  0  0  0  0
 17 18  4  0  0  0  0
 18 19  4  0  0  0  0
 21 22  4  0  0  0  0
 21 26  4  0  0  0  0
 22 23  4  0  0  0  0
 23 24  4  0  0  0  0
 24 25  4  0  0  0  0
 25 26  4  0  0  0  0
M  END
>  <Name_Molregno>
306751

>  <5-HT7>
7.27

$$$$
306758
  Marvin  02231216192D 0   1.00000     0.00000     0

 24 26  0  0  1  0  0  0  0  0999 V2000
    0.1731    0.4023    0.0000 N   0  0  0  0  0  0  0  0  0
    0.1731   -0.4227    0.0000 C   0  0  0  0  0  0  0  0  0
    0.8876   -0.8352    0.0000 N   0  0  0  0  0  0  0  0  0
    0.8876   -1.6602    0.0000 C   0  0  0  0  0  0  0  0  0
    0.1731   -2.0727    0.0000 C   0  0  0  0  0  0  0  0  0
    1.6020   -2.0727    0.0000 C   0  0  0  0  0  0  0  0  0
    2.3165   -1.6602    0.0000 C   0  0  0  0  0  0  0  0  0
    3.0310   -2.0727    0.0000 C   0  0  0  0  0  0  0  0  0
    3.0310   -2.8977    0.0000 C   0  0  0  0  0  0  0  0  0
    2.3165   -3.3102    0.0000 C   0  0  0  0  0  0  0  0  0
    1.6020   -2.8977    0.0000 C   0  0  0  0  0  0  0  0  0
   -0.5414   -0.8352    0.0000 C   0  0  0  0  0  0  0  0  0
   -1.2559   -0.4227    0.0000 C   0  0  0  0  0  0  0  0  0
   -1.2559    0.4023    0.0000 C   0  0  0  0  0  0  0  0  0
   -0.5414    0.8148    0.0000 C   0  0  0  0  0  0  0  0  0
   -0.5414    1.6398    0.0000 N   0  0  0  0  0  0  0  0  0
    0.1731    2.0523    0.0000 C   0  0  0  0  0  0  0  0  0
    0.1731    2.8773    0.0000 C   0  0  0  0  0  0  0  0  0
   -0.5414    3.2898    0.0000 C   0  0  0  0  0  0  0  0  0
   -1.2559    2.8773    0.0000 C   0  0  0  0  0  0  0  0  0
   -1.9703    3.2898    0.0000 C   0  0  0  0  0  0  0  0  0
   -1.9703    4.1148    0.0000 C   0  0  0  0  0  0  0  0  0
   -1.2559    4.5273    0.0000 C   0  0  0  0  0  0  0  0  0
   -0.5414    4.1148    0.0000 C   0  0  0  0  0  0  0  0  0
  1  2  4  0  0  0  0
  1 15  4  0  0  0  0
  2  3  1  0  0  0  0
  2 12  4  0  0  0  0
  3  4  1  0  0  0  0
  4  5  1  0  0  0  0
  4  6  1  0  0  0  0
  6  7  4  0  0  0  0
  6 11  4  0  0  0  0
  7  8  4  0  0  0  0
  8  9  4  0  0  0  0
  9 10  4  0  0  0  0
 10 11  4  0  0  0  0
 12 13  4  0  0  0  0
 13 14  4  0  0  0  0
 14 15  4  0  0  0  0
 15 16  1  0  0  0  0
 16 17  1  0  0  0  0
 17 18  1  0  0  0  0
 18 19  1  0  0  0  0
 19 20  4  0  0  0  0
 19 24  4  0  0  0  0
 20 21  4  0  0  0  0
 21 22  4  0  0  0  0
 22 23  4  0  0  0  0
 23 24  4  0  0  0  0
M  END
>  <Name_Molregno>
306758

>  <5-HT7>
6

$$$$
306759
  Marvin  02231216192D 0   1.00000     0.00000     0

 25 27  0  0  1  0  0  0  0  0999 V2000
   -0.0814   -0.6379    0.0000 O   0  0  0  0  0  0  0  0  0
    0.6330   -0.2254    0.0000 C   0  0  0  0  0  0  0  0  0
    1.3475   -0.6379    0.0000 C   0  0  0  0  0  0  0  0  0
    2.0620   -0.2254    0.0000 N   0  0  0  0  0  0  0  0  0
    2.7764   -0.6379    0.0000 C   0  0  0  0  0  0  0  0  0
    3.4909   -0.2254    0.0000 N   0  0  0  0  0  0  0  0  0
    4.2054   -0.6379    0.0000 C   0  0  0  0  0  0  0  0  0
    4.9199   -0.2254    0.0000 N   0  0  0  0  0  0  0  0  0
    5.6343   -0.6379    0.0000 C   0  0  0  0  0  0  0  0  0
    5.6343   -1.4629    0.0000 C   0  0  0  0  0  0  0  0  0
    6.3488   -0.2254    0.0000 C   0  0  0  0  0  0  0  0  0
    6.3488    0.5996    0.0000 C   0  0  0  0  0  0  0  0  0
    7.0633    1.0121    0.0000 C   0  0  0  0  0  0  0  0  0
    7.7777    0.5996    0.0000 C   0  0  0  0  0  0  0  0  0
    7.7777   -0.2254    0.0000 C   0  0  0  0  0  0  0  0  0
    7.0633   -0.6379    0.0000 C   0  0  0  0  0  0  0  0  0
    4.2054   -1.4629    0.0000 C   0  0  0  0  0  0  0  0  0
    3.4909   -1.8754    0.0000 C   0  0  0  0  0  0  0  0  0
    2.7764   -1.4629    0.0000 C   0  0  0  0  0  0  0  0  0
   -0.7959   -0.2254    0.0000 C   0  0  0  0  0  0  0  0  0
   -1.5104   -0.6379    0.0000 C   0  0  0  0  0  0  0  0  0
   -2.2249   -0.2254    0.0000 C   0  0  0  0  0  0  0  0  0
   -2.2249    0.5996    0.0000 C   0  0  0  0  0  0  0  0  0
   -1.5104    1.0121    0.0000 C   0  0  0  0  0  0  0  0  0
   -0.7959    0.5996    0.0000 C   0  0  0  0  0  0  0  0  0
  1  2  1  0  0  0  0
  1 20  1  0  0  0  0
  2  3  1  0  0  0  0
  3  4  1  0  0  0  0
  4  5  1  0  0  0  0
  5  6  4  0  0  0  0
  5 19  4  0  0  0  0
  6  7  4  0  0  0  0
  7  8  1  0  0  0  0
  7 17  4  0  0  0  0
  8  9  1  0  0  0  0
  9 10  1  0  0  0  0
  9 11  1  0  0  0  0
 11 12  4  0  0  0  0
 11 16  4  0  0  0  0
 12 13  4  0  0  0  0
 13 14  4  0  0  0  0
 14 15  4  0  0  0  0
 15 16  4  0  0  0  0
 17 18  4  0  0  0  0
 18 19  4  0  0  0  0
 20 21  4  0  0  0  0
 20 25  4  0  0  0  0
 21 22  4  0  0  0  0
 22 23  4  0  0  0  0
 23 24  4  0  0  0  0
 24 25  4  0  0  0  0
M  END
>  <Name_Molregno>
306759

>  <5-HT7>
6

$$$$
306787
  Marvin  02231216192D 0   1.00000     0.00000     0

 25 27  0  0  1  0  0  0  0  0999 V2000
   -0.0814   -0.6379    0.0000 O   0  0  0  0  0  0  0  0  0
    0.6330   -0.2254    0.0000 C   0  0  0  0  0  0  0  0  0
    1.3475   -0.6379    0.0000 C   0  0  0  0  0  0  0  0  0
    2.0620   -0.2254    0.0000 N   0  0  0  0  0  0  0  0  0
    2.7764   -0.6379    0.0000 C   0  0  0  0  0  0  0  0  0
    3.4909   -0.2254    0.0000 N   0  0  0  0  0  0  0  0  0
    4.2054   -0.6379    0.0000 C   0  0  0  0  0  0  0  0  0
    4.2054   -1.4629    0.0000 N   0  0  0  0  0  0  0  0  0
    3.4909   -1.8754    0.0000 C   0  0  0  0  0  0  0  0  0
    2.7764   -1.4629    0.0000 N   0  0  0  0  0  0  0  0  0
    4.9199   -0.2254    0.0000 N   0  0  0  0  0  0  0  0  0
    5.6343   -0.6379    0.0000 C   0  0  0  0  0  0  0  0  0
    5.6343   -1.4629    0.0000 C   0  0  0  0  0  0  0  0  0
    6.3488   -0.2254    0.0000 C   0  0  0  0  0  0  0  0  0
    6.3488    0.5996    0.0000 C   0  0  0  0  0  0  0  0  0
    7.0633    1.0121    0.0000 C   0  0  0  0  0  0  0  0  0
    7.7777    0.5996    0.0000 C   0  0  0  0  0  0  0  0  0
    7.7777   -0.2254    0.0000 C   0  0  0  0  0  0  0  0  0
    7.0633   -0.6379    0.0000 C   0  0  0  0  0  0  0  0  0
   -0.7959   -0.2254    0.0000 C   0  0  0  0  0  0  0  0  0
   -1.5104   -0.6379    0.0000 C   0  0  0  0  0  0  0  0  0
   -2.2249   -0.2254    0.0000 C   0  0  0  0  0  0  0  0  0
   -2.2249    0.5996    0.0000 C   0  0  0  0  0  0  0  0  0
   -1.5104    1.0121    0.0000 C   0  0  0  0  0  0  0  0  0
   -0.7959    0.5996    0.0000 C   0  0  0  0  0  0  0  0  0
  1  2  1  0  0  0  0
  1 20  1  0  0  0  0
  2  3  1  0  0  0  0
  3  4  1  0  0  0  0
  4  5  1  0  0  0  0
  5  6  4  0  0  0  0
  5 10  4  0  0  0  0
  6  7  4  0  0  0  0
  7  8  4  0  0  0  0
  7 11  1  0  0  0  0
  8  9  4  0  0  0  0
  9 10  4  0  0  0  0
 11 12  1  0  0  0  0
 12 13  1  0  0  0  0
 12 14  1  0  0  0  0
 14 15  4  0  0  0  0
 14 19  4  0  0  0  0
 15 16  4  0  0  0  0
 16 17  4  0  0  0  0
 17 18  4  0  0  0  0
 18 19  4  0  0  0  0
 20 21  4  0  0  0  0
 20 25  4  0  0  0  0
 21 22  4  0  0  0  0
 22 23  4  0  0  0  0
 23 24  4  0  0  0  0
 24 25  4  0  0  0  0
M  END
>  <Name_Molregno>
306787

>  <5-HT7>
8.52

$$$$
306794
  Marvin  02231216192D 0   1.00000     0.00000     0

 26 28  0  0  1  0  0  0  0  0999 V2000
    1.0254   -3.9796    0.0000 F   0  0  0  0  0  0  0  0  0
    1.0254   -3.1546    0.0000 C   0  0  0  0  0  0  0  0  0
    0.3109   -2.7421    0.0000 N   0  0  0  0  0  0  0  0  0
    0.3109   -1.9171    0.0000 C   0  0  0  0  0  0  0  0  0
    1.0254   -1.5046    0.0000 N   0  0  0  0  0  0  0  0  0
    1.7398   -1.9171    0.0000 C   0  0  0  0  0  0  0  0  0
    1.7398   -2.7421    0.0000 N   0  0  0  0  0  0  0  0  0
    2.4543   -1.5046    0.0000 N   0  0  0  0  0  0  0  0  0
    3.1688   -1.9171    0.0000 C   0  0  0  0  0  0  0  0  0
    3.8832   -1.5046    0.0000 C   0  0  0  0  0  0  0  0  0
    4.5977   -1.9171    0.0000 O   0  0  0  0  0  0  0  0  0
    5.3122   -1.5046    0.0000 C   0  0  0  0  0  0  0  0  0
    5.3122   -0.6796    0.0000 C   0  0  0  0  0  0  0  0  0
    6.0266   -0.2671    0.0000 C   0  0  0  0  0  0  0  0  0
    6.7411   -0.6796    0.0000 C   0  0  0  0  0  0  0  0  0
    6.7411   -1.5046    0.0000 C   0  0  0  0  0  0  0  0  0
    6.0266   -1.9171    0.0000 C   0  0  0  0  0  0  0  0  0
   -0.4036   -1.5046    0.0000 N   0  0  0  0  0  0  0  0  0
   -1.1181   -1.9171    0.0000 C   0  0  0  0  0  0  0  0  0
   -1.1181   -2.7421    0.0000 C   0  0  0  0  0  0  0  0  0
   -1.8325   -1.5046    0.0000 C   0  0  0  0  0  0  0  0  0
   -2.5470   -1.9171    0.0000 C   0  0  0  0  0  0  0  0  0
   -3.2615   -1.5046    0.0000 C   0  0  0  0  0  0  0  0  0
   -3.2615   -0.6796    0.0000 C   0  0  0  0  0  0  0  0  0
   -2.5470   -0.2671    0.0000 C   0  0  0  0  0  0  0  0  0
   -1.8325   -0.6796    0.0000 C   0  0  0  0  0  0  0  0  0
  1  2  1  0  0  0  0
  2  3  4  0  0  0  0
  2  7  4  0  0  0  0
  3  4  4  0  0  0  0
  4  5  4  0  0  0  0
  4 18  1  0  0  0  0
  5  6  4  0  0  0  0
  6  7  4  0  0  0  0
  6  8  1  0  0  0  0
  8  9  1  0  0  0  0
  9 10  1  0  0  0  0
 10 11  1  0  0  0  0
 11 12  1  0  0  0  0
 12 13  4  0  0  0  0
 12 17  4  0  0  0  0
 13 14  4  0  0  0  0
 14 15  4  0  0  0  0
 15 16  4  0  0  0  0
 16 17  4  0  0  0  0
 18 19  1  0  0  0  0
 19 20  1  0  0  0  0
 19 21  1  0  0  0  0
 21 22  4  0  0  0  0
 21 26  4  0  0  0  0
 22 23  4  0  0  0  0
 23 24  4  0  0  0  0
 24 25  4  0  0  0  0
 25 26  4  0  0  0  0
M  END
>  <Name_Molregno>
306794

>  <5-HT7>
8

$$$$
306795
  Marvin  02231216192D 0   1.00000     0.00000     0

 25 27  0  0  1  0  0  0  0  0999 V2000
    0.7473    1.4464    0.0000 O   0  0  0  0  0  0  0  0  0
    1.4618    1.8589    0.0000 C   0  0  0  0  0  0  0  0  0
    2.1763    1.4464    0.0000 C   0  0  0  0  0  0  0  0  0
    2.8908    1.8589    0.0000 N   0  0  0  0  0  0  0  0  0
    3.6052    1.4464    0.0000 C   0  0  0  0  0  0  0  0  0
    4.3197    1.8589    0.0000 N   0  0  0  0  0  0  0  0  0
    5.0342    1.4464    0.0000 C   0  0  0  0  0  0  0  0  0
    5.0342    0.6214    0.0000 C   0  0  0  0  0  0  0  0  0
    4.3197    0.2089    0.0000 C   0  0  0  0  0  0  0  0  0
    4.3197   -0.6161    0.0000 N   0  0  0  0  0  0  0  0  0
    5.0342   -1.0286    0.0000 C   0  0  0  0  0  0  0  0  0
    5.7486   -0.6161    0.0000 C   0  0  0  0  0  0  0  0  0
    5.0342   -1.8536    0.0000 C   0  0  0  0  0  0  0  0  0
    5.7486   -2.2661    0.0000 C   0  0  0  0  0  0  0  0  0
    5.7486   -3.0911    0.0000 C   0  0  0  0  0  0  0  0  0
    5.0342   -3.5036    0.0000 C   0  0  0  0  0  0  0  0  0
    4.3197   -3.0911    0.0000 C   0  0  0  0  0  0  0  0  0
    4.3197   -2.2661    0.0000 C   0  0  0  0  0  0  0  0  0
    3.6052    0.6214    0.0000 C   0  0  0  0  0  0  0  0  0
    0.0329    1.8589    0.0000 C   0  0  0  0  0  0  0  0  0
   -0.6816    1.4464    0.0000 C   0  0  0  0  0  0  0  0  0
   -1.3961    1.8589    0.0000 C   0  0  0  0  0  0  0  0  0
   -1.3961    2.6839    0.0000 C   0  0  0  0  0  0  0  0  0
   -0.6816    3.0964    0.0000 C   0  0  0  0  0  0  0  0  0
    0.0329    2.6839    0.0000 C   0  0  0  0  0  0  0  0  0
  1  2  1  0  0  0  0
  1 20  1  0  0  0  0
  2  3  1  0  0  0  0
  3  4  1  0  0  0  0
  4  5  1  0  0  0  0
  5  6  4  0  0  0  0
  5 19  4  0  0  0  0
  6  7  4  0  0  0  0
  7  8  4  0  0  0  0
  8  9  4  0  0  0  0
  9 10  1  0  0  0  0
  9 19  4  0  0  0  0
 10 11  1  0  0  0  0
 11 12  1  0  0  0  0
 11 13  1  0  0  0  0
 13 14  4  0  0  0  0
 13 18  4  0  0  0  0
 14 15  4  0  0  0  0
 15 16  4  0  0  0  0
 16 17  4  0  0  0  0
 17 18  4  0  0  0  0
 20 21  4  0  0  0  0
 20 25  4  0  0  0  0
 21 22  4  0  0  0  0
 22 23  4  0  0  0  0
 23 24  4  0  0  0  0
 24 25  4  0  0  0  0
M  STY  1   1 DAT
M  SAL   1  1   6
M  SDT   1 MRV_IMPLICIT_H                                        
M  SDD   1     0.0000    0.0000    DR    ALL  0       0  
M  SED   1 IMPL_H1
M  END
>  <Name_Molregno>
306795

>  <5-HT7>
9.4

$$$$
306798
  Marvin  02231216192D 0   1.00000     0.00000     0

 28 30  0  0  1  0  0  0  0  0999 V2000
    1.9072    8.4741    0.0000 F   0  0  0  0  0  0  0  0  0
    1.9072    7.6491    0.0000 C   0  0  0  0  0  0  0  0  0
    2.6216    7.2366    0.0000 C   0  0  0  0  0  0  0  0  0
    2.6216    6.4116    0.0000 C   0  0  0  0  0  0  0  0  0
    1.9072    5.9991    0.0000 C   0  0  0  0  0  0  0  0  0
    1.1927    6.4116    0.0000 C   0  0  0  0  0  0  0  0  0
    1.1927    7.2366    0.0000 C   0  0  0  0  0  0  0  0  0
    1.9072    5.1741    0.0000 C   0  0  0  0  0  0  0  0  0
    2.6216    4.7616    0.0000 N   0  0  0  0  0  0  0  0  0
    2.6216    3.9366    0.0000 C   0  0  0  0  0  0  0  0  0
    3.3361    3.5241    0.0000 N   0  0  0  0  0  0  0  0  0
    3.3361    2.6991    0.0000 C   0  0  0  0  0  0  0  0  0
    2.6216    2.2866    0.0000 N   0  0  0  0  0  0  0  0  0
    1.9072    2.6991    0.0000 C   0  0  0  0  0  0  0  0  0
    1.9072    3.5241    0.0000 N   0  0  0  0  0  0  0  0  0
    1.1927    2.2866    0.0000 N   0  0  0  0  0  0  0  0  0
    4.0506    2.2866    0.0000 N   0  0  0  0  0  0  0  0  0
    4.7650    2.6991    0.0000 C   0  0  0  0  0  0  0  0  0
    5.4795    2.2866    0.0000 C   0  0  0  0  0  0  0  0  0
    6.1940    2.6991    0.0000 O   0  0  0  0  0  0  0  0  0
    6.9085    2.2866    0.0000 C   0  0  0  0  0  0  0  0  0
    7.6229    2.6991    0.0000 C   0  0  0  0  0  0  0  0  0
    8.3374    2.2866    0.0000 C   0  0  0  0  0  0  0  0  0
    8.3374    1.4616    0.0000 C   0  0  0  0  0  0  0  0  0
    9.0519    1.0491    0.0000 F   0  0  0  0  0  0  0  0  0
    7.6229    1.0491    0.0000 C   0  0  0  0  0  0  0  0  0
    6.9085    1.4616    0.0000 C   0  0  0  0  0  0  0  0  0
    1.1927    4.7616    0.0000 C   0  0  0  0  0  0  0  0  0
  1  2  1  0  0  0  0
  2  3  4  0  0  0  0
  2  7  4  0  0  0  0
  3  4  4  0  0  0  0
  4  5  4  0  0  0  0
  5  6  4  0  0  0  0
  5  8  1  0  0  0  0
  6  7  4  0  0  0  0
  8  9  1  0  0  0  0
  8 28  1  0  0  0  0
  9 10  1  0  0  0  0
 10 11  4  0  0  0  0
 10 15  4  0  0  0  0
 11 12  4  0  0  0  0
 12 13  4  0  0  0  0
 12 17  1  0  0  0  0
 13 14  4  0  0  0  0
 14 15  4  0  0  0  0
 14 16  1  0  0  0  0
 17 18  1  0  0  0  0
 18 19  1  0  0  0  0
 19 20  1  0  0  0  0
 20 21  1  0  0  0  0
 21 22  4  0  0  0  0
 21 27  4  0  0  0  0
 22 23  4  0  0  0  0
 23 24  4  0  0  0  0
 24 25  1  0  0  0  0
 24 26  4  0  0  0  0
 26 27  4  0  0  0  0
M  END
>  <Name_Molregno>
306798

>  <5-HT7>
8.15

$$$$
306799
  Marvin  02231216192D 0   1.00000     0.00000     0

 26 28  0  0  1  0  0  0  0  0999 V2000
    3.9439    4.0805    0.0000 F   0  0  0  0  0  0  0  0  0
    3.9439    3.2555    0.0000 C   0  0  0  0  0  0  0  0  0
    4.6584    2.8430    0.0000 C   0  0  0  0  0  0  0  0  0
    4.6584    2.0180    0.0000 C   0  0  0  0  0  0  0  0  0
    3.9439    1.6055    0.0000 C   0  0  0  0  0  0  0  0  0
    3.2294    2.0180    0.0000 C   0  0  0  0  0  0  0  0  0
    3.2294    2.8430    0.0000 C   0  0  0  0  0  0  0  0  0
    3.9439    0.7805    0.0000 C   0  0  0  0  0  0  0  0  0
    4.6584    0.3680    0.0000 N   0  0  0  0  0  0  0  0  0
    4.6584   -0.4570    0.0000 C   0  0  0  0  0  0  0  0  0
    5.3729   -0.8695    0.0000 N   0  0  0  0  0  0  0  0  0
    5.3729   -1.6945    0.0000 C   0  0  0  0  0  0  0  0  0
    4.6584   -2.1070    0.0000 N   0  0  0  0  0  0  0  0  0
    3.9439   -1.6945    0.0000 C   0  0  0  0  0  0  0  0  0
    3.9439   -0.8695    0.0000 N   0  0  0  0  0  0  0  0  0
    3.2294   -2.1070    0.0000 N   0  0  0  0  0  0  0  0  0
    6.0873   -2.1070    0.0000 N   0  0  0  0  0  0  0  0  0
    6.0873   -2.9320    0.0000 C   0  0  0  0  0  0  0  0  0
    6.8018   -3.3445    0.0000 C   0  0  0  0  0  0  0  0  0
    6.8018   -4.1695    0.0000 C   0  0  0  0  0  0  0  0  0
    7.5163   -4.5820    0.0000 C   0  0  0  0  0  0  0  0  0
    7.5163   -5.4070    0.0000 C   0  0  0  0  0  0  0  0  0
    6.8018   -5.8195    0.0000 C   0  0  0  0  0  0  0  0  0
    6.0873   -5.4070    0.0000 C   0  0  0  0  0  0  0  0  0
    6.0873   -4.5820    0.0000 C   0  0  0  0  0  0  0  0  0
    3.2294    0.3680    0.0000 C   0  0  0  0  0  0  0  0  0
  1  2  1  0  0  0  0
  2  3  4  0  0  0  0
  2  7  4  0  0  0  0
  3  4  4  0  0  0  0
  4  5  4  0  0  0  0
  5  6  4  0  0  0  0
  5  8  1  0  0  0  0
  6  7  4  0  0  0  0
  8  9  1  0  0  0  0
  8 26  1  0  0  0  0
  9 10  1  0  0  0  0
 10 11  4  0  0  0  0
 10 15  4  0  0  0  0
 11 12  4  0  0  0  0
 12 13  4  0  0  0  0
 12 17  1  0  0  0  0
 13 14  4  0  0  0  0
 14 15  4  0  0  0  0
 14 16  1  0  0  0  0
 17 18  1  0  0  0  0
 18 19  1  0  0  0  0
 19 20  1  0  0  0  0
 20 21  4  0  0  0  0
 20 25  4  0  0  0  0
 21 22  4  0  0  0  0
 22 23  4  0  0  0  0
 23 24  4  0  0  0  0
 24 25  4  0  0  0  0
M  END
>  <Name_Molregno>
306799

>  <5-HT7>
8.1

$$$$
306802
  Marvin  02231216192D 0   1.00000     0.00000     0

 26 28  0  0  1  0  0  0  0  0999 V2000
   -0.1534   -0.0087    0.0000 F   0  0  0  0  0  0  0  0  0
    0.5611    0.4038    0.0000 C   0  0  0  0  0  0  0  0  0
    0.5611    1.2288    0.0000 C   0  0  0  0  0  0  0  0  0
    1.2756    1.6413    0.0000 C   0  0  0  0  0  0  0  0  0
    1.9900    1.2288    0.0000 C   0  0  0  0  0  0  0  0  0
    2.7045    1.6413    0.0000 O   0  0  0  0  0  0  0  0  0
    3.4190    1.2288    0.0000 C   0  0  0  0  0  0  0  0  0
    4.1334    1.6413    0.0000 C   0  0  0  0  0  0  0  0  0
    4.8479    1.2288    0.0000 N   0  0  0  0  0  0  0  0  0
    5.5624    1.6413    0.0000 C   0  0  0  0  0  0  0  0  0
    5.5624    2.4663    0.0000 N   0  0  0  0  0  0  0  0  0
    6.2768    2.8788    0.0000 C   0  0  0  0  0  0  0  0  0
    6.9913    2.4663    0.0000 C   0  0  0  0  0  0  0  0  0
    6.9913    1.6413    0.0000 C   0  0  0  0  0  0  0  0  0
    7.7058    1.2288    0.0000 N   0  0  0  0  0  0  0  0  0
    8.4203    1.6413    0.0000 C   0  0  0  0  0  0  0  0  0
    8.4203    2.4663    0.0000 C   0  0  0  0  0  0  0  0  0
    9.1347    1.2288    0.0000 C   0  0  0  0  0  0  0  0  0
    9.8492    1.6413    0.0000 C   0  0  0  0  0  0  0  0  0
   10.5637    1.2288    0.0000 C   0  0  0  0  0  0  0  0  0
   10.5637    0.4038    0.0000 C   0  0  0  0  0  0  0  0  0
    9.8492   -0.0087    0.0000 C   0  0  0  0  0  0  0  0  0
    9.1347    0.4038    0.0000 C   0  0  0  0  0  0  0  0  0
    6.2768    1.2288    0.0000 C   0  0  0  0  0  0  0  0  0
    1.9900    0.4038    0.0000 C   0  0  0  0  0  0  0  0  0
    1.2756   -0.0087    0.0000 C   0  0  0  0  0  0  0  0  0
  1  2  1  0  0  0  0
  2  3  4  0  0  0  0
  2 26  4  0  0  0  0
  3  4  4  0  0  0  0
  4  5  4  0  0  0  0
  5  6  1  0  0  0  0
  5 25  4  0  0  0  0
  6  7  1  0  0  0  0
  7  8  1  0  0  0  0
  8  9  1  0  0  0  0
  9 10  1  0  0  0  0
 10 11  4  0  0  0  0
 10 24  4  0  0  0  0
 11 12  4  0  0  0  0
 12 13  4  0  0  0  0
 13 14  4  0  0  0  0
 14 15  1  0  0  0  0
 14 24  4  0  0  0  0
 15 16  1  0  0  0  0
 16 17  1  0  0  0  0
 16 18  1  0  0  0  0
 18 19  4  0  0  0  0
 18 23  4  0  0  0  0
 19 20  4  0  0  0  0
 20 21  4  0  0  0  0
 21 22  4  0  0  0  0
 22 23  4  0  0  0  0
 25 26  4  0  0  0  0
M  STY  1   1 DAT
M  SAL   1  1  11
M  SDT   1 MRV_IMPLICIT_H                                        
M  SDD   1     0.0000    0.0000    DR    ALL  0       0  
M  SED   1 IMPL_H1
M  END
>  <Name_Molregno>
306802

>  <5-HT7>
9.7

$$$$
306837
  Marvin  02231216192D 0   1.00000     0.00000     0

 24 26  0  0  1  0  0  0  0  0999 V2000
   -1.1184   -2.0011    0.0000 N   0  0  0  0  0  0  0  0  0
   -0.4039   -2.4136    0.0000 C   0  0  0  0  0  0  0  0  0
    0.3106   -2.0011    0.0000 C   0  0  0  0  0  0  0  0  0
   -0.4039   -3.2386    0.0000 C   0  0  0  0  0  0  0  0  0
    0.3106   -3.6511    0.0000 C   0  0  0  0  0  0  0  0  0
    0.3106   -4.4761    0.0000 C   0  0  0  0  0  0  0  0  0
   -0.4039   -4.8886    0.0000 C   0  0  0  0  0  0  0  0  0
   -1.1184   -4.4761    0.0000 C   0  0  0  0  0  0  0  0  0
   -1.1184   -3.6511    0.0000 C   0  0  0  0  0  0  0  0  0
   -1.1184   -1.1761    0.0000 C   0  0  0  0  0  0  0  0  0
   -1.8328   -0.7636    0.0000 C   0  0  0  0  0  0  0  0  0
   -1.8328    0.0614    0.0000 C   0  0  0  0  0  0  0  0  0
   -2.5473    0.4739    0.0000 N   0  0  0  0  0  0  0  0  0
   -2.5473    1.2989    0.0000 C   0  0  0  0  0  0  0  0  0
   -3.2618    1.7114    0.0000 C   0  0  0  0  0  0  0  0  0
   -3.2618    2.5364    0.0000 C   0  0  0  0  0  0  0  0  0
   -3.9762    2.9489    0.0000 C   0  0  0  0  0  0  0  0  0
   -3.9762    3.7739    0.0000 C   0  0  0  0  0  0  0  0  0
   -3.2618    4.1864    0.0000 C   0  0  0  0  0  0  0  0  0
   -2.5473    3.7739    0.0000 C   0  0  0  0  0  0  0  0  0
   -2.5473    2.9489    0.0000 C   0  0  0  0  0  0  0  0  0
   -1.1184    0.4739    0.0000 C   0  0  0  0  0  0  0  0  0
   -0.4039    0.0614    0.0000 C   0  0  0  0  0  0  0  0  0
   -0.4039   -0.7636    0.0000 C   0  0  0  0  0  0  0  0  0
  1  2  1  0  0  0  0
  1 10  1  0  0  0  0
  2  3  1  0  0  0  0
  2  4  1  0  0  0  0
  4  5  4  0  0  0  0
  4  9  4  0  0  0  0
  5  6  4  0  0  0  0
  6  7  4  0  0  0  0
  7  8  4  0  0  0  0
  8  9  4  0  0  0  0
 10 11  4  0  0  0  0
 10 24  4  0  0  0  0
 11 12  4  0  0  0  0
 12 13  1  0  0  0  0
 12 22  4  0  0  0  0
 13 14  1  0  0  0  0
 14 15  1  0  0  0  0
 15 16  1  0  0  0  0
 16 17  4  0  0  0  0
 16 21  4  0  0  0  0
 17 18  4  0  0  0  0
 18 19  4  0  0  0  0
 19 20  4  0  0  0  0
 20 21  4  0  0  0  0
 22 23  4  0  0  0  0
 23 24  4  0  0  0  0
M  END
>  <Name_Molregno>
306837

>  <5-HT7>
6

$$$$
306840
  Marvin  02231216192D 0   1.00000     0.00000     0

 24 26  0  0  1  0  0  0  0  0999 V2000
    0.1455   -0.4470    0.0000 N   0  0  0  0  0  0  0  0  0
    0.1455   -1.2720    0.0000 C   0  0  0  0  0  0  0  0  0
   -0.5689   -1.6845    0.0000 C   0  0  0  0  0  0  0  0  0
   -1.2834   -1.2720    0.0000 C   0  0  0  0  0  0  0  0  0
   -1.9979   -1.6845    0.0000 N   0  0  0  0  0  0  0  0  0
   -1.9979   -2.5095    0.0000 C   0  0  0  0  0  0  0  0  0
   -1.2834   -2.9220    0.0000 C   0  0  0  0  0  0  0  0  0
   -2.7124   -2.9220    0.0000 C   0  0  0  0  0  0  0  0  0
   -2.7124   -3.7470    0.0000 C   0  0  0  0  0  0  0  0  0
   -3.4268   -4.1595    0.0000 C   0  0  0  0  0  0  0  0  0
   -4.1413   -3.7470    0.0000 C   0  0  0  0  0  0  0  0  0
   -4.1413   -2.9220    0.0000 C   0  0  0  0  0  0  0  0  0
   -3.4268   -2.5095    0.0000 C   0  0  0  0  0  0  0  0  0
   -1.2834   -0.4470    0.0000 C   0  0  0  0  0  0  0  0  0
   -0.5689   -0.0345    0.0000 C   0  0  0  0  0  0  0  0  0
   -0.5689    0.7905    0.0000 N   0  0  0  0  0  0  0  0  0
    0.1455    1.2030    0.0000 C   0  0  0  0  0  0  0  0  0
    0.1455    2.0280    0.0000 C   0  0  0  0  0  0  0  0  0
    0.8600    2.4405    0.0000 C   0  0  0  0  0  0  0  0  0
    0.8600    3.2655    0.0000 C   0  0  0  0  0  0  0  0  0
    1.5745    3.6780    0.0000 C   0  0  0  0  0  0  0  0  0
    2.2889    3.2655    0.0000 C   0  0  0  0  0  0  0  0  0
    2.2889    2.4405    0.0000 C   0  0  0  0  0  0  0  0  0
    1.5745    2.0280    0.0000 C   0  0  0  0  0  0  0  0  0
  1  2  4  0  0  0  0
  1 15  4  0  0  0  0
  2  3  4  0  0  0  0
  3  4  4  0  0  0  0
  4  5  1  0  0  0  0
  4 14  4  0  0  0  0
  5  6  1  0  0  0  0
  6  7  1  0  0  0  0
  6  8  1  0  0  0  0
  8  9  4  0  0  0  0
  8 13  4  0  0  0  0
  9 10  4  0  0  0  0
 10 11  4  0  0  0  0
 11 12  4  0  0  0  0
 12 13  4  0  0  0  0
 14 15  4  0  0  0  0
 15 16  1  0  0  0  0
 16 17  1  0  0  0  0
 17 18  1  0  0  0  0
 18 19  1  0  0  0  0
 19 20  4  0  0  0  0
 19 24  4  0  0  0  0
 20 21  4  0  0  0  0
 21 22  4  0  0  0  0
 22 23  4  0  0  0  0
 23 24  4  0  0  0  0
M  STY  1   1 DAT
M  SAL   1  1   1
M  SDT   1 MRV_IMPLICIT_H                                        
M  SDD   1     0.0000    0.0000    DR    ALL  0       0  
M  SED   1 IMPL_H1
M  END
>  <Name_Molregno>
306840

>  <5-HT7>
9.52

$$$$
306841
  Marvin  02231216192D 0   1.00000     0.00000     0

 25 27  0  0  1  0  0  0  0  0999 V2000
    3.6777    5.3756    0.0000 F   0  0  0  0  0  0  0  0  0
    3.6777    4.5506    0.0000 C   0  0  0  0  0  0  0  0  0
    4.3922    4.1381    0.0000 C   0  0  0  0  0  0  0  0  0
    4.3922    3.3131    0.0000 C   0  0  0  0  0  0  0  0  0
    3.6777    2.9006    0.0000 C   0  0  0  0  0  0  0  0  0
    2.9632    3.3131    0.0000 C   0  0  0  0  0  0  0  0  0
    2.9632    4.1381    0.0000 C   0  0  0  0  0  0  0  0  0
    3.6777    2.0756    0.0000 C   0  0  0  0  0  0  0  0  0
    4.3922    1.6631    0.0000 C   0  0  0  0  0  0  0  0  0
    4.3922    0.8381    0.0000 N   0  0  0  0  0  0  0  0  0
    5.1067    0.4256    0.0000 C   0  0  0  0  0  0  0  0  0
    5.8211    0.8381    0.0000 N   0  0  0  0  0  0  0  0  0
    6.5356    0.4256    0.0000 C   0  0  0  0  0  0  0  0  0
    6.5356   -0.3994    0.0000 C   0  0  0  0  0  0  0  0  0
    5.8211   -0.8119    0.0000 C   0  0  0  0  0  0  0  0  0
    5.8211   -1.6369    0.0000 N   0  0  0  0  0  0  0  0  0
    6.5356   -2.0494    0.0000 C   0  0  0  0  0  0  0  0  0
    7.2501   -1.6369    0.0000 C   0  0  0  0  0  0  0  0  0
    6.5356   -2.8744    0.0000 C   0  0  0  0  0  0  0  0  0
    7.2501   -3.2869    0.0000 C   0  0  0  0  0  0  0  0  0
    7.2501   -4.1119    0.0000 C   0  0  0  0  0  0  0  0  0
    6.5356   -4.5244    0.0000 C   0  0  0  0  0  0  0  0  0
    5.8211   -4.1119    0.0000 C   0  0  0  0  0  0  0  0  0
    5.8211   -3.2869    0.0000 C   0  0  0  0  0  0  0  0  0
    5.1067   -0.3994    0.0000 C   0  0  0  0  0  0  0  0  0
  1  2  1  0  0  0  0
  2  3  4  0  0  0  0
  2  7  4  0  0  0  0
  3  4  4  0  0  0  0
  4  5  4  0  0  0  0
  5  6  4  0  0  0  0
  5  8  1  0  0  0  0
  6  7  4  0  0  0  0
  8  9  1  0  0  0  0
  9 10  1  0  0  0  0
 10 11  1  0  0  0  0
 11 12  4  0  0  0  0
 11 25  4  0  0  0  0
 12 13  4  0  0  0  0
 13 14  4  0  0  0  0
 14 15  4  0  0  0  0
 15 16  1  0  0  0  0
 15 25  4  0  0  0  0
 16 17  1  0  0  0  0
 17 18  1  0  0  0  0
 17 19  1  0  0  0  0
 19 20  4  0  0  0  0
 19 24  4  0  0  0  0
 20 21  4  0  0  0  0
 21 22  4  0  0  0  0
 22 23  4  0  0  0  0
 23 24  4  0  0  0  0
M  STY  1   1 DAT
M  SAL   1  1  12
M  SDT   1 MRV_IMPLICIT_H                                        
M  SDD   1     0.0000    0.0000    DR    ALL  0       0  
M  SED   1 IMPL_H1
M  END
>  <Name_Molregno>
306841

>  <5-HT7>
9.4

$$$$
306843
  Marvin  02231216192D 0   1.00000     0.00000     0

 25 27  0  0  1  0  0  0  0  0999 V2000
   -0.0814   -0.6379    0.0000 O   0  0  0  0  0  0  0  0  0
    0.6330   -0.2254    0.0000 C   0  0  0  0  0  0  0  0  0
    1.3475   -0.6379    0.0000 C   0  0  0  0  0  0  0  0  0
    2.0620   -0.2254    0.0000 N   0  0  0  0  0  0  0  0  0
    2.7764   -0.6379    0.0000 C   0  0  0  0  0  0  0  0  0
    3.4909   -0.2254    0.0000 C   0  0  0  0  0  0  0  0  0
    4.2054   -0.6379    0.0000 C   0  0  0  0  0  0  0  0  0
    4.9199   -0.2254    0.0000 N   0  0  0  0  0  0  0  0  0
    5.6343   -0.6379    0.0000 C   0  0  0  0  0  0  0  0  0
    5.6343   -1.4629    0.0000 C   0  0  0  0  0  0  0  0  0
    6.3488   -0.2254    0.0000 C   0  0  0  0  0  0  0  0  0
    6.3488    0.5996    0.0000 C   0  0  0  0  0  0  0  0  0
    7.0633    1.0121    0.0000 C   0  0  0  0  0  0  0  0  0
    7.7777    0.5996    0.0000 C   0  0  0  0  0  0  0  0  0
    7.7777   -0.2254    0.0000 C   0  0  0  0  0  0  0  0  0
    7.0633   -0.6379    0.0000 C   0  0  0  0  0  0  0  0  0
    4.2054   -1.4629    0.0000 C   0  0  0  0  0  0  0  0  0
    3.4909   -1.8754    0.0000 C   0  0  0  0  0  0  0  0  0
    2.7764   -1.4629    0.0000 C   0  0  0  0  0  0  0  0  0
   -0.7959   -0.2254    0.0000 C   0  0  0  0  0  0  0  0  0
   -1.5104   -0.6379    0.0000 C   0  0  0  0  0  0  0  0  0
   -2.2249   -0.2254    0.0000 C   0  0  0  0  0  0  0  0  0
   -2.2249    0.5996    0.0000 C   0  0  0  0  0  0  0  0  0
   -1.5104    1.0121    0.0000 C   0  0  0  0  0  0  0  0  0
   -0.7959    0.5996    0.0000 C   0  0  0  0  0  0  0  0  0
  1  2  1  0  0  0  0
  1 20  1  0  0  0  0
  2  3  1  0  0  0  0
  3  4  1  0  0  0  0
  4  5  1  0  0  0  0
  5  6  4  0  0  0  0
  5 19  4  0  0  0  0
  6  7  4  0  0  0  0
  7  8  1  0  0  0  0
  7 17  4  0  0  0  0
  8  9  1  0  0  0  0
  9 10  1  0  0  0  0
  9 11  1  0  0  0  0
 11 12  4  0  0  0  0
 11 16  4  0  0  0  0
 12 13  4  0  0  0  0
 13 14  4  0  0  0  0
 14 15  4  0  0  0  0
 15 16  4  0  0  0  0
 17 18  4  0  0  0  0
 18 19  4  0  0  0  0
 20 21  4  0  0  0  0
 20 25  4  0  0  0  0
 21 22  4  0  0  0  0
 22 23  4  0  0  0  0
 23 24  4  0  0  0  0
 24 25  4  0  0  0  0
M  END
>  <Name_Molregno>
306843

>  <5-HT7>
6

$$$$
306874
  Marvin  02231216192D 0   1.00000     0.00000     0

 25 27  0  0  1  0  0  0  0  0999 V2000
    3.7807   -4.0888    0.0000 S   0  0  0  0  0  0  0  0  0
    3.5258   -4.8734    0.0000 C   0  0  0  0  0  0  0  0  0
    2.7008   -4.8734    0.0000 C   0  0  0  0  0  0  0  0  0
    2.4458   -4.0888    0.0000 C   0  0  0  0  0  0  0  0  0
    3.1133   -3.6039    0.0000 C   0  0  0  0  0  0  0  0  0
    3.1133   -2.7789    0.0000 C   0  0  0  0  0  0  0  0  0
    3.8278   -2.3664    0.0000 C   0  0  0  0  0  0  0  0  0
    3.8278   -1.5414    0.0000 N   0  0  0  0  0  0  0  0  0
    4.5422   -1.1289    0.0000 C   0  0  0  0  0  0  0  0  0
    4.5422   -0.3039    0.0000 N   0  0  0  0  0  0  0  0  0
    5.2567    0.1086    0.0000 C   0  0  0  0  0  0  0  0  0
    5.9712   -0.3039    0.0000 N   0  0  0  0  0  0  0  0  0
    5.9712   -1.1289    0.0000 C   0  0  0  0  0  0  0  0  0
    5.2567   -1.5414    0.0000 N   0  0  0  0  0  0  0  0  0
    6.6856   -1.5414    0.0000 N   0  0  0  0  0  0  0  0  0
    5.2567    0.9336    0.0000 N   0  0  0  0  0  0  0  0  0
    4.5422    1.3461    0.0000 C   0  0  0  0  0  0  0  0  0
    3.8278    0.9336    0.0000 C   0  0  0  0  0  0  0  0  0
    4.5422    2.1711    0.0000 C   0  0  0  0  0  0  0  0  0
    3.8278    2.5836    0.0000 C   0  0  0  0  0  0  0  0  0
    3.8278    3.4086    0.0000 C   0  0  0  0  0  0  0  0  0
    4.5422    3.8211    0.0000 C   0  0  0  0  0  0  0  0  0
    4.5422    4.6461    0.0000 F   0  0  0  0  0  0  0  0  0
    5.2567    3.4086    0.0000 C   0  0  0  0  0  0  0  0  0
    5.2567    2.5836    0.0000 C   0  0  0  0  0  0  0  0  0
  1  2  4  0  0  0  0
  1  5  4  0  0  0  0
  2  3  4  0  0  0  0
  3  4  4  0  0  0  0
  4  5  4  0  0  0  0
  5  6  1  0  0  0  0
  6  7  1  0  0  0  0
  7  8  1  0  0  0  0
  8  9  1  0  0  0  0
  9 10  4  0  0  0  0
  9 14  4  0  0  0  0
 10 11  4  0  0  0  0
 11 12  4  0  0  0  0
 11 16  1  0  0  0  0
 12 13  4  0  0  0  0
 13 14  4  0  0  0  0
 13 15  1  0  0  0  0
 16 17  1  0  0  0  0
 17 18  1  0  0  0  0
 17 19  1  0  0  0  0
 19 20  4  0  0  0  0
 19 25  4  0  0  0  0
 20 21  4  0  0  0  0
 21 22  4  0  0  0  0
 22 23  1  0  0  0  0
 22 24  4  0  0  0  0
 24 25  4  0  0  0  0
M  END
>  <Name_Molregno>
306874

>  <5-HT7>
8.7

$$$$
306875
  Marvin  02231216192D 0   1.00000     0.00000     0

 24 26  0  0  1  0  0  0  0  0999 V2000
    1.3580   -0.7817    0.0000 N   0  0  0  0  0  0  0  0  0
    1.3580   -1.6067    0.0000 C   0  0  0  0  0  0  0  0  0
    0.6435   -2.0192    0.0000 N   0  0  0  0  0  0  0  0  0
   -0.0710   -1.6067    0.0000 C   0  0  0  0  0  0  0  0  0
   -0.7854   -2.0192    0.0000 N   0  0  0  0  0  0  0  0  0
   -0.7854   -2.8442    0.0000 C   0  0  0  0  0  0  0  0  0
   -1.4999   -3.2567    0.0000 C   0  0  0  0  0  0  0  0  0
   -1.4999   -4.0817    0.0000 C   0  0  0  0  0  0  0  0  0
   -0.7854   -4.4942    0.0000 C   0  0  0  0  0  0  0  0  0
   -0.7854   -5.3192    0.0000 C   0  0  0  0  0  0  0  0  0
   -1.4999   -5.7317    0.0000 C   0  0  0  0  0  0  0  0  0
   -2.2144   -5.3192    0.0000 C   0  0  0  0  0  0  0  0  0
   -2.2144   -4.4942    0.0000 C   0  0  0  0  0  0  0  0  0
   -0.0710   -0.7817    0.0000 C   0  0  0  0  0  0  0  0  0
    0.6435   -0.3692    0.0000 C   0  0  0  0  0  0  0  0  0
    0.6435    0.4558    0.0000 N   0  0  0  0  0  0  0  0  0
   -0.0710    0.8683    0.0000 C   0  0  0  0  0  0  0  0  0
   -0.7854    0.4558    0.0000 C   0  0  0  0  0  0  0  0  0
   -0.0710    1.6933    0.0000 C   0  0  0  0  0  0  0  0  0
   -0.7854    2.1058    0.0000 C   0  0  0  0  0  0  0  0  0
   -0.7854    2.9308    0.0000 C   0  0  0  0  0  0  0  0  0
   -0.0710    3.3433    0.0000 C   0  0  0  0  0  0  0  0  0
    0.6435    2.9308    0.0000 C   0  0  0  0  0  0  0  0  0
    0.6435    2.1058    0.0000 C   0  0  0  0  0  0  0  0  0
  1  2  4  0  0  0  0
  1 15  4  0  0  0  0
  2  3  4  0  0  0  0
  3  4  4  0  0  0  0
  4  5  1  0  0  0  0
  4 14  4  0  0  0  0
  5  6  1  0  0  0  0
  6  7  1  0  0  0  0
  7  8  1  0  0  0  0
  8  9  4  0  0  0  0
  8 13  4  0  0  0  0
  9 10  4  0  0  0  0
 10 11  4  0  0  0  0
 11 12  4  0  0  0  0
 12 13  4  0  0  0  0
 14 15  4  0  0  0  0
 15 16  1  0  0  0  0
 16 17  1  0  0  0  0
 17 18  1  0  0  0  0
 17 19  1  0  0  0  0
 19 20  4  0  0  0  0
 19 24  4  0  0  0  0
 20 21  4  0  0  0  0
 21 22  4  0  0  0  0
 22 23  4  0  0  0  0
 23 24  4  0  0  0  0
M  END
>  <Name_Molregno>
306875

>  <5-HT7>
7.48

$$$$
306904
  Marvin  02231216192D 0   1.00000     0.00000     0

 24 26  0  0  1  0  0  0  0  0999 V2000
    0.0353   -0.0070    0.0000 N   0  0  0  0  0  0  0  0  0
    0.0353   -0.8320    0.0000 C   0  0  0  0  0  0  0  0  0
    0.7498   -1.2445    0.0000 N   0  0  0  0  0  0  0  0  0
    0.7498   -2.0695    0.0000 C   0  0  0  0  0  0  0  0  0
    1.4642   -2.4820    0.0000 C   0  0  0  0  0  0  0  0  0
    1.4642   -3.3070    0.0000 C   0  0  0  0  0  0  0  0  0
    2.1787   -3.7195    0.0000 C   0  0  0  0  0  0  0  0  0
    2.1787   -4.5445    0.0000 C   0  0  0  0  0  0  0  0  0
    1.4642   -4.9570    0.0000 C   0  0  0  0  0  0  0  0  0
    0.7498   -4.5445    0.0000 C   0  0  0  0  0  0  0  0  0
    0.7498   -3.7195    0.0000 C   0  0  0  0  0  0  0  0  0
   -0.6792   -1.2445    0.0000 C   0  0  0  0  0  0  0  0  0
   -1.3936   -0.8320    0.0000 C   0  0  0  0  0  0  0  0  0
   -1.3936   -0.0070    0.0000 N   0  0  0  0  0  0  0  0  0
   -0.6792    0.4055    0.0000 C   0  0  0  0  0  0  0  0  0
   -0.6792    1.2305    0.0000 N   0  0  0  0  0  0  0  0  0
   -1.3936    1.6430    0.0000 C   0  0  0  0  0  0  0  0  0
   -2.1081    1.2305    0.0000 C   0  0  0  0  0  0  0  0  0
   -1.3936    2.4680    0.0000 C   0  0  0  0  0  0  0  0  0
   -2.1081    2.8805    0.0000 C   0  0  0  0  0  0  0  0  0
   -2.1081    3.7055    0.0000 C   0  0  0  0  0  0  0  0  0
   -1.3936    4.1180    0.0000 C   0  0  0  0  0  0  0  0  0
   -0.6792    3.7055    0.0000 C   0  0  0  0  0  0  0  0  0
   -0.6792    2.8805    0.0000 C   0  0  0  0  0  0  0  0  0
  1  2  4  0  0  0  0
  1 15  4  0  0  0  0
  2  3  1  0  0  0  0
  2 12  4  0  0  0  0
  3  4  1  0  0  0  0
  4  5  1  0  0  0  0
  5  6  1  0  0  0  0
  6  7  4  0  0  0  0
  6 11  4  0  0  0  0
  7  8  4  0  0  0  0
  8  9  4  0  0  0  0
  9 10  4  0  0  0  0
 10 11  4  0  0  0  0
 12 13  4  0  0  0  0
 13 14  4  0  0  0  0
 14 15  4  0  0  0  0
 15 16  1  0  0  0  0
 16 17  1  0  0  0  0
 17 18  1  0  0  0  0
 17 19  1  0  0  0  0
 19 20  4  0  0  0  0
 19 24  4  0  0  0  0
 20 21  4  0  0  0  0
 21 22  4  0  0  0  0
 22 23  4  0  0  0  0
 23 24  4  0  0  0  0
M  END
>  <Name_Molregno>
306904

>  <5-HT7>
8.22

$$$$
306905
  Marvin  02231216192D 0   1.00000     0.00000     0

 26 28  0  0  1  0  0  0  0  0999 V2000
    0.0939   -0.4196    0.0000 F   0  0  0  0  0  0  0  0  0
    0.8084   -0.8321    0.0000 C   0  0  0  0  0  0  0  0  0
    1.5229   -0.4196    0.0000 C   0  0  0  0  0  0  0  0  0
    2.2373   -0.8321    0.0000 C   0  0  0  0  0  0  0  0  0
    2.2373   -1.6571    0.0000 C   0  0  0  0  0  0  0  0  0
    2.9518   -2.0696    0.0000 O   0  0  0  0  0  0  0  0  0
    3.6663   -1.6571    0.0000 C   0  0  0  0  0  0  0  0  0
    4.3808   -2.0696    0.0000 C   0  0  0  0  0  0  0  0  0
    5.0952   -1.6571    0.0000 N   0  0  0  0  0  0  0  0  0
    5.8097   -2.0696    0.0000 C   0  0  0  0  0  0  0  0  0
    6.5242   -1.6571    0.0000 N   0  0  0  0  0  0  0  0  0
    7.2386   -2.0696    0.0000 C   0  0  0  0  0  0  0  0  0
    7.2386   -2.8946    0.0000 N   0  0  0  0  0  0  0  0  0
    6.5242   -3.3071    0.0000 C   0  0  0  0  0  0  0  0  0
    5.8097   -2.8946    0.0000 C   0  0  0  0  0  0  0  0  0
    7.9531   -1.6571    0.0000 N   0  0  0  0  0  0  0  0  0
    7.9531   -0.8321    0.0000 C   0  0  0  0  0  0  0  0  0
    7.2386   -0.4196    0.0000 C   0  0  0  0  0  0  0  0  0
    8.6676   -0.4196    0.0000 C   0  0  0  0  0  0  0  0  0
    8.6676    0.4054    0.0000 C   0  0  0  0  0  0  0  0  0
    9.3820    0.8179    0.0000 C   0  0  0  0  0  0  0  0  0
   10.0965    0.4054    0.0000 C   0  0  0  0  0  0  0  0  0
   10.0965   -0.4196    0.0000 C   0  0  0  0  0  0  0  0  0
    9.3820   -0.8321    0.0000 C   0  0  0  0  0  0  0  0  0
    1.5229   -2.0696    0.0000 C   0  0  0  0  0  0  0  0  0
    0.8084   -1.6571    0.0000 C   0  0  0  0  0  0  0  0  0
  1  2  1  0  0  0  0
  2  3  4  0  0  0  0
  2 26  4  0  0  0  0
  3  4  4  0  0  0  0
  4  5  4  0  0  0  0
  5  6  1  0  0  0  0
  5 25  4  0  0  0  0
  6  7  1  0  0  0  0
  7  8  1  0  0  0  0
  8  9  1  0  0  0  0
  9 10  1  0  0  0  0
 10 11  4  0  0  0  0
 10 15  4  0  0  0  0
 11 12  4  0  0  0  0
 12 13  4  0  0  0  0
 12 16  1  0  0  0  0
 13 14  4  0  0  0  0
 14 15  4  0  0  0  0
 16 17  1  0  0  0  0
 17 18  1  0  0  0  0
 17 19  1  0  0  0  0
 19 20  4  0  0  0  0
 19 24  4  0  0  0  0
 20 21  4  0  0  0  0
 21 22  4  0  0  0  0
 22 23  4  0  0  0  0
 23 24  4  0  0  0  0
 25 26  4  0  0  0  0
M  END
>  <Name_Molregno>
306905

>  <5-HT7>
9

$$$$
306947
  Marvin  02231216192D 0   1.00000     0.00000     0

 26 28  0  0  1  0  0  0  0  0999 V2000
    3.9439    4.0805    0.0000 F   0  0  0  0  0  0  0  0  0
    3.9439    3.2555    0.0000 C   0  0  0  0  0  0  0  0  0
    4.6584    2.8430    0.0000 C   0  0  0  0  0  0  0  0  0
    4.6584    2.0180    0.0000 C   0  0  0  0  0  0  0  0  0
    3.9439    1.6055    0.0000 C   0  0  0  0  0  0  0  0  0
    3.2294    2.0180    0.0000 C   0  0  0  0  0  0  0  0  0
    3.2294    2.8430    0.0000 C   0  0  0  0  0  0  0  0  0
    3.9439    0.7805    0.0000 C   0  0  0  0  0  0  0  0  0
    4.6584    0.3680    0.0000 N   0  0  0  0  0  0  0  0  0
    4.6584   -0.4570    0.0000 C   0  0  0  0  0  0  0  0  0
    5.3729   -0.8695    0.0000 N   0  0  0  0  0  0  0  0  0
    5.3729   -1.6945    0.0000 C   0  0  0  0  0  0  0  0  0
    4.6584   -2.1070    0.0000 N   0  0  0  0  0  0  0  0  0
    3.9439   -1.6945    0.0000 C   0  0  0  0  0  0  0  0  0
    3.9439   -0.8695    0.0000 N   0  0  0  0  0  0  0  0  0
    3.2294   -2.1070    0.0000 N   0  0  0  0  0  0  0  0  0
    6.0873   -2.1070    0.0000 N   0  0  0  0  0  0  0  0  0
    6.0873   -2.9320    0.0000 C   0  0  0  0  0  0  0  0  0
    6.8018   -3.3445    0.0000 C   0  0  0  0  0  0  0  0  0
    6.8018   -4.1695    0.0000 C   0  0  0  0  0  0  0  0  0
    7.5163   -4.5820    0.0000 C   0  0  0  0  0  0  0  0  0
    7.5163   -5.4070    0.0000 C   0  0  0  0  0  0  0  0  0
    6.8018   -5.8195    0.0000 C   0  0  0  0  0  0  0  0  0
    6.0873   -5.4070    0.0000 N   0  0  0  0  0  0  0  0  0
    6.0873   -4.5820    0.0000 C   0  0  0  0  0  0  0  0  0
    3.2294    0.3680    0.0000 C   0  0  0  0  0  0  0  0  0
  1  2  1  0  0  0  0
  2  3  4  0  0  0  0
  2  7  4  0  0  0  0
  3  4  4  0  0  0  0
  4  5  4  0  0  0  0
  5  6  4  0  0  0  0
  5  8  1  0  0  0  0
  6  7  4  0  0  0  0
  8  9  1  0  0  0  0
  8 26  1  0  0  0  0
  9 10  1  0  0  0  0
 10 11  4  0  0  0  0
 10 15  4  0  0  0  0
 11 12  4  0  0  0  0
 12 13  4  0  0  0  0
 12 17  1  0  0  0  0
 13 14  4  0  0  0  0
 14 15  4  0  0  0  0
 14 16  1  0  0  0  0
 17 18  1  0  0  0  0
 18 19  1  0  0  0  0
 19 20  1  0  0  0  0
 20 21  4  0  0  0  0
 20 25  4  0  0  0  0
 21 22  4  0  0  0  0
 22 23  4  0  0  0  0
 23 24  4  0  0  0  0
 24 25  4  0  0  0  0
M  END
>  <Name_Molregno>
306947

>  <5-HT7>
4.39

$$$$
306956
  Marvin  02231216192D 0   1.00000     0.00000     0

 25 27  0  0  1  0  0  0  0  0999 V2000
   -0.0814   -0.6379    0.0000 O   0  0  0  0  0  0  0  0  0
    0.6330   -0.2254    0.0000 C   0  0  0  0  0  0  0  0  0
    1.3475   -0.6379    0.0000 C   0  0  0  0  0  0  0  0  0
    2.0620   -0.2254    0.0000 N   0  0  0  0  0  0  0  0  0
    2.7764   -0.6379    0.0000 C   0  0  0  0  0  0  0  0  0
    3.4909   -0.2254    0.0000 N   0  0  0  0  0  0  0  0  0
    4.2054   -0.6379    0.0000 C   0  0  0  0  0  0  0  0  0
    4.9199   -0.2254    0.0000 N   0  0  0  0  0  0  0  0  0
    5.6343   -0.6379    0.0000 C   0  0  0  0  0  0  0  0  0
    5.6343   -1.4629    0.0000 C   0  0  0  0  0  0  0  0  0
    6.3488   -0.2254    0.0000 C   0  0  0  0  0  0  0  0  0
    6.3488    0.5996    0.0000 C   0  0  0  0  0  0  0  0  0
    7.0633    1.0121    0.0000 C   0  0  0  0  0  0  0  0  0
    7.7777    0.5996    0.0000 C   0  0  0  0  0  0  0  0  0
    7.7777   -0.2254    0.0000 C   0  0  0  0  0  0  0  0  0
    7.0633   -0.6379    0.0000 C   0  0  0  0  0  0  0  0  0
    4.2054   -1.4629    0.0000 C   0  0  0  0  0  0  0  0  0
    3.4909   -1.8754    0.0000 C   0  0  0  0  0  0  0  0  0
    2.7764   -1.4629    0.0000 N   0  0  0  0  0  0  0  0  0
   -0.7959   -0.2254    0.0000 C   0  0  0  0  0  0  0  0  0
   -1.5104   -0.6379    0.0000 C   0  0  0  0  0  0  0  0  0
   -2.2249   -0.2254    0.0000 C   0  0  0  0  0  0  0  0  0
   -2.2249    0.5996    0.0000 C   0  0  0  0  0  0  0  0  0
   -1.5104    1.0121    0.0000 C   0  0  0  0  0  0  0  0  0
   -0.7959    0.5996    0.0000 C   0  0  0  0  0  0  0  0  0
  1  2  1  0  0  0  0
  1 20  1  0  0  0  0
  2  3  1  0  0  0  0
  3  4  1  0  0  0  0
  4  5  1  0  0  0  0
  5  6  4  0  0  0  0
  5 19  4  0  0  0  0
  6  7  4  0  0  0  0
  7  8  1  0  0  0  0
  7 17  4  0  0  0  0
  8  9  1  0  0  0  0
  9 10  1  0  0  0  0
  9 11  1  0  0  0  0
 11 12  4  0  0  0  0
 11 16  4  0  0  0  0
 12 13  4  0  0  0  0
 13 14  4  0  0  0  0
 14 15  4  0  0  0  0
 15 16  4  0  0  0  0
 17 18  4  0  0  0  0
 18 19  4  0  0  0  0
 20 21  4  0  0  0  0
 20 25  4  0  0  0  0
 21 22  4  0  0  0  0
 22 23  4  0  0  0  0
 23 24  4  0  0  0  0
 24 25  4  0  0  0  0
M  END
>  <Name_Molregno>
306956

>  <5-HT7>
8.7

$$$$
306957
  Marvin  02231216192D 0   1.00000     0.00000     0

 26 28  0  0  1  0  0  0  0  0999 V2000
    3.9439    4.0805    0.0000 F   0  0  0  0  0  0  0  0  0
    3.9439    3.2555    0.0000 C   0  0  0  0  0  0  0  0  0
    4.6584    2.8430    0.0000 C   0  0  0  0  0  0  0  0  0
    4.6584    2.0180    0.0000 C   0  0  0  0  0  0  0  0  0
    3.9439    1.6055    0.0000 C   0  0  0  0  0  0  0  0  0
    3.2294    2.0180    0.0000 C   0  0  0  0  0  0  0  0  0
    3.2294    2.8430    0.0000 C   0  0  0  0  0  0  0  0  0
    3.9439    0.7805    0.0000 C   0  0  0  0  0  0  0  0  0
    4.6584    0.3680    0.0000 N   0  0  0  0  0  0  0  0  0
    4.6584   -0.4570    0.0000 C   0  0  0  0  0  0  0  0  0
    5.3729   -0.8695    0.0000 N   0  0  0  0  0  0  0  0  0
    5.3729   -1.6945    0.0000 C   0  0  0  0  0  0  0  0  0
    4.6584   -2.1070    0.0000 N   0  0  0  0  0  0  0  0  0
    3.9439   -1.6945    0.0000 C   0  0  0  0  0  0  0  0  0
    3.9439   -0.8695    0.0000 N   0  0  0  0  0  0  0  0  0
    3.2294   -2.1070    0.0000 N   0  0  0  0  0  0  0  0  0
    6.0873   -2.1070    0.0000 N   0  0  0  0  0  0  0  0  0
    6.0873   -2.9320    0.0000 C   0  0  0  0  0  0  0  0  0
    6.8018   -3.3445    0.0000 C   0  0  0  0  0  0  0  0  0
    6.8018   -4.1695    0.0000 C   0  0  0  0  0  0  0  0  0
    7.5163   -4.5820    0.0000 C   0  0  0  0  0  0  0  0  0
    7.5163   -5.4070    0.0000 C   0  0  0  0  0  0  0  0  0
    6.8018   -5.8195    0.0000 N   0  0  0  0  0  0  0  0  0
    6.0873   -5.4070    0.0000 C   0  0  0  0  0  0  0  0  0
    6.0873   -4.5820    0.0000 C   0  0  0  0  0  0  0  0  0
    3.2294    0.3680    0.0000 C   0  0  0  0  0  0  0  0  0
  1  2  1  0  0  0  0
  2  3  4  0  0  0  0
  2  7  4  0  0  0  0
  3  4  4  0  0  0  0
  4  5  4  0  0  0  0
  5  6  4  0  0  0  0
  5  8  1  0  0  0  0
  6  7  4  0  0  0  0
  8  9  1  0  0  0  0
  8 26  1  0  0  0  0
  9 10  1  0  0  0  0
 10 11  4  0  0  0  0
 10 15  4  0  0  0  0
 11 12  4  0  0  0  0
 12 13  4  0  0  0  0
 12 17  1  0  0  0  0
 13 14  4  0  0  0  0
 14 15  4  0  0  0  0
 14 16  1  0  0  0  0
 17 18  1  0  0  0  0
 18 19  1  0  0  0  0
 19 20  1  0  0  0  0
 20 21  4  0  0  0  0
 20 25  4  0  0  0  0
 21 22  4  0  0  0  0
 22 23  4  0  0  0  0
 23 24  4  0  0  0  0
 24 25  4  0  0  0  0
M  END
>  <Name_Molregno>
306957

>  <5-HT7>
6

$$$$
306964
  Marvin  02231216192D 0   1.00000     0.00000     0

 26 28  0  0  1  0  0  0  0  0999 V2000
    0.0939   -0.4196    0.0000 F   0  0  0  0  0  0  0  0  0
    0.8084   -0.8321    0.0000 C   0  0  0  0  0  0  0  0  0
    1.5229   -0.4196    0.0000 C   0  0  0  0  0  0  0  0  0
    2.2373   -0.8321    0.0000 C   0  0  0  0  0  0  0  0  0
    2.2373   -1.6571    0.0000 C   0  0  0  0  0  0  0  0  0
    2.9518   -2.0696    0.0000 O   0  0  0  0  0  0  0  0  0
    3.6663   -1.6571    0.0000 C   0  0  0  0  0  0  0  0  0
    4.3808   -2.0696    0.0000 C   0  0  0  0  0  0  0  0  0
    5.0952   -1.6571    0.0000 N   0  0  0  0  0  0  0  0  0
    5.8097   -2.0696    0.0000 C   0  0  0  0  0  0  0  0  0
    6.5242   -1.6571    0.0000 N   0  0  0  0  0  0  0  0  0
    7.2386   -2.0696    0.0000 C   0  0  0  0  0  0  0  0  0
    7.9531   -1.6571    0.0000 N   0  0  0  0  0  0  0  0  0
    7.9531   -0.8321    0.0000 C   0  0  0  0  0  0  0  0  0
    7.2386   -0.4196    0.0000 C   0  0  0  0  0  0  0  0  0
    8.6676   -0.4196    0.0000 C   0  0  0  0  0  0  0  0  0
    8.6676    0.4054    0.0000 C   0  0  0  0  0  0  0  0  0
    9.3820    0.8179    0.0000 C   0  0  0  0  0  0  0  0  0
   10.0965    0.4054    0.0000 C   0  0  0  0  0  0  0  0  0
   10.0965   -0.4196    0.0000 C   0  0  0  0  0  0  0  0  0
    9.3820   -0.8321    0.0000 C   0  0  0  0  0  0  0  0  0
    7.2386   -2.8946    0.0000 C   0  0  0  0  0  0  0  0  0
    6.5242   -3.3071    0.0000 C   0  0  0  0  0  0  0  0  0
    5.8097   -2.8946    0.0000 N   0  0  0  0  0  0  0  0  0
    1.5229   -2.0696    0.0000 C   0  0  0  0  0  0  0  0  0
    0.8084   -1.6571    0.0000 C   0  0  0  0  0  0  0  0  0
  1  2  1  0  0  0  0
  2  3  4  0  0  0  0
  2 26  4  0  0  0  0
  3  4  4  0  0  0  0
  4  5  4  0  0  0  0
  5  6  1  0  0  0  0
  5 25  4  0  0  0  0
  6  7  1  0  0  0  0
  7  8  1  0  0  0  0
  8  9  1  0  0  0  0
  9 10  1  0  0  0  0
 10 11  4  0  0  0  0
 10 24  4  0  0  0  0
 11 12  4  0  0  0  0
 12 13  1  0  0  0  0
 12 22  4  0  0  0  0
 13 14  1  0  0  0  0
 14 15  1  0  0  0  0
 14 16  1  0  0  0  0
 16 17  4  0  0  0  0
 16 21  4  0  0  0  0
 17 18  4  0  0  0  0
 18 19  4  0  0  0  0
 19 20  4  0  0  0  0
 20 21  4  0  0  0  0
 22 23  4  0  0  0  0
 23 24  4  0  0  0  0
 25 26  4  0  0  0  0
M  END
>  <Name_Molregno>
306964

>  <5-HT7>
9.52

$$$$
306968
  Marvin  02231216192D 0   1.00000     0.00000     0

 25 27  0  0  1  0  0  0  0  0999 V2000
    3.6777    5.3756    0.0000 F   0  0  0  0  0  0  0  0  0
    3.6777    4.5506    0.0000 C   0  0  0  0  0  0  0  0  0
    4.3922    4.1381    0.0000 C   0  0  0  0  0  0  0  0  0
    4.3922    3.3131    0.0000 C   0  0  0  0  0  0  0  0  0
    3.6777    2.9006    0.0000 C   0  0  0  0  0  0  0  0  0
    2.9632    3.3131    0.0000 C   0  0  0  0  0  0  0  0  0
    2.9632    4.1381    0.0000 C   0  0  0  0  0  0  0  0  0
    3.6777    2.0756    0.0000 C   0  0  0  0  0  0  0  0  0
    4.3922    1.6631    0.0000 C   0  0  0  0  0  0  0  0  0
    4.3922    0.8381    0.0000 N   0  0  0  0  0  0  0  0  0
    5.1067    0.4256    0.0000 C   0  0  0  0  0  0  0  0  0
    5.8211    0.8381    0.0000 N   0  0  0  0  0  0  0  0  0
    6.5356    0.4256    0.0000 C   0  0  0  0  0  0  0  0  0
    6.5356   -0.3994    0.0000 N   0  0  0  0  0  0  0  0  0
    5.8211   -0.8119    0.0000 C   0  0  0  0  0  0  0  0  0
    5.8211   -1.6369    0.0000 N   0  0  0  0  0  0  0  0  0
    6.5356   -2.0494    0.0000 C   0  0  0  0  0  0  0  0  0
    7.2501   -1.6369    0.0000 C   0  0  0  0  0  0  0  0  0
    6.5356   -2.8744    0.0000 C   0  0  0  0  0  0  0  0  0
    7.2501   -3.2869    0.0000 C   0  0  0  0  0  0  0  0  0
    7.2501   -4.1119    0.0000 C   0  0  0  0  0  0  0  0  0
    6.5356   -4.5244    0.0000 C   0  0  0  0  0  0  0  0  0
    5.8211   -4.1119    0.0000 C   0  0  0  0  0  0  0  0  0
    5.8211   -3.2869    0.0000 C   0  0  0  0  0  0  0  0  0
    5.1067   -0.3994    0.0000 C   0  0  0  0  0  0  0  0  0
  1  2  1  0  0  0  0
  2  3  4  0  0  0  0
  2  7  4  0  0  0  0
  3  4  4  0  0  0  0
  4  5  4  0  0  0  0
  5  6  4  0  0  0  0
  5  8  1  0  0  0  0
  6  7  4  0  0  0  0
  8  9  1  0  0  0  0
  9 10  1  0  0  0  0
 10 11  1  0  0  0  0
 11 12  4  0  0  0  0
 11 25  4  0  0  0  0
 12 13  4  0  0  0  0
 13 14  4  0  0  0  0
 14 15  4  0  0  0  0
 15 16  1  0  0  0  0
 15 25  4  0  0  0  0
 16 17  1  0  0  0  0
 17 18  1  0  0  0  0
 17 19  1  0  0  0  0
 19 20  4  0  0  0  0
 19 24  4  0  0  0  0
 20 21  4  0  0  0  0
 21 22  4  0  0  0  0
 22 23  4  0  0  0  0
 23 24  4  0  0  0  0
M  END
>  <Name_Molregno>
306968

>  <5-HT7>
8.3

$$$$
306969
  Marvin  02231216192D 0   1.00000     0.00000     0

 26 28  0  0  1  0  0  0  0  0999 V2000
   -0.1534   -0.0087    0.0000 F   0  0  0  0  0  0  0  0  0
    0.5611    0.4038    0.0000 C   0  0  0  0  0  0  0  0  0
    0.5611    1.2288    0.0000 C   0  0  0  0  0  0  0  0  0
    1.2756    1.6413    0.0000 C   0  0  0  0  0  0  0  0  0
    1.9900    1.2288    0.0000 C   0  0  0  0  0  0  0  0  0
    2.7045    1.6413    0.0000 O   0  0  0  0  0  0  0  0  0
    3.4190    1.2288    0.0000 C   0  0  0  0  0  0  0  0  0
    4.1334    1.6413    0.0000 C   0  0  0  0  0  0  0  0  0
    4.8479    1.2288    0.0000 N   0  0  0  0  0  0  0  0  0
    5.5624    1.6413    0.0000 C   0  0  0  0  0  0  0  0  0
    5.5624    2.4663    0.0000 N   0  0  0  0  0  0  0  0  0
    6.2768    2.8788    0.0000 C   0  0  0  0  0  0  0  0  0
    6.9913    2.4663    0.0000 N   0  0  0  0  0  0  0  0  0
    6.9913    1.6413    0.0000 C   0  0  0  0  0  0  0  0  0
    7.7058    1.2288    0.0000 N   0  0  0  0  0  0  0  0  0
    8.4203    1.6413    0.0000 C   0  0  0  0  0  0  0  0  0
    8.4203    2.4663    0.0000 C   0  0  0  0  0  0  0  0  0
    9.1347    1.2288    0.0000 C   0  0  0  0  0  0  0  0  0
    9.8492    1.6413    0.0000 C   0  0  0  0  0  0  0  0  0
   10.5637    1.2288    0.0000 C   0  0  0  0  0  0  0  0  0
   10.5637    0.4038    0.0000 C   0  0  0  0  0  0  0  0  0
    9.8492   -0.0087    0.0000 C   0  0  0  0  0  0  0  0  0
    9.1347    0.4038    0.0000 C   0  0  0  0  0  0  0  0  0
    6.2768    1.2288    0.0000 C   0  0  0  0  0  0  0  0  0
    1.9900    0.4038    0.0000 C   0  0  0  0  0  0  0  0  0
    1.2756   -0.0087    0.0000 C   0  0  0  0  0  0  0  0  0
  1  2  1  0  0  0  0
  2  3  4  0  0  0  0
  2 26  4  0  0  0  0
  3  4  4  0  0  0  0
  4  5  4  0  0  0  0
  5  6  1  0  0  0  0
  5 25  4  0  0  0  0
  6  7  1  0  0  0  0
  7  8  1  0  0  0  0
  8  9  1  0  0  0  0
  9 10  1  0  0  0  0
 10 11  4  0  0  0  0
 10 24  4  0  0  0  0
 11 12  4  0  0  0  0
 12 13  4  0  0  0  0
 13 14  4  0  0  0  0
 14 15  1  0  0  0  0
 14 24  4  0  0  0  0
 15 16  1  0  0  0  0
 16 17  1  0  0  0  0
 16 18  1  0  0  0  0
 18 19  4  0  0  0  0
 18 23  4  0  0  0  0
 19 20  4  0  0  0  0
 20 21  4  0  0  0  0
 21 22  4  0  0  0  0
 22 23  4  0  0  0  0
 25 26  4  0  0  0  0
M  END
>  <Name_Molregno>
306969

>  <5-HT7>
8.3

$$$$
306984
  Marvin  02231216192D 0   1.00000     0.00000     0

 24 26  0  0  1  0  0  0  0  0999 V2000
    0.1731    0.4023    0.0000 N   0  0  0  0  0  0  0  0  0
    0.1731   -0.4227    0.0000 C   0  0  0  0  0  0  0  0  0
    0.8876   -0.8352    0.0000 N   0  0  0  0  0  0  0  0  0
    0.8876   -1.6602    0.0000 C   0  0  0  0  0  0  0  0  0
    0.1731   -2.0727    0.0000 C   0  0  0  0  0  0  0  0  0
    1.6020   -2.0727    0.0000 C   0  0  0  0  0  0  0  0  0
    2.3165   -1.6602    0.0000 C   0  0  0  0  0  0  0  0  0
    3.0310   -2.0727    0.0000 C   0  0  0  0  0  0  0  0  0
    3.0310   -2.8977    0.0000 C   0  0  0  0  0  0  0  0  0
    2.3165   -3.3102    0.0000 C   0  0  0  0  0  0  0  0  0
    1.6020   -2.8977    0.0000 C   0  0  0  0  0  0  0  0  0
   -0.5414   -0.8352    0.0000 C   0  0  0  0  0  0  0  0  0
   -1.2559   -0.4227    0.0000 C   0  0  0  0  0  0  0  0  0
   -1.2559    0.4023    0.0000 N   0  0  0  0  0  0  0  0  0
   -0.5414    0.8148    0.0000 C   0  0  0  0  0  0  0  0  0
   -0.5414    1.6398    0.0000 N   0  0  0  0  0  0  0  0  0
    0.1731    2.0523    0.0000 C   0  0  0  0  0  0  0  0  0
    0.1731    2.8773    0.0000 C   0  0  0  0  0  0  0  0  0
   -0.5414    3.2898    0.0000 C   0  0  0  0  0  0  0  0  0
   -1.2559    2.8773    0.0000 C   0  0  0  0  0  0  0  0  0
   -1.9703    3.2898    0.0000 C   0  0  0  0  0  0  0  0  0
   -1.9703    4.1148    0.0000 C   0  0  0  0  0  0  0  0  0
   -1.2559    4.5273    0.0000 C   0  0  0  0  0  0  0  0  0
   -0.5414    4.1148    0.0000 C   0  0  0  0  0  0  0  0  0
  1  2  4  0  0  0  0
  1 15  4  0  0  0  0
  2  3  1  0  0  0  0
  2 12  4  0  0  0  0
  3  4  1  0  0  0  0
  4  5  1  0  0  0  0
  4  6  1  0  0  0  0
  6  7  4  0  0  0  0
  6 11  4  0  0  0  0
  7  8  4  0  0  0  0
  8  9  4  0  0  0  0
  9 10  4  0  0  0  0
 10 11  4  0  0  0  0
 12 13  4  0  0  0  0
 13 14  4  0  0  0  0
 14 15  4  0  0  0  0
 15 16  1  0  0  0  0
 16 17  1  0  0  0  0
 17 18  1  0  0  0  0
 18 19  1  0  0  0  0
 19 20  4  0  0  0  0
 19 24  4  0  0  0  0
 20 21  4  0  0  0  0
 21 22  4  0  0  0  0
 22 23  4  0  0  0  0
 23 24  4  0  0  0  0
M  END
>  <Name_Molregno>
306984

>  <5-HT7>
9.22

$$$$
306985
  Marvin  02231216192D 0   1.00000     0.00000     0

 25 27  0  0  1  0  0  0  0  0999 V2000
    6.3641    4.9864    0.0000 F   0  0  0  0  0  0  0  0  0
    6.3641    4.1614    0.0000 C   0  0  0  0  0  0  0  0  0
    7.0786    3.7489    0.0000 C   0  0  0  0  0  0  0  0  0
    7.0786    2.9239    0.0000 C   0  0  0  0  0  0  0  0  0
    6.3641    2.5114    0.0000 C   0  0  0  0  0  0  0  0  0
    5.6497    2.9239    0.0000 C   0  0  0  0  0  0  0  0  0
    5.6497    3.7489    0.0000 C   0  0  0  0  0  0  0  0  0
    6.3641    1.6864    0.0000 C   0  0  0  0  0  0  0  0  0
    5.6497    1.2739    0.0000 C   0  0  0  0  0  0  0  0  0
    5.6497    0.4489    0.0000 N   0  0  0  0  0  0  0  0  0
    4.9352    0.0364    0.0000 C   0  0  0  0  0  0  0  0  0
    4.9352   -0.7886    0.0000 N   0  0  0  0  0  0  0  0  0
    4.2207   -1.2011    0.0000 C   0  0  0  0  0  0  0  0  0
    4.2207   -2.0261    0.0000 N   0  0  0  0  0  0  0  0  0
    4.9352   -2.4386    0.0000 C   0  0  0  0  0  0  0  0  0
    5.6497   -2.0261    0.0000 C   0  0  0  0  0  0  0  0  0
    4.9352   -3.2636    0.0000 C   0  0  0  0  0  0  0  0  0
    5.6497   -3.6761    0.0000 C   0  0  0  0  0  0  0  0  0
    5.6497   -4.5011    0.0000 C   0  0  0  0  0  0  0  0  0
    4.9352   -4.9136    0.0000 C   0  0  0  0  0  0  0  0  0
    4.2207   -4.5011    0.0000 C   0  0  0  0  0  0  0  0  0
    4.2207   -3.6761    0.0000 C   0  0  0  0  0  0  0  0  0
    3.5062   -0.7886    0.0000 C   0  0  0  0  0  0  0  0  0
    3.5062    0.0364    0.0000 C   0  0  0  0  0  0  0  0  0
    4.2207    0.4489    0.0000 N   0  0  0  0  0  0  0  0  0
  1  2  1  0  0  0  0
  2  3  4  0  0  0  0
  2  7  4  0  0  0  0
  3  4  4  0  0  0  0
  4  5  4  0  0  0  0
  5  6  4  0  0  0  0
  5  8  1  0  0  0  0
  6  7  4  0  0  0  0
  8  9  1  0  0  0  0
  9 10  1  0  0  0  0
 10 11  1  0  0  0  0
 11 12  4  0  0  0  0
 11 25  4  0  0  0  0
 12 13  4  0  0  0  0
 13 14  1  0  0  0  0
 13 23  4  0  0  0  0
 14 15  1  0  0  0  0
 15 16  1  0  0  0  0
 15 17  1  0  0  0  0
 17 18  4  0  0  0  0
 17 22  4  0  0  0  0
 18 19  4  0  0  0  0
 19 20  4  0  0  0  0
 20 21  4  0  0  0  0
 21 22  4  0  0  0  0
 23 24  4  0  0  0  0
 24 25  4  0  0  0  0
M  END
>  <Name_Molregno>
306985

>  <5-HT7>
8.22

$$$$
307004
  Marvin  02231216192D 0   1.00000     0.00000     0

 25 27  0  0  1  0  0  0  0  0999 V2000
   -0.0814   -0.6379    0.0000 O   0  0  0  0  0  0  0  0  0
    0.6330   -0.2254    0.0000 C   0  0  0  0  0  0  0  0  0
    1.3475   -0.6379    0.0000 C   0  0  0  0  0  0  0  0  0
    2.0620   -0.2254    0.0000 N   0  0  0  0  0  0  0  0  0
    2.7764   -0.6379    0.0000 C   0  0  0  0  0  0  0  0  0
    3.4909   -0.2254    0.0000 C   0  0  0  0  0  0  0  0  0
    4.2054   -0.6379    0.0000 C   0  0  0  0  0  0  0  0  0
    4.2054   -1.4629    0.0000 N   0  0  0  0  0  0  0  0  0
    3.4909   -1.8754    0.0000 C   0  0  0  0  0  0  0  0  0
    2.7764   -1.4629    0.0000 C   0  0  0  0  0  0  0  0  0
    4.9199   -0.2254    0.0000 N   0  0  0  0  0  0  0  0  0
    5.6343   -0.6379    0.0000 C   0  0  0  0  0  0  0  0  0
    5.6343   -1.4629    0.0000 C   0  0  0  0  0  0  0  0  0
    6.3488   -0.2254    0.0000 C   0  0  0  0  0  0  0  0  0
    6.3488    0.5996    0.0000 C   0  0  0  0  0  0  0  0  0
    7.0633    1.0121    0.0000 C   0  0  0  0  0  0  0  0  0
    7.7777    0.5996    0.0000 C   0  0  0  0  0  0  0  0  0
    7.7777   -0.2254    0.0000 C   0  0  0  0  0  0  0  0  0
    7.0633   -0.6379    0.0000 C   0  0  0  0  0  0  0  0  0
   -0.7959   -0.2254    0.0000 C   0  0  0  0  0  0  0  0  0
   -1.5104   -0.6379    0.0000 C   0  0  0  0  0  0  0  0  0
   -2.2249   -0.2254    0.0000 C   0  0  0  0  0  0  0  0  0
   -2.2249    0.5996    0.0000 C   0  0  0  0  0  0  0  0  0
   -1.5104    1.0121    0.0000 C   0  0  0  0  0  0  0  0  0
   -0.7959    0.5996    0.0000 C   0  0  0  0  0  0  0  0  0
  1  2  1  0  0  0  0
  1 20  1  0  0  0  0
  2  3  1  0  0  0  0
  3  4  1  0  0  0  0
  4  5  1  0  0  0  0
  5  6  4  0  0  0  0
  5 10  4  0  0  0  0
  6  7  4  0  0  0  0
  7  8  4  0  0  0  0
  7 11  1  0  0  0  0
  8  9  4  0  0  0  0
  9 10  4  0  0  0  0
 11 12  1  0  0  0  0
 12 13  1  0  0  0  0
 12 14  1  0  0  0  0
 14 15  4  0  0  0  0
 14 19  4  0  0  0  0
 15 16  4  0  0  0  0
 16 17  4  0  0  0  0
 17 18  4  0  0  0  0
 18 19  4  0  0  0  0
 20 21  4  0  0  0  0
 20 25  4  0  0  0  0
 21 22  4  0  0  0  0
 22 23  4  0  0  0  0
 23 24  4  0  0  0  0
 24 25  4  0  0  0  0
M  STY  1   1 DAT
M  SAL   1  1   8
M  SDT   1 MRV_IMPLICIT_H                                        
M  SDD   1     0.0000    0.0000    DR    ALL  0       0  
M  SED   1 IMPL_H1
M  END
>  <Name_Molregno>
307004

>  <5-HT7>
9.4

$$$$
307005
  Marvin  02231216192D 0   1.00000     0.00000     0

 26 28  0  0  1  0  0  0  0  0999 V2000
    0.0939   -0.4196    0.0000 F   0  0  0  0  0  0  0  0  0
    0.8084   -0.8321    0.0000 C   0  0  0  0  0  0  0  0  0
    1.5229   -0.4196    0.0000 C   0  0  0  0  0  0  0  0  0
    2.2373   -0.8321    0.0000 C   0  0  0  0  0  0  0  0  0
    2.2373   -1.6571    0.0000 C   0  0  0  0  0  0  0  0  0
    2.9518   -2.0696    0.0000 O   0  0  0  0  0  0  0  0  0
    3.6663   -1.6571    0.0000 C   0  0  0  0  0  0  0  0  0
    4.3808   -2.0696    0.0000 C   0  0  0  0  0  0  0  0  0
    5.0952   -1.6571    0.0000 N   0  0  0  0  0  0  0  0  0
    5.8097   -2.0696    0.0000 C   0  0  0  0  0  0  0  0  0
    6.5242   -1.6571    0.0000 C   0  0  0  0  0  0  0  0  0
    7.2386   -2.0696    0.0000 C   0  0  0  0  0  0  0  0  0
    7.2386   -2.8946    0.0000 N   0  0  0  0  0  0  0  0  0
    6.5242   -3.3071    0.0000 C   0  0  0  0  0  0  0  0  0
    5.8097   -2.8946    0.0000 C   0  0  0  0  0  0  0  0  0
    7.9531   -1.6571    0.0000 N   0  0  0  0  0  0  0  0  0
    7.9531   -0.8321    0.0000 C   0  0  0  0  0  0  0  0  0
    7.2386   -0.4196    0.0000 C   0  0  0  0  0  0  0  0  0
    8.6676   -0.4196    0.0000 C   0  0  0  0  0  0  0  0  0
    8.6676    0.4054    0.0000 C   0  0  0  0  0  0  0  0  0
    9.3820    0.8179    0.0000 C   0  0  0  0  0  0  0  0  0
   10.0965    0.4054    0.0000 C   0  0  0  0  0  0  0  0  0
   10.0965   -0.4196    0.0000 C   0  0  0  0  0  0  0  0  0
    9.3820   -0.8321    0.0000 C   0  0  0  0  0  0  0  0  0
    1.5229   -2.0696    0.0000 C   0  0  0  0  0  0  0  0  0
    0.8084   -1.6571    0.0000 C   0  0  0  0  0  0  0  0  0
  1  2  1  0  0  0  0
  2  3  4  0  0  0  0
  2 26  4  0  0  0  0
  3  4  4  0  0  0  0
  4  5  4  0  0  0  0
  5  6  1  0  0  0  0
  5 25  4  0  0  0  0
  6  7  1  0  0  0  0
  7  8  1  0  0  0  0
  8  9  1  0  0  0  0
  9 10  1  0  0  0  0
 10 11  4  0  0  0  0
 10 15  4  0  0  0  0
 11 12  4  0  0  0  0
 12 13  4  0  0  0  0
 12 16  1  0  0  0  0
 13 14  4  0  0  0  0
 14 15  4  0  0  0  0
 16 17  1  0  0  0  0
 17 18  1  0  0  0  0
 17 19  1  0  0  0  0
 19 20  4  0  0  0  0
 19 24  4  0  0  0  0
 20 21  4  0  0  0  0
 21 22  4  0  0  0  0
 22 23  4  0  0  0  0
 23 24  4  0  0  0  0
 25 26  4  0  0  0  0
M  STY  1   1 DAT
M  SAL   1  1  13
M  SDT   1 MRV_IMPLICIT_H                                        
M  SDD   1     0.0000    0.0000    DR    ALL  0       0  
M  SED   1 IMPL_H1
M  END
>  <Name_Molregno>
307005

>  <5-HT7>
9.4

$$$$
307054
  Marvin  02231216192D 0   1.00000     0.00000     0

 24 26  0  0  1  0  0  0  0  0999 V2000
    1.3580   -0.7817    0.0000 N   0  0  0  0  0  0  0  0  0
    1.3580   -1.6067    0.0000 C   0  0  0  0  0  0  0  0  0
    0.6435   -2.0192    0.0000 C   0  0  0  0  0  0  0  0  0
   -0.0710   -1.6067    0.0000 C   0  0  0  0  0  0  0  0  0
   -0.7854   -2.0192    0.0000 N   0  0  0  0  0  0  0  0  0
   -0.7854   -2.8442    0.0000 C   0  0  0  0  0  0  0  0  0
   -1.4999   -3.2567    0.0000 C   0  0  0  0  0  0  0  0  0
   -1.4999   -4.0817    0.0000 C   0  0  0  0  0  0  0  0  0
   -0.7854   -4.4942    0.0000 C   0  0  0  0  0  0  0  0  0
   -0.7854   -5.3192    0.0000 C   0  0  0  0  0  0  0  0  0
   -1.4999   -5.7317    0.0000 C   0  0  0  0  0  0  0  0  0
   -2.2144   -5.3192    0.0000 C   0  0  0  0  0  0  0  0  0
   -2.2144   -4.4942    0.0000 C   0  0  0  0  0  0  0  0  0
   -0.0710   -0.7817    0.0000 C   0  0  0  0  0  0  0  0  0
    0.6435   -0.3692    0.0000 C   0  0  0  0  0  0  0  0  0
    0.6435    0.4558    0.0000 N   0  0  0  0  0  0  0  0  0
   -0.0710    0.8683    0.0000 C   0  0  0  0  0  0  0  0  0
   -0.7854    0.4558    0.0000 C   0  0  0  0  0  0  0  0  0
   -0.0710    1.6933    0.0000 C   0  0  0  0  0  0  0  0  0
   -0.7854    2.1058    0.0000 C   0  0  0  0  0  0  0  0  0
   -0.7854    2.9308    0.0000 C   0  0  0  0  0  0  0  0  0
   -0.0710    3.3433    0.0000 C   0  0  0  0  0  0  0  0  0
    0.6435    2.9308    0.0000 C   0  0  0  0  0  0  0  0  0
    0.6435    2.1058    0.0000 C   0  0  0  0  0  0  0  0  0
  1  2  4  0  0  0  0
  1 15  4  0  0  0  0
  2  3  4  0  0  0  0
  3  4  4  0  0  0  0
  4  5  1  0  0  0  0
  4 14  4  0  0  0  0
  5  6  1  0  0  0  0
  6  7  1  0  0  0  0
  7  8  1  0  0  0  0
  8  9  4  0  0  0  0
  8 13  4  0  0  0  0
  9 10  4  0  0  0  0
 10 11  4  0  0  0  0
 11 12  4  0  0  0  0
 12 13  4  0  0  0  0
 14 15  4  0  0  0  0
 15 16  1  0  0  0  0
 16 17  1  0  0  0  0
 17 18  1  0  0  0  0
 17 19  1  0  0  0  0
 19 20  4  0  0  0  0
 19 24  4  0  0  0  0
 20 21  4  0  0  0  0
 21 22  4  0  0  0  0
 22 23  4  0  0  0  0
 23 24  4  0  0  0  0
M  STY  1   1 DAT
M  SAL   1  1   1
M  SDT   1 MRV_IMPLICIT_H                                        
M  SDD   1     0.0000    0.0000    DR    ALL  0       0  
M  SED   1 IMPL_H1
M  END
>  <Name_Molregno>
307054

>  <5-HT7>
8.52

$$$$
307055
  Marvin  02231216192D 0   1.00000     0.00000     0

 25 27  0  0  1  0  0  0  0  0999 V2000
    6.3641    4.9864    0.0000 F   0  0  0  0  0  0  0  0  0
    6.3641    4.1614    0.0000 C   0  0  0  0  0  0  0  0  0
    7.0786    3.7489    0.0000 C   0  0  0  0  0  0  0  0  0
    7.0786    2.9239    0.0000 C   0  0  0  0  0  0  0  0  0
    6.3641    2.5114    0.0000 C   0  0  0  0  0  0  0  0  0
    5.6497    2.9239    0.0000 C   0  0  0  0  0  0  0  0  0
    5.6497    3.7489    0.0000 C   0  0  0  0  0  0  0  0  0
    6.3641    1.6864    0.0000 C   0  0  0  0  0  0  0  0  0
    5.6497    1.2739    0.0000 C   0  0  0  0  0  0  0  0  0
    5.6497    0.4489    0.0000 N   0  0  0  0  0  0  0  0  0
    4.9352    0.0364    0.0000 C   0  0  0  0  0  0  0  0  0
    4.9352   -0.7886    0.0000 C   0  0  0  0  0  0  0  0  0
    4.2207   -1.2011    0.0000 C   0  0  0  0  0  0  0  0  0
    3.5062   -0.7886    0.0000 N   0  0  0  0  0  0  0  0  0
    3.5062    0.0364    0.0000 C   0  0  0  0  0  0  0  0  0
    4.2207    0.4489    0.0000 C   0  0  0  0  0  0  0  0  0
    4.2207   -2.0261    0.0000 N   0  0  0  0  0  0  0  0  0
    4.9352   -2.4386    0.0000 C   0  0  0  0  0  0  0  0  0
    5.6497   -2.0261    0.0000 C   0  0  0  0  0  0  0  0  0
    4.9352   -3.2636    0.0000 C   0  0  0  0  0  0  0  0  0
    5.6497   -3.6761    0.0000 C   0  0  0  0  0  0  0  0  0
    5.6497   -4.5011    0.0000 C   0  0  0  0  0  0  0  0  0
    4.9352   -4.9136    0.0000 C   0  0  0  0  0  0  0  0  0
    4.2207   -4.5011    0.0000 C   0  0  0  0  0  0  0  0  0
    4.2207   -3.6761    0.0000 C   0  0  0  0  0  0  0  0  0
  1  2  1  0  0  0  0
  2  3  4  0  0  0  0
  2  7  4  0  0  0  0
  3  4  4  0  0  0  0
  4  5  4  0  0  0  0
  5  6  4  0  0  0  0
  5  8  1  0  0  0  0
  6  7  4  0  0  0  0
  8  9  1  0  0  0  0
  9 10  1  0  0  0  0
 10 11  1  0  0  0  0
 11 12  4  0  0  0  0
 11 16  4  0  0  0  0
 12 13  4  0  0  0  0
 13 14  4  0  0  0  0
 13 17  1  0  0  0  0
 14 15  4  0  0  0  0
 15 16  4  0  0  0  0
 17 18  1  0  0  0  0
 18 19  1  0  0  0  0
 18 20  1  0  0  0  0
 20 21  4  0  0  0  0
 20 25  4  0  0  0  0
 21 22  4  0  0  0  0
 22 23  4  0  0  0  0
 23 24  4  0  0  0  0
 24 25  4  0  0  0  0
M  STY  1   1 DAT
M  SAL   1  1  14
M  SDT   1 MRV_IMPLICIT_H                                        
M  SDD   1     0.0000    0.0000    DR    ALL  0       0  
M  SED   1 IMPL_H1
M  END
>  <Name_Molregno>
307055

>  <5-HT7>
8.4

$$$$
311791
  Marvin  02231216192D 0   1.00000     0.00000     0

 23 25  0  0  1  0  0  0  0  0999 V2000
    0.4159   -0.8003    0.0000 N   0  0  0  0  0  0  0  0  0
   -0.4091   -0.8003    0.0000 C   0  0  0  0  0  0  0  0  0
   -0.8216   -1.5148    0.0000 C   0  0  0  0  0  0  0  0  0
   -1.6466   -1.5148    0.0000 C   0  0  0  0  0  0  0  0  0
    0.8284   -1.5148    0.0000 C   0  0  0  0  0  0  0  0  0
    1.6534   -1.5148    0.0000 C   0  0  0  0  0  0  0  0  0
    2.0659   -2.2292    0.0000 C   0  0  0  0  0  0  0  0  0
    0.8284   -0.0858    0.0000 C   0  0  0  0  0  0  0  0  0
    1.6534   -0.0858    0.0000 C   0  0  0  0  0  0  0  0  0
    2.0659    0.6286    0.0000 C   0  0  0  0  0  0  0  0  0
    1.6534    1.3431    0.0000 C   0  0  0  0  0  0  0  0  0
    0.8284    1.3431    0.0000 C   0  0  0  0  0  0  0  0  0
    0.4159    0.6286    0.0000 C   0  0  0  0  0  0  0  0  0
    0.4159    2.0576    0.0000 C   0  0  0  0  0  0  0  0  0
    0.8284    2.7721    0.0000 C   0  0  0  0  0  0  0  0  0
    1.6534    2.7721    0.0000 C   0  0  0  0  0  0  0  0  0
    2.0659    2.0576    0.0000 C   0  0  0  0  0  0  0  0  0
    2.8909    2.0576    0.0000 C   0  0  0  0  0  0  0  0  0
    3.3034    2.7721    0.0000 C   0  0  0  0  0  0  0  0  0
    4.1284    2.7721    0.0000 C   0  0  0  0  0  0  0  0  0
    4.5409    2.0576    0.0000 C   0  0  0  0  0  0  0  0  0
    4.1284    1.3431    0.0000 C   0  0  0  0  0  0  0  0  0
    3.3034    1.3431    0.0000 C   0  0  0  0  0  0  0  0  0
  1  2  1  0  0  0  0
  1  5  1  0  0  0  0
  1  8  1  0  0  0  0
  2  3  1  0  0  0  0
  3  4  1  0  0  0  0
  5  6  1  0  0  0  0
  6  7  1  0  0  0  0
  8  9  1  0  0  0  0
  8 13  1  0  0  0  0
  9 10  1  0  0  0  0
 10 11  1  0  0  0  0
 11 12  4  0  0  0  0
 11 17  4  0  0  0  0
 12 13  1  0  0  0  0
 12 14  4  0  0  0  0
 14 15  4  0  0  0  0
 15 16  4  0  0  0  0
 16 17  4  0  0  0  0
 17 18  1  0  0  0  0
 18 19  4  0  0  0  0
 18 23  4  0  0  0  0
 19 20  4  0  0  0  0
 20 21  4  0  0  0  0
 21 22  4  0  0  0  0
 22 23  4  0  0  0  0
M  END
>  <Name_Molregno>
311791

>  <5-HT7>
8.54

$$$$
311898
  Marvin  02231216192D 0   1.00000     0.00000     0

 23 25  0  0  1  0  0  0  0  0999 V2000
    0.2147   -0.7694    0.0000 O   0  0  0  0  0  0  0  0  0
    0.2147    0.0556    0.0000 C   0  0  0  0  0  0  0  0  0
   -0.4998    0.4681    0.0000 C   0  0  0  0  0  0  0  0  0
   -0.4998    1.2931    0.0000 N   0  0  0  0  0  0  0  0  0
   -1.2143    1.7056    0.0000 C   0  0  0  0  0  0  0  0  0
   -1.2143    2.5306    0.0000 C   0  0  0  0  0  0  0  0  0
   -1.9287    2.9431    0.0000 C   0  0  0  0  0  0  0  0  0
    0.2147    1.7056    0.0000 C   0  0  0  0  0  0  0  0  0
    0.2147    2.5306    0.0000 C   0  0  0  0  0  0  0  0  0
    0.9291    2.9431    0.0000 C   0  0  0  0  0  0  0  0  0
   -1.2143    0.0556    0.0000 C   0  0  0  0  0  0  0  0  0
   -1.2143   -0.7694    0.0000 C   0  0  0  0  0  0  0  0  0
   -0.4998   -1.1819    0.0000 C   0  0  0  0  0  0  0  0  0
   -0.4998   -2.0069    0.0000 C   0  0  0  0  0  0  0  0  0
   -1.2143   -2.4194    0.0000 C   0  0  0  0  0  0  0  0  0
   -1.9287   -2.0069    0.0000 C   0  0  0  0  0  0  0  0  0
   -1.9287   -1.1819    0.0000 C   0  0  0  0  0  0  0  0  0
    0.2147   -2.4194    0.0000 C   0  0  0  0  0  0  0  0  0
    0.9291   -2.0069    0.0000 C   0  0  0  0  0  0  0  0  0
    1.6436   -2.4194    0.0000 C   0  0  0  0  0  0  0  0  0
    1.6436   -3.2444    0.0000 C   0  0  0  0  0  0  0  0  0
    0.9291   -3.6569    0.0000 C   0  0  0  0  0  0  0  0  0
    0.2147   -3.2444    0.0000 C   0  0  0  0  0  0  0  0  0
  1  2  1  0  0  0  0
  1 13  1  0  0  0  0
  2  3  1  0  0  0  0
  3  4  1  0  0  0  0
  3 11  1  0  0  0  0
  4  5  1  0  0  0  0
  4  8  1  0  0  0  0
  5  6  1  0  0  0  0
  6  7  1  0  0  0  0
  8  9  1  0  0  0  0
  9 10  1  0  0  0  0
 11 12  1  0  0  0  0
 12 13  4  0  0  0  0
 12 17  4  0  0  0  0
 13 14  4  0  0  0  0
 14 15  4  0  0  0  0
 14 18  1  0  0  0  0
 15 16  4  0  0  0  0
 16 17  4  0  0  0  0
 18 19  4  0  0  0  0
 18 23  4  0  0  0  0
 19 20  4  0  0  0  0
 20 21  4  0  0  0  0
 21 22  4  0  0  0  0
 22 23  4  0  0  0  0
M  END
>  <Name_Molregno>
311898

>  <5-HT7>
8.47

$$$$
315432
  Marvin  02231216192D 0   1.00000     0.00000     0

 39 42  0  0  0  0  0  0  0  0999 V2000
    1.3459    1.7399    0.0000 O   0  0  0  0  0  0  0  0  0
    2.1709    1.7399    0.0000 C   0  0  0  0  0  0  0  0  0
    2.5834    1.0254    0.0000 N   0  0  0  0  0  0  0  0  0
    2.1709    0.3109    0.0000 C   0  0  0  0  0  0  0  0  0
    2.5834   -0.4036    0.0000 C   0  0  0  0  0  0  0  0  0
    3.4084   -0.4036    0.0000 C   0  0  0  0  0  0  0  0  0
    3.8209   -1.1180    0.0000 C   0  0  0  0  0  0  0  0  0
    3.4084   -1.8325    0.0000 C   0  0  0  0  0  0  0  0  0
    2.5834   -1.8325    0.0000 C   0  0  0  0  0  0  0  0  0
    2.1709   -1.1180    0.0000 C   0  0  0  0  0  0  0  0  0
    3.8209   -2.5470    0.0000 C   0  0  0  0  0  0  0  0  0
    4.6459   -2.5470    0.0000 C   0  0  0  0  0  0  0  0  0
    5.0584   -3.2614    0.0000 C   0  0  0  0  0  0  0  0  0
    4.6459   -3.9759    0.0000 C   0  0  0  0  0  0  0  0  0
    3.8209   -3.9759    0.0000 C   0  0  0  0  0  0  0  0  0
    3.4084   -3.2614    0.0000 C   0  0  0  0  0  0  0  0  0
    5.0584   -4.6904    0.0000 C   0  0  0  0  0  0  0  0  0
    4.6459   -5.4049    0.0000 N   0  0  0  0  0  0  0  0  0
    5.0584   -6.1193    0.0000 C   0  0  0  0  0  0  0  0  0
    4.6459   -6.8338    0.0000 C   0  0  0  0  0  0  0  0  0
    5.0584   -7.5483    0.0000 C   0  0  0  0  0  0  0  0  0
    5.8834   -7.5483    0.0000 C   0  0  0  0  0  0  0  0  0
    6.2959   -8.2627    0.0000 C   0  0  0  0  0  0  0  0  0
    5.8834   -8.9772    0.0000 C   0  0  0  0  0  0  0  0  0
    5.0584   -8.9772    0.0000 C   0  0  0  0  0  0  0  0  0
    4.6459   -8.2627    0.0000 C   0  0  0  0  0  0  0  0  0
    3.4084    1.0254    0.0000 C   0  0  0  0  0  0  0  0  0
    3.8209    0.3109    0.0000 C   0  0  0  0  0  0  0  0  0
    4.6459    0.3109    0.0000 N   0  0  0  0  0  0  0  0  0
    5.0584    1.0254    0.0000 C   0  0  0  0  0  0  0  0  0
    5.0584   -0.4036    0.0000 C   0  0  0  0  0  0  0  0  0
    2.5834    2.4543    0.0000 C   0  0  0  0  0  0  0  0  0
    2.1709    3.1688    0.0000 C   0  0  0  0  0  0  0  0  0
    2.5834    3.8833    0.0000 C   0  0  0  0  0  0  0  0  0
    2.1709    4.5977    0.0000 C   0  0  0  0  0  0  0  0  0
    2.5834    5.3122    0.0000 C   0  0  0  0  0  0  0  0  0
    3.4084    5.3122    0.0000 C   0  0  0  0  0  0  0  0  0
    3.8209    4.5977    0.0000 C   0  0  0  0  0  0  0  0  0
    3.4084    3.8833    0.0000 C   0  0  0  0  0  0  0  0  0
  1  2  2  0  0  0  0
  2  3  1  0  0  0  0
  2 32  1  0  0  0  0
  3  4  1  0  0  0  0
  3 27  1  0  0  0  0
  4  5  1  0  0  0  0
  5  6  4  0  0  0  0
  5 10  4  0  0  0  0
  6  7  4  0  0  0  0
  7  8  4  0  0  0  0
  8  9  4  0  0  0  0
  8 11  1  0  0  0  0
  9 10  4  0  0  0  0
 11 12  4  0  0  0  0
 11 16  4  0  0  0  0
 12 13  4  0  0  0  0
 13 14  4  0  0  0  0
 14 15  4  0  0  0  0
 14 17  1  0  0  0  0
 15 16  4  0  0  0  0
 17 18  1  0  0  0  0
 18 19  1  0  0  0  0
 19 20  1  0  0  0  0
 20 21  1  0  0  0  0
 21 22  4  0  0  0  0
 21 26  4  0  0  0  0
 22 23  4  0  0  0  0
 23 24  4  0  0  0  0
 24 25  4  0  0  0  0
 25 26  4  0  0  0  0
 27 28  1  0  0  0  0
 28 29  1  0  0  0  0
 29 30  1  0  0  0  0
 29 31  1  0  0  0  0
 32 33  2  0  0  0  0
 33 34  1  0  0  0  0
 34 35  4  0  0  0  0
 34 39  4  0  0  0  0
 35 36  4  0  0  0  0
 36 37  4  0  0  0  0
 37 38  4  0  0  0  0
 38 39  4  0  0  0  0
M  END
>  <Name_Molregno>
315432

>  <5-HT1A>
6.1

>  <5-HT1B>
6.2

>  <5-HT1D>
6.8

>  <5-HT1E>
5

>  <5-HT2A>
6.4

>  <5-HT2C>
6.2

>  <5-HT5>
7.6

>  <5-HT6>
5.1

>  <5-HT7>
6

>  <Alpha-1B>
6.7

>  <DOPAMINE D2>
6.1

>  <DOPAMINE D3>
6

>  <DOPAMINE D4>
5.9

$$$$
315433
  Marvin  02231216192D 0   1.00000     0.00000     0

 41 45  0  0  0  0  0  0  0  0999 V2000
    3.1883    0.1879    0.0000 O   0  0  0  0  0  0  0  0  0
    3.1883    1.0129    0.0000 C   0  0  0  0  0  0  0  0  0
    3.9028    1.4254    0.0000 N   0  0  0  0  0  0  0  0  0
    4.6173    1.0129    0.0000 C   0  0  0  0  0  0  0  0  0
    4.6173    0.1879    0.0000 C   0  0  0  0  0  0  0  0  0
    5.3317   -0.2246    0.0000 C   0  0  0  0  0  0  0  0  0
    5.3317   -1.0496    0.0000 C   0  0  0  0  0  0  0  0  0
    4.6173   -1.4621    0.0000 C   0  0  0  0  0  0  0  0  0
    3.9028   -1.0496    0.0000 C   0  0  0  0  0  0  0  0  0
    3.9028   -0.2246    0.0000 C   0  0  0  0  0  0  0  0  0
    4.6173   -2.2871    0.0000 C   0  0  0  0  0  0  0  0  0
    5.3317   -2.6996    0.0000 C   0  0  0  0  0  0  0  0  0
    5.3317   -3.5246    0.0000 C   0  0  0  0  0  0  0  0  0
    4.6173   -3.9371    0.0000 C   0  0  0  0  0  0  0  0  0
    3.9028   -3.5246    0.0000 C   0  0  0  0  0  0  0  0  0
    3.9028   -2.6996    0.0000 C   0  0  0  0  0  0  0  0  0
    4.6173   -4.7621    0.0000 C   0  0  0  0  0  0  0  0  0
    3.9028   -5.1746    0.0000 N   0  0  0  0  0  0  0  0  0
    3.9028   -5.9996    0.0000 C   0  0  0  0  0  0  0  0  0
    3.1883   -6.4121    0.0000 C   0  0  0  0  0  0  0  0  0
    3.1883   -7.2371    0.0000 C   0  0  0  0  0  0  0  0  0
    3.9028   -7.6496    0.0000 C   0  0  0  0  0  0  0  0  0
    3.9028   -8.4746    0.0000 C   0  0  0  0  0  0  0  0  0
    3.1883   -8.8871    0.0000 C   0  0  0  0  0  0  0  0  0
    2.4738   -8.4746    0.0000 C   0  0  0  0  0  0  0  0  0
    2.4738   -7.6496    0.0000 C   0  0  0  0  0  0  0  0  0
    3.9028    2.2504    0.0000 C   0  0  0  0  0  0  0  0  0
    4.6173    2.6629    0.0000 C   0  0  0  0  0  0  0  0  0
    5.3317    2.2504    0.0000 C   0  0  0  0  0  0  0  0  0
    6.0462    2.6629    0.0000 C   0  0  0  0  0  0  0  0  0
    6.0462    3.4879    0.0000 C   0  0  0  0  0  0  0  0  0
    5.3317    3.9004    0.0000 N   0  0  0  0  0  0  0  0  0
    4.6173    3.4879    0.0000 C   0  0  0  0  0  0  0  0  0
    2.4738    1.4254    0.0000 C   0  0  0  0  0  0  0  0  0
    1.7594    1.0129    0.0000 C   0  0  0  0  0  0  0  0  0
    1.0449    1.4254    0.0000 C   0  0  0  0  0  0  0  0  0
    0.3304    1.0129    0.0000 C   0  0  0  0  0  0  0  0  0
   -0.3840    1.4254    0.0000 C   0  0  0  0  0  0  0  0  0
   -0.3840    2.2504    0.0000 C   0  0  0  0  0  0  0  0  0
    0.3304    2.6629    0.0000 C   0  0  0  0  0  0  0  0  0
    1.0449    2.2504    0.0000 C   0  0  0  0  0  0  0  0  0
  1  2  2  0  0  0  0
  2  3  1  0  0  0  0
  2 34  1  0  0  0  0
  3  4  1  0  0  0  0
  3 27  1  0  0  0  0
  4  5  1  0  0  0  0
  5  6  4  0  0  0  0
  5 10  4  0  0  0  0
  6  7  4  0  0  0  0
  7  8  4  0  0  0  0
  8  9  4  0  0  0  0
  8 11  1  0  0  0  0
  9 10  4  0  0  0  0
 11 12  4  0  0  0  0
 11 16  4  0  0  0  0
 12 13  4  0  0  0  0
 13 14  4  0  0  0  0
 14 15  4  0  0  0  0
 14 17  1  0  0  0  0
 15 16  4  0  0  0  0
 17 18  1  0  0  0  0
 18 19  1  0  0  0  0
 19 20  1  0  0  0  0
 20 21  1  0  0  0  0
 21 22  4  0  0  0  0
 21 26  4  0  0  0  0
 22 23  4  0  0  0  0
 23 24  4  0  0  0  0
 24 25  4  0  0  0  0
 25 26  4  0  0  0  0
 27 28  1  0  0  0  0
 28 29  4  0  0  0  0
 28 33  4  0  0  0  0
 29 30  4  0  0  0  0
 30 31  4  0  0  0  0
 31 32  4  0  0  0  0
 32 33  4  0  0  0  0
 34 35  2  0  0  0  0
 35 36  1  0  0  0  0
 36 37  4  0  0  0  0
 36 41  4  0  0  0  0
 37 38  4  0  0  0  0
 38 39  4  0  0  0  0
 39 40  4  0  0  0  0
 40 41  4  0  0  0  0
M  END
>  <Name_Molregno>
315433

>  <5-HT1A>
6

>  <5-HT1B>
6.2

>  <5-HT1D>
5.9

>  <5-HT1E>
5

>  <5-HT2A>
6.1

>  <5-HT2C>
6

>  <5-HT5>
7.3

>  <5-HT6>
5.7

>  <5-HT7>
5.9

>  <Alpha-1B>
6.5

>  <DOPAMINE D2>
5.9

>  <DOPAMINE D3>
5.8

>  <DOPAMINE D4>
5.8

$$$$
315545
  Marvin  02231216192D 0   1.00000     0.00000     0

 38 41  0  0  0  0  0  0  0  0999 V2000
    8.3584    0.3824    0.0000 O   0  0  0  0  0  0  0  0  0
    7.8183   -0.2412    0.0000 C   0  0  0  0  0  0  0  0  0
    7.0082   -0.0853    0.0000 N   0  0  0  0  0  0  0  0  0
    6.7381    0.6942    0.0000 C   0  0  0  0  0  0  0  0  0
    5.9280    0.8501    0.0000 C   0  0  0  0  0  0  0  0  0
    5.3879    0.2265    0.0000 C   0  0  0  0  0  0  0  0  0
    4.5778    0.3824    0.0000 C   0  0  0  0  0  0  0  0  0
    4.3077    1.1620    0.0000 C   0  0  0  0  0  0  0  0  0
    4.8478    1.7856    0.0000 C   0  0  0  0  0  0  0  0  0
    5.6579    1.6297    0.0000 C   0  0  0  0  0  0  0  0  0
    3.4976    1.3179    0.0000 C   0  0  0  0  0  0  0  0  0
    2.9575    0.6942    0.0000 C   0  0  0  0  0  0  0  0  0
    2.1474    0.8501    0.0000 C   0  0  0  0  0  0  0  0  0
    1.8773    1.6297    0.0000 C   0  0  0  0  0  0  0  0  0
    2.4174    2.2533    0.0000 C   0  0  0  0  0  0  0  0  0
    3.2275    2.0974    0.0000 C   0  0  0  0  0  0  0  0  0
    1.0672    1.7856    0.0000 C   0  0  0  0  0  0  0  0  0
    0.7971    2.5652    0.0000 N   0  0  0  0  0  0  0  0  0
   -0.0130    2.7211    0.0000 C   0  0  0  0  0  0  0  0  0
   -0.2830    3.5006    0.0000 C   0  0  0  0  0  0  0  0  0
   -1.0932    3.6565    0.0000 C   0  0  0  0  0  0  0  0  0
   -1.6333    3.0329    0.0000 C   0  0  0  0  0  0  0  0  0
   -2.4434    3.1888    0.0000 C   0  0  0  0  0  0  0  0  0
   -2.7135    3.9683    0.0000 C   0  0  0  0  0  0  0  0  0
   -2.1734    4.5920    0.0000 C   0  0  0  0  0  0  0  0  0
   -1.3632    4.4361    0.0000 C   0  0  0  0  0  0  0  0  0
    6.4681   -0.7090    0.0000 C   0  0  0  0  0  0  0  0  0
    5.6579   -0.5531    0.0000 C   0  0  0  0  0  0  0  0  0
    5.1178   -1.1767    0.0000 N   0  0  0  0  0  0  0  0  0
    5.3879   -1.9562    0.0000 C   0  0  0  0  0  0  0  0  0
    4.3077   -1.0208    0.0000 C   0  0  0  0  0  0  0  0  0
    8.0883   -1.0208    0.0000 C   0  0  0  0  0  0  0  0  0
    8.8985   -1.1767    0.0000 C   0  0  0  0  0  0  0  0  0
    9.1685   -1.9562    0.0000 C   0  0  0  0  0  0  0  0  0
    9.9579   -2.1960    0.0000 C   0  0  0  0  0  0  0  0  0
    9.9738   -3.0208    0.0000 C   0  0  0  0  0  0  0  0  0
    9.1943   -3.2909    0.0000 C   0  0  0  0  0  0  0  0  0
    8.6966   -2.6329    0.0000 C   0  0  0  0  0  0  0  0  0
  1  2  2  0  0  0  0
  2  3  1  0  0  0  0
  2 32  1  0  0  0  0
  3  4  1  0  0  0  0
  3 27  1  0  0  0  0
  4  5  1  0  0  0  0
  5  6  4  0  0  0  0
  5 10  4  0  0  0  0
  6  7  4  0  0  0  0
  7  8  4  0  0  0  0
  8  9  4  0  0  0  0
  8 11  1  0  0  0  0
  9 10  4  0  0  0  0
 11 12  4  0  0  0  0
 11 16  4  0  0  0  0
 12 13  4  0  0  0  0
 13 14  4  0  0  0  0
 14 15  4  0  0  0  0
 14 17  1  0  0  0  0
 15 16  4  0  0  0  0
 17 18  1  0  0  0  0
 18 19  1  0  0  0  0
 19 20  1  0  0  0  0
 20 21  1  0  0  0  0
 21 22  4  0  0  0  0
 21 26  4  0  0  0  0
 22 23  4  0  0  0  0
 23 24  4  0  0  0  0
 24 25  4  0  0  0  0
 25 26  4  0  0  0  0
 27 28  1  0  0  0  0
 28 29  1  0  0  0  0
 29 30  1  0  0  0  0
 29 31  1  0  0  0  0
 32 33  1  0  0  0  0
 33 34  1  0  0  0  0
 34 35  1  0  0  0  0
 34 38  1  0  0  0  0
 35 36  1  0  0  0  0
 36 37  1  0  0  0  0
 37 38  1  0  0  0  0
M  END
>  <Name_Molregno>
315545

>  <5-HT1A>
6.3

>  <5-HT1B>
6.5

>  <5-HT1D>
6.4

>  <5-HT1E>
5

>  <5-HT2A>
6.1

>  <5-HT2C>
6.4

>  <5-HT5>
8.2

>  <5-HT6>
5.4

>  <5-HT7>
5.4

>  <Alpha-1B>
6.5

>  <DOPAMINE D2>
5.9

>  <DOPAMINE D3>
6.2

>  <DOPAMINE D4>
6.1

>  <Serotonin transporter>
7.6

$$$$
321985
  Marvin  02231216192D 0   1.00000     0.00000     0

 31 35  0  0  0  0  0  0  0  0999 V2000
    4.0403    1.1934    0.0000 O   0  0  0  0  0  0  0  0  0
    3.3258    0.7809    0.0000 C   0  0  0  0  0  0  0  0  0
    3.3258   -0.0441    0.0000 C   0  0  0  0  0  0  0  0  0
    2.6114   -0.4566    0.0000 N   0  0  0  0  0  0  0  0  0
    2.6114   -1.2816    0.0000 C   0  0  0  0  0  0  0  0  0
    1.8969   -1.6941    0.0000 C   0  0  0  0  0  0  0  0  0
    1.1824   -1.2816    0.0000 N   0  0  0  0  0  0  0  0  0
    1.1824   -0.4566    0.0000 C   0  0  0  0  0  0  0  0  0
    1.8969   -0.0441    0.0000 C   0  0  0  0  0  0  0  0  0
    0.4679   -1.6941    0.0000 C   0  0  0  0  0  0  0  0  0
   -0.2465   -1.2816    0.0000 C   0  0  0  0  0  0  0  0  0
   -0.9610   -1.6941    0.0000 C   0  0  0  0  0  0  0  0  0
   -0.9610   -2.5191    0.0000 N   0  0  0  0  0  0  0  0  0
   -1.6755   -2.9316    0.0000 C   0  0  0  0  0  0  0  0  0
   -2.3899   -2.5191    0.0000 C   0  0  0  0  0  0  0  0  0
   -2.3899   -1.6941    0.0000 C   0  0  0  0  0  0  0  0  0
   -1.6755   -1.2816    0.0000 C   0  0  0  0  0  0  0  0  0
   -1.6755   -0.4566    0.0000 C   0  0  0  0  0  0  0  0  0
   -0.9610   -0.0441    0.0000 C   0  0  0  0  0  0  0  0  0
   -0.2465   -0.4566    0.0000 C   0  0  0  0  0  0  0  0  0
    4.0403    2.0184    0.0000 C   0  0  0  0  0  0  0  0  0
    4.7548    2.4309    0.0000 C   0  0  0  0  0  0  0  0  0
    4.7548    3.2559    0.0000 C   0  0  0  0  0  0  0  0  0
    5.4692    3.6684    0.0000 N   0  0  0  0  0  0  0  0  0
    6.1837    3.2559    0.0000 C   0  0  0  0  0  0  0  0  0
    6.1837    2.4309    0.0000 C   0  0  0  0  0  0  0  0  0
    5.4692    2.0184    0.0000 C   0  0  0  0  0  0  0  0  0
    6.8982    3.6684    0.0000 C   0  0  0  0  0  0  0  0  0
    4.0403    3.6684    0.0000 C   0  0  0  0  0  0  0  0  0
    3.3258    3.2559    0.0000 C   0  0  0  0  0  0  0  0  0
    3.3258    2.4309    0.0000 C   0  0  0  0  0  0  0  0  0
  1  2  1  0  0  0  0
  1 21  1  0  0  0  0
  2  3  1  0  0  0  0
  3  4  1  0  0  0  0
  4  5  1  0  0  0  0
  4  9  1  0  0  0  0
  5  6  1  0  0  0  0
  6  7  1  0  0  0  0
  7  8  1  0  0  0  0
  7 10  1  0  0  0  0
  8  9  1  0  0  0  0
 10 11  1  0  0  0  0
 11 12  4  0  0  0  0
 11 20  4  0  0  0  0
 12 13  4  0  0  0  0
 12 17  4  0  0  0  0
 13 14  4  0  0  0  0
 14 15  4  0  0  0  0
 15 16  4  0  0  0  0
 16 17  4  0  0  0  0
 17 18  4  0  0  0  0
 18 19  4  0  0  0  0
 19 20  4  0  0  0  0
 21 22  4  0  0  0  0
 21 31  4  0  0  0  0
 22 23  4  0  0  0  0
 22 27  4  0  0  0  0
 23 24  4  0  0  0  0
 23 29  4  0  0  0  0
 24 25  4  0  0  0  0
 25 26  4  0  0  0  0
 25 28  1  0  0  0  0
 26 27  4  0  0  0  0
 29 30  4  0  0  0  0
 30 31  4  0  0  0  0
M  END
>  <Name_Molregno>
321985

>  <5-HT1A>
6.5

>  <5-HT1B>
6.7

>  <5-HT1D>
9.1

>  <5-HT1E>
5

>  <5-HT2A>
5.6

>  <5-HT2C>
5.5

>  <5-HT5>
5.5

>  <5-HT6>
5

>  <5-HT7>
6.3

>  <Alpha-1B>
6

>  <Beta-2>
5.7

>  <DOPAMINE D2>
5.5

>  <DOPAMINE D3>
6

>  <DOPAMINE D4>
5

$$$$
323877
  Marvin  02231216192D 0   1.00000     0.00000     0

 23 26  0  0  1  0  0  0  0  0999 V2000
   -0.7165   -2.4653    0.0000 F   0  0  0  0  0  0  0  0  0
    0.0718   -2.7084    0.0000 C   0  0  0  0  0  0  0  0  0
    0.6766   -2.1473    0.0000 C   0  0  0  0  0  0  0  0  0
    1.4649   -2.3905    0.0000 C   0  0  0  0  0  0  0  0  0
    1.9793   -1.7455    0.0000 C   0  0  0  0  0  0  0  0  0
    1.7244   -0.9608    0.0000 O   0  0  0  0  0  0  0  0  0
    2.3918   -0.4759    0.0000 C   0  0  0  0  0  0  0  0  0
    3.0593   -0.9608    0.0000 C   0  0  0  0  0  0  0  0  0
    2.8043   -1.7455    0.0000 C   0  0  0  0  0  0  0  0  0
    3.3187   -2.3905    0.0000 C   0  0  0  0  0  0  0  0  0
    3.1351   -3.1948    0.0000 C   0  0  0  0  0  0  0  0  0
    2.3918   -3.5527    0.0000 O   0  0  0  0  0  0  0  0  0
    1.6485   -3.1948    0.0000 C   0  0  0  0  0  0  0  0  0
    1.0437   -3.7559    0.0000 C   0  0  0  0  0  0  0  0  0
    0.2554   -3.5128    0.0000 C   0  0  0  0  0  0  0  0  0
    3.7399   -3.7559    0.0000 C   0  0  0  0  0  0  0  0  0
    4.5282   -3.5128    0.0000 C   0  0  0  0  0  0  0  0  0
    4.7118   -2.7084    0.0000 C   0  0  0  0  0  0  0  0  0
    4.1070   -2.1473    0.0000 C   0  0  0  0  0  0  0  0  0
    2.3918    0.3491    0.0000 C   0  0  0  0  0  0  0  0  0
    3.1063    0.7616    0.0000 N   0  0  0  0  0  0  0  0  0
    3.1063    1.5866    0.0000 C   0  0  0  0  0  0  0  0  0
    3.8208    0.3491    0.0000 C   0  0  0  0  0  0  0  0  0
  1  2  1  0  0  0  0
  2  3  4  0  0  0  0
  2 15  4  0  0  0  0
  3  4  4  0  0  0  0
  4  5  1  0  0  0  0
  4 13  4  0  0  0  0
  5  6  1  0  0  0  0
  5  9  1  0  0  0  0
  6  7  1  0  0  0  0
  7  8  1  0  0  0  0
  7 20  1  0  0  0  0
  8  9  1  0  0  0  0
  9 10  1  0  0  0  0
 10 11  4  0  0  0  0
 10 19  4  0  0  0  0
 11 12  1  0  0  0  0
 11 16  4  0  0  0  0
 12 13  1  0  0  0  0
 13 14  4  0  0  0  0
 14 15  4  0  0  0  0
 16 17  4  0  0  0  0
 17 18  4  0  0  0  0
 18 19  4  0  0  0  0
 20 21  1  0  0  0  0
 21 22  1  0  0  0  0
 21 23  1  0  0  0  0
M  END
>  <Name_Molregno>
323877

>  <5-HT2A>
5.97

>  <5-HT2C>
7.77

>  <5-HT7>
7.17

>  <Alpha-2A>
6.59

>  <Alpha-2C>
6.68

>  <DOPAMINE D2>
7.1

>  <DOPAMINE D3>
7.02

>  <HISTAMINE H1>
7.8

$$$$
323878
  Marvin  02231216192D 0   1.00000     0.00000     0

 23 26  0  0  1  0  0  0  0  0999 V2000
   -0.7165   -2.4653    0.0000 Cl  0  0  0  0  0  0  0  0  0
    0.0718   -2.7084    0.0000 C   0  0  0  0  0  0  0  0  0
    0.6766   -2.1473    0.0000 C   0  0  0  0  0  0  0  0  0
    1.4649   -2.3905    0.0000 C   0  0  0  0  0  0  0  0  0
    1.9793   -1.7455    0.0000 C   0  0  0  0  0  0  0  0  0
    1.7244   -0.9608    0.0000 O   0  0  0  0  0  0  0  0  0
    2.3918   -0.4759    0.0000 C   0  0  0  0  0  0  0  0  0
    3.0593   -0.9608    0.0000 C   0  0  0  0  0  0  0  0  0
    2.8043   -1.7455    0.0000 C   0  0  0  0  0  0  0  0  0
    3.3187   -2.3905    0.0000 C   0  0  0  0  0  0  0  0  0
    3.1351   -3.1948    0.0000 C   0  0  0  0  0  0  0  0  0
    2.3918   -3.5527    0.0000 O   0  0  0  0  0  0  0  0  0
    1.6485   -3.1948    0.0000 C   0  0  0  0  0  0  0  0  0
    1.0437   -3.7559    0.0000 C   0  0  0  0  0  0  0  0  0
    0.2554   -3.5128    0.0000 C   0  0  0  0  0  0  0  0  0
    3.7399   -3.7559    0.0000 C   0  0  0  0  0  0  0  0  0
    4.5282   -3.5128    0.0000 C   0  0  0  0  0  0  0  0  0
    4.7118   -2.7084    0.0000 C   0  0  0  0  0  0  0  0  0
    4.1070   -2.1473    0.0000 C   0  0  0  0  0  0  0  0  0
    2.3918    0.3491    0.0000 C   0  0  0  0  0  0  0  0  0
    3.1063    0.7616    0.0000 N   0  0  0  0  0  0  0  0  0
    3.1063    1.5866    0.0000 C   0  0  0  0  0  0  0  0  0
    3.8208    0.3491    0.0000 C   0  0  0  0  0  0  0  0  0
  1  2  1  0  0  0  0
  2  3  4  0  0  0  0
  2 15  4  0  0  0  0
  3  4  4  0  0  0  0
  4  5  1  0  0  0  0
  4 13  4  0  0  0  0
  5  6  1  0  0  0  0
  5  9  1  0  0  0  0
  6  7  1  0  0  0  0
  7  8  1  0  0  0  0
  7 20  1  0  0  0  0
  8  9  1  0  0  0  0
  9 10  1  0  0  0  0
 10 11  4  0  0  0  0
 10 19  4  0  0  0  0
 11 12  1  0  0  0  0
 11 16  4  0  0  0  0
 12 13  1  0  0  0  0
 13 14  4  0  0  0  0
 14 15  4  0  0  0  0
 16 17  4  0  0  0  0
 17 18  4  0  0  0  0
 18 19  4  0  0  0  0
 20 21  1  0  0  0  0
 21 22  1  0  0  0  0
 21 23  1  0  0  0  0
M  END
>  <Name_Molregno>
323878

>  <5-HT2A>
8.04

>  <5-HT2C>
8.16

>  <5-HT7>
6.82

>  <Alpha-2A>
7.26

>  <Alpha-2C>
6.88

>  <DOPAMINE D1>
6.84

>  <DOPAMINE D2>
7.7

>  <DOPAMINE D3>
6.97

>  <HISTAMINE H1>
8.11

$$$$
323985
  Marvin  02231216192D 0   1.00000     0.00000     0

 23 26  0  0  1  0  0  0  0  0999 V2000
   -0.7165   -2.4653    0.0000 Br  0  0  0  0  0  0  0  0  0
    0.0718   -2.7084    0.0000 C   0  0  0  0  0  0  0  0  0
    0.6766   -2.1473    0.0000 C   0  0  0  0  0  0  0  0  0
    1.4649   -2.3905    0.0000 C   0  0  0  0  0  0  0  0  0
    1.9793   -1.7455    0.0000 C   0  0  0  0  0  0  0  0  0
    1.7244   -0.9608    0.0000 O   0  0  0  0  0  0  0  0  0
    2.3918   -0.4759    0.0000 C   0  0  0  0  0  0  0  0  0
    3.0593   -0.9608    0.0000 C   0  0  0  0  0  0  0  0  0
    2.8043   -1.7455    0.0000 C   0  0  0  0  0  0  0  0  0
    3.3187   -2.3905    0.0000 C   0  0  0  0  0  0  0  0  0
    3.1351   -3.1948    0.0000 C   0  0  0  0  0  0  0  0  0
    2.3918   -3.5527    0.0000 O   0  0  0  0  0  0  0  0  0
    1.6485   -3.1948    0.0000 C   0  0  0  0  0  0  0  0  0
    1.0437   -3.7559    0.0000 C   0  0  0  0  0  0  0  0  0
    0.2554   -3.5128    0.0000 C   0  0  0  0  0  0  0  0  0
    3.7399   -3.7559    0.0000 C   0  0  0  0  0  0  0  0  0
    4.5282   -3.5128    0.0000 C   0  0  0  0  0  0  0  0  0
    4.7118   -2.7084    0.0000 C   0  0  0  0  0  0  0  0  0
    4.1070   -2.1473    0.0000 C   0  0  0  0  0  0  0  0  0
    2.3918    0.3491    0.0000 C   0  0  0  0  0  0  0  0  0
    3.1063    0.7616    0.0000 N   0  0  0  0  0  0  0  0  0
    3.1063    1.5866    0.0000 C   0  0  0  0  0  0  0  0  0
    3.8208    0.3491    0.0000 C   0  0  0  0  0  0  0  0  0
  1  2  1  0  0  0  0
  2  3  4  0  0  0  0
  2 15  4  0  0  0  0
  3  4  4  0  0  0  0
  4  5  1  0  0  0  0
  4 13  4  0  0  0  0
  5  6  1  0  0  0  0
  5  9  1  0  0  0  0
  6  7  1  0  0  0  0
  7  8  1  0  0  0  0
  7 20  1  0  0  0  0
  8  9  1  0  0  0  0
  9 10  1  0  0  0  0
 10 11  4  0  0  0  0
 10 19  4  0  0  0  0
 11 12  1  0  0  0  0
 11 16  4  0  0  0  0
 12 13  1  0  0  0  0
 13 14  4  0  0  0  0
 14 15  4  0  0  0  0
 16 17  4  0  0  0  0
 17 18  4  0  0  0  0
 18 19  4  0  0  0  0
 20 21  1  0  0  0  0
 21 22  1  0  0  0  0
 21 23  1  0  0  0  0
M  END
>  <Name_Molregno>
323985

>  <5-HT2A>
7.74

>  <5-HT2C>
7.78

>  <5-HT7>
7.46

>  <Alpha-2A>
6.39

>  <Alpha-2C>
6.13

>  <DOPAMINE D1>
6.81

>  <DOPAMINE D2>
6.8

>  <DOPAMINE D3>
7.02

>  <HISTAMINE H1>
7.38

$$$$
323986
  Marvin  02231216192D 0   1.00000     0.00000     0

 23 26  0  0  1  0  0  0  0  0999 V2000
    1.2300    2.6153    0.0000 S   0  0  0  0  0  0  0  0  0
    1.9733    2.2574    0.0000 C   0  0  0  0  0  0  0  0  0
    2.1569    1.4530    0.0000 C   0  0  0  0  0  0  0  0  0
    2.9453    1.2099    0.0000 C   0  0  0  0  0  0  0  0  0
    3.5500    1.7710    0.0000 C   0  0  0  0  0  0  0  0  0
    4.3384    1.5278    0.0000 F   0  0  0  0  0  0  0  0  0
    3.3664    2.5753    0.0000 C   0  0  0  0  0  0  0  0  0
    2.5781    2.8185    0.0000 C   0  0  0  0  0  0  0  0  0
    1.6425    0.8080    0.0000 C   0  0  0  0  0  0  0  0  0
    1.8975    0.0234    0.0000 O   0  0  0  0  0  0  0  0  0
    1.2300   -0.4615    0.0000 C   0  0  0  0  0  0  0  0  0
    0.5626    0.0234    0.0000 C   0  0  0  0  0  0  0  0  0
    0.8175    0.8080    0.0000 C   0  0  0  0  0  0  0  0  0
    0.3032    1.4530    0.0000 C   0  0  0  0  0  0  0  0  0
    0.4867    2.2574    0.0000 C   0  0  0  0  0  0  0  0  0
   -0.1180    2.8185    0.0000 C   0  0  0  0  0  0  0  0  0
   -0.9064    2.5753    0.0000 C   0  0  0  0  0  0  0  0  0
   -1.0900    1.7710    0.0000 C   0  0  0  0  0  0  0  0  0
   -0.4852    1.2099    0.0000 C   0  0  0  0  0  0  0  0  0
    1.2300   -1.2865    0.0000 C   0  0  0  0  0  0  0  0  0
    0.5156   -1.6990    0.0000 N   0  0  0  0  0  0  0  0  0
    0.5156   -2.5240    0.0000 C   0  0  0  0  0  0  0  0  0
   -0.1989   -1.2865    0.0000 C   0  0  0  0  0  0  0  0  0
  1  2  1  0  0  0  0
  1 15  1  0  0  0  0
  2  3  4  0  0  0  0
  2  8  4  0  0  0  0
  3  4  4  0  0  0  0
  3  9  1  0  0  0  0
  4  5  4  0  0  0  0
  5  6  1  0  0  0  0
  5  7  4  0  0  0  0
  7  8  4  0  0  0  0
  9 10  1  0  0  0  0
  9 13  1  0  0  0  0
 10 11  1  0  0  0  0
 11 12  1  0  0  0  0
 11 20  1  0  0  0  0
 12 13  1  0  0  0  0
 13 14  1  0  0  0  0
 14 15  4  0  0  0  0
 14 19  4  0  0  0  0
 15 16  4  0  0  0  0
 16 17  4  0  0  0  0
 17 18  4  0  0  0  0
 18 19  4  0  0  0  0
 20 21  1  0  0  0  0
 21 22  1  0  0  0  0
 21 23  1  0  0  0  0
M  END
>  <Name_Molregno>
323986

>  <5-HT2A>
8.89

>  <5-HT2C>
9.27

>  <5-HT7>
8.01

>  <Alpha-2A>
7.06

>  <Alpha-2C>
7.13

>  <DOPAMINE D1>
8.04

>  <DOPAMINE D2>
8.31

>  <DOPAMINE D3>
8.14

>  <HISTAMINE H1>
9.07

$$$$
324778
  Marvin  02231216192D 0   1.00000     0.00000     0

 22 25  0  0  1  0  0  0  0  0999 V2000
    0.2576    0.9399    0.0000 O   0  0  0  0  0  0  0  0  0
    0.5126    0.1553    0.0000 C   0  0  0  0  0  0  0  0  0
    1.3376    0.1553    0.0000 C   0  0  0  0  0  0  0  0  0
    1.5925    0.9399    0.0000 C   0  0  0  0  0  0  0  0  0
    0.9251    1.4248    0.0000 C   0  0  0  0  0  0  0  0  0
    0.9251    2.2498    0.0000 C   0  0  0  0  0  0  0  0  0
    1.6395    2.6623    0.0000 N   0  0  0  0  0  0  0  0  0
    1.6395    3.4873    0.0000 C   0  0  0  0  0  0  0  0  0
    2.3540    2.2498    0.0000 C   0  0  0  0  0  0  0  0  0
    1.8519   -0.4897    0.0000 C   0  0  0  0  0  0  0  0  0
    1.6684   -1.2940    0.0000 C   0  0  0  0  0  0  0  0  0
    0.9251   -1.6520    0.0000 C   0  0  0  0  0  0  0  0  0
    0.1818   -1.2940    0.0000 C   0  0  0  0  0  0  0  0  0
   -0.0018   -0.4897    0.0000 C   0  0  0  0  0  0  0  0  0
   -0.7902   -0.2466    0.0000 C   0  0  0  0  0  0  0  0  0
   -1.3949   -0.8077    0.0000 C   0  0  0  0  0  0  0  0  0
   -1.2114   -1.6120    0.0000 C   0  0  0  0  0  0  0  0  0
   -0.4230   -1.8552    0.0000 C   0  0  0  0  0  0  0  0  0
    2.2731   -1.8552    0.0000 C   0  0  0  0  0  0  0  0  0
    3.0615   -1.6120    0.0000 C   0  0  0  0  0  0  0  0  0
    3.2451   -0.8077    0.0000 C   0  0  0  0  0  0  0  0  0
    2.6403   -0.2466    0.0000 C   0  0  0  0  0  0  0  0  0
  1  2  1  0  0  0  0
  1  5  1  0  0  0  0
  2  3  1  0  0  0  0
  2 14  1  0  0  0  0
  3  4  1  0  0  0  0
  3 10  1  0  0  0  0
  4  5  1  0  0  0  0
  5  6  1  0  0  0  0
  6  7  1  0  0  0  0
  7  8  1  0  0  0  0
  7  9  1  0  0  0  0
 10 11  4  0  0  0  0
 10 22  4  0  0  0  0
 11 12  1  0  0  0  0
 11 19  4  0  0  0  0
 12 13  1  0  0  0  0
 13 14  4  0  0  0  0
 13 18  4  0  0  0  0
 14 15  4  0  0  0  0
 15 16  4  0  0  0  0
 16 17  4  0  0  0  0
 17 18  4  0  0  0  0
 19 20  4  0  0  0  0
 20 21  4  0  0  0  0
 21 22  4  0  0  0  0
M  END
>  <Name_Molregno>
324778

>  <5-HT2A>
8.6

>  <5-HT2C>
9.03

>  <5-HT7>
7.89

>  <Alpha-2A>
6.9

>  <Alpha-2C>
7.16

>  <DOPAMINE D1>
7.2

>  <DOPAMINE D2>
7.21

>  <DOPAMINE D3>
7.08

>  <HISTAMINE H1>
9.37

$$$$
327069
  Marvin  02231216192D 0   1.00000     0.00000     0

 31 34  0  0  0  0  0  0  0  0999 V2000
    4.9165    5.1026    0.0000 Cl  0  0  0  0  0  0  0  0  0
    4.9165    4.2776    0.0000 C   0  0  0  0  0  0  0  0  0
    5.6310    3.8651    0.0000 C   0  0  0  0  0  0  0  0  0
    5.6310    3.0401    0.0000 C   0  0  0  0  0  0  0  0  0
    4.9165    2.6276    0.0000 C   0  0  0  0  0  0  0  0  0
    4.9165    1.8026    0.0000 N   0  0  0  0  0  0  0  0  0
    5.6310    1.3901    0.0000 C   0  0  0  0  0  0  0  0  0
    5.6310    0.5651    0.0000 C   0  0  0  0  0  0  0  0  0
    4.9165    0.1526    0.0000 N   0  0  0  0  0  0  0  0  0
    4.2021    0.5651    0.0000 C   0  0  0  0  0  0  0  0  0
    4.2021    1.3901    0.0000 C   0  0  0  0  0  0  0  0  0
    4.9165   -0.6724    0.0000 C   0  0  0  0  0  0  0  0  0
    4.2021   -1.0849    0.0000 O   0  0  0  0  0  0  0  0  0
    5.6310   -1.0849    0.0000 N   0  0  0  0  0  0  0  0  0
    5.6310   -1.9099    0.0000 C   0  0  0  0  0  0  0  0  0
    6.3455   -2.3224    0.0000 C   0  0  0  0  0  0  0  0  0
    6.3455   -3.1474    0.0000 C   0  0  0  0  0  0  0  0  0
    7.0599   -3.5599    0.0000 N   0  0  0  0  0  0  0  0  0
    7.7744   -3.1474    0.0000 C   0  0  0  0  0  0  0  0  0
    8.4889   -3.5599    0.0000 C   0  0  0  0  0  0  0  0  0
    8.4889   -4.3849    0.0000 N   0  0  0  0  0  0  0  0  0
    7.7744   -4.7974    0.0000 C   0  0  0  0  0  0  0  0  0
    7.0599   -4.3849    0.0000 C   0  0  0  0  0  0  0  0  0
    9.2034   -4.7974    0.0000 C   0  0  0  0  0  0  0  0  0
    5.6310   -3.5599    0.0000 C   0  0  0  0  0  0  0  0  0
    5.6310   -4.3849    0.0000 O   0  0  0  0  0  0  0  0  0
    4.9165   -4.7974    0.0000 C   0  0  0  0  0  0  0  0  0
    4.9165   -3.1474    0.0000 C   0  0  0  0  0  0  0  0  0
    4.9165   -2.3224    0.0000 C   0  0  0  0  0  0  0  0  0
    4.2021    3.0401    0.0000 C   0  0  0  0  0  0  0  0  0
    4.2021    3.8651    0.0000 C   0  0  0  0  0  0  0  0  0
  1  2  1  0  0  0  0
  2  3  4  0  0  0  0
  2 31  4  0  0  0  0
  3  4  4  0  0  0  0
  4  5  4  0  0  0  0
  5  6  1  0  0  0  0
  5 30  4  0  0  0  0
  6  7  1  0  0  0  0
  6 11  1  0  0  0  0
  7  8  1  0  0  0  0
  8  9  1  0  0  0  0
  9 10  1  0  0  0  0
  9 12  1  0  0  0  0
 10 11  1  0  0  0  0
 12 13  2  0  0  0  0
 12 14  1  0  0  0  0
 14 15  1  0  0  0  0
 15 16  4  0  0  0  0
 15 29  4  0  0  0  0
 16 17  4  0  0  0  0
 17 18  1  0  0  0  0
 17 25  4  0  0  0  0
 18 19  1  0  0  0  0
 18 23  1  0  0  0  0
 19 20  1  0  0  0  0
 20 21  1  0  0  0  0
 21 22  1  0  0  0  0
 21 24  1  0  0  0  0
 22 23  1  0  0  0  0
 25 26  1  0  0  0  0
 25 28  4  0  0  0  0
 26 27  1  0  0  0  0
 28 29  4  0  0  0  0
 30 31  4  0  0  0  0
M  END
>  <Name_Molregno>
327069

>  <5-HT1A>
7.28

>  <5-HT1B>
8.74

>  <5-HT1D>
8.19

>  <5-HT2A>
6

>  <5-HT2C>
6.57

>  <5-HT6>
5.29

>  <5-HT7>
5

>  <DOPAMINE D1>
5

>  <DOPAMINE D2>
5

>  <DOPAMINE D3>
5

>  <DOPAMINE D4>
5

>  <DOPAMINE D5>
5

>  <HISTAMINE H1>
5

>  <Muscarinic acetylcholine receptor M1>
5

>  <Muscarinic acetylcholine receptor M2>
5

>  <Muscarinic acetylcholine receptor M3>
5

>  <Muscarinic acetylcholine receptor M4>
5

>  <Muscarinic acetylcholine receptor M5>
5

$$$$
327077
  Marvin  02231216192D 0   1.00000     0.00000     0

 31 34  0  0  0  0  0  0  0  0999 V2000
    4.9165    5.1026    0.0000 F   0  0  0  0  0  0  0  0  0
    4.9165    4.2776    0.0000 C   0  0  0  0  0  0  0  0  0
    5.6310    3.8651    0.0000 C   0  0  0  0  0  0  0  0  0
    5.6310    3.0401    0.0000 C   0  0  0  0  0  0  0  0  0
    4.9165    2.6276    0.0000 C   0  0  0  0  0  0  0  0  0
    4.9165    1.8026    0.0000 N   0  0  0  0  0  0  0  0  0
    5.6310    1.3901    0.0000 C   0  0  0  0  0  0  0  0  0
    5.6310    0.5651    0.0000 C   0  0  0  0  0  0  0  0  0
    4.9165    0.1526    0.0000 N   0  0  0  0  0  0  0  0  0
    4.2021    0.5651    0.0000 C   0  0  0  0  0  0  0  0  0
    4.2021    1.3901    0.0000 C   0  0  0  0  0  0  0  0  0
    4.9165   -0.6724    0.0000 C   0  0  0  0  0  0  0  0  0
    4.2021   -1.0849    0.0000 O   0  0  0  0  0  0  0  0  0
    5.6310   -1.0849    0.0000 N   0  0  0  0  0  0  0  0  0
    5.6310   -1.9099    0.0000 C   0  0  0  0  0  0  0  0  0
    6.3455   -2.3224    0.0000 C   0  0  0  0  0  0  0  0  0
    6.3455   -3.1474    0.0000 C   0  0  0  0  0  0  0  0  0
    7.0599   -3.5599    0.0000 N   0  0  0  0  0  0  0  0  0
    7.7744   -3.1474    0.0000 C   0  0  0  0  0  0  0  0  0
    8.4889   -3.5599    0.0000 C   0  0  0  0  0  0  0  0  0
    8.4889   -4.3849    0.0000 N   0  0  0  0  0  0  0  0  0
    7.7744   -4.7974    0.0000 C   0  0  0  0  0  0  0  0  0
    7.0599   -4.3849    0.0000 C   0  0  0  0  0  0  0  0  0
    9.2034   -4.7974    0.0000 C   0  0  0  0  0  0  0  0  0
    5.6310   -3.5599    0.0000 C   0  0  0  0  0  0  0  0  0
    5.6310   -4.3849    0.0000 O   0  0  0  0  0  0  0  0  0
    4.9165   -4.7974    0.0000 C   0  0  0  0  0  0  0  0  0
    4.9165   -3.1474    0.0000 C   0  0  0  0  0  0  0  0  0
    4.9165   -2.3224    0.0000 C   0  0  0  0  0  0  0  0  0
    4.2021    3.0401    0.0000 C   0  0  0  0  0  0  0  0  0
    4.2021    3.8651    0.0000 C   0  0  0  0  0  0  0  0  0
  1  2  1  0  0  0  0
  2  3  4  0  0  0  0
  2 31  4  0  0  0  0
  3  4  4  0  0  0  0
  4  5  4  0  0  0  0
  5  6  1  0  0  0  0
  5 30  4  0  0  0  0
  6  7  1  0  0  0  0
  6 11  1  0  0  0  0
  7  8  1  0  0  0  0
  8  9  1  0  0  0  0
  9 10  1  0  0  0  0
  9 12  1  0  0  0  0
 10 11  1  0  0  0  0
 12 13  2  0  0  0  0
 12 14  1  0  0  0  0
 14 15  1  0  0  0  0
 15 16  4  0  0  0  0
 15 29  4  0  0  0  0
 16 17  4  0  0  0  0
 17 18  1  0  0  0  0
 17 25  4  0  0  0  0
 18 19  1  0  0  0  0
 18 23  1  0  0  0  0
 19 20  1  0  0  0  0
 20 21  1  0  0  0  0
 21 22  1  0  0  0  0
 21 24  1  0  0  0  0
 22 23  1  0  0  0  0
 25 26  1  0  0  0  0
 25 28  4  0  0  0  0
 26 27  1  0  0  0  0
 28 29  4  0  0  0  0
 30 31  4  0  0  0  0
M  END
>  <Name_Molregno>
327077

>  <5-HT1A>
5.97

>  <5-HT1B>
7.42

>  <5-HT1D>
6.77

>  <5-HT2A>
5.35

>  <5-HT2C>
5

>  <5-HT6>
5

>  <5-HT7>
5

>  <DOPAMINE D1>
5

>  <DOPAMINE D2>
5

>  <DOPAMINE D3>
5

>  <DOPAMINE D4>
5

>  <DOPAMINE D5>
5

>  <HISTAMINE H1>
5

>  <Muscarinic acetylcholine receptor M1>
5

>  <Muscarinic acetylcholine receptor M2>
5

>  <Muscarinic acetylcholine receptor M3>
5

>  <Muscarinic acetylcholine receptor M4>
5

>  <Muscarinic acetylcholine receptor M5>
5

$$$$
327082
  Marvin  02231216192D 0   1.00000     0.00000     0

 36 40  0  0  0  0  0  0  0  0999 V2000
   -4.3490    4.5404    0.0000 O   0  0  0  0  0  0  0  0  0
   -5.0635    4.9529    0.0000 C   0  0  0  0  0  0  0  0  0
   -4.3490    3.7154    0.0000 C   0  0  0  0  0  0  0  0  0
   -3.6345    3.3029    0.0000 C   0  0  0  0  0  0  0  0  0
   -3.6345    2.4779    0.0000 C   0  0  0  0  0  0  0  0  0
   -4.3490    2.0654    0.0000 C   0  0  0  0  0  0  0  0  0
   -4.3490    1.2404    0.0000 N   0  0  0  0  0  0  0  0  0
   -3.6345    0.8279    0.0000 C   0  0  0  0  0  0  0  0  0
   -2.9201    1.2404    0.0000 O   0  0  0  0  0  0  0  0  0
   -3.6345    0.0029    0.0000 N   0  0  0  0  0  0  0  0  0
   -2.9201   -0.4096    0.0000 C   0  0  0  0  0  0  0  0  0
   -2.9201   -1.2346    0.0000 C   0  0  0  0  0  0  0  0  0
   -3.6345   -1.6471    0.0000 N   0  0  0  0  0  0  0  0  0
   -4.3490   -1.2346    0.0000 C   0  0  0  0  0  0  0  0  0
   -4.3490   -0.4096    0.0000 C   0  0  0  0  0  0  0  0  0
   -3.6345   -2.4721    0.0000 C   0  0  0  0  0  0  0  0  0
   -2.9201   -2.8846    0.0000 C   0  0  0  0  0  0  0  0  0
   -2.9201   -3.7096    0.0000 C   0  0  0  0  0  0  0  0  0
   -3.6345   -4.1221    0.0000 C   0  0  0  0  0  0  0  0  0
   -4.3490   -3.7096    0.0000 C   0  0  0  0  0  0  0  0  0
   -4.3490   -2.8846    0.0000 C   0  0  0  0  0  0  0  0  0
   -3.6345   -4.9471    0.0000 C   0  0  0  0  0  0  0  0  0
   -2.9201   -5.3596    0.0000 C   0  0  0  0  0  0  0  0  0
   -2.9201   -6.1846    0.0000 C   0  0  0  0  0  0  0  0  0
   -3.6345   -6.5971    0.0000 C   0  0  0  0  0  0  0  0  0
   -4.3490   -6.1846    0.0000 C   0  0  0  0  0  0  0  0  0
   -4.3490   -5.3596    0.0000 C   0  0  0  0  0  0  0  0  0
   -5.0635    2.4779    0.0000 C   0  0  0  0  0  0  0  0  0
   -5.0635    3.3029    0.0000 C   0  0  0  0  0  0  0  0  0
   -5.7779    3.7154    0.0000 N   0  0  0  0  0  0  0  0  0
   -6.4924    3.3029    0.0000 C   0  0  0  0  0  0  0  0  0
   -7.2069    3.7154    0.0000 C   0  0  0  0  0  0  0  0  0
   -7.2069    4.5404    0.0000 N   0  0  0  0  0  0  0  0  0
   -6.4924    4.9529    0.0000 C   0  0  0  0  0  0  0  0  0
   -5.7779    4.5404    0.0000 C   0  0  0  0  0  0  0  0  0
   -7.9214    4.9529    0.0000 C   0  0  0  0  0  0  0  0  0
  1  2  1  0  0  0  0
  1  3  1  0  0  0  0
  3  4  4  0  0  0  0
  3 29  4  0  0  0  0
  4  5  4  0  0  0  0
  5  6  4  0  0  0  0
  6  7  1  0  0  0  0
  6 28  4  0  0  0  0
  7  8  1  0  0  0  0
  8  9  2  0  0  0  0
  8 10  1  0  0  0  0
 10 11  1  0  0  0  0
 10 15  1  0  0  0  0
 11 12  1  0  0  0  0
 12 13  1  0  0  0  0
 13 14  1  0  0  0  0
 13 16  1  0  0  0  0
 14 15  1  0  0  0  0
 16 17  4  0  0  0  0
 16 21  4  0  0  0  0
 17 18  4  0  0  0  0
 18 19  4  0  0  0  0
 19 20  4  0  0  0  0
 19 22  1  0  0  0  0
 20 21  4  0  0  0  0
 22 23  4  0  0  0  0
 22 27  4  0  0  0  0
 23 24  4  0  0  0  0
 24 25  4  0  0  0  0
 25 26  4  0  0  0  0
 26 27  4  0  0  0  0
 28 29  4  0  0  0  0
 29 30  1  0  0  0  0
 30 31  1  0  0  0  0
 30 35  1  0  0  0  0
 31 32  1  0  0  0  0
 32 33  1  0  0  0  0
 33 34  1  0  0  0  0
 33 36  1  0  0  0  0
 34 35  1  0  0  0  0
M  END
>  <Name_Molregno>
327082

>  <5-HT1A>
6.39

>  <5-HT1B>
7.86

>  <5-HT1D>
6.68

>  <5-HT2A>
6.77

>  <5-HT2C>
8.19

>  <5-HT6>
5.84

>  <5-HT7>
5

>  <DOPAMINE D1>
5

>  <DOPAMINE D2>
5

>  <DOPAMINE D3>
5

>  <DOPAMINE D4>
5

>  <DOPAMINE D5>
5

>  <HISTAMINE H1>
5

>  <Muscarinic acetylcholine receptor M1>
5

>  <Muscarinic acetylcholine receptor M2>
5

>  <Muscarinic acetylcholine receptor M3>
5

>  <Muscarinic acetylcholine receptor M4>
5

>  <Muscarinic acetylcholine receptor M5>
5

$$$$
327083
  Marvin  02231216192D 0   1.00000     0.00000     0

 34 37  0  0  0  0  0  0  0  0999 V2000
    5.2566    5.4075    0.0000 F   0  0  0  0  0  0  0  0  0
    5.2566    4.5825    0.0000 C   0  0  0  0  0  0  0  0  0
    4.4316    4.5825    0.0000 F   0  0  0  0  0  0  0  0  0
    6.0816    4.5825    0.0000 F   0  0  0  0  0  0  0  0  0
    5.2566    3.7575    0.0000 C   0  0  0  0  0  0  0  0  0
    5.9711    3.3450    0.0000 C   0  0  0  0  0  0  0  0  0
    5.9711    2.5200    0.0000 C   0  0  0  0  0  0  0  0  0
    5.2566    2.1075    0.0000 C   0  0  0  0  0  0  0  0  0
    5.2566    1.2825    0.0000 N   0  0  0  0  0  0  0  0  0
    5.9711    0.8700    0.0000 C   0  0  0  0  0  0  0  0  0
    5.9711    0.0450    0.0000 C   0  0  0  0  0  0  0  0  0
    5.2566   -0.3675    0.0000 N   0  0  0  0  0  0  0  0  0
    4.5421    0.0450    0.0000 C   0  0  0  0  0  0  0  0  0
    4.5421    0.8700    0.0000 C   0  0  0  0  0  0  0  0  0
    5.2566   -1.1925    0.0000 C   0  0  0  0  0  0  0  0  0
    4.5421   -1.6050    0.0000 O   0  0  0  0  0  0  0  0  0
    5.9711   -1.6050    0.0000 N   0  0  0  0  0  0  0  0  0
    5.9711   -2.4300    0.0000 C   0  0  0  0  0  0  0  0  0
    6.6855   -2.8425    0.0000 C   0  0  0  0  0  0  0  0  0
    6.6855   -3.6675    0.0000 C   0  0  0  0  0  0  0  0  0
    7.4000   -4.0800    0.0000 N   0  0  0  0  0  0  0  0  0
    8.1145   -3.6675    0.0000 C   0  0  0  0  0  0  0  0  0
    8.8289   -4.0800    0.0000 C   0  0  0  0  0  0  0  0  0
    8.8289   -4.9050    0.0000 N   0  0  0  0  0  0  0  0  0
    8.1145   -5.3175    0.0000 C   0  0  0  0  0  0  0  0  0
    7.4000   -4.9050    0.0000 C   0  0  0  0  0  0  0  0  0
    9.5434   -5.3175    0.0000 C   0  0  0  0  0  0  0  0  0
    5.9711   -4.0800    0.0000 C   0  0  0  0  0  0  0  0  0
    5.9711   -4.9050    0.0000 O   0  0  0  0  0  0  0  0  0
    5.2566   -5.3175    0.0000 C   0  0  0  0  0  0  0  0  0
    5.2566   -3.6675    0.0000 C   0  0  0  0  0  0  0  0  0
    5.2566   -2.8425    0.0000 C   0  0  0  0  0  0  0  0  0
    4.5421    2.5200    0.0000 C   0  0  0  0  0  0  0  0  0
    4.5421    3.3450    0.0000 C   0  0  0  0  0  0  0  0  0
  1  2  1  0  0  0  0
  2  3  1  0  0  0  0
  2  4  1  0  0  0  0
  2  5  1  0  0  0  0
  5  6  4  0  0  0  0
  5 34  4  0  0  0  0
  6  7  4  0  0  0  0
  7  8  4  0  0  0  0
  8  9  1  0  0  0  0
  8 33  4  0  0  0  0
  9 10  1  0  0  0  0
  9 14  1  0  0  0  0
 10 11  1  0  0  0  0
 11 12  1  0  0  0  0
 12 13  1  0  0  0  0
 12 15  1  0  0  0  0
 13 14  1  0  0  0  0
 15 16  2  0  0  0  0
 15 17  1  0  0  0  0
 17 18  1  0  0  0  0
 18 19  4  0  0  0  0
 18 32  4  0  0  0  0
 19 20  4  0  0  0  0
 20 21  1  0  0  0  0
 20 28  4  0  0  0  0
 21 22  1  0  0  0  0
 21 26  1  0  0  0  0
 22 23  1  0  0  0  0
 23 24  1  0  0  0  0
 24 25  1  0  0  0  0
 24 27  1  0  0  0  0
 25 26  1  0  0  0  0
 28 29  1  0  0  0  0
 28 31  4  0  0  0  0
 29 30  1  0  0  0  0
 31 32  4  0  0  0  0
 33 34  4  0  0  0  0
M  END
>  <Name_Molregno>
327083

>  <5-HT1A>
6.42

>  <5-HT1B>
7.55

>  <5-HT1D>
6.46

>  <5-HT2A>
6.21

>  <5-HT2C>
5.55

>  <5-HT6>
5.54

>  <5-HT7>
5

>  <DOPAMINE D1>
5

>  <DOPAMINE D2>
5

>  <DOPAMINE D3>
5

>  <DOPAMINE D4>
5

>  <DOPAMINE D5>
5

>  <HISTAMINE H1>
5

>  <Muscarinic acetylcholine receptor M1>
5

>  <Muscarinic acetylcholine receptor M2>
5

>  <Muscarinic acetylcholine receptor M3>
5

>  <Muscarinic acetylcholine receptor M4>
5

>  <Muscarinic acetylcholine receptor M5>
5

$$$$
327090
  Marvin  02231216192D 0   1.00000     0.00000     0

 32 35  0  0  0  0  0  0  0  0999 V2000
   -6.3746    6.5338    0.0000 S   0  0  0  0  0  0  0  0  0
   -7.0891    6.9463    0.0000 C   0  0  0  0  0  0  0  0  0
   -6.3746    5.7088    0.0000 C   0  0  0  0  0  0  0  0  0
   -5.6602    5.2963    0.0000 C   0  0  0  0  0  0  0  0  0
   -5.6602    4.4713    0.0000 C   0  0  0  0  0  0  0  0  0
   -6.3746    4.0588    0.0000 C   0  0  0  0  0  0  0  0  0
   -6.3746    3.2338    0.0000 N   0  0  0  0  0  0  0  0  0
   -5.6602    2.8213    0.0000 C   0  0  0  0  0  0  0  0  0
   -5.6602    1.9963    0.0000 C   0  0  0  0  0  0  0  0  0
   -6.3746    1.5838    0.0000 N   0  0  0  0  0  0  0  0  0
   -7.0891    1.9963    0.0000 C   0  0  0  0  0  0  0  0  0
   -7.0891    2.8213    0.0000 C   0  0  0  0  0  0  0  0  0
   -6.3746    0.7588    0.0000 C   0  0  0  0  0  0  0  0  0
   -7.0891    0.3463    0.0000 O   0  0  0  0  0  0  0  0  0
   -5.6602    0.3463    0.0000 N   0  0  0  0  0  0  0  0  0
   -5.6602   -0.4787    0.0000 C   0  0  0  0  0  0  0  0  0
   -4.9457   -0.8912    0.0000 C   0  0  0  0  0  0  0  0  0
   -4.9457   -1.7162    0.0000 C   0  0  0  0  0  0  0  0  0
   -4.2312   -2.1287    0.0000 N   0  0  0  0  0  0  0  0  0
   -3.5167   -1.7162    0.0000 C   0  0  0  0  0  0  0  0  0
   -2.8023   -2.1287    0.0000 C   0  0  0  0  0  0  0  0  0
   -2.8023   -2.9537    0.0000 N   0  0  0  0  0  0  0  0  0
   -3.5167   -3.3662    0.0000 C   0  0  0  0  0  0  0  0  0
   -4.2312   -2.9537    0.0000 C   0  0  0  0  0  0  0  0  0
   -2.0878   -3.3662    0.0000 C   0  0  0  0  0  0  0  0  0
   -5.6602   -2.1287    0.0000 C   0  0  0  0  0  0  0  0  0
   -5.6602   -2.9537    0.0000 O   0  0  0  0  0  0  0  0  0
   -6.3746   -3.3662    0.0000 C   0  0  0  0  0  0  0  0  0
   -6.3746   -1.7162    0.0000 C   0  0  0  0  0  0  0  0  0
   -6.3746   -0.8912    0.0000 C   0  0  0  0  0  0  0  0  0
   -7.0891    4.4713    0.0000 C   0  0  0  0  0  0  0  0  0
   -7.0891    5.2963    0.0000 C   0  0  0  0  0  0  0  0  0
  1  2  1  0  0  0  0
  1  3  1  0  0  0  0
  3  4  4  0  0  0  0
  3 32  4  0  0  0  0
  4  5  4  0  0  0  0
  5  6  4  0  0  0  0
  6  7  1  0  0  0  0
  6 31  4  0  0  0  0
  7  8  1  0  0  0  0
  7 12  1  0  0  0  0
  8  9  1  0  0  0  0
  9 10  1  0  0  0  0
 10 11  1  0  0  0  0
 10 13  1  0  0  0  0
 11 12  1  0  0  0  0
 13 14  2  0  0  0  0
 13 15  1  0  0  0  0
 15 16  1  0  0  0  0
 16 17  4  0  0  0  0
 16 30  4  0  0  0  0
 17 18  4  0  0  0  0
 18 19  1  0  0  0  0
 18 26  4  0  0  0  0
 19 20  1  0  0  0  0
 19 24  1  0  0  0  0
 20 21  1  0  0  0  0
 21 22  1  0  0  0  0
 22 23  1  0  0  0  0
 22 25  1  0  0  0  0
 23 24  1  0  0  0  0
 26 27  1  0  0  0  0
 26 29  4  0  0  0  0
 27 28  1  0  0  0  0
 29 30  4  0  0  0  0
 31 32  4  0  0  0  0
M  END
>  <Name_Molregno>
327090

>  <5-HT1A>
6.05

>  <5-HT1B>
7.78

>  <5-HT1D>
6.48

>  <5-HT2A>
5.87

>  <5-HT2C>
5.94

>  <5-HT6>
5

>  <5-HT7>
5

>  <DOPAMINE D1>
5

>  <DOPAMINE D2>
5

>  <DOPAMINE D3>
5

>  <DOPAMINE D4>
5

>  <DOPAMINE D5>
5

>  <HISTAMINE H1>
5

>  <Muscarinic acetylcholine receptor M1>
5

>  <Muscarinic acetylcholine receptor M2>
5

>  <Muscarinic acetylcholine receptor M3>
5

>  <Muscarinic acetylcholine receptor M4>
5

>  <Muscarinic acetylcholine receptor M5>
5

$$$$
329265
  Marvin  02231216192D 0   1.00000     0.00000     0

 31 35  0  0  1  0  0  0  0  0999 V2000
   -5.7354    5.8865    0.0000 F   0  0  0  0  0  0  0  0  0
   -6.2875    5.2734    0.0000 C   0  0  0  0  0  0  0  0  0
   -6.0325    4.4888    0.0000 C   0  0  0  0  0  0  0  0  0
   -6.5846    3.8757    0.0000 C   0  0  0  0  0  0  0  0  0
   -7.3915    4.0473    0.0000 C   0  0  0  0  0  0  0  0  0
   -7.8040    3.3328    0.0000 N   0  0  0  0  0  0  0  0  0
   -7.2520    2.7197    0.0000 C   0  0  0  0  0  0  0  0  0
   -6.4983    3.0552    0.0000 C   0  0  0  0  0  0  0  0  0
   -5.7838    2.6427    0.0000 C   0  0  0  0  0  0  0  0  0
   -5.7838    1.8177    0.0000 C   0  0  0  0  0  0  0  0  0
   -5.0694    1.4052    0.0000 C   0  0  0  0  0  0  0  0  0
   -5.0694    0.5802    0.0000 N   0  0  0  0  0  0  0  0  0
   -4.3549    0.1677    0.0000 C   0  0  0  0  0  0  0  0  0
   -4.3549   -0.6573    0.0000 C   0  0  0  0  0  0  0  0  0
   -5.0694   -1.0698    0.0000 N   0  0  0  0  0  0  0  0  0
   -5.7838   -0.6573    0.0000 C   0  0  0  0  0  0  0  0  0
   -5.7838    0.1677    0.0000 C   0  0  0  0  0  0  0  0  0
   -5.0694   -1.8948    0.0000 C   0  0  0  0  0  0  0  0  0
   -4.3549   -2.3073    0.0000 C   0  0  0  0  0  0  0  0  0
   -3.6404   -1.8948    0.0000 O   0  0  0  0  0  0  0  0  0
   -2.9260   -2.3073    0.0000 C   0  0  0  0  0  0  0  0  0
   -2.2115   -1.8948    0.0000 C   0  0  0  0  0  0  0  0  0
   -2.9260   -3.1323    0.0000 C   0  0  0  0  0  0  0  0  0
   -2.2115   -3.5448    0.0000 O   0  0  0  0  0  0  0  0  0
   -3.6404   -3.5448    0.0000 N   0  0  0  0  0  0  0  0  0
   -4.3549   -3.1323    0.0000 C   0  0  0  0  0  0  0  0  0
   -5.0694   -3.5448    0.0000 C   0  0  0  0  0  0  0  0  0
   -5.7838   -3.1323    0.0000 C   0  0  0  0  0  0  0  0  0
   -5.7838   -2.3073    0.0000 C   0  0  0  0  0  0  0  0  0
   -7.6465    4.8319    0.0000 C   0  0  0  0  0  0  0  0  0
   -7.0944    5.4450    0.0000 C   0  0  0  0  0  0  0  0  0
  1  2  1  0  0  0  0
  2  3  4  0  0  0  0
  2 31  4  0  0  0  0
  3  4  4  0  0  0  0
  4  5  4  0  0  0  0
  4  8  4  0  0  0  0
  5  6  4  0  0  0  0
  5 30  4  0  0  0  0
  6  7  4  0  0  0  0
  7  8  4  0  0  0  0
  8  9  1  0  0  0  0
  9 10  1  0  0  0  0
 10 11  1  0  0  0  0
 11 12  1  0  0  0  0
 12 13  1  0  0  0  0
 12 17  1  0  0  0  0
 13 14  1  0  0  0  0
 14 15  1  0  0  0  0
 15 16  1  0  0  0  0
 15 18  1  0  0  0  0
 16 17  1  0  0  0  0
 18 19  4  0  0  0  0
 18 29  4  0  0  0  0
 19 20  1  0  0  0  0
 19 26  4  0  0  0  0
 20 21  1  0  0  0  0
 21 22  1  0  0  0  0
 21 23  1  0  0  0  0
 23 24  2  0  0  0  0
 23 25  1  0  0  0  0
 25 26  1  0  0  0  0
 26 27  4  0  0  0  0
 27 28  4  0  0  0  0
 28 29  4  0  0  0  0
 30 31  4  0  0  0  0
M  STY  1   1 DAT
M  SAL   1  1   6
M  SDT   1 MRV_IMPLICIT_H                                        
M  SDD   1     0.0000    0.0000    DR    ALL  0       0  
M  SED   1 IMPL_H1
M  END
>  <Name_Molregno>
329265

>  <5-HT1A>
8.3

>  <5-HT2A>
7.7

>  <5-HT2C>
6.7

>  <5-HT7>
8.1

>  <DOPAMINE D2>
8.24

>  <DOPAMINE D3>
9.3

>  <Serotonin transporter>
9.6

$$$$
330283
  Marvin  02231216192D 0   1.00000     0.00000     0

 31 34  0  0  0  0  0  0  0  0999 V2000
    0.1076    0.0239    0.0000 Cl  0  0  0  0  0  0  0  0  0
    0.1076   -0.8011    0.0000 C   0  0  0  0  0  0  0  0  0
    0.8221   -1.2136    0.0000 C   0  0  0  0  0  0  0  0  0
    0.8221   -2.0386    0.0000 C   0  0  0  0  0  0  0  0  0
    0.1076   -2.4511    0.0000 C   0  0  0  0  0  0  0  0  0
   -0.6069   -2.0386    0.0000 C   0  0  0  0  0  0  0  0  0
   -0.6069   -1.2136    0.0000 C   0  0  0  0  0  0  0  0  0
   -1.3213   -0.8011    0.0000 N   0  0  0  0  0  0  0  0  0
   -2.0358   -1.2136    0.0000 C   0  0  0  0  0  0  0  0  0
   -2.7503   -0.8011    0.0000 C   0  0  0  0  0  0  0  0  0
   -2.7503    0.0239    0.0000 N   0  0  0  0  0  0  0  0  0
   -2.0358    0.4364    0.0000 C   0  0  0  0  0  0  0  0  0
   -1.3213    0.0239    0.0000 C   0  0  0  0  0  0  0  0  0
   -3.4647    0.4364    0.0000 C   0  0  0  0  0  0  0  0  0
   -3.4647    1.2614    0.0000 O   0  0  0  0  0  0  0  0  0
   -4.1792    0.0239    0.0000 N   0  0  0  0  0  0  0  0  0
   -4.8937    0.4364    0.0000 C   0  0  0  0  0  0  0  0  0
   -5.6082    0.0239    0.0000 C   0  0  0  0  0  0  0  0  0
   -6.3226    0.4364    0.0000 C   0  0  0  0  0  0  0  0  0
   -7.0371    0.0239    0.0000 N   0  0  0  0  0  0  0  0  0
   -7.0371   -0.8011    0.0000 C   0  0  0  0  0  0  0  0  0
   -7.7516   -1.2136    0.0000 C   0  0  0  0  0  0  0  0  0
   -8.4660   -0.8011    0.0000 N   0  0  0  0  0  0  0  0  0
   -8.4660    0.0239    0.0000 C   0  0  0  0  0  0  0  0  0
   -7.7516    0.4364    0.0000 C   0  0  0  0  0  0  0  0  0
   -9.1805   -1.2136    0.0000 C   0  0  0  0  0  0  0  0  0
   -6.3226    1.2614    0.0000 C   0  0  0  0  0  0  0  0  0
   -7.0371    1.6739    0.0000 O   0  0  0  0  0  0  0  0  0
   -7.0371    2.4989    0.0000 C   0  0  0  0  0  0  0  0  0
   -5.6082    1.6739    0.0000 C   0  0  0  0  0  0  0  0  0
   -4.8937    1.2614    0.0000 C   0  0  0  0  0  0  0  0  0
  1  2  1  0  0  0  0
  2  3  4  0  0  0  0
  2  7  4  0  0  0  0
  3  4  4  0  0  0  0
  4  5  4  0  0  0  0
  5  6  4  0  0  0  0
  6  7  4  0  0  0  0
  7  8  1  0  0  0  0
  8  9  1  0  0  0  0
  8 13  1  0  0  0  0
  9 10  1  0  0  0  0
 10 11  1  0  0  0  0
 11 12  1  0  0  0  0
 11 14  1  0  0  0  0
 12 13  1  0  0  0  0
 14 15  2  0  0  0  0
 14 16  1  0  0  0  0
 16 17  1  0  0  0  0
 17 18  4  0  0  0  0
 17 31  4  0  0  0  0
 18 19  4  0  0  0  0
 19 20  1  0  0  0  0
 19 27  4  0  0  0  0
 20 21  1  0  0  0  0
 20 25  1  0  0  0  0
 21 22  1  0  0  0  0
 22 23  1  0  0  0  0
 23 24  1  0  0  0  0
 23 26  1  0  0  0  0
 24 25  1  0  0  0  0
 27 28  1  0  0  0  0
 27 30  4  0  0  0  0
 28 29  1  0  0  0  0
 30 31  4  0  0  0  0
M  END
>  <Name_Molregno>
330283

>  <5-HT1A>
6.47

>  <5-HT1B>
7.95

>  <5-HT1D>
7.46

>  <5-HT2A>
5.22

>  <5-HT2C>
5.91

>  <5-HT6>
6.33

>  <5-HT7>
6.47

>  <DOPAMINE D1>
5

>  <DOPAMINE D2>
5

>  <DOPAMINE D3>
5

>  <DOPAMINE D4>
5

>  <DOPAMINE D5>
5

>  <HISTAMINE H1>
5

>  <Muscarinic acetylcholine receptor M1>
5

>  <Muscarinic acetylcholine receptor M2>
5

>  <Muscarinic acetylcholine receptor M3>
5

>  <Muscarinic acetylcholine receptor M4>
5

>  <Muscarinic acetylcholine receptor M5>
5

$$$$
330287
  Marvin  02231216192D 0   1.00000     0.00000     0

 31 34  0  0  0  0  0  0  0  0999 V2000
    0.1076    0.0239    0.0000 F   0  0  0  0  0  0  0  0  0
    0.1076   -0.8011    0.0000 C   0  0  0  0  0  0  0  0  0
    0.8221   -1.2136    0.0000 C   0  0  0  0  0  0  0  0  0
    0.8221   -2.0386    0.0000 C   0  0  0  0  0  0  0  0  0
    0.1076   -2.4511    0.0000 C   0  0  0  0  0  0  0  0  0
   -0.6069   -2.0386    0.0000 C   0  0  0  0  0  0  0  0  0
   -0.6069   -1.2136    0.0000 C   0  0  0  0  0  0  0  0  0
   -1.3213   -0.8011    0.0000 N   0  0  0  0  0  0  0  0  0
   -2.0358   -1.2136    0.0000 C   0  0  0  0  0  0  0  0  0
   -2.7503   -0.8011    0.0000 C   0  0  0  0  0  0  0  0  0
   -2.7503    0.0239    0.0000 N   0  0  0  0  0  0  0  0  0
   -2.0358    0.4364    0.0000 C   0  0  0  0  0  0  0  0  0
   -1.3213    0.0239    0.0000 C   0  0  0  0  0  0  0  0  0
   -3.4647    0.4364    0.0000 C   0  0  0  0  0  0  0  0  0
   -3.4647    1.2614    0.0000 O   0  0  0  0  0  0  0  0  0
   -4.1792    0.0239    0.0000 N   0  0  0  0  0  0  0  0  0
   -4.8937    0.4364    0.0000 C   0  0  0  0  0  0  0  0  0
   -5.6082    0.0239    0.0000 C   0  0  0  0  0  0  0  0  0
   -6.3226    0.4364    0.0000 C   0  0  0  0  0  0  0  0  0
   -7.0371    0.0239    0.0000 N   0  0  0  0  0  0  0  0  0
   -7.0371   -0.8011    0.0000 C   0  0  0  0  0  0  0  0  0
   -7.7516   -1.2136    0.0000 C   0  0  0  0  0  0  0  0  0
   -8.4660   -0.8011    0.0000 N   0  0  0  0  0  0  0  0  0
   -8.4660    0.0239    0.0000 C   0  0  0  0  0  0  0  0  0
   -7.7516    0.4364    0.0000 C   0  0  0  0  0  0  0  0  0
   -9.1805   -1.2136    0.0000 C   0  0  0  0  0  0  0  0  0
   -6.3226    1.2614    0.0000 C   0  0  0  0  0  0  0  0  0
   -7.0371    1.6739    0.0000 O   0  0  0  0  0  0  0  0  0
   -7.0371    2.4989    0.0000 C   0  0  0  0  0  0  0  0  0
   -5.6082    1.6739    0.0000 C   0  0  0  0  0  0  0  0  0
   -4.8937    1.2614    0.0000 C   0  0  0  0  0  0  0  0  0
  1  2  1  0  0  0  0
  2  3  4  0  0  0  0
  2  7  4  0  0  0  0
  3  4  4  0  0  0  0
  4  5  4  0  0  0  0
  5  6  4  0  0  0  0
  6  7  4  0  0  0  0
  7  8  1  0  0  0  0
  8  9  1  0  0  0  0
  8 13  1  0  0  0  0
  9 10  1  0  0  0  0
 10 11  1  0  0  0  0
 11 12  1  0  0  0  0
 11 14  1  0  0  0  0
 12 13  1  0  0  0  0
 14 15  2  0  0  0  0
 14 16  1  0  0  0  0
 16 17  1  0  0  0  0
 17 18  4  0  0  0  0
 17 31  4  0  0  0  0
 18 19  4  0  0  0  0
 19 20  1  0  0  0  0
 19 27  4  0  0  0  0
 20 21  1  0  0  0  0
 20 25  1  0  0  0  0
 21 22  1  0  0  0  0
 22 23  1  0  0  0  0
 23 24  1  0  0  0  0
 23 26  1  0  0  0  0
 24 25  1  0  0  0  0
 27 28  1  0  0  0  0
 27 30  4  0  0  0  0
 28 29  1  0  0  0  0
 30 31  4  0  0  0  0
M  END
>  <Name_Molregno>
330287

>  <5-HT1A>
6.5

>  <5-HT1B>
7.74

>  <5-HT1D>
6.99

>  <5-HT2A>
5

>  <5-HT2C>
5.97

>  <5-HT6>
6.08

>  <5-HT7>
5

>  <DOPAMINE D1>
5

>  <DOPAMINE D2>
5

>  <DOPAMINE D3>
5

>  <DOPAMINE D4>
5

>  <DOPAMINE D5>
5

>  <HISTAMINE H1>
5

>  <Muscarinic acetylcholine receptor M1>
5

>  <Muscarinic acetylcholine receptor M2>
5

>  <Muscarinic acetylcholine receptor M3>
5

>  <Muscarinic acetylcholine receptor M4>
5

>  <Muscarinic acetylcholine receptor M5>
5

$$$$
335202
  Marvin  02231216192D 0   1.00000     0.00000     0

 31 34  0  0  0  0  0  0  0  0999 V2000
   -5.3316    5.4643    0.0000 O   0  0  0  0  0  0  0  0  0
   -6.0461    5.8768    0.0000 C   0  0  0  0  0  0  0  0  0
   -4.6172    5.8768    0.0000 C   0  0  0  0  0  0  0  0  0
   -3.9027    5.4643    0.0000 C   0  0  0  0  0  0  0  0  0
   -3.1882    5.8768    0.0000 C   0  0  0  0  0  0  0  0  0
   -3.1882    6.7018    0.0000 C   0  0  0  0  0  0  0  0  0
   -3.9027    7.1143    0.0000 C   0  0  0  0  0  0  0  0  0
   -4.6172    6.7018    0.0000 C   0  0  0  0  0  0  0  0  0
   -2.4737    7.1143    0.0000 C   0  0  0  0  0  0  0  0  0
   -1.7593    6.7018    0.0000 C   0  0  0  0  0  0  0  0  0
   -1.7593    5.8768    0.0000 C   0  0  0  0  0  0  0  0  0
   -2.4737    5.4643    0.0000 C   0  0  0  0  0  0  0  0  0
   -2.4737    4.6393    0.0000 N   0  0  0  0  0  0  0  0  0
   -1.7593    4.2268    0.0000 C   0  0  0  0  0  0  0  0  0
   -1.7593    3.4018    0.0000 C   0  0  0  0  0  0  0  0  0
   -2.4737    2.9893    0.0000 N   0  0  0  0  0  0  0  0  0
   -3.1882    3.4018    0.0000 C   0  0  0  0  0  0  0  0  0
   -3.1882    4.2268    0.0000 C   0  0  0  0  0  0  0  0  0
   -2.4737    2.1643    0.0000 C   0  0  0  0  0  0  0  0  0
   -1.7593    1.7518    0.0000 C   0  0  0  0  0  0  0  0  0
   -1.7593    0.9268    0.0000 C   0  0  0  0  0  0  0  0  0
   -1.0448    0.5143    0.0000 C   0  0  0  0  0  0  0  0  0
   -1.0448   -0.3107    0.0000 N   0  0  0  0  0  0  0  0  0
   -0.3303   -0.7232    0.0000 N   0  0  0  0  0  0  0  0  0
   -0.3303   -1.5482    0.0000 C   0  0  0  0  0  0  0  0  0
   -1.0448   -1.9607    0.0000 C   0  0  0  0  0  0  0  0  0
   -1.0448   -2.7857    0.0000 O   0  0  0  0  0  0  0  0  0
   -1.7593   -1.5482    0.0000 N   0  0  0  0  0  0  0  0  0
   -2.4737   -1.9607    0.0000 C   0  0  0  0  0  0  0  0  0
   -1.7593   -0.7232    0.0000 C   0  0  0  0  0  0  0  0  0
   -2.4737   -0.3107    0.0000 O   0  0  0  0  0  0  0  0  0
  1  2  1  0  0  0  0
  1  3  1  0  0  0  0
  3  4  4  0  0  0  0
  3  8  4  0  0  0  0
  4  5  4  0  0  0  0
  5  6  4  0  0  0  0
  5 12  4  0  0  0  0
  6  7  4  0  0  0  0
  6  9  4  0  0  0  0
  7  8  4  0  0  0  0
  9 10  4  0  0  0  0
 10 11  4  0  0  0  0
 11 12  4  0  0  0  0
 12 13  1  0  0  0  0
 13 14  1  0  0  0  0
 13 18  1  0  0  0  0
 14 15  1  0  0  0  0
 15 16  1  0  0  0  0
 16 17  1  0  0  0  0
 16 19  1  0  0  0  0
 17 18  1  0  0  0  0
 19 20  1  0  0  0  0
 20 21  1  0  0  0  0
 21 22  1  0  0  0  0
 22 23  1  0  0  0  0
 23 24  1  0  0  0  0
 23 30  1  0  0  0  0
 24 25  2  0  0  0  0
 25 26  1  0  0  0  0
 26 27  2  0  0  0  0
 26 28  1  0  0  0  0
 28 29  1  0  0  0  0
 28 30  1  0  0  0  0
 30 31  2  0  0  0  0
M  END
>  <Name_Molregno>
335202

>  <5-HT1A>
8.87

>  <5-HT2A>
7.38

>  <5-HT2C>
7

>  <5-HT3>
5

>  <5-HT5>
6.64

>  <5-HT6>
6.92

>  <5-HT7>
8.04

>  <Alpha-2A>
5.99

>  <Alpha-2B>
6.5

>  <Alpha-2C>
7.63

>  <Beta-1>
6.32

>  <Beta-2>
7.22

>  <DOPAMINE D1>
5.13

>  <DOPAMINE D2>
7.66

>  <DOPAMINE D3>
7.2

>  <DOPAMINE D4>
8.07

>  <DOPAMINE D5>
5

>  <Dopamine transporter>
6.39

>  <HISTAMINE H1>
6.82

>  <HISTAMINE H2>
6.52

>  <HISTAMINE H3>
5

>  <HISTAMINE H4>
5

>  <Norepinephrine transporter>
5.16

>  <Serotonin transporter>
5.21

$$$$
341020
  Marvin  02231216192D 0   1.00000     0.00000     0

 26 28  0  0  1  0  0  0  0  0999 V2000
   -3.7395   -1.2429    0.0000 S   0  0  0  0  0  0  0  0  0
   -3.5413   -0.4420    0.0000 O   0  0  0  0  0  0  0  0  0
   -3.9376   -2.0437    0.0000 O   0  0  0  0  0  0  0  0  0
   -2.9386   -1.4410    0.0000 C   0  0  0  0  0  0  0  0  0
   -2.1378   -1.6392    0.0000 C   0  0  0  0  0  0  0  0  0
   -1.5658   -1.0447    0.0000 C   0  0  0  0  0  0  0  0  0
   -0.7649   -1.2429    0.0000 C   0  0  0  0  0  0  0  0  0
   -0.1929   -0.6484    0.0000 N   0  0  0  0  0  0  0  0  0
   -0.4217    0.1442    0.0000 C   0  0  0  0  0  0  0  0  0
    0.1504    0.7387    0.0000 C   0  0  0  0  0  0  0  0  0
    0.9512    0.5405    0.0000 C   0  0  0  0  0  0  0  0  0
    1.1800   -0.2521    0.0000 C   0  0  0  0  0  0  0  0  0
    0.6080   -0.8466    0.0000 C   0  0  0  0  0  0  0  0  0
   -0.0785    1.5313    0.0000 C   0  0  0  0  0  0  0  0  0
   -0.8542    1.8121    0.0000 O   0  0  0  0  0  0  0  0  0
   -0.8269    2.6367    0.0000 C   0  0  0  0  0  0  0  0  0
   -0.0343    2.8655    0.0000 N   0  0  0  0  0  0  0  0  0
    0.4283    2.1824    0.0000 C   0  0  0  0  0  0  0  0  0
   -2.7405   -0.6402    0.0000 C   0  0  0  0  0  0  0  0  0
   -3.1368   -2.2419    0.0000 C   0  0  0  0  0  0  0  0  0
   -4.5403   -1.0447    0.0000 C   0  0  0  0  0  0  0  0  0
   -5.1124   -1.6392    0.0000 C   0  0  0  0  0  0  0  0  0
   -5.9132   -1.4410    0.0000 C   0  0  0  0  0  0  0  0  0
   -6.1420   -0.6484    0.0000 C   0  0  0  0  0  0  0  0  0
   -5.5700   -0.0539    0.0000 C   0  0  0  0  0  0  0  0  0
   -4.7691   -0.2521    0.0000 C   0  0  0  0  0  0  0  0  0
  1  2  2  0  0  0  0
  1  3  2  0  0  0  0
  1  4  1  0  0  0  0
  1 21  1  0  0  0  0
  4  5  1  0  0  0  0
  4 19  1  0  0  0  0
  4 20  1  0  0  0  0
  5  6  1  0  0  0  0
  6  7  1  0  0  0  0
  7  8  1  0  0  0  0
  8  9  1  0  0  0  0
  8 13  1  0  0  0  0
  9 10  1  0  0  0  0
 10 11  1  0  0  0  0
 10 14  1  0  0  0  0
 11 12  1  0  0  0  0
 12 13  1  0  0  0  0
 14 15  4  0  0  0  0
 14 18  4  0  0  0  0
 15 16  4  0  0  0  0
 16 17  4  0  0  0  0
 17 18  4  0  0  0  0
 21 22  4  0  0  0  0
 21 26  4  0  0  0  0
 22 23  4  0  0  0  0
 23 24  4  0  0  0  0
 24 25  4  0  0  0  0
 25 26  4  0  0  0  0
M  END
>  <Name_Molregno>
341020

>  <5-HT1A>
5.15

>  <5-HT1B>
5.3

>  <5-HT2A>
6

>  <5-HT7>
7.82

>  <DOPAMINE D2>
5.82

$$$$
341385
  Marvin  02231216192D 0   1.00000     0.00000     0

 27 29  0  0  1  0  0  0  0  0999 V2000
   -3.9769   -1.3635    0.0000 S   0  0  0  0  0  0  0  0  0
   -3.7787   -0.5626    0.0000 O   0  0  0  0  0  0  0  0  0
   -4.1750   -2.1643    0.0000 O   0  0  0  0  0  0  0  0  0
   -3.1760   -1.5616    0.0000 C   0  0  0  0  0  0  0  0  0
   -2.3752   -1.7598    0.0000 C   0  0  0  0  0  0  0  0  0
   -1.8031   -1.1653    0.0000 C   0  0  0  0  0  0  0  0  0
   -1.0023   -1.3635    0.0000 C   0  0  0  0  0  0  0  0  0
   -0.4302   -0.7690    0.0000 N   0  0  0  0  0  0  0  0  0
   -0.6591    0.0237    0.0000 C   0  0  0  0  0  0  0  0  0
   -0.0870    0.6181    0.0000 C   0  0  0  0  0  0  0  0  0
    0.7138    0.4200    0.0000 C   0  0  0  0  0  0  0  0  0
    0.9426   -0.3727    0.0000 C   0  0  0  0  0  0  0  0  0
    0.3706   -0.9671    0.0000 C   0  0  0  0  0  0  0  0  0
   -0.3158    1.4108    0.0000 C   0  0  0  0  0  0  0  0  0
   -1.1167    1.6089    0.0000 C   0  0  0  0  0  0  0  0  0
   -1.3455    2.4016    0.0000 C   0  0  0  0  0  0  0  0  0
   -0.7735    2.9960    0.0000 C   0  0  0  0  0  0  0  0  0
    0.0274    2.7979    0.0000 C   0  0  0  0  0  0  0  0  0
    0.2562    2.0052    0.0000 C   0  0  0  0  0  0  0  0  0
   -2.9778   -0.7608    0.0000 C   0  0  0  0  0  0  0  0  0
   -3.3742   -2.3625    0.0000 C   0  0  0  0  0  0  0  0  0
   -4.7777   -1.1653    0.0000 C   0  0  0  0  0  0  0  0  0
   -5.3497   -1.7598    0.0000 C   0  0  0  0  0  0  0  0  0
   -6.1506   -1.5616    0.0000 C   0  0  0  0  0  0  0  0  0
   -6.3794   -0.7690    0.0000 C   0  0  0  0  0  0  0  0  0
   -5.8074   -0.1745    0.0000 C   0  0  0  0  0  0  0  0  0
   -5.0065   -0.3727    0.0000 C   0  0  0  0  0  0  0  0  0
  1  2  2  0  0  0  0
  1  3  2  0  0  0  0
  1  4  1  0  0  0  0
  1 22  1  0  0  0  0
  4  5  1  0  0  0  0
  4 20  1  0  0  0  0
  4 21  1  0  0  0  0
  5  6  1  0  0  0  0
  6  7  1  0  0  0  0
  7  8  1  0  0  0  0
  8  9  1  0  0  0  0
  8 13  1  0  0  0  0
  9 10  1  0  0  0  0
 10 11  1  0  0  0  0
 10 14  1  0  0  0  0
 11 12  1  0  0  0  0
 12 13  1  0  0  0  0
 14 15  4  0  0  0  0
 14 19  4  0  0  0  0
 15 16  4  0  0  0  0
 16 17  4  0  0  0  0
 17 18  4  0  0  0  0
 18 19  4  0  0  0  0
 22 23  4  0  0  0  0
 22 27  4  0  0  0  0
 23 24  4  0  0  0  0
 24 25  4  0  0  0  0
 25 26  4  0  0  0  0
 26 27  4  0  0  0  0
M  END
>  <Name_Molregno>
341385

>  <5-HT1A>
6.4

>  <5-HT1B>
5.11

>  <5-HT2A>
5.74

>  <5-HT7>
8.15

>  <DOPAMINE D2>
6.66

$$$$
341431
  Marvin  02231216192D 0   1.00000     0.00000     0

 28 31  0  0  0  0  0  0  0  0999 V2000
    1.4881   -0.6961    0.0000 S   0  0  0  0  0  0  0  0  0
    2.0715   -0.1127    0.0000 O   0  0  0  0  0  0  0  0  0
    0.9047   -1.2794    0.0000 O   0  0  0  0  0  0  0  0  0
    2.0715   -1.2794    0.0000 C   0  0  0  0  0  0  0  0  0
    2.6548   -1.8628    0.0000 C   0  0  0  0  0  0  0  0  0
    2.0715   -2.4461    0.0000 C   0  0  0  0  0  0  0  0  0
    1.4881   -1.8628    0.0000 C   0  0  0  0  0  0  0  0  0
    2.6548   -0.6961    0.0000 C   0  0  0  0  0  0  0  0  0
    2.4413    0.1008    0.0000 C   0  0  0  0  0  0  0  0  0
    3.0247    0.6842    0.0000 C   0  0  0  0  0  0  0  0  0
    2.8111    1.4811    0.0000 N   0  0  0  0  0  0  0  0  0
    2.0142    1.6946    0.0000 C   0  0  0  0  0  0  0  0  0
    1.8007    2.4915    0.0000 C   0  0  0  0  0  0  0  0  0
    2.3841    3.0749    0.0000 C   0  0  0  0  0  0  0  0  0
    3.1810    2.8613    0.0000 C   0  0  0  0  0  0  0  0  0
    3.3945    2.0644    0.0000 C   0  0  0  0  0  0  0  0  0
    2.1706    3.8718    0.0000 C   0  0  0  0  0  0  0  0  0
    1.3737    4.0853    0.0000 C   0  0  0  0  0  0  0  0  0
    1.1601    4.8822    0.0000 C   0  0  0  0  0  0  0  0  0
    1.7435    5.4655    0.0000 C   0  0  0  0  0  0  0  0  0
    2.5404    5.2520    0.0000 C   0  0  0  0  0  0  0  0  0
    2.7539    4.4551    0.0000 C   0  0  0  0  0  0  0  0  0
    0.9047   -0.1127    0.0000 C   0  0  0  0  0  0  0  0  0
    0.1078   -0.3262    0.0000 C   0  0  0  0  0  0  0  0  0
   -0.4755    0.2571    0.0000 C   0  0  0  0  0  0  0  0  0
   -0.2620    1.0540    0.0000 C   0  0  0  0  0  0  0  0  0
    0.5349    1.2676    0.0000 C   0  0  0  0  0  0  0  0  0
    1.1183    0.6842    0.0000 C   0  0  0  0  0  0  0  0  0
  1  2  2  0  0  0  0
  1  3  2  0  0  0  0
  1  4  1  0  0  0  0
  1 23  1  0  0  0  0
  4  5  1  0  0  0  0
  4  7  1  0  0  0  0
  4  8  1  0  0  0  0
  5  6  1  0  0  0  0
  6  7  1  0  0  0  0
  8  9  1  0  0  0  0
  9 10  1  0  0  0  0
 10 11  1  0  0  0  0
 11 12  1  0  0  0  0
 11 16  1  0  0  0  0
 12 13  1  0  0  0  0
 13 14  1  0  0  0  0
 14 15  1  0  0  0  0
 14 17  1  0  0  0  0
 15 16  1  0  0  0  0
 17 18  4  0  0  0  0
 17 22  4  0  0  0  0
 18 19  4  0  0  0  0
 19 20  4  0  0  0  0
 20 21  4  0  0  0  0
 21 22  4  0  0  0  0
 23 24  4  0  0  0  0
 23 28  4  0  0  0  0
 24 25  4  0  0  0  0
 25 26  4  0  0  0  0
 26 27  4  0  0  0  0
 27 28  4  0  0  0  0
M  END
>  <Name_Molregno>
341431

>  <5-HT7>
7.59

$$$$
341432
  Marvin  02231216192D 0   1.00000     0.00000     0

 26 29  0  0  0  0  0  0  0  0999 V2000
    0.8212    1.5345    0.0000 S   0  0  0  0  0  0  0  0  0
    0.8212    0.7095    0.0000 O   0  0  0  0  0  0  0  0  0
    0.8212    2.3595    0.0000 O   0  0  0  0  0  0  0  0  0
   -0.0038    1.5345    0.0000 C   0  0  0  0  0  0  0  0  0
   -0.8288    1.5345    0.0000 C   0  0  0  0  0  0  0  0  0
   -0.8288    2.3595    0.0000 C   0  0  0  0  0  0  0  0  0
   -0.0038    2.3595    0.0000 C   0  0  0  0  0  0  0  0  0
   -0.0038    0.7095    0.0000 C   0  0  0  0  0  0  0  0  0
    0.7107    0.2970    0.0000 C   0  0  0  0  0  0  0  0  0
    0.7107   -0.5280    0.0000 C   0  0  0  0  0  0  0  0  0
    1.4252   -0.9405    0.0000 N   0  0  0  0  0  0  0  0  0
    1.4252   -1.7655    0.0000 C   0  0  0  0  0  0  0  0  0
    2.1396   -2.1780    0.0000 C   0  0  0  0  0  0  0  0  0
    2.8541   -1.7655    0.0000 C   0  0  0  0  0  0  0  0  0
    2.8541   -0.9405    0.0000 C   0  0  0  0  0  0  0  0  0
    2.1396   -0.5280    0.0000 C   0  0  0  0  0  0  0  0  0
    3.5686   -0.5280    0.0000 C   0  0  0  0  0  0  0  0  0
    4.2830   -0.9405    0.0000 C   0  0  0  0  0  0  0  0  0
    4.2830   -1.7655    0.0000 C   0  0  0  0  0  0  0  0  0
    3.5686   -2.1780    0.0000 C   0  0  0  0  0  0  0  0  0
    1.6462    1.5345    0.0000 C   0  0  0  0  0  0  0  0  0
    2.0587    2.2490    0.0000 C   0  0  0  0  0  0  0  0  0
    2.8837    2.2490    0.0000 C   0  0  0  0  0  0  0  0  0
    3.2962    1.5345    0.0000 C   0  0  0  0  0  0  0  0  0
    2.8837    0.8200    0.0000 C   0  0  0  0  0  0  0  0  0
    2.0587    0.8200    0.0000 C   0  0  0  0  0  0  0  0  0
  1  2  2  0  0  0  0
  1  3  2  0  0  0  0
  1  4  1  0  0  0  0
  1 21  1  0  0  0  0
  4  5  1  0  0  0  0
  4  7  1  0  0  0  0
  4  8  1  0  0  0  0
  5  6  1  0  0  0  0
  6  7  1  0  0  0  0
  8  9  1  0  0  0  0
  9 10  1  0  0  0  0
 10 11  1  0  0  0  0
 11 12  1  0  0  0  0
 11 16  1  0  0  0  0
 12 13  1  0  0  0  0
 13 14  1  0  0  0  0
 14 15  4  0  0  0  0
 14 20  4  0  0  0  0
 15 16  1  0  0  0  0
 15 17  4  0  0  0  0
 17 18  4  0  0  0  0
 18 19  4  0  0  0  0
 19 20  4  0  0  0  0
 21 22  4  0  0  0  0
 21 26  4  0  0  0  0
 22 23  4  0  0  0  0
 23 24  4  0  0  0  0
 24 25  4  0  0  0  0
 25 26  4  0  0  0  0
M  END
>  <Name_Molregno>
341432

>  <5-HT1A>
7.46

>  <5-HT2A>
7.19

>  <5-HT7>
8.1

$$$$
341441
  Marvin  02231216192D 0   1.00000     0.00000     0

 23 25  0  0  1  0  0  0  0  0999 V2000
    0.0993    0.2606    0.0000 S   0  0  0  0  0  0  0  0  0
    0.5118    0.9750    0.0000 O   0  0  0  0  0  0  0  0  0
   -0.3132   -0.4539    0.0000 O   0  0  0  0  0  0  0  0  0
    0.8137   -0.1519    0.0000 C   0  0  0  0  0  0  0  0  0
    1.5282    0.2606    0.0000 C   0  0  0  0  0  0  0  0  0
    2.2427   -0.1519    0.0000 C   0  0  0  0  0  0  0  0  0
    2.9572    0.2606    0.0000 C   0  0  0  0  0  0  0  0  0
    3.6716   -0.1519    0.0000 N   0  0  0  0  0  0  0  0  0
    3.6716   -0.9769    0.0000 C   0  0  0  0  0  0  0  0  0
    4.3861   -1.3894    0.0000 C   0  0  0  0  0  0  0  0  0
    5.1006   -0.9769    0.0000 C   0  0  0  0  0  0  0  0  0
    5.8150   -1.3894    0.0000 C   0  0  0  0  0  0  0  0  0
    5.8150   -2.2144    0.0000 C   0  0  0  0  0  0  0  0  0
    5.1006   -2.6269    0.0000 C   0  0  0  0  0  0  0  0  0
    4.3861   -2.2144    0.0000 C   0  0  0  0  0  0  0  0  0
    5.1006   -0.1519    0.0000 C   0  0  0  0  0  0  0  0  0
    4.3861    0.2606    0.0000 C   0  0  0  0  0  0  0  0  0
   -0.6152    0.6731    0.0000 C   0  0  0  0  0  0  0  0  0
   -1.3297    0.2606    0.0000 C   0  0  0  0  0  0  0  0  0
   -2.0441    0.6731    0.0000 C   0  0  0  0  0  0  0  0  0
   -2.0441    1.4981    0.0000 C   0  0  0  0  0  0  0  0  0
   -1.3297    1.9106    0.0000 C   0  0  0  0  0  0  0  0  0
   -0.6152    1.4981    0.0000 C   0  0  0  0  0  0  0  0  0
  1  2  2  0  0  0  0
  1  3  2  0  0  0  0
  1  4  1  0  0  0  0
  1 18  1  0  0  0  0
  4  5  1  0  0  0  0
  5  6  1  0  0  0  0
  6  7  1  0  0  0  0
  7  8  1  0  0  0  0
  8  9  1  0  0  0  0
  8 17  1  0  0  0  0
  9 10  1  0  0  0  0
 10 11  1  0  0  0  0
 10 15  1  0  0  0  0
 11 12  1  0  0  0  0
 11 16  1  0  0  0  0
 12 13  1  0  0  0  0
 13 14  1  0  0  0  0
 14 15  1  0  0  0  0
 16 17  1  0  0  0  0
 18 19  4  0  0  0  0
 18 23  4  0  0  0  0
 19 20  4  0  0  0  0
 20 21  4  0  0  0  0
 21 22  4  0  0  0  0
 22 23  4  0  0  0  0
M  END
>  <Name_Molregno>
341441

>  <5-HT7>
7.02

$$$$
341446
  Marvin  02231216192D 0   1.00000     0.00000     0

 25 26  0  0  1  0  0  0  0  0999 V2000
   -3.4458   -1.1233    0.0000 S   0  0  0  0  0  0  0  0  0
   -3.2476   -0.3224    0.0000 O   0  0  0  0  0  0  0  0  0
   -3.6439   -1.9241    0.0000 O   0  0  0  0  0  0  0  0  0
   -2.6449   -1.3214    0.0000 C   0  0  0  0  0  0  0  0  0
   -1.8441   -1.5196    0.0000 C   0  0  0  0  0  0  0  0  0
   -1.2721   -0.9251    0.0000 C   0  0  0  0  0  0  0  0  0
   -0.4712   -1.1233    0.0000 C   0  0  0  0  0  0  0  0  0
    0.1008   -0.5288    0.0000 N   0  0  0  0  0  0  0  0  0
   -0.1280    0.2638    0.0000 C   0  0  0  0  0  0  0  0  0
    0.4441    0.8583    0.0000 C   0  0  0  0  0  0  0  0  0
    1.2449    0.6601    0.0000 C   0  0  0  0  0  0  0  0  0
    1.4737   -0.1325    0.0000 C   0  0  0  0  0  0  0  0  0
    0.9017   -0.7270    0.0000 C   0  0  0  0  0  0  0  0  0
    0.2152    1.6509    0.0000 C   0  0  0  0  0  0  0  0  0
   -0.0136    2.4436    0.0000 F   0  0  0  0  0  0  0  0  0
   -0.5774    1.4221    0.0000 F   0  0  0  0  0  0  0  0  0
    1.0079    1.8797    0.0000 F   0  0  0  0  0  0  0  0  0
   -2.4468   -0.5206    0.0000 C   0  0  0  0  0  0  0  0  0
   -2.8431   -2.1223    0.0000 C   0  0  0  0  0  0  0  0  0
   -4.2466   -0.9251    0.0000 C   0  0  0  0  0  0  0  0  0
   -4.8187   -1.5196    0.0000 C   0  0  0  0  0  0  0  0  0
   -5.6195   -1.3214    0.0000 C   0  0  0  0  0  0  0  0  0
   -5.8483   -0.5288    0.0000 C   0  0  0  0  0  0  0  0  0
   -5.2763    0.0657    0.0000 C   0  0  0  0  0  0  0  0  0
   -4.4754   -0.1325    0.0000 C   0  0  0  0  0  0  0  0  0
  1  2  2  0  0  0  0
  1  3  2  0  0  0  0
  1  4  1  0  0  0  0
  1 20  1  0  0  0  0
  4  5  1  0  0  0  0
  4 18  1  0  0  0  0
  4 19  1  0  0  0  0
  5  6  1  0  0  0  0
  6  7  1  0  0  0  0
  7  8  1  0  0  0  0
  8  9  1  0  0  0  0
  8 13  1  0  0  0  0
  9 10  1  0  0  0  0
 10 11  1  0  0  0  0
 10 14  1  0  0  0  0
 11 12  1  0  0  0  0
 12 13  1  0  0  0  0
 14 15  1  0  0  0  0
 14 16  1  0  0  0  0
 14 17  1  0  0  0  0
 20 21  4  0  0  0  0
 20 25  4  0  0  0  0
 21 22  4  0  0  0  0
 22 23  4  0  0  0  0
 23 24  4  0  0  0  0
 24 25  4  0  0  0  0
M  END
>  <Name_Molregno>
341446

>  <5-HT1A>
5.15

>  <5-HT1B>
5.15

>  <5-HT2A>
5.7

>  <5-HT7>
7.27

>  <DOPAMINE D2>
6

$$$$
341469
  Marvin  02231216192D 0   1.00000     0.00000     0

 26 27  0  0  1  0  0  0  0  0999 V2000
    0.2162    0.0185    0.0000 S   0  0  0  0  0  0  0  0  0
   -0.3239    0.6422    0.0000 O   0  0  0  0  0  0  0  0  0
    0.7563   -0.6051    0.0000 O   0  0  0  0  0  0  0  0  0
    0.8399    0.5586    0.0000 C   0  0  0  0  0  0  0  0  0
    1.4635    1.0987    0.0000 C   0  0  0  0  0  0  0  0  0
    2.2431    0.8287    0.0000 C   0  0  0  0  0  0  0  0  0
    2.3990    0.0185    0.0000 C   0  0  0  0  0  0  0  0  0
    3.1785   -0.2515    0.0000 N   0  0  0  0  0  0  0  0  0
    3.8022    0.2886    0.0000 C   0  0  0  0  0  0  0  0  0
    4.5817    0.0185    0.0000 C   0  0  0  0  0  0  0  0  0
    4.7376   -0.7916    0.0000 C   0  0  0  0  0  0  0  0  0
    4.1140   -1.3317    0.0000 C   0  0  0  0  0  0  0  0  0
    3.3344   -1.0616    0.0000 C   0  0  0  0  0  0  0  0  0
    5.2054    0.5586    0.0000 C   0  0  0  0  0  0  0  0  0
    5.9849    0.2886    0.0000 O   0  0  0  0  0  0  0  0  0
    6.6086    0.8287    0.0000 C   0  0  0  0  0  0  0  0  0
    7.3881    0.5586    0.0000 C   0  0  0  0  0  0  0  0  0
    5.0494    1.3688    0.0000 O   0  0  0  0  0  0  0  0  0
    0.2998    1.1823    0.0000 C   0  0  0  0  0  0  0  0  0
    1.3800   -0.0650    0.0000 C   0  0  0  0  0  0  0  0  0
   -0.4074   -0.5215    0.0000 C   0  0  0  0  0  0  0  0  0
   -0.2515   -1.3317    0.0000 C   0  0  0  0  0  0  0  0  0
   -0.8751   -1.8718    0.0000 C   0  0  0  0  0  0  0  0  0
   -1.6547   -1.6017    0.0000 C   0  0  0  0  0  0  0  0  0
   -1.8106   -0.7916    0.0000 C   0  0  0  0  0  0  0  0  0
   -1.1870   -0.2515    0.0000 C   0  0  0  0  0  0  0  0  0
  1  2  2  0  0  0  0
  1  3  2  0  0  0  0
  1  4  1  0  0  0  0
  1 21  1  0  0  0  0
  4  5  1  0  0  0  0
  4 19  1  0  0  0  0
  4 20  1  0  0  0  0
  5  6  1  0  0  0  0
  6  7  1  0  0  0  0
  7  8  1  0  0  0  0
  8  9  1  0  0  0  0
  8 13  1  0  0  0  0
  9 10  1  0  0  0  0
 10 11  1  0  0  0  0
 10 14  1  0  0  0  0
 11 12  1  0  0  0  0
 12 13  1  0  0  0  0
 14 15  1  0  0  0  0
 14 18  2  0  0  0  0
 15 16  1  0  0  0  0
 16 17  1  0  0  0  0
 21 22  4  0  0  0  0
 21 26  4  0  0  0  0
 22 23  4  0  0  0  0
 23 24  4  0  0  0  0
 24 25  4  0  0  0  0
 25 26  4  0  0  0  0
M  END
>  <Name_Molregno>
341469

>  <5-HT1A>
5.62

>  <5-HT1B>
5.15

>  <5-HT2A>
5.73

>  <5-HT7>
6.98

>  <DOPAMINE D2>
6.15

$$$$
341477
  Marvin  02231216192D 0   1.00000     0.00000     0

 28 31  0  0  1  0  0  0  0  0999 V2000
    1.2734   -2.3145    0.0000 S   0  0  0  0  0  0  0  0  0
    1.8568   -1.7311    0.0000 O   0  0  0  0  0  0  0  0  0
    0.6900   -2.8978    0.0000 O   0  0  0  0  0  0  0  0  0
    1.8568   -2.8978    0.0000 C   0  0  0  0  0  0  0  0  0
    2.4401   -3.4812    0.0000 C   0  0  0  0  0  0  0  0  0
    1.8568   -4.0646    0.0000 C   0  0  0  0  0  0  0  0  0
    1.2734   -3.4812    0.0000 C   0  0  0  0  0  0  0  0  0
    2.4401   -2.3145    0.0000 C   0  0  0  0  0  0  0  0  0
    2.2266   -1.5176    0.0000 C   0  0  0  0  0  0  0  0  0
    2.8100   -0.9342    0.0000 C   0  0  0  0  0  0  0  0  0
    2.5964   -0.1373    0.0000 C   0  0  0  0  0  0  0  0  0
    3.1798    0.4460    0.0000 N   0  0  0  0  0  0  0  0  0
    3.0507    1.2609    0.0000 C   0  0  0  0  0  0  0  0  0
    3.7858    1.6354    0.0000 C   0  0  0  0  0  0  0  0  0
    4.3692    1.0521    0.0000 C   0  0  0  0  0  0  0  0  0
    3.9947    0.3170    0.0000 C   0  0  0  0  0  0  0  0  0
    3.9149    2.4503    0.0000 C   0  0  0  0  0  0  0  0  0
    3.2737    2.9695    0.0000 C   0  0  0  0  0  0  0  0  0
    3.4028    3.7843    0.0000 C   0  0  0  0  0  0  0  0  0
    4.1730    4.0800    0.0000 C   0  0  0  0  0  0  0  0  0
    4.8142    3.5608    0.0000 C   0  0  0  0  0  0  0  0  0
    4.6851    2.7459    0.0000 C   0  0  0  0  0  0  0  0  0
    0.6900   -1.7311    0.0000 C   0  0  0  0  0  0  0  0  0
   -0.1068   -1.9446    0.0000 C   0  0  0  0  0  0  0  0  0
   -0.6902   -1.3613    0.0000 C   0  0  0  0  0  0  0  0  0
   -0.4767   -0.5644    0.0000 C   0  0  0  0  0  0  0  0  0
    0.3202   -0.3508    0.0000 C   0  0  0  0  0  0  0  0  0
    0.9036   -0.9342    0.0000 C   0  0  0  0  0  0  0  0  0
  1  2  2  0  0  0  0
  1  3  2  0  0  0  0
  1  4  1  0  0  0  0
  1 23  1  0  0  0  0
  4  5  1  0  0  0  0
  4  7  1  0  0  0  0
  4  8  1  0  0  0  0
  5  6  1  0  0  0  0
  6  7  1  0  0  0  0
  8  9  1  0  0  0  0
  9 10  1  0  0  0  0
 10 11  1  0  0  0  0
 11 12  1  0  0  0  0
 12 13  1  0  0  0  0
 12 16  1  0  0  0  0
 13 14  1  0  0  0  0
 14 15  1  0  0  0  0
 14 17  1  0  0  0  0
 15 16  1  0  0  0  0
 17 18  4  0  0  0  0
 17 22  4  0  0  0  0
 18 19  4  0  0  0  0
 19 20  4  0  0  0  0
 20 21  4  0  0  0  0
 21 22  4  0  0  0  0
 23 24  4  0  0  0  0
 23 28  4  0  0  0  0
 24 25  4  0  0  0  0
 25 26  4  0  0  0  0
 26 27  4  0  0  0  0
 27 28  4  0  0  0  0
M  END
>  <Name_Molregno>
341477

>  <5-HT7>
7.89

$$$$
341489
  Marvin  02231216192D 0   1.00000     0.00000     0

 27 30  0  0  1  0  0  0  0  0999 V2000
   -1.9841   -2.2360    0.0000 S   0  0  0  0  0  0  0  0  0
   -1.4008   -1.6526    0.0000 O   0  0  0  0  0  0  0  0  0
   -2.5675   -2.8193    0.0000 O   0  0  0  0  0  0  0  0  0
   -1.4008   -2.8193    0.0000 C   0  0  0  0  0  0  0  0  0
   -0.8174   -3.4027    0.0000 C   0  0  0  0  0  0  0  0  0
   -1.4008   -3.9861    0.0000 C   0  0  0  0  0  0  0  0  0
   -1.9841   -3.4027    0.0000 C   0  0  0  0  0  0  0  0  0
   -0.8174   -2.2360    0.0000 C   0  0  0  0  0  0  0  0  0
   -1.0309   -1.4391    0.0000 C   0  0  0  0  0  0  0  0  0
   -0.4476   -0.8557    0.0000 C   0  0  0  0  0  0  0  0  0
   -0.6611   -0.0588    0.0000 N   0  0  0  0  0  0  0  0  0
   -1.4313    0.2368    0.0000 C   0  0  0  0  0  0  0  0  0
   -1.3881    1.0607    0.0000 C   0  0  0  0  0  0  0  0  0
   -0.5912    1.2742    0.0000 C   0  0  0  0  0  0  0  0  0
   -0.1419    0.5823    0.0000 C   0  0  0  0  0  0  0  0  0
   -2.0293    1.5799    0.0000 C   0  0  0  0  0  0  0  0  0
   -2.7995    1.2842    0.0000 C   0  0  0  0  0  0  0  0  0
   -3.4406    1.8034    0.0000 C   0  0  0  0  0  0  0  0  0
   -3.3115    2.6183    0.0000 C   0  0  0  0  0  0  0  0  0
   -2.5413    2.9139    0.0000 C   0  0  0  0  0  0  0  0  0
   -1.9002    2.3947    0.0000 C   0  0  0  0  0  0  0  0  0
   -2.5675   -1.6526    0.0000 C   0  0  0  0  0  0  0  0  0
   -3.3644   -1.8661    0.0000 C   0  0  0  0  0  0  0  0  0
   -3.9477   -1.2828    0.0000 C   0  0  0  0  0  0  0  0  0
   -3.7342   -0.4859    0.0000 C   0  0  0  0  0  0  0  0  0
   -2.9373   -0.2724    0.0000 C   0  0  0  0  0  0  0  0  0
   -2.3540   -0.8557    0.0000 C   0  0  0  0  0  0  0  0  0
  1  2  2  0  0  0  0
  1  3  2  0  0  0  0
  1  4  1  0  0  0  0
  1 22  1  0  0  0  0
  4  5  1  0  0  0  0
  4  7  1  0  0  0  0
  4  8  1  0  0  0  0
  5  6  1  0  0  0  0
  6  7  1  0  0  0  0
  8  9  1  0  0  0  0
  9 10  1  0  0  0  0
 10 11  1  0  0  0  0
 11 12  1  0  0  0  0
 11 15  1  0  0  0  0
 12 13  1  0  0  0  0
 13 14  1  0  0  0  0
 13 16  1  0  0  0  0
 14 15  1  0  0  0  0
 16 17  4  0  0  0  0
 16 21  4  0  0  0  0
 17 18  4  0  0  0  0
 18 19  4  0  0  0  0
 19 20  4  0  0  0  0
 20 21  4  0  0  0  0
 22 23  4  0  0  0  0
 22 27  4  0  0  0  0
 23 24  4  0  0  0  0
 24 25  4  0  0  0  0
 25 26  4  0  0  0  0
 26 27  4  0  0  0  0
M  END
>  <Name_Molregno>
341489

>  <5-HT7>
8.05

$$$$
341498
  Marvin  02231216192D 0   1.00000     0.00000     0

 26 29  0  0  1  0  0  0  0  0999 V2000
    0.8641   -1.6426    0.0000 S   0  0  0  0  0  0  0  0  0
    1.4475   -1.0592    0.0000 O   0  0  0  0  0  0  0  0  0
    0.2808   -2.2259    0.0000 O   0  0  0  0  0  0  0  0  0
    1.4475   -2.2259    0.0000 C   0  0  0  0  0  0  0  0  0
    2.0308   -2.8093    0.0000 C   0  0  0  0  0  0  0  0  0
    1.4475   -3.3926    0.0000 C   0  0  0  0  0  0  0  0  0
    0.8641   -2.8093    0.0000 C   0  0  0  0  0  0  0  0  0
    2.0308   -1.6426    0.0000 C   0  0  0  0  0  0  0  0  0
    1.8173   -0.8457    0.0000 C   0  0  0  0  0  0  0  0  0
    2.4007   -0.2623    0.0000 N   0  0  0  0  0  0  0  0  0
    2.2716    0.5525    0.0000 C   0  0  0  0  0  0  0  0  0
    3.0067    0.9271    0.0000 C   0  0  0  0  0  0  0  0  0
    3.5901    0.3437    0.0000 C   0  0  0  0  0  0  0  0  0
    3.2155   -0.3914    0.0000 C   0  0  0  0  0  0  0  0  0
    3.1358    1.7419    0.0000 C   0  0  0  0  0  0  0  0  0
    2.4946    2.2611    0.0000 C   0  0  0  0  0  0  0  0  0
    2.6237    3.0760    0.0000 C   0  0  0  0  0  0  0  0  0
    3.3939    3.3716    0.0000 C   0  0  0  0  0  0  0  0  0
    4.0350    2.8524    0.0000 C   0  0  0  0  0  0  0  0  0
    3.9060    2.0376    0.0000 C   0  0  0  0  0  0  0  0  0
    0.2808   -1.0592    0.0000 C   0  0  0  0  0  0  0  0  0
   -0.5161   -1.2727    0.0000 C   0  0  0  0  0  0  0  0  0
   -1.0995   -0.6894    0.0000 C   0  0  0  0  0  0  0  0  0
   -0.8860    0.1075    0.0000 C   0  0  0  0  0  0  0  0  0
   -0.0891    0.3211    0.0000 C   0  0  0  0  0  0  0  0  0
    0.4943   -0.2623    0.0000 C   0  0  0  0  0  0  0  0  0
  1  2  2  0  0  0  0
  1  3  2  0  0  0  0
  1  4  1  0  0  0  0
  1 21  1  0  0  0  0
  4  5  1  0  0  0  0
  4  7  1  0  0  0  0
  4  8  1  0  0  0  0
  5  6  1  0  0  0  0
  6  7  1  0  0  0  0
  8  9  1  0  0  0  0
  9 10  1  0  0  0  0
 10 11  1  0  0  0  0
 10 14  1  0  0  0  0
 11 12  1  0  0  0  0
 12 13  1  0  0  0  0
 12 15  1  0  0  0  0
 13 14  1  0  0  0  0
 15 16  4  0  0  0  0
 15 20  4  0  0  0  0
 16 17  4  0  0  0  0
 17 18  4  0  0  0  0
 18 19  4  0  0  0  0
 19 20  4  0  0  0  0
 21 22  4  0  0  0  0
 21 26  4  0  0  0  0
 22 23  4  0  0  0  0
 23 24  4  0  0  0  0
 24 25  4  0  0  0  0
 25 26  4  0  0  0  0
M  END
>  <Name_Molregno>
341498

>  <5-HT7>
7.28

$$$$
341518
  Marvin  02231216192D 0   1.00000     0.00000     0

 25 27  0  0  1  0  0  0  0  0999 V2000
   -3.8526   -0.6700    0.0000 S   0  0  0  0  0  0  0  0  0
   -3.6545    0.1308    0.0000 O   0  0  0  0  0  0  0  0  0
   -4.0508   -1.4709    0.0000 O   0  0  0  0  0  0  0  0  0
   -3.0518   -0.8682    0.0000 C   0  0  0  0  0  0  0  0  0
   -2.2509   -1.0663    0.0000 C   0  0  0  0  0  0  0  0  0
   -1.6789   -0.4719    0.0000 C   0  0  0  0  0  0  0  0  0
   -0.8780   -0.6700    0.0000 C   0  0  0  0  0  0  0  0  0
   -0.3060   -0.0756    0.0000 N   0  0  0  0  0  0  0  0  0
    0.4948   -0.2737    0.0000 C   0  0  0  0  0  0  0  0  0
    1.0669    0.3208    0.0000 C   0  0  0  0  0  0  0  0  0
    0.8381    1.1134    0.0000 C   0  0  0  0  0  0  0  0  0
    1.4101    1.7079    0.0000 C   0  0  0  0  0  0  0  0  0
    2.2109    1.5097    0.0000 C   0  0  0  0  0  0  0  0  0
    2.4398    0.7171    0.0000 C   0  0  0  0  0  0  0  0  0
    1.8677    0.1226    0.0000 C   0  0  0  0  0  0  0  0  0
    0.0372    1.3116    0.0000 C   0  0  0  0  0  0  0  0  0
   -0.5348    0.7171    0.0000 C   0  0  0  0  0  0  0  0  0
   -2.8536   -0.0673    0.0000 C   0  0  0  0  0  0  0  0  0
   -3.2499   -1.6690    0.0000 C   0  0  0  0  0  0  0  0  0
   -4.6535   -0.4719    0.0000 C   0  0  0  0  0  0  0  0  0
   -5.2255   -1.0663    0.0000 C   0  0  0  0  0  0  0  0  0
   -6.0263   -0.8682    0.0000 C   0  0  0  0  0  0  0  0  0
   -6.2552   -0.0756    0.0000 C   0  0  0  0  0  0  0  0  0
   -5.6831    0.5189    0.0000 C   0  0  0  0  0  0  0  0  0
   -4.8823    0.3208    0.0000 C   0  0  0  0  0  0  0  0  0
  1  2  2  0  0  0  0
  1  3  2  0  0  0  0
  1  4  1  0  0  0  0
  1 20  1  0  0  0  0
  4  5  1  0  0  0  0
  4 18  1  0  0  0  0
  4 19  1  0  0  0  0
  5  6  1  0  0  0  0
  6  7  1  0  0  0  0
  7  8  1  0  0  0  0
  8  9  1  0  0  0  0
  8 17  1  0  0  0  0
  9 10  1  0  0  0  0
 10 11  1  0  0  0  0
 10 15  1  0  0  0  0
 11 12  1  0  0  0  0
 11 16  1  0  0  0  0
 12 13  1  0  0  0  0
 13 14  1  0  0  0  0
 14 15  1  0  0  0  0
 16 17  1  0  0  0  0
 20 21  4  0  0  0  0
 20 25  4  0  0  0  0
 21 22  4  0  0  0  0
 22 23  4  0  0  0  0
 23 24  4  0  0  0  0
 24 25  4  0  0  0  0
M  END
>  <Name_Molregno>
341518

>  <5-HT1A>
5.82

>  <5-HT1B>
5.15

>  <5-HT2A>
5.7

>  <5-HT7>
8.1

>  <DOPAMINE D2>
6.05

$$$$
341813
  Marvin  02231216192D 0   1.00000     0.00000     0

 22 24  0  0  0  0  0  0  0  0999 V2000
   -1.0845   -0.2673    0.0000 S   0  0  0  0  0  0  0  0  0
   -0.5011    0.3161    0.0000 O   0  0  0  0  0  0  0  0  0
   -1.6679   -0.8506    0.0000 O   0  0  0  0  0  0  0  0  0
   -0.5011   -0.8506    0.0000 C   0  0  0  0  0  0  0  0  0
    0.0822   -1.4340    0.0000 C   0  0  0  0  0  0  0  0  0
   -0.5011   -2.0174    0.0000 C   0  0  0  0  0  0  0  0  0
   -1.0845   -1.4340    0.0000 C   0  0  0  0  0  0  0  0  0
    0.0822   -0.2673    0.0000 C   0  0  0  0  0  0  0  0  0
   -0.1313    0.5296    0.0000 C   0  0  0  0  0  0  0  0  0
    0.4521    1.1130    0.0000 C   0  0  0  0  0  0  0  0  0
    0.2385    1.9099    0.0000 N   0  0  0  0  0  0  0  0  0
   -0.5583    2.1234    0.0000 C   0  0  0  0  0  0  0  0  0
   -0.7719    2.9203    0.0000 C   0  0  0  0  0  0  0  0  0
   -0.1885    3.5036    0.0000 O   0  0  0  0  0  0  0  0  0
    0.6084    3.2901    0.0000 C   0  0  0  0  0  0  0  0  0
    0.8219    2.4932    0.0000 C   0  0  0  0  0  0  0  0  0
   -1.6679    0.3161    0.0000 C   0  0  0  0  0  0  0  0  0
   -2.4647    0.1026    0.0000 C   0  0  0  0  0  0  0  0  0
   -3.0481    0.6859    0.0000 C   0  0  0  0  0  0  0  0  0
   -2.8346    1.4828    0.0000 C   0  0  0  0  0  0  0  0  0
   -2.0377    1.6963    0.0000 C   0  0  0  0  0  0  0  0  0
   -1.4543    1.1130    0.0000 C   0  0  0  0  0  0  0  0  0
  1  2  2  0  0  0  0
  1  3  2  0  0  0  0
  1  4  1  0  0  0  0
  1 17  1  0  0  0  0
  4  5  1  0  0  0  0
  4  7  1  0  0  0  0
  4  8  1  0  0  0  0
  5  6  1  0  0  0  0
  6  7  1  0  0  0  0
  8  9  1  0  0  0  0
  9 10  1  0  0  0  0
 10 11  1  0  0  0  0
 11 12  1  0  0  0  0
 11 16  1  0  0  0  0
 12 13  1  0  0  0  0
 13 14  1  0  0  0  0
 14 15  1  0  0  0  0
 15 16  1  0  0  0  0
 17 18  4  0  0  0  0
 17 22  4  0  0  0  0
 18 19  4  0  0  0  0
 19 20  4  0  0  0  0
 20 21  4  0  0  0  0
 21 22  4  0  0  0  0
M  END
>  <Name_Molregno>
341813

>  <5-HT7>
5.15

$$$$
341814
  Marvin  02231216192D 0   1.00000     0.00000     0

 23 25  0  0  0  0  0  0  0  0999 V2000
   -1.2690   -0.3371    0.0000 S   0  0  0  0  0  0  0  0  0
   -0.6857    0.2463    0.0000 O   0  0  0  0  0  0  0  0  0
   -1.8524   -0.9205    0.0000 O   0  0  0  0  0  0  0  0  0
   -0.6857   -0.9205    0.0000 C   0  0  0  0  0  0  0  0  0
   -0.1023   -1.5038    0.0000 C   0  0  0  0  0  0  0  0  0
   -0.6857   -2.0872    0.0000 C   0  0  0  0  0  0  0  0  0
   -1.2690   -1.5038    0.0000 C   0  0  0  0  0  0  0  0  0
   -0.1023   -0.3371    0.0000 C   0  0  0  0  0  0  0  0  0
   -0.3158    0.4598    0.0000 C   0  0  0  0  0  0  0  0  0
    0.2675    1.0432    0.0000 C   0  0  0  0  0  0  0  0  0
    0.0540    1.8400    0.0000 N   0  0  0  0  0  0  0  0  0
   -0.7429    2.0536    0.0000 C   0  0  0  0  0  0  0  0  0
   -0.9564    2.8505    0.0000 C   0  0  0  0  0  0  0  0  0
   -0.3731    3.4338    0.0000 C   0  0  0  0  0  0  0  0  0
    0.4238    3.2203    0.0000 C   0  0  0  0  0  0  0  0  0
    0.6374    2.4234    0.0000 C   0  0  0  0  0  0  0  0  0
   -0.5866    4.2307    0.0000 C   0  0  0  0  0  0  0  0  0
   -1.8524    0.2463    0.0000 C   0  0  0  0  0  0  0  0  0
   -2.6493    0.0327    0.0000 C   0  0  0  0  0  0  0  0  0
   -3.2327    0.6161    0.0000 C   0  0  0  0  0  0  0  0  0
   -3.0191    1.4130    0.0000 C   0  0  0  0  0  0  0  0  0
   -2.2222    1.6265    0.0000 C   0  0  0  0  0  0  0  0  0
   -1.6389    1.0432    0.0000 C   0  0  0  0  0  0  0  0  0
  1  2  2  0  0  0  0
  1  3  2  0  0  0  0
  1  4  1  0  0  0  0
  1 18  1  0  0  0  0
  4  5  1  0  0  0  0
  4  7  1  0  0  0  0
  4  8  1  0  0  0  0
  5  6  1  0  0  0  0
  6  7  1  0  0  0  0
  8  9  1  0  0  0  0
  9 10  1  0  0  0  0
 10 11  1  0  0  0  0
 11 12  1  0  0  0  0
 11 16  1  0  0  0  0
 12 13  1  0  0  0  0
 13 14  1  0  0  0  0
 14 15  1  0  0  0  0
 14 17  1  0  0  0  0
 15 16  1  0  0  0  0
 18 19  4  0  0  0  0
 18 23  4  0  0  0  0
 19 20  4  0  0  0  0
 20 21  4  0  0  0  0
 21 22  4  0  0  0  0
 22 23  4  0  0  0  0
M  END
>  <Name_Molregno>
341814

>  <5-HT7>
6.26

$$$$
341815
  Marvin  02231216192D 0   1.00000     0.00000     0

 23 25  0  0  0  0  0  0  0  0999 V2000
   -1.2690   -0.3371    0.0000 S   0  0  0  0  0  0  0  0  0
   -0.6857    0.2463    0.0000 O   0  0  0  0  0  0  0  0  0
   -1.8524   -0.9205    0.0000 O   0  0  0  0  0  0  0  0  0
   -0.6857   -0.9205    0.0000 C   0  0  0  0  0  0  0  0  0
   -0.1023   -1.5038    0.0000 C   0  0  0  0  0  0  0  0  0
   -0.6857   -2.0872    0.0000 C   0  0  0  0  0  0  0  0  0
   -1.2690   -1.5038    0.0000 C   0  0  0  0  0  0  0  0  0
   -0.1023   -0.3371    0.0000 C   0  0  0  0  0  0  0  0  0
   -0.3158    0.4598    0.0000 C   0  0  0  0  0  0  0  0  0
    0.2675    1.0432    0.0000 C   0  0  0  0  0  0  0  0  0
    0.0540    1.8400    0.0000 N   0  0  0  0  0  0  0  0  0
   -0.7429    2.0536    0.0000 C   0  0  0  0  0  0  0  0  0
   -0.9564    2.8505    0.0000 C   0  0  0  0  0  0  0  0  0
   -0.3731    3.4338    0.0000 N   0  0  0  0  0  0  0  0  0
    0.4238    3.2203    0.0000 C   0  0  0  0  0  0  0  0  0
    0.6374    2.4234    0.0000 C   0  0  0  0  0  0  0  0  0
   -0.5866    4.2307    0.0000 C   0  0  0  0  0  0  0  0  0
   -1.8524    0.2463    0.0000 C   0  0  0  0  0  0  0  0  0
   -2.6493    0.0327    0.0000 C   0  0  0  0  0  0  0  0  0
   -3.2327    0.6161    0.0000 C   0  0  0  0  0  0  0  0  0
   -3.0191    1.4130    0.0000 C   0  0  0  0  0  0  0  0  0
   -2.2222    1.6265    0.0000 C   0  0  0  0  0  0  0  0  0
   -1.6389    1.0432    0.0000 C   0  0  0  0  0  0  0  0  0
  1  2  2  0  0  0  0
  1  3  2  0  0  0  0
  1  4  1  0  0  0  0
  1 18  1  0  0  0  0
  4  5  1  0  0  0  0
  4  7  1  0  0  0  0
  4  8  1  0  0  0  0
  5  6  1  0  0  0  0
  6  7  1  0  0  0  0
  8  9  1  0  0  0  0
  9 10  1  0  0  0  0
 10 11  1  0  0  0  0
 11 12  1  0  0  0  0
 11 16  1  0  0  0  0
 12 13  1  0  0  0  0
 13 14  1  0  0  0  0
 14 15  1  0  0  0  0
 14 17  1  0  0  0  0
 15 16  1  0  0  0  0
 18 19  4  0  0  0  0
 18 23  4  0  0  0  0
 19 20  4  0  0  0  0
 20 21  4  0  0  0  0
 21 22  4  0  0  0  0
 22 23  4  0  0  0  0
M  END
>  <Name_Molregno>
341815

>  <5-HT7>
5.24

$$$$
341822
  Marvin  02231216192D 0   1.00000     0.00000     0

 28 31  0  0  0  0  0  0  0  0999 V2000
    1.4881   -0.6961    0.0000 S   0  0  0  0  0  0  0  0  0
    2.0715   -0.1127    0.0000 O   0  0  0  0  0  0  0  0  0
    0.9047   -1.2794    0.0000 O   0  0  0  0  0  0  0  0  0
    2.0715   -1.2794    0.0000 C   0  0  0  0  0  0  0  0  0
    2.6548   -1.8628    0.0000 C   0  0  0  0  0  0  0  0  0
    2.0715   -2.4461    0.0000 C   0  0  0  0  0  0  0  0  0
    1.4881   -1.8628    0.0000 C   0  0  0  0  0  0  0  0  0
    2.6548   -0.6961    0.0000 C   0  0  0  0  0  0  0  0  0
    2.4413    0.1008    0.0000 C   0  0  0  0  0  0  0  0  0
    3.0247    0.6842    0.0000 C   0  0  0  0  0  0  0  0  0
    2.8111    1.4811    0.0000 N   0  0  0  0  0  0  0  0  0
    2.0142    1.6946    0.0000 C   0  0  0  0  0  0  0  0  0
    1.8007    2.4915    0.0000 C   0  0  0  0  0  0  0  0  0
    2.3841    3.0749    0.0000 N   0  0  0  0  0  0  0  0  0
    3.1810    2.8613    0.0000 C   0  0  0  0  0  0  0  0  0
    3.3945    2.0644    0.0000 C   0  0  0  0  0  0  0  0  0
    2.1706    3.8718    0.0000 C   0  0  0  0  0  0  0  0  0
    1.3737    4.0853    0.0000 C   0  0  0  0  0  0  0  0  0
    1.1601    4.8822    0.0000 C   0  0  0  0  0  0  0  0  0
    1.7435    5.4655    0.0000 C   0  0  0  0  0  0  0  0  0
    2.5404    5.2520    0.0000 C   0  0  0  0  0  0  0  0  0
    2.7539    4.4551    0.0000 C   0  0  0  0  0  0  0  0  0
    0.9047   -0.1127    0.0000 C   0  0  0  0  0  0  0  0  0
    0.1078   -0.3262    0.0000 C   0  0  0  0  0  0  0  0  0
   -0.4755    0.2571    0.0000 C   0  0  0  0  0  0  0  0  0
   -0.2620    1.0540    0.0000 C   0  0  0  0  0  0  0  0  0
    0.5349    1.2676    0.0000 C   0  0  0  0  0  0  0  0  0
    1.1183    0.6842    0.0000 C   0  0  0  0  0  0  0  0  0
  1  2  2  0  0  0  0
  1  3  2  0  0  0  0
  1  4  1  0  0  0  0
  1 23  1  0  0  0  0
  4  5  1  0  0  0  0
  4  7  1  0  0  0  0
  4  8  1  0  0  0  0
  5  6  1  0  0  0  0
  6  7  1  0  0  0  0
  8  9  1  0  0  0  0
  9 10  1  0  0  0  0
 10 11  1  0  0  0  0
 11 12  1  0  0  0  0
 11 16  1  0  0  0  0
 12 13  1  0  0  0  0
 13 14  1  0  0  0  0
 14 15  1  0  0  0  0
 14 17  1  0  0  0  0
 15 16  1  0  0  0  0
 17 18  4  0  0  0  0
 17 22  4  0  0  0  0
 18 19  4  0  0  0  0
 19 20  4  0  0  0  0
 20 21  4  0  0  0  0
 21 22  4  0  0  0  0
 23 24  4  0  0  0  0
 23 28  4  0  0  0  0
 24 25  4  0  0  0  0
 25 26  4  0  0  0  0
 26 27  4  0  0  0  0
 27 28  4  0  0  0  0
M  END
>  <Name_Molregno>
341822

>  <5-HT7>
7.66

$$$$
341823
  Marvin  02231216192D 0   1.00000     0.00000     0

 26 29  0  0  1  0  0  0  0  0999 V2000
    0.1056    0.3624    0.0000 S   0  0  0  0  0  0  0  0  0
    0.8201   -0.0501    0.0000 O   0  0  0  0  0  0  0  0  0
   -0.6089    0.7749    0.0000 O   0  0  0  0  0  0  0  0  0
   -0.3069   -0.3520    0.0000 C   0  0  0  0  0  0  0  0  0
   -0.7194   -1.0665    0.0000 C   0  0  0  0  0  0  0  0  0
   -1.4339   -0.6540    0.0000 C   0  0  0  0  0  0  0  0  0
   -1.0214    0.0605    0.0000 C   0  0  0  0  0  0  0  0  0
    0.4076   -0.7645    0.0000 C   0  0  0  0  0  0  0  0  0
    1.1221   -0.3520    0.0000 C   0  0  0  0  0  0  0  0  0
    1.8365   -0.7645    0.0000 C   0  0  0  0  0  0  0  0  0
    2.5510   -0.3520    0.0000 N   0  0  0  0  0  0  0  0  0
    3.2655   -0.7645    0.0000 C   0  0  0  0  0  0  0  0  0
    3.9799   -0.3520    0.0000 C   0  0  0  0  0  0  0  0  0
    3.9799    0.4730    0.0000 C   0  0  0  0  0  0  0  0  0
    4.6944    0.8855    0.0000 C   0  0  0  0  0  0  0  0  0
    5.4089    0.4730    0.0000 C   0  0  0  0  0  0  0  0  0
    5.4089   -0.3520    0.0000 C   0  0  0  0  0  0  0  0  0
    4.6944   -0.7645    0.0000 C   0  0  0  0  0  0  0  0  0
    3.2655    0.8855    0.0000 C   0  0  0  0  0  0  0  0  0
    2.5510    0.4730    0.0000 C   0  0  0  0  0  0  0  0  0
    0.5181    1.0769    0.0000 C   0  0  0  0  0  0  0  0  0
    0.1056    1.7914    0.0000 C   0  0  0  0  0  0  0  0  0
    0.5181    2.5058    0.0000 C   0  0  0  0  0  0  0  0  0
    1.3431    2.5058    0.0000 C   0  0  0  0  0  0  0  0  0
    1.7556    1.7914    0.0000 C   0  0  0  0  0  0  0  0  0
    1.3431    1.0769    0.0000 C   0  0  0  0  0  0  0  0  0
  1  2  2  0  0  0  0
  1  3  2  0  0  0  0
  1  4  1  0  0  0  0
  1 21  1  0  0  0  0
  4  5  1  0  0  0  0
  4  7  1  0  0  0  0
  4  8  1  0  0  0  0
  5  6  1  0  0  0  0
  6  7  1  0  0  0  0
  8  9  1  0  0  0  0
  9 10  1  0  0  0  0
 10 11  1  0  0  0  0
 11 12  1  0  0  0  0
 11 20  1  0  0  0  0
 12 13  1  0  0  0  0
 13 14  1  0  0  0  0
 13 18  1  0  0  0  0
 14 15  1  0  0  0  0
 14 19  1  0  0  0  0
 15 16  1  0  0  0  0
 16 17  1  0  0  0  0
 17 18  1  0  0  0  0
 19 20  1  0  0  0  0
 21 22  4  0  0  0  0
 21 26  4  0  0  0  0
 22 23  4  0  0  0  0
 23 24  4  0  0  0  0
 24 25  4  0  0  0  0
 25 26  4  0  0  0  0
M  END
>  <Name_Molregno>
341823

>  <5-HT1A>
6.68

>  <5-HT2A>
6.24

>  <5-HT7>
8.22

$$$$
341840
  Marvin  02231216192D 0   1.00000     0.00000     0

 19 20  0  0  0  0  0  0  0  0999 V2000
   -0.2496    0.4759    0.0000 S   0  0  0  0  0  0  0  0  0
    0.4648    0.0634    0.0000 O   0  0  0  0  0  0  0  0  0
   -0.9641    0.8884    0.0000 O   0  0  0  0  0  0  0  0  0
   -0.6621   -0.2386    0.0000 C   0  0  0  0  0  0  0  0  0
   -1.0746   -0.9531    0.0000 C   0  0  0  0  0  0  0  0  0
   -1.7891   -0.5406    0.0000 C   0  0  0  0  0  0  0  0  0
   -1.3766    0.1739    0.0000 C   0  0  0  0  0  0  0  0  0
    0.0523   -0.6511    0.0000 C   0  0  0  0  0  0  0  0  0
    0.7668   -0.2386    0.0000 C   0  0  0  0  0  0  0  0  0
    1.4813   -0.6511    0.0000 C   0  0  0  0  0  0  0  0  0
    2.1958   -0.2386    0.0000 N   0  0  0  0  0  0  0  0  0
    2.9102   -0.6511    0.0000 C   0  0  0  0  0  0  0  0  0
    2.1958    0.5864    0.0000 C   0  0  0  0  0  0  0  0  0
    0.1629    1.1903    0.0000 C   0  0  0  0  0  0  0  0  0
   -0.2496    1.9048    0.0000 C   0  0  0  0  0  0  0  0  0
    0.1629    2.6193    0.0000 C   0  0  0  0  0  0  0  0  0
    0.9879    2.6193    0.0000 C   0  0  0  0  0  0  0  0  0
    1.4004    1.9048    0.0000 C   0  0  0  0  0  0  0  0  0
    0.9879    1.1903    0.0000 C   0  0  0  0  0  0  0  0  0
  1  2  2  0  0  0  0
  1  3  2  0  0  0  0
  1  4  1  0  0  0  0
  1 14  1  0  0  0  0
  4  5  1  0  0  0  0
  4  7  1  0  0  0  0
  4  8  1  0  0  0  0
  5  6  1  0  0  0  0
  6  7  1  0  0  0  0
  8  9  1  0  0  0  0
  9 10  1  0  0  0  0
 10 11  1  0  0  0  0
 11 12  1  0  0  0  0
 11 13  1  0  0  0  0
 14 15  4  0  0  0  0
 14 19  4  0  0  0  0
 15 16  4  0  0  0  0
 16 17  4  0  0  0  0
 17 18  4  0  0  0  0
 18 19  4  0  0  0  0
M  END
>  <Name_Molregno>
341840

>  <5-HT7>
5.15

$$$$
341848
  Marvin  02231216192D 0   1.00000     0.00000     0

 22 24  0  0  0  0  0  0  0  0999 V2000
   -1.0845   -0.2673    0.0000 S   0  0  0  0  0  0  0  0  0
   -0.5011    0.3161    0.0000 O   0  0  0  0  0  0  0  0  0
   -1.6679   -0.8506    0.0000 O   0  0  0  0  0  0  0  0  0
   -0.5011   -0.8506    0.0000 C   0  0  0  0  0  0  0  0  0
    0.0822   -1.4340    0.0000 C   0  0  0  0  0  0  0  0  0
   -0.5011   -2.0174    0.0000 C   0  0  0  0  0  0  0  0  0
   -1.0845   -1.4340    0.0000 C   0  0  0  0  0  0  0  0  0
    0.0822   -0.2673    0.0000 C   0  0  0  0  0  0  0  0  0
   -0.1313    0.5296    0.0000 C   0  0  0  0  0  0  0  0  0
    0.4521    1.1130    0.0000 C   0  0  0  0  0  0  0  0  0
    0.2385    1.9099    0.0000 N   0  0  0  0  0  0  0  0  0
   -0.5583    2.1234    0.0000 C   0  0  0  0  0  0  0  0  0
   -0.7719    2.9203    0.0000 C   0  0  0  0  0  0  0  0  0
   -0.1885    3.5036    0.0000 C   0  0  0  0  0  0  0  0  0
    0.6084    3.2901    0.0000 C   0  0  0  0  0  0  0  0  0
    0.8219    2.4932    0.0000 C   0  0  0  0  0  0  0  0  0
   -1.6679    0.3161    0.0000 C   0  0  0  0  0  0  0  0  0
   -2.4647    0.1026    0.0000 C   0  0  0  0  0  0  0  0  0
   -3.0481    0.6859    0.0000 C   0  0  0  0  0  0  0  0  0
   -2.8346    1.4828    0.0000 C   0  0  0  0  0  0  0  0  0
   -2.0377    1.6963    0.0000 C   0  0  0  0  0  0  0  0  0
   -1.4543    1.1130    0.0000 C   0  0  0  0  0  0  0  0  0
  1  2  2  0  0  0  0
  1  3  2  0  0  0  0
  1  4  1  0  0  0  0
  1 17  1  0  0  0  0
  4  5  1  0  0  0  0
  4  7  1  0  0  0  0
  4  8  1  0  0  0  0
  5  6  1  0  0  0  0
  6  7  1  0  0  0  0
  8  9  1  0  0  0  0
  9 10  1  0  0  0  0
 10 11  1  0  0  0  0
 11 12  1  0  0  0  0
 11 16  1  0  0  0  0
 12 13  1  0  0  0  0
 13 14  1  0  0  0  0
 14 15  1  0  0  0  0
 15 16  1  0  0  0  0
 17 18  4  0  0  0  0
 17 22  4  0  0  0  0
 18 19  4  0  0  0  0
 19 20  4  0  0  0  0
 20 21  4  0  0  0  0
 21 22  4  0  0  0  0
M  END
>  <Name_Molregno>
341848

>  <5-HT7>
5.57

$$$$
342514
  Marvin  02231216192D 0   1.00000     0.00000     0

 20 23  0  0  1  0  0  0  0  0999 V2000
   -3.9747   -0.6378    0.0000 O   0  0  0  0  0  0  0  0  0
   -4.5268   -1.2508    0.0000 C   0  0  0  0  0  0  0  0  0
   -5.3338   -1.0793    0.0000 C   0  0  0  0  0  0  0  0  0
   -6.1184   -1.3343    0.0000 C   0  0  0  0  0  0  0  0  0
   -5.9468   -0.5273    0.0000 C   0  0  0  0  0  0  0  0  0
   -3.1678   -0.8093    0.0000 C   0  0  0  0  0  0  0  0  0
   -2.6157   -0.1962    0.0000 C   0  0  0  0  0  0  0  0  0
   -1.8088   -0.3677    0.0000 N   0  0  0  0  0  0  0  0  0
   -1.2567    0.2454    0.0000 C   0  0  0  0  0  0  0  0  0
   -0.4317    0.2454    0.0000 N   0  0  0  0  0  0  0  0  0
   -0.1768    1.0300    0.0000 C   0  0  0  0  0  0  0  0  0
   -0.8442    1.5149    0.0000 C   0  0  0  0  0  0  0  0  0
   -1.5117    1.0300    0.0000 C   0  0  0  0  0  0  0  0  0
   -2.3187    1.2015    0.0000 C   0  0  0  0  0  0  0  0  0
   -2.8707    0.5884    0.0000 C   0  0  0  0  0  0  0  0  0
    0.6302    1.2015    0.0000 C   0  0  0  0  0  0  0  0  0
    1.1822    0.5884    0.0000 N   0  0  0  0  0  0  0  0  0
    0.9273   -0.1962    0.0000 C   0  0  0  0  0  0  0  0  0
    0.1203   -0.3677    0.0000 C   0  0  0  0  0  0  0  0  0
   -0.1346   -1.1523    0.0000 C   0  0  0  0  0  0  0  0  0
  1  2  1  0  0  0  0
  1  6  1  0  0  0  0
  2  3  1  0  0  0  0
  3  4  1  0  0  0  0
  3  5  1  0  0  0  0
  4  5  1  0  0  0  0
  6  7  1  0  0  0  0
  7  8  4  0  0  0  0
  7 15  4  0  0  0  0
  8  9  4  0  0  0  0
  9 10  1  0  0  0  0
  9 13  4  0  0  0  0
 10 11  1  0  0  0  0
 10 19  1  0  0  0  0
 11 12  1  0  0  0  0
 11 16  1  0  0  0  0
 12 13  1  0  0  0  0
 13 14  4  0  0  0  0
 14 15  4  0  0  0  0
 16 17  1  0  0  0  0
 17 18  1  0  0  0  0
 18 19  1  0  0  0  0
 19 20  1  0  0  0  0
M  END
>  <Name_Molregno>
342514

>  <5-HT1A>
6.14

>  <5-HT1B>
6.14

>  <5-HT1D>
6.44

>  <5-HT2A>
7.13

>  <5-HT2C>
8.44

>  <5-HT3>
6

>  <5-HT5>
6.14

>  <5-HT6>
6.14

>  <5-HT7>
6

>  <Beta-1>
6

>  <DOPAMINE D4>
6.14

>  <Dopamine transporter>
6

>  <Norepinephrine transporter>
6

>  <Serotonin transporter>
6

$$$$
344371
  Marvin  02231216192D 0   1.00000     0.00000     0

 27 29  0  0  0  0  0  0  0  0999 V2000
   -8.3424    3.5017    0.0000 O   0  0  0  0  0  0  0  0  0
   -9.0569    3.9142    0.0000 C   0  0  0  0  0  0  0  0  0
   -8.3424    2.6767    0.0000 C   0  0  0  0  0  0  0  0  0
   -7.6279    2.2642    0.0000 C   0  0  0  0  0  0  0  0  0
   -7.6279    1.4392    0.0000 C   0  0  0  0  0  0  0  0  0
   -6.9134    1.0267    0.0000 N   0  0  0  0  0  0  0  0  0
   -6.1990    1.4392    0.0000 C   0  0  0  0  0  0  0  0  0
   -5.4845    1.0267    0.0000 C   0  0  0  0  0  0  0  0  0
   -5.4845    0.2017    0.0000 N   0  0  0  0  0  0  0  0  0
   -6.1990   -0.2108    0.0000 C   0  0  0  0  0  0  0  0  0
   -6.9134    0.2017    0.0000 C   0  0  0  0  0  0  0  0  0
   -4.7700   -0.2108    0.0000 C   0  0  0  0  0  0  0  0  0
   -4.0556    0.2017    0.0000 C   0  0  0  0  0  0  0  0  0
   -3.3411   -0.2108    0.0000 C   0  0  0  0  0  0  0  0  0
   -2.6266    0.2017    0.0000 C   0  0  0  0  0  0  0  0  0
   -1.9121   -0.2108    0.0000 N   0  0  0  0  0  0  0  0  0
   -1.1977    0.2017    0.0000 N   0  0  0  0  0  0  0  0  0
   -0.4832   -0.2108    0.0000 C   0  0  0  0  0  0  0  0  0
   -0.4832   -1.0358    0.0000 C   0  0  0  0  0  0  0  0  0
    0.2313   -1.4483    0.0000 O   0  0  0  0  0  0  0  0  0
   -1.1977   -1.4483    0.0000 N   0  0  0  0  0  0  0  0  0
   -1.1977   -2.2733    0.0000 C   0  0  0  0  0  0  0  0  0
   -1.9121   -1.0358    0.0000 C   0  0  0  0  0  0  0  0  0
   -2.6266   -1.4483    0.0000 O   0  0  0  0  0  0  0  0  0
   -8.3424    1.0267    0.0000 C   0  0  0  0  0  0  0  0  0
   -9.0569    1.4392    0.0000 C   0  0  0  0  0  0  0  0  0
   -9.0569    2.2642    0.0000 C   0  0  0  0  0  0  0  0  0
  1  2  1  0  0  0  0
  1  3  1  0  0  0  0
  3  4  4  0  0  0  0
  3 27  4  0  0  0  0
  4  5  4  0  0  0  0
  5  6  1  0  0  0  0
  5 25  4  0  0  0  0
  6  7  1  0  0  0  0
  6 11  1  0  0  0  0
  7  8  1  0  0  0  0
  8  9  1  0  0  0  0
  9 10  1  0  0  0  0
  9 12  1  0  0  0  0
 10 11  1  0  0  0  0
 12 13  1  0  0  0  0
 13 14  1  0  0  0  0
 14 15  1  0  0  0  0
 15 16  1  0  0  0  0
 16 17  1  0  0  0  0
 16 23  1  0  0  0  0
 17 18  2  0  0  0  0
 18 19  1  0  0  0  0
 19 20  2  0  0  0  0
 19 21  1  0  0  0  0
 21 22  1  0  0  0  0
 21 23  1  0  0  0  0
 23 24  2  0  0  0  0
 25 26  4  0  0  0  0
 26 27  4  0  0  0  0
M  END
>  <Name_Molregno>
344371

>  <5-HT1A>
8.96

>  <5-HT1B>
6.64

>  <5-HT1E>
5

>  <5-HT2A>
5.68

>  <5-HT3>
5

>  <5-HT5>
5

>  <5-HT6>
5

>  <5-HT7>
6.48

>  <Alpha-1A>
6.38

>  <Alpha-1B>
6.42

>  <Alpha-2A>
6.6

>  <Alpha-2C>
6.96

>  <DOPAMINE D2>
5.59

>  <DOPAMINE D3>
5

>  <DOPAMINE D4>
5

>  <DOPAMINE D5>
5

>  <Dopamine transporter>
5

>  <HISTAMINE H1>
6.08

>  <HISTAMINE H2>
5.67

>  <HISTAMINE H3>
5

>  <HISTAMINE H4>
5

>  <Norepinephrine transporter>
5

>  <Serotonin transporter>
5

$$$$
347877
  Marvin  02231216192D 0   1.00000     0.00000     0

 31 33  0  0  0  0  0  0  0  0999 V2000
    6.6753   -0.6471    0.0000 S   0  0  0  0  0  0  0  0  0
    6.9453   -1.4267    0.0000 O   0  0  0  0  0  0  0  0  0
    6.4053    0.1325    0.0000 O   0  0  0  0  0  0  0  0  0
    5.8958   -0.9171    0.0000 N   0  0  0  0  0  0  0  0  0
    5.2721   -0.3771    0.0000 C   0  0  0  0  0  0  0  0  0
    4.4926   -0.6471    0.0000 C   0  0  0  0  0  0  0  0  0
    3.8689   -0.1070    0.0000 C   0  0  0  0  0  0  0  0  0
    3.0894   -0.3771    0.0000 C   0  0  0  0  0  0  0  0  0
    2.4657    0.1630    0.0000 N   0  0  0  0  0  0  0  0  0
    1.6862   -0.1070    0.0000 C   0  0  0  0  0  0  0  0  0
    1.0625    0.4331    0.0000 C   0  0  0  0  0  0  0  0  0
    1.2184    1.2432    0.0000 N   0  0  0  0  0  0  0  0  0
    1.9980    1.5133    0.0000 C   0  0  0  0  0  0  0  0  0
    2.6216    0.9732    0.0000 C   0  0  0  0  0  0  0  0  0
    0.5948    1.7833    0.0000 C   0  0  0  0  0  0  0  0  0
   -0.1848    1.5133    0.0000 C   0  0  0  0  0  0  0  0  0
   -0.8084    2.0533    0.0000 C   0  0  0  0  0  0  0  0  0
   -1.5879    1.7833    0.0000 N   0  0  0  0  0  0  0  0  0
   -2.2116    2.3234    0.0000 C   0  0  0  0  0  0  0  0  0
   -2.9911    2.0533    0.0000 O   0  0  0  0  0  0  0  0  0
   -2.0557    3.1335    0.0000 C   0  0  0  0  0  0  0  0  0
   -0.6525    2.8635    0.0000 C   0  0  0  0  0  0  0  0  0
    0.1271    3.1335    0.0000 C   0  0  0  0  0  0  0  0  0
    0.7507    2.5934    0.0000 C   0  0  0  0  0  0  0  0  0
    7.4549   -0.3771    0.0000 C   0  0  0  0  0  0  0  0  0
    8.0785   -0.9171    0.0000 C   0  0  0  0  0  0  0  0  0
    8.8580   -0.6471    0.0000 C   0  0  0  0  0  0  0  0  0
    9.4817   -1.1872    0.0000 C   0  0  0  0  0  0  0  0  0
    9.3258   -1.9973    0.0000 C   0  0  0  0  0  0  0  0  0
    8.5462   -2.2674    0.0000 C   0  0  0  0  0  0  0  0  0
    7.9226   -1.7273    0.0000 C   0  0  0  0  0  0  0  0  0
  1  2  2  0  0  0  0
  1  3  2  0  0  0  0
  1  4  1  0  0  0  0
  1 25  1  0  0  0  0
  4  5  1  0  0  0  0
  5  6  1  0  0  0  0
  6  7  1  0  0  0  0
  7  8  1  0  0  0  0
  8  9  1  0  0  0  0
  9 10  1  0  0  0  0
  9 14  1  0  0  0  0
 10 11  1  0  0  0  0
 11 12  1  0  0  0  0
 12 13  1  0  0  0  0
 12 15  1  0  0  0  0
 13 14  1  0  0  0  0
 15 16  4  0  0  0  0
 15 24  4  0  0  0  0
 16 17  4  0  0  0  0
 17 18  1  0  0  0  0
 17 22  4  0  0  0  0
 18 19  1  0  0  0  0
 19 20  2  0  0  0  0
 19 21  1  0  0  0  0
 22 23  4  0  0  0  0
 23 24  4  0  0  0  0
 25 26  1  0  0  0  0
 26 27  1  0  0  0  0
 26 31  1  0  0  0  0
 27 28  1  0  0  0  0
 28 29  1  0  0  0  0
 29 30  1  0  0  0  0
 30 31  1  0  0  0  0
M  END
>  <Name_Molregno>
347877

>  <5-HT1A>
8.29

>  <5-HT2A>
5.7

>  <5-HT2C>
5.3

>  <5-HT5>
5.3

>  <5-HT6>
5.3

>  <5-HT7>
6.15

>  <DOPAMINE D2>
5.7

>  <Dopamine transporter>
5.7

>  <Norepinephrine transporter>
5.7

$$$$
348336
  Marvin  02231216192D 0   1.00000     0.00000     0

 29 31  0  0  0  0  0  0  0  0999 V2000
   -0.0747   -1.1619    0.0000 S   0  0  0  0  0  0  0  0  0
    0.3378   -0.4474    0.0000 O   0  0  0  0  0  0  0  0  0
   -0.4872   -1.8764    0.0000 O   0  0  0  0  0  0  0  0  0
    0.6398   -1.5744    0.0000 N   0  0  0  0  0  0  0  0  0
    1.3543   -1.1619    0.0000 C   0  0  0  0  0  0  0  0  0
    2.0687   -1.5744    0.0000 C   0  0  0  0  0  0  0  0  0
    2.7832   -1.1619    0.0000 C   0  0  0  0  0  0  0  0  0
    3.4977   -1.5744    0.0000 C   0  0  0  0  0  0  0  0  0
    4.2122   -1.1619    0.0000 N   0  0  0  0  0  0  0  0  0
    4.2122   -0.3369    0.0000 C   0  0  0  0  0  0  0  0  0
    4.9266    0.0756    0.0000 C   0  0  0  0  0  0  0  0  0
    5.6411   -0.3369    0.0000 N   0  0  0  0  0  0  0  0  0
    5.6411   -1.1619    0.0000 C   0  0  0  0  0  0  0  0  0
    4.9266   -1.5744    0.0000 C   0  0  0  0  0  0  0  0  0
    6.3556    0.0756    0.0000 C   0  0  0  0  0  0  0  0  0
    6.3556    0.9006    0.0000 C   0  0  0  0  0  0  0  0  0
    7.0700    1.3131    0.0000 C   0  0  0  0  0  0  0  0  0
    7.7845    0.9006    0.0000 C   0  0  0  0  0  0  0  0  0
    7.7845    0.0756    0.0000 C   0  0  0  0  0  0  0  0  0
    7.0700   -0.3369    0.0000 C   0  0  0  0  0  0  0  0  0
    7.0700   -1.1619    0.0000 O   0  0  0  0  0  0  0  0  0
    7.7845   -1.5744    0.0000 C   0  0  0  0  0  0  0  0  0
   -0.7891   -0.7494    0.0000 C   0  0  0  0  0  0  0  0  0
   -1.5036   -1.1619    0.0000 C   0  0  0  0  0  0  0  0  0
   -2.2181   -0.7494    0.0000 C   0  0  0  0  0  0  0  0  0
   -2.2181    0.0756    0.0000 C   0  0  0  0  0  0  0  0  0
   -1.5036    0.4881    0.0000 C   0  0  0  0  0  0  0  0  0
   -0.7891    0.0756    0.0000 C   0  0  0  0  0  0  0  0  0
   -2.9325    0.4881    0.0000 C   0  0  0  0  0  0  0  0  0
  1  2  2  0  0  0  0
  1  3  2  0  0  0  0
  1  4  1  0  0  0  0
  1 23  1  0  0  0  0
  4  5  1  0  0  0  0
  5  6  1  0  0  0  0
  6  7  1  0  0  0  0
  7  8  1  0  0  0  0
  8  9  1  0  0  0  0
  9 10  1  0  0  0  0
  9 14  1  0  0  0  0
 10 11  1  0  0  0  0
 11 12  1  0  0  0  0
 12 13  1  0  0  0  0
 12 15  1  0  0  0  0
 13 14  1  0  0  0  0
 15 16  4  0  0  0  0
 15 20  4  0  0  0  0
 16 17  4  0  0  0  0
 17 18  4  0  0  0  0
 18 19  4  0  0  0  0
 19 20  4  0  0  0  0
 20 21  1  0  0  0  0
 21 22  1  0  0  0  0
 23 24  4  0  0  0  0
 23 28  4  0  0  0  0
 24 25  4  0  0  0  0
 25 26  4  0  0  0  0
 26 27  4  0  0  0  0
 26 29  1  0  0  0  0
 27 28  4  0  0  0  0
M  END
>  <Name_Molregno>
348336

>  <5-HT1A>
9

>  <5-HT2A>
6.31

>  <5-HT7>
7.52

>  <Serotonin transporter>
6.7

$$$$
349376
  Marvin  02231216192D 0   1.00000     0.00000     0

 41 45  0  0  0  0  0  0  0  0999 V2000
   -2.4600    1.8818    0.0000 O   0  0  0  0  0  0  0  0  0
   -2.7149    1.0971    0.0000 C   0  0  0  0  0  0  0  0  0
   -3.5399    1.0971    0.0000 C   0  0  0  0  0  0  0  0  0
   -3.7949    1.8818    0.0000 C   0  0  0  0  0  0  0  0  0
   -3.1274    2.3667    0.0000 C   0  0  0  0  0  0  0  0  0
   -3.1274    3.1917    0.0000 O   0  0  0  0  0  0  0  0  0
   -3.8419    3.6042    0.0000 C   0  0  0  0  0  0  0  0  0
   -4.5564    3.1917    0.0000 C   0  0  0  0  0  0  0  0  0
   -5.2709    3.6042    0.0000 C   0  0  0  0  0  0  0  0  0
   -5.2709    4.4292    0.0000 C   0  0  0  0  0  0  0  0  0
   -4.5564    4.8417    0.0000 C   0  0  0  0  0  0  0  0  0
   -3.8419    4.4292    0.0000 C   0  0  0  0  0  0  0  0  0
   -3.1274    4.8417    0.0000 C   0  0  0  0  0  0  0  0  0
   -6.0555    4.6841    0.0000 C   0  0  0  0  0  0  0  0  0
   -6.5404    4.0167    0.0000 C   0  0  0  0  0  0  0  0  0
   -6.0555    3.3492    0.0000 C   0  0  0  0  0  0  0  0  0
   -5.8924    2.5405    0.0000 C   0  0  0  0  0  0  0  0  0
   -6.6628    2.7908    0.0000 C   0  0  0  0  0  0  0  0  0
   -2.2300    0.4297    0.0000 C   0  0  0  0  0  0  0  0  0
   -2.5656   -0.3240    0.0000 O   0  0  0  0  0  0  0  0  0
   -1.4095    0.5159    0.0000 N   0  0  0  0  0  0  0  0  0
   -0.9246   -0.1515    0.0000 C   0  0  0  0  0  0  0  0  0
   -0.1041   -0.0653    0.0000 C   0  0  0  0  0  0  0  0  0
    0.2314    0.6884    0.0000 O   0  0  0  0  0  0  0  0  0
    1.0519    0.7746    0.0000 C   0  0  0  0  0  0  0  0  0
    0.3808   -0.7327    0.0000 N   0  0  0  0  0  0  0  0  0
    0.0452   -1.4864    0.0000 C   0  0  0  0  0  0  0  0  0
   -0.7753   -1.5726    0.0000 N   0  0  0  0  0  0  0  0  0
   -1.2602   -0.9052    0.0000 C   0  0  0  0  0  0  0  0  0
   -2.0807   -0.9914    0.0000 O   0  0  0  0  0  0  0  0  0
   -2.4162   -1.7451    0.0000 C   0  0  0  0  0  0  0  0  0
    0.5302   -2.1538    0.0000 N   0  0  0  0  0  0  0  0  0
    1.3506   -2.0676    0.0000 C   0  0  0  0  0  0  0  0  0
    1.8356   -2.7350    0.0000 C   0  0  0  0  0  0  0  0  0
    2.6560   -2.6488    0.0000 C   0  0  0  0  0  0  0  0  0
    3.1410   -3.3162    0.0000 N   0  0  0  0  0  0  0  0  0
    3.9614   -3.2300    0.0000 C   0  0  0  0  0  0  0  0  0
    4.4464   -3.8974    0.0000 C   0  0  0  0  0  0  0  0  0
    4.1108   -4.6511    0.0000 O   0  0  0  0  0  0  0  0  0
    3.2903   -4.7373    0.0000 C   0  0  0  0  0  0  0  0  0
    2.8054   -4.0699    0.0000 C   0  0  0  0  0  0  0  0  0
  1  2  4  0  0  0  0
  1  5  4  0  0  0  0
  2  3  4  0  0  0  0
  2 19  1  0  0  0  0
  3  4  4  0  0  0  0
  4  5  4  0  0  0  0
  5  6  1  0  0  0  0
  6  7  1  0  0  0  0
  7  8  4  0  0  0  0
  7 12  4  0  0  0  0
  8  9  4  0  0  0  0
  9 10  4  0  0  0  0
  9 16  1  0  0  0  0
 10 11  4  0  0  0  0
 10 14  1  0  0  0  0
 11 12  4  0  0  0  0
 12 13  1  0  0  0  0
 14 15  1  0  0  0  0
 15 16  1  0  0  0  0
 16 17  1  0  0  0  0
 16 18  1  0  0  0  0
 19 20  2  0  0  0  0
 19 21  1  0  0  0  0
 21 22  1  0  0  0  0
 22 23  4  0  0  0  0
 22 29  4  0  0  0  0
 23 24  1  0  0  0  0
 23 26  4  0  0  0  0
 24 25  1  0  0  0  0
 26 27  4  0  0  0  0
 27 28  4  0  0  0  0
 27 32  1  0  0  0  0
 28 29  4  0  0  0  0
 29 30  1  0  0  0  0
 30 31  1  0  0  0  0
 32 33  1  0  0  0  0
 33 34  1  0  0  0  0
 34 35  1  0  0  0  0
 35 36  1  0  0  0  0
 36 37  1  0  0  0  0
 36 41  1  0  0  0  0
 37 38  1  0  0  0  0
 38 39  1  0  0  0  0
 39 40  1  0  0  0  0
 40 41  1  0  0  0  0
M  END
>  <Name_Molregno>
349376

>  <5-HT2A>
6.23

>  <5-HT2C>
6.02

>  <5-HT7>
5.76

>  <DOPAMINE D1>
5.79

>  <DOPAMINE D3>
5.93

>  <DOPAMINE D4>
5.6

>  <Dopamine transporter>
5.74

>  <HISTAMINE H2>
5.91

>  <Muscarinic acetylcholine receptor M1>
5.39

>  <Muscarinic acetylcholine receptor M4>
5.43

>  <Norepinephrine transporter>
5.29

>  <Serotonin transporter>
5.84

$$$$
354026
  Marvin  02231216192D 0   1.00000     0.00000     0

 31 34  0  0  0  0  0  0  0  0999 V2000
    5.2194    1.3362    0.0000 Cl  0  0  0  0  0  0  0  0  0
    4.5049    0.9237    0.0000 C   0  0  0  0  0  0  0  0  0
    4.5049    0.0987    0.0000 C   0  0  0  0  0  0  0  0  0
    3.7904   -0.3138    0.0000 C   0  0  0  0  0  0  0  0  0
    3.0759    0.0987    0.0000 C   0  0  0  0  0  0  0  0  0
    3.0759    0.9237    0.0000 C   0  0  0  0  0  0  0  0  0
    3.7904    1.3362    0.0000 C   0  0  0  0  0  0  0  0  0
    3.7904    2.1612    0.0000 Cl  0  0  0  0  0  0  0  0  0
    3.7904   -1.1388    0.0000 C   0  0  0  0  0  0  0  0  0
    4.4578   -1.6237    0.0000 C   0  0  0  0  0  0  0  0  0
    4.2029   -2.4084    0.0000 C   0  0  0  0  0  0  0  0  0
    3.3779   -2.4084    0.0000 N   0  0  0  0  0  0  0  0  0
    3.1230   -1.6237    0.0000 C   0  0  0  0  0  0  0  0  0
    2.3383   -1.3688    0.0000 O   0  0  0  0  0  0  0  0  0
    2.8930   -3.0758    0.0000 C   0  0  0  0  0  0  0  0  0
    3.2285   -3.8295    0.0000 C   0  0  0  0  0  0  0  0  0
    2.7436   -4.4969    0.0000 C   0  0  0  0  0  0  0  0  0
    3.0792   -5.2506    0.0000 O   0  0  0  0  0  0  0  0  0
    2.5943   -5.9180    0.0000 C   0  0  0  0  0  0  0  0  0
    2.9298   -6.6717    0.0000 C   0  0  0  0  0  0  0  0  0
    2.4449   -7.3391    0.0000 N   0  0  0  0  0  0  0  0  0
    2.7804   -8.0928    0.0000 C   0  0  0  0  0  0  0  0  0
    2.2955   -8.7602    0.0000 C   0  0  0  0  0  0  0  0  0
    1.4750   -8.6740    0.0000 C   0  0  0  0  0  0  0  0  0
    1.1395   -7.9203    0.0000 C   0  0  0  0  0  0  0  0  0
    1.6244   -7.2529    0.0000 C   0  0  0  0  0  0  0  0  0
    1.9231   -4.4107    0.0000 C   0  0  0  0  0  0  0  0  0
    1.4382   -5.0781    0.0000 O   0  0  0  0  0  0  0  0  0
    0.6177   -4.9919    0.0000 C   0  0  0  0  0  0  0  0  0
    1.5876   -3.6570    0.0000 C   0  0  0  0  0  0  0  0  0
    2.0725   -2.9896    0.0000 C   0  0  0  0  0  0  0  0  0
  1  2  1  0  0  0  0
  2  3  4  0  0  0  0
  2  7  4  0  0  0  0
  3  4  4  0  0  0  0
  4  5  4  0  0  0  0
  4  9  1  0  0  0  0
  5  6  4  0  0  0  0
  6  7  4  0  0  0  0
  7  8  1  0  0  0  0
  9 10  2  0  0  0  0
  9 13  1  0  0  0  0
 10 11  1  0  0  0  0
 11 12  1  0  0  0  0
 12 13  1  0  0  0  0
 12 15  1  0  0  0  0
 13 14  2  0  0  0  0
 15 16  4  0  0  0  0
 15 31  4  0  0  0  0
 16 17  4  0  0  0  0
 17 18  1  0  0  0  0
 17 27  4  0  0  0  0
 18 19  1  0  0  0  0
 19 20  1  0  0  0  0
 20 21  1  0  0  0  0
 21 22  1  0  0  0  0
 21 26  1  0  0  0  0
 22 23  1  0  0  0  0
 23 24  1  0  0  0  0
 24 25  1  0  0  0  0
 25 26  1  0  0  0  0
 27 28  1  0  0  0  0
 27 30  4  0  0  0  0
 28 29  1  0  0  0  0
 30 31  4  0  0  0  0
M  END
>  <Name_Molregno>
354026

>  <5-HT1A>
5.5

>  <5-HT1B>
5.5

>  <5-HT1D>
5.5

>  <5-HT2A>
6.2

>  <5-HT2C>
9.1

>  <5-HT6>
5.5

>  <5-HT7>
5.5

>  <Alpha-1A>
5.74

>  <Alpha-1B>
5.74

>  <DOPAMINE D3>
6.34

$$$$
367153
  Marvin  02231216192D 0   1.00000     0.00000     0

 30 34  0  0  0  0  0  0  0  0999 V2000
    4.4761    6.6520    0.0000 F   0  0  0  0  0  0  0  0  0
    4.4761    5.8270    0.0000 C   0  0  0  0  0  0  0  0  0
    5.1906    5.4145    0.0000 C   0  0  0  0  0  0  0  0  0
    5.1906    4.5895    0.0000 C   0  0  0  0  0  0  0  0  0
    4.4761    4.1770    0.0000 C   0  0  0  0  0  0  0  0  0
    3.7617    4.5895    0.0000 C   0  0  0  0  0  0  0  0  0
    3.7617    5.4145    0.0000 C   0  0  0  0  0  0  0  0  0
    4.4761    3.3520    0.0000 C   0  0  0  0  0  0  0  0  0
    5.1906    2.9395    0.0000 C   0  0  0  0  0  0  0  0  0
    5.1906    2.1145    0.0000 C   0  0  0  0  0  0  0  0  0
    4.4761    1.7020    0.0000 C   0  0  0  0  0  0  0  0  0
    3.7617    2.1145    0.0000 N   0  0  0  0  0  0  0  0  0
    3.7617    2.9395    0.0000 C   0  0  0  0  0  0  0  0  0
    5.9051    1.7020    0.0000 C   0  0  0  0  0  0  0  0  0
    5.9051    0.8770    0.0000 N   0  0  0  0  0  0  0  0  0
    6.6196    0.4645    0.0000 C   0  0  0  0  0  0  0  0  0
    6.6196   -0.3605    0.0000 C   0  0  0  0  0  0  0  0  0
    5.9051   -0.7730    0.0000 N   0  0  0  0  0  0  0  0  0
    5.1906   -0.3605    0.0000 C   0  0  0  0  0  0  0  0  0
    5.1906    0.4645    0.0000 C   0  0  0  0  0  0  0  0  0
    5.9051   -1.5980    0.0000 C   0  0  0  0  0  0  0  0  0
    6.6196   -2.0105    0.0000 C   0  0  0  0  0  0  0  0  0
    7.3340   -1.5980    0.0000 O   0  0  0  0  0  0  0  0  0
    8.0485   -2.0105    0.0000 C   0  0  0  0  0  0  0  0  0
    8.0485   -2.8355    0.0000 C   0  0  0  0  0  0  0  0  0
    7.3340   -3.2480    0.0000 O   0  0  0  0  0  0  0  0  0
    6.6196   -2.8355    0.0000 C   0  0  0  0  0  0  0  0  0
    5.9051   -3.2480    0.0000 C   0  0  0  0  0  0  0  0  0
    5.1906   -2.8355    0.0000 C   0  0  0  0  0  0  0  0  0
    5.1906   -2.0105    0.0000 C   0  0  0  0  0  0  0  0  0
  1  2  1  0  0  0  0
  2  3  4  0  0  0  0
  2  7  4  0  0  0  0
  3  4  4  0  0  0  0
  4  5  4  0  0  0  0
  5  6  4  0  0  0  0
  5  8  1  0  0  0  0
  6  7  4  0  0  0  0
  8  9  4  0  0  0  0
  8 13  4  0  0  0  0
  9 10  4  0  0  0  0
 10 11  4  0  0  0  0
 10 14  1  0  0  0  0
 11 12  4  0  0  0  0
 12 13  4  0  0  0  0
 14 15  1  0  0  0  0
 15 16  1  0  0  0  0
 15 20  1  0  0  0  0
 16 17  1  0  0  0  0
 17 18  1  0  0  0  0
 18 19  1  0  0  0  0
 18 21  1  0  0  0  0
 19 20  1  0  0  0  0
 21 22  4  0  0  0  0
 21 30  4  0  0  0  0
 22 23  1  0  0  0  0
 22 27  4  0  0  0  0
 23 24  1  0  0  0  0
 24 25  1  0  0  0  0
 25 26  1  0  0  0  0
 26 27  1  0  0  0  0
 27 28  4  0  0  0  0
 28 29  4  0  0  0  0
 29 30  4  0  0  0  0
M  END
>  <Name_Molregno>
367153

>  <5-HT1A>
9.1

>  <5-HT2A>
6.6

>  <5-HT7>
7.2

>  <DOPAMINE D3>
8.4

$$$$
382415
  Marvin  02231216192D 0   1.00000     0.00000     0

 18 19  0  0  0  0  0  0  0  0999 V2000
   -0.7360    1.4792    0.0000 S   0  0  0  0  0  0  0  0  0
   -0.9909    0.6946    0.0000 C   0  0  0  0  0  0  0  0  0
   -1.8159    0.6946    0.0000 C   0  0  0  0  0  0  0  0  0
   -2.0709    1.4792    0.0000 N   0  0  0  0  0  0  0  0  0
   -1.4034    1.9642    0.0000 C   0  0  0  0  0  0  0  0  0
   -1.4034    2.7892    0.0000 C   0  0  0  0  0  0  0  0  0
   -0.6890    3.2017    0.0000 F   0  0  0  0  0  0  0  0  0
   -2.3008    0.0272    0.0000 C   0  0  0  0  0  0  0  0  0
   -2.7858   -0.6403    0.0000 C   0  0  0  0  0  0  0  0  0
   -3.2707   -1.3077    0.0000 C   0  0  0  0  0  0  0  0  0
   -2.9351   -2.0614    0.0000 C   0  0  0  0  0  0  0  0  0
   -3.4201   -2.7288    0.0000 C   0  0  0  0  0  0  0  0  0
   -4.2405   -2.6426    0.0000 C   0  0  0  0  0  0  0  0  0
   -4.5761   -1.8889    0.0000 C   0  0  0  0  0  0  0  0  0
   -5.3966   -1.8027    0.0000 F   0  0  0  0  0  0  0  0  0
   -4.0912   -1.2215    0.0000 C   0  0  0  0  0  0  0  0  0
   -3.0845   -3.4825    0.0000 C   0  0  0  0  0  0  0  0  0
   -2.7489   -4.2362    0.0000 N   0  0  0  0  0  0  0  0  0
  1  2  4  0  0  0  0
  1  5  4  0  0  0  0
  2  3  4  0  0  0  0
  3  4  4  0  0  0  0
  3  8  1  0  0  0  0
  4  5  4  0  0  0  0
  5  6  1  0  0  0  0
  6  7  1  0  0  0  0
  8  9  3  0  0  0  0
  9 10  1  0  0  0  0
 10 11  4  0  0  0  0
 10 16  4  0  0  0  0
 11 12  4  0  0  0  0
 12 13  4  0  0  0  0
 12 17  1  0  0  0  0
 13 14  4  0  0  0  0
 14 15  1  0  0  0  0
 14 16  4  0  0  0  0
 17 18  3  0  0  0  0
M  END
>  <Name_Molregno>
382415

>  <5-HT1A>
5

>  <5-HT1B>
5

>  <5-HT1D>
5

>  <5-HT1E>
5

>  <5-HT2A>
5

>  <5-HT2C>
5

>  <5-HT3>
5

>  <5-HT5>
5

>  <5-HT6>
5

>  <5-HT7>
5

>  <Alpha-1A>
5

>  <Alpha-1B>
5

>  <Alpha-2A>
5

>  <Alpha-2B>
5

>  <Alpha-2C>
5

>  <Beta-1>
5

>  <Beta-2>
5

>  <DOPAMINE D1>
5

>  <DOPAMINE D2>
5

>  <DOPAMINE D3>
5

>  <DOPAMINE D4>
5

>  <DOPAMINE D5>
5

>  <Dopamine transporter>
5

>  <HISTAMINE H1>
5

>  <HISTAMINE H2>
5

>  <HISTAMINE H3>
5

>  <HISTAMINE H4>
5

>  <Muscarinic acetylcholine receptor M1>
5

>  <Muscarinic acetylcholine receptor M2>
5

>  <Muscarinic acetylcholine receptor M3>
5

>  <Muscarinic acetylcholine receptor M4>
5

>  <Muscarinic acetylcholine receptor M5>
5

>  <Norepinephrine transporter>
5

>  <Serotonin transporter>
5

$$$$
389011
  Marvin  02231216192D 0   1.00000     0.00000     0

 25 26  0  0  1  0  0  0  0  0999 V2000
   -2.9244    1.8604    0.0000 S   0  0  0  0  0  0  0  0  0
   -3.7494    1.8604    0.0000 O   0  0  0  0  0  0  0  0  0
   -2.0994    1.8604    0.0000 O   0  0  0  0  0  0  0  0  0
   -2.9244    2.6854    0.0000 C   0  0  0  0  0  0  0  0  0
   -3.6388    3.0979    0.0000 C   0  0  0  0  0  0  0  0  0
   -2.9244    1.0354    0.0000 C   0  0  0  0  0  0  0  0  0
   -2.2099    0.6229    0.0000 C   0  0  0  0  0  0  0  0  0
   -2.2099   -0.2021    0.0000 C   0  0  0  0  0  0  0  0  0
   -1.4954   -0.6146    0.0000 C   0  0  0  0  0  0  0  0  0
   -0.7810   -0.2021    0.0000 O   0  0  0  0  0  0  0  0  0
   -1.4954   -1.4396    0.0000 N   0  0  0  0  0  0  0  0  0
   -0.7810   -1.8521    0.0000 C   0  0  0  0  0  0  0  0  0
   -0.7810   -2.6771    0.0000 C   0  0  0  0  0  0  0  0  0
   -0.1135   -3.1620    0.0000 N   0  0  0  0  0  0  0  0  0
   -0.3685   -3.9466    0.0000 C   0  0  0  0  0  0  0  0  0
   -1.1935   -3.9466    0.0000 C   0  0  0  0  0  0  0  0  0
   -1.4484   -3.1620    0.0000 C   0  0  0  0  0  0  0  0  0
    0.6711   -2.9071    0.0000 C   0  0  0  0  0  0  0  0  0
    1.2842   -3.4591    0.0000 C   0  0  0  0  0  0  0  0  0
   -2.9244   -0.6146    0.0000 C   0  0  0  0  0  0  0  0  0
   -2.9244   -1.4396    0.0000 O   0  0  0  0  0  0  0  0  0
   -3.6388   -1.8521    0.0000 C   0  0  0  0  0  0  0  0  0
   -3.6388   -0.2021    0.0000 C   0  0  0  0  0  0  0  0  0
   -3.6388    0.6229    0.0000 C   0  0  0  0  0  0  0  0  0
   -4.3533    1.0354    0.0000 N   0  0  0  0  0  0  0  0  0
  1  2  2  0  0  0  0
  1  3  2  0  0  0  0
  1  4  1  0  0  0  0
  1  6  1  0  0  0  0
  4  5  1  0  0  0  0
  6  7  4  0  0  0  0
  6 24  4  0  0  0  0
  7  8  4  0  0  0  0
  8  9  1  0  0  0  0
  8 20  4  0  0  0  0
  9 10  2  0  0  0  0
  9 11  1  0  0  0  0
 11 12  1  0  0  0  0
 12 13  1  0  0  0  0
 13 14  1  0  0  0  0
 13 17  1  0  0  0  0
 14 15  1  0  0  0  0
 14 18  1  0  0  0  0
 15 16  1  0  0  0  0
 16 17  1  0  0  0  0
 18 19  1  0  0  0  0
 20 21  1  0  0  0  0
 20 23  4  0  0  0  0
 21 22  1  0  0  0  0
 23 24  4  0  0  0  0
 24 25  1  0  0  0  0
M  END
>  <Name_Molregno>
389011

>  <5-HT1A>
5

>  <5-HT1B>
5.76

>  <5-HT1D>
5.87

>  <5-HT1E>
5

>  <5-HT2A>
5.64

>  <5-HT2C>
5

>  <5-HT3>
5

>  <5-HT5>
5

>  <5-HT6>
5.38

>  <5-HT7>
7.47

>  <Alpha-1A>
5

>  <Alpha-1B>
5

>  <Alpha-2A>
5.95

>  <Alpha-2C>
5.81

>  <Beta-1>
5

>  <Beta-2>
5

>  <DOPAMINE D1>
5

>  <DOPAMINE D2>
8.71

>  <DOPAMINE D3>
8.51

>  <DOPAMINE D4>
5.63

>  <DOPAMINE D5>
5

>  <Dopamine transporter>
5

>  <HISTAMINE H1>
5

>  <HISTAMINE H2>
5

>  <HISTAMINE H4>
5

>  <Muscarinic acetylcholine receptor M1>
5

>  <Muscarinic acetylcholine receptor M2>
5

>  <Muscarinic acetylcholine receptor M3>
5

>  <Muscarinic acetylcholine receptor M4>
5

>  <Muscarinic acetylcholine receptor M5>
5

>  <Norepinephrine transporter>
5

>  <Serotonin transporter>
5

$$$$
390008
  Marvin  02231216192D 0   1.00000     0.00000     0

 39 44  0  0  0  0  0  0  0  0999 V2000
    0.3222    0.7886    0.0000 S   0  0  0  0  0  0  0  0  0
   -0.0134    0.0349    0.0000 C   0  0  0  0  0  0  0  0  0
    0.4715   -0.6325    0.0000 C   0  0  0  0  0  0  0  0  0
    0.1360   -1.3862    0.0000 C   0  0  0  0  0  0  0  0  0
    0.6209   -2.0537    0.0000 N   0  0  0  0  0  0  0  0  0
    1.4326   -1.9063    0.0000 C   0  0  0  0  0  0  0  0  0
    2.0539   -2.4491    0.0000 C   0  0  0  0  0  0  0  0  0
    2.0169   -3.2733    0.0000 C   0  0  0  0  0  0  0  0  0
    2.7706   -3.6089    0.0000 C   0  0  0  0  0  0  0  0  0
    2.8568   -4.4294    0.0000 C   0  0  0  0  0  0  0  0  0
    2.1894   -4.9143    0.0000 C   0  0  0  0  0  0  0  0  0
    1.4357   -4.5787    0.0000 C   0  0  0  0  0  0  0  0  0
    1.3495   -3.7582    0.0000 C   0  0  0  0  0  0  0  0  0
    0.5542   -3.5388    0.0000 C   0  0  0  0  0  0  0  0  0
    0.2299   -2.7801    0.0000 C   0  0  0  0  0  0  0  0  0
    3.6105   -4.7649    0.0000 C   0  0  0  0  0  0  0  0  0
    4.3250   -4.3524    0.0000 N   0  0  0  0  0  0  0  0  0
    4.9380   -4.9044    0.0000 N   0  0  0  0  0  0  0  0  0
    4.6025   -5.6581    0.0000 C   0  0  0  0  0  0  0  0  0
    3.7820   -5.5719    0.0000 C   0  0  0  0  0  0  0  0  0
    5.0150   -6.3726    0.0000 C   0  0  0  0  0  0  0  0  0
    4.4112   -3.5319    0.0000 C   0  0  0  0  0  0  0  0  0
   -0.1628    1.4560    0.0000 C   0  0  0  0  0  0  0  0  0
   -0.9878    1.4560    0.0000 N   0  0  0  0  0  0  0  0  0
   -1.2427    2.2406    0.0000 N   0  0  0  0  0  0  0  0  0
   -0.5753    2.7256    0.0000 C   0  0  0  0  0  0  0  0  0
    0.0922    2.2406    0.0000 N   0  0  0  0  0  0  0  0  0
    0.8768    2.4956    0.0000 C   0  0  0  0  0  0  0  0  0
   -0.5753    3.5506    0.0000 C   0  0  0  0  0  0  0  0  0
    0.1392    3.9631    0.0000 C   0  0  0  0  0  0  0  0  0
    0.1392    4.7881    0.0000 C   0  0  0  0  0  0  0  0  0
    0.8537    5.2006    0.0000 N   0  0  0  0  0  0  0  0  0
    1.5681    4.7881    0.0000 C   0  0  0  0  0  0  0  0  0
    1.5681    3.9631    0.0000 C   0  0  0  0  0  0  0  0  0
    0.8537    3.5506    0.0000 C   0  0  0  0  0  0  0  0  0
    2.2826    5.2006    0.0000 C   0  0  0  0  0  0  0  0  0
   -0.5753    5.2006    0.0000 C   0  0  0  0  0  0  0  0  0
   -1.2897    4.7881    0.0000 C   0  0  0  0  0  0  0  0  0
   -1.2897    3.9631    0.0000 C   0  0  0  0  0  0  0  0  0
  1  2  1  0  0  0  0
  1 23  1  0  0  0  0
  2  3  1  0  0  0  0
  3  4  1  0  0  0  0
  4  5  1  0  0  0  0
  5  6  1  0  0  0  0
  5 15  1  0  0  0  0
  6  7  1  0  0  0  0
  7  8  1  0  0  0  0
  8  9  4  0  0  0  0
  8 13  4  0  0  0  0
  9 10  4  0  0  0  0
 10 11  4  0  0  0  0
 10 16  1  0  0  0  0
 11 12  4  0  0  0  0
 12 13  4  0  0  0  0
 13 14  1  0  0  0  0
 14 15  1  0  0  0  0
 16 17  4  0  0  0  0
 16 20  4  0  0  0  0
 17 18  4  0  0  0  0
 17 22  1  0  0  0  0
 18 19  4  0  0  0  0
 19 20  4  0  0  0  0
 19 21  1  0  0  0  0
 23 24  4  0  0  0  0
 23 27  4  0  0  0  0
 24 25  4  0  0  0  0
 25 26  4  0  0  0  0
 26 27  4  0  0  0  0
 26 29  1  0  0  0  0
 27 28  1  0  0  0  0
 29 30  4  0  0  0  0
 29 39  4  0  0  0  0
 30 31  4  0  0  0  0
 30 35  4  0  0  0  0
 31 32  4  0  0  0  0
 31 37  4  0  0  0  0
 32 33  4  0  0  0  0
 33 34  4  0  0  0  0
 33 36  1  0  0  0  0
 34 35  4  0  0  0  0
 37 38  4  0  0  0  0
 38 39  4  0  0  0  0
M  END
>  <Name_Molregno>
390008

>  <5-HT1A>
6.2

>  <5-HT1B>
6.3

>  <5-HT1D>
6.7

>  <5-HT2A>
5.4

>  <5-HT2C>
5.4

>  <5-HT6>
5.9

>  <5-HT7>
5.7

>  <Alpha-1A>
6.2

>  <Alpha-1B>
5.7

>  <DOPAMINE D2>
6.25

>  <DOPAMINE D3>
8.7

>  <HISTAMINE H3>
6.5

$$$$
396241
  Marvin  02231216192D 0   1.00000     0.00000     0

 21 22  0  0  0  0  0  0  0  0999 V2000
    0.7419    2.2458    0.0000 O   0  0  0  0  0  0  0  0  0
    1.4564    2.6583    0.0000 C   0  0  0  0  0  0  0  0  0
    0.7419    1.4208    0.0000 C   0  0  0  0  0  0  0  0  0
    1.4564    1.0083    0.0000 C   0  0  0  0  0  0  0  0  0
    1.4564    0.1833    0.0000 C   0  0  0  0  0  0  0  0  0
    0.7419   -0.2292    0.0000 C   0  0  0  0  0  0  0  0  0
    0.0275    0.1833    0.0000 C   0  0  0  0  0  0  0  0  0
   -0.6870   -0.2292    0.0000 O   0  0  0  0  0  0  0  0  0
   -1.4015    0.1833    0.0000 C   0  0  0  0  0  0  0  0  0
    0.0275    1.0083    0.0000 C   0  0  0  0  0  0  0  0  0
   -0.6870    1.4208    0.0000 C   0  0  0  0  0  0  0  0  0
   -1.4015    1.0083    0.0000 C   0  0  0  0  0  0  0  0  0
   -2.1160    1.4208    0.0000 C   0  0  0  0  0  0  0  0  0
   -2.1160    2.2458    0.0000 C   0  0  0  0  0  0  0  0  0
   -1.4015    2.6583    0.0000 C   0  0  0  0  0  0  0  0  0
   -0.6870    2.2458    0.0000 C   0  0  0  0  0  0  0  0  0
   -2.8304    1.0083    0.0000 C   0  0  0  0  0  0  0  0  0
   -2.8304    0.1833    0.0000 C   0  0  0  0  0  0  0  0  0
   -3.5449   -0.2292    0.0000 N   0  0  0  0  0  0  0  0  0
   -3.5449   -1.0542    0.0000 C   0  0  0  0  0  0  0  0  0
   -4.2594    0.1833    0.0000 C   0  0  0  0  0  0  0  0  0
  1  2  1  0  0  0  0
  1  3  1  0  0  0  0
  3  4  4  0  0  0  0
  3 10  4  0  0  0  0
  4  5  4  0  0  0  0
  5  6  4  0  0  0  0
  6  7  4  0  0  0  0
  7  8  1  0  0  0  0
  7 10  4  0  0  0  0
  8  9  1  0  0  0  0
 10 11  1  0  0  0  0
 11 12  4  0  0  0  0
 11 16  4  0  0  0  0
 12 13  4  0  0  0  0
 13 14  4  0  0  0  0
 13 17  1  0  0  0  0
 14 15  4  0  0  0  0
 15 16  4  0  0  0  0
 17 18  1  0  0  0  0
 18 19  1  0  0  0  0
 19 20  1  0  0  0  0
 19 21  1  0  0  0  0
M  END
>  <Name_Molregno>
396241

>  <5-HT7>
8.07

$$$$
396242
  Marvin  02231216192D 0   1.00000     0.00000     0

 18 19  0  0  0  0  0  0  0  0999 V2000
    1.1034    4.3012    0.0000 N   0  0  0  0  0  0  0  0  0
    1.1034    3.4762    0.0000 C   0  0  0  0  0  0  0  0  0
    1.8178    3.0637    0.0000 C   0  0  0  0  0  0  0  0  0
    1.8178    2.2387    0.0000 C   0  0  0  0  0  0  0  0  0
    2.5323    1.8262    0.0000 C   0  0  0  0  0  0  0  0  0
    2.5323    1.0012    0.0000 C   0  0  0  0  0  0  0  0  0
    1.8178    0.5887    0.0000 C   0  0  0  0  0  0  0  0  0
    1.1034    1.0012    0.0000 C   0  0  0  0  0  0  0  0  0
    1.1034    1.8262    0.0000 C   0  0  0  0  0  0  0  0  0
    3.2468    0.5887    0.0000 C   0  0  0  0  0  0  0  0  0
    3.9612    1.0012    0.0000 C   0  0  0  0  0  0  0  0  0
    4.6757    0.5887    0.0000 C   0  0  0  0  0  0  0  0  0
    4.6757   -0.2363    0.0000 C   0  0  0  0  0  0  0  0  0
    3.9612   -0.6488    0.0000 C   0  0  0  0  0  0  0  0  0
    3.2468   -0.2363    0.0000 C   0  0  0  0  0  0  0  0  0
    2.5323   -0.6488    0.0000 C   0  0  0  0  0  0  0  0  0
    0.3889    4.7137    0.0000 C   0  0  0  0  0  0  0  0  0
    1.8178    4.7137    0.0000 C   0  0  0  0  0  0  0  0  0
  1  2  1  0  0  0  0
  1 17  1  0  0  0  0
  1 18  1  0  0  0  0
  2  3  1  0  0  0  0
  3  4  1  0  0  0  0
  4  5  4  0  0  0  0
  4  9  4  0  0  0  0
  5  6  4  0  0  0  0
  6  7  4  0  0  0  0
  6 10  1  0  0  0  0
  7  8  4  0  0  0  0
  8  9  4  0  0  0  0
 10 11  4  0  0  0  0
 10 15  4  0  0  0  0
 11 12  4  0  0  0  0
 12 13  4  0  0  0  0
 13 14  4  0  0  0  0
 14 15  4  0  0  0  0
 15 16  1  0  0  0  0
M  END
>  <Name_Molregno>
396242

>  <5-HT7>
8.12

$$$$
396243
  Marvin  02231216192D 0   1.00000     0.00000     0

 19 20  0  0  0  0  0  0  0  0999 V2000
   -0.3222    1.3101    0.0000 O   0  0  0  0  0  0  0  0  0
    0.3923    1.7226    0.0000 C   0  0  0  0  0  0  0  0  0
   -0.3222    0.4851    0.0000 C   0  0  0  0  0  0  0  0  0
    0.3923    0.0726    0.0000 C   0  0  0  0  0  0  0  0  0
    0.3923   -0.7524    0.0000 C   0  0  0  0  0  0  0  0  0
   -0.3222   -1.1649    0.0000 C   0  0  0  0  0  0  0  0  0
   -1.0367   -0.7524    0.0000 C   0  0  0  0  0  0  0  0  0
   -1.0367    0.0726    0.0000 C   0  0  0  0  0  0  0  0  0
   -1.7512    0.4851    0.0000 C   0  0  0  0  0  0  0  0  0
   -2.4656    0.0726    0.0000 C   0  0  0  0  0  0  0  0  0
   -3.1801    0.4851    0.0000 C   0  0  0  0  0  0  0  0  0
   -3.1801    1.3101    0.0000 C   0  0  0  0  0  0  0  0  0
   -2.4656    1.7226    0.0000 C   0  0  0  0  0  0  0  0  0
   -1.7512    1.3101    0.0000 C   0  0  0  0  0  0  0  0  0
   -3.8946    0.0726    0.0000 C   0  0  0  0  0  0  0  0  0
   -3.8946   -0.7524    0.0000 C   0  0  0  0  0  0  0  0  0
   -4.6090   -1.1649    0.0000 N   0  0  0  0  0  0  0  0  0
   -4.6090   -1.9899    0.0000 C   0  0  0  0  0  0  0  0  0
   -5.3235   -0.7524    0.0000 C   0  0  0  0  0  0  0  0  0
  1  2  1  0  0  0  0
  1  3  1  0  0  0  0
  3  4  4  0  0  0  0
  3  8  4  0  0  0  0
  4  5  4  0  0  0  0
  5  6  4  0  0  0  0
  6  7  4  0  0  0  0
  7  8  4  0  0  0  0
  8  9  1  0  0  0  0
  9 10  4  0  0  0  0
  9 14  4  0  0  0  0
 10 11  4  0  0  0  0
 11 12  4  0  0  0  0
 11 15  1  0  0  0  0
 12 13  4  0  0  0  0
 13 14  4  0  0  0  0
 15 16  1  0  0  0  0
 16 17  1  0  0  0  0
 17 18  1  0  0  0  0
 17 19  1  0  0  0  0
M  END
>  <Name_Molregno>
396243

>  <5-HT7>
8.08

$$$$
396244
  Marvin  02231216192D 0   1.00000     0.00000     0

 19 20  0  0  0  0  0  0  0  0999 V2000
    1.0892    4.2354    0.0000 N   0  0  0  0  0  0  0  0  0
    1.0892    3.4104    0.0000 C   0  0  0  0  0  0  0  0  0
    1.8037    2.9979    0.0000 C   0  0  0  0  0  0  0  0  0
    1.8037    2.1729    0.0000 C   0  0  0  0  0  0  0  0  0
    2.5181    1.7604    0.0000 C   0  0  0  0  0  0  0  0  0
    2.5181    0.9354    0.0000 C   0  0  0  0  0  0  0  0  0
    1.8037    0.5229    0.0000 C   0  0  0  0  0  0  0  0  0
    1.0892    0.9354    0.0000 C   0  0  0  0  0  0  0  0  0
    1.0892    1.7604    0.0000 C   0  0  0  0  0  0  0  0  0
    3.2326    0.5229    0.0000 C   0  0  0  0  0  0  0  0  0
    3.9471    0.9354    0.0000 C   0  0  0  0  0  0  0  0  0
    4.6615    0.5229    0.0000 C   0  0  0  0  0  0  0  0  0
    4.6615   -0.3021    0.0000 C   0  0  0  0  0  0  0  0  0
    3.9471   -0.7146    0.0000 C   0  0  0  0  0  0  0  0  0
    3.2326   -0.3021    0.0000 C   0  0  0  0  0  0  0  0  0
    2.5181   -0.7146    0.0000 C   0  0  0  0  0  0  0  0  0
    3.9471    1.7604    0.0000 C   0  0  0  0  0  0  0  0  0
    0.3747    4.6479    0.0000 C   0  0  0  0  0  0  0  0  0
    1.8037    4.6479    0.0000 C   0  0  0  0  0  0  0  0  0
  1  2  1  0  0  0  0
  1 18  1  0  0  0  0
  1 19  1  0  0  0  0
  2  3  1  0  0  0  0
  3  4  1  0  0  0  0
  4  5  4  0  0  0  0
  4  9  4  0  0  0  0
  5  6  4  0  0  0  0
  6  7  4  0  0  0  0
  6 10  1  0  0  0  0
  7  8  4  0  0  0  0
  8  9  4  0  0  0  0
 10 11  4  0  0  0  0
 10 15  4  0  0  0  0
 11 12  4  0  0  0  0
 11 17  1  0  0  0  0
 12 13  4  0  0  0  0
 13 14  4  0  0  0  0
 14 15  4  0  0  0  0
 15 16  1  0  0  0  0
M  END
>  <Name_Molregno>
396244

>  <5-HT7>
8.21

$$$$
396250
  Marvin  02231216192D 0   1.00000     0.00000     0

 16 17  0  0  0  0  0  0  0  0999 V2000
    1.8332    3.3024    0.0000 N   0  0  0  0  0  0  0  0  0
    1.8332    2.4774    0.0000 C   0  0  0  0  0  0  0  0  0
    2.5477    2.0649    0.0000 C   0  0  0  0  0  0  0  0  0
    2.5477    1.2399    0.0000 C   0  0  0  0  0  0  0  0  0
    3.2621    0.8274    0.0000 C   0  0  0  0  0  0  0  0  0
    3.2621    0.0024    0.0000 C   0  0  0  0  0  0  0  0  0
    2.5477   -0.4101    0.0000 C   0  0  0  0  0  0  0  0  0
    1.8332    0.0024    0.0000 C   0  0  0  0  0  0  0  0  0
    1.8332    0.8274    0.0000 C   0  0  0  0  0  0  0  0  0
    3.9766   -0.4101    0.0000 C   0  0  0  0  0  0  0  0  0
    4.6911    0.0024    0.0000 C   0  0  0  0  0  0  0  0  0
    5.4056   -0.4101    0.0000 C   0  0  0  0  0  0  0  0  0
    5.4056   -1.2351    0.0000 C   0  0  0  0  0  0  0  0  0
    4.6911   -1.6476    0.0000 C   0  0  0  0  0  0  0  0  0
    3.9766   -1.2351    0.0000 C   0  0  0  0  0  0  0  0  0
    3.2621   -1.6476    0.0000 C   0  0  0  0  0  0  0  0  0
  1  2  1  0  0  0  0
  2  3  1  0  0  0  0
  3  4  1  0  0  0  0
  4  5  4  0  0  0  0
  4  9  4  0  0  0  0
  5  6  4  0  0  0  0
  6  7  4  0  0  0  0
  6 10  1  0  0  0  0
  7  8  4  0  0  0  0
  8  9  4  0  0  0  0
 10 11  4  0  0  0  0
 10 15  4  0  0  0  0
 11 12  4  0  0  0  0
 12 13  4  0  0  0  0
 13 14  4  0  0  0  0
 14 15  4  0  0  0  0
 15 16  1  0  0  0  0
M  END
>  <Name_Molregno>
396250

>  <5-HT7>
8.12

$$$$
402468
  Marvin  02231216192D 0   1.00000     0.00000     0

 24 27  0  0  0  0  0  0  0  0999 V2000
   -3.2639   -0.7289    0.0000 Cl  0  0  0  0  0  0  0  0  0
   -2.5964   -0.2440    0.0000 C   0  0  0  0  0  0  0  0  0
   -2.5964    0.5810    0.0000 N   0  0  0  0  0  0  0  0  0
   -1.8118    0.8360    0.0000 C   0  0  0  0  0  0  0  0  0
   -1.3269    1.5034    0.0000 S   0  0  0  0  0  0  0  0  0
   -0.5423    1.2485    0.0000 C   0  0  0  0  0  0  0  0  0
   -0.5423    0.4235    0.0000 C   0  0  0  0  0  0  0  0  0
   -1.3269    0.1685    0.0000 N   0  0  0  0  0  0  0  0  0
   -1.8118   -0.4989    0.0000 C   0  0  0  0  0  0  0  0  0
   -1.5569   -1.2835    0.0000 S   0  0  0  0  0  0  0  0  0
   -2.3415   -1.5384    0.0000 O   0  0  0  0  0  0  0  0  0
   -0.7722   -1.0286    0.0000 O   0  0  0  0  0  0  0  0  0
   -1.3019   -2.0681    0.0000 N   0  0  0  0  0  0  0  0  0
   -1.7868   -2.7356    0.0000 C   0  0  0  0  0  0  0  0  0
   -1.3019   -3.4030    0.0000 C   0  0  0  0  0  0  0  0  0
   -0.5173   -3.1481    0.0000 C   0  0  0  0  0  0  0  0  0
   -0.5173   -2.3231    0.0000 C   0  0  0  0  0  0  0  0  0
    0.1972   -1.9106    0.0000 C   0  0  0  0  0  0  0  0  0
    0.9116   -2.3231    0.0000 C   0  0  0  0  0  0  0  0  0
    0.9116   -3.1481    0.0000 C   0  0  0  0  0  0  0  0  0
    0.1972   -3.5606    0.0000 C   0  0  0  0  0  0  0  0  0
   -1.5569   -4.1876    0.0000 C   0  0  0  0  0  0  0  0  0
   -2.3638   -4.3592    0.0000 C   0  0  0  0  0  0  0  0  0
   -2.6188   -5.1438    0.0000 N   0  0  0  0  0  0  0  0  0
  1  2  1  0  0  0  0
  2  3  4  0  0  0  0
  2  9  4  0  0  0  0
  3  4  4  0  0  0  0
  4  5  4  0  0  0  0
  4  8  4  0  0  0  0
  5  6  4  0  0  0  0
  6  7  4  0  0  0  0
  7  8  4  0  0  0  0
  8  9  4  0  0  0  0
  9 10  1  0  0  0  0
 10 11  2  0  0  0  0
 10 12  2  0  0  0  0
 10 13  1  0  0  0  0
 13 14  4  0  0  0  0
 13 17  4  0  0  0  0
 14 15  4  0  0  0  0
 15 16  4  0  0  0  0
 15 22  1  0  0  0  0
 16 17  4  0  0  0  0
 16 21  4  0  0  0  0
 17 18  4  0  0  0  0
 18 19  4  0  0  0  0
 19 20  4  0  0  0  0
 20 21  4  0  0  0  0
 22 23  1  0  0  0  0
 23 24  1  0  0  0  0
M  END
>  <Name_Molregno>
402468

>  <5-HT2C>
6.91

>  <5-HT6>
8.7

>  <5-HT7>
6.17

$$$$
404498
  Marvin  02231216192D 0   1.00000     0.00000     0

 26 29  0  0  0  0  0  0  0  0999 V2000
   -4.0391    2.4085    0.0000 O   0  0  0  0  0  0  0  0  0
   -3.2141    2.4085    0.0000 C   0  0  0  0  0  0  0  0  0
   -2.7292    1.7411    0.0000 N   0  0  0  0  0  0  0  0  0
   -1.9445    1.9960    0.0000 C   0  0  0  0  0  0  0  0  0
   -1.9445    2.8210    0.0000 C   0  0  0  0  0  0  0  0  0
   -2.7292    3.0760    0.0000 C   0  0  0  0  0  0  0  0  0
   -1.2301    3.2335    0.0000 C   0  0  0  0  0  0  0  0  0
   -0.5156    2.8210    0.0000 C   0  0  0  0  0  0  0  0  0
   -0.5156    1.9960    0.0000 C   0  0  0  0  0  0  0  0  0
   -1.2301    1.5835    0.0000 C   0  0  0  0  0  0  0  0  0
   -2.9841    0.9565    0.0000 C   0  0  0  0  0  0  0  0  0
   -2.4321    0.3434    0.0000 C   0  0  0  0  0  0  0  0  0
   -2.6870   -0.4413    0.0000 C   0  0  0  0  0  0  0  0  0
   -2.1350   -1.0543    0.0000 C   0  0  0  0  0  0  0  0  0
   -2.3899   -1.8390    0.0000 N   0  0  0  0  0  0  0  0  0
   -1.8379   -2.4521    0.0000 C   0  0  0  0  0  0  0  0  0
   -2.0928   -3.2367    0.0000 C   0  0  0  0  0  0  0  0  0
   -2.8998   -3.4082    0.0000 N   0  0  0  0  0  0  0  0  0
   -3.4518   -2.7951    0.0000 C   0  0  0  0  0  0  0  0  0
   -3.1969   -2.0105    0.0000 C   0  0  0  0  0  0  0  0  0
   -3.1547   -4.1928    0.0000 C   0  0  0  0  0  0  0  0  0
   -2.6027   -4.8059    0.0000 C   0  0  0  0  0  0  0  0  0
   -2.8576   -5.5905    0.0000 C   0  0  0  0  0  0  0  0  0
   -3.6646   -5.7621    0.0000 C   0  0  0  0  0  0  0  0  0
   -4.2166   -5.1490    0.0000 C   0  0  0  0  0  0  0  0  0
   -3.9617   -4.3644    0.0000 C   0  0  0  0  0  0  0  0  0
  1  2  2  0  0  0  0
  2  3  1  0  0  0  0
  2  6  1  0  0  0  0
  3  4  1  0  0  0  0
  3 11  1  0  0  0  0
  4  5  4  0  0  0  0
  4 10  4  0  0  0  0
  5  6  1  0  0  0  0
  5  7  4  0  0  0  0
  7  8  4  0  0  0  0
  8  9  4  0  0  0  0
  9 10  4  0  0  0  0
 11 12  1  0  0  0  0
 12 13  1  0  0  0  0
 13 14  1  0  0  0  0
 14 15  1  0  0  0  0
 15 16  1  0  0  0  0
 15 20  1  0  0  0  0
 16 17  1  0  0  0  0
 17 18  1  0  0  0  0
 18 19  1  0  0  0  0
 18 21  1  0  0  0  0
 19 20  1  0  0  0  0
 21 22  4  0  0  0  0
 21 26  4  0  0  0  0
 22 23  4  0  0  0  0
 23 24  4  0  0  0  0
 24 25  4  0  0  0  0
 25 26  4  0  0  0  0
M  END
>  <Name_Molregno>
404498

>  <5-HT1A>
6.91

>  <5-HT7>
7.13

>  <DOPAMINE D2>
6.81

>  <DOPAMINE D3>
7.1

>  <DOPAMINE D5>
5.75

$$$$
404505
  Marvin  02231216192D 0   1.00000     0.00000     0

 28 31  0  0  0  0  0  0  0  0999 V2000
   -6.9767   -0.7501    0.0000 O   0  0  0  0  0  0  0  0  0
   -7.7837   -0.9217    0.0000 C   0  0  0  0  0  0  0  0  0
   -6.7218    0.0345    0.0000 C   0  0  0  0  0  0  0  0  0
   -7.2738    0.6476    0.0000 C   0  0  0  0  0  0  0  0  0
   -7.0188    1.4322    0.0000 C   0  0  0  0  0  0  0  0  0
   -6.2119    1.6037    0.0000 C   0  0  0  0  0  0  0  0  0
   -5.6598    0.9906    0.0000 C   0  0  0  0  0  0  0  0  0
   -5.9148    0.2060    0.0000 C   0  0  0  0  0  0  0  0  0
   -5.3628   -0.4071    0.0000 N   0  0  0  0  0  0  0  0  0
   -4.5558   -0.2355    0.0000 C   0  0  0  0  0  0  0  0  0
   -4.0037   -0.8486    0.0000 C   0  0  0  0  0  0  0  0  0
   -4.2587   -1.6333    0.0000 N   0  0  0  0  0  0  0  0  0
   -5.0657   -1.8048    0.0000 C   0  0  0  0  0  0  0  0  0
   -5.6177   -1.1917    0.0000 C   0  0  0  0  0  0  0  0  0
   -3.7067   -2.2464    0.0000 C   0  0  0  0  0  0  0  0  0
   -2.8997   -2.0748    0.0000 C   0  0  0  0  0  0  0  0  0
   -2.6447   -1.2902    0.0000 C   0  0  0  0  0  0  0  0  0
   -1.8378   -1.1187    0.0000 C   0  0  0  0  0  0  0  0  0
   -1.5828   -0.3341    0.0000 N   0  0  0  0  0  0  0  0  0
   -0.7982   -0.0791    0.0000 C   0  0  0  0  0  0  0  0  0
   -0.7982    0.7459    0.0000 C   0  0  0  0  0  0  0  0  0
   -1.5828    1.0008    0.0000 C   0  0  0  0  0  0  0  0  0
   -2.0678    0.3334    0.0000 C   0  0  0  0  0  0  0  0  0
   -2.8928    0.3334    0.0000 O   0  0  0  0  0  0  0  0  0
   -0.0837    1.1584    0.0000 C   0  0  0  0  0  0  0  0  0
    0.6307    0.7459    0.0000 C   0  0  0  0  0  0  0  0  0
    0.6307   -0.0791    0.0000 C   0  0  0  0  0  0  0  0  0
   -0.0837   -0.4916    0.0000 C   0  0  0  0  0  0  0  0  0
  1  2  1  0  0  0  0
  1  3  1  0  0  0  0
  3  4  4  0  0  0  0
  3  8  4  0  0  0  0
  4  5  4  0  0  0  0
  5  6  4  0  0  0  0
  6  7  4  0  0  0  0
  7  8  4  0  0  0  0
  8  9  1  0  0  0  0
  9 10  1  0  0  0  0
  9 14  1  0  0  0  0
 10 11  1  0  0  0  0
 11 12  1  0  0  0  0
 12 13  1  0  0  0  0
 12 15  1  0  0  0  0
 13 14  1  0  0  0  0
 15 16  1  0  0  0  0
 16 17  1  0  0  0  0
 17 18  1  0  0  0  0
 18 19  1  0  0  0  0
 19 20  1  0  0  0  0
 19 23  1  0  0  0  0
 20 21  4  0  0  0  0
 20 28  4  0  0  0  0
 21 22  1  0  0  0  0
 21 25  4  0  0  0  0
 22 23  1  0  0  0  0
 23 24  2  0  0  0  0
 25 26  4  0  0  0  0
 26 27  4  0  0  0  0
 27 28  4  0  0  0  0
M  END
>  <Name_Molregno>
404505

>  <5-HT1A>
6

>  <5-HT7>
7.49

>  <DOPAMINE D2>
6.46

>  <DOPAMINE D3>
6.71

>  <DOPAMINE D5>
6.48

$$$$
404508
  Marvin  02231216192D 0   1.00000     0.00000     0

 26 29  0  0  0  0  0  0  0  0999 V2000
   -0.6599    1.4832    0.0000 O   0  0  0  0  0  0  0  0  0
   -0.4049    0.6986    0.0000 C   0  0  0  0  0  0  0  0  0
   -0.8899    0.0312    0.0000 N   0  0  0  0  0  0  0  0  0
   -0.4049   -0.6363    0.0000 C   0  0  0  0  0  0  0  0  0
    0.3797   -0.3813    0.0000 C   0  0  0  0  0  0  0  0  0
    0.3797    0.4437    0.0000 C   0  0  0  0  0  0  0  0  0
    1.0942    0.8562    0.0000 C   0  0  0  0  0  0  0  0  0
    1.8086    0.4437    0.0000 C   0  0  0  0  0  0  0  0  0
    1.8086   -0.3813    0.0000 C   0  0  0  0  0  0  0  0  0
    1.0942   -0.7938    0.0000 C   0  0  0  0  0  0  0  0  0
   -1.7149    0.0312    0.0000 C   0  0  0  0  0  0  0  0  0
   -2.1274   -0.6833    0.0000 C   0  0  0  0  0  0  0  0  0
   -2.9524   -0.6833    0.0000 C   0  0  0  0  0  0  0  0  0
   -3.3649   -1.3978    0.0000 C   0  0  0  0  0  0  0  0  0
   -4.1899   -1.3978    0.0000 N   0  0  0  0  0  0  0  0  0
   -4.6024   -2.1122    0.0000 C   0  0  0  0  0  0  0  0  0
   -5.4274   -2.1122    0.0000 C   0  0  0  0  0  0  0  0  0
   -5.8399   -1.3978    0.0000 N   0  0  0  0  0  0  0  0  0
   -5.4274   -0.6833    0.0000 C   0  0  0  0  0  0  0  0  0
   -4.6024   -0.6833    0.0000 C   0  0  0  0  0  0  0  0  0
   -6.6649   -1.3978    0.0000 C   0  0  0  0  0  0  0  0  0
   -7.0774   -2.1122    0.0000 C   0  0  0  0  0  0  0  0  0
   -7.9024   -2.1122    0.0000 C   0  0  0  0  0  0  0  0  0
   -8.3149   -1.3978    0.0000 C   0  0  0  0  0  0  0  0  0
   -7.9024   -0.6833    0.0000 C   0  0  0  0  0  0  0  0  0
   -7.0774   -0.6833    0.0000 C   0  0  0  0  0  0  0  0  0
  1  2  2  0  0  0  0
  2  3  1  0  0  0  0
  2  6  1  0  0  0  0
  3  4  1  0  0  0  0
  3 11  1  0  0  0  0
  4  5  1  0  0  0  0
  5  6  4  0  0  0  0
  5 10  4  0  0  0  0
  6  7  4  0  0  0  0
  7  8  4  0  0  0  0
  8  9  4  0  0  0  0
  9 10  4  0  0  0  0
 11 12  1  0  0  0  0
 12 13  1  0  0  0  0
 13 14  1  0  0  0  0
 14 15  1  0  0  0  0
 15 16  1  0  0  0  0
 15 20  1  0  0  0  0
 16 17  1  0  0  0  0
 17 18  1  0  0  0  0
 18 19  1  0  0  0  0
 18 21  1  0  0  0  0
 19 20  1  0  0  0  0
 21 22  4  0  0  0  0
 21 26  4  0  0  0  0
 22 23  4  0  0  0  0
 23 24  4  0  0  0  0
 24 25  4  0  0  0  0
 25 26  4  0  0  0  0
M  END
>  <Name_Molregno>
404508

>  <5-HT1A>
6.44

>  <5-HT7>
6

>  <DOPAMINE D2>
6.97

>  <DOPAMINE D3>
7.45

>  <DOPAMINE D5>
6.05

$$$$
404513
  Marvin  02231216192D 0   1.00000     0.00000     0

 28 31  0  0  0  0  0  0  0  0999 V2000
    0.4432   -1.8740    0.0000 O   0  0  0  0  0  0  0  0  0
    0.0307   -2.5885    0.0000 C   0  0  0  0  0  0  0  0  0
    0.0307   -1.1595    0.0000 C   0  0  0  0  0  0  0  0  0
   -0.7943   -1.1595    0.0000 C   0  0  0  0  0  0  0  0  0
   -1.2068   -0.4451    0.0000 C   0  0  0  0  0  0  0  0  0
   -0.7943    0.2694    0.0000 C   0  0  0  0  0  0  0  0  0
    0.0307    0.2694    0.0000 C   0  0  0  0  0  0  0  0  0
    0.4432   -0.4451    0.0000 C   0  0  0  0  0  0  0  0  0
    1.2682   -0.4451    0.0000 N   0  0  0  0  0  0  0  0  0
    1.6807    0.2694    0.0000 C   0  0  0  0  0  0  0  0  0
    2.5057    0.2694    0.0000 C   0  0  0  0  0  0  0  0  0
    2.9182   -0.4451    0.0000 N   0  0  0  0  0  0  0  0  0
    2.5057   -1.1595    0.0000 C   0  0  0  0  0  0  0  0  0
    1.6807   -1.1595    0.0000 C   0  0  0  0  0  0  0  0  0
    3.7432   -0.4451    0.0000 C   0  0  0  0  0  0  0  0  0
    4.1557    0.2694    0.0000 C   0  0  0  0  0  0  0  0  0
    4.9807    0.2694    0.0000 C   0  0  0  0  0  0  0  0  0
    5.3932    0.9839    0.0000 C   0  0  0  0  0  0  0  0  0
    6.2182    0.9839    0.0000 N   0  0  0  0  0  0  0  0  0
    6.7031    0.3165    0.0000 C   0  0  0  0  0  0  0  0  0
    7.4877    0.5714    0.0000 C   0  0  0  0  0  0  0  0  0
    7.4877    1.3964    0.0000 C   0  0  0  0  0  0  0  0  0
    8.2022    1.8089    0.0000 C   0  0  0  0  0  0  0  0  0
    8.9166    1.3964    0.0000 C   0  0  0  0  0  0  0  0  0
    8.9166    0.5714    0.0000 C   0  0  0  0  0  0  0  0  0
    8.2022    0.1589    0.0000 C   0  0  0  0  0  0  0  0  0
    6.7031    1.6513    0.0000 C   0  0  0  0  0  0  0  0  0
    6.4481    2.4359    0.0000 O   0  0  0  0  0  0  0  0  0
  1  2  1  0  0  0  0
  1  3  1  0  0  0  0
  3  4  4  0  0  0  0
  3  8  4  0  0  0  0
  4  5  4  0  0  0  0
  5  6  4  0  0  0  0
  6  7  4  0  0  0  0
  7  8  4  0  0  0  0
  8  9  1  0  0  0  0
  9 10  1  0  0  0  0
  9 14  1  0  0  0  0
 10 11  1  0  0  0  0
 11 12  1  0  0  0  0
 12 13  1  0  0  0  0
 12 15  1  0  0  0  0
 13 14  1  0  0  0  0
 15 16  1  0  0  0  0
 16 17  1  0  0  0  0
 17 18  1  0  0  0  0
 18 19  1  0  0  0  0
 19 20  1  0  0  0  0
 19 27  1  0  0  0  0
 20 21  1  0  0  0  0
 21 22  4  0  0  0  0
 21 26  4  0  0  0  0
 22 23  4  0  0  0  0
 22 27  1  0  0  0  0
 23 24  4  0  0  0  0
 24 25  4  0  0  0  0
 25 26  4  0  0  0  0
 27 28  2  0  0  0  0
M  END
>  <Name_Molregno>
404513

>  <5-HT1A>
6

>  <5-HT7>
6.8

>  <DOPAMINE D2>
6.98

>  <DOPAMINE D3>
7.52

>  <DOPAMINE D5>
6.99

$$$$
407329
  Marvin  02231216192D 0   1.00000     0.00000     0

 30 32  0  0  0  0  0  0  0  0999 V2000
    0.5379    2.4537    0.0000 F   0  0  0  0  0  0  0  0  0
    0.5379    1.6287    0.0000 C   0  0  0  0  0  0  0  0  0
   -0.2871    1.6287    0.0000 F   0  0  0  0  0  0  0  0  0
    1.3629    1.6287    0.0000 F   0  0  0  0  0  0  0  0  0
    0.5379    0.8037    0.0000 C   0  0  0  0  0  0  0  0  0
    1.2524    0.3912    0.0000 C   0  0  0  0  0  0  0  0  0
    1.2524   -0.4338    0.0000 C   0  0  0  0  0  0  0  0  0
    1.9668   -0.8463    0.0000 N   0  0  0  0  0  0  0  0  0
    2.6813   -0.4338    0.0000 C   0  0  0  0  0  0  0  0  0
    3.3958   -0.8463    0.0000 C   0  0  0  0  0  0  0  0  0
    3.3958   -1.6713    0.0000 N   0  0  0  0  0  0  0  0  0
    2.6813   -2.0838    0.0000 C   0  0  0  0  0  0  0  0  0
    1.9668   -1.6713    0.0000 C   0  0  0  0  0  0  0  0  0
    4.1102   -2.0838    0.0000 C   0  0  0  0  0  0  0  0  0
    4.8247   -1.6713    0.0000 C   0  0  0  0  0  0  0  0  0
    5.5392   -2.0838    0.0000 C   0  0  0  0  0  0  0  0  0
    6.2537   -1.6713    0.0000 C   0  0  0  0  0  0  0  0  0
    6.9681   -2.0838    0.0000 N   0  0  0  0  0  0  0  0  0
    7.6826   -1.6713    0.0000 C   0  0  0  0  0  0  0  0  0
    7.6826   -0.8463    0.0000 O   0  0  0  0  0  0  0  0  0
    8.3971   -2.0838    0.0000 C   0  0  0  0  0  0  0  0  0
    8.3971   -2.9088    0.0000 C   0  0  0  0  0  0  0  0  0
    7.6826   -3.3213    0.0000 C   0  0  0  0  0  0  0  0  0
    6.9681   -2.9088    0.0000 C   0  0  0  0  0  0  0  0  0
    6.2537   -3.3213    0.0000 O   0  0  0  0  0  0  0  0  0
    9.2216   -2.9375    0.0000 C   0  0  0  0  0  0  0  0  0
    8.8343   -3.6084    0.0000 C   0  0  0  0  0  0  0  0  0
    0.5379   -0.8463    0.0000 C   0  0  0  0  0  0  0  0  0
   -0.1766   -0.4338    0.0000 C   0  0  0  0  0  0  0  0  0
   -0.1766    0.3912    0.0000 C   0  0  0  0  0  0  0  0  0
  1  2  1  0  0  0  0
  2  3  1  0  0  0  0
  2  4  1  0  0  0  0
  2  5  1  0  0  0  0
  5  6  4  0  0  0  0
  5 30  4  0  0  0  0
  6  7  4  0  0  0  0
  7  8  1  0  0  0  0
  7 28  4  0  0  0  0
  8  9  1  0  0  0  0
  8 13  1  0  0  0  0
  9 10  1  0  0  0  0
 10 11  1  0  0  0  0
 11 12  1  0  0  0  0
 11 14  1  0  0  0  0
 12 13  1  0  0  0  0
 14 15  1  0  0  0  0
 15 16  1  0  0  0  0
 16 17  1  0  0  0  0
 17 18  1  0  0  0  0
 18 19  1  0  0  0  0
 18 24  1  0  0  0  0
 19 20  2  0  0  0  0
 19 21  1  0  0  0  0
 21 22  1  0  0  0  0
 22 23  1  0  0  0  0
 22 26  1  0  0  0  0
 22 27  1  0  0  0  0
 23 24  1  0  0  0  0
 24 25  2  0  0  0  0
 28 29  4  0  0  0  0
 29 30  4  0  0  0  0
M  END
>  <Name_Molregno>
407329

>  <5-HT7>
7.34

$$$$
407334
  Marvin  02231216192D 0   1.00000     0.00000     0

 32 35  0  0  0  0  0  0  0  0999 V2000
   -8.0068    2.2306    0.0000 F   0  0  0  0  0  0  0  0  0
   -8.0068    1.4056    0.0000 C   0  0  0  0  0  0  0  0  0
   -8.8318    1.4056    0.0000 F   0  0  0  0  0  0  0  0  0
   -7.1818    1.4056    0.0000 F   0  0  0  0  0  0  0  0  0
   -8.0068    0.5806    0.0000 C   0  0  0  0  0  0  0  0  0
   -7.2923    0.1681    0.0000 C   0  0  0  0  0  0  0  0  0
   -7.2923   -0.6569    0.0000 C   0  0  0  0  0  0  0  0  0
   -6.5778   -1.0694    0.0000 N   0  0  0  0  0  0  0  0  0
   -5.8634   -0.6569    0.0000 C   0  0  0  0  0  0  0  0  0
   -5.1489   -1.0694    0.0000 C   0  0  0  0  0  0  0  0  0
   -5.1489   -1.8944    0.0000 N   0  0  0  0  0  0  0  0  0
   -5.8634   -2.3069    0.0000 C   0  0  0  0  0  0  0  0  0
   -6.5778   -1.8944    0.0000 C   0  0  0  0  0  0  0  0  0
   -4.4344   -2.3069    0.0000 C   0  0  0  0  0  0  0  0  0
   -3.7199   -1.8944    0.0000 C   0  0  0  0  0  0  0  0  0
   -3.0055   -2.3069    0.0000 C   0  0  0  0  0  0  0  0  0
   -3.0055   -3.1319    0.0000 C   0  0  0  0  0  0  0  0  0
   -2.2910   -3.5444    0.0000 N   0  0  0  0  0  0  0  0  0
   -1.5765   -3.1319    0.0000 C   0  0  0  0  0  0  0  0  0
   -1.5765   -2.3069    0.0000 O   0  0  0  0  0  0  0  0  0
   -0.8621   -3.5444    0.0000 C   0  0  0  0  0  0  0  0  0
   -0.8621   -4.3694    0.0000 C   0  0  0  0  0  0  0  0  0
   -1.5765   -4.7819    0.0000 C   0  0  0  0  0  0  0  0  0
   -2.2910   -4.3694    0.0000 C   0  0  0  0  0  0  0  0  0
   -3.0055   -4.7819    0.0000 O   0  0  0  0  0  0  0  0  0
   -0.0376   -4.3982    0.0000 C   0  0  0  0  0  0  0  0  0
   -0.4249   -5.0690    0.0000 C   0  0  0  0  0  0  0  0  0
   -3.7199   -3.5444    0.0000 C   0  0  0  0  0  0  0  0  0
   -4.4344   -3.1319    0.0000 C   0  0  0  0  0  0  0  0  0
   -8.0068   -1.0694    0.0000 C   0  0  0  0  0  0  0  0  0
   -8.7212   -0.6569    0.0000 C   0  0  0  0  0  0  0  0  0
   -8.7212    0.1681    0.0000 C   0  0  0  0  0  0  0  0  0
  1  2  1  0  0  0  0
  2  3  1  0  0  0  0
  2  4  1  0  0  0  0
  2  5  1  0  0  0  0
  5  6  4  0  0  0  0
  5 32  4  0  0  0  0
  6  7  4  0  0  0  0
  7  8  1  0  0  0  0
  7 30  4  0  0  0  0
  8  9  1  0  0  0  0
  8 13  1  0  0  0  0
  9 10  1  0  0  0  0
 10 11  1  0  0  0  0
 11 12  1  0  0  0  0
 11 14  1  0  0  0  0
 12 13  1  0  0  0  0
 14 15  1  0  0  0  0
 14 29  1  0  0  0  0
 15 16  1  0  0  0  0
 16 17  1  0  0  0  0
 17 18  1  0  0  0  0
 17 28  1  0  0  0  0
 18 19  1  0  0  0  0
 18 24  1  0  0  0  0
 19 20  2  0  0  0  0
 19 21  1  0  0  0  0
 21 22  1  0  0  0  0
 22 23  1  0  0  0  0
 22 26  1  0  0  0  0
 22 27  1  0  0  0  0
 23 24  1  0  0  0  0
 24 25  2  0  0  0  0
 28 29  1  0  0  0  0
 30 31  4  0  0  0  0
 31 32  4  0  0  0  0
M  END
>  <Name_Molregno>
407334

>  <5-HT7>
6.66

$$$$
407336
  Marvin  02231216192D 0   1.00000     0.00000     0

 28 30  0  0  0  0  0  0  0  0999 V2000
    0.6828    3.1777    0.0000 F   0  0  0  0  0  0  0  0  0
    0.6828    2.3527    0.0000 C   0  0  0  0  0  0  0  0  0
   -0.1422    2.3527    0.0000 F   0  0  0  0  0  0  0  0  0
    1.5078    2.3527    0.0000 F   0  0  0  0  0  0  0  0  0
    0.6828    1.5277    0.0000 C   0  0  0  0  0  0  0  0  0
    1.3973    1.1152    0.0000 C   0  0  0  0  0  0  0  0  0
    1.3973    0.2902    0.0000 C   0  0  0  0  0  0  0  0  0
    2.1117   -0.1223    0.0000 N   0  0  0  0  0  0  0  0  0
    2.8262    0.2902    0.0000 C   0  0  0  0  0  0  0  0  0
    3.5407   -0.1223    0.0000 C   0  0  0  0  0  0  0  0  0
    3.5407   -0.9473    0.0000 N   0  0  0  0  0  0  0  0  0
    2.8262   -1.3598    0.0000 C   0  0  0  0  0  0  0  0  0
    2.1117   -0.9473    0.0000 C   0  0  0  0  0  0  0  0  0
    4.2551   -1.3598    0.0000 C   0  0  0  0  0  0  0  0  0
    4.9696   -0.9473    0.0000 C   0  0  0  0  0  0  0  0  0
    5.6841   -1.3598    0.0000 C   0  0  0  0  0  0  0  0  0
    6.3986   -0.9473    0.0000 C   0  0  0  0  0  0  0  0  0
    7.1130   -1.3598    0.0000 N   0  0  0  0  0  0  0  0  0
    7.8275   -0.9473    0.0000 C   0  0  0  0  0  0  0  0  0
    7.8275   -0.1223    0.0000 O   0  0  0  0  0  0  0  0  0
    8.5420   -1.3598    0.0000 C   0  0  0  0  0  0  0  0  0
    8.5420   -2.1848    0.0000 C   0  0  0  0  0  0  0  0  0
    7.8275   -2.5973    0.0000 C   0  0  0  0  0  0  0  0  0
    7.1130   -2.1848    0.0000 C   0  0  0  0  0  0  0  0  0
    6.3986   -2.5973    0.0000 O   0  0  0  0  0  0  0  0  0
    0.6828   -0.1223    0.0000 C   0  0  0  0  0  0  0  0  0
   -0.0317    0.2902    0.0000 C   0  0  0  0  0  0  0  0  0
   -0.0317    1.1152    0.0000 C   0  0  0  0  0  0  0  0  0
  1  2  1  0  0  0  0
  2  3  1  0  0  0  0
  2  4  1  0  0  0  0
  2  5  1  0  0  0  0
  5  6  4  0  0  0  0
  5 28  4  0  0  0  0
  6  7  4  0  0  0  0
  7  8  1  0  0  0  0
  7 26  4  0  0  0  0
  8  9  1  0  0  0  0
  8 13  1  0  0  0  0
  9 10  1  0  0  0  0
 10 11  1  0  0  0  0
 11 12  1  0  0  0  0
 11 14  1  0  0  0  0
 12 13  1  0  0  0  0
 14 15  1  0  0  0  0
 15 16  1  0  0  0  0
 16 17  1  0  0  0  0
 17 18  1  0  0  0  0
 18 19  1  0  0  0  0
 18 24  1  0  0  0  0
 19 20  2  0  0  0  0
 19 21  1  0  0  0  0
 21 22  1  0  0  0  0
 22 23  1  0  0  0  0
 23 24  1  0  0  0  0
 24 25  2  0  0  0  0
 26 27  4  0  0  0  0
 27 28  4  0  0  0  0
M  END
>  <Name_Molregno>
407336

>  <5-HT7>
7.68

$$$$
407337
  Marvin  02231216192D 0   1.00000     0.00000     0

 30 33  0  0  0  0  0  0  0  0999 V2000
   -6.5863    3.4242    0.0000 F   0  0  0  0  0  0  0  0  0
   -6.5863    2.5992    0.0000 C   0  0  0  0  0  0  0  0  0
   -7.4113    2.5992    0.0000 F   0  0  0  0  0  0  0  0  0
   -5.7613    2.5992    0.0000 F   0  0  0  0  0  0  0  0  0
   -6.5863    1.7742    0.0000 C   0  0  0  0  0  0  0  0  0
   -5.8718    1.3617    0.0000 C   0  0  0  0  0  0  0  0  0
   -5.8718    0.5367    0.0000 C   0  0  0  0  0  0  0  0  0
   -5.1574    0.1242    0.0000 N   0  0  0  0  0  0  0  0  0
   -4.4429    0.5367    0.0000 C   0  0  0  0  0  0  0  0  0
   -3.7284    0.1242    0.0000 C   0  0  0  0  0  0  0  0  0
   -3.7284   -0.7008    0.0000 N   0  0  0  0  0  0  0  0  0
   -4.4429   -1.1133    0.0000 C   0  0  0  0  0  0  0  0  0
   -5.1574   -0.7008    0.0000 C   0  0  0  0  0  0  0  0  0
   -3.0140   -1.1133    0.0000 C   0  0  0  0  0  0  0  0  0
   -2.2995   -0.7008    0.0000 C   0  0  0  0  0  0  0  0  0
   -1.5850   -1.1133    0.0000 C   0  0  0  0  0  0  0  0  0
   -1.5850   -1.9383    0.0000 C   0  0  0  0  0  0  0  0  0
   -0.8705   -2.3508    0.0000 N   0  0  0  0  0  0  0  0  0
   -0.1561   -1.9383    0.0000 C   0  0  0  0  0  0  0  0  0
   -0.1561   -1.1133    0.0000 O   0  0  0  0  0  0  0  0  0
    0.5584   -2.3508    0.0000 C   0  0  0  0  0  0  0  0  0
    0.5584   -3.1758    0.0000 C   0  0  0  0  0  0  0  0  0
   -0.1561   -3.5883    0.0000 C   0  0  0  0  0  0  0  0  0
   -0.8705   -3.1758    0.0000 C   0  0  0  0  0  0  0  0  0
   -1.5850   -3.5883    0.0000 O   0  0  0  0  0  0  0  0  0
   -2.2995   -2.3508    0.0000 C   0  0  0  0  0  0  0  0  0
   -3.0140   -1.9383    0.0000 C   0  0  0  0  0  0  0  0  0
   -6.5863    0.1242    0.0000 C   0  0  0  0  0  0  0  0  0
   -7.3008    0.5367    0.0000 C   0  0  0  0  0  0  0  0  0
   -7.3008    1.3617    0.0000 C   0  0  0  0  0  0  0  0  0
  1  2  1  0  0  0  0
  2  3  1  0  0  0  0
  2  4  1  0  0  0  0
  2  5  1  0  0  0  0
  5  6  4  0  0  0  0
  5 30  4  0  0  0  0
  6  7  4  0  0  0  0
  7  8  1  0  0  0  0
  7 28  4  0  0  0  0
  8  9  1  0  0  0  0
  8 13  1  0  0  0  0
  9 10  1  0  0  0  0
 10 11  1  0  0  0  0
 11 12  1  0  0  0  0
 11 14  1  0  0  0  0
 12 13  1  0  0  0  0
 14 15  1  0  0  0  0
 14 27  1  0  0  0  0
 15 16  1  0  0  0  0
 16 17  1  0  0  0  0
 17 18  1  0  0  0  0
 17 26  1  0  0  0  0
 18 19  1  0  0  0  0
 18 24  1  0  0  0  0
 19 20  2  0  0  0  0
 19 21  1  0  0  0  0
 21 22  1  0  0  0  0
 22 23  1  0  0  0  0
 23 24  1  0  0  0  0
 24 25  2  0  0  0  0
 26 27  1  0  0  0  0
 28 29  4  0  0  0  0
 29 30  4  0  0  0  0
M  END
>  <Name_Molregno>
407337

>  <5-HT7>
5.92

$$$$
407338
  Marvin  02231216192D 0   1.00000     0.00000     0

 31 34  0  0  0  0  0  0  0  0999 V2000
    0.3429    1.3355    0.0000 F   0  0  0  0  0  0  0  0  0
    0.7554    0.6211    0.0000 C   0  0  0  0  0  0  0  0  0
    0.0409    0.2086    0.0000 F   0  0  0  0  0  0  0  0  0
    1.4698    1.0336    0.0000 F   0  0  0  0  0  0  0  0  0
    1.1679   -0.0934    0.0000 C   0  0  0  0  0  0  0  0  0
    1.9929   -0.0934    0.0000 C   0  0  0  0  0  0  0  0  0
    2.4054   -0.8079    0.0000 C   0  0  0  0  0  0  0  0  0
    3.2304   -0.8079    0.0000 N   0  0  0  0  0  0  0  0  0
    3.6429   -0.0934    0.0000 C   0  0  0  0  0  0  0  0  0
    4.4679   -0.0934    0.0000 C   0  0  0  0  0  0  0  0  0
    4.8804   -0.8079    0.0000 N   0  0  0  0  0  0  0  0  0
    4.4679   -1.5224    0.0000 C   0  0  0  0  0  0  0  0  0
    3.6429   -1.5224    0.0000 C   0  0  0  0  0  0  0  0  0
    5.7054   -0.8079    0.0000 C   0  0  0  0  0  0  0  0  0
    6.1179   -0.0934    0.0000 C   0  0  0  0  0  0  0  0  0
    6.9429   -0.0934    0.0000 C   0  0  0  0  0  0  0  0  0
    7.3554    0.6211    0.0000 C   0  0  0  0  0  0  0  0  0
    8.1804    0.6211    0.0000 N   0  0  0  0  0  0  0  0  0
    8.6653   -0.0464    0.0000 C   0  0  0  0  0  0  0  0  0
    8.4103   -0.8310    0.0000 O   0  0  0  0  0  0  0  0  0
    9.4499    0.2086    0.0000 C   0  0  0  0  0  0  0  0  0
    9.4499    1.0336    0.0000 C   0  0  0  0  0  0  0  0  0
   10.1644    1.4461    0.0000 C   0  0  0  0  0  0  0  0  0
   10.8788    1.0336    0.0000 C   0  0  0  0  0  0  0  0  0
   10.8788    0.2086    0.0000 C   0  0  0  0  0  0  0  0  0
   10.1644   -0.2039    0.0000 C   0  0  0  0  0  0  0  0  0
    8.6653    1.2885    0.0000 C   0  0  0  0  0  0  0  0  0
    8.4103    2.0731    0.0000 O   0  0  0  0  0  0  0  0  0
    1.9929   -1.5224    0.0000 C   0  0  0  0  0  0  0  0  0
    1.1679   -1.5224    0.0000 C   0  0  0  0  0  0  0  0  0
    0.7554   -0.8079    0.0000 C   0  0  0  0  0  0  0  0  0
  1  2  1  0  0  0  0
  2  3  1  0  0  0  0
  2  4  1  0  0  0  0
  2  5  1  0  0  0  0
  5  6  4  0  0  0  0
  5 31  4  0  0  0  0
  6  7  4  0  0  0  0
  7  8  1  0  0  0  0
  7 29  4  0  0  0  0
  8  9  1  0  0  0  0
  8 13  1  0  0  0  0
  9 10  1  0  0  0  0
 10 11  1  0  0  0  0
 11 12  1  0  0  0  0
 11 14  1  0  0  0  0
 12 13  1  0  0  0  0
 14 15  1  0  0  0  0
 15 16  1  0  0  0  0
 16 17  1  0  0  0  0
 17 18  1  0  0  0  0
 18 19  1  0  0  0  0
 18 27  1  0  0  0  0
 19 20  2  0  0  0  0
 19 21  1  0  0  0  0
 21 22  2  0  0  0  0
 21 26  1  0  0  0  0
 22 23  1  0  0  0  0
 22 27  1  0  0  0  0
 23 24  1  0  0  0  0
 24 25  1  0  0  0  0
 25 26  1  0  0  0  0
 27 28  2  0  0  0  0
 29 30  4  0  0  0  0
 30 31  4  0  0  0  0
M  END
>  <Name_Molregno>
407338

>  <5-HT7>
6.87

$$$$
407339
  Marvin  02231216192D 0   1.00000     0.00000     0

 33 37  0  0  0  0  0  0  0  0999 V2000
    0.1941    2.5007    0.0000 F   0  0  0  0  0  0  0  0  0
    0.6066    1.7862    0.0000 C   0  0  0  0  0  0  0  0  0
   -0.1078    1.3737    0.0000 F   0  0  0  0  0  0  0  0  0
    1.3211    2.1987    0.0000 F   0  0  0  0  0  0  0  0  0
    1.0191    1.0718    0.0000 C   0  0  0  0  0  0  0  0  0
    1.8441    1.0718    0.0000 C   0  0  0  0  0  0  0  0  0
    2.2566    0.3573    0.0000 C   0  0  0  0  0  0  0  0  0
    3.0816    0.3573    0.0000 N   0  0  0  0  0  0  0  0  0
    3.4941    1.0718    0.0000 C   0  0  0  0  0  0  0  0  0
    4.3191    1.0718    0.0000 C   0  0  0  0  0  0  0  0  0
    4.7316    0.3573    0.0000 N   0  0  0  0  0  0  0  0  0
    4.3191   -0.3572    0.0000 C   0  0  0  0  0  0  0  0  0
    3.4941   -0.3572    0.0000 C   0  0  0  0  0  0  0  0  0
    5.5566    0.3573    0.0000 C   0  0  0  0  0  0  0  0  0
    5.9691    1.0718    0.0000 C   0  0  0  0  0  0  0  0  0
    6.7941    1.0718    0.0000 C   0  0  0  0  0  0  0  0  0
    7.2066    0.3573    0.0000 C   0  0  0  0  0  0  0  0  0
    8.0316    0.3573    0.0000 N   0  0  0  0  0  0  0  0  0
    8.5166   -0.3101    0.0000 C   0  0  0  0  0  0  0  0  0
    8.2616   -1.0948    0.0000 O   0  0  0  0  0  0  0  0  0
    9.3012   -0.0552    0.0000 C   0  0  0  0  0  0  0  0  0
    9.3012    0.7698    0.0000 C   0  0  0  0  0  0  0  0  0
   10.0157    1.1823    0.0000 C   0  0  0  0  0  0  0  0  0
   10.7301    0.7698    0.0000 C   0  0  0  0  0  0  0  0  0
   10.7301   -0.0552    0.0000 C   0  0  0  0  0  0  0  0  0
   10.0157   -0.4677    0.0000 C   0  0  0  0  0  0  0  0  0
    8.5166    1.0247    0.0000 C   0  0  0  0  0  0  0  0  0
    8.2616    1.8094    0.0000 O   0  0  0  0  0  0  0  0  0
    6.7941   -0.3572    0.0000 C   0  0  0  0  0  0  0  0  0
    5.9691   -0.3572    0.0000 C   0  0  0  0  0  0  0  0  0
    1.8441   -0.3572    0.0000 C   0  0  0  0  0  0  0  0  0
    1.0191   -0.3572    0.0000 C   0  0  0  0  0  0  0  0  0
    0.6066    0.3573    0.0000 C   0  0  0  0  0  0  0  0  0
  1  2  1  0  0  0  0
  2  3  1  0  0  0  0
  2  4  1  0  0  0  0
  2  5  1  0  0  0  0
  5  6  4  0  0  0  0
  5 33  4  0  0  0  0
  6  7  4  0  0  0  0
  7  8  1  0  0  0  0
  7 31  4  0  0  0  0
  8  9  1  0  0  0  0
  8 13  1  0  0  0  0
  9 10  1  0  0  0  0
 10 11  1  0  0  0  0
 11 12  1  0  0  0  0
 11 14  1  0  0  0  0
 12 13  1  0  0  0  0
 14 15  1  0  0  0  0
 14 30  1  0  0  0  0
 15 16  1  0  0  0  0
 16 17  1  0  0  0  0
 17 18  1  0  0  0  0
 17 29  1  0  0  0  0
 18 19  1  0  0  0  0
 18 27  1  0  0  0  0
 19 20  2  0  0  0  0
 19 21  1  0  0  0  0
 21 22  2  0  0  0  0
 21 26  1  0  0  0  0
 22 23  1  0  0  0  0
 22 27  1  0  0  0  0
 23 24  1  0  0  0  0
 24 25  1  0  0  0  0
 25 26  1  0  0  0  0
 27 28  2  0  0  0  0
 29 30  1  0  0  0  0
 31 32  4  0  0  0  0
 32 33  4  0  0  0  0
M  END
>  <Name_Molregno>
407339

>  <5-HT7>
5.3

$$$$
407340
  Marvin  02231216192D 0   1.00000     0.00000     0

 31 34  0  0  1  0  0  0  0  0999 V2000
    0.3429    1.3355    0.0000 F   0  0  0  0  0  0  0  0  0
    0.7554    0.6211    0.0000 C   0  0  0  0  0  0  0  0  0
    0.0409    0.2086    0.0000 F   0  0  0  0  0  0  0  0  0
    1.4698    1.0336    0.0000 F   0  0  0  0  0  0  0  0  0
    1.1679   -0.0934    0.0000 C   0  0  0  0  0  0  0  0  0
    1.9929   -0.0934    0.0000 C   0  0  0  0  0  0  0  0  0
    2.4054   -0.8079    0.0000 C   0  0  0  0  0  0  0  0  0
    3.2304   -0.8079    0.0000 N   0  0  0  0  0  0  0  0  0
    3.6429   -0.0934    0.0000 C   0  0  0  0  0  0  0  0  0
    4.4679   -0.0934    0.0000 C   0  0  0  0  0  0  0  0  0
    4.8804   -0.8079    0.0000 N   0  0  0  0  0  0  0  0  0
    4.4679   -1.5224    0.0000 C   0  0  0  0  0  0  0  0  0
    3.6429   -1.5224    0.0000 C   0  0  0  0  0  0  0  0  0
    5.7054   -0.8079    0.0000 C   0  0  0  0  0  0  0  0  0
    6.1179   -0.0934    0.0000 C   0  0  0  0  0  0  0  0  0
    6.9429   -0.0934    0.0000 C   0  0  0  0  0  0  0  0  0
    7.3554    0.6211    0.0000 C   0  0  0  0  0  0  0  0  0
    8.1804    0.6211    0.0000 N   0  0  0  0  0  0  0  0  0
    8.6653   -0.0464    0.0000 C   0  0  0  0  0  0  0  0  0
    8.4103   -0.8310    0.0000 O   0  0  0  0  0  0  0  0  0
    9.4499    0.2086    0.0000 C   0  0  0  0  0  0  0  0  0
    9.4499    1.0336    0.0000 C   0  0  0  0  0  0  0  0  0
   10.1644    1.4461    0.0000 C   0  0  0  0  0  0  0  0  0
   10.8788    1.0336    0.0000 C   0  0  0  0  0  0  0  0  0
   10.8788    0.2086    0.0000 C   0  0  0  0  0  0  0  0  0
   10.1644   -0.2039    0.0000 C   0  0  0  0  0  0  0  0  0
    8.6653    1.2885    0.0000 C   0  0  0  0  0  0  0  0  0
    8.4103    2.0731    0.0000 O   0  0  0  0  0  0  0  0  0
    1.9929   -1.5224    0.0000 C   0  0  0  0  0  0  0  0  0
    1.1679   -1.5224    0.0000 C   0  0  0  0  0  0  0  0  0
    0.7554   -0.8079    0.0000 C   0  0  0  0  0  0  0  0  0
  1  2  1  0  0  0  0
  2  3  1  0  0  0  0
  2  4  1  0  0  0  0
  2  5  1  0  0  0  0
  5  6  4  0  0  0  0
  5 31  4  0  0  0  0
  6  7  4  0  0  0  0
  7  8  1  0  0  0  0
  7 29  4  0  0  0  0
  8  9  1  0  0  0  0
  8 13  1  0  0  0  0
  9 10  1  0  0  0  0
 10 11  1  0  0  0  0
 11 12  1  0  0  0  0
 11 14  1  0  0  0  0
 12 13  1  0  0  0  0
 14 15  1  0  0  0  0
 15 16  1  0  0  0  0
 16 17  1  0  0  0  0
 17 18  1  0  0  0  0
 18 19  1  0  0  0  0
 18 27  1  0  0  0  0
 19 20  2  0  0  0  0
 19 21  1  0  0  0  0
 21 22  1  0  0  0  0
 21 26  1  0  0  0  0
 22 23  1  0  0  0  0
 22 27  1  0  0  0  0
 23 24  1  0  0  0  0
 24 25  2  0  0  0  0
 25 26  1  0  0  0  0
 27 28  2  0  0  0  0
 29 30  4  0  0  0  0
 30 31  4  0  0  0  0
M  END
>  <Name_Molregno>
407340

>  <5-HT7>
7.51

$$$$
407342
  Marvin  02231216192D 0   1.00000     0.00000     0

 33 37  0  0  1  0  0  0  0  0999 V2000
    0.1941    2.5007    0.0000 F   0  0  0  0  0  0  0  0  0
    0.6066    1.7862    0.0000 C   0  0  0  0  0  0  0  0  0
   -0.1078    1.3737    0.0000 F   0  0  0  0  0  0  0  0  0
    1.3211    2.1987    0.0000 F   0  0  0  0  0  0  0  0  0
    1.0191    1.0718    0.0000 C   0  0  0  0  0  0  0  0  0
    1.8441    1.0718    0.0000 C   0  0  0  0  0  0  0  0  0
    2.2566    0.3573    0.0000 C   0  0  0  0  0  0  0  0  0
    3.0816    0.3573    0.0000 N   0  0  0  0  0  0  0  0  0
    3.4941    1.0718    0.0000 C   0  0  0  0  0  0  0  0  0
    4.3191    1.0718    0.0000 C   0  0  0  0  0  0  0  0  0
    4.7316    0.3573    0.0000 N   0  0  0  0  0  0  0  0  0
    4.3191   -0.3572    0.0000 C   0  0  0  0  0  0  0  0  0
    3.4941   -0.3572    0.0000 C   0  0  0  0  0  0  0  0  0
    5.5566    0.3573    0.0000 C   0  0  0  0  0  0  0  0  0
    5.9691    1.0718    0.0000 C   0  0  0  0  0  0  0  0  0
    6.7941    1.0718    0.0000 C   0  0  0  0  0  0  0  0  0
    7.2066    0.3573    0.0000 C   0  0  0  0  0  0  0  0  0
    8.0316    0.3573    0.0000 N   0  0  0  0  0  0  0  0  0
    8.5166   -0.3101    0.0000 C   0  0  0  0  0  0  0  0  0
    8.2616   -1.0948    0.0000 O   0  0  0  0  0  0  0  0  0
    9.3012   -0.0552    0.0000 C   0  0  0  0  0  0  0  0  0
    9.3012    0.7698    0.0000 C   0  0  0  0  0  0  0  0  0
   10.0157    1.1823    0.0000 C   0  0  0  0  0  0  0  0  0
   10.7301    0.7698    0.0000 C   0  0  0  0  0  0  0  0  0
   10.7301   -0.0552    0.0000 C   0  0  0  0  0  0  0  0  0
   10.0157   -0.4677    0.0000 C   0  0  0  0  0  0  0  0  0
    8.5166    1.0247    0.0000 C   0  0  0  0  0  0  0  0  0
    8.2616    1.8094    0.0000 O   0  0  0  0  0  0  0  0  0
    6.7941   -0.3572    0.0000 C   0  0  0  0  0  0  0  0  0
    5.9691   -0.3572    0.0000 C   0  0  0  0  0  0  0  0  0
    1.8441   -0.3572    0.0000 C   0  0  0  0  0  0  0  0  0
    1.0191   -0.3572    0.0000 C   0  0  0  0  0  0  0  0  0
    0.6066    0.3573    0.0000 C   0  0  0  0  0  0  0  0  0
  1  2  1  0  0  0  0
  2  3  1  0  0  0  0
  2  4  1  0  0  0  0
  2  5  1  0  0  0  0
  5  6  4  0  0  0  0
  5 33  4  0  0  0  0
  6  7  4  0  0  0  0
  7  8  1  0  0  0  0
  7 31  4  0  0  0  0
  8  9  1  0  0  0  0
  8 13  1  0  0  0  0
  9 10  1  0  0  0  0
 10 11  1  0  0  0  0
 11 12  1  0  0  0  0
 11 14  1  0  0  0  0
 12 13  1  0  0  0  0
 14 15  1  0  0  0  0
 14 30  1  0  0  0  0
 15 16  1  0  0  0  0
 16 17  1  0  0  0  0
 17 18  1  0  0  0  0
 17 29  1  0  0  0  0
 18 19  1  0  0  0  0
 18 27  1  0  0  0  0
 19 20  2  0  0  0  0
 19 21  1  0  0  0  0
 21 22  1  0  0  0  0
 21 26  1  0  0  0  0
 22 23  1  0  0  0  0
 22 27  1  0  0  0  0
 23 24  1  0  0  0  0
 24 25  2  0  0  0  0
 25 26  1  0  0  0  0
 27 28  2  0  0  0  0
 29 30  1  0  0  0  0
 31 32  4  0  0  0  0
 32 33  4  0  0  0  0
M  END
>  <Name_Molregno>
407342

>  <5-HT7>
6.47

$$$$
407345
  Marvin  02231216192D 0   1.00000     0.00000     0

 29 31  0  0  1  0  0  0  0  0999 V2000
    0.6845    3.2992    0.0000 F   0  0  0  0  0  0  0  0  0
    0.6845    2.4742    0.0000 C   0  0  0  0  0  0  0  0  0
   -0.1405    2.4742    0.0000 F   0  0  0  0  0  0  0  0  0
    1.5095    2.4742    0.0000 F   0  0  0  0  0  0  0  0  0
    0.6845    1.6492    0.0000 C   0  0  0  0  0  0  0  0  0
    1.3989    1.2367    0.0000 C   0  0  0  0  0  0  0  0  0
    1.3989    0.4117    0.0000 C   0  0  0  0  0  0  0  0  0
    2.1134   -0.0008    0.0000 N   0  0  0  0  0  0  0  0  0
    2.8279    0.4117    0.0000 C   0  0  0  0  0  0  0  0  0
    3.5424   -0.0008    0.0000 C   0  0  0  0  0  0  0  0  0
    3.5424   -0.8258    0.0000 N   0  0  0  0  0  0  0  0  0
    2.8279   -1.2383    0.0000 C   0  0  0  0  0  0  0  0  0
    2.1134   -0.8258    0.0000 C   0  0  0  0  0  0  0  0  0
    4.2568   -1.2383    0.0000 C   0  0  0  0  0  0  0  0  0
    4.9713   -0.8258    0.0000 C   0  0  0  0  0  0  0  0  0
    5.6858   -1.2383    0.0000 C   0  0  0  0  0  0  0  0  0
    6.4002   -0.8258    0.0000 C   0  0  0  0  0  0  0  0  0
    7.1147   -1.2383    0.0000 N   0  0  0  0  0  0  0  0  0
    7.8684   -0.9027    0.0000 C   0  0  0  0  0  0  0  0  0
    8.0399   -0.0957    0.0000 O   0  0  0  0  0  0  0  0  0
    8.4204   -1.5158    0.0000 C   0  0  0  0  0  0  0  0  0
    9.2409   -1.4296    0.0000 C   0  0  0  0  0  0  0  0  0
    8.0079   -2.2303    0.0000 C   0  0  0  0  0  0  0  0  0
    8.3435   -2.9840    0.0000 C   0  0  0  0  0  0  0  0  0
    7.2009   -2.0588    0.0000 C   0  0  0  0  0  0  0  0  0
    6.5878   -2.6108    0.0000 O   0  0  0  0  0  0  0  0  0
    0.6845   -0.0008    0.0000 C   0  0  0  0  0  0  0  0  0
   -0.0300    0.4117    0.0000 C   0  0  0  0  0  0  0  0  0
   -0.0300    1.2367    0.0000 C   0  0  0  0  0  0  0  0  0
  1  2  1  0  0  0  0
  2  3  1  0  0  0  0
  2  4  1  0  0  0  0
  2  5  1  0  0  0  0
  5  6  4  0  0  0  0
  5 29  4  0  0  0  0
  6  7  4  0  0  0  0
  7  8  1  0  0  0  0
  7 27  4  0  0  0  0
  8  9  1  0  0  0  0
  8 13  1  0  0  0  0
  9 10  1  0  0  0  0
 10 11  1  0  0  0  0
 11 12  1  0  0  0  0
 11 14  1  0  0  0  0
 12 13  1  0  0  0  0
 14 15  1  0  0  0  0
 15 16  1  0  0  0  0
 16 17  1  0  0  0  0
 17 18  1  0  0  0  0
 18 19  1  0  0  0  0
 18 25  1  0  0  0  0
 19 20  2  0  0  0  0
 19 21  1  0  0  0  0
 21 22  1  0  0  0  0
 21 23  1  0  0  0  0
 23 24  1  0  0  0  0
 23 25  1  0  0  0  0
 25 26  2  0  0  0  0
 27 28  4  0  0  0  0
 28 29  4  0  0  0  0
M  END
>  <Name_Molregno>
407345

>  <5-HT7>
6.97

$$$$
407346
  Marvin  02231216192D 0   1.00000     0.00000     0

 31 34  0  0  1  0  0  0  0  0999 V2000
   -1.6988    3.4604    0.0000 F   0  0  0  0  0  0  0  0  0
   -2.4133    3.0479    0.0000 C   0  0  0  0  0  0  0  0  0
   -2.8258    3.7624    0.0000 F   0  0  0  0  0  0  0  0  0
   -2.0008    2.3334    0.0000 F   0  0  0  0  0  0  0  0  0
   -3.1277    2.6354    0.0000 C   0  0  0  0  0  0  0  0  0
   -3.1277    1.8104    0.0000 C   0  0  0  0  0  0  0  0  0
   -3.8422    1.3979    0.0000 C   0  0  0  0  0  0  0  0  0
   -3.8422    0.5729    0.0000 N   0  0  0  0  0  0  0  0  0
   -3.1277    0.1604    0.0000 C   0  0  0  0  0  0  0  0  0
   -3.1277   -0.6646    0.0000 C   0  0  0  0  0  0  0  0  0
   -3.8422   -1.0771    0.0000 N   0  0  0  0  0  0  0  0  0
   -4.5567   -0.6646    0.0000 C   0  0  0  0  0  0  0  0  0
   -4.5567    0.1604    0.0000 C   0  0  0  0  0  0  0  0  0
   -3.8422   -1.9021    0.0000 C   0  0  0  0  0  0  0  0  0
   -3.1277   -2.3146    0.0000 C   0  0  0  0  0  0  0  0  0
   -3.1277   -3.1396    0.0000 C   0  0  0  0  0  0  0  0  0
   -3.8422   -3.5521    0.0000 C   0  0  0  0  0  0  0  0  0
   -3.8422   -4.3771    0.0000 N   0  0  0  0  0  0  0  0  0
   -3.1748   -4.8620    0.0000 C   0  0  0  0  0  0  0  0  0
   -2.3901   -4.6071    0.0000 O   0  0  0  0  0  0  0  0  0
   -3.4297   -5.6466    0.0000 C   0  0  0  0  0  0  0  0  0
   -2.9448   -6.3141    0.0000 C   0  0  0  0  0  0  0  0  0
   -4.2547   -5.6466    0.0000 C   0  0  0  0  0  0  0  0  0
   -4.7396   -6.3141    0.0000 C   0  0  0  0  0  0  0  0  0
   -4.5096   -4.8620    0.0000 C   0  0  0  0  0  0  0  0  0
   -5.2943   -4.6071    0.0000 O   0  0  0  0  0  0  0  0  0
   -4.5567   -3.1396    0.0000 C   0  0  0  0  0  0  0  0  0
   -4.5567   -2.3146    0.0000 C   0  0  0  0  0  0  0  0  0
   -4.5567    1.8104    0.0000 C   0  0  0  0  0  0  0  0  0
   -4.5567    2.6354    0.0000 C   0  0  0  0  0  0  0  0  0
   -3.8422    3.0479    0.0000 C   0  0  0  0  0  0  0  0  0
  1  2  1  0  0  0  0
  2  3  1  0  0  0  0
  2  4  1  0  0  0  0
  2  5  1  0  0  0  0
  5  6  4  0  0  0  0
  5 31  4  0  0  0  0
  6  7  4  0  0  0  0
  7  8  1  0  0  0  0
  7 29  4  0  0  0  0
  8  9  1  0  0  0  0
  8 13  1  0  0  0  0
  9 10  1  0  0  0  0
 10 11  1  0  0  0  0
 11 12  1  0  0  0  0
 11 14  1  0  0  0  0
 12 13  1  0  0  0  0
 14 15  1  0  0  0  0
 14 28  1  0  0  0  0
 15 16  1  0  0  0  0
 16 17  1  0  0  0  0
 17 18  1  0  0  0  0
 17 27  1  0  0  0  0
 18 19  1  0  0  0  0
 18 25  1  0  0  0  0
 19 20  2  0  0  0  0
 19 21  1  0  0  0  0
 21 22  1  0  0  0  0
 21 23  1  0  0  0  0
 23 24  1  0  0  0  0
 23 25  1  0  0  0  0
 25 26  2  0  0  0  0
 27 28  1  0  0  0  0
 29 30  4  0  0  0  0
 30 31  4  0  0  0  0
M  END
>  <Name_Molregno>
407346

>  <5-HT7>
5.3

$$$$
409193
  Marvin  02231216192D 0   1.00000     0.00000     0

 34 38  0  0  0  0  0  0  0  0999 V2000
   -4.5528   -1.8767    0.0000 F   0  0  0  0  0  0  0  0  0
   -5.2673   -2.2892    0.0000 C   0  0  0  0  0  0  0  0  0
   -5.2673   -3.1142    0.0000 C   0  0  0  0  0  0  0  0  0
   -4.5528   -3.5267    0.0000 N   0  0  0  0  0  0  0  0  0
   -4.5528   -4.3517    0.0000 C   0  0  0  0  0  0  0  0  0
   -3.8384   -4.7642    0.0000 O   0  0  0  0  0  0  0  0  0
   -5.2673   -4.7642    0.0000 C   0  0  0  0  0  0  0  0  0
   -5.9818   -4.3517    0.0000 O   0  0  0  0  0  0  0  0  0
   -5.9818   -3.5267    0.0000 C   0  0  0  0  0  0  0  0  0
   -6.6962   -3.1142    0.0000 C   0  0  0  0  0  0  0  0  0
   -6.6962   -2.2892    0.0000 C   0  0  0  0  0  0  0  0  0
   -5.9818   -1.8767    0.0000 C   0  0  0  0  0  0  0  0  0
   -5.9818   -1.0517    0.0000 C   0  0  0  0  0  0  0  0  0
   -5.2673   -0.6392    0.0000 C   0  0  0  0  0  0  0  0  0
   -5.2673    0.1858    0.0000 C   0  0  0  0  0  0  0  0  0
   -4.5528    0.5983    0.0000 C   0  0  0  0  0  0  0  0  0
   -3.8384    0.1858    0.0000 N   0  0  0  0  0  0  0  0  0
   -3.8384   -0.6392    0.0000 C   0  0  0  0  0  0  0  0  0
   -4.5528   -1.0517    0.0000 C   0  0  0  0  0  0  0  0  0
   -3.1239    0.5983    0.0000 C   0  0  0  0  0  0  0  0  0
   -3.1239    1.4233    0.0000 C   0  0  0  0  0  0  0  0  0
   -2.4094    1.8358    0.0000 O   0  0  0  0  0  0  0  0  0
   -2.4094    2.6608    0.0000 C   0  0  0  0  0  0  0  0  0
   -3.1239    3.0733    0.0000 C   0  0  0  0  0  0  0  0  0
   -3.1239    3.8983    0.0000 C   0  0  0  0  0  0  0  0  0
   -3.8384    4.3108    0.0000 F   0  0  0  0  0  0  0  0  0
   -2.4094    4.3108    0.0000 C   0  0  0  0  0  0  0  0  0
   -1.6949    3.8983    0.0000 C   0  0  0  0  0  0  0  0  0
   -0.9805    4.3108    0.0000 N   0  0  0  0  0  0  0  0  0
   -0.2660    3.8983    0.0000 C   0  0  0  0  0  0  0  0  0
   -0.2660    3.0733    0.0000 C   0  0  0  0  0  0  0  0  0
   -0.9805    2.6608    0.0000 C   0  0  0  0  0  0  0  0  0
   -1.6949    3.0733    0.0000 C   0  0  0  0  0  0  0  0  0
    0.4485    4.3108    0.0000 C   0  0  0  0  0  0  0  0  0
  1  2  1  0  0  0  0
  2  3  4  0  0  0  0
  2 12  4  0  0  0  0
  3  4  1  0  0  0  0
  3  9  4  0  0  0  0
  4  5  1  0  0  0  0
  5  6  2  0  0  0  0
  5  7  1  0  0  0  0
  7  8  1  0  0  0  0
  8  9  1  0  0  0  0
  9 10  4  0  0  0  0
 10 11  4  0  0  0  0
 11 12  4  0  0  0  0
 12 13  1  0  0  0  0
 13 14  1  0  0  0  0
 14 15  1  0  0  0  0
 14 19  1  0  0  0  0
 15 16  1  0  0  0  0
 16 17  1  0  0  0  0
 17 18  1  0  0  0  0
 17 20  1  0  0  0  0
 18 19  1  0  0  0  0
 20 21  1  0  0  0  0
 21 22  1  0  0  0  0
 22 23  1  0  0  0  0
 23 24  4  0  0  0  0
 23 33  4  0  0  0  0
 24 25  4  0  0  0  0
 25 26  1  0  0  0  0
 25 27  4  0  0  0  0
 27 28  4  0  0  0  0
 28 29  4  0  0  0  0
 28 33  4  0  0  0  0
 29 30  4  0  0  0  0
 30 31  4  0  0  0  0
 30 34  1  0  0  0  0
 31 32  4  0  0  0  0
 32 33  4  0  0  0  0
M  END
>  <Name_Molregno>
409193

>  <5-HT1A>
8.8

>  <5-HT1B>
6.4

>  <5-HT1D>
7

>  <5-HT2A>
5.7

>  <5-HT2C>
5.6

>  <5-HT6>
5

>  <5-HT7>
6.9

>  <DOPAMINE D2>
5.9

>  <DOPAMINE D3>
6.1

$$$$
409194
  Marvin  02231216192D 0   1.00000     0.00000     0

 34 38  0  0  0  0  0  0  0  0999 V2000
   -2.9576    0.9914    0.0000 Cl  0  0  0  0  0  0  0  0  0
   -2.2431    0.5789    0.0000 C   0  0  0  0  0  0  0  0  0
   -2.2431   -0.2461    0.0000 C   0  0  0  0  0  0  0  0  0
   -1.5287   -0.6586    0.0000 C   0  0  0  0  0  0  0  0  0
   -1.5287   -1.4836    0.0000 O   0  0  0  0  0  0  0  0  0
   -2.2431   -1.8961    0.0000 C   0  0  0  0  0  0  0  0  0
   -2.2431   -2.7211    0.0000 C   0  0  0  0  0  0  0  0  0
   -2.9576   -3.1336    0.0000 N   0  0  0  0  0  0  0  0  0
   -2.9576   -3.9586    0.0000 C   0  0  0  0  0  0  0  0  0
   -3.6721   -4.3711    0.0000 C   0  0  0  0  0  0  0  0  0
   -4.3866   -3.9586    0.0000 C   0  0  0  0  0  0  0  0  0
   -4.3866   -3.1336    0.0000 C   0  0  0  0  0  0  0  0  0
   -3.6721   -2.7211    0.0000 C   0  0  0  0  0  0  0  0  0
   -5.1010   -4.3711    0.0000 C   0  0  0  0  0  0  0  0  0
   -5.8155   -3.9586    0.0000 C   0  0  0  0  0  0  0  0  0
   -6.5300   -4.3711    0.0000 C   0  0  0  0  0  0  0  0  0
   -7.2444   -3.9586    0.0000 C   0  0  0  0  0  0  0  0  0
   -7.2444   -3.1336    0.0000 C   0  0  0  0  0  0  0  0  0
   -7.9589   -2.7211    0.0000 O   0  0  0  0  0  0  0  0  0
   -7.9589   -1.8961    0.0000 C   0  0  0  0  0  0  0  0  0
   -7.2444   -1.4836    0.0000 C   0  0  0  0  0  0  0  0  0
   -7.2444   -0.6586    0.0000 O   0  0  0  0  0  0  0  0  0
   -6.5300   -1.8961    0.0000 N   0  0  0  0  0  0  0  0  0
   -6.5300   -2.7211    0.0000 C   0  0  0  0  0  0  0  0  0
   -5.8155   -3.1336    0.0000 C   0  0  0  0  0  0  0  0  0
   -5.1010   -2.7211    0.0000 F   0  0  0  0  0  0  0  0  0
   -0.8142   -0.2461    0.0000 C   0  0  0  0  0  0  0  0  0
   -0.8142    0.5789    0.0000 C   0  0  0  0  0  0  0  0  0
   -0.0997    0.9914    0.0000 N   0  0  0  0  0  0  0  0  0
    0.6147    0.5789    0.0000 C   0  0  0  0  0  0  0  0  0
    0.6147   -0.2461    0.0000 C   0  0  0  0  0  0  0  0  0
   -0.0997   -0.6586    0.0000 C   0  0  0  0  0  0  0  0  0
    1.3292    0.9914    0.0000 C   0  0  0  0  0  0  0  0  0
   -1.5287    0.9914    0.0000 C   0  0  0  0  0  0  0  0  0
  1  2  1  0  0  0  0
  2  3  4  0  0  0  0
  2 34  4  0  0  0  0
  3  4  4  0  0  0  0
  4  5  1  0  0  0  0
  4 27  4  0  0  0  0
  5  6  1  0  0  0  0
  6  7  1  0  0  0  0
  7  8  1  0  0  0  0
  8  9  1  0  0  0  0
  8 13  1  0  0  0  0
  9 10  1  0  0  0  0
 10 11  1  0  0  0  0
 11 12  1  0  0  0  0
 11 14  1  0  0  0  0
 12 13  1  0  0  0  0
 14 15  1  0  0  0  0
 15 16  4  0  0  0  0
 15 25  4  0  0  0  0
 16 17  4  0  0  0  0
 17 18  4  0  0  0  0
 18 19  1  0  0  0  0
 18 24  4  0  0  0  0
 19 20  1  0  0  0  0
 20 21  1  0  0  0  0
 21 22  2  0  0  0  0
 21 23  1  0  0  0  0
 23 24  1  0  0  0  0
 24 25  4  0  0  0  0
 25 26  1  0  0  0  0
 27 28  4  0  0  0  0
 27 32  4  0  0  0  0
 28 29  4  0  0  0  0
 28 34  4  0  0  0  0
 29 30  4  0  0  0  0
 30 31  4  0  0  0  0
 30 33  1  0  0  0  0
 31 32  4  0  0  0  0
M  END
>  <Name_Molregno>
409194

>  <5-HT1A>
8.6

>  <5-HT1B>
5.8

>  <5-HT1D>
6.2

>  <5-HT2A>
5.4

>  <5-HT2C>
5.4

>  <5-HT6>
5

>  <5-HT7>
6.9

>  <DOPAMINE D2>
5.9

>  <DOPAMINE D3>
6

$$$$
409196
  Marvin  02231216192D 0   1.00000     0.00000     0

 34 38  0  0  0  0  0  0  0  0999 V2000
   -4.5009   -2.0892    0.0000 F   0  0  0  0  0  0  0  0  0
   -5.2153   -2.5017    0.0000 C   0  0  0  0  0  0  0  0  0
   -5.2153   -3.3267    0.0000 C   0  0  0  0  0  0  0  0  0
   -5.9298   -3.7392    0.0000 C   0  0  0  0  0  0  0  0  0
   -5.9298   -4.5642    0.0000 O   0  0  0  0  0  0  0  0  0
   -6.6443   -4.9767    0.0000 C   0  0  0  0  0  0  0  0  0
   -7.3588   -4.5642    0.0000 C   0  0  0  0  0  0  0  0  0
   -8.0732   -4.9767    0.0000 O   0  0  0  0  0  0  0  0  0
   -7.3588   -3.7392    0.0000 N   0  0  0  0  0  0  0  0  0
   -6.6443   -3.3267    0.0000 C   0  0  0  0  0  0  0  0  0
   -6.6443   -2.5017    0.0000 C   0  0  0  0  0  0  0  0  0
   -5.9298   -2.0892    0.0000 C   0  0  0  0  0  0  0  0  0
   -5.9298   -1.2642    0.0000 C   0  0  0  0  0  0  0  0  0
   -5.2153   -0.8517    0.0000 C   0  0  0  0  0  0  0  0  0
   -5.2153   -0.0267    0.0000 C   0  0  0  0  0  0  0  0  0
   -4.5009    0.3858    0.0000 C   0  0  0  0  0  0  0  0  0
   -3.7864   -0.0267    0.0000 N   0  0  0  0  0  0  0  0  0
   -3.7864   -0.8517    0.0000 C   0  0  0  0  0  0  0  0  0
   -4.5009   -1.2642    0.0000 C   0  0  0  0  0  0  0  0  0
   -3.0719    0.3858    0.0000 C   0  0  0  0  0  0  0  0  0
   -3.0719    1.2108    0.0000 C   0  0  0  0  0  0  0  0  0
   -2.3575    1.6233    0.0000 O   0  0  0  0  0  0  0  0  0
   -2.3575    2.4483    0.0000 C   0  0  0  0  0  0  0  0  0
   -3.0719    2.8608    0.0000 C   0  0  0  0  0  0  0  0  0
   -3.0719    3.6858    0.0000 C   0  0  0  0  0  0  0  0  0
   -3.7864    4.0983    0.0000 F   0  0  0  0  0  0  0  0  0
   -2.3575    4.0983    0.0000 C   0  0  0  0  0  0  0  0  0
   -1.6430    3.6858    0.0000 C   0  0  0  0  0  0  0  0  0
   -0.9285    4.0983    0.0000 N   0  0  0  0  0  0  0  0  0
   -0.2141    3.6858    0.0000 C   0  0  0  0  0  0  0  0  0
   -0.2141    2.8608    0.0000 C   0  0  0  0  0  0  0  0  0
   -0.9285    2.4483    0.0000 C   0  0  0  0  0  0  0  0  0
   -1.6430    2.8608    0.0000 C   0  0  0  0  0  0  0  0  0
    0.5004    4.0983    0.0000 C   0  0  0  0  0  0  0  0  0
  1  2  1  0  0  0  0
  2  3  4  0  0  0  0
  2 12  4  0  0  0  0
  3  4  4  0  0  0  0
  4  5  1  0  0  0  0
  4 10  4  0  0  0  0
  5  6  1  0  0  0  0
  6  7  1  0  0  0  0
  7  8  2  0  0  0  0
  7  9  1  0  0  0  0
  9 10  1  0  0  0  0
 10 11  4  0  0  0  0
 11 12  4  0  0  0  0
 12 13  1  0  0  0  0
 13 14  1  0  0  0  0
 14 15  1  0  0  0  0
 14 19  1  0  0  0  0
 15 16  1  0  0  0  0
 16 17  1  0  0  0  0
 17 18  1  0  0  0  0
 17 20  1  0  0  0  0
 18 19  1  0  0  0  0
 20 21  1  0  0  0  0
 21 22  1  0  0  0  0
 22 23  1  0  0  0  0
 23 24  4  0  0  0  0
 23 33  4  0  0  0  0
 24 25  4  0  0  0  0
 25 26  1  0  0  0  0
 25 27  4  0  0  0  0
 27 28  4  0  0  0  0
 28 29  4  0  0  0  0
 28 33  4  0  0  0  0
 29 30  4  0  0  0  0
 30 31  4  0  0  0  0
 30 34  1  0  0  0  0
 31 32  4  0  0  0  0
 32 33  4  0  0  0  0
M  END
>  <Name_Molregno>
409196

>  <5-HT1A>
9.4

>  <5-HT1B>
6

>  <5-HT1D>
6.6

>  <5-HT2A>
5.7

>  <5-HT2C>
5.9

>  <5-HT6>
6

>  <5-HT7>
7.4

>  <DOPAMINE D2>
5.7

>  <DOPAMINE D3>
6.3

$$$$
409197
  Marvin  02231216192D 0   1.00000     0.00000     0

 34 38  0  0  0  0  0  0  0  0999 V2000
   -2.6497    1.0445    0.0000 Cl  0  0  0  0  0  0  0  0  0
   -1.9352    0.6320    0.0000 C   0  0  0  0  0  0  0  0  0
   -1.9352   -0.1930    0.0000 C   0  0  0  0  0  0  0  0  0
   -1.2208   -0.6055    0.0000 C   0  0  0  0  0  0  0  0  0
   -1.2208   -1.4305    0.0000 O   0  0  0  0  0  0  0  0  0
   -1.9352   -1.8430    0.0000 C   0  0  0  0  0  0  0  0  0
   -1.9352   -2.6680    0.0000 C   0  0  0  0  0  0  0  0  0
   -2.6497   -3.0805    0.0000 N   0  0  0  0  0  0  0  0  0
   -2.6497   -3.9055    0.0000 C   0  0  0  0  0  0  0  0  0
   -3.3642   -4.3180    0.0000 C   0  0  0  0  0  0  0  0  0
   -4.0786   -3.9055    0.0000 C   0  0  0  0  0  0  0  0  0
   -4.0786   -3.0805    0.0000 C   0  0  0  0  0  0  0  0  0
   -3.3642   -2.6680    0.0000 C   0  0  0  0  0  0  0  0  0
   -4.7931   -4.3180    0.0000 C   0  0  0  0  0  0  0  0  0
   -5.5076   -3.9055    0.0000 C   0  0  0  0  0  0  0  0  0
   -6.2220   -4.3180    0.0000 C   0  0  0  0  0  0  0  0  0
   -6.9365   -3.9055    0.0000 C   0  0  0  0  0  0  0  0  0
   -7.6510   -4.3180    0.0000 N   0  0  0  0  0  0  0  0  0
   -8.3655   -3.9055    0.0000 C   0  0  0  0  0  0  0  0  0
   -9.0799   -4.3180    0.0000 O   0  0  0  0  0  0  0  0  0
   -8.3655   -3.0805    0.0000 C   0  0  0  0  0  0  0  0  0
   -7.6510   -2.6680    0.0000 O   0  0  0  0  0  0  0  0  0
   -6.9365   -3.0805    0.0000 C   0  0  0  0  0  0  0  0  0
   -6.2220   -2.6680    0.0000 C   0  0  0  0  0  0  0  0  0
   -5.5076   -3.0805    0.0000 C   0  0  0  0  0  0  0  0  0
   -4.7931   -2.6680    0.0000 F   0  0  0  0  0  0  0  0  0
   -0.5063   -0.1930    0.0000 C   0  0  0  0  0  0  0  0  0
   -0.5063    0.6320    0.0000 C   0  0  0  0  0  0  0  0  0
    0.2082    1.0445    0.0000 N   0  0  0  0  0  0  0  0  0
    0.9227    0.6320    0.0000 C   0  0  0  0  0  0  0  0  0
    0.9227   -0.1930    0.0000 C   0  0  0  0  0  0  0  0  0
    0.2082   -0.6055    0.0000 C   0  0  0  0  0  0  0  0  0
    1.6371    1.0445    0.0000 C   0  0  0  0  0  0  0  0  0
   -1.2208    1.0445    0.0000 C   0  0  0  0  0  0  0  0  0
  1  2  1  0  0  0  0
  2  3  4  0  0  0  0
  2 34  4  0  0  0  0
  3  4  4  0  0  0  0
  4  5  1  0  0  0  0
  4 27  4  0  0  0  0
  5  6  1  0  0  0  0
  6  7  1  0  0  0  0
  7  8  1  0  0  0  0
  8  9  1  0  0  0  0
  8 13  1  0  0  0  0
  9 10  1  0  0  0  0
 10 11  1  0  0  0  0
 11 12  1  0  0  0  0
 11 14  1  0  0  0  0
 12 13  1  0  0  0  0
 14 15  1  0  0  0  0
 15 16  4  0  0  0  0
 15 25  4  0  0  0  0
 16 17  4  0  0  0  0
 17 18  1  0  0  0  0
 17 23  4  0  0  0  0
 18 19  1  0  0  0  0
 19 20  2  0  0  0  0
 19 21  1  0  0  0  0
 21 22  1  0  0  0  0
 22 23  1  0  0  0  0
 23 24  4  0  0  0  0
 24 25  4  0  0  0  0
 25 26  1  0  0  0  0
 27 28  4  0  0  0  0
 27 32  4  0  0  0  0
 28 29  4  0  0  0  0
 28 34  4  0  0  0  0
 29 30  4  0  0  0  0
 30 31  4  0  0  0  0
 30 33  1  0  0  0  0
 31 32  4  0  0  0  0
M  END
>  <Name_Molregno>
409197

>  <5-HT1A>
8.6

>  <5-HT1B>
5.7

>  <5-HT1D>
6.1

>  <5-HT2A>
5

>  <5-HT2C>
5.3

>  <5-HT6>
5.1

>  <5-HT7>
7.4

>  <DOPAMINE D2>
5.5

>  <DOPAMINE D3>
5.7

$$$$
409198
  Marvin  02231216192D 0   1.00000     0.00000     0

 34 38  0  0  0  0  0  0  0  0999 V2000
   -6.8888   -4.9862    0.0000 F   0  0  0  0  0  0  0  0  0
   -6.1744   -4.5737    0.0000 C   0  0  0  0  0  0  0  0  0
   -6.1744   -3.7487    0.0000 C   0  0  0  0  0  0  0  0  0
   -5.4599   -3.3362    0.0000 C   0  0  0  0  0  0  0  0  0
   -4.7454   -3.7487    0.0000 C   0  0  0  0  0  0  0  0  0
   -4.7454   -4.5737    0.0000 C   0  0  0  0  0  0  0  0  0
   -4.0309   -4.9862    0.0000 N   0  0  0  0  0  0  0  0  0
   -4.0309   -5.8112    0.0000 C   0  0  0  0  0  0  0  0  0
   -3.3165   -6.2237    0.0000 O   0  0  0  0  0  0  0  0  0
   -4.7454   -6.2237    0.0000 C   0  0  0  0  0  0  0  0  0
   -5.4599   -5.8112    0.0000 O   0  0  0  0  0  0  0  0  0
   -5.4599   -4.9862    0.0000 C   0  0  0  0  0  0  0  0  0
   -5.4599   -2.5112    0.0000 C   0  0  0  0  0  0  0  0  0
   -4.7454   -2.0987    0.0000 C   0  0  0  0  0  0  0  0  0
   -4.7454   -1.2737    0.0000 C   0  0  0  0  0  0  0  0  0
   -4.0309   -0.8612    0.0000 C   0  0  0  0  0  0  0  0  0
   -3.3165   -1.2737    0.0000 N   0  0  0  0  0  0  0  0  0
   -3.3165   -2.0987    0.0000 C   0  0  0  0  0  0  0  0  0
   -4.0309   -2.5112    0.0000 C   0  0  0  0  0  0  0  0  0
   -2.6020   -0.8612    0.0000 C   0  0  0  0  0  0  0  0  0
   -2.6020   -0.0362    0.0000 C   0  0  0  0  0  0  0  0  0
   -1.8875    0.3763    0.0000 O   0  0  0  0  0  0  0  0  0
   -1.8875    1.2013    0.0000 C   0  0  0  0  0  0  0  0  0
   -2.6020    1.6138    0.0000 C   0  0  0  0  0  0  0  0  0
   -2.6020    2.4388    0.0000 C   0  0  0  0  0  0  0  0  0
   -3.3165    2.8513    0.0000 F   0  0  0  0  0  0  0  0  0
   -1.8875    2.8513    0.0000 C   0  0  0  0  0  0  0  0  0
   -1.1731    2.4388    0.0000 C   0  0  0  0  0  0  0  0  0
   -0.4586    2.8513    0.0000 N   0  0  0  0  0  0  0  0  0
    0.2559    2.4388    0.0000 C   0  0  0  0  0  0  0  0  0
    0.2559    1.6138    0.0000 C   0  0  0  0  0  0  0  0  0
   -0.4586    1.2013    0.0000 C   0  0  0  0  0  0  0  0  0
   -1.1731    1.6138    0.0000 C   0  0  0  0  0  0  0  0  0
    0.9703    2.8513    0.0000 C   0  0  0  0  0  0  0  0  0
  1  2  1  0  0  0  0
  2  3  4  0  0  0  0
  2 12  4  0  0  0  0
  3  4  4  0  0  0  0
  4  5  4  0  0  0  0
  4 13  1  0  0  0  0
  5  6  4  0  0  0  0
  6  7  1  0  0  0  0
  6 12  4  0  0  0  0
  7  8  1  0  0  0  0
  8  9  2  0  0  0  0
  8 10  1  0  0  0  0
 10 11  1  0  0  0  0
 11 12  1  0  0  0  0
 13 14  1  0  0  0  0
 14 15  1  0  0  0  0
 14 19  1  0  0  0  0
 15 16  1  0  0  0  0
 16 17  1  0  0  0  0
 17 18  1  0  0  0  0
 17 20  1  0  0  0  0
 18 19  1  0  0  0  0
 20 21  1  0  0  0  0
 21 22  1  0  0  0  0
 22 23  1  0  0  0  0
 23 24  4  0  0  0  0
 23 33  4  0  0  0  0
 24 25  4  0  0  0  0
 25 26  1  0  0  0  0
 25 27  4  0  0  0  0
 27 28  4  0  0  0  0
 28 29  4  0  0  0  0
 28 33  4  0  0  0  0
 29 30  4  0  0  0  0
 30 31  4  0  0  0  0
 30 34  1  0  0  0  0
 31 32  4  0  0  0  0
 32 33  4  0  0  0  0
M  END
>  <Name_Molregno>
409198

>  <5-HT1A>
8.4

>  <5-HT1B>
6.5

>  <5-HT1D>
7.1

>  <5-HT2A>
5

>  <5-HT2C>
5

>  <5-HT6>
5.2

>  <5-HT7>
7.1

>  <DOPAMINE D2>
5

>  <DOPAMINE D3>
5.4

$$$$
409200
  Marvin  02231216192D 0   1.00000     0.00000     0

 34 38  0  0  0  0  0  0  0  0999 V2000
   -2.8865    0.9720    0.0000 Cl  0  0  0  0  0  0  0  0  0
   -2.1721    0.5595    0.0000 C   0  0  0  0  0  0  0  0  0
   -2.1721   -0.2655    0.0000 C   0  0  0  0  0  0  0  0  0
   -1.4576   -0.6780    0.0000 C   0  0  0  0  0  0  0  0  0
   -1.4576   -1.5030    0.0000 O   0  0  0  0  0  0  0  0  0
   -2.1721   -1.9155    0.0000 C   0  0  0  0  0  0  0  0  0
   -2.1721   -2.7405    0.0000 C   0  0  0  0  0  0  0  0  0
   -2.8865   -3.1530    0.0000 N   0  0  0  0  0  0  0  0  0
   -2.8865   -3.9780    0.0000 C   0  0  0  0  0  0  0  0  0
   -3.6010   -4.3905    0.0000 C   0  0  0  0  0  0  0  0  0
   -4.3155   -3.9780    0.0000 C   0  0  0  0  0  0  0  0  0
   -4.3155   -3.1530    0.0000 C   0  0  0  0  0  0  0  0  0
   -3.6010   -2.7405    0.0000 C   0  0  0  0  0  0  0  0  0
   -5.0299   -4.3905    0.0000 C   0  0  0  0  0  0  0  0  0
   -5.7444   -3.9780    0.0000 C   0  0  0  0  0  0  0  0  0
   -6.4589   -4.3905    0.0000 C   0  0  0  0  0  0  0  0  0
   -7.1733   -3.9780    0.0000 C   0  0  0  0  0  0  0  0  0
   -7.8878   -4.3905    0.0000 F   0  0  0  0  0  0  0  0  0
   -7.1733   -3.1530    0.0000 C   0  0  0  0  0  0  0  0  0
   -7.8878   -2.7405    0.0000 O   0  0  0  0  0  0  0  0  0
   -7.8878   -1.9155    0.0000 C   0  0  0  0  0  0  0  0  0
   -7.1733   -1.5030    0.0000 C   0  0  0  0  0  0  0  0  0
   -7.1733   -0.6780    0.0000 O   0  0  0  0  0  0  0  0  0
   -6.4589   -1.9155    0.0000 N   0  0  0  0  0  0  0  0  0
   -6.4589   -2.7405    0.0000 C   0  0  0  0  0  0  0  0  0
   -5.7444   -3.1530    0.0000 C   0  0  0  0  0  0  0  0  0
   -0.7431   -0.2655    0.0000 C   0  0  0  0  0  0  0  0  0
   -0.7431    0.5595    0.0000 C   0  0  0  0  0  0  0  0  0
   -0.0286    0.9720    0.0000 N   0  0  0  0  0  0  0  0  0
    0.6858    0.5595    0.0000 C   0  0  0  0  0  0  0  0  0
    0.6858   -0.2655    0.0000 C   0  0  0  0  0  0  0  0  0
   -0.0286   -0.6780    0.0000 C   0  0  0  0  0  0  0  0  0
    1.4003    0.9720    0.0000 C   0  0  0  0  0  0  0  0  0
   -1.4576    0.9720    0.0000 C   0  0  0  0  0  0  0  0  0
  1  2  1  0  0  0  0
  2  3  4  0  0  0  0
  2 34  4  0  0  0  0
  3  4  4  0  0  0  0
  4  5  1  0  0  0  0
  4 27  4  0  0  0  0
  5  6  1  0  0  0  0
  6  7  1  0  0  0  0
  7  8  1  0  0  0  0
  8  9  1  0  0  0  0
  8 13  1  0  0  0  0
  9 10  1  0  0  0  0
 10 11  1  0  0  0  0
 11 12  1  0  0  0  0
 11 14  1  0  0  0  0
 12 13  1  0  0  0  0
 14 15  1  0  0  0  0
 15 16  4  0  0  0  0
 15 26  4  0  0  0  0
 16 17  4  0  0  0  0
 17 18  1  0  0  0  0
 17 19  4  0  0  0  0
 19 20  1  0  0  0  0
 19 25  4  0  0  0  0
 20 21  1  0  0  0  0
 21 22  1  0  0  0  0
 22 23  2  0  0  0  0
 22 24  1  0  0  0  0
 24 25  1  0  0  0  0
 25 26  4  0  0  0  0
 27 28  4  0  0  0  0
 27 32  4  0  0  0  0
 28 29  4  0  0  0  0
 28 34  4  0  0  0  0
 29 30  4  0  0  0  0
 30 31  4  0  0  0  0
 30 33  1  0  0  0  0
 31 32  4  0  0  0  0
M  END
>  <Name_Molregno>
409200

>  <5-HT1A>
8

>  <5-HT1B>
6.2

>  <5-HT1D>
6.2

>  <5-HT2A>
5.5

>  <5-HT2C>
5.6

>  <5-HT6>
5

>  <5-HT7>
7.1

>  <DOPAMINE D2>
5.6

>  <DOPAMINE D3>
5.9

$$$$
421822
  Marvin  02231216192D 0   1.00000     0.00000     0

 21 23  0  0  1  0  0  0  0  0999 V2000
   -3.0222   -2.3693    0.0000 Cl  0  0  0  0  0  0  0  0  0
   -3.0222   -1.5443    0.0000 C   0  0  0  0  0  0  0  0  0
   -2.3077   -1.1318    0.0000 C   0  0  0  0  0  0  0  0  0
   -2.3077   -0.3068    0.0000 C   0  0  0  0  0  0  0  0  0
   -1.5933    0.1057    0.0000 N   0  0  0  0  0  0  0  0  0
   -0.8788   -0.3068    0.0000 C   0  0  0  0  0  0  0  0  0
   -0.1643    0.1057    0.0000 O   0  0  0  0  0  0  0  0  0
   -0.8788   -1.1318    0.0000 C   0  0  0  0  0  0  0  0  0
   -0.0663   -0.9885    0.0000 C   0  0  0  0  0  0  0  0  0
   -1.5933   -1.5443    0.0000 C   0  0  0  0  0  0  0  0  0
   -1.5933   -2.3693    0.0000 O   0  0  0  0  0  0  0  0  0
   -0.5966   -1.9070    0.0000 C   0  0  0  0  0  0  0  0  0
    0.2158   -2.0503    0.0000 C   0  0  0  0  0  0  0  0  0
    0.4980   -2.8255    0.0000 C   0  0  0  0  0  0  0  0  0
   -0.0323   -3.4575    0.0000 C   0  0  0  0  0  0  0  0  0
   -0.8448   -3.3143    0.0000 C   0  0  0  0  0  0  0  0  0
   -1.1269   -2.5390    0.0000 C   0  0  0  0  0  0  0  0  0
   -3.0222    0.1057    0.0000 C   0  0  0  0  0  0  0  0  0
   -3.7367   -0.3068    0.0000 C   0  0  0  0  0  0  0  0  0
   -4.4512    0.1057    0.0000 Cl  0  0  0  0  0  0  0  0  0
   -3.7367   -1.1318    0.0000 C   0  0  0  0  0  0  0  0  0
  1  2  1  0  0  0  0
  2  3  4  0  0  0  0
  2 21  4  0  0  0  0
  3  4  4  0  0  0  0
  3 10  1  0  0  0  0
  4  5  1  0  0  0  0
  4 18  4  0  0  0  0
  5  6  1  0  0  0  0
  6  7  2  0  0  0  0
  6  8  1  0  0  0  0
  8  9  1  0  0  0  0
  8 10  1  0  0  0  0
  8 12  1  0  0  0  0
 10 11  2  0  0  0  0
 12 13  4  0  0  0  0
 12 17  4  0  0  0  0
 13 14  4  0  0  0  0
 14 15  4  0  0  0  0
 15 16  4  0  0  0  0
 16 17  4  0  0  0  0
 18 19  4  0  0  0  0
 19 20  1  0  0  0  0
 19 21  4  0  0  0  0
M  END
>  <Name_Molregno>
421822

>  <5-HT1A>
5

>  <5-HT2A>
5

>  <5-HT2C>
5

>  <5-HT6>
7.26

>  <5-HT7>
5

>  <DOPAMINE D1>
5

>  <DOPAMINE D2>
5

>  <DOPAMINE D3>
5

>  <DOPAMINE D4>
5

$$$$
422032
  Marvin  02231216192D 0   1.00000     0.00000     0

 22 24  0  0  1  0  0  0  0  0999 V2000
    0.2420   -2.2208    0.0000 Cl  0  0  0  0  0  0  0  0  0
    0.2420   -1.3958    0.0000 C   0  0  0  0  0  0  0  0  0
    0.9565   -0.9833    0.0000 C   0  0  0  0  0  0  0  0  0
    0.9565   -0.1583    0.0000 C   0  0  0  0  0  0  0  0  0
    1.6709    0.2542    0.0000 N   0  0  0  0  0  0  0  0  0
    2.3854   -0.1583    0.0000 C   0  0  0  0  0  0  0  0  0
    3.0999    0.2542    0.0000 O   0  0  0  0  0  0  0  0  0
    2.3854   -0.9833    0.0000 C   0  0  0  0  0  0  0  0  0
    3.1979   -0.8401    0.0000 C   0  0  0  0  0  0  0  0  0
    1.6709   -1.3958    0.0000 C   0  0  0  0  0  0  0  0  0
    1.6709   -2.2208    0.0000 O   0  0  0  0  0  0  0  0  0
    2.6676   -1.7586    0.0000 C   0  0  0  0  0  0  0  0  0
    3.4800   -1.9018    0.0000 C   0  0  0  0  0  0  0  0  0
    3.7622   -2.6771    0.0000 C   0  0  0  0  0  0  0  0  0
    4.5747   -2.8203    0.0000 O   0  0  0  0  0  0  0  0  0
    3.2319   -3.3091    0.0000 C   0  0  0  0  0  0  0  0  0
    2.4194   -3.1658    0.0000 C   0  0  0  0  0  0  0  0  0
    2.1373   -2.3906    0.0000 C   0  0  0  0  0  0  0  0  0
    0.2420    0.2542    0.0000 C   0  0  0  0  0  0  0  0  0
   -0.4725   -0.1583    0.0000 C   0  0  0  0  0  0  0  0  0
   -1.1870    0.2542    0.0000 Cl  0  0  0  0  0  0  0  0  0
   -0.4725   -0.9833    0.0000 C   0  0  0  0  0  0  0  0  0
  1  2  1  0  0  0  0
  2  3  4  0  0  0  0
  2 22  4  0  0  0  0
  3  4  4  0  0  0  0
  3 10  1  0  0  0  0
  4  5  1  0  0  0  0
  4 19  4  0  0  0  0
  5  6  1  0  0  0  0
  6  7  2  0  0  0  0
  6  8  1  0  0  0  0
  8  9  1  0  0  0  0
  8 10  1  0  0  0  0
  8 12  1  0  0  0  0
 10 11  2  0  0  0  0
 12 13  4  0  0  0  0
 12 18  4  0  0  0  0
 13 14  4  0  0  0  0
 14 15  1  0  0  0  0
 14 16  4  0  0  0  0
 16 17  4  0  0  0  0
 17 18  4  0  0  0  0
 19 20  4  0  0  0  0
 20 21  1  0  0  0  0
 20 22  4  0  0  0  0
M  END
>  <Name_Molregno>
422032

>  <5-HT1A>
5

>  <5-HT2A>
5

>  <5-HT2C>
5

>  <5-HT6>
7.52

>  <5-HT7>
5

>  <DOPAMINE D1>
5.74

>  <DOPAMINE D2>
5

>  <DOPAMINE D3>
5

>  <DOPAMINE D4>
5

$$$$
422034
  Marvin  02231216192D 0   1.00000     0.00000     0

 22 24  0  0  1  0  0  0  0  0999 V2000
   -3.2883   -2.2141    0.0000 Cl  0  0  0  0  0  0  0  0  0
   -3.2883   -1.3891    0.0000 C   0  0  0  0  0  0  0  0  0
   -2.5738   -0.9766    0.0000 C   0  0  0  0  0  0  0  0  0
   -2.5738   -0.1516    0.0000 C   0  0  0  0  0  0  0  0  0
   -1.8594    0.2609    0.0000 N   0  0  0  0  0  0  0  0  0
   -1.1449   -0.1516    0.0000 C   0  0  0  0  0  0  0  0  0
   -0.4304    0.2609    0.0000 O   0  0  0  0  0  0  0  0  0
   -1.1449   -0.9766    0.0000 C   0  0  0  0  0  0  0  0  0
   -0.3324   -0.8334    0.0000 C   0  0  0  0  0  0  0  0  0
   -1.8594   -1.3891    0.0000 C   0  0  0  0  0  0  0  0  0
   -1.8594   -2.2141    0.0000 O   0  0  0  0  0  0  0  0  0
   -0.8627   -1.7519    0.0000 C   0  0  0  0  0  0  0  0  0
   -0.0503   -1.8951    0.0000 C   0  0  0  0  0  0  0  0  0
    0.2319   -2.6704    0.0000 C   0  0  0  0  0  0  0  0  0
   -0.2984   -3.3024    0.0000 C   0  0  0  0  0  0  0  0  0
   -0.0162   -4.0776    0.0000 O   0  0  0  0  0  0  0  0  0
   -1.1109   -3.1591    0.0000 C   0  0  0  0  0  0  0  0  0
   -1.3930   -2.3839    0.0000 C   0  0  0  0  0  0  0  0  0
   -3.2883    0.2609    0.0000 C   0  0  0  0  0  0  0  0  0
   -4.0028   -0.1516    0.0000 C   0  0  0  0  0  0  0  0  0
   -4.7172    0.2609    0.0000 Cl  0  0  0  0  0  0  0  0  0
   -4.0028   -0.9766    0.0000 C   0  0  0  0  0  0  0  0  0
  1  2  1  0  0  0  0
  2  3  4  0  0  0  0
  2 22  4  0  0  0  0
  3  4  4  0  0  0  0
  3 10  1  0  0  0  0
  4  5  1  0  0  0  0
  4 19  4  0  0  0  0
  5  6  1  0  0  0  0
  6  7  2  0  0  0  0
  6  8  1  0  0  0  0
  8  9  1  0  0  0  0
  8 10  1  0  0  0  0
  8 12  1  0  0  0  0
 10 11  2  0  0  0  0
 12 13  4  0  0  0  0
 12 18  4  0  0  0  0
 13 14  4  0  0  0  0
 14 15  4  0  0  0  0
 15 16  1  0  0  0  0
 15 17  4  0  0  0  0
 17 18  4  0  0  0  0
 19 20  4  0  0  0  0
 20 21  1  0  0  0  0
 20 22  4  0  0  0  0
M  END
>  <Name_Molregno>
422034

>  <5-HT1A>
5

>  <5-HT2A>
5

>  <5-HT2C>
5

>  <5-HT6>
7.91

>  <5-HT7>
5

>  <DOPAMINE D1>
5

>  <DOPAMINE D2>
5

>  <DOPAMINE D3>
5

>  <DOPAMINE D4>
5

$$$$
422042
  Marvin  02231216192D 0   1.00000     0.00000     0

 29 32  0  0  1  0  0  0  0  0999 V2000
   -4.6946   -2.2677    0.0000 Cl  0  0  0  0  0  0  0  0  0
   -4.6946   -1.4427    0.0000 C   0  0  0  0  0  0  0  0  0
   -3.9801   -1.0302    0.0000 C   0  0  0  0  0  0  0  0  0
   -3.9801   -0.2052    0.0000 C   0  0  0  0  0  0  0  0  0
   -3.2656    0.2073    0.0000 N   0  0  0  0  0  0  0  0  0
   -2.5512   -0.2052    0.0000 C   0  0  0  0  0  0  0  0  0
   -1.8367    0.2073    0.0000 O   0  0  0  0  0  0  0  0  0
   -2.5512   -1.0302    0.0000 C   0  0  0  0  0  0  0  0  0
   -1.7387   -0.8870    0.0000 C   0  0  0  0  0  0  0  0  0
   -3.2656   -1.4427    0.0000 C   0  0  0  0  0  0  0  0  0
   -3.2656   -2.2677    0.0000 O   0  0  0  0  0  0  0  0  0
   -2.2690   -1.8055    0.0000 C   0  0  0  0  0  0  0  0  0
   -1.4565   -1.9487    0.0000 C   0  0  0  0  0  0  0  0  0
   -1.1744   -2.7240    0.0000 C   0  0  0  0  0  0  0  0  0
   -0.3619   -2.8672    0.0000 O   0  0  0  0  0  0  0  0  0
   -0.0797   -3.6425    0.0000 C   0  0  0  0  0  0  0  0  0
    0.7327   -3.7857    0.0000 C   0  0  0  0  0  0  0  0  0
    1.2630   -3.1538    0.0000 C   0  0  0  0  0  0  0  0  0
    2.0755   -3.2970    0.0000 C   0  0  0  0  0  0  0  0  0
    2.3577   -4.0723    0.0000 C   0  0  0  0  0  0  0  0  0
    1.8274   -4.7042    0.0000 C   0  0  0  0  0  0  0  0  0
    1.0149   -4.5610    0.0000 C   0  0  0  0  0  0  0  0  0
   -1.7047   -3.3560    0.0000 C   0  0  0  0  0  0  0  0  0
   -2.5171   -3.2127    0.0000 C   0  0  0  0  0  0  0  0  0
   -2.7993   -2.4375    0.0000 C   0  0  0  0  0  0  0  0  0
   -4.6946    0.2073    0.0000 C   0  0  0  0  0  0  0  0  0
   -5.4091   -0.2052    0.0000 C   0  0  0  0  0  0  0  0  0
   -6.1235    0.2073    0.0000 Cl  0  0  0  0  0  0  0  0  0
   -5.4091   -1.0302    0.0000 C   0  0  0  0  0  0  0  0  0
  1  2  1  0  0  0  0
  2  3  4  0  0  0  0
  2 29  4  0  0  0  0
  3  4  4  0  0  0  0
  3 10  1  0  0  0  0
  4  5  1  0  0  0  0
  4 26  4  0  0  0  0
  5  6  1  0  0  0  0
  6  7  2  0  0  0  0
  6  8  1  0  0  0  0
  8  9  1  0  0  0  0
  8 10  1  0  0  0  0
  8 12  1  0  0  0  0
 10 11  2  0  0  0  0
 12 13  4  0  0  0  0
 12 25  4  0  0  0  0
 13 14  4  0  0  0  0
 14 15  1  0  0  0  0
 14 23  4  0  0  0  0
 15 16  1  0  0  0  0
 16 17  1  0  0  0  0
 17 18  4  0  0  0  0
 17 22  4  0  0  0  0
 18 19  4  0  0  0  0
 19 20  4  0  0  0  0
 20 21  4  0  0  0  0
 21 22  4  0  0  0  0
 23 24  4  0  0  0  0
 24 25  4  0  0  0  0
 26 27  4  0  0  0  0
 27 28  1  0  0  0  0
 27 29  4  0  0  0  0
M  END
>  <Name_Molregno>
422042

>  <5-HT1A>
6.77

>  <5-HT2A>
6.14

>  <5-HT2C>
5

>  <5-HT6>
7.08

>  <5-HT7>
6.22

>  <DOPAMINE D1>
6.92

>  <DOPAMINE D2>
5

>  <DOPAMINE D3>
5

>  <DOPAMINE D4>
5

$$$$
425206
  Marvin  02231216192D 0   1.00000     0.00000     0

 26 28  0  0  1  0  0  0  0  0999 V2000
    1.1152    2.9536    0.0000 Br  0  0  0  0  0  0  0  0  0
    1.6672    2.3405    0.0000 C   0  0  0  0  0  0  0  0  0
    2.4742    2.5120    0.0000 C   0  0  0  0  0  0  0  0  0
    3.0262    1.8989    0.0000 C   0  0  0  0  0  0  0  0  0
    3.8512    1.8989    0.0000 N   0  0  0  0  0  0  0  0  0
    4.1061    1.1143    0.0000 C   0  0  0  0  0  0  0  0  0
    3.4387    0.6294    0.0000 C   0  0  0  0  0  0  0  0  0
    2.7713    1.1143    0.0000 C   0  0  0  0  0  0  0  0  0
    1.9643    0.9428    0.0000 C   0  0  0  0  0  0  0  0  0
    1.4123    1.5559    0.0000 C   0  0  0  0  0  0  0  0  0
    3.4387   -0.1956    0.0000 C   0  0  0  0  0  0  0  0  0
    4.1532   -0.6081    0.0000 C   0  0  0  0  0  0  0  0  0
    4.8676   -0.1956    0.0000 N   0  0  0  0  0  0  0  0  0
    5.5821   -0.6081    0.0000 C   0  0  0  0  0  0  0  0  0
    6.2966   -0.1956    0.0000 O   0  0  0  0  0  0  0  0  0
    5.5821   -1.4331    0.0000 C   0  0  0  0  0  0  0  0  0
    4.8676   -1.8456    0.0000 N   0  0  0  0  0  0  0  0  0
    4.1532   -1.4331    0.0000 C   0  0  0  0  0  0  0  0  0
    3.4387   -1.8456    0.0000 O   0  0  0  0  0  0  0  0  0
    6.2966   -1.8456    0.0000 C   0  0  0  0  0  0  0  0  0
    7.0111   -1.4331    0.0000 C   0  0  0  0  0  0  0  0  0
    7.7255   -1.8456    0.0000 C   0  0  0  0  0  0  0  0  0
    8.4400   -1.4331    0.0000 N   0  0  0  0  0  0  0  0  0
    9.1545   -1.8456    0.0000 C   0  0  0  0  0  0  0  0  0
    9.8689   -1.4331    0.0000 N   0  0  0  0  0  0  0  0  0
    9.1545   -2.6706    0.0000 N   0  0  0  0  0  0  0  0  0
  1  2  1  0  0  0  0
  2  3  4  0  0  0  0
  2 10  4  0  0  0  0
  3  4  4  0  0  0  0
  4  5  4  0  0  0  0
  4  8  4  0  0  0  0
  5  6  4  0  0  0  0
  6  7  4  0  0  0  0
  7  8  4  0  0  0  0
  7 11  1  0  0  0  0
  8  9  4  0  0  0  0
  9 10  4  0  0  0  0
 11 12  2  0  0  0  0
 12 13  1  0  0  0  0
 12 18  1  0  0  0  0
 13 14  1  0  0  0  0
 14 15  2  0  0  0  0
 14 16  1  0  0  0  0
 16 17  1  0  0  0  0
 16 20  1  0  0  0  0
 17 18  1  0  0  0  0
 18 19  2  0  0  0  0
 20 21  1  0  0  0  0
 21 22  1  0  0  0  0
 22 23  1  0  0  0  0
 23 24  1  0  0  0  0
 24 25  1  0  0  0  0
 24 26  2  0  0  0  0
M  STY  1   1 DAT
M  SAL   1  1   5
M  SDT   1 MRV_IMPLICIT_H                                        
M  SDD   1     0.0000    0.0000    DR    ALL  0       0  
M  SED   1 IMPL_H1
M  END
>  <Name_Molregno>
425206

>  <5-HT1A>
5

>  <5-HT1D>
5

>  <5-HT2A>
5.71

>  <5-HT2C>
6.47

>  <5-HT3>
5

>  <5-HT5>
5

>  <5-HT6>
5

>  <5-HT7>
5

$$$$
429245
  Marvin  02231216192D 0   1.00000     0.00000     0

 30 33  0  0  1  0  0  0  0  0999 V2000
    0.2353    2.9706    0.0000 Cl  0  0  0  0  0  0  0  0  0
    0.9498    2.5581    0.0000 C   0  0  0  0  0  0  0  0  0
    1.6642    2.9706    0.0000 C   0  0  0  0  0  0  0  0  0
    2.3787    2.5581    0.0000 C   0  0  0  0  0  0  0  0  0
    2.3787    1.7331    0.0000 C   0  0  0  0  0  0  0  0  0
    3.0932    1.3206    0.0000 N   0  0  0  0  0  0  0  0  0
    3.8077    1.7331    0.0000 C   0  0  0  0  0  0  0  0  0
    4.5221    1.3206    0.0000 C   0  0  0  0  0  0  0  0  0
    4.5221    0.4956    0.0000 N   0  0  0  0  0  0  0  0  0
    3.8077    0.0831    0.0000 C   0  0  0  0  0  0  0  0  0
    3.0932    0.4956    0.0000 C   0  0  0  0  0  0  0  0  0
    5.2366    0.0831    0.0000 C   0  0  0  0  0  0  0  0  0
    5.9511    0.4956    0.0000 C   0  0  0  0  0  0  0  0  0
    6.6655    0.0831    0.0000 C   0  0  0  0  0  0  0  0  0
    7.3800    0.4956    0.0000 C   0  0  0  0  0  0  0  0  0
    8.0945    0.0831    0.0000 C   0  0  0  0  0  0  0  0  0
    8.8791   -0.1718    0.0000 C   0  0  0  0  0  0  0  0  0
    9.5936    0.2407    0.0000 C   0  0  0  0  0  0  0  0  0
   10.3080   -0.1718    0.0000 C   0  0  0  0  0  0  0  0  0
   11.0225    0.2407    0.0000 Cl  0  0  0  0  0  0  0  0  0
   10.3080   -0.9968    0.0000 C   0  0  0  0  0  0  0  0  0
    9.5936   -1.4093    0.0000 C   0  0  0  0  0  0  0  0  0
    8.8791   -0.9968    0.0000 C   0  0  0  0  0  0  0  0  0
    8.0945   -1.2517    0.0000 N   0  0  0  0  0  0  0  0  0
    7.6096   -0.5843    0.0000 C   0  0  0  0  0  0  0  0  0
    6.7846   -0.5843    0.0000 O   0  0  0  0  0  0  0  0  0
    8.4300    0.8368    0.0000 C   0  0  0  0  0  0  0  0  0
    9.2505    0.9231    0.0000 C   0  0  0  0  0  0  0  0  0
    1.6642    1.3206    0.0000 C   0  0  0  0  0  0  0  0  0
    0.9498    1.7331    0.0000 C   0  0  0  0  0  0  0  0  0
  1  2  1  0  0  0  0
  2  3  4  0  0  0  0
  2 30  4  0  0  0  0
  3  4  4  0  0  0  0
  4  5  4  0  0  0  0
  5  6  1  0  0  0  0
  5 29  4  0  0  0  0
  6  7  1  0  0  0  0
  6 11  1  0  0  0  0
  7  8  1  0  0  0  0
  8  9  1  0  0  0  0
  9 10  1  0  0  0  0
  9 12  1  0  0  0  0
 10 11  1  0  0  0  0
 12 13  1  0  0  0  0
 13 14  1  0  0  0  0
 14 15  1  0  0  0  0
 15 16  1  0  0  0  0
 16 17  1  0  0  0  0
 16 25  1  0  0  0  0
 16 27  1  0  0  0  0
 17 18  4  0  0  0  0
 17 23  4  0  0  0  0
 18 19  4  0  0  0  0
 19 20  1  0  0  0  0
 19 21  4  0  0  0  0
 21 22  4  0  0  0  0
 22 23  4  0  0  0  0
 23 24  1  0  0  0  0
 24 25  1  0  0  0  0
 25 26  2  0  0  0  0
 27 28  1  0  0  0  0
 29 30  4  0  0  0  0
M  END
>  <Name_Molregno>
429245

>  <5-HT7>
8.43

$$$$
429246
  Marvin  02231216192D 0   1.00000     0.00000     0

 31 34  0  0  1  0  0  0  0  0999 V2000
    4.5311    3.1046    0.0000 Cl  0  0  0  0  0  0  0  0  0
    4.5311    2.2796    0.0000 C   0  0  0  0  0  0  0  0  0
    5.2455    1.8671    0.0000 C   0  0  0  0  0  0  0  0  0
    5.2455    1.0421    0.0000 C   0  0  0  0  0  0  0  0  0
    5.9600    0.6296    0.0000 Cl  0  0  0  0  0  0  0  0  0
    4.5311    0.6296    0.0000 C   0  0  0  0  0  0  0  0  0
    3.8166    1.0421    0.0000 C   0  0  0  0  0  0  0  0  0
    3.8166    1.8671    0.0000 C   0  0  0  0  0  0  0  0  0
    3.0320    2.1220    0.0000 N   0  0  0  0  0  0  0  0  0
    2.5471    1.4546    0.0000 C   0  0  0  0  0  0  0  0  0
    1.7221    1.4546    0.0000 O   0  0  0  0  0  0  0  0  0
    3.0320    0.7872    0.0000 C   0  0  0  0  0  0  0  0  0
    3.1950   -0.0216    0.0000 C   0  0  0  0  0  0  0  0  0
    3.9770   -0.2847    0.0000 C   0  0  0  0  0  0  0  0  0
    4.1400   -1.0934    0.0000 C   0  0  0  0  0  0  0  0  0
    4.9219   -1.3566    0.0000 C   0  0  0  0  0  0  0  0  0
    5.0850   -2.1653    0.0000 N   0  0  0  0  0  0  0  0  0
    5.8669   -2.4284    0.0000 C   0  0  0  0  0  0  0  0  0
    6.0300   -3.2372    0.0000 C   0  0  0  0  0  0  0  0  0
    5.4111   -3.7827    0.0000 N   0  0  0  0  0  0  0  0  0
    4.6292   -3.5196    0.0000 C   0  0  0  0  0  0  0  0  0
    4.4662   -2.7109    0.0000 C   0  0  0  0  0  0  0  0  0
    5.5742   -4.5915    0.0000 C   0  0  0  0  0  0  0  0  0
    6.3561   -4.8546    0.0000 C   0  0  0  0  0  0  0  0  0
    6.5192   -5.6633    0.0000 C   0  0  0  0  0  0  0  0  0
    7.3011   -5.9265    0.0000 Cl  0  0  0  0  0  0  0  0  0
    5.9003   -6.2089    0.0000 C   0  0  0  0  0  0  0  0  0
    5.1184   -5.9458    0.0000 C   0  0  0  0  0  0  0  0  0
    4.9554   -5.1370    0.0000 C   0  0  0  0  0  0  0  0  0
    2.4247    0.2287    0.0000 C   0  0  0  0  0  0  0  0  0
    1.6374    0.4755    0.0000 C   0  0  0  0  0  0  0  0  0
  1  2  1  0  0  0  0
  2  3  4  0  0  0  0
  2  8  4  0  0  0  0
  3  4  4  0  0  0  0
  4  5  1  0  0  0  0
  4  6  4  0  0  0  0
  6  7  4  0  0  0  0
  7  8  4  0  0  0  0
  7 12  1  0  0  0  0
  8  9  1  0  0  0  0
  9 10  1  0  0  0  0
 10 11  2  0  0  0  0
 10 12  1  0  0  0  0
 12 13  1  0  0  0  0
 12 30  1  0  0  0  0
 13 14  1  0  0  0  0
 14 15  1  0  0  0  0
 15 16  1  0  0  0  0
 16 17  1  0  0  0  0
 17 18  1  0  0  0  0
 17 22  1  0  0  0  0
 18 19  1  0  0  0  0
 19 20  1  0  0  0  0
 20 21  1  0  0  0  0
 20 23  1  0  0  0  0
 21 22  1  0  0  0  0
 23 24  4  0  0  0  0
 23 29  4  0  0  0  0
 24 25  4  0  0  0  0
 25 26  1  0  0  0  0
 25 27  4  0  0  0  0
 27 28  4  0  0  0  0
 28 29  4  0  0  0  0
 30 31  1  0  0  0  0
M  END
>  <Name_Molregno>
429246

>  <5-HT7>
8.02

$$$$
429247
  Marvin  02231216192D 0   1.00000     0.00000     0

 30 33  0  0  1  0  0  0  0  0999 V2000
    0.2353    2.9706    0.0000 Cl  0  0  0  0  0  0  0  0  0
    0.9498    2.5581    0.0000 C   0  0  0  0  0  0  0  0  0
    1.6642    2.9706    0.0000 C   0  0  0  0  0  0  0  0  0
    2.3787    2.5581    0.0000 C   0  0  0  0  0  0  0  0  0
    2.3787    1.7331    0.0000 C   0  0  0  0  0  0  0  0  0
    3.0932    1.3206    0.0000 N   0  0  0  0  0  0  0  0  0
    3.8077    1.7331    0.0000 C   0  0  0  0  0  0  0  0  0
    4.5221    1.3206    0.0000 C   0  0  0  0  0  0  0  0  0
    4.5221    0.4956    0.0000 N   0  0  0  0  0  0  0  0  0
    3.8077    0.0831    0.0000 C   0  0  0  0  0  0  0  0  0
    3.0932    0.4956    0.0000 C   0  0  0  0  0  0  0  0  0
    5.2366    0.0831    0.0000 C   0  0  0  0  0  0  0  0  0
    5.9511    0.4956    0.0000 C   0  0  0  0  0  0  0  0  0
    6.6655    0.0831    0.0000 C   0  0  0  0  0  0  0  0  0
    7.3800    0.4956    0.0000 C   0  0  0  0  0  0  0  0  0
    8.0945    0.0831    0.0000 C   0  0  0  0  0  0  0  0  0
    8.8791   -0.1718    0.0000 C   0  0  0  0  0  0  0  0  0
    9.5936    0.2407    0.0000 C   0  0  0  0  0  0  0  0  0
   10.3080   -0.1718    0.0000 C   0  0  0  0  0  0  0  0  0
   11.0225    0.2407    0.0000 F   0  0  0  0  0  0  0  0  0
   10.3080   -0.9968    0.0000 C   0  0  0  0  0  0  0  0  0
    9.5936   -1.4093    0.0000 C   0  0  0  0  0  0  0  0  0
    8.8791   -0.9968    0.0000 C   0  0  0  0  0  0  0  0  0
    8.0945   -1.2517    0.0000 N   0  0  0  0  0  0  0  0  0
    7.6096   -0.5843    0.0000 C   0  0  0  0  0  0  0  0  0
    6.7846   -0.5843    0.0000 O   0  0  0  0  0  0  0  0  0
    8.4300    0.8368    0.0000 C   0  0  0  0  0  0  0  0  0
    9.2505    0.9231    0.0000 C   0  0  0  0  0  0  0  0  0
    1.6642    1.3206    0.0000 C   0  0  0  0  0  0  0  0  0
    0.9498    1.7331    0.0000 C   0  0  0  0  0  0  0  0  0
  1  2  1  0  0  0  0
  2  3  4  0  0  0  0
  2 30  4  0  0  0  0
  3  4  4  0  0  0  0
  4  5  4  0  0  0  0
  5  6  1  0  0  0  0
  5 29  4  0  0  0  0
  6  7  1  0  0  0  0
  6 11  1  0  0  0  0
  7  8  1  0  0  0  0
  8  9  1  0  0  0  0
  9 10  1  0  0  0  0
  9 12  1  0  0  0  0
 10 11  1  0  0  0  0
 12 13  1  0  0  0  0
 13 14  1  0  0  0  0
 14 15  1  0  0  0  0
 15 16  1  0  0  0  0
 16 17  1  0  0  0  0
 16 25  1  0  0  0  0
 16 27  1  0  0  0  0
 17 18  4  0  0  0  0
 17 23  4  0  0  0  0
 18 19  4  0  0  0  0
 19 20  1  0  0  0  0
 19 21  4  0  0  0  0
 21 22  4  0  0  0  0
 22 23  4  0  0  0  0
 23 24  1  0  0  0  0
 24 25  1  0  0  0  0
 25 26  2  0  0  0  0
 27 28  1  0  0  0  0
 29 30  4  0  0  0  0
M  END
>  <Name_Molregno>
429247

>  <5-HT7>
8.55

$$$$
429248
  Marvin  02231216192D 0   1.00000     0.00000     0

 31 34  0  0  1  0  0  0  0  0999 V2000
    6.5998   -4.2049    0.0000 Cl  0  0  0  0  0  0  0  0  0
    7.0847   -3.5375    0.0000 C   0  0  0  0  0  0  0  0  0
    6.7492   -2.7838    0.0000 C   0  0  0  0  0  0  0  0  0
    7.2341   -2.1164    0.0000 C   0  0  0  0  0  0  0  0  0
    6.8986   -1.3627    0.0000 N   0  0  0  0  0  0  0  0  0
    6.0781   -1.2764    0.0000 C   0  0  0  0  0  0  0  0  0
    5.7425   -0.5228    0.0000 C   0  0  0  0  0  0  0  0  0
    6.2274    0.1447    0.0000 N   0  0  0  0  0  0  0  0  0
    7.0479    0.0584    0.0000 C   0  0  0  0  0  0  0  0  0
    7.3835   -0.6952    0.0000 C   0  0  0  0  0  0  0  0  0
    5.8919    0.8983    0.0000 C   0  0  0  0  0  0  0  0  0
    5.0714    0.9846    0.0000 C   0  0  0  0  0  0  0  0  0
    4.7358    1.7383    0.0000 C   0  0  0  0  0  0  0  0  0
    3.9154    1.8245    0.0000 C   0  0  0  0  0  0  0  0  0
    3.5798    2.5782    0.0000 C   0  0  0  0  0  0  0  0  0
    4.3644    2.8331    0.0000 C   0  0  0  0  0  0  0  0  0
    4.3644    3.6581    0.0000 C   0  0  0  0  0  0  0  0  0
    3.5798    3.9130    0.0000 N   0  0  0  0  0  0  0  0  0
    3.0949    3.2456    0.0000 C   0  0  0  0  0  0  0  0  0
    2.2699    3.2456    0.0000 O   0  0  0  0  0  0  0  0  0
    5.0789    4.0706    0.0000 C   0  0  0  0  0  0  0  0  0
    5.7934    3.6581    0.0000 C   0  0  0  0  0  0  0  0  0
    5.7934    2.8331    0.0000 C   0  0  0  0  0  0  0  0  0
    5.0789    2.4206    0.0000 C   0  0  0  0  0  0  0  0  0
    2.8653    2.1657    0.0000 C   0  0  0  0  0  0  0  0  0
    2.8653    1.3407    0.0000 C   0  0  0  0  0  0  0  0  0
    3.5798    0.9282    0.0000 C   0  0  0  0  0  0  0  0  0
    2.1509    0.9282    0.0000 C   0  0  0  0  0  0  0  0  0
    8.0546   -2.2026    0.0000 C   0  0  0  0  0  0  0  0  0
    8.3901   -2.9563    0.0000 C   0  0  0  0  0  0  0  0  0
    7.9052   -3.6237    0.0000 C   0  0  0  0  0  0  0  0  0
  1  2  1  0  0  0  0
  2  3  4  0  0  0  0
  2 31  4  0  0  0  0
  3  4  4  0  0  0  0
  4  5  1  0  0  0  0
  4 29  4  0  0  0  0
  5  6  1  0  0  0  0
  5 10  1  0  0  0  0
  6  7  1  0  0  0  0
  7  8  1  0  0  0  0
  8  9  1  0  0  0  0
  8 11  1  0  0  0  0
  9 10  1  0  0  0  0
 11 12  1  0  0  0  0
 12 13  1  0  0  0  0
 13 14  1  0  0  0  0
 14 15  1  0  0  0  0
 15 16  1  0  0  0  0
 15 19  1  0  0  0  0
 15 25  1  0  0  0  0
 16 17  4  0  0  0  0
 16 24  4  0  0  0  0
 17 18  1  0  0  0  0
 17 21  4  0  0  0  0
 18 19  1  0  0  0  0
 19 20  2  0  0  0  0
 21 22  4  0  0  0  0
 22 23  4  0  0  0  0
 23 24  4  0  0  0  0
 25 26  1  0  0  0  0
 26 27  1  0  0  0  0
 26 28  1  0  0  0  0
 29 30  4  0  0  0  0
 30 31  4  0  0  0  0
M  END
>  <Name_Molregno>
429248

>  <5-HT7>
8.74

$$$$
429249
  Marvin  02231216192D 0   1.00000     0.00000     0

 31 34  0  0  1  0  0  0  0  0999 V2000
    4.5311    3.1046    0.0000 Cl  0  0  0  0  0  0  0  0  0
    4.5311    2.2796    0.0000 C   0  0  0  0  0  0  0  0  0
    5.2455    1.8671    0.0000 C   0  0  0  0  0  0  0  0  0
    5.2455    1.0421    0.0000 C   0  0  0  0  0  0  0  0  0
    5.9600    0.6296    0.0000 F   0  0  0  0  0  0  0  0  0
    4.5311    0.6296    0.0000 C   0  0  0  0  0  0  0  0  0
    3.8166    1.0421    0.0000 C   0  0  0  0  0  0  0  0  0
    3.8166    1.8671    0.0000 C   0  0  0  0  0  0  0  0  0
    3.0320    2.1220    0.0000 N   0  0  0  0  0  0  0  0  0
    2.5471    1.4546    0.0000 C   0  0  0  0  0  0  0  0  0
    1.7221    1.4546    0.0000 O   0  0  0  0  0  0  0  0  0
    3.0320    0.7872    0.0000 C   0  0  0  0  0  0  0  0  0
    3.1950   -0.0216    0.0000 C   0  0  0  0  0  0  0  0  0
    3.9770   -0.2847    0.0000 C   0  0  0  0  0  0  0  0  0
    4.1400   -1.0934    0.0000 C   0  0  0  0  0  0  0  0  0
    4.9219   -1.3566    0.0000 C   0  0  0  0  0  0  0  0  0
    5.0850   -2.1653    0.0000 N   0  0  0  0  0  0  0  0  0
    5.8669   -2.4284    0.0000 C   0  0  0  0  0  0  0  0  0
    6.0300   -3.2372    0.0000 C   0  0  0  0  0  0  0  0  0
    5.4111   -3.7827    0.0000 N   0  0  0  0  0  0  0  0  0
    4.6292   -3.5196    0.0000 C   0  0  0  0  0  0  0  0  0
    4.4662   -2.7109    0.0000 C   0  0  0  0  0  0  0  0  0
    5.5742   -4.5915    0.0000 C   0  0  0  0  0  0  0  0  0
    6.3561   -4.8546    0.0000 C   0  0  0  0  0  0  0  0  0
    6.5192   -5.6633    0.0000 C   0  0  0  0  0  0  0  0  0
    7.3011   -5.9265    0.0000 Cl  0  0  0  0  0  0  0  0  0
    5.9003   -6.2089    0.0000 C   0  0  0  0  0  0  0  0  0
    5.1184   -5.9458    0.0000 C   0  0  0  0  0  0  0  0  0
    4.9554   -5.1370    0.0000 C   0  0  0  0  0  0  0  0  0
    2.4247    0.2287    0.0000 C   0  0  0  0  0  0  0  0  0
    1.6374    0.4755    0.0000 C   0  0  0  0  0  0  0  0  0
  1  2  1  0  0  0  0
  2  3  4  0  0  0  0
  2  8  4  0  0  0  0
  3  4  4  0  0  0  0
  4  5  1  0  0  0  0
  4  6  4  0  0  0  0
  6  7  4  0  0  0  0
  7  8  4  0  0  0  0
  7 12  1  0  0  0  0
  8  9  1  0  0  0  0
  9 10  1  0  0  0  0
 10 11  2  0  0  0  0
 10 12  1  0  0  0  0
 12 13  1  0  0  0  0
 12 30  1  0  0  0  0
 13 14  1  0  0  0  0
 14 15  1  0  0  0  0
 15 16  1  0  0  0  0
 16 17  1  0  0  0  0
 17 18  1  0  0  0  0
 17 22  1  0  0  0  0
 18 19  1  0  0  0  0
 19 20  1  0  0  0  0
 20 21  1  0  0  0  0
 20 23  1  0  0  0  0
 21 22  1  0  0  0  0
 23 24  4  0  0  0  0
 23 29  4  0  0  0  0
 24 25  4  0  0  0  0
 25 26  1  0  0  0  0
 25 27  4  0  0  0  0
 27 28  4  0  0  0  0
 28 29  4  0  0  0  0
 30 31  1  0  0  0  0
M  END
>  <Name_Molregno>
429249

>  <5-HT7>
8.32

$$$$
429250
  Marvin  02231216192D 0   1.00000     0.00000     0

 28 31  0  0  1  0  0  0  0  0999 V2000
    2.9321    6.1252    0.0000 F   0  0  0  0  0  0  0  0  0
    3.1871    5.3406    0.0000 C   0  0  0  0  0  0  0  0  0
    3.9940    5.1691    0.0000 C   0  0  0  0  0  0  0  0  0
    4.2490    4.3844    0.0000 C   0  0  0  0  0  0  0  0  0
    3.6969    3.7714    0.0000 C   0  0  0  0  0  0  0  0  0
    3.9519    2.9867    0.0000 N   0  0  0  0  0  0  0  0  0
    4.7589    2.8152    0.0000 C   0  0  0  0  0  0  0  0  0
    5.0138    2.0306    0.0000 C   0  0  0  0  0  0  0  0  0
    4.4618    1.4175    0.0000 N   0  0  0  0  0  0  0  0  0
    3.6548    1.5890    0.0000 C   0  0  0  0  0  0  0  0  0
    3.3998    2.3736    0.0000 C   0  0  0  0  0  0  0  0  0
    4.7167    0.6329    0.0000 C   0  0  0  0  0  0  0  0  0
    5.5237    0.4613    0.0000 C   0  0  0  0  0  0  0  0  0
    5.7786   -0.3233    0.0000 C   0  0  0  0  0  0  0  0  0
    6.5856   -0.4948    0.0000 C   0  0  0  0  0  0  0  0  0
    6.8405   -1.2794    0.0000 C   0  0  0  0  0  0  0  0  0
    7.6251   -1.5344    0.0000 C   0  0  0  0  0  0  0  0  0
    8.3396   -1.1219    0.0000 C   0  0  0  0  0  0  0  0  0
    9.0541   -1.5344    0.0000 C   0  0  0  0  0  0  0  0  0
    9.7686   -1.1219    0.0000 F   0  0  0  0  0  0  0  0  0
    9.0541   -2.3594    0.0000 C   0  0  0  0  0  0  0  0  0
    8.3396   -2.7719    0.0000 C   0  0  0  0  0  0  0  0  0
    7.6251   -2.3594    0.0000 C   0  0  0  0  0  0  0  0  0
    6.8405   -2.6143    0.0000 N   0  0  0  0  0  0  0  0  0
    6.3556   -1.9469    0.0000 C   0  0  0  0  0  0  0  0  0
    5.5306   -1.9469    0.0000 O   0  0  0  0  0  0  0  0  0
    2.8900    3.9429    0.0000 C   0  0  0  0  0  0  0  0  0
    2.6350    4.7275    0.0000 C   0  0  0  0  0  0  0  0  0
  1  2  1  0  0  0  0
  2  3  4  0  0  0  0
  2 28  4  0  0  0  0
  3  4  4  0  0  0  0
  4  5  4  0  0  0  0
  5  6  1  0  0  0  0
  5 27  4  0  0  0  0
  6  7  1  0  0  0  0
  6 11  1  0  0  0  0
  7  8  1  0  0  0  0
  8  9  1  0  0  0  0
  9 10  1  0  0  0  0
  9 12  1  0  0  0  0
 10 11  1  0  0  0  0
 12 13  1  0  0  0  0
 13 14  1  0  0  0  0
 14 15  1  0  0  0  0
 15 16  1  0  0  0  0
 16 17  1  0  0  0  0
 16 25  1  0  0  0  0
 17 18  4  0  0  0  0
 17 23  4  0  0  0  0
 18 19  4  0  0  0  0
 19 20  1  0  0  0  0
 19 21  4  0  0  0  0
 21 22  4  0  0  0  0
 22 23  4  0  0  0  0
 23 24  1  0  0  0  0
 24 25  1  0  0  0  0
 25 26  2  0  0  0  0
 27 28  4  0  0  0  0
M  END
>  <Name_Molregno>
429250

>  <5-HT7>
8.47

$$$$
429252
  Marvin  02231216192D 0   1.00000     0.00000     0

 30 33  0  0  1  0  0  0  0  0999 V2000
    0.2353    2.9706    0.0000 F   0  0  0  0  0  0  0  0  0
    0.9498    2.5581    0.0000 C   0  0  0  0  0  0  0  0  0
    1.6642    2.9706    0.0000 C   0  0  0  0  0  0  0  0  0
    2.3787    2.5581    0.0000 C   0  0  0  0  0  0  0  0  0
    2.3787    1.7331    0.0000 C   0  0  0  0  0  0  0  0  0
    3.0932    1.3206    0.0000 N   0  0  0  0  0  0  0  0  0
    3.8077    1.7331    0.0000 C   0  0  0  0  0  0  0  0  0
    4.5221    1.3206    0.0000 C   0  0  0  0  0  0  0  0  0
    4.5221    0.4956    0.0000 N   0  0  0  0  0  0  0  0  0
    3.8077    0.0831    0.0000 C   0  0  0  0  0  0  0  0  0
    3.0932    0.4956    0.0000 C   0  0  0  0  0  0  0  0  0
    5.2366    0.0831    0.0000 C   0  0  0  0  0  0  0  0  0
    5.9511    0.4956    0.0000 C   0  0  0  0  0  0  0  0  0
    6.6655    0.0831    0.0000 C   0  0  0  0  0  0  0  0  0
    7.3800    0.4956    0.0000 C   0  0  0  0  0  0  0  0  0
    8.0945    0.0831    0.0000 C   0  0  0  0  0  0  0  0  0
    8.8791   -0.1718    0.0000 C   0  0  0  0  0  0  0  0  0
    9.5936    0.2407    0.0000 C   0  0  0  0  0  0  0  0  0
   10.3080   -0.1718    0.0000 C   0  0  0  0  0  0  0  0  0
   11.0225    0.2407    0.0000 F   0  0  0  0  0  0  0  0  0
   10.3080   -0.9968    0.0000 C   0  0  0  0  0  0  0  0  0
    9.5936   -1.4093    0.0000 C   0  0  0  0  0  0  0  0  0
    8.8791   -0.9968    0.0000 C   0  0  0  0  0  0  0  0  0
    8.0945   -1.2517    0.0000 N   0  0  0  0  0  0  0  0  0
    7.6096   -0.5843    0.0000 C   0  0  0  0  0  0  0  0  0
    6.7846   -0.5843    0.0000 O   0  0  0  0  0  0  0  0  0
    8.4300    0.8368    0.0000 C   0  0  0  0  0  0  0  0  0
    9.2505    0.9231    0.0000 C   0  0  0  0  0  0  0  0  0
    1.6642    1.3206    0.0000 C   0  0  0  0  0  0  0  0  0
    0.9498    1.7331    0.0000 C   0  0  0  0  0  0  0  0  0
  1  2  1  0  0  0  0
  2  3  4  0  0  0  0
  2 30  4  0  0  0  0
  3  4  4  0  0  0  0
  4  5  4  0  0  0  0
  5  6  1  0  0  0  0
  5 29  4  0  0  0  0
  6  7  1  0  0  0  0
  6 11  1  0  0  0  0
  7  8  1  0  0  0  0
  8  9  1  0  0  0  0
  9 10  1  0  0  0  0
  9 12  1  0  0  0  0
 10 11  1  0  0  0  0
 12 13  1  0  0  0  0
 13 14  1  0  0  0  0
 14 15  1  0  0  0  0
 15 16  1  0  0  0  0
 16 17  1  0  0  0  0
 16 25  1  0  0  0  0
 16 27  1  0  0  0  0
 17 18  4  0  0  0  0
 17 23  4  0  0  0  0
 18 19  4  0  0  0  0
 19 20  1  0  0  0  0
 19 21  4  0  0  0  0
 21 22  4  0  0  0  0
 22 23  4  0  0  0  0
 23 24  1  0  0  0  0
 24 25  1  0  0  0  0
 25 26  2  0  0  0  0
 27 28  1  0  0  0  0
 29 30  4  0  0  0  0
M  END
>  <Name_Molregno>
429252

>  <5-HT7>
8.82

$$$$
429289
  Marvin  02231216192D 0   1.00000     0.00000     0

 31 34  0  0  1  0  0  0  0  0999 V2000
    0.5129   -0.4035    0.0000 Cl  0  0  0  0  0  0  0  0  0
   -0.2016    0.0090    0.0000 C   0  0  0  0  0  0  0  0  0
   -0.9160   -0.4035    0.0000 C   0  0  0  0  0  0  0  0  0
   -1.6305    0.0090    0.0000 C   0  0  0  0  0  0  0  0  0
   -1.6305    0.8340    0.0000 C   0  0  0  0  0  0  0  0  0
   -2.4151    1.0890    0.0000 N   0  0  0  0  0  0  0  0  0
   -2.9001    0.4215    0.0000 C   0  0  0  0  0  0  0  0  0
   -3.7251    0.4215    0.0000 O   0  0  0  0  0  0  0  0  0
   -2.4151   -0.2459    0.0000 C   0  0  0  0  0  0  0  0  0
   -2.2521   -1.0546    0.0000 C   0  0  0  0  0  0  0  0  0
   -2.8709   -1.6002    0.0000 C   0  0  0  0  0  0  0  0  0
   -2.7078   -2.4089    0.0000 C   0  0  0  0  0  0  0  0  0
   -3.3267   -2.9545    0.0000 C   0  0  0  0  0  0  0  0  0
   -3.1636   -3.7633    0.0000 N   0  0  0  0  0  0  0  0  0
   -2.3817   -4.0264    0.0000 C   0  0  0  0  0  0  0  0  0
   -2.2186   -4.8351    0.0000 C   0  0  0  0  0  0  0  0  0
   -2.8375   -5.3807    0.0000 N   0  0  0  0  0  0  0  0  0
   -3.6194   -5.1176    0.0000 C   0  0  0  0  0  0  0  0  0
   -3.7825   -4.3088    0.0000 C   0  0  0  0  0  0  0  0  0
   -2.6744   -6.1894    0.0000 C   0  0  0  0  0  0  0  0  0
   -1.8925   -6.4526    0.0000 C   0  0  0  0  0  0  0  0  0
   -1.7294   -7.2613    0.0000 C   0  0  0  0  0  0  0  0  0
   -0.9475   -7.5244    0.0000 Cl  0  0  0  0  0  0  0  0  0
   -2.3483   -7.8069    0.0000 C   0  0  0  0  0  0  0  0  0
   -3.1302   -7.5437    0.0000 C   0  0  0  0  0  0  0  0  0
   -3.2933   -6.7350    0.0000 C   0  0  0  0  0  0  0  0  0
   -3.0224   -0.8043    0.0000 C   0  0  0  0  0  0  0  0  0
   -3.8097   -0.5576    0.0000 C   0  0  0  0  0  0  0  0  0
   -0.9160    1.2465    0.0000 C   0  0  0  0  0  0  0  0  0
   -0.2016    0.8340    0.0000 C   0  0  0  0  0  0  0  0  0
    0.5129    1.2465    0.0000 F   0  0  0  0  0  0  0  0  0
  1  2  1  0  0  0  0
  2  3  4  0  0  0  0
  2 30  4  0  0  0  0
  3  4  4  0  0  0  0
  4  5  4  0  0  0  0
  4  9  1  0  0  0  0
  5  6  1  0  0  0  0
  5 29  4  0  0  0  0
  6  7  1  0  0  0  0
  7  8  2  0  0  0  0
  7  9  1  0  0  0  0
  9 10  1  0  0  0  0
  9 27  1  0  0  0  0
 10 11  1  0  0  0  0
 11 12  1  0  0  0  0
 12 13  1  0  0  0  0
 13 14  1  0  0  0  0
 14 15  1  0  0  0  0
 14 19  1  0  0  0  0
 15 16  1  0  0  0  0
 16 17  1  0  0  0  0
 17 18  1  0  0  0  0
 17 20  1  0  0  0  0
 18 19  1  0  0  0  0
 20 21  4  0  0  0  0
 20 26  4  0  0  0  0
 21 22  4  0  0  0  0
 22 23  1  0  0  0  0
 22 24  4  0  0  0  0
 24 25  4  0  0  0  0
 25 26  4  0  0  0  0
 27 28  1  0  0  0  0
 29 30  4  0  0  0  0
 30 31  1  0  0  0  0
M  END
>  <Name_Molregno>
429289

>  <5-HT7>
8.04

$$$$
429291
  Marvin  02231216192D 0   1.00000     0.00000     0

 30 33  0  0  1  0  0  0  0  0999 V2000
    1.1252    4.0358    0.0000 Cl  0  0  0  0  0  0  0  0  0
    1.1252    3.2108    0.0000 C   0  0  0  0  0  0  0  0  0
    1.8397    2.7983    0.0000 C   0  0  0  0  0  0  0  0  0
    1.8397    1.9733    0.0000 C   0  0  0  0  0  0  0  0  0
    2.5541    1.5608    0.0000 N   0  0  0  0  0  0  0  0  0
    3.2686    1.9733    0.0000 C   0  0  0  0  0  0  0  0  0
    3.9831    1.5608    0.0000 C   0  0  0  0  0  0  0  0  0
    3.9831    0.7358    0.0000 N   0  0  0  0  0  0  0  0  0
    3.2686    0.3233    0.0000 C   0  0  0  0  0  0  0  0  0
    2.5541    0.7358    0.0000 C   0  0  0  0  0  0  0  0  0
    4.6975    0.3233    0.0000 C   0  0  0  0  0  0  0  0  0
    5.4120    0.7358    0.0000 C   0  0  0  0  0  0  0  0  0
    6.1265    0.3233    0.0000 C   0  0  0  0  0  0  0  0  0
    6.8410    0.7358    0.0000 C   0  0  0  0  0  0  0  0  0
    7.5554    0.3233    0.0000 C   0  0  0  0  0  0  0  0  0
    8.3400    0.0684    0.0000 C   0  0  0  0  0  0  0  0  0
    9.0545    0.4809    0.0000 C   0  0  0  0  0  0  0  0  0
    9.7690    0.0684    0.0000 C   0  0  0  0  0  0  0  0  0
   10.4835    0.4809    0.0000 Cl  0  0  0  0  0  0  0  0  0
    9.7690   -0.7566    0.0000 C   0  0  0  0  0  0  0  0  0
    9.0545   -1.1691    0.0000 C   0  0  0  0  0  0  0  0  0
    8.3400   -0.7566    0.0000 C   0  0  0  0  0  0  0  0  0
    7.5554   -1.0116    0.0000 N   0  0  0  0  0  0  0  0  0
    7.0705   -0.3441    0.0000 C   0  0  0  0  0  0  0  0  0
    6.2455   -0.3441    0.0000 O   0  0  0  0  0  0  0  0  0
    7.8910    1.0770    0.0000 C   0  0  0  0  0  0  0  0  0
    8.7115    1.1632    0.0000 C   0  0  0  0  0  0  0  0  0
    1.1252    1.5608    0.0000 C   0  0  0  0  0  0  0  0  0
    0.4107    1.9733    0.0000 C   0  0  0  0  0  0  0  0  0
    0.4107    2.7983    0.0000 C   0  0  0  0  0  0  0  0  0
  1  2  1  0  0  0  0
  2  3  4  0  0  0  0
  2 30  4  0  0  0  0
  3  4  4  0  0  0  0
  4  5  1  0  0  0  0
  4 28  4  0  0  0  0
  5  6  1  0  0  0  0
  5 10  1  0  0  0  0
  6  7  1  0  0  0  0
  7  8  1  0  0  0  0
  8  9  1  0  0  0  0
  8 11  1  0  0  0  0
  9 10  1  0  0  0  0
 11 12  1  0  0  0  0
 12 13  1  0  0  0  0
 13 14  1  0  0  0  0
 14 15  1  0  0  0  0
 15 16  1  0  0  0  0
 15 24  1  0  0  0  0
 15 26  1  0  0  0  0
 16 17  4  0  0  0  0
 16 22  4  0  0  0  0
 17 18  4  0  0  0  0
 18 19  1  0  0  0  0
 18 20  4  0  0  0  0
 20 21  4  0  0  0  0
 21 22  4  0  0  0  0
 22 23  1  0  0  0  0
 23 24  1  0  0  0  0
 24 25  2  0  0  0  0
 26 27  1  0  0  0  0
 28 29  4  0  0  0  0
 29 30  4  0  0  0  0
M  END
>  <Name_Molregno>
429291

>  <5-HT7>
8.08

$$$$
429292
  Marvin  02231216192D 0   1.00000     0.00000     0

 30 33  0  0  1  0  0  0  0  0999 V2000
  -10.2909   -1.2140    0.0000 Cl  0  0  0  0  0  0  0  0  0
   -9.5765   -1.6265    0.0000 C   0  0  0  0  0  0  0  0  0
   -8.8620   -1.2140    0.0000 C   0  0  0  0  0  0  0  0  0
   -8.1475   -1.6265    0.0000 C   0  0  0  0  0  0  0  0  0
   -7.4331   -1.2140    0.0000 N   0  0  0  0  0  0  0  0  0
   -7.4331   -0.3890    0.0000 C   0  0  0  0  0  0  0  0  0
   -6.7186    0.0235    0.0000 C   0  0  0  0  0  0  0  0  0
   -6.0041   -0.3890    0.0000 N   0  0  0  0  0  0  0  0  0
   -6.0041   -1.2140    0.0000 C   0  0  0  0  0  0  0  0  0
   -6.7186   -1.6265    0.0000 C   0  0  0  0  0  0  0  0  0
   -5.2896    0.0235    0.0000 C   0  0  0  0  0  0  0  0  0
   -5.2896    0.8485    0.0000 C   0  0  0  0  0  0  0  0  0
   -4.5752    1.2610    0.0000 C   0  0  0  0  0  0  0  0  0
   -4.5752    2.0860    0.0000 C   0  0  0  0  0  0  0  0  0
   -3.8607    2.4985    0.0000 C   0  0  0  0  0  0  0  0  0
   -3.0761    2.7535    0.0000 C   0  0  0  0  0  0  0  0  0
   -3.0761    3.5785    0.0000 C   0  0  0  0  0  0  0  0  0
   -3.8607    3.8334    0.0000 N   0  0  0  0  0  0  0  0  0
   -4.3456    3.1660    0.0000 C   0  0  0  0  0  0  0  0  0
   -5.1706    3.1660    0.0000 O   0  0  0  0  0  0  0  0  0
   -2.3616    3.9910    0.0000 C   0  0  0  0  0  0  0  0  0
   -1.6471    3.5785    0.0000 C   0  0  0  0  0  0  0  0  0
   -0.9327    3.9910    0.0000 F   0  0  0  0  0  0  0  0  0
   -1.6471    2.7535    0.0000 C   0  0  0  0  0  0  0  0  0
   -2.3616    2.3410    0.0000 C   0  0  0  0  0  0  0  0  0
   -3.5251    1.7448    0.0000 C   0  0  0  0  0  0  0  0  0
   -2.7047    1.6586    0.0000 C   0  0  0  0  0  0  0  0  0
   -8.1475   -2.4515    0.0000 C   0  0  0  0  0  0  0  0  0
   -8.8620   -2.8640    0.0000 C   0  0  0  0  0  0  0  0  0
   -9.5765   -2.4515    0.0000 C   0  0  0  0  0  0  0  0  0
  1  2  1  0  0  0  0
  2  3  4  0  0  0  0
  2 30  4  0  0  0  0
  3  4  4  0  0  0  0
  4  5  1  0  0  0  0
  4 28  4  0  0  0  0
  5  6  1  0  0  0  0
  5 10  1  0  0  0  0
  6  7  1  0  0  0  0
  7  8  1  0  0  0  0
  8  9  1  0  0  0  0
  8 11  1  0  0  0  0
  9 10  1  0  0  0  0
 11 12  1  0  0  0  0
 12 13  1  0  0  0  0
 13 14  1  0  0  0  0
 14 15  1  0  0  0  0
 15 16  1  0  0  0  0
 15 19  1  0  0  0  0
 15 26  1  0  0  0  0
 16 17  4  0  0  0  0
 16 25  4  0  0  0  0
 17 18  1  0  0  0  0
 17 21  4  0  0  0  0
 18 19  1  0  0  0  0
 19 20  2  0  0  0  0
 21 22  4  0  0  0  0
 22 23  1  0  0  0  0
 22 24  4  0  0  0  0
 24 25  4  0  0  0  0
 26 27  1  0  0  0  0
 28 29  4  0  0  0  0
 29 30  4  0  0  0  0
M  END
>  <Name_Molregno>
429292

>  <5-HT7>
9.17

$$$$
429293
  Marvin  02231216192D 0   1.00000     0.00000     0

 30 33  0  0  1  0  0  0  0  0999 V2000
    1.1252    4.0358    0.0000 Cl  0  0  0  0  0  0  0  0  0
    1.1252    3.2108    0.0000 C   0  0  0  0  0  0  0  0  0
    1.8397    2.7983    0.0000 C   0  0  0  0  0  0  0  0  0
    1.8397    1.9733    0.0000 C   0  0  0  0  0  0  0  0  0
    2.5541    1.5608    0.0000 N   0  0  0  0  0  0  0  0  0
    3.2686    1.9733    0.0000 C   0  0  0  0  0  0  0  0  0
    3.9831    1.5608    0.0000 C   0  0  0  0  0  0  0  0  0
    3.9831    0.7358    0.0000 N   0  0  0  0  0  0  0  0  0
    3.2686    0.3233    0.0000 C   0  0  0  0  0  0  0  0  0
    2.5541    0.7358    0.0000 C   0  0  0  0  0  0  0  0  0
    4.6975    0.3233    0.0000 C   0  0  0  0  0  0  0  0  0
    5.4120    0.7358    0.0000 C   0  0  0  0  0  0  0  0  0
    6.1265    0.3233    0.0000 C   0  0  0  0  0  0  0  0  0
    6.8410    0.7358    0.0000 C   0  0  0  0  0  0  0  0  0
    7.5554    0.3233    0.0000 C   0  0  0  0  0  0  0  0  0
    8.3400    0.0684    0.0000 C   0  0  0  0  0  0  0  0  0
    9.0545    0.4809    0.0000 C   0  0  0  0  0  0  0  0  0
    9.7690    0.0684    0.0000 C   0  0  0  0  0  0  0  0  0
   10.4835    0.4809    0.0000 F   0  0  0  0  0  0  0  0  0
    9.7690   -0.7566    0.0000 C   0  0  0  0  0  0  0  0  0
    9.0545   -1.1691    0.0000 C   0  0  0  0  0  0  0  0  0
    8.3400   -0.7566    0.0000 C   0  0  0  0  0  0  0  0  0
    7.5554   -1.0116    0.0000 N   0  0  0  0  0  0  0  0  0
    7.0705   -0.3441    0.0000 C   0  0  0  0  0  0  0  0  0
    6.2455   -0.3441    0.0000 O   0  0  0  0  0  0  0  0  0
    7.8910    1.0770    0.0000 C   0  0  0  0  0  0  0  0  0
    8.7115    1.1632    0.0000 C   0  0  0  0  0  0  0  0  0
    1.1252    1.5608    0.0000 C   0  0  0  0  0  0  0  0  0
    0.4107    1.9733    0.0000 C   0  0  0  0  0  0  0  0  0
    0.4107    2.7983    0.0000 C   0  0  0  0  0  0  0  0  0
  1  2  1  0  0  0  0
  2  3  4  0  0  0  0
  2 30  4  0  0  0  0
  3  4  4  0  0  0  0
  4  5  1  0  0  0  0
  4 28  4  0  0  0  0
  5  6  1  0  0  0  0
  5 10  1  0  0  0  0
  6  7  1  0  0  0  0
  7  8  1  0  0  0  0
  8  9  1  0  0  0  0
  8 11  1  0  0  0  0
  9 10  1  0  0  0  0
 11 12  1  0  0  0  0
 12 13  1  0  0  0  0
 13 14  1  0  0  0  0
 14 15  1  0  0  0  0
 15 16  1  0  0  0  0
 15 24  1  0  0  0  0
 15 26  1  0  0  0  0
 16 17  4  0  0  0  0
 16 22  4  0  0  0  0
 17 18  4  0  0  0  0
 18 19  1  0  0  0  0
 18 20  4  0  0  0  0
 20 21  4  0  0  0  0
 21 22  4  0  0  0  0
 22 23  1  0  0  0  0
 23 24  1  0  0  0  0
 24 25  2  0  0  0  0
 26 27  1  0  0  0  0
 28 29  4  0  0  0  0
 29 30  4  0  0  0  0
M  END
>  <Name_Molregno>
429293

>  <5-HT7>
8.68

$$$$
429294
  Marvin  02231216192D 0   1.00000     0.00000     0

 28 31  0  0  1  0  0  0  0  0999 V2000
    4.1938    4.3435    0.0000 Cl  0  0  0  0  0  0  0  0  0
    3.6418    3.7304    0.0000 C   0  0  0  0  0  0  0  0  0
    3.8967    2.9457    0.0000 C   0  0  0  0  0  0  0  0  0
    3.3447    2.3326    0.0000 C   0  0  0  0  0  0  0  0  0
    3.5996    1.5480    0.0000 N   0  0  0  0  0  0  0  0  0
    4.4066    1.3765    0.0000 C   0  0  0  0  0  0  0  0  0
    4.6615    0.5919    0.0000 C   0  0  0  0  0  0  0  0  0
    4.1095   -0.0212    0.0000 N   0  0  0  0  0  0  0  0  0
    3.3025    0.1503    0.0000 C   0  0  0  0  0  0  0  0  0
    3.0476    0.9349    0.0000 C   0  0  0  0  0  0  0  0  0
    4.3645   -0.8058    0.0000 C   0  0  0  0  0  0  0  0  0
    5.1714   -0.9774    0.0000 C   0  0  0  0  0  0  0  0  0
    5.4264   -1.7620    0.0000 C   0  0  0  0  0  0  0  0  0
    6.2333   -1.9335    0.0000 C   0  0  0  0  0  0  0  0  0
    6.4883   -2.7181    0.0000 C   0  0  0  0  0  0  0  0  0
    7.2729   -2.9731    0.0000 C   0  0  0  0  0  0  0  0  0
    7.9874   -2.5606    0.0000 C   0  0  0  0  0  0  0  0  0
    8.7018   -2.9731    0.0000 C   0  0  0  0  0  0  0  0  0
    9.4163   -2.5606    0.0000 F   0  0  0  0  0  0  0  0  0
    8.7018   -3.7981    0.0000 C   0  0  0  0  0  0  0  0  0
    7.9874   -4.2106    0.0000 C   0  0  0  0  0  0  0  0  0
    7.2729   -3.7981    0.0000 C   0  0  0  0  0  0  0  0  0
    6.4883   -4.0530    0.0000 N   0  0  0  0  0  0  0  0  0
    6.0033   -3.3856    0.0000 C   0  0  0  0  0  0  0  0  0
    5.1783   -3.3856    0.0000 O   0  0  0  0  0  0  0  0  0
    2.5377    2.5042    0.0000 C   0  0  0  0  0  0  0  0  0
    2.2828    3.2888    0.0000 C   0  0  0  0  0  0  0  0  0
    2.8348    3.9019    0.0000 C   0  0  0  0  0  0  0  0  0
  1  2  1  0  0  0  0
  2  3  4  0  0  0  0
  2 28  4  0  0  0  0
  3  4  4  0  0  0  0
  4  5  1  0  0  0  0
  4 26  4  0  0  0  0
  5  6  1  0  0  0  0
  5 10  1  0  0  0  0
  6  7  1  0  0  0  0
  7  8  1  0  0  0  0
  8  9  1  0  0  0  0
  8 11  1  0  0  0  0
  9 10  1  0  0  0  0
 11 12  1  0  0  0  0
 12 13  1  0  0  0  0
 13 14  1  0  0  0  0
 14 15  1  0  0  0  0
 15 16  1  0  0  0  0
 15 24  1  0  0  0  0
 16 17  4  0  0  0  0
 16 22  4  0  0  0  0
 17 18  4  0  0  0  0
 18 19  1  0  0  0  0
 18 20  4  0  0  0  0
 20 21  4  0  0  0  0
 21 22  4  0  0  0  0
 22 23  1  0  0  0  0
 23 24  1  0  0  0  0
 24 25  2  0  0  0  0
 26 27  4  0  0  0  0
 27 28  4  0  0  0  0
M  END
>  <Name_Molregno>
429294

>  <5-HT7>
8.71

$$$$
429296
  Marvin  02231216192D 0   1.00000     0.00000     0

 37 41  0  0  1  0  0  0  0  0999 V2000
   -7.9777   -2.9571    0.0000 O   0  0  0  0  0  0  0  0  0
   -7.9777   -3.7821    0.0000 C   0  0  0  0  0  0  0  0  0
   -8.6921   -2.5446    0.0000 C   0  0  0  0  0  0  0  0  0
   -9.4066   -2.9571    0.0000 C   0  0  0  0  0  0  0  0  0
  -10.1211   -2.5446    0.0000 C   0  0  0  0  0  0  0  0  0
  -10.1211   -1.7196    0.0000 C   0  0  0  0  0  0  0  0  0
   -9.4066   -1.3071    0.0000 C   0  0  0  0  0  0  0  0  0
   -8.6921   -1.7196    0.0000 C   0  0  0  0  0  0  0  0  0
   -7.9777   -1.3071    0.0000 N   0  0  0  0  0  0  0  0  0
   -7.9777   -0.4821    0.0000 C   0  0  0  0  0  0  0  0  0
   -7.2632   -0.0696    0.0000 C   0  0  0  0  0  0  0  0  0
   -6.5487   -0.4821    0.0000 N   0  0  0  0  0  0  0  0  0
   -6.5487   -1.3071    0.0000 C   0  0  0  0  0  0  0  0  0
   -7.2632   -1.7196    0.0000 C   0  0  0  0  0  0  0  0  0
   -5.8343   -0.0696    0.0000 C   0  0  0  0  0  0  0  0  0
   -5.1198   -0.4821    0.0000 C   0  0  0  0  0  0  0  0  0
   -4.4053   -0.0696    0.0000 C   0  0  0  0  0  0  0  0  0
   -3.6909   -0.4821    0.0000 C   0  0  0  0  0  0  0  0  0
   -2.9764   -0.0696    0.0000 C   0  0  0  0  0  0  0  0  0
   -2.1918    0.1853    0.0000 C   0  0  0  0  0  0  0  0  0
   -2.1918    1.0103    0.0000 C   0  0  0  0  0  0  0  0  0
   -2.9764    1.2653    0.0000 N   0  0  0  0  0  0  0  0  0
   -3.2313    2.0499    0.0000 C   0  0  0  0  0  0  0  0  0
   -2.6793    2.6630    0.0000 C   0  0  0  0  0  0  0  0  0
   -2.9342    3.4476    0.0000 C   0  0  0  0  0  0  0  0  0
   -2.3822    4.0607    0.0000 C   0  0  0  0  0  0  0  0  0
   -1.5752    3.8892    0.0000 C   0  0  0  0  0  0  0  0  0
   -1.3203    3.1046    0.0000 C   0  0  0  0  0  0  0  0  0
   -1.8723    2.4915    0.0000 C   0  0  0  0  0  0  0  0  0
   -3.4613    0.5978    0.0000 C   0  0  0  0  0  0  0  0  0
   -4.2863    0.5978    0.0000 O   0  0  0  0  0  0  0  0  0
   -1.4773    1.4228    0.0000 C   0  0  0  0  0  0  0  0  0
   -0.7628    1.0103    0.0000 C   0  0  0  0  0  0  0  0  0
   -0.7628    0.1853    0.0000 C   0  0  0  0  0  0  0  0  0
   -1.4773   -0.2272    0.0000 C   0  0  0  0  0  0  0  0  0
   -2.6408   -0.8233    0.0000 C   0  0  0  0  0  0  0  0  0
   -1.8203   -0.9095    0.0000 C   0  0  0  0  0  0  0  0  0
  1  2  1  0  0  0  0
  1  3  1  0  0  0  0
  3  4  4  0  0  0  0
  3  8  4  0  0  0  0
  4  5  4  0  0  0  0
  5  6  4  0  0  0  0
  6  7  4  0  0  0  0
  7  8  4  0  0  0  0
  8  9  1  0  0  0  0
  9 10  1  0  0  0  0
  9 14  1  0  0  0  0
 10 11  1  0  0  0  0
 11 12  1  0  0  0  0
 12 13  1  0  0  0  0
 12 15  1  0  0  0  0
 13 14  1  0  0  0  0
 15 16  1  0  0  0  0
 16 17  1  0  0  0  0
 17 18  1  0  0  0  0
 18 19  1  0  0  0  0
 19 20  1  0  0  0  0
 19 30  1  0  0  0  0
 19 36  1  0  0  0  0
 20 21  4  0  0  0  0
 20 35  4  0  0  0  0
 21 22  1  0  0  0  0
 21 32  4  0  0  0  0
 22 23  1  0  0  0  0
 22 30  1  0  0  0  0
 23 24  1  0  0  0  0
 24 25  4  0  0  0  0
 24 29  4  0  0  0  0
 25 26  4  0  0  0  0
 26 27  4  0  0  0  0
 27 28  4  0  0  0  0
 28 29  4  0  0  0  0
 30 31  2  0  0  0  0
 32 33  4  0  0  0  0
 33 34  4  0  0  0  0
 34 35  4  0  0  0  0
 36 37  1  0  0  0  0
M  END
>  <Name_Molregno>
429296

>  <5-HT7>
8.18

$$$$
429336
  Marvin  02231216192D 0   1.00000     0.00000     0

 29 32  0  0  1  0  0  0  0  0999 V2000
    2.9524   -2.4743    0.0000 O   0  0  0  0  0  0  0  0  0
    3.7774   -2.4743    0.0000 C   0  0  0  0  0  0  0  0  0
    4.2623   -3.1417    0.0000 N   0  0  0  0  0  0  0  0  0
    5.0470   -2.8868    0.0000 C   0  0  0  0  0  0  0  0  0
    5.0470   -2.0618    0.0000 C   0  0  0  0  0  0  0  0  0
    5.7614   -1.6493    0.0000 C   0  0  0  0  0  0  0  0  0
    6.4759   -2.0618    0.0000 C   0  0  0  0  0  0  0  0  0
    6.4759   -2.8868    0.0000 C   0  0  0  0  0  0  0  0  0
    5.7614   -3.2993    0.0000 C   0  0  0  0  0  0  0  0  0
    4.2623   -1.8068    0.0000 C   0  0  0  0  0  0  0  0  0
    3.6551   -1.2484    0.0000 C   0  0  0  0  0  0  0  0  0
    2.8678   -1.4951    0.0000 C   0  0  0  0  0  0  0  0  0
    2.2605   -0.9367    0.0000 C   0  0  0  0  0  0  0  0  0
    1.4733   -1.1834    0.0000 C   0  0  0  0  0  0  0  0  0
    0.8660   -0.6250    0.0000 N   0  0  0  0  0  0  0  0  0
    0.0787   -0.8717    0.0000 C   0  0  0  0  0  0  0  0  0
   -0.5285   -0.3133    0.0000 C   0  0  0  0  0  0  0  0  0
   -0.3486    0.4919    0.0000 N   0  0  0  0  0  0  0  0  0
    0.4387    0.7386    0.0000 C   0  0  0  0  0  0  0  0  0
    1.0460    0.1801    0.0000 C   0  0  0  0  0  0  0  0  0
   -0.9558    1.0503    0.0000 C   0  0  0  0  0  0  0  0  0
   -1.7431    0.8036    0.0000 C   0  0  0  0  0  0  0  0  0
   -2.3504    1.3620    0.0000 C   0  0  0  0  0  0  0  0  0
   -2.1704    2.1671    0.0000 C   0  0  0  0  0  0  0  0  0
   -1.3832    2.4138    0.0000 C   0  0  0  0  0  0  0  0  0
   -0.7759    1.8554    0.0000 C   0  0  0  0  0  0  0  0  0
    4.4254   -0.9981    0.0000 C   0  0  0  0  0  0  0  0  0
    5.2073   -0.7350    0.0000 C   0  0  0  0  0  0  0  0  0
    4.0074   -3.9263    0.0000 C   0  0  0  0  0  0  0  0  0
  1  2  2  0  0  0  0
  2  3  1  0  0  0  0
  2 10  1  0  0  0  0
  3  4  1  0  0  0  0
  3 29  1  0  0  0  0
  4  5  4  0  0  0  0
  4  9  4  0  0  0  0
  5  6  4  0  0  0  0
  5 10  1  0  0  0  0
  6  7  4  0  0  0  0
  7  8  4  0  0  0  0
  8  9  4  0  0  0  0
 10 11  1  0  0  0  0
 10 27  1  0  0  0  0
 11 12  1  0  0  0  0
 12 13  1  0  0  0  0
 13 14  1  0  0  0  0
 14 15  1  0  0  0  0
 15 16  1  0  0  0  0
 15 20  1  0  0  0  0
 16 17  1  0  0  0  0
 17 18  1  0  0  0  0
 18 19  1  0  0  0  0
 18 21  1  0  0  0  0
 19 20  1  0  0  0  0
 21 22  4  0  0  0  0
 21 26  4  0  0  0  0
 22 23  4  0  0  0  0
 23 24  4  0  0  0  0
 24 25  4  0  0  0  0
 25 26  4  0  0  0  0
 27 28  1  0  0  0  0
M  END
>  <Name_Molregno>
429336

>  <5-HT7>
7.48

$$$$
429337
  Marvin  02231216192D 0   1.00000     0.00000     0

 30 33  0  0  1  0  0  0  0  0999 V2000
   -5.6535   -3.4086    0.0000 O   0  0  0  0  0  0  0  0  0
   -5.6535   -4.2336    0.0000 C   0  0  0  0  0  0  0  0  0
   -6.3680   -2.9961    0.0000 C   0  0  0  0  0  0  0  0  0
   -7.0824   -3.4086    0.0000 C   0  0  0  0  0  0  0  0  0
   -7.7969   -2.9961    0.0000 C   0  0  0  0  0  0  0  0  0
   -7.7969   -2.1711    0.0000 C   0  0  0  0  0  0  0  0  0
   -7.0824   -1.7586    0.0000 C   0  0  0  0  0  0  0  0  0
   -6.3680   -2.1711    0.0000 C   0  0  0  0  0  0  0  0  0
   -5.6535   -1.7586    0.0000 N   0  0  0  0  0  0  0  0  0
   -5.6535   -0.9336    0.0000 C   0  0  0  0  0  0  0  0  0
   -4.9390   -0.5211    0.0000 C   0  0  0  0  0  0  0  0  0
   -4.2245   -0.9336    0.0000 N   0  0  0  0  0  0  0  0  0
   -4.2245   -1.7586    0.0000 C   0  0  0  0  0  0  0  0  0
   -4.9390   -2.1711    0.0000 C   0  0  0  0  0  0  0  0  0
   -3.5101   -0.5211    0.0000 C   0  0  0  0  0  0  0  0  0
   -3.5101    0.3039    0.0000 C   0  0  0  0  0  0  0  0  0
   -2.7956    0.7164    0.0000 C   0  0  0  0  0  0  0  0  0
   -2.7956    1.5414    0.0000 C   0  0  0  0  0  0  0  0  0
   -2.0811    1.9539    0.0000 C   0  0  0  0  0  0  0  0  0
   -1.2965    2.2088    0.0000 C   0  0  0  0  0  0  0  0  0
   -1.2965    3.0338    0.0000 C   0  0  0  0  0  0  0  0  0
   -2.0811    3.2887    0.0000 N   0  0  0  0  0  0  0  0  0
   -2.5660    2.6213    0.0000 C   0  0  0  0  0  0  0  0  0
   -3.3910    2.6213    0.0000 O   0  0  0  0  0  0  0  0  0
   -0.5820    3.4463    0.0000 C   0  0  0  0  0  0  0  0  0
    0.1324    3.0338    0.0000 C   0  0  0  0  0  0  0  0  0
    0.1324    2.2088    0.0000 C   0  0  0  0  0  0  0  0  0
   -0.5820    1.7963    0.0000 C   0  0  0  0  0  0  0  0  0
   -1.7456    1.2002    0.0000 C   0  0  0  0  0  0  0  0  0
   -0.9251    1.1139    0.0000 C   0  0  0  0  0  0  0  0  0
  1  2  1  0  0  0  0
  1  3  1  0  0  0  0
  3  4  4  0  0  0  0
  3  8  4  0  0  0  0
  4  5  4  0  0  0  0
  5  6  4  0  0  0  0
  6  7  4  0  0  0  0
  7  8  4  0  0  0  0
  8  9  1  0  0  0  0
  9 10  1  0  0  0  0
  9 14  1  0  0  0  0
 10 11  1  0  0  0  0
 11 12  1  0  0  0  0
 12 13  1  0  0  0  0
 12 15  1  0  0  0  0
 13 14  1  0  0  0  0
 15 16  1  0  0  0  0
 16 17  1  0  0  0  0
 17 18  1  0  0  0  0
 18 19  1  0  0  0  0
 19 20  1  0  0  0  0
 19 23  1  0  0  0  0
 19 29  1  0  0  0  0
 20 21  4  0  0  0  0
 20 28  4  0  0  0  0
 21 22  1  0  0  0  0
 21 25  4  0  0  0  0
 22 23  1  0  0  0  0
 23 24  2  0  0  0  0
 25 26  4  0  0  0  0
 26 27  4  0  0  0  0
 27 28  4  0  0  0  0
 29 30  1  0  0  0  0
M  END
>  <Name_Molregno>
429337

>  <5-HT7>
8.27

$$$$
429339
  Marvin  02231216192D 0   1.00000     0.00000     0

 30 33  0  0  1  0  0  0  0  0999 V2000
   -0.0658   -3.1604    0.0000 Cl  0  0  0  0  0  0  0  0  0
    0.6487   -2.7479    0.0000 C   0  0  0  0  0  0  0  0  0
    0.6487   -1.9229    0.0000 C   0  0  0  0  0  0  0  0  0
    1.3632   -1.5104    0.0000 C   0  0  0  0  0  0  0  0  0
    2.0777   -1.9229    0.0000 C   0  0  0  0  0  0  0  0  0
    2.7921   -1.5104    0.0000 N   0  0  0  0  0  0  0  0  0
    2.7921   -0.6854    0.0000 C   0  0  0  0  0  0  0  0  0
    3.5066   -0.2729    0.0000 C   0  0  0  0  0  0  0  0  0
    4.2211   -0.6854    0.0000 N   0  0  0  0  0  0  0  0  0
    4.2211   -1.5104    0.0000 C   0  0  0  0  0  0  0  0  0
    3.5066   -1.9229    0.0000 C   0  0  0  0  0  0  0  0  0
    4.9355   -0.2729    0.0000 C   0  0  0  0  0  0  0  0  0
    5.6500   -0.6854    0.0000 C   0  0  0  0  0  0  0  0  0
    6.3645   -0.2729    0.0000 C   0  0  0  0  0  0  0  0  0
    7.0790   -0.6854    0.0000 C   0  0  0  0  0  0  0  0  0
    7.7934   -0.2729    0.0000 C   0  0  0  0  0  0  0  0  0
    8.5079   -0.6854    0.0000 C   0  0  0  0  0  0  0  0  0
    9.1210   -1.2374    0.0000 C   0  0  0  0  0  0  0  0  0
    9.8355   -0.8249    0.0000 C   0  0  0  0  0  0  0  0  0
    9.6639   -0.0180    0.0000 N   0  0  0  0  0  0  0  0  0
    8.8435    0.0683    0.0000 C   0  0  0  0  0  0  0  0  0
    8.4310    0.7828    0.0000 O   0  0  0  0  0  0  0  0  0
   10.5499   -1.2374    0.0000 C   0  0  0  0  0  0  0  0  0
   10.5499   -2.0624    0.0000 C   0  0  0  0  0  0  0  0  0
    9.8355   -2.4749    0.0000 C   0  0  0  0  0  0  0  0  0
    9.1210   -2.0624    0.0000 C   0  0  0  0  0  0  0  0  0
    8.0230   -1.3528    0.0000 C   0  0  0  0  0  0  0  0  0
    8.3585   -2.1065    0.0000 C   0  0  0  0  0  0  0  0  0
    2.0777   -2.7479    0.0000 C   0  0  0  0  0  0  0  0  0
    1.3632   -3.1604    0.0000 C   0  0  0  0  0  0  0  0  0
  1  2  1  0  0  0  0
  2  3  4  0  0  0  0
  2 30  4  0  0  0  0
  3  4  4  0  0  0  0
  4  5  4  0  0  0  0
  5  6  1  0  0  0  0
  5 29  4  0  0  0  0
  6  7  1  0  0  0  0
  6 11  1  0  0  0  0
  7  8  1  0  0  0  0
  8  9  1  0  0  0  0
  9 10  1  0  0  0  0
  9 12  1  0  0  0  0
 10 11  1  0  0  0  0
 12 13  1  0  0  0  0
 13 14  1  0  0  0  0
 14 15  1  0  0  0  0
 15 16  1  0  0  0  0
 16 17  1  0  0  0  0
 17 18  1  0  0  0  0
 17 21  1  0  0  0  0
 17 27  1  0  0  0  0
 18 19  4  0  0  0  0
 18 26  4  0  0  0  0
 19 20  1  0  0  0  0
 19 23  4  0  0  0  0
 20 21  1  0  0  0  0
 21 22  2  0  0  0  0
 23 24  4  0  0  0  0
 24 25  4  0  0  0  0
 25 26  4  0  0  0  0
 27 28  1  0  0  0  0
 29 30  4  0  0  0  0
M  END
>  <Name_Molregno>
429339

>  <5-HT7>
8.91

$$$$
429340
  Marvin  02231216192D 0   1.00000     0.00000     0

 28 31  0  0  1  0  0  0  0  0999 V2000
    3.0765   -2.7820    0.0000 O   0  0  0  0  0  0  0  0  0
    3.9015   -2.7820    0.0000 C   0  0  0  0  0  0  0  0  0
    4.3865   -3.4495    0.0000 N   0  0  0  0  0  0  0  0  0
    5.1711   -3.1945    0.0000 C   0  0  0  0  0  0  0  0  0
    5.1711   -2.3695    0.0000 C   0  0  0  0  0  0  0  0  0
    5.8855   -1.9570    0.0000 C   0  0  0  0  0  0  0  0  0
    6.6000   -2.3695    0.0000 C   0  0  0  0  0  0  0  0  0
    6.6000   -3.1945    0.0000 C   0  0  0  0  0  0  0  0  0
    5.8855   -3.6070    0.0000 C   0  0  0  0  0  0  0  0  0
    4.3865   -2.1146    0.0000 C   0  0  0  0  0  0  0  0  0
    3.7792   -1.5562    0.0000 C   0  0  0  0  0  0  0  0  0
    2.9919   -1.8029    0.0000 C   0  0  0  0  0  0  0  0  0
    2.3846   -1.2444    0.0000 C   0  0  0  0  0  0  0  0  0
    1.5974   -1.4911    0.0000 C   0  0  0  0  0  0  0  0  0
    0.9901   -0.9327    0.0000 N   0  0  0  0  0  0  0  0  0
    0.2029   -1.1794    0.0000 C   0  0  0  0  0  0  0  0  0
   -0.4044   -0.6210    0.0000 C   0  0  0  0  0  0  0  0  0
   -0.2244    0.1841    0.0000 N   0  0  0  0  0  0  0  0  0
    0.5628    0.4308    0.0000 C   0  0  0  0  0  0  0  0  0
    1.1701   -0.1276    0.0000 C   0  0  0  0  0  0  0  0  0
   -0.8317    0.7425    0.0000 C   0  0  0  0  0  0  0  0  0
   -1.6190    0.4958    0.0000 C   0  0  0  0  0  0  0  0  0
   -2.2262    1.0543    0.0000 C   0  0  0  0  0  0  0  0  0
   -2.0463    1.8594    0.0000 C   0  0  0  0  0  0  0  0  0
   -1.2590    2.1061    0.0000 C   0  0  0  0  0  0  0  0  0
   -0.6518    1.5477    0.0000 C   0  0  0  0  0  0  0  0  0
    4.5495   -1.3059    0.0000 C   0  0  0  0  0  0  0  0  0
    5.3314   -1.0427    0.0000 C   0  0  0  0  0  0  0  0  0
  1  2  2  0  0  0  0
  2  3  1  0  0  0  0
  2 10  1  0  0  0  0
  3  4  1  0  0  0  0
  4  5  4  0  0  0  0
  4  9  4  0  0  0  0
  5  6  4  0  0  0  0
  5 10  1  0  0  0  0
  6  7  4  0  0  0  0
  7  8  4  0  0  0  0
  8  9  4  0  0  0  0
 10 11  1  0  0  0  0
 10 27  1  0  0  0  0
 11 12  1  0  0  0  0
 12 13  1  0  0  0  0
 13 14  1  0  0  0  0
 14 15  1  0  0  0  0
 15 16  1  0  0  0  0
 15 20  1  0  0  0  0
 16 17  1  0  0  0  0
 17 18  1  0  0  0  0
 18 19  1  0  0  0  0
 18 21  1  0  0  0  0
 19 20  1  0  0  0  0
 21 22  4  0  0  0  0
 21 26  4  0  0  0  0
 22 23  4  0  0  0  0
 23 24  4  0  0  0  0
 24 25  4  0  0  0  0
 25 26  4  0  0  0  0
 27 28  1  0  0  0  0
M  END
>  <Name_Molregno>
429340

>  <5-HT7>
8.68

$$$$
429394
  Marvin  02231216192D 0   1.00000     0.00000     0

 29 32  0  0  1  0  0  0  0  0999 V2000
    0.9607   -2.9269    0.0000 Cl  0  0  0  0  0  0  0  0  0
    1.6752   -2.5144    0.0000 C   0  0  0  0  0  0  0  0  0
    1.6752   -1.6894    0.0000 C   0  0  0  0  0  0  0  0  0
    2.3896   -1.2769    0.0000 C   0  0  0  0  0  0  0  0  0
    3.1041   -1.6894    0.0000 C   0  0  0  0  0  0  0  0  0
    3.8186   -1.2769    0.0000 N   0  0  0  0  0  0  0  0  0
    3.8186   -0.4519    0.0000 C   0  0  0  0  0  0  0  0  0
    4.5331   -0.0394    0.0000 C   0  0  0  0  0  0  0  0  0
    5.2475   -0.4519    0.0000 N   0  0  0  0  0  0  0  0  0
    5.2475   -1.2769    0.0000 C   0  0  0  0  0  0  0  0  0
    4.5331   -1.6894    0.0000 C   0  0  0  0  0  0  0  0  0
    5.9620   -0.0394    0.0000 C   0  0  0  0  0  0  0  0  0
    5.9620    0.7856    0.0000 C   0  0  0  0  0  0  0  0  0
    6.6765    1.1981    0.0000 C   0  0  0  0  0  0  0  0  0
    6.6765    2.0231    0.0000 C   0  0  0  0  0  0  0  0  0
    7.3909    2.4356    0.0000 C   0  0  0  0  0  0  0  0  0
    8.1756    2.6906    0.0000 C   0  0  0  0  0  0  0  0  0
    8.1756    3.5156    0.0000 C   0  0  0  0  0  0  0  0  0
    7.3909    3.7705    0.0000 N   0  0  0  0  0  0  0  0  0
    6.9060    3.1031    0.0000 C   0  0  0  0  0  0  0  0  0
    6.0810    3.1031    0.0000 O   0  0  0  0  0  0  0  0  0
    8.8900    3.9281    0.0000 C   0  0  0  0  0  0  0  0  0
    9.6045    3.5156    0.0000 C   0  0  0  0  0  0  0  0  0
    9.6045    2.6906    0.0000 C   0  0  0  0  0  0  0  0  0
    8.8900    2.2781    0.0000 C   0  0  0  0  0  0  0  0  0
    7.7265    1.6819    0.0000 C   0  0  0  0  0  0  0  0  0
    8.5470    1.5957    0.0000 C   0  0  0  0  0  0  0  0  0
    3.1041   -2.5144    0.0000 C   0  0  0  0  0  0  0  0  0
    2.3896   -2.9269    0.0000 C   0  0  0  0  0  0  0  0  0
  1  2  1  0  0  0  0
  2  3  4  0  0  0  0
  2 29  4  0  0  0  0
  3  4  4  0  0  0  0
  4  5  4  0  0  0  0
  5  6  1  0  0  0  0
  5 28  4  0  0  0  0
  6  7  1  0  0  0  0
  6 11  1  0  0  0  0
  7  8  1  0  0  0  0
  8  9  1  0  0  0  0
  9 10  1  0  0  0  0
  9 12  1  0  0  0  0
 10 11  1  0  0  0  0
 12 13  1  0  0  0  0
 13 14  1  0  0  0  0
 14 15  1  0  0  0  0
 15 16  1  0  0  0  0
 16 17  1  0  0  0  0
 16 20  1  0  0  0  0
 16 26  1  0  0  0  0
 17 18  4  0  0  0  0
 17 25  4  0  0  0  0
 18 19  1  0  0  0  0
 18 22  4  0  0  0  0
 19 20  1  0  0  0  0
 20 21  2  0  0  0  0
 22 23  4  0  0  0  0
 23 24  4  0  0  0  0
 24 25  4  0  0  0  0
 26 27  1  0  0  0  0
 28 29  4  0  0  0  0
M  END
>  <Name_Molregno>
429394

>  <5-HT7>
9.42

$$$$
429395
  Marvin  02231216192D 0   1.00000     0.00000     0

 30 33  0  0  1  0  0  0  0  0999 V2000
   -0.1943   -0.0074    0.0000 Cl  0  0  0  0  0  0  0  0  0
    0.5202   -0.4199    0.0000 C   0  0  0  0  0  0  0  0  0
    1.2347   -0.0074    0.0000 C   0  0  0  0  0  0  0  0  0
    1.9492   -0.4199    0.0000 C   0  0  0  0  0  0  0  0  0
    2.6636   -0.0074    0.0000 N   0  0  0  0  0  0  0  0  0
    2.6636    0.8176    0.0000 C   0  0  0  0  0  0  0  0  0
    3.3781    1.2301    0.0000 C   0  0  0  0  0  0  0  0  0
    4.0926    0.8176    0.0000 N   0  0  0  0  0  0  0  0  0
    4.0926   -0.0074    0.0000 C   0  0  0  0  0  0  0  0  0
    3.3781   -0.4199    0.0000 C   0  0  0  0  0  0  0  0  0
    4.8070    1.2301    0.0000 C   0  0  0  0  0  0  0  0  0
    5.5215    0.8176    0.0000 C   0  0  0  0  0  0  0  0  0
    6.2360    1.2301    0.0000 C   0  0  0  0  0  0  0  0  0
    6.9505    0.8176    0.0000 C   0  0  0  0  0  0  0  0  0
    7.6649    1.2301    0.0000 C   0  0  0  0  0  0  0  0  0
    8.3794    0.8176    0.0000 C   0  0  0  0  0  0  0  0  0
    8.9925    0.2656    0.0000 C   0  0  0  0  0  0  0  0  0
    9.7070    0.6781    0.0000 C   0  0  0  0  0  0  0  0  0
    9.5354    1.4850    0.0000 N   0  0  0  0  0  0  0  0  0
    8.7150    1.5713    0.0000 C   0  0  0  0  0  0  0  0  0
    8.3025    2.2857    0.0000 O   0  0  0  0  0  0  0  0  0
   10.4214    0.2656    0.0000 C   0  0  0  0  0  0  0  0  0
   10.4214   -0.5594    0.0000 C   0  0  0  0  0  0  0  0  0
    9.7070   -0.9719    0.0000 C   0  0  0  0  0  0  0  0  0
    8.9925   -0.5594    0.0000 C   0  0  0  0  0  0  0  0  0
    7.8945    0.1502    0.0000 C   0  0  0  0  0  0  0  0  0
    8.2300   -0.6035    0.0000 C   0  0  0  0  0  0  0  0  0
    1.9492   -1.2449    0.0000 C   0  0  0  0  0  0  0  0  0
    1.2347   -1.6574    0.0000 C   0  0  0  0  0  0  0  0  0
    0.5202   -1.2449    0.0000 C   0  0  0  0  0  0  0  0  0
  1  2  1  0  0  0  0
  2  3  4  0  0  0  0
  2 30  4  0  0  0  0
  3  4  4  0  0  0  0
  4  5  1  0  0  0  0
  4 28  4  0  0  0  0
  5  6  1  0  0  0  0
  5 10  1  0  0  0  0
  6  7  1  0  0  0  0
  7  8  1  0  0  0  0
  8  9  1  0  0  0  0
  8 11  1  0  0  0  0
  9 10  1  0  0  0  0
 11 12  1  0  0  0  0
 12 13  1  0  0  0  0
 13 14  1  0  0  0  0
 14 15  1  0  0  0  0
 15 16  1  0  0  0  0
 16 17  1  0  0  0  0
 16 20  1  0  0  0  0
 16 26  1  0  0  0  0
 17 18  4  0  0  0  0
 17 25  4  0  0  0  0
 18 19  1  0  0  0  0
 18 22  4  0  0  0  0
 19 20  1  0  0  0  0
 20 21  2  0  0  0  0
 22 23  4  0  0  0  0
 23 24  4  0  0  0  0
 24 25  4  0  0  0  0
 26 27  1  0  0  0  0
 28 29  4  0  0  0  0
 29 30  4  0  0  0  0
M  END
>  <Name_Molregno>
429395

>  <5-HT7>
8.84

$$$$
429396
  Marvin  02231216192D 0   1.00000     0.00000     0

 29 32  0  0  1  0  0  0  0  0999 V2000
   -9.9773   -1.1942    0.0000 Cl  0  0  0  0  0  0  0  0  0
   -9.2628   -1.6067    0.0000 C   0  0  0  0  0  0  0  0  0
   -8.5484   -1.1942    0.0000 C   0  0  0  0  0  0  0  0  0
   -7.8339   -1.6067    0.0000 C   0  0  0  0  0  0  0  0  0
   -7.1194   -1.1942    0.0000 N   0  0  0  0  0  0  0  0  0
   -7.1194   -0.3692    0.0000 C   0  0  0  0  0  0  0  0  0
   -6.4050    0.0433    0.0000 C   0  0  0  0  0  0  0  0  0
   -5.6905   -0.3692    0.0000 N   0  0  0  0  0  0  0  0  0
   -5.6905   -1.1942    0.0000 C   0  0  0  0  0  0  0  0  0
   -6.4050   -1.6067    0.0000 C   0  0  0  0  0  0  0  0  0
   -4.9760    0.0433    0.0000 C   0  0  0  0  0  0  0  0  0
   -4.9760    0.8683    0.0000 C   0  0  0  0  0  0  0  0  0
   -4.2615    1.2808    0.0000 C   0  0  0  0  0  0  0  0  0
   -4.2615    2.1058    0.0000 C   0  0  0  0  0  0  0  0  0
   -3.5471    2.5183    0.0000 C   0  0  0  0  0  0  0  0  0
   -2.7624    2.7732    0.0000 C   0  0  0  0  0  0  0  0  0
   -2.7624    3.5982    0.0000 C   0  0  0  0  0  0  0  0  0
   -3.5471    3.8532    0.0000 N   0  0  0  0  0  0  0  0  0
   -4.0320    3.1857    0.0000 C   0  0  0  0  0  0  0  0  0
   -4.8570    3.1857    0.0000 O   0  0  0  0  0  0  0  0  0
   -2.0480    4.0107    0.0000 C   0  0  0  0  0  0  0  0  0
   -1.3335    3.5982    0.0000 C   0  0  0  0  0  0  0  0  0
   -1.3335    2.7732    0.0000 C   0  0  0  0  0  0  0  0  0
   -2.0480    2.3607    0.0000 C   0  0  0  0  0  0  0  0  0
   -3.2115    1.7646    0.0000 C   0  0  0  0  0  0  0  0  0
   -2.3910    1.6784    0.0000 C   0  0  0  0  0  0  0  0  0
   -7.8339   -2.4317    0.0000 C   0  0  0  0  0  0  0  0  0
   -8.5484   -2.8442    0.0000 C   0  0  0  0  0  0  0  0  0
   -9.2628   -2.4317    0.0000 C   0  0  0  0  0  0  0  0  0
  1  2  1  0  0  0  0
  2  3  4  0  0  0  0
  2 29  4  0  0  0  0
  3  4  4  0  0  0  0
  4  5  1  0  0  0  0
  4 27  4  0  0  0  0
  5  6  1  0  0  0  0
  5 10  1  0  0  0  0
  6  7  1  0  0  0  0
  7  8  1  0  0  0  0
  8  9  1  0  0  0  0
  8 11  1  0  0  0  0
  9 10  1  0  0  0  0
 11 12  1  0  0  0  0
 12 13  1  0  0  0  0
 13 14  1  0  0  0  0
 14 15  1  0  0  0  0
 15 16  1  0  0  0  0
 15 19  1  0  0  0  0
 15 25  1  0  0  0  0
 16 17  4  0  0  0  0
 16 24  4  0  0  0  0
 17 18  1  0  0  0  0
 17 21  4  0  0  0  0
 18 19  1  0  0  0  0
 19 20  2  0  0  0  0
 21 22  4  0  0  0  0
 22 23  4  0  0  0  0
 23 24  4  0  0  0  0
 25 26  1  0  0  0  0
 27 28  4  0  0  0  0
 28 29  4  0  0  0  0
M  END
>  <Name_Molregno>
429396

>  <5-HT7>
9.39

$$$$
429444
  Marvin  02231216192D 0   1.00000     0.00000     0

 28 31  0  0  1  0  0  0  0  0999 V2000
    2.5305   -4.6287    0.0000 Cl  0  0  0  0  0  0  0  0  0
    3.2450   -4.2162    0.0000 C   0  0  0  0  0  0  0  0  0
    3.2450   -3.3912    0.0000 C   0  0  0  0  0  0  0  0  0
    3.9594   -2.9787    0.0000 C   0  0  0  0  0  0  0  0  0
    3.9594   -2.1537    0.0000 N   0  0  0  0  0  0  0  0  0
    3.2450   -1.7412    0.0000 C   0  0  0  0  0  0  0  0  0
    3.2450   -0.9162    0.0000 C   0  0  0  0  0  0  0  0  0
    3.9594   -0.5037    0.0000 N   0  0  0  0  0  0  0  0  0
    4.6739   -0.9162    0.0000 C   0  0  0  0  0  0  0  0  0
    4.6739   -1.7412    0.0000 C   0  0  0  0  0  0  0  0  0
    3.9594    0.3213    0.0000 C   0  0  0  0  0  0  0  0  0
    4.6739    0.7338    0.0000 C   0  0  0  0  0  0  0  0  0
    4.6739    1.5588    0.0000 C   0  0  0  0  0  0  0  0  0
    5.3884    1.9713    0.0000 C   0  0  0  0  0  0  0  0  0
    6.1730    2.2262    0.0000 C   0  0  0  0  0  0  0  0  0
    6.1730    3.0512    0.0000 C   0  0  0  0  0  0  0  0  0
    5.3884    3.3062    0.0000 N   0  0  0  0  0  0  0  0  0
    4.9034    2.6387    0.0000 C   0  0  0  0  0  0  0  0  0
    4.0784    2.6387    0.0000 O   0  0  0  0  0  0  0  0  0
    6.8875    3.4637    0.0000 C   0  0  0  0  0  0  0  0  0
    7.6019    3.0512    0.0000 C   0  0  0  0  0  0  0  0  0
    7.6019    2.2262    0.0000 C   0  0  0  0  0  0  0  0  0
    6.8875    1.8137    0.0000 C   0  0  0  0  0  0  0  0  0
    5.7239    1.2176    0.0000 C   0  0  0  0  0  0  0  0  0
    6.5444    1.1314    0.0000 C   0  0  0  0  0  0  0  0  0
    4.6739   -3.3912    0.0000 C   0  0  0  0  0  0  0  0  0
    4.6739   -4.2162    0.0000 C   0  0  0  0  0  0  0  0  0
    3.9594   -4.6287    0.0000 C   0  0  0  0  0  0  0  0  0
  1  2  1  0  0  0  0
  2  3  4  0  0  0  0
  2 28  4  0  0  0  0
  3  4  4  0  0  0  0
  4  5  1  0  0  0  0
  4 26  4  0  0  0  0
  5  6  1  0  0  0  0
  5 10  1  0  0  0  0
  6  7  1  0  0  0  0
  7  8  1  0  0  0  0
  8  9  1  0  0  0  0
  8 11  1  0  0  0  0
  9 10  1  0  0  0  0
 11 12  1  0  0  0  0
 12 13  1  0  0  0  0
 13 14  1  0  0  0  0
 14 15  1  0  0  0  0
 14 18  1  0  0  0  0
 14 24  1  0  0  0  0
 15 16  4  0  0  0  0
 15 23  4  0  0  0  0
 16 17  1  0  0  0  0
 16 20  4  0  0  0  0
 17 18  1  0  0  0  0
 18 19  2  0  0  0  0
 20 21  4  0  0  0  0
 21 22  4  0  0  0  0
 22 23  4  0  0  0  0
 24 25  1  0  0  0  0
 26 27  4  0  0  0  0
 27 28  4  0  0  0  0
M  END
>  <Name_Molregno>
429444

>  <5-HT7>
7.68

$$$$
429493
  Marvin  02231216192D 0   1.00000     0.00000     0

 26 29  0  0  1  0  0  0  0  0999 V2000
    1.0582   -0.4447    0.0000 O   0  0  0  0  0  0  0  0  0
    0.2530   -0.6246    0.0000 C   0  0  0  0  0  0  0  0  0
   -0.3658   -0.0791    0.0000 N   0  0  0  0  0  0  0  0  0
   -1.0759   -0.4990    0.0000 C   0  0  0  0  0  0  0  0  0
   -0.8959   -1.3042    0.0000 C   0  0  0  0  0  0  0  0  0
   -1.5032   -1.8626    0.0000 C   0  0  0  0  0  0  0  0  0
   -2.2905   -1.6159    0.0000 C   0  0  0  0  0  0  0  0  0
   -2.4704   -0.8107    0.0000 C   0  0  0  0  0  0  0  0  0
   -1.8632   -0.2523    0.0000 C   0  0  0  0  0  0  0  0  0
   -0.0746   -1.3818    0.0000 C   0  0  0  0  0  0  0  0  0
    0.6399   -1.7943    0.0000 C   0  0  0  0  0  0  0  0  0
    1.3543   -1.3818    0.0000 C   0  0  0  0  0  0  0  0  0
    2.0688   -1.7943    0.0000 C   0  0  0  0  0  0  0  0  0
    2.7833   -1.3818    0.0000 C   0  0  0  0  0  0  0  0  0
    3.4977   -1.7943    0.0000 N   0  0  0  0  0  0  0  0  0
    3.4977   -2.6193    0.0000 C   0  0  0  0  0  0  0  0  0
    4.2122   -3.0318    0.0000 C   0  0  0  0  0  0  0  0  0
    4.9267   -2.6193    0.0000 C   0  0  0  0  0  0  0  0  0
    4.9267   -1.7943    0.0000 C   0  0  0  0  0  0  0  0  0
    4.2122   -1.3818    0.0000 C   0  0  0  0  0  0  0  0  0
    5.6412   -1.3818    0.0000 C   0  0  0  0  0  0  0  0  0
    6.3556   -1.7943    0.0000 C   0  0  0  0  0  0  0  0  0
    6.3556   -2.6193    0.0000 C   0  0  0  0  0  0  0  0  0
    5.6412   -3.0318    0.0000 C   0  0  0  0  0  0  0  0  0
   -0.0573   -2.2066    0.0000 C   0  0  0  0  0  0  0  0  0
   -0.7630   -2.6340    0.0000 C   0  0  0  0  0  0  0  0  0
  1  2  2  0  0  0  0
  2  3  1  0  0  0  0
  2 10  1  0  0  0  0
  3  4  1  0  0  0  0
  4  5  4  0  0  0  0
  4  9  4  0  0  0  0
  5  6  4  0  0  0  0
  5 10  1  0  0  0  0
  6  7  4  0  0  0  0
  7  8  4  0  0  0  0
  8  9  4  0  0  0  0
 10 11  1  0  0  0  0
 10 25  1  0  0  0  0
 11 12  1  0  0  0  0
 12 13  1  0  0  0  0
 13 14  1  0  0  0  0
 14 15  1  0  0  0  0
 15 16  1  0  0  0  0
 15 20  1  0  0  0  0
 16 17  1  0  0  0  0
 17 18  1  0  0  0  0
 18 19  4  0  0  0  0
 18 24  4  0  0  0  0
 19 20  1  0  0  0  0
 19 21  4  0  0  0  0
 21 22  4  0  0  0  0
 22 23  4  0  0  0  0
 23 24  4  0  0  0  0
 25 26  1  0  0  0  0
M  END
>  <Name_Molregno>
429493

>  <5-HT7>
8.12

$$$$
429541
  Marvin  02231216192D 0   1.00000     0.00000     0

 25 28  0  0  1  0  0  0  0  0999 V2000
   -7.4019   -3.1799    0.0000 S   0  0  0  0  0  0  0  0  0
   -6.7888   -2.6279    0.0000 C   0  0  0  0  0  0  0  0  0
   -6.7888   -1.8029    0.0000 C   0  0  0  0  0  0  0  0  0
   -6.0743   -1.3904    0.0000 C   0  0  0  0  0  0  0  0  0
   -5.3598   -1.8029    0.0000 N   0  0  0  0  0  0  0  0  0
   -5.3598   -2.6279    0.0000 C   0  0  0  0  0  0  0  0  0
   -6.0743   -3.0404    0.0000 C   0  0  0  0  0  0  0  0  0
   -6.2458   -3.8474    0.0000 C   0  0  0  0  0  0  0  0  0
   -7.0663   -3.9336    0.0000 C   0  0  0  0  0  0  0  0  0
   -4.6454   -1.3904    0.0000 C   0  0  0  0  0  0  0  0  0
   -4.6454   -0.5654    0.0000 C   0  0  0  0  0  0  0  0  0
   -3.9309   -0.1529    0.0000 C   0  0  0  0  0  0  0  0  0
   -3.9309    0.6721    0.0000 C   0  0  0  0  0  0  0  0  0
   -3.2164    1.0846    0.0000 C   0  0  0  0  0  0  0  0  0
   -2.4318    1.3395    0.0000 C   0  0  0  0  0  0  0  0  0
   -2.4318    2.1645    0.0000 C   0  0  0  0  0  0  0  0  0
   -3.2164    2.4195    0.0000 N   0  0  0  0  0  0  0  0  0
   -3.7013    1.7520    0.0000 C   0  0  0  0  0  0  0  0  0
   -4.5263    1.7520    0.0000 O   0  0  0  0  0  0  0  0  0
   -1.7173    2.5770    0.0000 C   0  0  0  0  0  0  0  0  0
   -1.0028    2.1645    0.0000 C   0  0  0  0  0  0  0  0  0
   -1.0028    1.3395    0.0000 C   0  0  0  0  0  0  0  0  0
   -1.7173    0.9270    0.0000 C   0  0  0  0  0  0  0  0  0
   -2.8809    0.3309    0.0000 C   0  0  0  0  0  0  0  0  0
   -2.0604    0.2447    0.0000 C   0  0  0  0  0  0  0  0  0
  1  2  4  0  0  0  0
  1  9  4  0  0  0  0
  2  3  1  0  0  0  0
  2  7  4  0  0  0  0
  3  4  1  0  0  0  0
  4  5  1  0  0  0  0
  5  6  1  0  0  0  0
  5 10  1  0  0  0  0
  6  7  1  0  0  0  0
  7  8  4  0  0  0  0
  8  9  4  0  0  0  0
 10 11  1  0  0  0  0
 11 12  1  0  0  0  0
 12 13  1  0  0  0  0
 13 14  1  0  0  0  0
 14 15  1  0  0  0  0
 14 18  1  0  0  0  0
 14 24  1  0  0  0  0
 15 16  4  0  0  0  0
 15 23  4  0  0  0  0
 16 17  1  0  0  0  0
 16 20  4  0  0  0  0
 17 18  1  0  0  0  0
 18 19  2  0  0  0  0
 20 21  4  0  0  0  0
 21 22  4  0  0  0  0
 22 23  4  0  0  0  0
 24 25  1  0  0  0  0
M  END
>  <Name_Molregno>
429541

>  <5-HT7>
8.37

$$$$
429591
  Marvin  02231216192D 0   1.00000     0.00000     0

 29 32  0  0  1  0  0  0  0  0999 V2000
    0.9607   -2.9269    0.0000 F   0  0  0  0  0  0  0  0  0
    1.6752   -2.5144    0.0000 C   0  0  0  0  0  0  0  0  0
    1.6752   -1.6894    0.0000 C   0  0  0  0  0  0  0  0  0
    2.3896   -1.2769    0.0000 C   0  0  0  0  0  0  0  0  0
    3.1041   -1.6894    0.0000 C   0  0  0  0  0  0  0  0  0
    3.1041   -2.5144    0.0000 C   0  0  0  0  0  0  0  0  0
    2.3896   -2.9269    0.0000 C   0  0  0  0  0  0  0  0  0
    3.8186   -1.2769    0.0000 C   0  0  0  0  0  0  0  0  0
    3.8186   -0.4519    0.0000 C   0  0  0  0  0  0  0  0  0
    4.5331   -0.0394    0.0000 C   0  0  0  0  0  0  0  0  0
    5.2475   -0.4519    0.0000 N   0  0  0  0  0  0  0  0  0
    5.2475   -1.2769    0.0000 C   0  0  0  0  0  0  0  0  0
    4.5331   -1.6894    0.0000 C   0  0  0  0  0  0  0  0  0
    5.9620   -0.0394    0.0000 C   0  0  0  0  0  0  0  0  0
    5.9620    0.7856    0.0000 C   0  0  0  0  0  0  0  0  0
    6.6765    1.1981    0.0000 C   0  0  0  0  0  0  0  0  0
    6.6765    2.0231    0.0000 C   0  0  0  0  0  0  0  0  0
    7.3909    2.4356    0.0000 C   0  0  0  0  0  0  0  0  0
    8.1756    2.6906    0.0000 C   0  0  0  0  0  0  0  0  0
    8.1756    3.5156    0.0000 C   0  0  0  0  0  0  0  0  0
    7.3909    3.7705    0.0000 N   0  0  0  0  0  0  0  0  0
    6.9060    3.1031    0.0000 C   0  0  0  0  0  0  0  0  0
    6.0810    3.1031    0.0000 O   0  0  0  0  0  0  0  0  0
    8.8900    3.9281    0.0000 C   0  0  0  0  0  0  0  0  0
    9.6045    3.5156    0.0000 C   0  0  0  0  0  0  0  0  0
    9.6045    2.6906    0.0000 C   0  0  0  0  0  0  0  0  0
    8.8900    2.2781    0.0000 C   0  0  0  0  0  0  0  0  0
    7.7265    1.6819    0.0000 C   0  0  0  0  0  0  0  0  0
    8.5470    1.5957    0.0000 C   0  0  0  0  0  0  0  0  0
  1  2  1  0  0  0  0
  2  3  4  0  0  0  0
  2  7  4  0  0  0  0
  3  4  4  0  0  0  0
  4  5  4  0  0  0  0
  5  6  4  0  0  0  0
  5  8  1  0  0  0  0
  6  7  4  0  0  0  0
  8  9  1  0  0  0  0
  8 13  1  0  0  0  0
  9 10  1  0  0  0  0
 10 11  1  0  0  0  0
 11 12  1  0  0  0  0
 11 14  1  0  0  0  0
 12 13  1  0  0  0  0
 14 15  1  0  0  0  0
 15 16  1  0  0  0  0
 16 17  1  0  0  0  0
 17 18  1  0  0  0  0
 18 19  1  0  0  0  0
 18 22  1  0  0  0  0
 18 28  1  0  0  0  0
 19 20  4  0  0  0  0
 19 27  4  0  0  0  0
 20 21  1  0  0  0  0
 20 24  4  0  0  0  0
 21 22  1  0  0  0  0
 22 23  2  0  0  0  0
 24 25  4  0  0  0  0
 25 26  4  0  0  0  0
 26 27  4  0  0  0  0
 28 29  1  0  0  0  0
M  END
>  <Name_Molregno>
429591

>  <5-HT7>
8.28

$$$$
429809
  Marvin  02231216192D 0   1.00000     0.00000     0

 29 32  0  0  1  0  0  0  0  0999 V2000
    0.9607   -2.9269    0.0000 F   0  0  0  0  0  0  0  0  0
    1.6752   -2.5144    0.0000 C   0  0  0  0  0  0  0  0  0
    1.6752   -1.6894    0.0000 C   0  0  0  0  0  0  0  0  0
    2.3896   -1.2769    0.0000 C   0  0  0  0  0  0  0  0  0
    3.1041   -1.6894    0.0000 C   0  0  0  0  0  0  0  0  0
    3.1041   -2.5144    0.0000 C   0  0  0  0  0  0  0  0  0
    2.3896   -2.9269    0.0000 C   0  0  0  0  0  0  0  0  0
    3.8186   -1.2769    0.0000 C   0  0  0  0  0  0  0  0  0
    3.8186   -0.4519    0.0000 C   0  0  0  0  0  0  0  0  0
    4.5331   -0.0394    0.0000 C   0  0  0  0  0  0  0  0  0
    5.2475   -0.4519    0.0000 N   0  0  0  0  0  0  0  0  0
    5.2475   -1.2769    0.0000 C   0  0  0  0  0  0  0  0  0
    4.5331   -1.6894    0.0000 C   0  0  0  0  0  0  0  0  0
    5.9620   -0.0394    0.0000 C   0  0  0  0  0  0  0  0  0
    5.9620    0.7856    0.0000 C   0  0  0  0  0  0  0  0  0
    6.6765    1.1981    0.0000 C   0  0  0  0  0  0  0  0  0
    6.6765    2.0231    0.0000 C   0  0  0  0  0  0  0  0  0
    7.3909    2.4356    0.0000 C   0  0  0  0  0  0  0  0  0
    8.1756    2.6906    0.0000 C   0  0  0  0  0  0  0  0  0
    8.1756    3.5156    0.0000 C   0  0  0  0  0  0  0  0  0
    7.3909    3.7705    0.0000 N   0  0  0  0  0  0  0  0  0
    6.9060    3.1031    0.0000 C   0  0  0  0  0  0  0  0  0
    6.0810    3.1031    0.0000 O   0  0  0  0  0  0  0  0  0
    8.8900    3.9281    0.0000 C   0  0  0  0  0  0  0  0  0
    9.6045    3.5156    0.0000 C   0  0  0  0  0  0  0  0  0
    9.6045    2.6906    0.0000 C   0  0  0  0  0  0  0  0  0
    8.8900    2.2781    0.0000 C   0  0  0  0  0  0  0  0  0
    7.7265    1.6819    0.0000 C   0  0  0  0  0  0  0  0  0
    8.5470    1.5957    0.0000 C   0  0  0  0  0  0  0  0  0
  1  2  1  0  0  0  0
  2  3  4  0  0  0  0
  2  7  4  0  0  0  0
  3  4  4  0  0  0  0
  4  5  4  0  0  0  0
  5  6  4  0  0  0  0
  5  8  1  0  0  0  0
  6  7  4  0  0  0  0
  8  9  1  0  0  0  0
  8 13  2  0  0  0  0
  9 10  1  0  0  0  0
 10 11  1  0  0  0  0
 11 12  1  0  0  0  0
 11 14  1  0  0  0  0
 12 13  1  0  0  0  0
 14 15  1  0  0  0  0
 15 16  1  0  0  0  0
 16 17  1  0  0  0  0
 17 18  1  0  0  0  0
 18 19  1  0  0  0  0
 18 22  1  0  0  0  0
 18 28  1  0  0  0  0
 19 20  4  0  0  0  0
 19 27  4  0  0  0  0
 20 21  1  0  0  0  0
 20 24  4  0  0  0  0
 21 22  1  0  0  0  0
 22 23  2  0  0  0  0
 24 25  4  0  0  0  0
 25 26  4  0  0  0  0
 26 27  4  0  0  0  0
 28 29  1  0  0  0  0
M  END
>  <Name_Molregno>
429809

>  <5-HT7>
8.92

$$$$
429811
  Marvin  02231216192D 0   1.00000     0.00000     0

 29 32  0  0  1  0  0  0  0  0999 V2000
    0.9607   -2.9269    0.0000 Cl  0  0  0  0  0  0  0  0  0
    1.6752   -2.5144    0.0000 C   0  0  0  0  0  0  0  0  0
    1.6752   -1.6894    0.0000 C   0  0  0  0  0  0  0  0  0
    2.3896   -1.2769    0.0000 C   0  0  0  0  0  0  0  0  0
    3.1041   -1.6894    0.0000 C   0  0  0  0  0  0  0  0  0
    3.1041   -2.5144    0.0000 C   0  0  0  0  0  0  0  0  0
    2.3896   -2.9269    0.0000 C   0  0  0  0  0  0  0  0  0
    3.8186   -1.2769    0.0000 C   0  0  0  0  0  0  0  0  0
    3.8186   -0.4519    0.0000 C   0  0  0  0  0  0  0  0  0
    4.5331   -0.0394    0.0000 C   0  0  0  0  0  0  0  0  0
    5.2475   -0.4519    0.0000 N   0  0  0  0  0  0  0  0  0
    5.2475   -1.2769    0.0000 C   0  0  0  0  0  0  0  0  0
    4.5331   -1.6894    0.0000 C   0  0  0  0  0  0  0  0  0
    5.9620   -0.0394    0.0000 C   0  0  0  0  0  0  0  0  0
    5.9620    0.7856    0.0000 C   0  0  0  0  0  0  0  0  0
    6.6765    1.1981    0.0000 C   0  0  0  0  0  0  0  0  0
    6.6765    2.0231    0.0000 C   0  0  0  0  0  0  0  0  0
    7.3909    2.4356    0.0000 C   0  0  0  0  0  0  0  0  0
    8.1756    2.6906    0.0000 C   0  0  0  0  0  0  0  0  0
    8.1756    3.5156    0.0000 C   0  0  0  0  0  0  0  0  0
    7.3909    3.7705    0.0000 N   0  0  0  0  0  0  0  0  0
    6.9060    3.1031    0.0000 C   0  0  0  0  0  0  0  0  0
    6.0810    3.1031    0.0000 O   0  0  0  0  0  0  0  0  0
    8.8900    3.9281    0.0000 C   0  0  0  0  0  0  0  0  0
    9.6045    3.5156    0.0000 C   0  0  0  0  0  0  0  0  0
    9.6045    2.6906    0.0000 C   0  0  0  0  0  0  0  0  0
    8.8900    2.2781    0.0000 C   0  0  0  0  0  0  0  0  0
    7.7265    1.6819    0.0000 C   0  0  0  0  0  0  0  0  0
    8.5470    1.5957    0.0000 C   0  0  0  0  0  0  0  0  0
  1  2  1  0  0  0  0
  2  3  4  0  0  0  0
  2  7  4  0  0  0  0
  3  4  4  0  0  0  0
  4  5  4  0  0  0  0
  5  6  4  0  0  0  0
  5  8  1  0  0  0  0
  6  7  4  0  0  0  0
  8  9  1  0  0  0  0
  8 13  2  0  0  0  0
  9 10  1  0  0  0  0
 10 11  1  0  0  0  0
 11 12  1  0  0  0  0
 11 14  1  0  0  0  0
 12 13  1  0  0  0  0
 14 15  1  0  0  0  0
 15 16  1  0  0  0  0
 16 17  1  0  0  0  0
 17 18  1  0  0  0  0
 18 19  1  0  0  0  0
 18 22  1  0  0  0  0
 18 28  1  0  0  0  0
 19 20  4  0  0  0  0
 19 27  4  0  0  0  0
 20 21  1  0  0  0  0
 20 24  4  0  0  0  0
 21 22  1  0  0  0  0
 22 23  2  0  0  0  0
 24 25  4  0  0  0  0
 25 26  4  0  0  0  0
 26 27  4  0  0  0  0
 28 29  1  0  0  0  0
M  END
>  <Name_Molregno>
429811

>  <5-HT7>
8.99

$$$$
429851
  Marvin  02231216192D 0   1.00000     0.00000     0

 30 33  0  0  1  0  0  0  0  0999 V2000
   -0.1796    0.0334    0.0000 Cl  0  0  0  0  0  0  0  0  0
    0.5349   -0.3791    0.0000 C   0  0  0  0  0  0  0  0  0
    1.2494    0.0334    0.0000 C   0  0  0  0  0  0  0  0  0
    1.9638   -0.3791    0.0000 C   0  0  0  0  0  0  0  0  0
    2.6783    0.0334    0.0000 N   0  0  0  0  0  0  0  0  0
    2.6783    0.8584    0.0000 C   0  0  0  0  0  0  0  0  0
    3.3928    1.2709    0.0000 C   0  0  0  0  0  0  0  0  0
    4.1073    0.8584    0.0000 N   0  0  0  0  0  0  0  0  0
    4.1073    0.0334    0.0000 C   0  0  0  0  0  0  0  0  0
    3.3928   -0.3791    0.0000 C   0  0  0  0  0  0  0  0  0
    4.8217    1.2709    0.0000 C   0  0  0  0  0  0  0  0  0
    5.5362    0.8584    0.0000 C   0  0  0  0  0  0  0  0  0
    6.2507    1.2709    0.0000 C   0  0  0  0  0  0  0  0  0
    6.9651    0.8584    0.0000 C   0  0  0  0  0  0  0  0  0
    7.6796    1.2709    0.0000 C   0  0  0  0  0  0  0  0  0
    8.4642    1.5258    0.0000 C   0  0  0  0  0  0  0  0  0
    8.4642    2.3508    0.0000 C   0  0  0  0  0  0  0  0  0
    7.6796    2.6058    0.0000 N   0  0  0  0  0  0  0  0  0
    7.1947    1.9383    0.0000 C   0  0  0  0  0  0  0  0  0
    6.3697    1.9383    0.0000 O   0  0  0  0  0  0  0  0  0
    9.1787    2.7633    0.0000 C   0  0  0  0  0  0  0  0  0
    9.8932    2.3508    0.0000 C   0  0  0  0  0  0  0  0  0
    9.8932    1.5258    0.0000 C   0  0  0  0  0  0  0  0  0
    9.1787    1.1133    0.0000 C   0  0  0  0  0  0  0  0  0
    8.0152    0.5172    0.0000 C   0  0  0  0  0  0  0  0  0
    8.8356    0.4310    0.0000 C   0  0  0  0  0  0  0  0  0
    1.9638   -1.2041    0.0000 C   0  0  0  0  0  0  0  0  0
    1.2494   -1.6166    0.0000 C   0  0  0  0  0  0  0  0  0
    0.5349   -1.2041    0.0000 C   0  0  0  0  0  0  0  0  0
   -0.1796   -1.6166    0.0000 F   0  0  0  0  0  0  0  0  0
  1  2  1  0  0  0  0
  2  3  4  0  0  0  0
  2 29  4  0  0  0  0
  3  4  4  0  0  0  0
  4  5  1  0  0  0  0
  4 27  4  0  0  0  0
  5  6  1  0  0  0  0
  5 10  1  0  0  0  0
  6  7  1  0  0  0  0
  7  8  1  0  0  0  0
  8  9  1  0  0  0  0
  8 11  1  0  0  0  0
  9 10  1  0  0  0  0
 11 12  1  0  0  0  0
 12 13  1  0  0  0  0
 13 14  1  0  0  0  0
 14 15  1  0  0  0  0
 15 16  1  0  0  0  0
 15 19  1  0  0  0  0
 15 25  1  0  0  0  0
 16 17  4  0  0  0  0
 16 24  4  0  0  0  0
 17 18  1  0  0  0  0
 17 21  4  0  0  0  0
 18 19  1  0  0  0  0
 19 20  2  0  0  0  0
 21 22  4  0  0  0  0
 22 23  4  0  0  0  0
 23 24  4  0  0  0  0
 25 26  1  0  0  0  0
 27 28  4  0  0  0  0
 28 29  4  0  0  0  0
 29 30  1  0  0  0  0
M  END
>  <Name_Molregno>
429851

>  <5-HT7>
9.22

$$$$
429852
  Marvin  02231216192D 0   1.00000     0.00000     0

 30 33  0  0  1  0  0  0  0  0999 V2000
   -0.1796    0.0334    0.0000 Cl  0  0  0  0  0  0  0  0  0
    0.5349   -0.3791    0.0000 C   0  0  0  0  0  0  0  0  0
    1.2494    0.0334    0.0000 C   0  0  0  0  0  0  0  0  0
    1.9638   -0.3791    0.0000 C   0  0  0  0  0  0  0  0  0
    2.6783    0.0334    0.0000 N   0  0  0  0  0  0  0  0  0
    2.6783    0.8584    0.0000 C   0  0  0  0  0  0  0  0  0
    3.3928    1.2709    0.0000 C   0  0  0  0  0  0  0  0  0
    4.1073    0.8584    0.0000 N   0  0  0  0  0  0  0  0  0
    4.1073    0.0334    0.0000 C   0  0  0  0  0  0  0  0  0
    3.3928   -0.3791    0.0000 C   0  0  0  0  0  0  0  0  0
    4.8217    1.2709    0.0000 C   0  0  0  0  0  0  0  0  0
    5.5362    0.8584    0.0000 C   0  0  0  0  0  0  0  0  0
    6.2507    1.2709    0.0000 C   0  0  0  0  0  0  0  0  0
    6.9651    0.8584    0.0000 C   0  0  0  0  0  0  0  0  0
    7.6796    1.2709    0.0000 C   0  0  0  0  0  0  0  0  0
    8.4642    1.5258    0.0000 C   0  0  0  0  0  0  0  0  0
    8.4642    2.3508    0.0000 C   0  0  0  0  0  0  0  0  0
    7.6796    2.6058    0.0000 N   0  0  0  0  0  0  0  0  0
    7.1947    1.9383    0.0000 C   0  0  0  0  0  0  0  0  0
    6.3697    1.9383    0.0000 O   0  0  0  0  0  0  0  0  0
    9.1787    2.7633    0.0000 C   0  0  0  0  0  0  0  0  0
    9.8932    2.3508    0.0000 C   0  0  0  0  0  0  0  0  0
    9.8932    1.5258    0.0000 C   0  0  0  0  0  0  0  0  0
    9.1787    1.1133    0.0000 C   0  0  0  0  0  0  0  0  0
    8.0152    0.5172    0.0000 C   0  0  0  0  0  0  0  0  0
    8.8356    0.4310    0.0000 C   0  0  0  0  0  0  0  0  0
    1.9638   -1.2041    0.0000 C   0  0  0  0  0  0  0  0  0
    1.2494   -1.6166    0.0000 C   0  0  0  0  0  0  0  0  0
    0.5349   -1.2041    0.0000 C   0  0  0  0  0  0  0  0  0
   -0.1796   -1.6166    0.0000 C   0  0  0  0  0  0  0  0  0
  1  2  1  0  0  0  0
  2  3  4  0  0  0  0
  2 29  4  0  0  0  0
  3  4  4  0  0  0  0
  4  5  1  0  0  0  0
  4 27  4  0  0  0  0
  5  6  1  0  0  0  0
  5 10  1  0  0  0  0
  6  7  1  0  0  0  0
  7  8  1  0  0  0  0
  8  9  1  0  0  0  0
  8 11  1  0  0  0  0
  9 10  1  0  0  0  0
 11 12  1  0  0  0  0
 12 13  1  0  0  0  0
 13 14  1  0  0  0  0
 14 15  1  0  0  0  0
 15 16  1  0  0  0  0
 15 19  1  0  0  0  0
 15 25  1  0  0  0  0
 16 17  4  0  0  0  0
 16 24  4  0  0  0  0
 17 18  1  0  0  0  0
 17 21  4  0  0  0  0
 18 19  1  0  0  0  0
 19 20  2  0  0  0  0
 21 22  4  0  0  0  0
 22 23  4  0  0  0  0
 23 24  4  0  0  0  0
 25 26  1  0  0  0  0
 27 28  4  0  0  0  0
 28 29  4  0  0  0  0
 29 30  1  0  0  0  0
M  END
>  <Name_Molregno>
429852

>  <5-HT7>
9.18

$$$$
429853
  Marvin  02231216192D 0   1.00000     0.00000     0

 30 33  0  0  1  0  0  0  0  0999 V2000
   -0.1796    0.0334    0.0000 Cl  0  0  0  0  0  0  0  0  0
    0.5349   -0.3791    0.0000 C   0  0  0  0  0  0  0  0  0
    1.2494    0.0334    0.0000 C   0  0  0  0  0  0  0  0  0
    1.9638   -0.3791    0.0000 C   0  0  0  0  0  0  0  0  0
    2.6783    0.0334    0.0000 N   0  0  0  0  0  0  0  0  0
    2.6783    0.8584    0.0000 C   0  0  0  0  0  0  0  0  0
    3.3928    1.2709    0.0000 C   0  0  0  0  0  0  0  0  0
    4.1073    0.8584    0.0000 N   0  0  0  0  0  0  0  0  0
    4.1073    0.0334    0.0000 C   0  0  0  0  0  0  0  0  0
    3.3928   -0.3791    0.0000 C   0  0  0  0  0  0  0  0  0
    4.8217    1.2709    0.0000 C   0  0  0  0  0  0  0  0  0
    5.5362    0.8584    0.0000 C   0  0  0  0  0  0  0  0  0
    6.2507    1.2709    0.0000 C   0  0  0  0  0  0  0  0  0
    6.9651    0.8584    0.0000 C   0  0  0  0  0  0  0  0  0
    7.6796    1.2709    0.0000 C   0  0  0  0  0  0  0  0  0
    8.4642    1.5258    0.0000 C   0  0  0  0  0  0  0  0  0
    8.4642    2.3508    0.0000 C   0  0  0  0  0  0  0  0  0
    7.6796    2.6058    0.0000 N   0  0  0  0  0  0  0  0  0
    7.1947    1.9383    0.0000 C   0  0  0  0  0  0  0  0  0
    6.3697    1.9383    0.0000 O   0  0  0  0  0  0  0  0  0
    9.1787    2.7633    0.0000 C   0  0  0  0  0  0  0  0  0
    9.8932    2.3508    0.0000 C   0  0  0  0  0  0  0  0  0
    9.8932    1.5258    0.0000 C   0  0  0  0  0  0  0  0  0
    9.1787    1.1133    0.0000 C   0  0  0  0  0  0  0  0  0
    8.0152    0.5172    0.0000 C   0  0  0  0  0  0  0  0  0
    8.8356    0.4310    0.0000 C   0  0  0  0  0  0  0  0  0
    1.9638   -1.2041    0.0000 C   0  0  0  0  0  0  0  0  0
    1.2494   -1.6166    0.0000 C   0  0  0  0  0  0  0  0  0
    0.5349   -1.2041    0.0000 C   0  0  0  0  0  0  0  0  0
   -0.1796   -1.6166    0.0000 Cl  0  0  0  0  0  0  0  0  0
  1  2  1  0  0  0  0
  2  3  4  0  0  0  0
  2 29  4  0  0  0  0
  3  4  4  0  0  0  0
  4  5  1  0  0  0  0
  4 27  4  0  0  0  0
  5  6  1  0  0  0  0
  5 10  1  0  0  0  0
  6  7  1  0  0  0  0
  7  8  1  0  0  0  0
  8  9  1  0  0  0  0
  8 11  1  0  0  0  0
  9 10  1  0  0  0  0
 11 12  1  0  0  0  0
 12 13  1  0  0  0  0
 13 14  1  0  0  0  0
 14 15  1  0  0  0  0
 15 16  1  0  0  0  0
 15 19  1  0  0  0  0
 15 25  1  0  0  0  0
 16 17  4  0  0  0  0
 16 24  4  0  0  0  0
 17 18  1  0  0  0  0
 17 21  4  0  0  0  0
 18 19  1  0  0  0  0
 19 20  2  0  0  0  0
 21 22  4  0  0  0  0
 22 23  4  0  0  0  0
 23 24  4  0  0  0  0
 25 26  1  0  0  0  0
 27 28  4  0  0  0  0
 28 29  4  0  0  0  0
 29 30  1  0  0  0  0
M  END
>  <Name_Molregno>
429853

>  <5-HT7>
9.2

$$$$
429893
  Marvin  02231216192D 0   1.00000     0.00000     0

 31 34  0  0  1  0  0  0  0  0999 V2000
    4.5875    3.1958    0.0000 Cl  0  0  0  0  0  0  0  0  0
    4.5875    2.3708    0.0000 C   0  0  0  0  0  0  0  0  0
    5.3020    1.9583    0.0000 C   0  0  0  0  0  0  0  0  0
    5.3020    1.1333    0.0000 C   0  0  0  0  0  0  0  0  0
    6.0165    0.7208    0.0000 Cl  0  0  0  0  0  0  0  0  0
    4.5875    0.7208    0.0000 C   0  0  0  0  0  0  0  0  0
    3.8731    1.1333    0.0000 C   0  0  0  0  0  0  0  0  0
    3.8731    1.9583    0.0000 C   0  0  0  0  0  0  0  0  0
    3.0884    2.2133    0.0000 N   0  0  0  0  0  0  0  0  0
    2.6035    1.5458    0.0000 C   0  0  0  0  0  0  0  0  0
    1.7785    1.5458    0.0000 O   0  0  0  0  0  0  0  0  0
    3.0884    0.8784    0.0000 C   0  0  0  0  0  0  0  0  0
    3.2515    0.0697    0.0000 C   0  0  0  0  0  0  0  0  0
    4.0334   -0.1935    0.0000 C   0  0  0  0  0  0  0  0  0
    4.1965   -1.0022    0.0000 C   0  0  0  0  0  0  0  0  0
    4.9784   -1.2653    0.0000 C   0  0  0  0  0  0  0  0  0
    5.1415   -2.0740    0.0000 N   0  0  0  0  0  0  0  0  0
    5.9234   -2.3372    0.0000 C   0  0  0  0  0  0  0  0  0
    6.0864   -3.1459    0.0000 C   0  0  0  0  0  0  0  0  0
    5.4676   -3.6915    0.0000 N   0  0  0  0  0  0  0  0  0
    4.6857   -3.4284    0.0000 C   0  0  0  0  0  0  0  0  0
    4.5226   -2.6196    0.0000 C   0  0  0  0  0  0  0  0  0
    5.6307   -4.5002    0.0000 C   0  0  0  0  0  0  0  0  0
    6.4126   -4.7634    0.0000 C   0  0  0  0  0  0  0  0  0
    6.5756   -5.5721    0.0000 C   0  0  0  0  0  0  0  0  0
    5.9568   -6.1177    0.0000 C   0  0  0  0  0  0  0  0  0
    6.1199   -6.9264    0.0000 Cl  0  0  0  0  0  0  0  0  0
    5.1749   -5.8545    0.0000 C   0  0  0  0  0  0  0  0  0
    5.0118   -5.0458    0.0000 C   0  0  0  0  0  0  0  0  0
    2.4812    0.3200    0.0000 C   0  0  0  0  0  0  0  0  0
    1.6939    0.5667    0.0000 C   0  0  0  0  0  0  0  0  0
  1  2  1  0  0  0  0
  2  3  4  0  0  0  0
  2  8  4  0  0  0  0
  3  4  4  0  0  0  0
  4  5  1  0  0  0  0
  4  6  4  0  0  0  0
  6  7  4  0  0  0  0
  7  8  4  0  0  0  0
  7 12  1  0  0  0  0
  8  9  1  0  0  0  0
  9 10  1  0  0  0  0
 10 11  2  0  0  0  0
 10 12  1  0  0  0  0
 12 13  1  0  0  0  0
 12 30  1  0  0  0  0
 13 14  1  0  0  0  0
 14 15  1  0  0  0  0
 15 16  1  0  0  0  0
 16 17  1  0  0  0  0
 17 18  1  0  0  0  0
 17 22  1  0  0  0  0
 18 19  1  0  0  0  0
 19 20  1  0  0  0  0
 20 21  1  0  0  0  0
 20 23  1  0  0  0  0
 21 22  1  0  0  0  0
 23 24  4  0  0  0  0
 23 29  4  0  0  0  0
 24 25  4  0  0  0  0
 25 26  4  0  0  0  0
 26 27  1  0  0  0  0
 26 28  4  0  0  0  0
 28 29  4  0  0  0  0
 30 31  1  0  0  0  0
M  END
>  <Name_Molregno>
429893

>  <5-HT7>
7.99

$$$$
429896
  Marvin  02231216192D 0   1.00000     0.00000     0

 29 32  0  0  1  0  0  0  0  0999 V2000
    0.9607   -2.9269    0.0000 F   0  0  0  0  0  0  0  0  0
    1.6752   -2.5144    0.0000 C   0  0  0  0  0  0  0  0  0
    1.6752   -1.6894    0.0000 C   0  0  0  0  0  0  0  0  0
    2.3896   -1.2769    0.0000 C   0  0  0  0  0  0  0  0  0
    3.1041   -1.6894    0.0000 C   0  0  0  0  0  0  0  0  0
    3.8186   -1.2769    0.0000 N   0  0  0  0  0  0  0  0  0
    3.8186   -0.4519    0.0000 C   0  0  0  0  0  0  0  0  0
    4.5331   -0.0394    0.0000 C   0  0  0  0  0  0  0  0  0
    5.2475   -0.4519    0.0000 N   0  0  0  0  0  0  0  0  0
    5.2475   -1.2769    0.0000 C   0  0  0  0  0  0  0  0  0
    4.5331   -1.6894    0.0000 C   0  0  0  0  0  0  0  0  0
    5.9620   -0.0394    0.0000 C   0  0  0  0  0  0  0  0  0
    5.9620    0.7856    0.0000 C   0  0  0  0  0  0  0  0  0
    6.6765    1.1981    0.0000 C   0  0  0  0  0  0  0  0  0
    6.6765    2.0231    0.0000 C   0  0  0  0  0  0  0  0  0
    7.3909    2.4356    0.0000 C   0  0  0  0  0  0  0  0  0
    8.1756    2.6906    0.0000 C   0  0  0  0  0  0  0  0  0
    8.1756    3.5156    0.0000 C   0  0  0  0  0  0  0  0  0
    7.3909    3.7705    0.0000 N   0  0  0  0  0  0  0  0  0
    6.9060    3.1031    0.0000 C   0  0  0  0  0  0  0  0  0
    6.0810    3.1031    0.0000 O   0  0  0  0  0  0  0  0  0
    8.8900    3.9281    0.0000 C   0  0  0  0  0  0  0  0  0
    9.6045    3.5156    0.0000 C   0  0  0  0  0  0  0  0  0
    9.6045    2.6906    0.0000 C   0  0  0  0  0  0  0  0  0
    8.8900    2.2781    0.0000 C   0  0  0  0  0  0  0  0  0
    7.7265    1.6819    0.0000 C   0  0  0  0  0  0  0  0  0
    8.5470    1.5957    0.0000 C   0  0  0  0  0  0  0  0  0
    3.1041   -2.5144    0.0000 C   0  0  0  0  0  0  0  0  0
    2.3896   -2.9269    0.0000 C   0  0  0  0  0  0  0  0  0
  1  2  1  0  0  0  0
  2  3  4  0  0  0  0
  2 29  4  0  0  0  0
  3  4  4  0  0  0  0
  4  5  4  0  0  0  0
  5  6  1  0  0  0  0
  5 28  4  0  0  0  0
  6  7  1  0  0  0  0
  6 11  1  0  0  0  0
  7  8  1  0  0  0  0
  8  9  1  0  0  0  0
  9 10  1  0  0  0  0
  9 12  1  0  0  0  0
 10 11  1  0  0  0  0
 12 13  1  0  0  0  0
 13 14  1  0  0  0  0
 14 15  1  0  0  0  0
 15 16  1  0  0  0  0
 16 17  1  0  0  0  0
 16 20  1  0  0  0  0
 16 26  1  0  0  0  0
 17 18  4  0  0  0  0
 17 25  4  0  0  0  0
 18 19  1  0  0  0  0
 18 22  4  0  0  0  0
 19 20  1  0  0  0  0
 20 21  2  0  0  0  0
 22 23  4  0  0  0  0
 23 24  4  0  0  0  0
 24 25  4  0  0  0  0
 26 27  1  0  0  0  0
 28 29  4  0  0  0  0
M  END
>  <Name_Molregno>
429896

>  <5-HT7>
9.37

$$$$
429898
  Marvin  02231216192D 0   1.00000     0.00000     0

 30 33  0  0  1  0  0  0  0  0999 V2000
  -10.0706   -2.8483    0.0000 O   0  0  0  0  0  0  0  0  0
  -10.0706   -3.6733    0.0000 C   0  0  0  0  0  0  0  0  0
   -9.3562   -2.4358    0.0000 C   0  0  0  0  0  0  0  0  0
   -9.3562   -1.6108    0.0000 C   0  0  0  0  0  0  0  0  0
   -8.6417   -1.1983    0.0000 C   0  0  0  0  0  0  0  0  0
   -7.9272   -1.6108    0.0000 C   0  0  0  0  0  0  0  0  0
   -7.2128   -1.1983    0.0000 N   0  0  0  0  0  0  0  0  0
   -7.2128   -0.3733    0.0000 C   0  0  0  0  0  0  0  0  0
   -6.4983    0.0392    0.0000 C   0  0  0  0  0  0  0  0  0
   -5.7838   -0.3733    0.0000 N   0  0  0  0  0  0  0  0  0
   -5.7838   -1.1983    0.0000 C   0  0  0  0  0  0  0  0  0
   -6.4983   -1.6108    0.0000 C   0  0  0  0  0  0  0  0  0
   -5.0693    0.0392    0.0000 C   0  0  0  0  0  0  0  0  0
   -5.0693    0.8642    0.0000 C   0  0  0  0  0  0  0  0  0
   -4.3549    1.2767    0.0000 C   0  0  0  0  0  0  0  0  0
   -4.3549    2.1017    0.0000 C   0  0  0  0  0  0  0  0  0
   -3.6404    2.5142    0.0000 C   0  0  0  0  0  0  0  0  0
   -2.8558    2.7691    0.0000 C   0  0  0  0  0  0  0  0  0
   -2.8558    3.5941    0.0000 C   0  0  0  0  0  0  0  0  0
   -3.6404    3.8491    0.0000 N   0  0  0  0  0  0  0  0  0
   -4.1253    3.1816    0.0000 C   0  0  0  0  0  0  0  0  0
   -4.9503    3.1816    0.0000 O   0  0  0  0  0  0  0  0  0
   -2.1413    4.0066    0.0000 C   0  0  0  0  0  0  0  0  0
   -1.4268    3.5941    0.0000 C   0  0  0  0  0  0  0  0  0
   -1.4268    2.7691    0.0000 C   0  0  0  0  0  0  0  0  0
   -2.1413    2.3566    0.0000 C   0  0  0  0  0  0  0  0  0
   -3.3048    1.7605    0.0000 C   0  0  0  0  0  0  0  0  0
   -2.4844    1.6743    0.0000 C   0  0  0  0  0  0  0  0  0
   -7.9272   -2.4358    0.0000 C   0  0  0  0  0  0  0  0  0
   -8.6417   -2.8483    0.0000 C   0  0  0  0  0  0  0  0  0
  1  2  1  0  0  0  0
  1  3  1  0  0  0  0
  3  4  4  0  0  0  0
  3 30  4  0  0  0  0
  4  5  4  0  0  0  0
  5  6  4  0  0  0  0
  6  7  1  0  0  0  0
  6 29  4  0  0  0  0
  7  8  1  0  0  0  0
  7 12  1  0  0  0  0
  8  9  1  0  0  0  0
  9 10  1  0  0  0  0
 10 11  1  0  0  0  0
 10 13  1  0  0  0  0
 11 12  1  0  0  0  0
 13 14  1  0  0  0  0
 14 15  1  0  0  0  0
 15 16  1  0  0  0  0
 16 17  1  0  0  0  0
 17 18  1  0  0  0  0
 17 21  1  0  0  0  0
 17 27  1  0  0  0  0
 18 19  4  0  0  0  0
 18 26  4  0  0  0  0
 19 20  1  0  0  0  0
 19 23  4  0  0  0  0
 20 21  1  0  0  0  0
 21 22  2  0  0  0  0
 23 24  4  0  0  0  0
 24 25  4  0  0  0  0
 25 26  4  0  0  0  0
 27 28  1  0  0  0  0
 29 30  4  0  0  0  0
M  END
>  <Name_Molregno>
429898

>  <5-HT7>
7.6

$$$$
429899
  Marvin  02231216192D 0   1.00000     0.00000     0

 29 32  0  0  1  0  0  0  0  0999 V2000
   -5.8724   -3.5633    0.0000 Cl  0  0  0  0  0  0  0  0  0
   -6.5868   -3.1508    0.0000 C   0  0  0  0  0  0  0  0  0
   -7.3013   -3.5633    0.0000 C   0  0  0  0  0  0  0  0  0
   -8.0158   -3.1508    0.0000 C   0  0  0  0  0  0  0  0  0
   -8.0158   -2.3258    0.0000 C   0  0  0  0  0  0  0  0  0
   -7.3013   -1.9133    0.0000 C   0  0  0  0  0  0  0  0  0
   -6.5868   -2.3258    0.0000 C   0  0  0  0  0  0  0  0  0
   -5.8724   -1.9133    0.0000 N   0  0  0  0  0  0  0  0  0
   -5.8724   -1.0883    0.0000 C   0  0  0  0  0  0  0  0  0
   -5.1579   -0.6758    0.0000 C   0  0  0  0  0  0  0  0  0
   -4.4434   -1.0883    0.0000 N   0  0  0  0  0  0  0  0  0
   -4.4434   -1.9133    0.0000 C   0  0  0  0  0  0  0  0  0
   -5.1579   -2.3258    0.0000 C   0  0  0  0  0  0  0  0  0
   -3.7289   -0.6758    0.0000 C   0  0  0  0  0  0  0  0  0
   -3.7289    0.1492    0.0000 C   0  0  0  0  0  0  0  0  0
   -3.0145    0.5617    0.0000 C   0  0  0  0  0  0  0  0  0
   -3.0145    1.3867    0.0000 C   0  0  0  0  0  0  0  0  0
   -2.3000    1.7992    0.0000 C   0  0  0  0  0  0  0  0  0
   -1.5154    2.0541    0.0000 C   0  0  0  0  0  0  0  0  0
   -1.5154    2.8791    0.0000 C   0  0  0  0  0  0  0  0  0
   -2.3000    3.1341    0.0000 N   0  0  0  0  0  0  0  0  0
   -2.7849    2.4666    0.0000 C   0  0  0  0  0  0  0  0  0
   -3.6099    2.4666    0.0000 O   0  0  0  0  0  0  0  0  0
   -0.8009    3.2916    0.0000 C   0  0  0  0  0  0  0  0  0
   -0.0864    2.8791    0.0000 C   0  0  0  0  0  0  0  0  0
   -0.0864    2.0541    0.0000 C   0  0  0  0  0  0  0  0  0
   -0.8009    1.6416    0.0000 C   0  0  0  0  0  0  0  0  0
   -1.9644    1.0455    0.0000 C   0  0  0  0  0  0  0  0  0
   -1.1440    0.9593    0.0000 C   0  0  0  0  0  0  0  0  0
  1  2  1  0  0  0  0
  2  3  4  0  0  0  0
  2  7  4  0  0  0  0
  3  4  4  0  0  0  0
  4  5  4  0  0  0  0
  5  6  4  0  0  0  0
  6  7  4  0  0  0  0
  7  8  1  0  0  0  0
  8  9  1  0  0  0  0
  8 13  1  0  0  0  0
  9 10  1  0  0  0  0
 10 11  1  0  0  0  0
 11 12  1  0  0  0  0
 11 14  1  0  0  0  0
 12 13  1  0  0  0  0
 14 15  1  0  0  0  0
 15 16  1  0  0  0  0
 16 17  1  0  0  0  0
 17 18  1  0  0  0  0
 18 19  1  0  0  0  0
 18 22  1  0  0  0  0
 18 28  1  0  0  0  0
 19 20  4  0  0  0  0
 19 27  4  0  0  0  0
 20 21  1  0  0  0  0
 20 24  4  0  0  0  0
 21 22  1  0  0  0  0
 22 23  2  0  0  0  0
 24 25  4  0  0  0  0
 25 26  4  0  0  0  0
 26 27  4  0  0  0  0
 28 29  1  0  0  0  0
M  END
>  <Name_Molregno>
429899

>  <5-HT7>
8.29

$$$$
429936
  Marvin  02231216192D 0   1.00000     0.00000     0

 31 34  0  0  1  0  0  0  0  0999 V2000
    0.5378   -0.3181    0.0000 Cl  0  0  0  0  0  0  0  0  0
   -0.1767    0.0944    0.0000 C   0  0  0  0  0  0  0  0  0
   -0.8912   -0.3181    0.0000 C   0  0  0  0  0  0  0  0  0
   -1.6056    0.0944    0.0000 C   0  0  0  0  0  0  0  0  0
   -1.6056    0.9194    0.0000 C   0  0  0  0  0  0  0  0  0
   -2.3902    1.1743    0.0000 N   0  0  0  0  0  0  0  0  0
   -2.8752    0.5069    0.0000 C   0  0  0  0  0  0  0  0  0
   -3.7002    0.5069    0.0000 O   0  0  0  0  0  0  0  0  0
   -2.3902   -0.1606    0.0000 C   0  0  0  0  0  0  0  0  0
   -2.2272   -0.9693    0.0000 C   0  0  0  0  0  0  0  0  0
   -2.8460   -1.5149    0.0000 C   0  0  0  0  0  0  0  0  0
   -2.6830   -2.3236    0.0000 C   0  0  0  0  0  0  0  0  0
   -3.3018   -2.8692    0.0000 C   0  0  0  0  0  0  0  0  0
   -3.1387   -3.6779    0.0000 N   0  0  0  0  0  0  0  0  0
   -2.3568   -3.9410    0.0000 C   0  0  0  0  0  0  0  0  0
   -2.1938   -4.7498    0.0000 C   0  0  0  0  0  0  0  0  0
   -2.8126   -5.2953    0.0000 N   0  0  0  0  0  0  0  0  0
   -3.5945   -5.0322    0.0000 C   0  0  0  0  0  0  0  0  0
   -3.7576   -4.2235    0.0000 C   0  0  0  0  0  0  0  0  0
   -2.6495   -6.1041    0.0000 C   0  0  0  0  0  0  0  0  0
   -1.8676   -6.3672    0.0000 C   0  0  0  0  0  0  0  0  0
   -1.7046   -7.1759    0.0000 C   0  0  0  0  0  0  0  0  0
   -2.3234   -7.7215    0.0000 C   0  0  0  0  0  0  0  0  0
   -2.1603   -8.5302    0.0000 Cl  0  0  0  0  0  0  0  0  0
   -3.1053   -7.4584    0.0000 C   0  0  0  0  0  0  0  0  0
   -3.2684   -6.6496    0.0000 C   0  0  0  0  0  0  0  0  0
   -2.9975   -0.7190    0.0000 C   0  0  0  0  0  0  0  0  0
   -3.7848   -0.4723    0.0000 C   0  0  0  0  0  0  0  0  0
   -0.8912    1.3319    0.0000 C   0  0  0  0  0  0  0  0  0
   -0.1767    0.9194    0.0000 C   0  0  0  0  0  0  0  0  0
    0.5378    1.3319    0.0000 F   0  0  0  0  0  0  0  0  0
  1  2  1  0  0  0  0
  2  3  4  0  0  0  0
  2 30  4  0  0  0  0
  3  4  4  0  0  0  0
  4  5  4  0  0  0  0
  4  9  1  0  0  0  0
  5  6  1  0  0  0  0
  5 29  4  0  0  0  0
  6  7  1  0  0  0  0
  7  8  2  0  0  0  0
  7  9  1  0  0  0  0
  9 10  1  0  0  0  0
  9 27  1  0  0  0  0
 10 11  1  0  0  0  0
 11 12  1  0  0  0  0
 12 13  1  0  0  0  0
 13 14  1  0  0  0  0
 14 15  1  0  0  0  0
 14 19  1  0  0  0  0
 15 16  1  0  0  0  0
 16 17  1  0  0  0  0
 17 18  1  0  0  0  0
 17 20  1  0  0  0  0
 18 19  1  0  0  0  0
 20 21  4  0  0  0  0
 20 26  4  0  0  0  0
 21 22  4  0  0  0  0
 22 23  4  0  0  0  0
 23 24  1  0  0  0  0
 23 25  4  0  0  0  0
 25 26  4  0  0  0  0
 27 28  1  0  0  0  0
 29 30  4  0  0  0  0
 30 31  1  0  0  0  0
M  END
>  <Name_Molregno>
429936

>  <5-HT7>
8.16

$$$$
429937
  Marvin  02231216192D 0   1.00000     0.00000     0

 31 34  0  0  1  0  0  0  0  0999 V2000
    4.5875    3.1958    0.0000 Cl  0  0  0  0  0  0  0  0  0
    4.5875    2.3708    0.0000 C   0  0  0  0  0  0  0  0  0
    5.3020    1.9583    0.0000 C   0  0  0  0  0  0  0  0  0
    5.3020    1.1333    0.0000 C   0  0  0  0  0  0  0  0  0
    6.0165    0.7208    0.0000 F   0  0  0  0  0  0  0  0  0
    4.5875    0.7208    0.0000 C   0  0  0  0  0  0  0  0  0
    3.8731    1.1333    0.0000 C   0  0  0  0  0  0  0  0  0
    3.8731    1.9583    0.0000 C   0  0  0  0  0  0  0  0  0
    3.0884    2.2133    0.0000 N   0  0  0  0  0  0  0  0  0
    2.6035    1.5458    0.0000 C   0  0  0  0  0  0  0  0  0
    1.7785    1.5458    0.0000 O   0  0  0  0  0  0  0  0  0
    3.0884    0.8784    0.0000 C   0  0  0  0  0  0  0  0  0
    3.2515    0.0697    0.0000 C   0  0  0  0  0  0  0  0  0
    4.0334   -0.1935    0.0000 C   0  0  0  0  0  0  0  0  0
    4.1965   -1.0022    0.0000 C   0  0  0  0  0  0  0  0  0
    4.9784   -1.2653    0.0000 C   0  0  0  0  0  0  0  0  0
    5.1415   -2.0740    0.0000 N   0  0  0  0  0  0  0  0  0
    5.9234   -2.3372    0.0000 C   0  0  0  0  0  0  0  0  0
    6.0864   -3.1459    0.0000 C   0  0  0  0  0  0  0  0  0
    5.4676   -3.6915    0.0000 N   0  0  0  0  0  0  0  0  0
    4.6857   -3.4284    0.0000 C   0  0  0  0  0  0  0  0  0
    4.5226   -2.6196    0.0000 C   0  0  0  0  0  0  0  0  0
    5.6307   -4.5002    0.0000 C   0  0  0  0  0  0  0  0  0
    6.4126   -4.7634    0.0000 C   0  0  0  0  0  0  0  0  0
    6.5756   -5.5721    0.0000 C   0  0  0  0  0  0  0  0  0
    5.9568   -6.1177    0.0000 C   0  0  0  0  0  0  0  0  0
    6.1199   -6.9264    0.0000 Cl  0  0  0  0  0  0  0  0  0
    5.1749   -5.8545    0.0000 C   0  0  0  0  0  0  0  0  0
    5.0118   -5.0458    0.0000 C   0  0  0  0  0  0  0  0  0
    2.4812    0.3200    0.0000 C   0  0  0  0  0  0  0  0  0
    1.6939    0.5667    0.0000 C   0  0  0  0  0  0  0  0  0
  1  2  1  0  0  0  0
  2  3  4  0  0  0  0
  2  8  4  0  0  0  0
  3  4  4  0  0  0  0
  4  5  1  0  0  0  0
  4  6  4  0  0  0  0
  6  7  4  0  0  0  0
  7  8  4  0  0  0  0
  7 12  1  0  0  0  0
  8  9  1  0  0  0  0
  9 10  1  0  0  0  0
 10 11  2  0  0  0  0
 10 12  1  0  0  0  0
 12 13  1  0  0  0  0
 12 30  1  0  0  0  0
 13 14  1  0  0  0  0
 14 15  1  0  0  0  0
 15 16  1  0  0  0  0
 16 17  1  0  0  0  0
 17 18  1  0  0  0  0
 17 22  1  0  0  0  0
 18 19  1  0  0  0  0
 19 20  1  0  0  0  0
 20 21  1  0  0  0  0
 20 23  1  0  0  0  0
 21 22  1  0  0  0  0
 23 24  4  0  0  0  0
 23 29  4  0  0  0  0
 24 25  4  0  0  0  0
 25 26  4  0  0  0  0
 26 27  1  0  0  0  0
 26 28  4  0  0  0  0
 28 29  4  0  0  0  0
 30 31  1  0  0  0  0
M  END
>  <Name_Molregno>
429937

>  <5-HT7>
8.22

$$$$
429938
  Marvin  02231216192D 0   1.00000     0.00000     0

 30 33  0  0  1  0  0  0  0  0999 V2000
   -9.2756   -1.1372    0.0000 O   0  0  0  0  0  0  0  0  0
   -9.9901   -1.5497    0.0000 C   0  0  0  0  0  0  0  0  0
   -8.5612   -1.5497    0.0000 C   0  0  0  0  0  0  0  0  0
   -7.8467   -1.1372    0.0000 C   0  0  0  0  0  0  0  0  0
   -7.1322   -1.5497    0.0000 C   0  0  0  0  0  0  0  0  0
   -6.4178   -1.1372    0.0000 N   0  0  0  0  0  0  0  0  0
   -6.4178   -0.3122    0.0000 C   0  0  0  0  0  0  0  0  0
   -5.7033    0.1003    0.0000 C   0  0  0  0  0  0  0  0  0
   -4.9888   -0.3122    0.0000 N   0  0  0  0  0  0  0  0  0
   -4.9888   -1.1372    0.0000 C   0  0  0  0  0  0  0  0  0
   -5.7033   -1.5497    0.0000 C   0  0  0  0  0  0  0  0  0
   -4.2744    0.1003    0.0000 C   0  0  0  0  0  0  0  0  0
   -4.2744    0.9253    0.0000 C   0  0  0  0  0  0  0  0  0
   -3.5599    1.3378    0.0000 C   0  0  0  0  0  0  0  0  0
   -3.5599    2.1628    0.0000 C   0  0  0  0  0  0  0  0  0
   -2.8454    2.5753    0.0000 C   0  0  0  0  0  0  0  0  0
   -2.0608    2.8303    0.0000 C   0  0  0  0  0  0  0  0  0
   -2.0608    3.6553    0.0000 C   0  0  0  0  0  0  0  0  0
   -2.8454    3.9102    0.0000 N   0  0  0  0  0  0  0  0  0
   -3.3303    3.2428    0.0000 C   0  0  0  0  0  0  0  0  0
   -4.1553    3.2428    0.0000 O   0  0  0  0  0  0  0  0  0
   -1.3463    4.0678    0.0000 C   0  0  0  0  0  0  0  0  0
   -0.6318    3.6553    0.0000 C   0  0  0  0  0  0  0  0  0
   -0.6318    2.8303    0.0000 C   0  0  0  0  0  0  0  0  0
   -1.3463    2.4178    0.0000 C   0  0  0  0  0  0  0  0  0
   -2.5099    1.8217    0.0000 C   0  0  0  0  0  0  0  0  0
   -1.6894    1.7354    0.0000 C   0  0  0  0  0  0  0  0  0
   -7.1322   -2.3747    0.0000 C   0  0  0  0  0  0  0  0  0
   -7.8467   -2.7872    0.0000 C   0  0  0  0  0  0  0  0  0
   -8.5612   -2.3747    0.0000 C   0  0  0  0  0  0  0  0  0
  1  2  1  0  0  0  0
  1  3  1  0  0  0  0
  3  4  4  0  0  0  0
  3 30  4  0  0  0  0
  4  5  4  0  0  0  0
  5  6  1  0  0  0  0
  5 28  4  0  0  0  0
  6  7  1  0  0  0  0
  6 11  1  0  0  0  0
  7  8  1  0  0  0  0
  8  9  1  0  0  0  0
  9 10  1  0  0  0  0
  9 12  1  0  0  0  0
 10 11  1  0  0  0  0
 12 13  1  0  0  0  0
 13 14  1  0  0  0  0
 14 15  1  0  0  0  0
 15 16  1  0  0  0  0
 16 17  1  0  0  0  0
 16 20  1  0  0  0  0
 16 26  1  0  0  0  0
 17 18  4  0  0  0  0
 17 25  4  0  0  0  0
 18 19  1  0  0  0  0
 18 22  4  0  0  0  0
 19 20  1  0  0  0  0
 20 21  2  0  0  0  0
 22 23  4  0  0  0  0
 23 24  4  0  0  0  0
 24 25  4  0  0  0  0
 26 27  1  0  0  0  0
 28 29  4  0  0  0  0
 29 30  4  0  0  0  0
M  END
>  <Name_Molregno>
429938

>  <5-HT7>
8.59

$$$$
429939
  Marvin  02231216192D 0   1.00000     0.00000     0

 30 33  0  0  1  0  0  0  0  0999 V2000
    0.9906   -4.2353    0.0000 Cl  0  0  0  0  0  0  0  0  0
    1.7051   -3.8228    0.0000 C   0  0  0  0  0  0  0  0  0
    1.7051   -2.9978    0.0000 C   0  0  0  0  0  0  0  0  0
    2.4196   -2.5853    0.0000 C   0  0  0  0  0  0  0  0  0
    3.1341   -2.9978    0.0000 C   0  0  0  0  0  0  0  0  0
    3.8485   -2.5853    0.0000 N   0  0  0  0  0  0  0  0  0
    3.8485   -1.7603    0.0000 C   0  0  0  0  0  0  0  0  0
    4.5630   -1.3478    0.0000 C   0  0  0  0  0  0  0  0  0
    5.2775   -1.7603    0.0000 N   0  0  0  0  0  0  0  0  0
    5.2775   -2.5853    0.0000 C   0  0  0  0  0  0  0  0  0
    4.5630   -2.9978    0.0000 C   0  0  0  0  0  0  0  0  0
    5.9919   -1.3478    0.0000 C   0  0  0  0  0  0  0  0  0
    5.9919   -0.5228    0.0000 C   0  0  0  0  0  0  0  0  0
    6.7064   -0.1103    0.0000 C   0  0  0  0  0  0  0  0  0
    6.7064    0.7147    0.0000 C   0  0  0  0  0  0  0  0  0
    7.4209    1.1272    0.0000 C   0  0  0  0  0  0  0  0  0
    8.2055    1.3821    0.0000 C   0  0  0  0  0  0  0  0  0
    8.2055    2.2071    0.0000 C   0  0  0  0  0  0  0  0  0
    7.4209    2.4621    0.0000 N   0  0  0  0  0  0  0  0  0
    6.9360    1.7946    0.0000 C   0  0  0  0  0  0  0  0  0
    6.1110    1.7946    0.0000 O   0  0  0  0  0  0  0  0  0
    8.9200    2.6196    0.0000 C   0  0  0  0  0  0  0  0  0
    9.6344    2.2071    0.0000 C   0  0  0  0  0  0  0  0  0
   10.3489    2.6196    0.0000 F   0  0  0  0  0  0  0  0  0
    9.6344    1.3821    0.0000 C   0  0  0  0  0  0  0  0  0
    8.9200    0.9696    0.0000 C   0  0  0  0  0  0  0  0  0
    7.7564    0.3735    0.0000 C   0  0  0  0  0  0  0  0  0
    8.5769    0.2873    0.0000 C   0  0  0  0  0  0  0  0  0
    3.1341   -3.8228    0.0000 C   0  0  0  0  0  0  0  0  0
    2.4196   -4.2353    0.0000 C   0  0  0  0  0  0  0  0  0
  1  2  1  0  0  0  0
  2  3  4  0  0  0  0
  2 30  4  0  0  0  0
  3  4  4  0  0  0  0
  4  5  4  0  0  0  0
  5  6  1  0  0  0  0
  5 29  4  0  0  0  0
  6  7  1  0  0  0  0
  6 11  1  0  0  0  0
  7  8  1  0  0  0  0
  8  9  1  0  0  0  0
  9 10  1  0  0  0  0
  9 12  1  0  0  0  0
 10 11  1  0  0  0  0
 12 13  1  0  0  0  0
 13 14  1  0  0  0  0
 14 15  1  0  0  0  0
 15 16  1  0  0  0  0
 16 17  1  0  0  0  0
 16 20  1  0  0  0  0
 16 27  1  0  0  0  0
 17 18  4  0  0  0  0
 17 26  4  0  0  0  0
 18 19  1  0  0  0  0
 18 22  4  0  0  0  0
 19 20  1  0  0  0  0
 20 21  2  0  0  0  0
 22 23  4  0  0  0  0
 23 24  1  0  0  0  0
 23 25  4  0  0  0  0
 25 26  4  0  0  0  0
 27 28  1  0  0  0  0
 29 30  4  0  0  0  0
M  END
>  <Name_Molregno>
429939

>  <5-HT7>
9.1

$$$$
429940
  Marvin  02231216192D 0   1.00000     0.00000     0

 27 30  0  0  1  0  0  0  0  0999 V2000
    2.9711   -4.2950    0.0000 Cl  0  0  0  0  0  0  0  0  0
    3.2261   -3.5104    0.0000 C   0  0  0  0  0  0  0  0  0
    2.6741   -2.8973    0.0000 C   0  0  0  0  0  0  0  0  0
    2.9290   -2.1127    0.0000 C   0  0  0  0  0  0  0  0  0
    3.7360   -1.9412    0.0000 C   0  0  0  0  0  0  0  0  0
    3.9909   -1.1565    0.0000 N   0  0  0  0  0  0  0  0  0
    3.4389   -0.5434    0.0000 C   0  0  0  0  0  0  0  0  0
    3.6938    0.2412    0.0000 C   0  0  0  0  0  0  0  0  0
    4.5008    0.4127    0.0000 N   0  0  0  0  0  0  0  0  0
    5.0528   -0.2004    0.0000 C   0  0  0  0  0  0  0  0  0
    4.7979   -0.9850    0.0000 C   0  0  0  0  0  0  0  0  0
    4.7557    1.1973    0.0000 C   0  0  0  0  0  0  0  0  0
    5.5627    1.3689    0.0000 C   0  0  0  0  0  0  0  0  0
    5.8176    2.1535    0.0000 C   0  0  0  0  0  0  0  0  0
    6.6246    2.3250    0.0000 C   0  0  0  0  0  0  0  0  0
    6.8795    3.1096    0.0000 C   0  0  0  0  0  0  0  0  0
    7.6642    3.3646    0.0000 C   0  0  0  0  0  0  0  0  0
    7.6642    4.1896    0.0000 C   0  0  0  0  0  0  0  0  0
    6.8795    4.4445    0.0000 N   0  0  0  0  0  0  0  0  0
    6.3946    3.7771    0.0000 C   0  0  0  0  0  0  0  0  0
    5.5696    3.7771    0.0000 O   0  0  0  0  0  0  0  0  0
    8.3786    4.6021    0.0000 C   0  0  0  0  0  0  0  0  0
    9.0931    4.1896    0.0000 C   0  0  0  0  0  0  0  0  0
    9.0931    3.3646    0.0000 C   0  0  0  0  0  0  0  0  0
    8.3786    2.9521    0.0000 C   0  0  0  0  0  0  0  0  0
    4.2880   -2.5542    0.0000 C   0  0  0  0  0  0  0  0  0
    4.0331   -3.3389    0.0000 C   0  0  0  0  0  0  0  0  0
  1  2  1  0  0  0  0
  2  3  4  0  0  0  0
  2 27  4  0  0  0  0
  3  4  4  0  0  0  0
  4  5  4  0  0  0  0
  5  6  1  0  0  0  0
  5 26  4  0  0  0  0
  6  7  1  0  0  0  0
  6 11  1  0  0  0  0
  7  8  1  0  0  0  0
  8  9  1  0  0  0  0
  9 10  1  0  0  0  0
  9 12  1  0  0  0  0
 10 11  1  0  0  0  0
 12 13  1  0  0  0  0
 13 14  1  0  0  0  0
 14 15  1  0  0  0  0
 15 16  1  0  0  0  0
 16 17  1  0  0  0  0
 16 20  1  0  0  0  0
 17 18  4  0  0  0  0
 17 25  4  0  0  0  0
 18 19  1  0  0  0  0
 18 22  4  0  0  0  0
 19 20  1  0  0  0  0
 20 21  2  0  0  0  0
 22 23  4  0  0  0  0
 23 24  4  0  0  0  0
 24 25  4  0  0  0  0
 26 27  4  0  0  0  0
M  END
>  <Name_Molregno>
429940

>  <5-HT7>
9.42

$$$$
429941
  Marvin  02231216192D 0   1.00000     0.00000     0

 27 30  0  0  1  0  0  0  0  0999 V2000
   -0.3444   -0.8341    0.0000 F   0  0  0  0  0  0  0  0  0
   -1.0589   -0.4216    0.0000 C   0  0  0  0  0  0  0  0  0
   -1.7734   -0.8341    0.0000 C   0  0  0  0  0  0  0  0  0
   -2.4878   -0.4216    0.0000 C   0  0  0  0  0  0  0  0  0
   -2.4878    0.4034    0.0000 C   0  0  0  0  0  0  0  0  0
   -3.2725    0.6583    0.0000 N   0  0  0  0  0  0  0  0  0
   -3.7574   -0.0091    0.0000 C   0  0  0  0  0  0  0  0  0
   -4.5824   -0.0091    0.0000 O   0  0  0  0  0  0  0  0  0
   -3.2725   -0.6765    0.0000 C   0  0  0  0  0  0  0  0  0
   -3.5274   -1.4612    0.0000 C   0  0  0  0  0  0  0  0  0
   -2.9754   -2.0742    0.0000 C   0  0  0  0  0  0  0  0  0
   -3.2303   -2.8589    0.0000 C   0  0  0  0  0  0  0  0  0
   -2.6783   -3.4720    0.0000 C   0  0  0  0  0  0  0  0  0
   -2.9332   -4.2566    0.0000 N   0  0  0  0  0  0  0  0  0
   -2.3812   -4.8697    0.0000 C   0  0  0  0  0  0  0  0  0
   -2.6361   -5.6543    0.0000 C   0  0  0  0  0  0  0  0  0
   -3.4431   -5.8258    0.0000 N   0  0  0  0  0  0  0  0  0
   -3.9951   -5.2127    0.0000 C   0  0  0  0  0  0  0  0  0
   -3.7402   -4.4281    0.0000 C   0  0  0  0  0  0  0  0  0
   -3.6980   -6.6105    0.0000 C   0  0  0  0  0  0  0  0  0
   -3.1460   -7.2235    0.0000 C   0  0  0  0  0  0  0  0  0
   -3.4009   -8.0082    0.0000 C   0  0  0  0  0  0  0  0  0
   -4.2079   -8.1797    0.0000 C   0  0  0  0  0  0  0  0  0
   -4.7599   -7.5666    0.0000 C   0  0  0  0  0  0  0  0  0
   -4.5050   -6.7820    0.0000 C   0  0  0  0  0  0  0  0  0
   -1.7734    0.8159    0.0000 C   0  0  0  0  0  0  0  0  0
   -1.0589    0.4034    0.0000 C   0  0  0  0  0  0  0  0  0
  1  2  1  0  0  0  0
  2  3  4  0  0  0  0
  2 27  4  0  0  0  0
  3  4  4  0  0  0  0
  4  5  4  0  0  0  0
  4  9  1  0  0  0  0
  5  6  1  0  0  0  0
  5 26  4  0  0  0  0
  6  7  1  0  0  0  0
  7  8  2  0  0  0  0
  7  9  1  0  0  0  0
  9 10  1  0  0  0  0
 10 11  1  0  0  0  0
 11 12  1  0  0  0  0
 12 13  1  0  0  0  0
 13 14  1  0  0  0  0
 14 15  1  0  0  0  0
 14 19  1  0  0  0  0
 15 16  1  0  0  0  0
 16 17  1  0  0  0  0
 17 18  1  0  0  0  0
 17 20  1  0  0  0  0
 18 19  1  0  0  0  0
 20 21  4  0  0  0  0
 20 25  4  0  0  0  0
 21 22  4  0  0  0  0
 22 23  4  0  0  0  0
 23 24  4  0  0  0  0
 24 25  4  0  0  0  0
 26 27  4  0  0  0  0
M  END
>  <Name_Molregno>
429941

>  <5-HT7>
7.36

$$$$
429943
  Marvin  02231216192D 0   1.00000     0.00000     0

 27 30  0  0  1  0  0  0  0  0999 V2000
    1.5749   -4.4013    0.0000 Cl  0  0  0  0  0  0  0  0  0
    2.3819   -4.2298    0.0000 C   0  0  0  0  0  0  0  0  0
    2.6368   -3.4452    0.0000 C   0  0  0  0  0  0  0  0  0
    3.4438   -3.2737    0.0000 C   0  0  0  0  0  0  0  0  0
    3.6988   -2.4890    0.0000 N   0  0  0  0  0  0  0  0  0
    3.1467   -1.8760    0.0000 C   0  0  0  0  0  0  0  0  0
    3.4017   -1.0913    0.0000 C   0  0  0  0  0  0  0  0  0
    4.2086   -0.9198    0.0000 N   0  0  0  0  0  0  0  0  0
    4.7607   -1.5329    0.0000 C   0  0  0  0  0  0  0  0  0
    4.5057   -2.3175    0.0000 C   0  0  0  0  0  0  0  0  0
    4.4636   -0.1352    0.0000 C   0  0  0  0  0  0  0  0  0
    5.2705    0.0363    0.0000 C   0  0  0  0  0  0  0  0  0
    5.5255    0.8210    0.0000 C   0  0  0  0  0  0  0  0  0
    6.3325    0.9925    0.0000 C   0  0  0  0  0  0  0  0  0
    6.5874    1.7771    0.0000 C   0  0  0  0  0  0  0  0  0
    7.3720    2.0321    0.0000 C   0  0  0  0  0  0  0  0  0
    7.3720    2.8571    0.0000 C   0  0  0  0  0  0  0  0  0
    6.5874    3.1120    0.0000 N   0  0  0  0  0  0  0  0  0
    6.1025    2.4446    0.0000 C   0  0  0  0  0  0  0  0  0
    5.2775    2.4446    0.0000 O   0  0  0  0  0  0  0  0  0
    8.0865    3.2696    0.0000 C   0  0  0  0  0  0  0  0  0
    8.8010    2.8571    0.0000 C   0  0  0  0  0  0  0  0  0
    8.8010    2.0321    0.0000 C   0  0  0  0  0  0  0  0  0
    8.0865    1.6196    0.0000 C   0  0  0  0  0  0  0  0  0
    3.9958   -3.8868    0.0000 C   0  0  0  0  0  0  0  0  0
    3.7409   -4.6714    0.0000 C   0  0  0  0  0  0  0  0  0
    2.9339   -4.8429    0.0000 C   0  0  0  0  0  0  0  0  0
  1  2  1  0  0  0  0
  2  3  4  0  0  0  0
  2 27  4  0  0  0  0
  3  4  4  0  0  0  0
  4  5  1  0  0  0  0
  4 25  4  0  0  0  0
  5  6  1  0  0  0  0
  5 10  1  0  0  0  0
  6  7  1  0  0  0  0
  7  8  1  0  0  0  0
  8  9  1  0  0  0  0
  8 11  1  0  0  0  0
  9 10  1  0  0  0  0
 11 12  1  0  0  0  0
 12 13  1  0  0  0  0
 13 14  1  0  0  0  0
 14 15  1  0  0  0  0
 15 16  1  0  0  0  0
 15 19  1  0  0  0  0
 16 17  4  0  0  0  0
 16 24  4  0  0  0  0
 17 18  1  0  0  0  0
 17 21  4  0  0  0  0
 18 19  1  0  0  0  0
 19 20  2  0  0  0  0
 21 22  4  0  0  0  0
 22 23  4  0  0  0  0
 23 24  4  0  0  0  0
 25 26  4  0  0  0  0
 26 27  4  0  0  0  0
M  END
>  <Name_Molregno>
429943

>  <5-HT7>
9.31

$$$$
431635
  Marvin  02231216192D 0   1.00000     0.00000     0

 18 20  0  0  1  0  0  0  0  0999 V2000
   -0.1508    0.9322    0.0000 O   0  0  0  0  0  0  0  0  0
   -0.9578    1.1037    0.0000 C   0  0  0  0  0  0  0  0  0
   -1.3703    0.3892    0.0000 C   0  0  0  0  0  0  0  0  0
   -0.8183   -0.2239    0.0000 C   0  0  0  0  0  0  0  0  0
   -0.0646    0.1117    0.0000 C   0  0  0  0  0  0  0  0  0
    0.6499   -0.3008    0.0000 C   0  0  0  0  0  0  0  0  0
    1.3643    0.1117    0.0000 C   0  0  0  0  0  0  0  0  0
   -2.1953    0.3892    0.0000 C   0  0  0  0  0  0  0  0  0
   -2.7474   -0.2239    0.0000 N   0  0  0  0  0  0  0  0  0
   -3.5010    0.1117    0.0000 N   0  0  0  0  0  0  0  0  0
   -3.4148    0.9322    0.0000 C   0  0  0  0  0  0  0  0  0
   -2.6078    1.1037    0.0000 C   0  0  0  0  0  0  0  0  0
   -2.1953    1.8182    0.0000 C   0  0  0  0  0  0  0  0  0
   -1.3703    1.8182    0.0000 C   0  0  0  0  0  0  0  0  0
   -2.5758   -1.0308    0.0000 C   0  0  0  0  0  0  0  0  0
   -3.1889   -1.5829    0.0000 C   0  0  0  0  0  0  0  0  0
   -3.0174   -2.3898    0.0000 N   0  0  0  0  0  0  0  0  0
   -3.9735   -1.3279    0.0000 C   0  0  0  0  0  0  0  0  0
  1  2  4  0  0  0  0
  1  5  4  0  0  0  0
  2  3  4  0  0  0  0
  2 14  4  0  0  0  0
  3  4  4  0  0  0  0
  3  8  4  0  0  0  0
  4  5  4  0  0  0  0
  5  6  1  0  0  0  0
  6  7  1  0  0  0  0
  8  9  4  0  0  0  0
  8 12  4  0  0  0  0
  9 10  4  0  0  0  0
  9 15  1  0  0  0  0
 10 11  4  0  0  0  0
 11 12  4  0  0  0  0
 12 13  4  0  0  0  0
 13 14  4  0  0  0  0
 15 16  1  0  0  0  0
 16 17  1  0  0  0  0
 16 18  1  0  0  0  0
M  END
>  <Name_Molregno>
431635

>  <5-HT1A>
6.89

>  <5-HT2A>
7.89

>  <5-HT2C>
9.05

>  <5-HT7>
6.75

>  <Alpha-2A>
6.9

$$$$
437622
  Marvin  02231216192D 0   1.00000     0.00000     0

 29 31  0  0  1  0  0  0  0  0999 V2000
    4.6273    6.8992    0.0000 F   0  0  0  0  0  0  0  0  0
    4.6273    6.0742    0.0000 C   0  0  0  0  0  0  0  0  0
    5.3417    5.6617    0.0000 C   0  0  0  0  0  0  0  0  0
    5.3417    4.8367    0.0000 C   0  0  0  0  0  0  0  0  0
    4.6273    4.4242    0.0000 C   0  0  0  0  0  0  0  0  0
    3.9128    4.8367    0.0000 C   0  0  0  0  0  0  0  0  0
    3.9128    5.6617    0.0000 C   0  0  0  0  0  0  0  0  0
    4.6273    3.5992    0.0000 C   0  0  0  0  0  0  0  0  0
    5.3417    3.1867    0.0000 C   0  0  0  0  0  0  0  0  0
    5.3417    2.3617    0.0000 N   0  0  0  0  0  0  0  0  0
    6.0562    1.9492    0.0000 C   0  0  0  0  0  0  0  0  0
    6.0562    1.1242    0.0000 C   0  0  0  0  0  0  0  0  0
    5.3417    0.7117    0.0000 C   0  0  0  0  0  0  0  0  0
    4.6273    1.1242    0.0000 C   0  0  0  0  0  0  0  0  0
    4.6273    1.9492    0.0000 C   0  0  0  0  0  0  0  0  0
    5.3417   -0.1133    0.0000 C   0  0  0  0  0  0  0  0  0
    4.6273   -0.5258    0.0000 O   0  0  0  0  0  0  0  0  0
    6.0562   -0.5258    0.0000 C   0  0  0  0  0  0  0  0  0
    6.7707   -0.1133    0.0000 C   0  0  0  0  0  0  0  0  0
    7.4851   -0.5258    0.0000 C   0  0  0  0  0  0  0  0  0
    7.4851   -1.3508    0.0000 C   0  0  0  0  0  0  0  0  0
    6.7707   -1.7633    0.0000 C   0  0  0  0  0  0  0  0  0
    6.7707   -2.5883    0.0000 O   0  0  0  0  0  0  0  0  0
    7.4851   -3.0008    0.0000 C   0  0  0  0  0  0  0  0  0
    7.4851   -3.8258    0.0000 C   0  0  0  0  0  0  0  0  0
    8.1996   -4.2383    0.0000 F   0  0  0  0  0  0  0  0  0
    6.0562   -1.3508    0.0000 C   0  0  0  0  0  0  0  0  0
    5.3417   -1.7633    0.0000 O   0  0  0  0  0  0  0  0  0
    5.3417   -2.5883    0.0000 C   0  0  0  0  0  0  0  0  0
  1  2  1  0  0  0  0
  2  3  4  0  0  0  0
  2  7  4  0  0  0  0
  3  4  4  0  0  0  0
  4  5  4  0  0  0  0
  5  6  4  0  0  0  0
  5  8  1  0  0  0  0
  6  7  4  0  0  0  0
  8  9  1  0  0  0  0
  9 10  1  0  0  0  0
 10 11  1  0  0  0  0
 10 15  1  0  0  0  0
 11 12  1  0  0  0  0
 12 13  1  0  0  0  0
 13 14  1  0  0  0  0
 13 16  1  0  0  0  0
 14 15  1  0  0  0  0
 16 17  1  0  0  0  0
 16 18  1  0  0  0  0
 18 19  4  0  0  0  0
 18 27  4  0  0  0  0
 19 20  4  0  0  0  0
 20 21  4  0  0  0  0
 21 22  4  0  0  0  0
 22 23  1  0  0  0  0
 22 27  4  0  0  0  0
 23 24  1  0  0  0  0
 24 25  1  0  0  0  0
 25 26  1  0  0  0  0
 27 28  1  0  0  0  0
 28 29  1  0  0  0  0
M  END
>  <Name_Molregno>
437622

>  <5-HT1A>
5

>  <5-HT1B>
5.89

>  <5-HT1D>
6.06

>  <5-HT1E>
5

>  <5-HT2C>
7.22

>  <5-HT3>
5

>  <5-HT5>
5.09

>  <5-HT6>
5.41

>  <5-HT7>
7.09

>  <Alpha-1A>
6.47

>  <Alpha-1B>
6.4

>  <Alpha-2A>
5

>  <Alpha-2C>
6.83

>  <DOPAMINE D1>
5.74

>  <DOPAMINE D2>
5.29

>  <DOPAMINE D4>
6.31

>  <DOPAMINE D5>
5.13

>  <Dopamine transporter>
5

>  <HISTAMINE H1>
6.36

>  <HISTAMINE H2>
5.56

>  <HISTAMINE H3>
5

>  <Serotonin transporter>
5.55

$$$$
438449
  Marvin  02231216192D 0   1.00000     0.00000     0

 17 18  0  0  1  0  0  0  0  0999 V2000
   -3.7560   -2.6119    0.0000 Cl  0  0  0  0  0  0  0  0  0
   -3.7560   -1.7869    0.0000 C   0  0  0  0  0  0  0  0  0
   -3.0416   -1.3744    0.0000 C   0  0  0  0  0  0  0  0  0
   -3.0416   -0.5494    0.0000 C   0  0  0  0  0  0  0  0  0
   -2.3271   -0.1369    0.0000 N   0  0  0  0  0  0  0  0  0
   -1.6126   -0.5494    0.0000 C   0  0  0  0  0  0  0  0  0
   -1.6126   -1.3744    0.0000 N   0  0  0  0  0  0  0  0  0
   -2.3271   -1.7869    0.0000 C   0  0  0  0  0  0  0  0  0
   -2.3271   -2.6119    0.0000 C   0  0  0  0  0  0  0  0  0
   -0.8981   -0.1369    0.0000 N   0  0  0  0  0  0  0  0  0
   -0.8981    0.6881    0.0000 C   0  0  0  0  0  0  0  0  0
   -0.1837    1.1006    0.0000 C   0  0  0  0  0  0  0  0  0
   -0.1837    1.9256    0.0000 F   0  0  0  0  0  0  0  0  0
    0.5308    0.6881    0.0000 F   0  0  0  0  0  0  0  0  0
   -3.7560   -0.1369    0.0000 C   0  0  0  0  0  0  0  0  0
   -4.4705   -0.5494    0.0000 C   0  0  0  0  0  0  0  0  0
   -4.4705   -1.3744    0.0000 C   0  0  0  0  0  0  0  0  0
  1  2  1  0  0  0  0
  2  3  4  0  0  0  0
  2 17  4  0  0  0  0
  3  4  4  0  0  0  0
  3  8  1  0  0  0  0
  4  5  1  0  0  0  0
  4 15  4  0  0  0  0
  5  6  2  0  0  0  0
  6  7  1  0  0  0  0
  6 10  1  0  0  0  0
  7  8  1  0  0  0  0
  8  9  1  0  0  0  0
 10 11  1  0  0  0  0
 11 12  1  0  0  0  0
 12 13  1  0  0  0  0
 12 14  1  0  0  0  0
 15 16  4  0  0  0  0
 16 17  4  0  0  0  0
M  END
>  <Name_Molregno>
438449

>  <5-HT1A>
7.25

>  <5-HT1D>
5.84

>  <5-HT2A>
6.31

>  <5-HT2C>
6.45

>  <5-HT5>
7.55

>  <5-HT6>
5.35

>  <5-HT7>
7.55

$$$$
438465
  Marvin  02231216192D 0   1.00000     0.00000     0

 15 16  0  0  1  0  0  0  0  0999 V2000
   -2.1169   -1.9984    0.0000 Cl  0  0  0  0  0  0  0  0  0
   -2.1169   -1.1734    0.0000 C   0  0  0  0  0  0  0  0  0
   -1.4024   -0.7609    0.0000 C   0  0  0  0  0  0  0  0  0
   -1.4024    0.0641    0.0000 C   0  0  0  0  0  0  0  0  0
   -0.6879    0.4766    0.0000 N   0  0  0  0  0  0  0  0  0
    0.0265    0.0641    0.0000 C   0  0  0  0  0  0  0  0  0
    0.0265   -0.7609    0.0000 N   0  0  0  0  0  0  0  0  0
   -0.6879   -1.1734    0.0000 C   0  0  0  0  0  0  0  0  0
   -0.6879   -1.9984    0.0000 C   0  0  0  0  0  0  0  0  0
    0.0265   -2.4109    0.0000 C   0  0  0  0  0  0  0  0  0
    0.7410    0.4766    0.0000 N   0  0  0  0  0  0  0  0  0
   -2.1169    0.4766    0.0000 C   0  0  0  0  0  0  0  0  0
   -2.8313    0.0641    0.0000 C   0  0  0  0  0  0  0  0  0
   -2.8313   -0.7609    0.0000 C   0  0  0  0  0  0  0  0  0
   -3.5458   -1.1734    0.0000 Cl  0  0  0  0  0  0  0  0  0
  1  2  1  0  0  0  0
  2  3  4  0  0  0  0
  2 14  4  0  0  0  0
  3  4  4  0  0  0  0
  3  8  1  0  0  0  0
  4  5  1  0  0  0  0
  4 12  4  0  0  0  0
  5  6  2  0  0  0  0
  6  7  1  0  0  0  0
  6 11  1  0  0  0  0
  7  8  1  0  0  0  0
  8  9  1  0  0  0  0
  9 10  1  0  0  0  0
 12 13  4  0  0  0  0
 13 14  4  0  0  0  0
 14 15  1  0  0  0  0
M  END
>  <Name_Molregno>
438465

>  <5-HT1A>
6.12

>  <5-HT1D>
5.89

>  <5-HT2C>
6.81

>  <5-HT5>
7.58

>  <5-HT7>
7.14

$$$$
438466
  Marvin  02231216192D 0   1.00000     0.00000     0

 14 15  0  0  1  0  0  0  0  0999 V2000
   -2.0029   -2.2639    0.0000 Cl  0  0  0  0  0  0  0  0  0
   -2.0029   -1.4389    0.0000 C   0  0  0  0  0  0  0  0  0
   -1.2884   -1.0264    0.0000 C   0  0  0  0  0  0  0  0  0
   -1.2884   -0.2014    0.0000 C   0  0  0  0  0  0  0  0  0
   -0.5740    0.2111    0.0000 N   0  0  0  0  0  0  0  0  0
    0.1405   -0.2014    0.0000 C   0  0  0  0  0  0  0  0  0
    0.1405   -1.0264    0.0000 N   0  0  0  0  0  0  0  0  0
   -0.5740   -1.4389    0.0000 C   0  0  0  0  0  0  0  0  0
   -0.5740   -2.2639    0.0000 C   0  0  0  0  0  0  0  0  0
    0.8550    0.2111    0.0000 N   0  0  0  0  0  0  0  0  0
   -2.0029    0.2111    0.0000 C   0  0  0  0  0  0  0  0  0
   -2.7174   -0.2014    0.0000 C   0  0  0  0  0  0  0  0  0
   -2.7174   -1.0264    0.0000 C   0  0  0  0  0  0  0  0  0
   -3.4318   -1.4389    0.0000 Cl  0  0  0  0  0  0  0  0  0
  1  2  1  0  0  0  0
  2  3  4  0  0  0  0
  2 13  4  0  0  0  0
  3  4  4  0  0  0  0
  3  8  1  0  0  0  0
  4  5  1  0  0  0  0
  4 11  4  0  0  0  0
  5  6  2  0  0  0  0
  6  7  1  0  0  0  0
  6 10  1  0  0  0  0
  7  8  1  0  0  0  0
  8  9  1  0  0  0  0
 11 12  4  0  0  0  0
 12 13  4  0  0  0  0
 13 14  1  0  0  0  0
M  END
>  <Name_Molregno>
438466

>  <5-HT1A>
6.74

>  <5-HT1D>
6.59

>  <5-HT2C>
7.59

>  <5-HT5>
8.7

>  <5-HT7>
8.06

$$$$
438470
  Marvin  02231216192D 0   1.00000     0.00000     0

 14 15  0  0  1  0  0  0  0  0999 V2000
   -2.6603   -2.3284    0.0000 Cl  0  0  0  0  0  0  0  0  0
   -2.6603   -1.5034    0.0000 C   0  0  0  0  0  0  0  0  0
   -1.9458   -1.0909    0.0000 C   0  0  0  0  0  0  0  0  0
   -1.9458   -0.2659    0.0000 C   0  0  0  0  0  0  0  0  0
   -1.2313    0.1466    0.0000 N   0  0  0  0  0  0  0  0  0
   -0.5169   -0.2659    0.0000 C   0  0  0  0  0  0  0  0  0
   -0.5169   -1.0909    0.0000 N   0  0  0  0  0  0  0  0  0
   -1.2313   -1.5034    0.0000 C   0  0  0  0  0  0  0  0  0
   -1.2313   -2.3284    0.0000 C   0  0  0  0  0  0  0  0  0
    0.1976    0.1466    0.0000 N   0  0  0  0  0  0  0  0  0
    0.1976    0.9716    0.0000 C   0  0  0  0  0  0  0  0  0
   -2.6603    0.1466    0.0000 C   0  0  0  0  0  0  0  0  0
   -3.3747   -0.2659    0.0000 C   0  0  0  0  0  0  0  0  0
   -3.3747   -1.0909    0.0000 C   0  0  0  0  0  0  0  0  0
  1  2  1  0  0  0  0
  2  3  4  0  0  0  0
  2 14  4  0  0  0  0
  3  4  4  0  0  0  0
  3  8  1  0  0  0  0
  4  5  1  0  0  0  0
  4 12  4  0  0  0  0
  5  6  2  0  0  0  0
  6  7  1  0  0  0  0
  6 10  1  0  0  0  0
  7  8  1  0  0  0  0
  8  9  1  0  0  0  0
 10 11  1  0  0  0  0
 12 13  4  0  0  0  0
 13 14  4  0  0  0  0
M  END
>  <Name_Molregno>
438470

>  <5-HT1A>
6.41

>  <5-HT1D>
5.84

>  <5-HT2C>
6.63

>  <5-HT5>
7.97

>  <5-HT7>
7.82

$$$$
438497
  Marvin  02231216192D 0   1.00000     0.00000     0

 13 14  0  0  1  0  0  0  0  0999 V2000
   -2.3294   -2.2673    0.0000 Cl  0  0  0  0  0  0  0  0  0
   -2.3294   -1.4423    0.0000 C   0  0  0  0  0  0  0  0  0
   -1.6149   -1.0298    0.0000 C   0  0  0  0  0  0  0  0  0
   -1.6149   -0.2048    0.0000 C   0  0  0  0  0  0  0  0  0
   -0.9005    0.2077    0.0000 N   0  0  0  0  0  0  0  0  0
   -0.1860   -0.2048    0.0000 C   0  0  0  0  0  0  0  0  0
   -0.1860   -1.0298    0.0000 N   0  0  0  0  0  0  0  0  0
   -0.9005   -1.4423    0.0000 C   0  0  0  0  0  0  0  0  0
   -0.9005   -2.2673    0.0000 C   0  0  0  0  0  0  0  0  0
    0.5285    0.2077    0.0000 N   0  0  0  0  0  0  0  0  0
   -2.3294    0.2077    0.0000 C   0  0  0  0  0  0  0  0  0
   -3.0439   -0.2048    0.0000 C   0  0  0  0  0  0  0  0  0
   -3.0439   -1.0298    0.0000 C   0  0  0  0  0  0  0  0  0
  1  2  1  0  0  0  0
  2  3  4  0  0  0  0
  2 13  4  0  0  0  0
  3  4  4  0  0  0  0
  3  8  1  0  0  0  0
  4  5  1  0  0  0  0
  4 11  4  0  0  0  0
  5  6  2  0  0  0  0
  6  7  1  0  0  0  0
  6 10  1  0  0  0  0
  7  8  1  0  0  0  0
  8  9  1  0  0  0  0
 11 12  4  0  0  0  0
 12 13  4  0  0  0  0
M  END
>  <Name_Molregno>
438497

>  <5-HT1A>
6.87

>  <5-HT1D>
5.93

>  <5-HT2A>
6.59

>  <5-HT2C>
7.04

>  <5-HT3>
5.97

>  <5-HT5>
8.01

>  <5-HT6>
5.99

>  <5-HT7>
7.94

$$$$
438512
  Marvin  02231216192D 0   1.00000     0.00000     0

 14 15  0  0  1  0  0  0  0  0999 V2000
   -1.9078   -2.6220    0.0000 Cl  0  0  0  0  0  0  0  0  0
   -1.9078   -1.7970    0.0000 C   0  0  0  0  0  0  0  0  0
   -1.1934   -1.3845    0.0000 C   0  0  0  0  0  0  0  0  0
   -1.1934   -0.5595    0.0000 C   0  0  0  0  0  0  0  0  0
   -0.4789   -0.1470    0.0000 N   0  0  0  0  0  0  0  0  0
    0.2356   -0.5595    0.0000 C   0  0  0  0  0  0  0  0  0
    0.2356   -1.3845    0.0000 N   0  0  0  0  0  0  0  0  0
   -0.4789   -1.7970    0.0000 C   0  0  0  0  0  0  0  0  0
   -0.4789   -2.6220    0.0000 C   0  0  0  0  0  0  0  0  0
    0.2356   -3.0345    0.0000 C   0  0  0  0  0  0  0  0  0
    0.9501   -0.1470    0.0000 N   0  0  0  0  0  0  0  0  0
   -1.9078   -0.1470    0.0000 C   0  0  0  0  0  0  0  0  0
   -2.6223   -0.5595    0.0000 C   0  0  0  0  0  0  0  0  0
   -2.6223   -1.3845    0.0000 C   0  0  0  0  0  0  0  0  0
  1  2  1  0  0  0  0
  2  3  4  0  0  0  0
  2 14  4  0  0  0  0
  3  4  4  0  0  0  0
  3  8  1  0  0  0  0
  4  5  1  0  0  0  0
  4 12  4  0  0  0  0
  5  6  2  0  0  0  0
  6  7  1  0  0  0  0
  6 11  1  0  0  0  0
  7  8  1  0  0  0  0
  8  9  1  0  0  0  0
  9 10  1  0  0  0  0
 12 13  4  0  0  0  0
 13 14  4  0  0  0  0
M  END
>  <Name_Molregno>
438512

>  <5-HT1A>
5.97

>  <5-HT1D>
5

>  <5-HT2C>
6.42

>  <5-HT5>
7.07

>  <5-HT7>
7.01

$$$$
438632
  Marvin  02231216192D 0   1.00000     0.00000     0

 18 19  0  0  1  0  0  0  0  0999 V2000
   -3.6377   -2.8000    0.0000 Cl  0  0  0  0  0  0  0  0  0
   -3.6377   -1.9750    0.0000 C   0  0  0  0  0  0  0  0  0
   -2.9233   -1.5625    0.0000 C   0  0  0  0  0  0  0  0  0
   -2.9233   -0.7375    0.0000 C   0  0  0  0  0  0  0  0  0
   -2.2088   -0.3250    0.0000 N   0  0  0  0  0  0  0  0  0
   -1.4943   -0.7375    0.0000 C   0  0  0  0  0  0  0  0  0
   -1.4943   -1.5625    0.0000 N   0  0  0  0  0  0  0  0  0
   -2.2088   -1.9750    0.0000 C   0  0  0  0  0  0  0  0  0
   -2.2088   -2.8000    0.0000 C   0  0  0  0  0  0  0  0  0
   -0.7798   -0.3250    0.0000 N   0  0  0  0  0  0  0  0  0
   -0.7798    0.5000    0.0000 C   0  0  0  0  0  0  0  0  0
   -0.0654    0.9125    0.0000 C   0  0  0  0  0  0  0  0  0
   -0.0654    1.7375    0.0000 F   0  0  0  0  0  0  0  0  0
    0.6491    0.5000    0.0000 F   0  0  0  0  0  0  0  0  0
   -3.6377   -0.3250    0.0000 C   0  0  0  0  0  0  0  0  0
   -3.6377    0.5000    0.0000 Cl  0  0  0  0  0  0  0  0  0
   -4.3522   -0.7375    0.0000 C   0  0  0  0  0  0  0  0  0
   -4.3522   -1.5625    0.0000 C   0  0  0  0  0  0  0  0  0
  1  2  1  0  0  0  0
  2  3  4  0  0  0  0
  2 18  4  0  0  0  0
  3  4  4  0  0  0  0
  3  8  1  0  0  0  0
  4  5  1  0  0  0  0
  4 15  4  0  0  0  0
  5  6  2  0  0  0  0
  6  7  1  0  0  0  0
  6 10  1  0  0  0  0
  7  8  1  0  0  0  0
  8  9  1  0  0  0  0
 10 11  1  0  0  0  0
 11 12  1  0  0  0  0
 12 13  1  0  0  0  0
 12 14  1  0  0  0  0
 15 16  1  0  0  0  0
 15 17  4  0  0  0  0
 17 18  4  0  0  0  0
M  END
>  <Name_Molregno>
438632

>  <5-HT5>
7.48

>  <5-HT7>
6.44

$$$$
438696
  Marvin  02231216192D 0   1.00000     0.00000     0

 12 13  0  0  0  0  0  0  0  0999 V2000
   -2.2994    0.6418    0.0000 Cl  0  0  0  0  0  0  0  0  0
   -2.2994   -0.1832    0.0000 C   0  0  0  0  0  0  0  0  0
   -1.5850   -0.5957    0.0000 C   0  0  0  0  0  0  0  0  0
   -0.8705   -0.1832    0.0000 C   0  0  0  0  0  0  0  0  0
   -0.1560   -0.5957    0.0000 N   0  0  0  0  0  0  0  0  0
   -0.1560   -1.4207    0.0000 C   0  0  0  0  0  0  0  0  0
   -0.8705   -1.8332    0.0000 N   0  0  0  0  0  0  0  0  0
   -1.5850   -1.4207    0.0000 C   0  0  0  0  0  0  0  0  0
   -2.2994   -1.8332    0.0000 C   0  0  0  0  0  0  0  0  0
   -3.0139   -1.4207    0.0000 C   0  0  0  0  0  0  0  0  0
   -3.0139   -0.5957    0.0000 C   0  0  0  0  0  0  0  0  0
    0.5584   -1.8332    0.0000 N   0  0  0  0  0  0  0  0  0
  1  2  1  0  0  0  0
  2  3  4  0  0  0  0
  2 11  4  0  0  0  0
  3  4  1  0  0  0  0
  3  8  4  0  0  0  0
  4  5  1  0  0  0  0
  5  6  1  0  0  0  0
  6  7  2  0  0  0  0
  6 12  1  0  0  0  0
  7  8  1  0  0  0  0
  8  9  4  0  0  0  0
  9 10  4  0  0  0  0
 10 11  4  0  0  0  0
M  END
>  <Name_Molregno>
438696

>  <5-HT1A>
5.77

>  <5-HT1D>
5.44

>  <5-HT2A>
5.93

>  <5-HT2C>
6.18

>  <5-HT3>
5.98

>  <5-HT5>
7

>  <5-HT6>
5

>  <5-HT7>
6.1

$$$$
438697
  Marvin  02231216192D 0   1.00000     0.00000     0

 13 14  0  0  0  0  0  0  0  0999 V2000
   -1.9496    0.5488    0.0000 Cl  0  0  0  0  0  0  0  0  0
   -1.9496   -0.2762    0.0000 C   0  0  0  0  0  0  0  0  0
   -1.2351   -0.6887    0.0000 C   0  0  0  0  0  0  0  0  0
   -0.5207   -0.2762    0.0000 C   0  0  0  0  0  0  0  0  0
    0.1938   -0.6887    0.0000 N   0  0  0  0  0  0  0  0  0
    0.1938   -1.5137    0.0000 C   0  0  0  0  0  0  0  0  0
   -0.5207   -1.9262    0.0000 N   0  0  0  0  0  0  0  0  0
   -1.2351   -1.5137    0.0000 C   0  0  0  0  0  0  0  0  0
   -1.9496   -1.9262    0.0000 C   0  0  0  0  0  0  0  0  0
   -2.6641   -1.5137    0.0000 C   0  0  0  0  0  0  0  0  0
   -2.6641   -0.6887    0.0000 C   0  0  0  0  0  0  0  0  0
   -3.3785   -0.2762    0.0000 Cl  0  0  0  0  0  0  0  0  0
    0.9083   -1.9262    0.0000 N   0  0  0  0  0  0  0  0  0
  1  2  1  0  0  0  0
  2  3  4  0  0  0  0
  2 11  4  0  0  0  0
  3  4  1  0  0  0  0
  3  8  4  0  0  0  0
  4  5  1  0  0  0  0
  5  6  1  0  0  0  0
  6  7  2  0  0  0  0
  6 13  1  0  0  0  0
  7  8  1  0  0  0  0
  8  9  4  0  0  0  0
  9 10  4  0  0  0  0
 10 11  4  0  0  0  0
 11 12  1  0  0  0  0
M  END
>  <Name_Molregno>
438697

>  <5-HT1A>
5.97

>  <5-HT1D>
5.9

>  <5-HT2A>
6.36

>  <5-HT2C>
6.68

>  <5-HT3>
6.76

>  <5-HT5>
7.37

>  <5-HT6>
5.94

>  <5-HT7>
6.53

$$$$
438722
  Marvin  02231216192D 0   1.00000     0.00000     0

 20 21  0  0  1  0  0  0  0  0999 V2000
   -1.7119   -2.5125    0.0000 F   0  0  0  0  0  0  0  0  0
   -0.9974   -2.1000    0.0000 C   0  0  0  0  0  0  0  0  0
   -0.9974   -1.2750    0.0000 F   0  0  0  0  0  0  0  0  0
   -0.2829   -2.5125    0.0000 C   0  0  0  0  0  0  0  0  0
    0.4315   -2.1000    0.0000 N   0  0  0  0  0  0  0  0  0
    1.1460   -2.5125    0.0000 C   0  0  0  0  0  0  0  0  0
    1.1460   -3.3375    0.0000 N   0  0  0  0  0  0  0  0  0
    1.8605   -3.7500    0.0000 C   0  0  0  0  0  0  0  0  0
    2.5749   -3.3375    0.0000 C   0  0  0  0  0  0  0  0  0
    2.5749   -2.5125    0.0000 C   0  0  0  0  0  0  0  0  0
    1.8605   -2.1000    0.0000 N   0  0  0  0  0  0  0  0  0
    3.2894   -2.1000    0.0000 C   0  0  0  0  0  0  0  0  0
    3.2894   -1.2750    0.0000 O   0  0  0  0  0  0  0  0  0
    4.0039   -0.8625    0.0000 C   0  0  0  0  0  0  0  0  0
    4.0039   -0.0375    0.0000 C   0  0  0  0  0  0  0  0  0
    4.7183   -1.2750    0.0000 C   0  0  0  0  0  0  0  0  0
    4.0039   -2.5125    0.0000 C   0  0  0  0  0  0  0  0  0
    4.0039   -3.3375    0.0000 C   0  0  0  0  0  0  0  0  0
    3.2894   -3.7500    0.0000 C   0  0  0  0  0  0  0  0  0
    1.8605   -4.5750    0.0000 C   0  0  0  0  0  0  0  0  0
  1  2  1  0  0  0  0
  2  3  1  0  0  0  0
  2  4  1  0  0  0  0
  4  5  1  0  0  0  0
  5  6  1  0  0  0  0
  6  7  1  0  0  0  0
  6 11  2  0  0  0  0
  7  8  1  0  0  0  0
  8  9  1  0  0  0  0
  8 20  1  0  0  0  0
  9 10  4  0  0  0  0
  9 19  4  0  0  0  0
 10 11  1  0  0  0  0
 10 12  4  0  0  0  0
 12 13  1  0  0  0  0
 12 17  4  0  0  0  0
 13 14  1  0  0  0  0
 14 15  1  0  0  0  0
 14 16  1  0  0  0  0
 17 18  4  0  0  0  0
 18 19  4  0  0  0  0
M  END
>  <Name_Molregno>
438722

>  <5-HT5>
7.65

>  <5-HT7>
8.38

$$$$
438724
  Marvin  02231216192D 0   1.00000     0.00000     0

 19 20  0  0  1  0  0  0  0  0999 V2000
   -0.0147   -0.2166    0.0000 Cl  0  0  0  0  0  0  0  0  0
    0.6997    0.1959    0.0000 C   0  0  0  0  0  0  0  0  0
    0.6997    1.0209    0.0000 C   0  0  0  0  0  0  0  0  0
    1.4142    1.4334    0.0000 C   0  0  0  0  0  0  0  0  0
    2.1287    1.0209    0.0000 C   0  0  0  0  0  0  0  0  0
    2.8431    1.4334    0.0000 N   0  0  0  0  0  0  0  0  0
    3.5576    1.0209    0.0000 C   0  0  0  0  0  0  0  0  0
    3.5576    0.1959    0.0000 N   0  0  0  0  0  0  0  0  0
    2.8431   -0.2166    0.0000 C   0  0  0  0  0  0  0  0  0
    2.1287    0.1959    0.0000 C   0  0  0  0  0  0  0  0  0
    1.4142   -0.2166    0.0000 C   0  0  0  0  0  0  0  0  0
    1.4142   -1.0416    0.0000 O   0  0  0  0  0  0  0  0  0
    2.1287   -1.4541    0.0000 C   0  0  0  0  0  0  0  0  0
    2.8431   -1.0416    0.0000 C   0  0  0  0  0  0  0  0  0
    4.2721    1.4334    0.0000 N   0  0  0  0  0  0  0  0  0
    4.2721    2.2584    0.0000 C   0  0  0  0  0  0  0  0  0
    4.9866    2.6709    0.0000 C   0  0  0  0  0  0  0  0  0
    4.9866    3.4959    0.0000 F   0  0  0  0  0  0  0  0  0
    5.7010    2.2584    0.0000 F   0  0  0  0  0  0  0  0  0
  1  2  1  0  0  0  0
  2  3  4  0  0  0  0
  2 11  4  0  0  0  0
  3  4  4  0  0  0  0
  4  5  4  0  0  0  0
  5  6  1  0  0  0  0
  5 10  4  0  0  0  0
  6  7  2  0  0  0  0
  7  8  1  0  0  0  0
  7 15  1  0  0  0  0
  8  9  1  0  0  0  0
  9 10  1  0  0  0  0
  9 14  1  0  0  0  0
 10 11  4  0  0  0  0
 11 12  1  0  0  0  0
 12 13  1  0  0  0  0
 15 16  1  0  0  0  0
 16 17  1  0  0  0  0
 17 18  1  0  0  0  0
 17 19  1  0  0  0  0
M  END
>  <Name_Molregno>
438724

>  <5-HT5>
7.65

>  <5-HT7>
7.75

$$$$
438780
  Marvin  02231216192D 0   1.00000     0.00000     0

 18 19  0  0  1  0  0  0  0  0999 V2000
   -0.4284    0.3121    0.0000 F   0  0  0  0  0  0  0  0  0
    0.2861    0.7246    0.0000 C   0  0  0  0  0  0  0  0  0
    0.2861    1.5496    0.0000 F   0  0  0  0  0  0  0  0  0
    1.0006    0.3121    0.0000 C   0  0  0  0  0  0  0  0  0
    1.7151    0.7246    0.0000 N   0  0  0  0  0  0  0  0  0
    2.4295    0.3121    0.0000 C   0  0  0  0  0  0  0  0  0
    2.4295   -0.5129    0.0000 N   0  0  0  0  0  0  0  0  0
    3.1440   -0.9254    0.0000 C   0  0  0  0  0  0  0  0  0
    3.8585   -0.5129    0.0000 C   0  0  0  0  0  0  0  0  0
    3.8585    0.3121    0.0000 C   0  0  0  0  0  0  0  0  0
    3.1440    0.7246    0.0000 N   0  0  0  0  0  0  0  0  0
    4.5729    0.7246    0.0000 C   0  0  0  0  0  0  0  0  0
    4.5729    1.5496    0.0000 O   0  0  0  0  0  0  0  0  0
    3.8585    1.9621    0.0000 C   0  0  0  0  0  0  0  0  0
    5.2874    0.3121    0.0000 C   0  0  0  0  0  0  0  0  0
    5.2874   -0.5129    0.0000 C   0  0  0  0  0  0  0  0  0
    4.5729   -0.9254    0.0000 C   0  0  0  0  0  0  0  0  0
    3.1440   -1.7504    0.0000 C   0  0  0  0  0  0  0  0  0
  1  2  1  0  0  0  0
  2  3  1  0  0  0  0
  2  4  1  0  0  0  0
  4  5  1  0  0  0  0
  5  6  1  0  0  0  0
  6  7  1  0  0  0  0
  6 11  2  0  0  0  0
  7  8  1  0  0  0  0
  8  9  1  0  0  0  0
  8 18  1  0  0  0  0
  9 10  4  0  0  0  0
  9 17  4  0  0  0  0
 10 11  1  0  0  0  0
 10 12  4  0  0  0  0
 12 13  1  0  0  0  0
 12 15  4  0  0  0  0
 13 14  1  0  0  0  0
 15 16  4  0  0  0  0
 16 17  4  0  0  0  0
M  END
>  <Name_Molregno>
438780

>  <5-HT5>
7.55

>  <5-HT7>
7.41

$$$$
438829
  Marvin  02231216192D 0   1.00000     0.00000     0

 18 19  0  0  1  0  0  0  0  0999 V2000
   -3.5797   -2.3218    0.0000 Cl  0  0  0  0  0  0  0  0  0
   -3.5797   -1.4968    0.0000 C   0  0  0  0  0  0  0  0  0
   -2.8652   -1.0843    0.0000 C   0  0  0  0  0  0  0  0  0
   -2.8652   -0.2593    0.0000 C   0  0  0  0  0  0  0  0  0
   -2.1507    0.1532    0.0000 N   0  0  0  0  0  0  0  0  0
   -1.4363   -0.2593    0.0000 C   0  0  0  0  0  0  0  0  0
   -1.4363   -1.0843    0.0000 N   0  0  0  0  0  0  0  0  0
   -2.1507   -1.4968    0.0000 C   0  0  0  0  0  0  0  0  0
   -2.1507   -2.3218    0.0000 C   0  0  0  0  0  0  0  0  0
   -0.7218    0.1532    0.0000 N   0  0  0  0  0  0  0  0  0
   -0.0073   -0.2593    0.0000 C   0  0  0  0  0  0  0  0  0
    0.7072    0.1532    0.0000 C   0  0  0  0  0  0  0  0  0
    1.4216   -0.2593    0.0000 F   0  0  0  0  0  0  0  0  0
    0.7072    0.9782    0.0000 F   0  0  0  0  0  0  0  0  0
   -3.5797    0.1532    0.0000 C   0  0  0  0  0  0  0  0  0
   -4.2941   -0.2593    0.0000 C   0  0  0  0  0  0  0  0  0
   -4.2941   -1.0843    0.0000 C   0  0  0  0  0  0  0  0  0
   -5.0086   -1.4968    0.0000 Cl  0  0  0  0  0  0  0  0  0
  1  2  1  0  0  0  0
  2  3  4  0  0  0  0
  2 17  4  0  0  0  0
  3  4  4  0  0  0  0
  3  8  1  0  0  0  0
  4  5  1  0  0  0  0
  4 15  4  0  0  0  0
  5  6  2  0  0  0  0
  6  7  1  0  0  0  0
  6 10  1  0  0  0  0
  7  8  1  0  0  0  0
  8  9  1  0  0  0  0
 10 11  1  0  0  0  0
 11 12  1  0  0  0  0
 12 13  1  0  0  0  0
 12 14  1  0  0  0  0
 15 16  4  0  0  0  0
 16 17  4  0  0  0  0
 17 18  1  0  0  0  0
M  END
>  <Name_Molregno>
438829

>  <5-HT5>
7.76

>  <5-HT7>
7.17

$$$$
438989
  Marvin  02231216192D 0   1.00000     0.00000     0

 14 15  0  0  1  0  0  0  0  0999 V2000
   -2.2824   -2.5320    0.0000 Cl  0  0  0  0  0  0  0  0  0
   -2.2824   -1.7070    0.0000 C   0  0  0  0  0  0  0  0  0
   -1.5680   -1.2945    0.0000 C   0  0  0  0  0  0  0  0  0
   -1.5680   -0.4695    0.0000 C   0  0  0  0  0  0  0  0  0
   -0.8535   -0.0570    0.0000 N   0  0  0  0  0  0  0  0  0
   -0.1390   -0.4695    0.0000 C   0  0  0  0  0  0  0  0  0
   -0.1390   -1.2945    0.0000 N   0  0  0  0  0  0  0  0  0
   -0.8535   -1.7070    0.0000 C   0  0  0  0  0  0  0  0  0
   -0.8535   -2.5320    0.0000 C   0  0  0  0  0  0  0  0  0
    0.5754   -0.0570    0.0000 N   0  0  0  0  0  0  0  0  0
   -2.2824   -0.0570    0.0000 C   0  0  0  0  0  0  0  0  0
   -2.2824    0.7680    0.0000 Cl  0  0  0  0  0  0  0  0  0
   -2.9969   -0.4695    0.0000 C   0  0  0  0  0  0  0  0  0
   -2.9969   -1.2945    0.0000 C   0  0  0  0  0  0  0  0  0
  1  2  1  0  0  0  0
  2  3  4  0  0  0  0
  2 14  4  0  0  0  0
  3  4  4  0  0  0  0
  3  8  1  0  0  0  0
  4  5  1  0  0  0  0
  4 11  4  0  0  0  0
  5  6  2  0  0  0  0
  6  7  1  0  0  0  0
  6 10  1  0  0  0  0
  7  8  1  0  0  0  0
  8  9  1  0  0  0  0
 11 12  1  0  0  0  0
 11 13  4  0  0  0  0
 13 14  4  0  0  0  0
M  END
>  <Name_Molregno>
438989

>  <5-HT1A>
7.04

>  <5-HT1D>
6.02

>  <5-HT2C>
7.13

>  <5-HT5>
8.19

>  <5-HT7>
8.62

$$$$
439034
  Marvin  02231216192D 0   1.00000     0.00000     0

 16 17  0  0  1  0  0  0  0  0999 V2000
   -0.1392   -1.6739    0.0000 Cl  0  0  0  0  0  0  0  0  0
    0.5753   -1.2614    0.0000 C   0  0  0  0  0  0  0  0  0
    0.5753   -0.4364    0.0000 C   0  0  0  0  0  0  0  0  0
    1.2897   -0.0239    0.0000 C   0  0  0  0  0  0  0  0  0
    1.2897    0.8011    0.0000 O   0  0  0  0  0  0  0  0  0
    2.0042    1.2136    0.0000 C   0  0  0  0  0  0  0  0  0
    2.0042   -0.4364    0.0000 C   0  0  0  0  0  0  0  0  0
    2.7187   -0.0239    0.0000 N   0  0  0  0  0  0  0  0  0
    3.4331   -0.4364    0.0000 C   0  0  0  0  0  0  0  0  0
    3.4331   -1.2614    0.0000 N   0  0  0  0  0  0  0  0  0
    2.7187   -1.6739    0.0000 C   0  0  0  0  0  0  0  0  0
    2.0042   -1.2614    0.0000 C   0  0  0  0  0  0  0  0  0
    1.2897   -1.6739    0.0000 C   0  0  0  0  0  0  0  0  0
    1.2897   -2.4989    0.0000 C   0  0  0  0  0  0  0  0  0
    2.7187   -2.4989    0.0000 C   0  0  0  0  0  0  0  0  0
    4.1476   -0.0239    0.0000 N   0  0  0  0  0  0  0  0  0
  1  2  1  0  0  0  0
  2  3  4  0  0  0  0
  2 13  4  0  0  0  0
  3  4  4  0  0  0  0
  4  5  1  0  0  0  0
  4  7  4  0  0  0  0
  5  6  1  0  0  0  0
  7  8  1  0  0  0  0
  7 12  4  0  0  0  0
  8  9  2  0  0  0  0
  9 10  1  0  0  0  0
  9 16  1  0  0  0  0
 10 11  1  0  0  0  0
 11 12  1  0  0  0  0
 11 15  1  0  0  0  0
 12 13  4  0  0  0  0
 13 14  1  0  0  0  0
M  END
>  <Name_Molregno>
439034

>  <5-HT1A>
6.98

>  <5-HT1D>
6.84

>  <5-HT2C>
7.72

>  <5-HT5>
8.33

>  <5-HT7>
8.6

$$$$
439035
  Marvin  02231216192D 0   1.00000     0.00000     0

 15 16  0  0  1  0  0  0  0  0999 V2000
   -0.1864    0.1304    0.0000 Cl  0  0  0  0  0  0  0  0  0
    0.5280    0.5429    0.0000 C   0  0  0  0  0  0  0  0  0
    0.5280    1.3679    0.0000 C   0  0  0  0  0  0  0  0  0
    1.2425    1.7804    0.0000 C   0  0  0  0  0  0  0  0  0
    1.9570    1.3679    0.0000 C   0  0  0  0  0  0  0  0  0
    2.6714    1.7804    0.0000 N   0  0  0  0  0  0  0  0  0
    3.3859    1.3679    0.0000 C   0  0  0  0  0  0  0  0  0
    3.3859    0.5429    0.0000 N   0  0  0  0  0  0  0  0  0
    2.6714    0.1304    0.0000 C   0  0  0  0  0  0  0  0  0
    1.9570    0.5429    0.0000 C   0  0  0  0  0  0  0  0  0
    1.2425    0.1304    0.0000 C   0  0  0  0  0  0  0  0  0
    1.2425   -0.6946    0.0000 O   0  0  0  0  0  0  0  0  0
    1.9570   -1.1071    0.0000 C   0  0  0  0  0  0  0  0  0
    2.6714   -0.6946    0.0000 C   0  0  0  0  0  0  0  0  0
    4.1004    1.7804    0.0000 N   0  0  0  0  0  0  0  0  0
  1  2  1  0  0  0  0
  2  3  4  0  0  0  0
  2 11  4  0  0  0  0
  3  4  4  0  0  0  0
  4  5  4  0  0  0  0
  5  6  1  0  0  0  0
  5 10  4  0  0  0  0
  6  7  2  0  0  0  0
  7  8  1  0  0  0  0
  7 15  1  0  0  0  0
  8  9  1  0  0  0  0
  9 10  1  0  0  0  0
  9 14  1  0  0  0  0
 10 11  4  0  0  0  0
 11 12  1  0  0  0  0
 12 13  1  0  0  0  0
M  END
>  <Name_Molregno>
439035

>  <5-HT1A>
6.47

>  <5-HT1D>
5.94

>  <5-HT2C>
7.13

>  <5-HT5>
7.64

>  <5-HT7>
7.91

$$$$
439036
  Marvin  02231216192D 0   1.00000     0.00000     0

 17 18  0  0  1  0  0  0  0  0999 V2000
   -1.8506    0.4549    0.0000 O   0  0  0  0  0  0  0  0  0
   -2.5651    0.8674    0.0000 C   0  0  0  0  0  0  0  0  0
   -2.5651    1.6924    0.0000 C   0  0  0  0  0  0  0  0  0
   -3.2796    0.4549    0.0000 C   0  0  0  0  0  0  0  0  0
   -1.8506   -0.3701    0.0000 C   0  0  0  0  0  0  0  0  0
   -1.1362   -0.7826    0.0000 C   0  0  0  0  0  0  0  0  0
   -0.4217   -0.3701    0.0000 N   0  0  0  0  0  0  0  0  0
    0.2928   -0.7826    0.0000 C   0  0  0  0  0  0  0  0  0
    0.2928   -1.6076    0.0000 N   0  0  0  0  0  0  0  0  0
   -0.4217   -2.0201    0.0000 C   0  0  0  0  0  0  0  0  0
   -1.1362   -1.6076    0.0000 C   0  0  0  0  0  0  0  0  0
   -1.8506   -2.0201    0.0000 C   0  0  0  0  0  0  0  0  0
   -2.5651   -1.6076    0.0000 C   0  0  0  0  0  0  0  0  0
   -2.5651   -0.7826    0.0000 C   0  0  0  0  0  0  0  0  0
   -0.4217   -2.8451    0.0000 C   0  0  0  0  0  0  0  0  0
    1.0072   -0.3701    0.0000 N   0  0  0  0  0  0  0  0  0
    1.0072    0.4549    0.0000 C   0  0  0  0  0  0  0  0  0
  1  2  1  0  0  0  0
  1  5  1  0  0  0  0
  2  3  1  0  0  0  0
  2  4  1  0  0  0  0
  5  6  4  0  0  0  0
  5 14  4  0  0  0  0
  6  7  1  0  0  0  0
  6 11  4  0  0  0  0
  7  8  2  0  0  0  0
  8  9  1  0  0  0  0
  8 16  1  0  0  0  0
  9 10  1  0  0  0  0
 10 11  1  0  0  0  0
 10 15  1  0  0  0  0
 11 12  4  0  0  0  0
 12 13  4  0  0  0  0
 13 14  4  0  0  0  0
 16 17  1  0  0  0  0
M  END
>  <Name_Molregno>
439036

>  <5-HT1A>
6.17

>  <5-HT1D>
6.8

>  <5-HT2C>
6.01

>  <5-HT5>
7.6

>  <5-HT7>
8.62

$$$$
439038
  Marvin  02231216192D 0   1.00000     0.00000     0

 16 17  0  0  1  0  0  0  0  0999 V2000
   -1.5621    0.4420    0.0000 O   0  0  0  0  0  0  0  0  0
   -2.2766    0.8545    0.0000 C   0  0  0  0  0  0  0  0  0
   -2.2766    1.6795    0.0000 C   0  0  0  0  0  0  0  0  0
   -2.9910    0.4420    0.0000 C   0  0  0  0  0  0  0  0  0
   -1.5621   -0.3830    0.0000 C   0  0  0  0  0  0  0  0  0
   -0.8476   -0.7955    0.0000 C   0  0  0  0  0  0  0  0  0
   -0.1331   -0.3830    0.0000 N   0  0  0  0  0  0  0  0  0
    0.5813   -0.7955    0.0000 C   0  0  0  0  0  0  0  0  0
    0.5813   -1.6205    0.0000 N   0  0  0  0  0  0  0  0  0
   -0.1331   -2.0330    0.0000 C   0  0  0  0  0  0  0  0  0
   -0.8476   -1.6205    0.0000 C   0  0  0  0  0  0  0  0  0
   -1.5621   -2.0330    0.0000 C   0  0  0  0  0  0  0  0  0
   -2.2766   -1.6205    0.0000 C   0  0  0  0  0  0  0  0  0
   -2.2766   -0.7955    0.0000 C   0  0  0  0  0  0  0  0  0
   -0.1331   -2.8580    0.0000 C   0  0  0  0  0  0  0  0  0
    1.2958   -0.3830    0.0000 N   0  0  0  0  0  0  0  0  0
  1  2  1  0  0  0  0
  1  5  1  0  0  0  0
  2  3  1  0  0  0  0
  2  4  1  0  0  0  0
  5  6  4  0  0  0  0
  5 14  4  0  0  0  0
  6  7  1  0  0  0  0
  6 11  4  0  0  0  0
  7  8  2  0  0  0  0
  8  9  1  0  0  0  0
  8 16  1  0  0  0  0
  9 10  1  0  0  0  0
 10 11  1  0  0  0  0
 10 15  1  0  0  0  0
 11 12  4  0  0  0  0
 12 13  4  0  0  0  0
 13 14  4  0  0  0  0
M  END
>  <Name_Molregno>
439038

>  <5-HT1A>
6.58

>  <5-HT1D>
7.15

>  <5-HT2C>
6.31

>  <5-HT5>
8

>  <5-HT7>
9

$$$$
439126
  Marvin  02231216192D 0   1.00000     0.00000     0

 15 16  0  0  1  0  0  0  0  0999 V2000
   -2.3816   -2.2398    0.0000 Cl  0  0  0  0  0  0  0  0  0
   -2.3816   -1.4148    0.0000 C   0  0  0  0  0  0  0  0  0
   -1.6672   -1.0023    0.0000 C   0  0  0  0  0  0  0  0  0
   -1.6672   -0.1773    0.0000 C   0  0  0  0  0  0  0  0  0
   -0.9527    0.2353    0.0000 N   0  0  0  0  0  0  0  0  0
   -0.2382   -0.1773    0.0000 C   0  0  0  0  0  0  0  0  0
   -0.2382   -1.0023    0.0000 N   0  0  0  0  0  0  0  0  0
   -0.9527   -1.4147    0.0000 C   0  0  0  0  0  0  0  0  0
   -0.9527   -2.2397    0.0000 C   0  0  0  0  0  0  0  0  0
    0.4762    0.2352    0.0000 N   0  0  0  0  0  0  0  0  0
    1.1907   -0.1773    0.0000 C   0  0  0  0  0  0  0  0  0
   -2.3816    0.2353    0.0000 C   0  0  0  0  0  0  0  0  0
   -3.0961   -0.1772    0.0000 C   0  0  0  0  0  0  0  0  0
   -3.0961   -1.0022    0.0000 C   0  0  0  0  0  0  0  0  0
   -3.8106   -1.4147    0.0000 Cl  0  0  0  0  0  0  0  0  0
  1  2  1  0  0  0  0
  2  3  4  0  0  0  0
  2 14  4  0  0  0  0
  3  4  4  0  0  0  0
  3  8  1  0  0  0  0
  4  5  1  0  0  0  0
  4 12  4  0  0  0  0
  5  6  2  0  0  0  0
  6  7  1  0  0  0  0
  6 10  1  0  0  0  0
  7  8  1  0  0  0  0
  8  9  1  0  0  0  0
 10 11  1  0  0  0  0
 12 13  4  0  0  0  0
 13 14  4  0  0  0  0
 14 15  1  0  0  0  0
M  END
>  <Name_Molregno>
439126

>  <5-HT1A>
6.61

>  <5-HT1D>
6.34

>  <5-HT2C>
7.03

>  <5-HT5>
8.2

>  <5-HT7>
7.88

$$$$
439127
  Marvin  02231216192D 0   1.00000     0.00000     0

 14 15  0  0  1  0  0  0  0  0999 V2000
   -2.1123    0.5954    0.0000 O   0  0  0  0  0  0  0  0  0
   -2.8268    1.0079    0.0000 C   0  0  0  0  0  0  0  0  0
   -2.1123   -0.2296    0.0000 C   0  0  0  0  0  0  0  0  0
   -1.3978   -0.6421    0.0000 C   0  0  0  0  0  0  0  0  0
   -0.6833   -0.2296    0.0000 N   0  0  0  0  0  0  0  0  0
    0.0311   -0.6421    0.0000 C   0  0  0  0  0  0  0  0  0
    0.0311   -1.4671    0.0000 N   0  0  0  0  0  0  0  0  0
   -0.6833   -1.8796    0.0000 C   0  0  0  0  0  0  0  0  0
   -1.3978   -1.4671    0.0000 C   0  0  0  0  0  0  0  0  0
   -2.1123   -1.8796    0.0000 C   0  0  0  0  0  0  0  0  0
   -2.8268   -1.4671    0.0000 C   0  0  0  0  0  0  0  0  0
   -2.8268   -0.6421    0.0000 C   0  0  0  0  0  0  0  0  0
   -0.6833   -2.7046    0.0000 C   0  0  0  0  0  0  0  0  0
    0.7456   -0.2296    0.0000 N   0  0  0  0  0  0  0  0  0
  1  2  1  0  0  0  0
  1  3  1  0  0  0  0
  3  4  4  0  0  0  0
  3 12  4  0  0  0  0
  4  5  1  0  0  0  0
  4  9  4  0  0  0  0
  5  6  2  0  0  0  0
  6  7  1  0  0  0  0
  6 14  1  0  0  0  0
  7  8  1  0  0  0  0
  8  9  1  0  0  0  0
  8 13  1  0  0  0  0
  9 10  4  0  0  0  0
 10 11  4  0  0  0  0
 11 12  4  0  0  0  0
M  END
>  <Name_Molregno>
439127

>  <5-HT1A>
7.49

>  <5-HT1D>
6.35

>  <5-HT2C>
6.25

>  <5-HT5>
8.2

>  <5-HT7>
8.09

$$$$
443503
  Marvin  02231216192D 0   1.00000     0.00000     0

 26 28  0  0  1  0  0  0  0  0999 V2000
    5.1037   -3.2541    0.0000 Br  0  0  0  0  0  0  0  0  0
    4.5517   -2.6410    0.0000 C   0  0  0  0  0  0  0  0  0
    3.7447   -2.8125    0.0000 C   0  0  0  0  0  0  0  0  0
    3.1927   -2.1994    0.0000 C   0  0  0  0  0  0  0  0  0
    2.3677   -2.1994    0.0000 N   0  0  0  0  0  0  0  0  0
    2.1128   -1.4148    0.0000 C   0  0  0  0  0  0  0  0  0
    2.7802   -0.9299    0.0000 C   0  0  0  0  0  0  0  0  0
    3.4476   -1.4148    0.0000 C   0  0  0  0  0  0  0  0  0
    4.2546   -1.2433    0.0000 C   0  0  0  0  0  0  0  0  0
    4.8067   -1.8564    0.0000 C   0  0  0  0  0  0  0  0  0
    2.7802   -0.1049    0.0000 C   0  0  0  0  0  0  0  0  0
    3.4947    0.3076    0.0000 C   0  0  0  0  0  0  0  0  0
    4.2091   -0.1049    0.0000 N   0  0  0  0  0  0  0  0  0
    4.9236    0.3076    0.0000 C   0  0  0  0  0  0  0  0  0
    5.6381   -0.1049    0.0000 O   0  0  0  0  0  0  0  0  0
    4.9236    1.1326    0.0000 C   0  0  0  0  0  0  0  0  0
    4.2091    1.5451    0.0000 N   0  0  0  0  0  0  0  0  0
    3.4947    1.1326    0.0000 C   0  0  0  0  0  0  0  0  0
    2.7802    1.5451    0.0000 O   0  0  0  0  0  0  0  0  0
    5.6381    1.5451    0.0000 C   0  0  0  0  0  0  0  0  0
    6.3526    1.1326    0.0000 C   0  0  0  0  0  0  0  0  0
    7.0670    1.5451    0.0000 C   0  0  0  0  0  0  0  0  0
    7.7815    1.1326    0.0000 N   0  0  0  0  0  0  0  0  0
    8.4960    1.5451    0.0000 C   0  0  0  0  0  0  0  0  0
    9.2104    1.1326    0.0000 N   0  0  0  0  0  0  0  0  0
    8.4960    2.3701    0.0000 N   0  0  0  0  0  0  0  0  0
  1  2  1  0  0  0  0
  2  3  4  0  0  0  0
  2 10  4  0  0  0  0
  3  4  4  0  0  0  0
  4  5  4  0  0  0  0
  4  8  4  0  0  0  0
  5  6  4  0  0  0  0
  6  7  4  0  0  0  0
  7  8  4  0  0  0  0
  7 11  1  0  0  0  0
  8  9  4  0  0  0  0
  9 10  4  0  0  0  0
 11 12  1  0  0  0  0
 12 13  1  0  0  0  0
 12 18  1  0  0  0  0
 13 14  1  0  0  0  0
 14 15  2  0  0  0  0
 14 16  1  0  0  0  0
 16 17  1  0  0  0  0
 16 20  1  0  0  0  0
 17 18  1  0  0  0  0
 18 19  2  0  0  0  0
 20 21  1  0  0  0  0
 21 22  1  0  0  0  0
 22 23  1  0  0  0  0
 23 24  1  0  0  0  0
 24 25  1  0  0  0  0
 24 26  2  0  0  0  0
M  STY  1   1 DAT
M  SAL   1  1   5
M  SDT   1 MRV_IMPLICIT_H                                        
M  SDD   1     0.0000    0.0000    DR    ALL  0       0  
M  SED   1 IMPL_H1
M  END
>  <Name_Molregno>
443503

>  <5-HT1A>
5

>  <5-HT1D>
5

>  <5-HT2A>
5

>  <5-HT2C>
5.33

>  <5-HT3>
5

>  <5-HT5>
5

>  <5-HT6>
5

>  <5-HT7>
5

$$$$
485853
  Marvin  02231216192D 0   1.00000     0.00000     0

 34 38  0  0  0  0  0  0  0  0999 V2000
   -8.8078   -3.6971    0.0000 S   0  0  0  0  0  0  0  0  0
   -8.3953   -2.9826    0.0000 O   0  0  0  0  0  0  0  0  0
   -9.4752   -3.2122    0.0000 O   0  0  0  0  0  0  0  0  0
   -8.0541   -4.0326    0.0000 N   0  0  0  0  0  0  0  0  0
   -8.1403   -4.8531    0.0000 C   0  0  0  0  0  0  0  0  0
   -8.9473   -5.0247    0.0000 C   0  0  0  0  0  0  0  0  0
   -9.3598   -4.3102    0.0000 C   0  0  0  0  0  0  0  0  0
   -7.3396   -3.6201    0.0000 C   0  0  0  0  0  0  0  0  0
   -7.3396   -2.7951    0.0000 C   0  0  0  0  0  0  0  0  0
   -6.6252   -2.3826    0.0000 C   0  0  0  0  0  0  0  0  0
   -5.9107   -2.7951    0.0000 C   0  0  0  0  0  0  0  0  0
   -5.9107   -3.6201    0.0000 C   0  0  0  0  0  0  0  0  0
   -6.6252   -4.0326    0.0000 C   0  0  0  0  0  0  0  0  0
   -6.6252   -1.5576    0.0000 C   0  0  0  0  0  0  0  0  0
   -5.9107   -1.1451    0.0000 C   0  0  0  0  0  0  0  0  0
   -5.9107   -0.3201    0.0000 C   0  0  0  0  0  0  0  0  0
   -5.1962    0.0924    0.0000 C   0  0  0  0  0  0  0  0  0
   -4.4818   -0.3201    0.0000 N   0  0  0  0  0  0  0  0  0
   -4.4818   -1.1451    0.0000 C   0  0  0  0  0  0  0  0  0
   -5.1962   -1.5576    0.0000 C   0  0  0  0  0  0  0  0  0
   -3.7673    0.0924    0.0000 C   0  0  0  0  0  0  0  0  0
   -3.7673    0.9174    0.0000 C   0  0  0  0  0  0  0  0  0
   -3.0528    1.3299    0.0000 O   0  0  0  0  0  0  0  0  0
   -3.0528    2.1549    0.0000 C   0  0  0  0  0  0  0  0  0
   -2.3383    2.5674    0.0000 C   0  0  0  0  0  0  0  0  0
   -2.3383    3.3924    0.0000 C   0  0  0  0  0  0  0  0  0
   -1.6239    3.8049    0.0000 N   0  0  0  0  0  0  0  0  0
   -0.9094    3.3924    0.0000 C   0  0  0  0  0  0  0  0  0
   -0.9094    2.5674    0.0000 C   0  0  0  0  0  0  0  0  0
   -1.6239    2.1549    0.0000 C   0  0  0  0  0  0  0  0  0
   -0.1949    3.8049    0.0000 C   0  0  0  0  0  0  0  0  0
   -3.0528    3.8049    0.0000 C   0  0  0  0  0  0  0  0  0
   -3.7673    3.3924    0.0000 C   0  0  0  0  0  0  0  0  0
   -3.7673    2.5674    0.0000 C   0  0  0  0  0  0  0  0  0
  1  2  2  0  0  0  0
  1  3  2  0  0  0  0
  1  4  1  0  0  0  0
  1  7  1  0  0  0  0
  4  5  1  0  0  0  0
  4  8  1  0  0  0  0
  5  6  1  0  0  0  0
  6  7  1  0  0  0  0
  8  9  4  0  0  0  0
  8 13  4  0  0  0  0
  9 10  4  0  0  0  0
 10 11  4  0  0  0  0
 10 14  1  0  0  0  0
 11 12  4  0  0  0  0
 12 13  4  0  0  0  0
 14 15  1  0  0  0  0
 15 16  1  0  0  0  0
 15 20  1  0  0  0  0
 16 17  1  0  0  0  0
 17 18  1  0  0  0  0
 18 19  1  0  0  0  0
 18 21  1  0  0  0  0
 19 20  1  0  0  0  0
 21 22  1  0  0  0  0
 22 23  1  0  0  0  0
 23 24  1  0  0  0  0
 24 25  4  0  0  0  0
 24 34  4  0  0  0  0
 25 26  4  0  0  0  0
 25 30  4  0  0  0  0
 26 27  4  0  0  0  0
 26 32  4  0  0  0  0
 27 28  4  0  0  0  0
 28 29  4  0  0  0  0
 28 31  1  0  0  0  0
 29 30  4  0  0  0  0
 32 33  4  0  0  0  0
 33 34  4  0  0  0  0
M  END
>  <Name_Molregno>
485853

>  <5-HT1A>
8.1

>  <5-HT1B>
7.9

>  <5-HT1D>
8.8

>  <5-HT1E>
5

>  <5-HT2A>
5.2

>  <5-HT2C>
5.4

>  <5-HT5>
5.8

>  <5-HT6>
5.8

>  <5-HT7>
7.8

>  <Alpha-1B>
6.8

>  <Beta-2>
5.8

>  <DOPAMINE D2>
6.3

>  <Serotonin transporter>
6.4

$$$$
486945
  Marvin  02231216192D 0   1.00000     0.00000     0

 32 35  0  0  0  0  0  0  0  0999 V2000
    2.0504   -5.0180    0.0000 S   0  0  0  0  0  0  0  0  0
    2.0504   -5.8430    0.0000 O   0  0  0  0  0  0  0  0  0
    2.8754   -5.0180    0.0000 O   0  0  0  0  0  0  0  0  0
    2.0504   -4.1930    0.0000 N   0  0  0  0  0  0  0  0  0
    2.7649   -3.7805    0.0000 C   0  0  0  0  0  0  0  0  0
    2.7649   -2.9555    0.0000 C   0  0  0  0  0  0  0  0  0
    3.4793   -2.5430    0.0000 C   0  0  0  0  0  0  0  0  0
    4.1938   -2.9555    0.0000 C   0  0  0  0  0  0  0  0  0
    4.1938   -3.7805    0.0000 C   0  0  0  0  0  0  0  0  0
    3.4793   -4.1930    0.0000 C   0  0  0  0  0  0  0  0  0
    3.4793   -1.7180    0.0000 C   0  0  0  0  0  0  0  0  0
    4.1938   -1.3055    0.0000 C   0  0  0  0  0  0  0  0  0
    4.1938   -0.4805    0.0000 C   0  0  0  0  0  0  0  0  0
    4.9083   -0.0680    0.0000 C   0  0  0  0  0  0  0  0  0
    5.6228   -0.4805    0.0000 N   0  0  0  0  0  0  0  0  0
    5.6228   -1.3055    0.0000 C   0  0  0  0  0  0  0  0  0
    4.9083   -1.7180    0.0000 C   0  0  0  0  0  0  0  0  0
    6.3372   -0.0680    0.0000 C   0  0  0  0  0  0  0  0  0
    6.3372    0.7570    0.0000 C   0  0  0  0  0  0  0  0  0
    7.0517    1.1695    0.0000 O   0  0  0  0  0  0  0  0  0
    7.0517    1.9945    0.0000 C   0  0  0  0  0  0  0  0  0
    7.7662    2.4070    0.0000 C   0  0  0  0  0  0  0  0  0
    7.7662    3.2320    0.0000 C   0  0  0  0  0  0  0  0  0
    8.4806    3.6445    0.0000 N   0  0  0  0  0  0  0  0  0
    9.1951    3.2320    0.0000 C   0  0  0  0  0  0  0  0  0
    9.1951    2.4070    0.0000 C   0  0  0  0  0  0  0  0  0
    8.4806    1.9945    0.0000 C   0  0  0  0  0  0  0  0  0
    9.9096    3.6445    0.0000 C   0  0  0  0  0  0  0  0  0
    7.0517    3.6445    0.0000 C   0  0  0  0  0  0  0  0  0
    6.3372    3.2320    0.0000 C   0  0  0  0  0  0  0  0  0
    6.3372    2.4070    0.0000 C   0  0  0  0  0  0  0  0  0
    1.2254   -5.0180    0.0000 C   0  0  0  0  0  0  0  0  0
  1  2  2  0  0  0  0
  1  3  2  0  0  0  0
  1  4  1  0  0  0  0
  1 32  1  0  0  0  0
  4  5  1  0  0  0  0
  5  6  4  0  0  0  0
  5 10  4  0  0  0  0
  6  7  4  0  0  0  0
  7  8  4  0  0  0  0
  7 11  1  0  0  0  0
  8  9  4  0  0  0  0
  9 10  4  0  0  0  0
 11 12  1  0  0  0  0
 12 13  1  0  0  0  0
 12 17  1  0  0  0  0
 13 14  1  0  0  0  0
 14 15  1  0  0  0  0
 15 16  1  0  0  0  0
 15 18  1  0  0  0  0
 16 17  1  0  0  0  0
 18 19  1  0  0  0  0
 19 20  1  0  0  0  0
 20 21  1  0  0  0  0
 21 22  4  0  0  0  0
 21 31  4  0  0  0  0
 22 23  4  0  0  0  0
 22 27  4  0  0  0  0
 23 24  4  0  0  0  0
 23 29  4  0  0  0  0
 24 25  4  0  0  0  0
 25 26  4  0  0  0  0
 25 28  1  0  0  0  0
 26 27  4  0  0  0  0
 29 30  4  0  0  0  0
 30 31  4  0  0  0  0
M  END
>  <Name_Molregno>
486945

>  <5-HT1A>
8.6

>  <5-HT1B>
8.7

>  <5-HT1D>
9.3

>  <5-HT1E>
5.6

>  <5-HT2A>
5.6

>  <5-HT2C>
6

>  <5-HT5>
5.9

>  <5-HT6>
5

>  <5-HT7>
7.7

>  <Alpha-1B>
6.7

>  <Beta-2>
6.3

>  <DOPAMINE D2>
7.2

>  <Serotonin transporter>
5.8

$$$$
486993
  Marvin  02231216192D 0   1.00000     0.00000     0

 31 34  0  0  0  0  0  0  0  0999 V2000
   -4.0481   -0.6634    0.0000 S   0  0  0  0  0  0  0  0  0
   -4.4606    0.0511    0.0000 O   0  0  0  0  0  0  0  0  0
   -3.6356   -1.3779    0.0000 O   0  0  0  0  0  0  0  0  0
   -3.3336   -0.2509    0.0000 N   0  0  0  0  0  0  0  0  0
   -2.6191   -0.6634    0.0000 C   0  0  0  0  0  0  0  0  0
   -1.9047   -0.2509    0.0000 C   0  0  0  0  0  0  0  0  0
   -1.1902   -0.6634    0.0000 C   0  0  0  0  0  0  0  0  0
   -0.4757   -0.2509    0.0000 N   0  0  0  0  0  0  0  0  0
   -0.4757    0.5741    0.0000 C   0  0  0  0  0  0  0  0  0
    0.2388    0.9866    0.0000 C   0  0  0  0  0  0  0  0  0
    0.9532    0.5741    0.0000 N   0  0  0  0  0  0  0  0  0
    0.9532   -0.2509    0.0000 C   0  0  0  0  0  0  0  0  0
    0.2388   -0.6634    0.0000 C   0  0  0  0  0  0  0  0  0
    1.6677    0.9866    0.0000 C   0  0  0  0  0  0  0  0  0
    1.6677    1.8116    0.0000 C   0  0  0  0  0  0  0  0  0
    2.3822    2.2241    0.0000 C   0  0  0  0  0  0  0  0  0
    3.0966    1.8116    0.0000 C   0  0  0  0  0  0  0  0  0
    3.0966    0.9866    0.0000 C   0  0  0  0  0  0  0  0  0
    2.3822    0.5741    0.0000 C   0  0  0  0  0  0  0  0  0
    2.3822   -0.2509    0.0000 O   0  0  0  0  0  0  0  0  0
    3.0966   -0.6634    0.0000 C   0  0  0  0  0  0  0  0  0
   -4.7625   -1.0759    0.0000 C   0  0  0  0  0  0  0  0  0
   -5.4770   -0.6634    0.0000 C   0  0  0  0  0  0  0  0  0
   -6.1915   -1.0759    0.0000 C   0  0  0  0  0  0  0  0  0
   -6.1915   -1.9009    0.0000 C   0  0  0  0  0  0  0  0  0
   -5.4770   -2.3134    0.0000 C   0  0  0  0  0  0  0  0  0
   -4.7625   -1.9009    0.0000 C   0  0  0  0  0  0  0  0  0
   -6.9060   -2.3134    0.0000 C   0  0  0  0  0  0  0  0  0
   -7.6204   -1.9009    0.0000 C   0  0  0  0  0  0  0  0  0
   -7.6204   -1.0759    0.0000 C   0  0  0  0  0  0  0  0  0
   -6.9060   -0.6634    0.0000 C   0  0  0  0  0  0  0  0  0
  1  2  2  0  0  0  0
  1  3  2  0  0  0  0
  1  4  1  0  0  0  0
  1 22  1  0  0  0  0
  4  5  1  0  0  0  0
  5  6  1  0  0  0  0
  6  7  1  0  0  0  0
  7  8  1  0  0  0  0
  8  9  1  0  0  0  0
  8 13  1  0  0  0  0
  9 10  1  0  0  0  0
 10 11  1  0  0  0  0
 11 12  1  0  0  0  0
 11 14  1  0  0  0  0
 12 13  1  0  0  0  0
 14 15  4  0  0  0  0
 14 19  4  0  0  0  0
 15 16  4  0  0  0  0
 16 17  4  0  0  0  0
 17 18  4  0  0  0  0
 18 19  4  0  0  0  0
 19 20  1  0  0  0  0
 20 21  1  0  0  0  0
 22 23  4  0  0  0  0
 22 27  4  0  0  0  0
 23 24  4  0  0  0  0
 24 25  4  0  0  0  0
 24 31  4  0  0  0  0
 25 26  4  0  0  0  0
 25 28  4  0  0  0  0
 26 27  4  0  0  0  0
 28 29  4  0  0  0  0
 29 30  4  0  0  0  0
 30 31  4  0  0  0  0
M  END
>  <Name_Molregno>
486993

>  <5-HT1A>
6.95

>  <5-HT7>
7.7

>  <Alpha-2A>
8.33

>  <DOPAMINE D2>
6.88

$$$$
497457
  Marvin  02231216192D 0   1.00000     0.00000     0

 33 37  0  0  0  0  0  0  0  0999 V2000
   -6.0241   -3.6269    0.0000 O   0  0  0  0  0  0  0  0  0
   -6.2791   -4.4115    0.0000 C   0  0  0  0  0  0  0  0  0
   -5.2172   -3.4554    0.0000 C   0  0  0  0  0  0  0  0  0
   -4.9622   -2.6707    0.0000 C   0  0  0  0  0  0  0  0  0
   -4.1552   -2.4992    0.0000 C   0  0  0  0  0  0  0  0  0
   -3.9003   -1.7146    0.0000 N   0  0  0  0  0  0  0  0  0
   -3.1157   -1.4597    0.0000 C   0  0  0  0  0  0  0  0  0
   -3.1157   -0.6347    0.0000 C   0  0  0  0  0  0  0  0  0
   -3.9003   -0.3797    0.0000 N   0  0  0  0  0  0  0  0  0
   -4.1552    0.4049    0.0000 C   0  0  0  0  0  0  0  0  0
   -4.9622    0.5764    0.0000 C   0  0  0  0  0  0  0  0  0
   -5.2172    1.3611    0.0000 N   0  0  0  0  0  0  0  0  0
   -6.0241    1.5326    0.0000 C   0  0  0  0  0  0  0  0  0
   -6.2791    2.3172    0.0000 C   0  0  0  0  0  0  0  0  0
   -5.7270    2.9303    0.0000 N   0  0  0  0  0  0  0  0  0
   -4.9201    2.7588    0.0000 C   0  0  0  0  0  0  0  0  0
   -4.6651    1.9741    0.0000 C   0  0  0  0  0  0  0  0  0
   -5.9820    3.7149    0.0000 C   0  0  0  0  0  0  0  0  0
   -6.7889    3.8864    0.0000 C   0  0  0  0  0  0  0  0  0
   -7.0439    4.6711    0.0000 C   0  0  0  0  0  0  0  0  0
   -6.4919    5.2842    0.0000 C   0  0  0  0  0  0  0  0  0
   -5.6849    5.1126    0.0000 C   0  0  0  0  0  0  0  0  0
   -5.4299    4.3280    0.0000 C   0  0  0  0  0  0  0  0  0
   -4.6230    4.1565    0.0000 C   0  0  0  0  0  0  0  0  0
   -4.3852   -1.0472    0.0000 C   0  0  0  0  0  0  0  0  0
   -5.2102   -1.0472    0.0000 O   0  0  0  0  0  0  0  0  0
   -2.4012   -0.2222    0.0000 C   0  0  0  0  0  0  0  0  0
   -1.6867   -0.6347    0.0000 C   0  0  0  0  0  0  0  0  0
   -1.6867   -1.4597    0.0000 C   0  0  0  0  0  0  0  0  0
   -2.4012   -1.8722    0.0000 C   0  0  0  0  0  0  0  0  0
   -3.6032   -3.1123    0.0000 C   0  0  0  0  0  0  0  0  0
   -3.8582   -3.8969    0.0000 C   0  0  0  0  0  0  0  0  0
   -4.6651   -4.0685    0.0000 C   0  0  0  0  0  0  0  0  0
  1  2  1  0  0  0  0
  1  3  1  0  0  0  0
  3  4  4  0  0  0  0
  3 33  4  0  0  0  0
  4  5  4  0  0  0  0
  5  6  1  0  0  0  0
  5 31  4  0  0  0  0
  6  7  1  0  0  0  0
  6 25  1  0  0  0  0
  7  8  4  0  0  0  0
  7 30  4  0  0  0  0
  8  9  1  0  0  0  0
  8 27  4  0  0  0  0
  9 10  1  0  0  0  0
  9 25  1  0  0  0  0
 10 11  1  0  0  0  0
 11 12  1  0  0  0  0
 12 13  1  0  0  0  0
 12 17  1  0  0  0  0
 13 14  1  0  0  0  0
 14 15  1  0  0  0  0
 15 16  1  0  0  0  0
 15 18  1  0  0  0  0
 16 17  1  0  0  0  0
 18 19  4  0  0  0  0
 18 23  4  0  0  0  0
 19 20  4  0  0  0  0
 20 21  4  0  0  0  0
 21 22  4  0  0  0  0
 22 23  4  0  0  0  0
 23 24  1  0  0  0  0
 25 26  2  0  0  0  0
 27 28  4  0  0  0  0
 28 29  4  0  0  0  0
 29 30  4  0  0  0  0
 31 32  4  0  0  0  0
 32 33  4  0  0  0  0
M  END
>  <Name_Molregno>
497457

>  <5-HT7>
5.6

$$$$
497458
  Marvin  02231216192D 0   1.00000     0.00000     0

 34 38  0  0  0  0  0  0  0  0999 V2000
   -3.3261   -3.9617    0.0000 O   0  0  0  0  0  0  0  0  0
   -2.7740   -4.5748    0.0000 C   0  0  0  0  0  0  0  0  0
   -4.1330   -4.1332    0.0000 C   0  0  0  0  0  0  0  0  0
   -4.3880   -4.9179    0.0000 C   0  0  0  0  0  0  0  0  0
   -5.1949   -5.0894    0.0000 C   0  0  0  0  0  0  0  0  0
   -5.7470   -4.4763    0.0000 C   0  0  0  0  0  0  0  0  0
   -5.4920   -3.6917    0.0000 C   0  0  0  0  0  0  0  0  0
   -4.6851   -3.5202    0.0000 C   0  0  0  0  0  0  0  0  0
   -4.4301   -2.7355    0.0000 N   0  0  0  0  0  0  0  0  0
   -4.9821   -2.1224    0.0000 C   0  0  0  0  0  0  0  0  0
   -4.7272   -1.3378    0.0000 C   0  0  0  0  0  0  0  0  0
   -3.9202   -1.1663    0.0000 N   0  0  0  0  0  0  0  0  0
   -3.3682   -1.7794    0.0000 C   0  0  0  0  0  0  0  0  0
   -3.6231   -2.5640    0.0000 C   0  0  0  0  0  0  0  0  0
   -3.6653   -0.3817    0.0000 C   0  0  0  0  0  0  0  0  0
   -4.2173    0.2314    0.0000 C   0  0  0  0  0  0  0  0  0
   -3.9624    1.0160    0.0000 N   0  0  0  0  0  0  0  0  0
   -3.1778    1.2710    0.0000 C   0  0  0  0  0  0  0  0  0
   -3.1778    2.0960    0.0000 C   0  0  0  0  0  0  0  0  0
   -3.9624    2.3509    0.0000 N   0  0  0  0  0  0  0  0  0
   -4.2173    3.1355    0.0000 C   0  0  0  0  0  0  0  0  0
   -5.0243    3.3071    0.0000 C   0  0  0  0  0  0  0  0  0
   -5.2792    4.0917    0.0000 C   0  0  0  0  0  0  0  0  0
   -4.7272    4.7048    0.0000 C   0  0  0  0  0  0  0  0  0
   -4.9821    5.4894    0.0000 O   0  0  0  0  0  0  0  0  0
   -5.7891    5.6609    0.0000 C   0  0  0  0  0  0  0  0  0
   -3.9202    4.5333    0.0000 C   0  0  0  0  0  0  0  0  0
   -3.6653    3.7486    0.0000 C   0  0  0  0  0  0  0  0  0
   -4.4473    1.6835    0.0000 C   0  0  0  0  0  0  0  0  0
   -5.2723    1.6835    0.0000 O   0  0  0  0  0  0  0  0  0
   -2.4633    2.5085    0.0000 C   0  0  0  0  0  0  0  0  0
   -1.7488    2.0960    0.0000 C   0  0  0  0  0  0  0  0  0
   -1.7488    1.2710    0.0000 C   0  0  0  0  0  0  0  0  0
   -2.4633    0.8585    0.0000 C   0  0  0  0  0  0  0  0  0
  1  2  1  0  0  0  0
  1  3  1  0  0  0  0
  3  4  4  0  0  0  0
  3  8  4  0  0  0  0
  4  5  4  0  0  0  0
  5  6  4  0  0  0  0
  6  7  4  0  0  0  0
  7  8  4  0  0  0  0
  8  9  1  0  0  0  0
  9 10  1  0  0  0  0
  9 14  1  0  0  0  0
 10 11  1  0  0  0  0
 11 12  1  0  0  0  0
 12 13  1  0  0  0  0
 12 15  1  0  0  0  0
 13 14  1  0  0  0  0
 15 16  1  0  0  0  0
 16 17  1  0  0  0  0
 17 18  1  0  0  0  0
 17 29  1  0  0  0  0
 18 19  4  0  0  0  0
 18 34  4  0  0  0  0
 19 20  1  0  0  0  0
 19 31  4  0  0  0  0
 20 21  1  0  0  0  0
 20 29  1  0  0  0  0
 21 22  4  0  0  0  0
 21 28  4  0  0  0  0
 22 23  4  0  0  0  0
 23 24  4  0  0  0  0
 24 25  1  0  0  0  0
 24 27  4  0  0  0  0
 25 26  1  0  0  0  0
 27 28  4  0  0  0  0
 29 30  2  0  0  0  0
 31 32  4  0  0  0  0
 32 33  4  0  0  0  0
 33 34  4  0  0  0  0
M  END
>  <Name_Molregno>
497458

>  <5-HT7>
6.53

$$$$
497459
  Marvin  02231216192D 0   1.00000     0.00000     0

 35 39  0  0  0  0  0  0  0  0999 V2000
   -2.0737   -2.2890    0.0000 O   0  0  0  0  0  0  0  0  0
   -1.2667   -2.1175    0.0000 C   0  0  0  0  0  0  0  0  0
   -2.3286   -3.0737    0.0000 C   0  0  0  0  0  0  0  0  0
   -1.7766   -3.6868    0.0000 C   0  0  0  0  0  0  0  0  0
   -2.0316   -4.4714    0.0000 C   0  0  0  0  0  0  0  0  0
   -2.8385   -4.6429    0.0000 C   0  0  0  0  0  0  0  0  0
   -3.3906   -4.0298    0.0000 C   0  0  0  0  0  0  0  0  0
   -3.1356   -3.2452    0.0000 C   0  0  0  0  0  0  0  0  0
   -3.6877   -2.6321    0.0000 N   0  0  0  0  0  0  0  0  0
   -4.4946   -2.8036    0.0000 C   0  0  0  0  0  0  0  0  0
   -5.0467   -2.1905    0.0000 C   0  0  0  0  0  0  0  0  0
   -4.7917   -1.4059    0.0000 N   0  0  0  0  0  0  0  0  0
   -3.9847   -1.2344    0.0000 C   0  0  0  0  0  0  0  0  0
   -3.4327   -1.8475    0.0000 C   0  0  0  0  0  0  0  0  0
   -5.3438   -0.7928    0.0000 C   0  0  0  0  0  0  0  0  0
   -5.0888   -0.0082    0.0000 C   0  0  0  0  0  0  0  0  0
   -5.6408    0.6049    0.0000 C   0  0  0  0  0  0  0  0  0
   -5.3859    1.3895    0.0000 N   0  0  0  0  0  0  0  0  0
   -4.6013    1.6445    0.0000 C   0  0  0  0  0  0  0  0  0
   -4.6013    2.4695    0.0000 C   0  0  0  0  0  0  0  0  0
   -5.3859    2.7244    0.0000 N   0  0  0  0  0  0  0  0  0
   -5.6408    3.5090    0.0000 C   0  0  0  0  0  0  0  0  0
   -6.4478    3.6806    0.0000 C   0  0  0  0  0  0  0  0  0
   -6.7028    4.4652    0.0000 C   0  0  0  0  0  0  0  0  0
   -6.1507    5.0783    0.0000 C   0  0  0  0  0  0  0  0  0
   -6.4057    5.8629    0.0000 O   0  0  0  0  0  0  0  0  0
   -7.2126    6.0344    0.0000 C   0  0  0  0  0  0  0  0  0
   -5.3438    4.9067    0.0000 C   0  0  0  0  0  0  0  0  0
   -5.0888    4.1221    0.0000 C   0  0  0  0  0  0  0  0  0
   -5.8708    2.0570    0.0000 C   0  0  0  0  0  0  0  0  0
   -6.6958    2.0570    0.0000 O   0  0  0  0  0  0  0  0  0
   -3.8868    2.8820    0.0000 C   0  0  0  0  0  0  0  0  0
   -3.1723    2.4695    0.0000 C   0  0  0  0  0  0  0  0  0
   -3.1723    1.6445    0.0000 C   0  0  0  0  0  0  0  0  0
   -3.8868    1.2320    0.0000 C   0  0  0  0  0  0  0  0  0
  1  2  1  0  0  0  0
  1  3  1  0  0  0  0
  3  4  4  0  0  0  0
  3  8  4  0  0  0  0
  4  5  4  0  0  0  0
  5  6  4  0  0  0  0
  6  7  4  0  0  0  0
  7  8  4  0  0  0  0
  8  9  1  0  0  0  0
  9 10  1  0  0  0  0
  9 14  1  0  0  0  0
 10 11  1  0  0  0  0
 11 12  1  0  0  0  0
 12 13  1  0  0  0  0
 12 15  1  0  0  0  0
 13 14  1  0  0  0  0
 15 16  1  0  0  0  0
 16 17  1  0  0  0  0
 17 18  1  0  0  0  0
 18 19  1  0  0  0  0
 18 30  1  0  0  0  0
 19 20  4  0  0  0  0
 19 35  4  0  0  0  0
 20 21  1  0  0  0  0
 20 32  4  0  0  0  0
 21 22  1  0  0  0  0
 21 30  1  0  0  0  0
 22 23  4  0  0  0  0
 22 29  4  0  0  0  0
 23 24  4  0  0  0  0
 24 25  4  0  0  0  0
 25 26  1  0  0  0  0
 25 28  4  0  0  0  0
 26 27  1  0  0  0  0
 28 29  4  0  0  0  0
 30 31  2  0  0  0  0
 32 33  4  0  0  0  0
 33 34  4  0  0  0  0
 34 35  4  0  0  0  0
M  END
>  <Name_Molregno>
497459

>  <5-HT7>
6.77

$$$$
497521
  Marvin  02231216192D 0   1.00000     0.00000     0

 36 40  0  0  0  0  0  0  0  0999 V2000
   -3.9615   -5.0200    0.0000 O   0  0  0  0  0  0  0  0  0
   -3.4094   -5.6331    0.0000 C   0  0  0  0  0  0  0  0  0
   -4.7684   -5.1916    0.0000 C   0  0  0  0  0  0  0  0  0
   -5.0234   -5.9762    0.0000 C   0  0  0  0  0  0  0  0  0
   -5.8303   -6.1477    0.0000 C   0  0  0  0  0  0  0  0  0
   -6.3824   -5.5346    0.0000 C   0  0  0  0  0  0  0  0  0
   -6.1274   -4.7500    0.0000 C   0  0  0  0  0  0  0  0  0
   -5.3205   -4.5785    0.0000 C   0  0  0  0  0  0  0  0  0
   -5.0655   -3.7939    0.0000 N   0  0  0  0  0  0  0  0  0
   -5.6176   -3.1808    0.0000 C   0  0  0  0  0  0  0  0  0
   -5.3626   -2.3961    0.0000 C   0  0  0  0  0  0  0  0  0
   -4.5556   -2.2246    0.0000 N   0  0  0  0  0  0  0  0  0
   -4.0036   -2.8377    0.0000 C   0  0  0  0  0  0  0  0  0
   -4.2585   -3.6223    0.0000 C   0  0  0  0  0  0  0  0  0
   -4.3007   -1.4400    0.0000 C   0  0  0  0  0  0  0  0  0
   -4.8527   -0.8269    0.0000 C   0  0  0  0  0  0  0  0  0
   -4.5978   -0.0423    0.0000 C   0  0  0  0  0  0  0  0  0
   -5.1498    0.5708    0.0000 C   0  0  0  0  0  0  0  0  0
   -4.8949    1.3554    0.0000 N   0  0  0  0  0  0  0  0  0
   -4.1103    1.6104    0.0000 C   0  0  0  0  0  0  0  0  0
   -4.1103    2.4354    0.0000 C   0  0  0  0  0  0  0  0  0
   -4.8949    2.6903    0.0000 N   0  0  0  0  0  0  0  0  0
   -5.1498    3.4749    0.0000 C   0  0  0  0  0  0  0  0  0
   -5.9568    3.6465    0.0000 C   0  0  0  0  0  0  0  0  0
   -6.2117    4.4311    0.0000 C   0  0  0  0  0  0  0  0  0
   -5.6597    5.0442    0.0000 C   0  0  0  0  0  0  0  0  0
   -5.9146    5.8288    0.0000 O   0  0  0  0  0  0  0  0  0
   -5.3626    6.4419    0.0000 C   0  0  0  0  0  0  0  0  0
   -4.8527    4.8727    0.0000 C   0  0  0  0  0  0  0  0  0
   -4.5978    4.0880    0.0000 C   0  0  0  0  0  0  0  0  0
   -5.3798    2.0229    0.0000 C   0  0  0  0  0  0  0  0  0
   -6.2048    2.0229    0.0000 O   0  0  0  0  0  0  0  0  0
   -3.3958    2.8479    0.0000 C   0  0  0  0  0  0  0  0  0
   -2.6813    2.4354    0.0000 C   0  0  0  0  0  0  0  0  0
   -2.6813    1.6104    0.0000 C   0  0  0  0  0  0  0  0  0
   -3.3958    1.1979    0.0000 C   0  0  0  0  0  0  0  0  0
  1  2  1  0  0  0  0
  1  3  1  0  0  0  0
  3  4  4  0  0  0  0
  3  8  4  0  0  0  0
  4  5  4  0  0  0  0
  5  6  4  0  0  0  0
  6  7  4  0  0  0  0
  7  8  4  0  0  0  0
  8  9  1  0  0  0  0
  9 10  1  0  0  0  0
  9 14  1  0  0  0  0
 10 11  1  0  0  0  0
 11 12  1  0  0  0  0
 12 13  1  0  0  0  0
 12 15  1  0  0  0  0
 13 14  1  0  0  0  0
 15 16  1  0  0  0  0
 16 17  1  0  0  0  0
 17 18  1  0  0  0  0
 18 19  1  0  0  0  0
 19 20  1  0  0  0  0
 19 31  1  0  0  0  0
 20 21  4  0  0  0  0
 20 36  4  0  0  0  0
 21 22  1  0  0  0  0
 21 33  4  0  0  0  0
 22 23  1  0  0  0  0
 22 31  1  0  0  0  0
 23 24  4  0  0  0  0
 23 30  4  0  0  0  0
 24 25  4  0  0  0  0
 25 26  4  0  0  0  0
 26 27  1  0  0  0  0
 26 29  4  0  0  0  0
 27 28  1  0  0  0  0
 29 30  4  0  0  0  0
 31 32  2  0  0  0  0
 33 34  4  0  0  0  0
 34 35  4  0  0  0  0
 35 36  4  0  0  0  0
M  END
>  <Name_Molregno>
497521

>  <5-HT7>
6.57

$$$$
497522
  Marvin  02231216192D 0   1.00000     0.00000     0

 24 27  0  0  0  0  0  0  0  0999 V2000
    1.4049   -3.5218    0.0000 O   0  0  0  0  0  0  0  0  0
    2.2299   -3.5218    0.0000 C   0  0  0  0  0  0  0  0  0
    2.7148   -4.1892    0.0000 N   0  0  0  0  0  0  0  0  0
    3.4994   -3.9343    0.0000 C   0  0  0  0  0  0  0  0  0
    3.4994   -3.1093    0.0000 C   0  0  0  0  0  0  0  0  0
    2.7148   -2.8544    0.0000 N   0  0  0  0  0  0  0  0  0
    2.4599   -2.0697    0.0000 C   0  0  0  0  0  0  0  0  0
    1.6529   -1.8982    0.0000 C   0  0  0  0  0  0  0  0  0
    1.3979   -1.1136    0.0000 N   0  0  0  0  0  0  0  0  0
    0.5910   -0.9421    0.0000 C   0  0  0  0  0  0  0  0  0
    0.3360   -0.1574    0.0000 C   0  0  0  0  0  0  0  0  0
    0.8881    0.4556    0.0000 N   0  0  0  0  0  0  0  0  0
    1.6950    0.2841    0.0000 C   0  0  0  0  0  0  0  0  0
    1.9500   -0.5005    0.0000 C   0  0  0  0  0  0  0  0  0
    0.6331    1.2403    0.0000 C   0  0  0  0  0  0  0  0  0
   -0.1738    1.4118    0.0000 C   0  0  0  0  0  0  0  0  0
   -0.4288    2.1964    0.0000 C   0  0  0  0  0  0  0  0  0
    0.1232    2.8095    0.0000 C   0  0  0  0  0  0  0  0  0
    0.9302    2.6380    0.0000 C   0  0  0  0  0  0  0  0  0
    1.1852    1.8534    0.0000 C   0  0  0  0  0  0  0  0  0
    4.2139   -2.6968    0.0000 C   0  0  0  0  0  0  0  0  0
    4.9284   -3.1093    0.0000 C   0  0  0  0  0  0  0  0  0
    4.9284   -3.9343    0.0000 C   0  0  0  0  0  0  0  0  0
    4.2139   -4.3468    0.0000 C   0  0  0  0  0  0  0  0  0
  1  2  2  0  0  0  0
  2  3  1  0  0  0  0
  2  6  1  0  0  0  0
  3  4  1  0  0  0  0
  4  5  4  0  0  0  0
  4 24  4  0  0  0  0
  5  6  1  0  0  0  0
  5 21  4  0  0  0  0
  6  7  1  0  0  0  0
  7  8  1  0  0  0  0
  8  9  1  0  0  0  0
  9 10  1  0  0  0  0
  9 14  1  0  0  0  0
 10 11  1  0  0  0  0
 11 12  1  0  0  0  0
 12 13  1  0  0  0  0
 12 15  1  0  0  0  0
 13 14  1  0  0  0  0
 15 16  4  0  0  0  0
 15 20  4  0  0  0  0
 16 17  4  0  0  0  0
 17 18  4  0  0  0  0
 18 19  4  0  0  0  0
 19 20  4  0  0  0  0
 21 22  4  0  0  0  0
 22 23  4  0  0  0  0
 23 24  4  0  0  0  0
M  END
>  <Name_Molregno>
497522

>  <5-HT7>
5.99

$$$$
497523
  Marvin  02231216192D 0   1.00000     0.00000     0

 26 29  0  0  0  0  0  0  0  0999 V2000
   -3.0018   -2.3536    0.0000 O   0  0  0  0  0  0  0  0  0
   -2.4497   -2.9666    0.0000 C   0  0  0  0  0  0  0  0  0
   -3.8087   -2.5251    0.0000 C   0  0  0  0  0  0  0  0  0
   -4.0637   -3.3097    0.0000 C   0  0  0  0  0  0  0  0  0
   -4.8706   -3.4812    0.0000 C   0  0  0  0  0  0  0  0  0
   -5.4227   -2.8681    0.0000 C   0  0  0  0  0  0  0  0  0
   -5.1677   -2.0835    0.0000 C   0  0  0  0  0  0  0  0  0
   -4.3608   -1.9120    0.0000 C   0  0  0  0  0  0  0  0  0
   -4.1058   -1.1274    0.0000 N   0  0  0  0  0  0  0  0  0
   -4.6579   -0.5143    0.0000 C   0  0  0  0  0  0  0  0  0
   -4.4029    0.2704    0.0000 C   0  0  0  0  0  0  0  0  0
   -3.5959    0.4419    0.0000 N   0  0  0  0  0  0  0  0  0
   -3.0439   -0.1712    0.0000 C   0  0  0  0  0  0  0  0  0
   -3.2988   -0.9558    0.0000 C   0  0  0  0  0  0  0  0  0
   -3.3410    1.2265    0.0000 C   0  0  0  0  0  0  0  0  0
   -2.5340    1.3980    0.0000 C   0  0  0  0  0  0  0  0  0
   -2.2791    2.1826    0.0000 N   0  0  0  0  0  0  0  0  0
   -1.4945    2.4376    0.0000 C   0  0  0  0  0  0  0  0  0
   -1.4945    3.2626    0.0000 C   0  0  0  0  0  0  0  0  0
   -2.2791    3.5175    0.0000 N   0  0  0  0  0  0  0  0  0
   -2.7640    2.8501    0.0000 C   0  0  0  0  0  0  0  0  0
   -3.5890    2.8501    0.0000 O   0  0  0  0  0  0  0  0  0
   -0.7800    3.6751    0.0000 C   0  0  0  0  0  0  0  0  0
   -0.0655    3.2626    0.0000 C   0  0  0  0  0  0  0  0  0
   -0.0655    2.4376    0.0000 C   0  0  0  0  0  0  0  0  0
   -0.7800    2.0251    0.0000 C   0  0  0  0  0  0  0  0  0
  1  2  1  0  0  0  0
  1  3  1  0  0  0  0
  3  4  4  0  0  0  0
  3  8  4  0  0  0  0
  4  5  4  0  0  0  0
  5  6  4  0  0  0  0
  6  7  4  0  0  0  0
  7  8  4  0  0  0  0
  8  9  1  0  0  0  0
  9 10  1  0  0  0  0
  9 14  1  0  0  0  0
 10 11  1  0  0  0  0
 11 12  1  0  0  0  0
 12 13  1  0  0  0  0
 12 15  1  0  0  0  0
 13 14  1  0  0  0  0
 15 16  1  0  0  0  0
 16 17  1  0  0  0  0
 17 18  1  0  0  0  0
 17 21  1  0  0  0  0
 18 19  4  0  0  0  0
 18 26  4  0  0  0  0
 19 20  1  0  0  0  0
 19 23  4  0  0  0  0
 20 21  1  0  0  0  0
 21 22  2  0  0  0  0
 23 24  4  0  0  0  0
 24 25  4  0  0  0  0
 25 26  4  0  0  0  0
M  END
>  <Name_Molregno>
497523

>  <5-HT7>
5.74

$$$$
497524
  Marvin  02231216192D 0   1.00000     0.00000     0

 25 28  0  0  0  0  0  0  0  0999 V2000
   -0.9696   -0.8195    0.0000 O   0  0  0  0  0  0  0  0  0
   -0.1446   -0.8195    0.0000 C   0  0  0  0  0  0  0  0  0
    0.3403   -1.4869    0.0000 N   0  0  0  0  0  0  0  0  0
    1.1250   -1.2320    0.0000 C   0  0  0  0  0  0  0  0  0
    1.1250   -0.4070    0.0000 C   0  0  0  0  0  0  0  0  0
    0.3403   -0.1521    0.0000 N   0  0  0  0  0  0  0  0  0
    0.0854    0.6326    0.0000 C   0  0  0  0  0  0  0  0  0
   -0.7216    0.8041    0.0000 C   0  0  0  0  0  0  0  0  0
   -0.9765    1.5887    0.0000 C   0  0  0  0  0  0  0  0  0
   -1.7835    1.7602    0.0000 N   0  0  0  0  0  0  0  0  0
   -2.3355    1.1471    0.0000 C   0  0  0  0  0  0  0  0  0
   -3.1425    1.3187    0.0000 C   0  0  0  0  0  0  0  0  0
   -3.3974    2.1033    0.0000 N   0  0  0  0  0  0  0  0  0
   -2.8454    2.7164    0.0000 C   0  0  0  0  0  0  0  0  0
   -2.0384    2.5449    0.0000 C   0  0  0  0  0  0  0  0  0
   -4.2044    2.2748    0.0000 C   0  0  0  0  0  0  0  0  0
   -4.7564    1.6617    0.0000 C   0  0  0  0  0  0  0  0  0
   -5.5634    1.8333    0.0000 C   0  0  0  0  0  0  0  0  0
   -5.8183    2.6179    0.0000 C   0  0  0  0  0  0  0  0  0
   -5.2663    3.2310    0.0000 C   0  0  0  0  0  0  0  0  0
   -4.4593    3.0594    0.0000 C   0  0  0  0  0  0  0  0  0
    1.8394    0.0055    0.0000 C   0  0  0  0  0  0  0  0  0
    2.5539   -0.4070    0.0000 C   0  0  0  0  0  0  0  0  0
    2.5539   -1.2320    0.0000 C   0  0  0  0  0  0  0  0  0
    1.8394   -1.6445    0.0000 C   0  0  0  0  0  0  0  0  0
  1  2  2  0  0  0  0
  2  3  1  0  0  0  0
  2  6  1  0  0  0  0
  3  4  1  0  0  0  0
  4  5  4  0  0  0  0
  4 25  4  0  0  0  0
  5  6  1  0  0  0  0
  5 22  4  0  0  0  0
  6  7  1  0  0  0  0
  7  8  1  0  0  0  0
  8  9  1  0  0  0  0
  9 10  1  0  0  0  0
 10 11  1  0  0  0  0
 10 15  1  0  0  0  0
 11 12  1  0  0  0  0
 12 13  1  0  0  0  0
 13 14  1  0  0  0  0
 13 16  1  0  0  0  0
 14 15  1  0  0  0  0
 16 17  4  0  0  0  0
 16 21  4  0  0  0  0
 17 18  4  0  0  0  0
 18 19  4  0  0  0  0
 19 20  4  0  0  0  0
 20 21  4  0  0  0  0
 22 23  4  0  0  0  0
 23 24  4  0  0  0  0
 24 25  4  0  0  0  0
M  END
>  <Name_Molregno>
497524

>  <5-HT7>
6.61

$$$$
497525
  Marvin  02231216192D 0   1.00000     0.00000     0

 27 30  0  0  0  0  0  0  0  0999 V2000
   -5.5732   -2.9719    0.0000 O   0  0  0  0  0  0  0  0  0
   -5.8282   -3.7566    0.0000 C   0  0  0  0  0  0  0  0  0
   -6.1253   -2.3588    0.0000 C   0  0  0  0  0  0  0  0  0
   -6.9323   -2.5304    0.0000 C   0  0  0  0  0  0  0  0  0
   -7.4843   -1.9173    0.0000 C   0  0  0  0  0  0  0  0  0
   -7.2293   -1.1327    0.0000 C   0  0  0  0  0  0  0  0  0
   -6.4224   -0.9611    0.0000 C   0  0  0  0  0  0  0  0  0
   -5.8703   -1.5742    0.0000 C   0  0  0  0  0  0  0  0  0
   -5.0634   -1.4027    0.0000 N   0  0  0  0  0  0  0  0  0
   -4.8084   -0.6181    0.0000 C   0  0  0  0  0  0  0  0  0
   -4.0015   -0.4465    0.0000 C   0  0  0  0  0  0  0  0  0
   -3.4494   -1.0596    0.0000 N   0  0  0  0  0  0  0  0  0
   -3.7044   -1.8443    0.0000 C   0  0  0  0  0  0  0  0  0
   -4.5113   -2.0158    0.0000 C   0  0  0  0  0  0  0  0  0
   -2.6425   -0.8881    0.0000 C   0  0  0  0  0  0  0  0  0
   -2.3875   -0.1035    0.0000 C   0  0  0  0  0  0  0  0  0
   -1.5805    0.0680    0.0000 C   0  0  0  0  0  0  0  0  0
   -1.3256    0.8527    0.0000 N   0  0  0  0  0  0  0  0  0
   -0.5410    1.1076    0.0000 C   0  0  0  0  0  0  0  0  0
   -0.5410    1.9326    0.0000 C   0  0  0  0  0  0  0  0  0
   -1.3256    2.1875    0.0000 N   0  0  0  0  0  0  0  0  0
   -1.8105    1.5201    0.0000 C   0  0  0  0  0  0  0  0  0
   -2.6355    1.5201    0.0000 O   0  0  0  0  0  0  0  0  0
    0.1735    2.3451    0.0000 C   0  0  0  0  0  0  0  0  0
    0.8880    1.9326    0.0000 C   0  0  0  0  0  0  0  0  0
    0.8880    1.1076    0.0000 C   0  0  0  0  0  0  0  0  0
    0.1735    0.6951    0.0000 C   0  0  0  0  0  0  0  0  0
  1  2  1  0  0  0  0
  1  3  1  0  0  0  0
  3  4  4  0  0  0  0
  3  8  4  0  0  0  0
  4  5  4  0  0  0  0
  5  6  4  0  0  0  0
  6  7  4  0  0  0  0
  7  8  4  0  0  0  0
  8  9  1  0  0  0  0
  9 10  1  0  0  0  0
  9 14  1  0  0  0  0
 10 11  1  0  0  0  0
 11 12  1  0  0  0  0
 12 13  1  0  0  0  0
 12 15  1  0  0  0  0
 13 14  1  0  0  0  0
 15 16  1  0  0  0  0
 16 17  1  0  0  0  0
 17 18  1  0  0  0  0
 18 19  1  0  0  0  0
 18 22  1  0  0  0  0
 19 20  4  0  0  0  0
 19 27  4  0  0  0  0
 20 21  1  0  0  0  0
 20 24  4  0  0  0  0
 21 22  1  0  0  0  0
 22 23  2  0  0  0  0
 24 25  4  0  0  0  0
 25 26  4  0  0  0  0
 26 27  4  0  0  0  0
M  END
>  <Name_Molregno>
497525

>  <5-HT7>
7.4

$$$$
498068
  Marvin  02231216192D 0   1.00000     0.00000     0

 30 34  0  0  0  0  0  0  0  0999 V2000
   -0.0900   -2.5834    0.0000 O   0  0  0  0  0  0  0  0  0
    0.7350   -2.5834    0.0000 C   0  0  0  0  0  0  0  0  0
    1.2199   -3.2508    0.0000 N   0  0  0  0  0  0  0  0  0
    2.0045   -2.9959    0.0000 C   0  0  0  0  0  0  0  0  0
    2.0045   -2.1709    0.0000 C   0  0  0  0  0  0  0  0  0
    1.2199   -1.9160    0.0000 N   0  0  0  0  0  0  0  0  0
    0.9650   -1.1313    0.0000 C   0  0  0  0  0  0  0  0  0
    1.5170   -0.5182    0.0000 C   0  0  0  0  0  0  0  0  0
    1.2620    0.2664    0.0000 N   0  0  0  0  0  0  0  0  0
    0.4551    0.4379    0.0000 C   0  0  0  0  0  0  0  0  0
    0.2001    1.2225    0.0000 C   0  0  0  0  0  0  0  0  0
    0.7522    1.8356    0.0000 N   0  0  0  0  0  0  0  0  0
    1.5591    1.6641    0.0000 C   0  0  0  0  0  0  0  0  0
    1.8141    0.8795    0.0000 C   0  0  0  0  0  0  0  0  0
    0.4972    2.6202    0.0000 C   0  0  0  0  0  0  0  0  0
   -0.3097    2.7918    0.0000 C   0  0  0  0  0  0  0  0  0
   -0.5647    3.5764    0.0000 C   0  0  0  0  0  0  0  0  0
   -0.0127    4.1895    0.0000 C   0  0  0  0  0  0  0  0  0
    0.7943    4.0180    0.0000 C   0  0  0  0  0  0  0  0  0
    1.0493    3.2333    0.0000 C   0  0  0  0  0  0  0  0  0
    2.7190   -1.7584    0.0000 C   0  0  0  0  0  0  0  0  0
    3.4335   -2.1709    0.0000 C   0  0  0  0  0  0  0  0  0
    3.4335   -2.9959    0.0000 C   0  0  0  0  0  0  0  0  0
    2.7190   -3.4084    0.0000 C   0  0  0  0  0  0  0  0  0
    0.9650   -4.0355    0.0000 C   0  0  0  0  0  0  0  0  0
    1.5170   -4.6486    0.0000 C   0  0  0  0  0  0  0  0  0
    1.2620   -5.4332    0.0000 C   0  0  0  0  0  0  0  0  0
    0.4551   -5.6047    0.0000 C   0  0  0  0  0  0  0  0  0
   -0.0970   -4.9916    0.0000 C   0  0  0  0  0  0  0  0  0
    0.1580   -4.2070    0.0000 C   0  0  0  0  0  0  0  0  0
  1  2  2  0  0  0  0
  2  3  1  0  0  0  0
  2  6  1  0  0  0  0
  3  4  1  0  0  0  0
  3 25  1  0  0  0  0
  4  5  4  0  0  0  0
  4 24  4  0  0  0  0
  5  6  1  0  0  0  0
  5 21  4  0  0  0  0
  6  7  1  0  0  0  0
  7  8  1  0  0  0  0
  8  9  1  0  0  0  0
  9 10  1  0  0  0  0
  9 14  1  0  0  0  0
 10 11  1  0  0  0  0
 11 12  1  0  0  0  0
 12 13  1  0  0  0  0
 12 15  1  0  0  0  0
 13 14  1  0  0  0  0
 15 16  4  0  0  0  0
 15 20  4  0  0  0  0
 16 17  4  0  0  0  0
 17 18  4  0  0  0  0
 18 19  4  0  0  0  0
 19 20  4  0  0  0  0
 21 22  4  0  0  0  0
 22 23  4  0  0  0  0
 23 24  4  0  0  0  0
 25 26  4  0  0  0  0
 25 30  4  0  0  0  0
 26 27  4  0  0  0  0
 27 28  4  0  0  0  0
 28 29  4  0  0  0  0
 29 30  4  0  0  0  0
M  END
>  <Name_Molregno>
498068

>  <5-HT7>
5.91

$$$$
498069
  Marvin  02231216192D 0   1.00000     0.00000     0

 31 35  0  0  0  0  0  0  0  0999 V2000
    0.2526   -2.7121    0.0000 O   0  0  0  0  0  0  0  0  0
    1.0776   -2.7121    0.0000 C   0  0  0  0  0  0  0  0  0
    1.5625   -3.3795    0.0000 N   0  0  0  0  0  0  0  0  0
    2.3471   -3.1246    0.0000 C   0  0  0  0  0  0  0  0  0
    2.3471   -2.2996    0.0000 C   0  0  0  0  0  0  0  0  0
    1.5625   -2.0446    0.0000 N   0  0  0  0  0  0  0  0  0
    1.3075   -1.2600    0.0000 C   0  0  0  0  0  0  0  0  0
    1.8596   -0.6469    0.0000 C   0  0  0  0  0  0  0  0  0
    1.6046    0.1377    0.0000 N   0  0  0  0  0  0  0  0  0
    0.7977    0.3092    0.0000 C   0  0  0  0  0  0  0  0  0
    0.5427    1.0939    0.0000 C   0  0  0  0  0  0  0  0  0
    1.0948    1.7070    0.0000 N   0  0  0  0  0  0  0  0  0
    1.9017    1.5354    0.0000 C   0  0  0  0  0  0  0  0  0
    2.1567    0.7508    0.0000 C   0  0  0  0  0  0  0  0  0
    0.8398    2.4916    0.0000 C   0  0  0  0  0  0  0  0  0
    0.0328    2.6631    0.0000 C   0  0  0  0  0  0  0  0  0
   -0.2221    3.4477    0.0000 C   0  0  0  0  0  0  0  0  0
    0.3299    4.0608    0.0000 C   0  0  0  0  0  0  0  0  0
    1.1369    3.8893    0.0000 C   0  0  0  0  0  0  0  0  0
    1.3919    3.1047    0.0000 C   0  0  0  0  0  0  0  0  0
    3.0616   -1.8871    0.0000 C   0  0  0  0  0  0  0  0  0
    3.7760   -2.2996    0.0000 C   0  0  0  0  0  0  0  0  0
    3.7760   -3.1246    0.0000 C   0  0  0  0  0  0  0  0  0
    3.0616   -3.5371    0.0000 C   0  0  0  0  0  0  0  0  0
    1.3075   -4.1641    0.0000 C   0  0  0  0  0  0  0  0  0
    1.8596   -4.7772    0.0000 C   0  0  0  0  0  0  0  0  0
    1.6046   -5.5618    0.0000 C   0  0  0  0  0  0  0  0  0
    0.7977   -5.7334    0.0000 C   0  0  0  0  0  0  0  0  0
    0.2456   -5.1203    0.0000 C   0  0  0  0  0  0  0  0  0
    0.5006   -4.3357    0.0000 C   0  0  0  0  0  0  0  0  0
   -0.0515   -3.7226    0.0000 C   0  0  0  0  0  0  0  0  0
  1  2  2  0  0  0  0
  2  3  1  0  0  0  0
  2  6  1  0  0  0  0
  3  4  1  0  0  0  0
  3 25  1  0  0  0  0
  4  5  4  0  0  0  0
  4 24  4  0  0  0  0
  5  6  1  0  0  0  0
  5 21  4  0  0  0  0
  6  7  1  0  0  0  0
  7  8  1  0  0  0  0
  8  9  1  0  0  0  0
  9 10  1  0  0  0  0
  9 14  1  0  0  0  0
 10 11  1  0  0  0  0
 11 12  1  0  0  0  0
 12 13  1  0  0  0  0
 12 15  1  0  0  0  0
 13 14  1  0  0  0  0
 15 16  4  0  0  0  0
 15 20  4  0  0  0  0
 16 17  4  0  0  0  0
 17 18  4  0  0  0  0
 18 19  4  0  0  0  0
 19 20  4  0  0  0  0
 21 22  4  0  0  0  0
 22 23  4  0  0  0  0
 23 24  4  0  0  0  0
 25 26  4  0  0  0  0
 25 30  4  0  0  0  0
 26 27  4  0  0  0  0
 27 28  4  0  0  0  0
 28 29  4  0  0  0  0
 29 30  4  0  0  0  0
 30 31  1  0  0  0  0
M  END
>  <Name_Molregno>
498069

>  <5-HT7>
6.04

$$$$
498153
  Marvin  02231216192D 0   1.00000     0.00000     0

 32 36  0  0  0  0  0  0  0  0999 V2000
   -5.9062   -3.4723    0.0000 O   0  0  0  0  0  0  0  0  0
   -6.1611   -4.2570    0.0000 C   0  0  0  0  0  0  0  0  0
   -5.0992   -3.3008    0.0000 C   0  0  0  0  0  0  0  0  0
   -4.8443   -2.5162    0.0000 C   0  0  0  0  0  0  0  0  0
   -4.0373   -2.3447    0.0000 C   0  0  0  0  0  0  0  0  0
   -3.7824   -1.5600    0.0000 N   0  0  0  0  0  0  0  0  0
   -2.9978   -1.3051    0.0000 C   0  0  0  0  0  0  0  0  0
   -2.9978   -0.4801    0.0000 C   0  0  0  0  0  0  0  0  0
   -3.7824   -0.2252    0.0000 N   0  0  0  0  0  0  0  0  0
   -4.0373    0.5595    0.0000 C   0  0  0  0  0  0  0  0  0
   -4.8443    0.7310    0.0000 C   0  0  0  0  0  0  0  0  0
   -5.0992    1.5156    0.0000 N   0  0  0  0  0  0  0  0  0
   -5.9062    1.6871    0.0000 C   0  0  0  0  0  0  0  0  0
   -6.1611    2.4718    0.0000 C   0  0  0  0  0  0  0  0  0
   -5.6091    3.0848    0.0000 N   0  0  0  0  0  0  0  0  0
   -4.8021    2.9133    0.0000 C   0  0  0  0  0  0  0  0  0
   -4.5472    2.1287    0.0000 C   0  0  0  0  0  0  0  0  0
   -5.8640    3.8695    0.0000 C   0  0  0  0  0  0  0  0  0
   -6.6710    4.0410    0.0000 C   0  0  0  0  0  0  0  0  0
   -6.9260    4.8256    0.0000 C   0  0  0  0  0  0  0  0  0
   -6.3739    5.4387    0.0000 C   0  0  0  0  0  0  0  0  0
   -5.5669    5.2672    0.0000 C   0  0  0  0  0  0  0  0  0
   -5.3120    4.4826    0.0000 C   0  0  0  0  0  0  0  0  0
   -4.2673   -0.8926    0.0000 C   0  0  0  0  0  0  0  0  0
   -5.0923   -0.8926    0.0000 O   0  0  0  0  0  0  0  0  0
   -2.2833   -0.0676    0.0000 C   0  0  0  0  0  0  0  0  0
   -1.5688   -0.4801    0.0000 C   0  0  0  0  0  0  0  0  0
   -1.5688   -1.3051    0.0000 C   0  0  0  0  0  0  0  0  0
   -2.2833   -1.7176    0.0000 C   0  0  0  0  0  0  0  0  0
   -3.4853   -2.9578    0.0000 C   0  0  0  0  0  0  0  0  0
   -3.7402   -3.7424    0.0000 C   0  0  0  0  0  0  0  0  0
   -4.5472   -3.9139    0.0000 C   0  0  0  0  0  0  0  0  0
  1  2  1  0  0  0  0
  1  3  1  0  0  0  0
  3  4  4  0  0  0  0
  3 32  4  0  0  0  0
  4  5  4  0  0  0  0
  5  6  1  0  0  0  0
  5 30  4  0  0  0  0
  6  7  1  0  0  0  0
  6 24  1  0  0  0  0
  7  8  4  0  0  0  0
  7 29  4  0  0  0  0
  8  9  1  0  0  0  0
  8 26  4  0  0  0  0
  9 10  1  0  0  0  0
  9 24  1  0  0  0  0
 10 11  1  0  0  0  0
 11 12  1  0  0  0  0
 12 13  1  0  0  0  0
 12 17  1  0  0  0  0
 13 14  1  0  0  0  0
 14 15  1  0  0  0  0
 15 16  1  0  0  0  0
 15 18  1  0  0  0  0
 16 17  1  0  0  0  0
 18 19  4  0  0  0  0
 18 23  4  0  0  0  0
 19 20  4  0  0  0  0
 20 21  4  0  0  0  0
 21 22  4  0  0  0  0
 22 23  4  0  0  0  0
 24 25  2  0  0  0  0
 26 27  4  0  0  0  0
 27 28  4  0  0  0  0
 28 29  4  0  0  0  0
 30 31  4  0  0  0  0
 31 32  4  0  0  0  0
M  END
>  <Name_Molregno>
498153

>  <5-HT7>
6.06

$$$$
498154
  Marvin  02231216192D 0   1.00000     0.00000     0

 32 36  0  0  0  0  0  0  0  0999 V2000
    4.6067   -5.6225    0.0000 O   0  0  0  0  0  0  0  0  0
    5.1588   -6.2356    0.0000 C   0  0  0  0  0  0  0  0  0
    4.8617   -4.8379    0.0000 C   0  0  0  0  0  0  0  0  0
    4.3096   -4.2248    0.0000 C   0  0  0  0  0  0  0  0  0
    4.5646   -3.4401    0.0000 C   0  0  0  0  0  0  0  0  0
    5.3716   -3.2686    0.0000 C   0  0  0  0  0  0  0  0  0
    5.6265   -2.4840    0.0000 N   0  0  0  0  0  0  0  0  0
    6.4111   -2.2291    0.0000 C   0  0  0  0  0  0  0  0  0
    6.4111   -1.4041    0.0000 C   0  0  0  0  0  0  0  0  0
    5.6265   -1.1491    0.0000 N   0  0  0  0  0  0  0  0  0
    5.3716   -0.3645    0.0000 C   0  0  0  0  0  0  0  0  0
    4.5646   -0.1930    0.0000 C   0  0  0  0  0  0  0  0  0
    4.3096    0.5917    0.0000 N   0  0  0  0  0  0  0  0  0
    3.5027    0.7632    0.0000 C   0  0  0  0  0  0  0  0  0
    3.2477    1.5478    0.0000 C   0  0  0  0  0  0  0  0  0
    3.7998    2.1609    0.0000 N   0  0  0  0  0  0  0  0  0
    4.6067    1.9894    0.0000 C   0  0  0  0  0  0  0  0  0
    4.8617    1.2047    0.0000 C   0  0  0  0  0  0  0  0  0
    3.5448    2.9455    0.0000 C   0  0  0  0  0  0  0  0  0
    2.7379    3.1170    0.0000 C   0  0  0  0  0  0  0  0  0
    2.4829    3.9017    0.0000 C   0  0  0  0  0  0  0  0  0
    3.0349    4.5148    0.0000 C   0  0  0  0  0  0  0  0  0
    3.8419    4.3432    0.0000 C   0  0  0  0  0  0  0  0  0
    4.0969    3.5586    0.0000 C   0  0  0  0  0  0  0  0  0
    5.1416   -1.8166    0.0000 C   0  0  0  0  0  0  0  0  0
    4.3166   -1.8166    0.0000 O   0  0  0  0  0  0  0  0  0
    7.1256   -0.9916    0.0000 C   0  0  0  0  0  0  0  0  0
    7.8401   -1.4041    0.0000 C   0  0  0  0  0  0  0  0  0
    7.8401   -2.2291    0.0000 C   0  0  0  0  0  0  0  0  0
    7.1256   -2.6416    0.0000 C   0  0  0  0  0  0  0  0  0
    5.9236   -3.8817    0.0000 C   0  0  0  0  0  0  0  0  0
    5.6686   -4.6663    0.0000 C   0  0  0  0  0  0  0  0  0
  1  2  1  0  0  0  0
  1  3  1  0  0  0  0
  3  4  4  0  0  0  0
  3 32  4  0  0  0  0
  4  5  4  0  0  0  0
  5  6  4  0  0  0  0
  6  7  1  0  0  0  0
  6 31  4  0  0  0  0
  7  8  1  0  0  0  0
  7 25  1  0  0  0  0
  8  9  4  0  0  0  0
  8 30  4  0  0  0  0
  9 10  1  0  0  0  0
  9 27  4  0  0  0  0
 10 11  1  0  0  0  0
 10 25  1  0  0  0  0
 11 12  1  0  0  0  0
 12 13  1  0  0  0  0
 13 14  1  0  0  0  0
 13 18  1  0  0  0  0
 14 15  1  0  0  0  0
 15 16  1  0  0  0  0
 16 17  1  0  0  0  0
 16 19  1  0  0  0  0
 17 18  1  0  0  0  0
 19 20  4  0  0  0  0
 19 24  4  0  0  0  0
 20 21  4  0  0  0  0
 21 22  4  0  0  0  0
 22 23  4  0  0  0  0
 23 24  4  0  0  0  0
 25 26  2  0  0  0  0
 27 28  4  0  0  0  0
 28 29  4  0  0  0  0
 29 30  4  0  0  0  0
 31 32  4  0  0  0  0
M  END
>  <Name_Molregno>
498154

>  <5-HT7>
6.25

$$$$
498155
  Marvin  02231216192D 0   1.00000     0.00000     0

 31 35  0  0  0  0  0  0  0  0999 V2000
   -0.0059   -2.6665    0.0000 O   0  0  0  0  0  0  0  0  0
    0.8191   -2.6665    0.0000 C   0  0  0  0  0  0  0  0  0
    1.3040   -3.3340    0.0000 N   0  0  0  0  0  0  0  0  0
    2.0886   -3.0790    0.0000 C   0  0  0  0  0  0  0  0  0
    2.0886   -2.2540    0.0000 C   0  0  0  0  0  0  0  0  0
    1.3040   -1.9991    0.0000 N   0  0  0  0  0  0  0  0  0
    1.0491   -1.2145    0.0000 C   0  0  0  0  0  0  0  0  0
    1.6011   -0.6014    0.0000 C   0  0  0  0  0  0  0  0  0
    1.3462    0.1832    0.0000 N   0  0  0  0  0  0  0  0  0
    0.5392    0.3548    0.0000 C   0  0  0  0  0  0  0  0  0
    0.2842    1.1394    0.0000 C   0  0  0  0  0  0  0  0  0
    0.8363    1.7525    0.0000 N   0  0  0  0  0  0  0  0  0
    1.6432    1.5809    0.0000 C   0  0  0  0  0  0  0  0  0
    1.8982    0.7963    0.0000 C   0  0  0  0  0  0  0  0  0
    0.5813    2.5371    0.0000 C   0  0  0  0  0  0  0  0  0
   -0.2256    2.7086    0.0000 C   0  0  0  0  0  0  0  0  0
   -0.4806    3.4932    0.0000 C   0  0  0  0  0  0  0  0  0
    0.0715    4.1063    0.0000 C   0  0  0  0  0  0  0  0  0
    0.8784    3.9348    0.0000 C   0  0  0  0  0  0  0  0  0
    1.1334    3.1502    0.0000 C   0  0  0  0  0  0  0  0  0
    1.9403    2.9787    0.0000 C   0  0  0  0  0  0  0  0  0
    2.8031   -1.8415    0.0000 C   0  0  0  0  0  0  0  0  0
    3.5176   -2.2540    0.0000 C   0  0  0  0  0  0  0  0  0
    3.5176   -3.0790    0.0000 C   0  0  0  0  0  0  0  0  0
    2.8031   -3.4915    0.0000 C   0  0  0  0  0  0  0  0  0
    1.0491   -4.1186    0.0000 C   0  0  0  0  0  0  0  0  0
    1.6011   -4.7317    0.0000 C   0  0  0  0  0  0  0  0  0
    1.3462   -5.5163    0.0000 C   0  0  0  0  0  0  0  0  0
    0.5392   -5.6879    0.0000 C   0  0  0  0  0  0  0  0  0
   -0.0129   -5.0748    0.0000 C   0  0  0  0  0  0  0  0  0
    0.2421   -4.2901    0.0000 C   0  0  0  0  0  0  0  0  0
  1  2  2  0  0  0  0
  2  3  1  0  0  0  0
  2  6  1  0  0  0  0
  3  4  1  0  0  0  0
  3 26  1  0  0  0  0
  4  5  4  0  0  0  0
  4 25  4  0  0  0  0
  5  6  1  0  0  0  0
  5 22  4  0  0  0  0
  6  7  1  0  0  0  0
  7  8  1  0  0  0  0
  8  9  1  0  0  0  0
  9 10  1  0  0  0  0
  9 14  1  0  0  0  0
 10 11  1  0  0  0  0
 11 12  1  0  0  0  0
 12 13  1  0  0  0  0
 12 15  1  0  0  0  0
 13 14  1  0  0  0  0
 15 16  4  0  0  0  0
 15 20  4  0  0  0  0
 16 17  4  0  0  0  0
 17 18  4  0  0  0  0
 18 19  4  0  0  0  0
 19 20  4  0  0  0  0
 20 21  1  0  0  0  0
 22 23  4  0  0  0  0
 23 24  4  0  0  0  0
 24 25  4  0  0  0  0
 26 27  4  0  0  0  0
 26 31  4  0  0  0  0
 27 28  4  0  0  0  0
 28 29  4  0  0  0  0
 29 30  4  0  0  0  0
 30 31  4  0  0  0  0
M  END
>  <Name_Molregno>
498155

>  <5-HT7>
5.73

$$$$
498156
  Marvin  02231216192D 0   1.00000     0.00000     0

 32 36  0  0  0  0  0  0  0  0999 V2000
    0.3097   -2.9231    0.0000 O   0  0  0  0  0  0  0  0  0
    1.1347   -2.9231    0.0000 C   0  0  0  0  0  0  0  0  0
    1.6196   -3.5905    0.0000 N   0  0  0  0  0  0  0  0  0
    2.4043   -3.3356    0.0000 C   0  0  0  0  0  0  0  0  0
    2.4043   -2.5106    0.0000 C   0  0  0  0  0  0  0  0  0
    1.6196   -2.2556    0.0000 N   0  0  0  0  0  0  0  0  0
    1.3647   -1.4710    0.0000 C   0  0  0  0  0  0  0  0  0
    1.9167   -0.8579    0.0000 C   0  0  0  0  0  0  0  0  0
    1.6618   -0.0733    0.0000 N   0  0  0  0  0  0  0  0  0
    0.8548    0.0982    0.0000 C   0  0  0  0  0  0  0  0  0
    0.5999    0.8829    0.0000 C   0  0  0  0  0  0  0  0  0
    1.1519    1.4960    0.0000 N   0  0  0  0  0  0  0  0  0
    1.9589    1.3244    0.0000 C   0  0  0  0  0  0  0  0  0
    2.2138    0.5398    0.0000 C   0  0  0  0  0  0  0  0  0
    0.8970    2.2806    0.0000 C   0  0  0  0  0  0  0  0  0
    0.0900    2.4521    0.0000 C   0  0  0  0  0  0  0  0  0
   -0.1649    3.2367    0.0000 C   0  0  0  0  0  0  0  0  0
    0.3871    3.8498    0.0000 C   0  0  0  0  0  0  0  0  0
    1.1941    3.6783    0.0000 C   0  0  0  0  0  0  0  0  0
    1.4490    2.8937    0.0000 C   0  0  0  0  0  0  0  0  0
    2.2560    2.7222    0.0000 C   0  0  0  0  0  0  0  0  0
    3.1187   -2.0981    0.0000 C   0  0  0  0  0  0  0  0  0
    3.8332   -2.5106    0.0000 C   0  0  0  0  0  0  0  0  0
    3.8332   -3.3356    0.0000 C   0  0  0  0  0  0  0  0  0
    3.1187   -3.7481    0.0000 C   0  0  0  0  0  0  0  0  0
    1.3647   -4.3751    0.0000 C   0  0  0  0  0  0  0  0  0
    1.9167   -4.9882    0.0000 C   0  0  0  0  0  0  0  0  0
    1.6618   -5.7728    0.0000 C   0  0  0  0  0  0  0  0  0
    0.8548   -5.9444    0.0000 C   0  0  0  0  0  0  0  0  0
    0.3028   -5.3313    0.0000 C   0  0  0  0  0  0  0  0  0
    0.5577   -4.5466    0.0000 C   0  0  0  0  0  0  0  0  0
    0.0057   -3.9335    0.0000 C   0  0  0  0  0  0  0  0  0
  1  2  2  0  0  0  0
  2  3  1  0  0  0  0
  2  6  1  0  0  0  0
  3  4  1  0  0  0  0
  3 26  1  0  0  0  0
  4  5  4  0  0  0  0
  4 25  4  0  0  0  0
  5  6  1  0  0  0  0
  5 22  4  0  0  0  0
  6  7  1  0  0  0  0
  7  8  1  0  0  0  0
  8  9  1  0  0  0  0
  9 10  1  0  0  0  0
  9 14  1  0  0  0  0
 10 11  1  0  0  0  0
 11 12  1  0  0  0  0
 12 13  1  0  0  0  0
 12 15  1  0  0  0  0
 13 14  1  0  0  0  0
 15 16  4  0  0  0  0
 15 20  4  0  0  0  0
 16 17  4  0  0  0  0
 17 18  4  0  0  0  0
 18 19  4  0  0  0  0
 19 20  4  0  0  0  0
 20 21  1  0  0  0  0
 22 23  4  0  0  0  0
 23 24  4  0  0  0  0
 24 25  4  0  0  0  0
 26 27  4  0  0  0  0
 26 31  4  0  0  0  0
 27 28  4  0  0  0  0
 28 29  4  0  0  0  0
 29 30  4  0  0  0  0
 30 31  4  0  0  0  0
 31 32  1  0  0  0  0
M  END
>  <Name_Molregno>
498156

>  <5-HT7>
4.75

$$$$
498157
  Marvin  02231216192D 0   1.00000     0.00000     0

 26 29  0  0  0  0  0  0  0  0999 V2000
    2.5519   -3.6035    0.0000 O   0  0  0  0  0  0  0  0  0
    3.3769   -3.6035    0.0000 C   0  0  0  0  0  0  0  0  0
    3.8619   -4.2710    0.0000 N   0  0  0  0  0  0  0  0  0
    4.6465   -4.0160    0.0000 C   0  0  0  0  0  0  0  0  0
    4.6465   -3.1910    0.0000 C   0  0  0  0  0  0  0  0  0
    3.8619   -2.9361    0.0000 N   0  0  0  0  0  0  0  0  0
    3.6069   -2.1515    0.0000 C   0  0  0  0  0  0  0  0  0
    2.8000   -1.9799    0.0000 C   0  0  0  0  0  0  0  0  0
    2.5450   -1.1953    0.0000 C   0  0  0  0  0  0  0  0  0
    1.7380   -1.0238    0.0000 C   0  0  0  0  0  0  0  0  0
    1.4831   -0.2392    0.0000 N   0  0  0  0  0  0  0  0  0
    0.6761   -0.0676    0.0000 C   0  0  0  0  0  0  0  0  0
    0.4212    0.7170    0.0000 C   0  0  0  0  0  0  0  0  0
    0.9732    1.3301    0.0000 N   0  0  0  0  0  0  0  0  0
    1.7802    1.1586    0.0000 C   0  0  0  0  0  0  0  0  0
    2.0351    0.3739    0.0000 C   0  0  0  0  0  0  0  0  0
    0.7183    2.1147    0.0000 C   0  0  0  0  0  0  0  0  0
   -0.0887    2.2862    0.0000 C   0  0  0  0  0  0  0  0  0
   -0.3436    3.0709    0.0000 C   0  0  0  0  0  0  0  0  0
    0.2084    3.6840    0.0000 C   0  0  0  0  0  0  0  0  0
    1.0154    3.5124    0.0000 C   0  0  0  0  0  0  0  0  0
    1.2703    2.7278    0.0000 C   0  0  0  0  0  0  0  0  0
    5.3610   -2.7785    0.0000 C   0  0  0  0  0  0  0  0  0
    6.0754   -3.1910    0.0000 C   0  0  0  0  0  0  0  0  0
    6.0754   -4.0160    0.0000 C   0  0  0  0  0  0  0  0  0
    5.3610   -4.4285    0.0000 C   0  0  0  0  0  0  0  0  0
  1  2  2  0  0  0  0
  2  3  1  0  0  0  0
  2  6  1  0  0  0  0
  3  4  1  0  0  0  0
  4  5  4  0  0  0  0
  4 26  4  0  0  0  0
  5  6  1  0  0  0  0
  5 23  4  0  0  0  0
  6  7  1  0  0  0  0
  7  8  1  0  0  0  0
  8  9  1  0  0  0  0
  9 10  1  0  0  0  0
 10 11  1  0  0  0  0
 11 12  1  0  0  0  0
 11 16  1  0  0  0  0
 12 13  1  0  0  0  0
 13 14  1  0  0  0  0
 14 15  1  0  0  0  0
 14 17  1  0  0  0  0
 15 16  1  0  0  0  0
 17 18  4  0  0  0  0
 17 22  4  0  0  0  0
 18 19  4  0  0  0  0
 19 20  4  0  0  0  0
 20 21  4  0  0  0  0
 21 22  4  0  0  0  0
 23 24  4  0  0  0  0
 24 25  4  0  0  0  0
 25 26  4  0  0  0  0
M  END
>  <Name_Molregno>
498157

>  <5-HT7>
7.32

$$$$
498158
  Marvin  02231216192D 0   1.00000     0.00000     0

 28 31  0  0  0  0  0  0  0  0999 V2000
   -6.9767   -0.7501    0.0000 O   0  0  0  0  0  0  0  0  0
   -7.7837   -0.9217    0.0000 C   0  0  0  0  0  0  0  0  0
   -6.7218    0.0345    0.0000 C   0  0  0  0  0  0  0  0  0
   -7.2738    0.6476    0.0000 C   0  0  0  0  0  0  0  0  0
   -7.0188    1.4322    0.0000 C   0  0  0  0  0  0  0  0  0
   -6.2119    1.6037    0.0000 C   0  0  0  0  0  0  0  0  0
   -5.6598    0.9906    0.0000 C   0  0  0  0  0  0  0  0  0
   -5.9148    0.2060    0.0000 C   0  0  0  0  0  0  0  0  0
   -5.3628   -0.4071    0.0000 N   0  0  0  0  0  0  0  0  0
   -4.5558   -0.2355    0.0000 C   0  0  0  0  0  0  0  0  0
   -4.0037   -0.8486    0.0000 C   0  0  0  0  0  0  0  0  0
   -4.2587   -1.6333    0.0000 N   0  0  0  0  0  0  0  0  0
   -5.0657   -1.8048    0.0000 C   0  0  0  0  0  0  0  0  0
   -5.6177   -1.1917    0.0000 C   0  0  0  0  0  0  0  0  0
   -3.7067   -2.2464    0.0000 C   0  0  0  0  0  0  0  0  0
   -2.8997   -2.0748    0.0000 C   0  0  0  0  0  0  0  0  0
   -2.6447   -1.2902    0.0000 C   0  0  0  0  0  0  0  0  0
   -1.8378   -1.1187    0.0000 C   0  0  0  0  0  0  0  0  0
   -1.5828   -0.3341    0.0000 N   0  0  0  0  0  0  0  0  0
   -0.7982   -0.0791    0.0000 C   0  0  0  0  0  0  0  0  0
   -0.7982    0.7459    0.0000 C   0  0  0  0  0  0  0  0  0
   -1.5828    1.0008    0.0000 N   0  0  0  0  0  0  0  0  0
   -2.0678    0.3334    0.0000 C   0  0  0  0  0  0  0  0  0
   -2.8928    0.3334    0.0000 O   0  0  0  0  0  0  0  0  0
   -0.0837    1.1584    0.0000 C   0  0  0  0  0  0  0  0  0
    0.6307    0.7459    0.0000 C   0  0  0  0  0  0  0  0  0
    0.6307   -0.0791    0.0000 C   0  0  0  0  0  0  0  0  0
   -0.0837   -0.4916    0.0000 C   0  0  0  0  0  0  0  0  0
  1  2  1  0  0  0  0
  1  3  1  0  0  0  0
  3  4  4  0  0  0  0
  3  8  4  0  0  0  0
  4  5  4  0  0  0  0
  5  6  4  0  0  0  0
  6  7  4  0  0  0  0
  7  8  4  0  0  0  0
  8  9  1  0  0  0  0
  9 10  1  0  0  0  0
  9 14  1  0  0  0  0
 10 11  1  0  0  0  0
 11 12  1  0  0  0  0
 12 13  1  0  0  0  0
 12 15  1  0  0  0  0
 13 14  1  0  0  0  0
 15 16  1  0  0  0  0
 16 17  1  0  0  0  0
 17 18  1  0  0  0  0
 18 19  1  0  0  0  0
 19 20  1  0  0  0  0
 19 23  1  0  0  0  0
 20 21  4  0  0  0  0
 20 28  4  0  0  0  0
 21 22  1  0  0  0  0
 21 25  4  0  0  0  0
 22 23  1  0  0  0  0
 23 24  2  0  0  0  0
 25 26  4  0  0  0  0
 26 27  4  0  0  0  0
 27 28  4  0  0  0  0
M  END
>  <Name_Molregno>
498158

>  <5-HT7>
7.59

$$$$
498159
  Marvin  02231216192D 0   1.00000     0.00000     0

 27 30  0  0  0  0  0  0  0  0999 V2000
   -4.3766    0.0790    0.0000 O   0  0  0  0  0  0  0  0  0
   -4.9897   -0.4730    0.0000 C   0  0  0  0  0  0  0  0  0
   -5.7966   -0.3015    0.0000 N   0  0  0  0  0  0  0  0  0
   -6.2091   -1.0160    0.0000 C   0  0  0  0  0  0  0  0  0
   -5.6571   -1.6291    0.0000 C   0  0  0  0  0  0  0  0  0
   -4.9034   -1.2935    0.0000 N   0  0  0  0  0  0  0  0  0
   -4.1889   -1.7060    0.0000 C   0  0  0  0  0  0  0  0  0
   -3.4745   -1.2935    0.0000 C   0  0  0  0  0  0  0  0  0
   -2.7600   -1.7060    0.0000 C   0  0  0  0  0  0  0  0  0
   -2.0455   -1.2935    0.0000 C   0  0  0  0  0  0  0  0  0
   -1.3311   -1.7060    0.0000 C   0  0  0  0  0  0  0  0  0
   -0.6166   -1.2935    0.0000 N   0  0  0  0  0  0  0  0  0
   -0.6166   -0.4685    0.0000 C   0  0  0  0  0  0  0  0  0
    0.0979   -0.0560    0.0000 C   0  0  0  0  0  0  0  0  0
    0.8123   -0.4685    0.0000 N   0  0  0  0  0  0  0  0  0
    0.8123   -1.2935    0.0000 C   0  0  0  0  0  0  0  0  0
    0.0979   -1.7060    0.0000 C   0  0  0  0  0  0  0  0  0
    1.5268   -0.0560    0.0000 C   0  0  0  0  0  0  0  0  0
    1.5268    0.7690    0.0000 C   0  0  0  0  0  0  0  0  0
    2.2413    1.1815    0.0000 C   0  0  0  0  0  0  0  0  0
    2.9558    0.7690    0.0000 C   0  0  0  0  0  0  0  0  0
    2.9558   -0.0560    0.0000 C   0  0  0  0  0  0  0  0  0
    2.2413   -0.4685    0.0000 C   0  0  0  0  0  0  0  0  0
   -5.9120   -2.4137    0.0000 C   0  0  0  0  0  0  0  0  0
   -6.7190   -2.5852    0.0000 C   0  0  0  0  0  0  0  0  0
   -7.2710   -1.9721    0.0000 C   0  0  0  0  0  0  0  0  0
   -7.0161   -1.1875    0.0000 C   0  0  0  0  0  0  0  0  0
  1  2  2  0  0  0  0
  2  3  1  0  0  0  0
  2  6  1  0  0  0  0
  3  4  1  0  0  0  0
  4  5  4  0  0  0  0
  4 27  4  0  0  0  0
  5  6  1  0  0  0  0
  5 24  4  0  0  0  0
  6  7  1  0  0  0  0
  7  8  1  0  0  0  0
  8  9  1  0  0  0  0
  9 10  1  0  0  0  0
 10 11  1  0  0  0  0
 11 12  1  0  0  0  0
 12 13  1  0  0  0  0
 12 17  1  0  0  0  0
 13 14  1  0  0  0  0
 14 15  1  0  0  0  0
 15 16  1  0  0  0  0
 15 18  1  0  0  0  0
 16 17  1  0  0  0  0
 18 19  4  0  0  0  0
 18 23  4  0  0  0  0
 19 20  4  0  0  0  0
 20 21  4  0  0  0  0
 21 22  4  0  0  0  0
 22 23  4  0  0  0  0
 24 25  4  0  0  0  0
 25 26  4  0  0  0  0
 26 27  4  0  0  0  0
M  END
>  <Name_Molregno>
498159

>  <5-HT7>
8.22

$$$$
498160
  Marvin  02231216192D 0   1.00000     0.00000     0

 29 32  0  0  0  0  0  0  0  0999 V2000
   -8.0581    0.0161    0.0000 O   0  0  0  0  0  0  0  0  0
   -8.7725   -0.3964    0.0000 C   0  0  0  0  0  0  0  0  0
   -8.0581    0.8411    0.0000 C   0  0  0  0  0  0  0  0  0
   -8.7725    1.2536    0.0000 C   0  0  0  0  0  0  0  0  0
   -8.7725    2.0786    0.0000 C   0  0  0  0  0  0  0  0  0
   -8.0581    2.4911    0.0000 C   0  0  0  0  0  0  0  0  0
   -7.3436    2.0786    0.0000 C   0  0  0  0  0  0  0  0  0
   -7.3436    1.2536    0.0000 C   0  0  0  0  0  0  0  0  0
   -6.6291    0.8411    0.0000 N   0  0  0  0  0  0  0  0  0
   -5.9147    1.2536    0.0000 C   0  0  0  0  0  0  0  0  0
   -5.2002    0.8411    0.0000 C   0  0  0  0  0  0  0  0  0
   -5.2002    0.0161    0.0000 N   0  0  0  0  0  0  0  0  0
   -5.9147   -0.3964    0.0000 C   0  0  0  0  0  0  0  0  0
   -6.6291    0.0161    0.0000 C   0  0  0  0  0  0  0  0  0
   -4.4857   -0.3964    0.0000 C   0  0  0  0  0  0  0  0  0
   -3.7712    0.0161    0.0000 C   0  0  0  0  0  0  0  0  0
   -3.0568   -0.3964    0.0000 C   0  0  0  0  0  0  0  0  0
   -2.3423    0.0161    0.0000 C   0  0  0  0  0  0  0  0  0
   -1.6278   -0.3964    0.0000 C   0  0  0  0  0  0  0  0  0
   -0.9134    0.0161    0.0000 N   0  0  0  0  0  0  0  0  0
   -0.1597   -0.3194    0.0000 C   0  0  0  0  0  0  0  0  0
    0.3923    0.2937    0.0000 C   0  0  0  0  0  0  0  0  0
   -0.0202    1.0082    0.0000 N   0  0  0  0  0  0  0  0  0
   -0.8271    0.8366    0.0000 C   0  0  0  0  0  0  0  0  0
   -1.4402    1.3887    0.0000 O   0  0  0  0  0  0  0  0  0
    1.1993    0.1222    0.0000 C   0  0  0  0  0  0  0  0  0
    1.4543   -0.6625    0.0000 C   0  0  0  0  0  0  0  0  0
    0.9022   -1.2756    0.0000 C   0  0  0  0  0  0  0  0  0
    0.0953   -1.1040    0.0000 C   0  0  0  0  0  0  0  0  0
  1  2  1  0  0  0  0
  1  3  1  0  0  0  0
  3  4  4  0  0  0  0
  3  8  4  0  0  0  0
  4  5  4  0  0  0  0
  5  6  4  0  0  0  0
  6  7  4  0  0  0  0
  7  8  4  0  0  0  0
  8  9  1  0  0  0  0
  9 10  1  0  0  0  0
  9 14  1  0  0  0  0
 10 11  1  0  0  0  0
 11 12  1  0  0  0  0
 12 13  1  0  0  0  0
 12 15  1  0  0  0  0
 13 14  1  0  0  0  0
 15 16  1  0  0  0  0
 16 17  1  0  0  0  0
 17 18  1  0  0  0  0
 18 19  1  0  0  0  0
 19 20  1  0  0  0  0
 20 21  1  0  0  0  0
 20 24  1  0  0  0  0
 21 22  4  0  0  0  0
 21 29  4  0  0  0  0
 22 23  1  0  0  0  0
 22 26  4  0  0  0  0
 23 24  1  0  0  0  0
 24 25  2  0  0  0  0
 26 27  4  0  0  0  0
 27 28  4  0  0  0  0
 28 29  4  0  0  0  0
M  END
>  <Name_Molregno>
498160

>  <5-HT7>
7.42

$$$$
498161
  Marvin  02231216192D 0   1.00000     0.00000     0

 28 31  0  0  0  0  0  0  0  0999 V2000
    0.5853    1.5559    0.0000 O   0  0  0  0  0  0  0  0  0
   -0.0278    1.0038    0.0000 C   0  0  0  0  0  0  0  0  0
   -0.8347    1.1754    0.0000 N   0  0  0  0  0  0  0  0  0
   -1.2472    0.4609    0.0000 C   0  0  0  0  0  0  0  0  0
   -0.6952   -0.1522    0.0000 C   0  0  0  0  0  0  0  0  0
    0.0585    0.1833    0.0000 N   0  0  0  0  0  0  0  0  0
    0.7729   -0.2292    0.0000 C   0  0  0  0  0  0  0  0  0
    1.4874    0.1833    0.0000 C   0  0  0  0  0  0  0  0  0
    2.2019   -0.2292    0.0000 C   0  0  0  0  0  0  0  0  0
    2.9164    0.1833    0.0000 C   0  0  0  0  0  0  0  0  0
    3.6308   -0.2292    0.0000 C   0  0  0  0  0  0  0  0  0
    4.3453    0.1833    0.0000 C   0  0  0  0  0  0  0  0  0
    5.0598   -0.2292    0.0000 N   0  0  0  0  0  0  0  0  0
    5.7742    0.1833    0.0000 C   0  0  0  0  0  0  0  0  0
    6.4887   -0.2292    0.0000 C   0  0  0  0  0  0  0  0  0
    6.4887   -1.0542    0.0000 N   0  0  0  0  0  0  0  0  0
    5.7742   -1.4667    0.0000 C   0  0  0  0  0  0  0  0  0
    5.0598   -1.0542    0.0000 C   0  0  0  0  0  0  0  0  0
    7.2032   -1.4667    0.0000 C   0  0  0  0  0  0  0  0  0
    7.9177   -1.0542    0.0000 C   0  0  0  0  0  0  0  0  0
    8.6321   -1.4667    0.0000 C   0  0  0  0  0  0  0  0  0
    8.6321   -2.2917    0.0000 C   0  0  0  0  0  0  0  0  0
    7.9177   -2.7042    0.0000 C   0  0  0  0  0  0  0  0  0
    7.2032   -2.2917    0.0000 C   0  0  0  0  0  0  0  0  0
   -0.9501   -0.9368    0.0000 C   0  0  0  0  0  0  0  0  0
   -1.7571   -1.1084    0.0000 C   0  0  0  0  0  0  0  0  0
   -2.3091   -0.4953    0.0000 C   0  0  0  0  0  0  0  0  0
   -2.0542    0.2894    0.0000 C   0  0  0  0  0  0  0  0  0
  1  2  2  0  0  0  0
  2  3  1  0  0  0  0
  2  6  1  0  0  0  0
  3  4  1  0  0  0  0
  4  5  4  0  0  0  0
  4 28  4  0  0  0  0
  5  6  1  0  0  0  0
  5 25  4  0  0  0  0
  6  7  1  0  0  0  0
  7  8  1  0  0  0  0
  8  9  1  0  0  0  0
  9 10  1  0  0  0  0
 10 11  1  0  0  0  0
 11 12  1  0  0  0  0
 12 13  1  0  0  0  0
 13 14  1  0  0  0  0
 13 18  1  0  0  0  0
 14 15  1  0  0  0  0
 15 16  1  0  0  0  0
 16 17  1  0  0  0  0
 16 19  1  0  0  0  0
 17 18  1  0  0  0  0
 19 20  4  0  0  0  0
 19 24  4  0  0  0  0
 20 21  4  0  0  0  0
 21 22  4  0  0  0  0
 22 23  4  0  0  0  0
 23 24  4  0  0  0  0
 25 26  4  0  0  0  0
 26 27  4  0  0  0  0
 27 28  4  0  0  0  0
M  END
>  <Name_Molregno>
498161

>  <5-HT7>
7.7

$$$$
498234
  Marvin  02231216192D 0   1.00000     0.00000     0

 30 33  0  0  0  0  0  0  0  0999 V2000
    0.5124   -1.8293    0.0000 O   0  0  0  0  0  0  0  0  0
    0.5124   -2.6543    0.0000 C   0  0  0  0  0  0  0  0  0
   -0.2021   -1.4168    0.0000 C   0  0  0  0  0  0  0  0  0
   -0.9166   -1.8293    0.0000 C   0  0  0  0  0  0  0  0  0
   -1.6310   -1.4168    0.0000 C   0  0  0  0  0  0  0  0  0
   -1.6310   -0.5918    0.0000 C   0  0  0  0  0  0  0  0  0
   -0.9166   -0.1793    0.0000 C   0  0  0  0  0  0  0  0  0
   -0.2021   -0.5918    0.0000 C   0  0  0  0  0  0  0  0  0
    0.5124   -0.1793    0.0000 N   0  0  0  0  0  0  0  0  0
    0.5124    0.6457    0.0000 C   0  0  0  0  0  0  0  0  0
    1.2269    1.0582    0.0000 C   0  0  0  0  0  0  0  0  0
    1.9413    0.6457    0.0000 N   0  0  0  0  0  0  0  0  0
    1.9413   -0.1793    0.0000 C   0  0  0  0  0  0  0  0  0
    1.2269   -0.5918    0.0000 C   0  0  0  0  0  0  0  0  0
    2.6558    1.0582    0.0000 C   0  0  0  0  0  0  0  0  0
    3.3703    0.6457    0.0000 C   0  0  0  0  0  0  0  0  0
    4.0847    1.0582    0.0000 C   0  0  0  0  0  0  0  0  0
    4.7992    0.6457    0.0000 C   0  0  0  0  0  0  0  0  0
    5.5137    1.0582    0.0000 C   0  0  0  0  0  0  0  0  0
    6.2282    0.6457    0.0000 C   0  0  0  0  0  0  0  0  0
    6.9426    1.0582    0.0000 N   0  0  0  0  0  0  0  0  0
    7.6963    0.7227    0.0000 C   0  0  0  0  0  0  0  0  0
    8.2483    1.3358    0.0000 C   0  0  0  0  0  0  0  0  0
    7.8358    2.0502    0.0000 N   0  0  0  0  0  0  0  0  0
    7.0289    1.8787    0.0000 C   0  0  0  0  0  0  0  0  0
    6.4158    2.4307    0.0000 O   0  0  0  0  0  0  0  0  0
    9.0553    1.1642    0.0000 C   0  0  0  0  0  0  0  0  0
    9.3102    0.3796    0.0000 C   0  0  0  0  0  0  0  0  0
    8.7582   -0.2335    0.0000 C   0  0  0  0  0  0  0  0  0
    7.9512   -0.0619    0.0000 C   0  0  0  0  0  0  0  0  0
  1  2  1  0  0  0  0
  1  3  1  0  0  0  0
  3  4  4  0  0  0  0
  3  8  4  0  0  0  0
  4  5  4  0  0  0  0
  5  6  4  0  0  0  0
  6  7  4  0  0  0  0
  7  8  4  0  0  0  0
  8  9  1  0  0  0  0
  9 10  1  0  0  0  0
  9 14  1  0  0  0  0
 10 11  1  0  0  0  0
 11 12  1  0  0  0  0
 12 13  1  0  0  0  0
 12 15  1  0  0  0  0
 13 14  1  0  0  0  0
 15 16  1  0  0  0  0
 16 17  1  0  0  0  0
 17 18  1  0  0  0  0
 18 19  1  0  0  0  0
 19 20  1  0  0  0  0
 20 21  1  0  0  0  0
 21 22  1  0  0  0  0
 21 25  1  0  0  0  0
 22 23  4  0  0  0  0
 22 30  4  0  0  0  0
 23 24  1  0  0  0  0
 23 27  4  0  0  0  0
 24 25  1  0  0  0  0
 25 26  2  0  0  0  0
 27 28  4  0  0  0  0
 28 29  4  0  0  0  0
 29 30  4  0  0  0  0
M  END
>  <Name_Molregno>
498234

>  <5-HT7>
7.11

$$$$
498235
  Marvin  02231216192D 0   1.00000     0.00000     0

 28 31  0  0  0  0  0  0  0  0999 V2000
    1.2310    2.3887    0.0000 Cl  0  0  0  0  0  0  0  0  0
    1.2310    1.5637    0.0000 C   0  0  0  0  0  0  0  0  0
    1.9455    1.1512    0.0000 C   0  0  0  0  0  0  0  0  0
    1.9455    0.3262    0.0000 C   0  0  0  0  0  0  0  0  0
    2.6600   -0.0863    0.0000 N   0  0  0  0  0  0  0  0  0
    3.3744    0.3262    0.0000 C   0  0  0  0  0  0  0  0  0
    4.0889   -0.0863    0.0000 C   0  0  0  0  0  0  0  0  0
    4.0889   -0.9113    0.0000 N   0  0  0  0  0  0  0  0  0
    3.3744   -1.3238    0.0000 C   0  0  0  0  0  0  0  0  0
    2.6600   -0.9113    0.0000 C   0  0  0  0  0  0  0  0  0
    4.8034   -1.3238    0.0000 C   0  0  0  0  0  0  0  0  0
    5.5178   -0.9113    0.0000 C   0  0  0  0  0  0  0  0  0
    6.2323   -1.3238    0.0000 C   0  0  0  0  0  0  0  0  0
    6.9468   -0.9113    0.0000 C   0  0  0  0  0  0  0  0  0
    7.6613   -1.3238    0.0000 C   0  0  0  0  0  0  0  0  0
    8.3757   -0.9113    0.0000 N   0  0  0  0  0  0  0  0  0
    9.1294   -1.2469    0.0000 C   0  0  0  0  0  0  0  0  0
    9.6814   -0.6338    0.0000 C   0  0  0  0  0  0  0  0  0
    9.2689    0.0807    0.0000 N   0  0  0  0  0  0  0  0  0
    8.4620   -0.0909    0.0000 C   0  0  0  0  0  0  0  0  0
    7.8489    0.4612    0.0000 O   0  0  0  0  0  0  0  0  0
   10.4884   -0.8053    0.0000 C   0  0  0  0  0  0  0  0  0
   10.7433   -1.5900    0.0000 C   0  0  0  0  0  0  0  0  0
   10.1913   -2.2031    0.0000 C   0  0  0  0  0  0  0  0  0
    9.3843   -2.0315    0.0000 C   0  0  0  0  0  0  0  0  0
    1.2310   -0.0863    0.0000 C   0  0  0  0  0  0  0  0  0
    0.5165    0.3262    0.0000 C   0  0  0  0  0  0  0  0  0
    0.5165    1.1512    0.0000 C   0  0  0  0  0  0  0  0  0
  1  2  1  0  0  0  0
  2  3  4  0  0  0  0
  2 28  4  0  0  0  0
  3  4  4  0  0  0  0
  4  5  1  0  0  0  0
  4 26  4  0  0  0  0
  5  6  1  0  0  0  0
  5 10  1  0  0  0  0
  6  7  1  0  0  0  0
  7  8  1  0  0  0  0
  8  9  1  0  0  0  0
  8 11  1  0  0  0  0
  9 10  1  0  0  0  0
 11 12  1  0  0  0  0
 12 13  1  0  0  0  0
 13 14  1  0  0  0  0
 14 15  1  0  0  0  0
 15 16  1  0  0  0  0
 16 17  1  0  0  0  0
 16 20  1  0  0  0  0
 17 18  4  0  0  0  0
 17 25  4  0  0  0  0
 18 19  1  0  0  0  0
 18 22  4  0  0  0  0
 19 20  1  0  0  0  0
 20 21  2  0  0  0  0
 22 23  4  0  0  0  0
 23 24  4  0  0  0  0
 24 25  4  0  0  0  0
 26 27  4  0  0  0  0
 27 28  4  0  0  0  0
M  END
>  <Name_Molregno>
498235

>  <5-HT7>
7.96

$$$$
498236
  Marvin  02231216192D 0   1.00000     0.00000     0

 28 31  0  0  0  0  0  0  0  0999 V2000
    0.0936    0.9618    0.0000 Cl  0  0  0  0  0  0  0  0  0
    0.8080    0.5493    0.0000 C   0  0  0  0  0  0  0  0  0
    1.5225    0.9618    0.0000 C   0  0  0  0  0  0  0  0  0
    2.2370    0.5493    0.0000 C   0  0  0  0  0  0  0  0  0
    2.2370   -0.2757    0.0000 C   0  0  0  0  0  0  0  0  0
    2.9514   -0.6882    0.0000 N   0  0  0  0  0  0  0  0  0
    3.6659   -0.2757    0.0000 C   0  0  0  0  0  0  0  0  0
    4.3804   -0.6882    0.0000 C   0  0  0  0  0  0  0  0  0
    4.3804   -1.5132    0.0000 N   0  0  0  0  0  0  0  0  0
    3.6659   -1.9257    0.0000 C   0  0  0  0  0  0  0  0  0
    2.9514   -1.5132    0.0000 C   0  0  0  0  0  0  0  0  0
    5.0949   -1.9257    0.0000 C   0  0  0  0  0  0  0  0  0
    5.8093   -1.5132    0.0000 C   0  0  0  0  0  0  0  0  0
    6.5238   -1.9257    0.0000 C   0  0  0  0  0  0  0  0  0
    7.2383   -1.5132    0.0000 C   0  0  0  0  0  0  0  0  0
    7.9527   -1.9257    0.0000 C   0  0  0  0  0  0  0  0  0
    8.6672   -1.5132    0.0000 N   0  0  0  0  0  0  0  0  0
    9.4209   -1.8487    0.0000 C   0  0  0  0  0  0  0  0  0
    9.9729   -1.2356    0.0000 C   0  0  0  0  0  0  0  0  0
    9.5604   -0.5212    0.0000 N   0  0  0  0  0  0  0  0  0
    8.7535   -0.6927    0.0000 C   0  0  0  0  0  0  0  0  0
    8.1404   -0.1407    0.0000 O   0  0  0  0  0  0  0  0  0
   10.7799   -1.4072    0.0000 C   0  0  0  0  0  0  0  0  0
   11.0348   -2.1918    0.0000 C   0  0  0  0  0  0  0  0  0
   10.4828   -2.8049    0.0000 C   0  0  0  0  0  0  0  0  0
    9.6758   -2.6334    0.0000 C   0  0  0  0  0  0  0  0  0
    1.5225   -0.6882    0.0000 C   0  0  0  0  0  0  0  0  0
    0.8080   -0.2757    0.0000 C   0  0  0  0  0  0  0  0  0
  1  2  1  0  0  0  0
  2  3  4  0  0  0  0
  2 28  4  0  0  0  0
  3  4  4  0  0  0  0
  4  5  4  0  0  0  0
  5  6  1  0  0  0  0
  5 27  4  0  0  0  0
  6  7  1  0  0  0  0
  6 11  1  0  0  0  0
  7  8  1  0  0  0  0
  8  9  1  0  0  0  0
  9 10  1  0  0  0  0
  9 12  1  0  0  0  0
 10 11  1  0  0  0  0
 12 13  1  0  0  0  0
 13 14  1  0  0  0  0
 14 15  1  0  0  0  0
 15 16  1  0  0  0  0
 16 17  1  0  0  0  0
 17 18  1  0  0  0  0
 17 21  1  0  0  0  0
 18 19  4  0  0  0  0
 18 26  4  0  0  0  0
 19 20  1  0  0  0  0
 19 23  4  0  0  0  0
 20 21  1  0  0  0  0
 21 22  2  0  0  0  0
 23 24  4  0  0  0  0
 24 25  4  0  0  0  0
 25 26  4  0  0  0  0
 27 28  4  0  0  0  0
M  END
>  <Name_Molregno>
498236

>  <5-HT7>
8.15

$$$$
498962
  Marvin  02231216192D 0   1.00000     0.00000     0

 29 31  0  0  0  0  0  0  0  0999 V2000
    4.6273    6.8992    0.0000 F   0  0  0  0  0  0  0  0  0
    4.6273    6.0742    0.0000 C   0  0  0  0  0  0  0  0  0
    5.3417    5.6617    0.0000 C   0  0  0  0  0  0  0  0  0
    5.3417    4.8367    0.0000 C   0  0  0  0  0  0  0  0  0
    4.6273    4.4242    0.0000 C   0  0  0  0  0  0  0  0  0
    3.9128    4.8367    0.0000 C   0  0  0  0  0  0  0  0  0
    3.9128    5.6617    0.0000 C   0  0  0  0  0  0  0  0  0
    4.6273    3.5992    0.0000 C   0  0  0  0  0  0  0  0  0
    5.3417    3.1867    0.0000 C   0  0  0  0  0  0  0  0  0
    5.3417    2.3617    0.0000 N   0  0  0  0  0  0  0  0  0
    6.0562    1.9492    0.0000 C   0  0  0  0  0  0  0  0  0
    6.0562    1.1242    0.0000 C   0  0  0  0  0  0  0  0  0
    5.3417    0.7117    0.0000 C   0  0  0  0  0  0  0  0  0
    4.6273    1.1242    0.0000 C   0  0  0  0  0  0  0  0  0
    4.6273    1.9492    0.0000 C   0  0  0  0  0  0  0  0  0
    5.3417   -0.1133    0.0000 C   0  0  0  0  0  0  0  0  0
    4.6273   -0.5258    0.0000 O   0  0  0  0  0  0  0  0  0
    6.0562   -0.5258    0.0000 C   0  0  0  0  0  0  0  0  0
    6.7707   -0.1133    0.0000 C   0  0  0  0  0  0  0  0  0
    7.4851   -0.5258    0.0000 C   0  0  0  0  0  0  0  0  0
    7.4851   -1.3508    0.0000 C   0  0  0  0  0  0  0  0  0
    6.7707   -1.7633    0.0000 C   0  0  0  0  0  0  0  0  0
    6.7707   -2.5883    0.0000 O   0  0  0  0  0  0  0  0  0
    7.4851   -3.0008    0.0000 C   0  0  0  0  0  0  0  0  0
    7.4851   -3.8258    0.0000 C   0  0  0  0  0  0  0  0  0
    8.1996   -4.2383    0.0000 F   0  0  0  0  0  0  0  0  0
    6.0562   -1.3508    0.0000 C   0  0  0  0  0  0  0  0  0
    5.3417   -1.7633    0.0000 O   0  0  0  0  0  0  0  0  0
    5.3417   -2.5883    0.0000 C   0  0  0  0  0  0  0  0  0
  1  2  1  0  0  0  0
  2  3  4  0  0  0  0
  2  7  4  0  0  0  0
  3  4  4  0  0  0  0
  4  5  4  0  0  0  0
  5  6  4  0  0  0  0
  5  8  1  0  0  0  0
  6  7  4  0  0  0  0
  8  9  1  0  0  0  0
  9 10  1  0  0  0  0
 10 11  1  0  0  0  0
 10 15  1  0  0  0  0
 11 12  1  0  0  0  0
 12 13  1  0  0  0  0
 13 14  1  0  0  0  0
 13 16  1  0  0  0  0
 14 15  1  0  0  0  0
 16 17  2  0  0  0  0
 16 18  1  0  0  0  0
 18 19  4  0  0  0  0
 18 27  4  0  0  0  0
 19 20  4  0  0  0  0
 20 21  4  0  0  0  0
 21 22  4  0  0  0  0
 22 23  1  0  0  0  0
 22 27  4  0  0  0  0
 23 24  1  0  0  0  0
 24 25  1  0  0  0  0
 25 26  1  0  0  0  0
 27 28  1  0  0  0  0
 28 29  1  0  0  0  0
M  END
>  <Name_Molregno>
498962

>  <5-HT1A>
5.77

>  <5-HT1B>
5.66

>  <5-HT1D>
6.15

>  <5-HT1E>
5

>  <5-HT2C>
6.89

>  <5-HT3>
5

>  <5-HT5>
5.8

>  <5-HT6>
5

>  <5-HT7>
6.68

>  <Alpha-1A>
6.84

>  <Alpha-1B>
6.26

>  <Alpha-2A>
6.06

>  <Alpha-2C>
6.48

>  <DOPAMINE D1>
5.85

>  <DOPAMINE D2>
5.42

>  <DOPAMINE D4>
6.76

>  <DOPAMINE D5>
5.13

>  <Dopamine transporter>
5

>  <HISTAMINE H1>
6.03

>  <HISTAMINE H2>
5.76

>  <HISTAMINE H3>
5

>  <Serotonin transporter>
5.51

$$$$
498963
  Marvin  02231216192D 0   1.00000     0.00000     0

 31 33  0  0  1  0  0  0  0  0999 V2000
    8.1600    6.3223    0.0000 F   0  0  0  0  0  0  0  0  0
    7.4455    5.9098    0.0000 C   0  0  0  0  0  0  0  0  0
    7.4455    5.0848    0.0000 C   0  0  0  0  0  0  0  0  0
    6.7310    4.6723    0.0000 O   0  0  0  0  0  0  0  0  0
    6.7310    3.8473    0.0000 C   0  0  0  0  0  0  0  0  0
    7.4455    3.4348    0.0000 C   0  0  0  0  0  0  0  0  0
    7.4455    2.6098    0.0000 C   0  0  0  0  0  0  0  0  0
    6.7310    2.1973    0.0000 C   0  0  0  0  0  0  0  0  0
    6.0165    2.6098    0.0000 C   0  0  0  0  0  0  0  0  0
    5.3021    2.1973    0.0000 C   0  0  0  0  0  0  0  0  0
    4.5876    2.6098    0.0000 O   0  0  0  0  0  0  0  0  0
    5.3021    1.3723    0.0000 C   0  0  0  0  0  0  0  0  0
    6.0165    0.9598    0.0000 C   0  0  0  0  0  0  0  0  0
    6.0165    0.1348    0.0000 C   0  0  0  0  0  0  0  0  0
    5.3021   -0.2777    0.0000 N   0  0  0  0  0  0  0  0  0
    4.5876    0.1348    0.0000 C   0  0  0  0  0  0  0  0  0
    4.5876    0.9598    0.0000 C   0  0  0  0  0  0  0  0  0
    5.3021   -1.1027    0.0000 C   0  0  0  0  0  0  0  0  0
    6.0165   -1.5152    0.0000 C   0  0  0  0  0  0  0  0  0
    6.0165   -2.3402    0.0000 C   0  0  0  0  0  0  0  0  0
    6.7310   -2.7527    0.0000 C   0  0  0  0  0  0  0  0  0
    6.7310   -3.5777    0.0000 C   0  0  0  0  0  0  0  0  0
    6.0165   -3.9902    0.0000 C   0  0  0  0  0  0  0  0  0
    6.0165   -4.8152    0.0000 N   0  3  0  0  0  0  0  0  0
    6.7310   -5.2277    0.0000 O   0  5  0  0  0  0  0  0  0
    5.3021   -5.2277    0.0000 O   0  5  0  0  0  0  0  0  0
    5.3021   -3.5777    0.0000 C   0  0  0  0  0  0  0  0  0
    5.3021   -2.7527    0.0000 C   0  0  0  0  0  0  0  0  0
    6.0165    3.4348    0.0000 C   0  0  0  0  0  0  0  0  0
    5.3021    3.8473    0.0000 O   0  0  0  0  0  0  0  0  0
    4.5876    3.4348    0.0000 C   0  0  0  0  0  0  0  0  0
  1  2  1  0  0  0  0
  2  3  1  0  0  0  0
  3  4  1  0  0  0  0
  4  5  1  0  0  0  0
  5  6  4  0  0  0  0
  5 29  4  0  0  0  0
  6  7  4  0  0  0  0
  7  8  4  0  0  0  0
  8  9  4  0  0  0  0
  9 10  1  0  0  0  0
  9 29  4  0  0  0  0
 10 11  1  0  0  0  0
 10 12  1  0  0  0  0
 12 13  1  0  0  0  0
 12 17  1  0  0  0  0
 13 14  1  0  0  0  0
 14 15  1  0  0  0  0
 15 16  1  0  0  0  0
 15 18  1  0  0  0  0
 16 17  1  0  0  0  0
 18 19  1  0  0  0  0
 19 20  1  0  0  0  0
 20 21  4  0  0  0  0
 20 28  4  0  0  0  0
 21 22  4  0  0  0  0
 22 23  4  0  0  0  0
 23 24  1  0  0  0  0
 23 27  4  0  0  0  0
 24 25  1  0  0  0  0
 24 26  1  0  0  0  0
 27 28  4  0  0  0  0
 29 30  1  0  0  0  0
 30 31  1  0  0  0  0
M  CHG  3  24   1  25  -1  26  -1
M  END
>  <Name_Molregno>
498963

>  <5-HT1A>
5

>  <5-HT1B>
5

>  <5-HT1D>
5.47

>  <5-HT1E>
5

>  <5-HT2C>
5

>  <5-HT3>
5

>  <5-HT5>
5

>  <5-HT6>
5

>  <5-HT7>
5.29

$$$$
498964
  Marvin  02231216192D 0   1.00000     0.00000     0

 29 31  0  0  1  0  0  0  0  0999 V2000
    7.7806    5.8078    0.0000 F   0  0  0  0  0  0  0  0  0
    7.0662    5.3953    0.0000 C   0  0  0  0  0  0  0  0  0
    7.0662    4.5703    0.0000 C   0  0  0  0  0  0  0  0  0
    6.3517    4.1578    0.0000 O   0  0  0  0  0  0  0  0  0
    6.3517    3.3328    0.0000 C   0  0  0  0  0  0  0  0  0
    7.0662    2.9203    0.0000 C   0  0  0  0  0  0  0  0  0
    7.0662    2.0953    0.0000 C   0  0  0  0  0  0  0  0  0
    6.3517    1.6828    0.0000 C   0  0  0  0  0  0  0  0  0
    5.6372    2.0953    0.0000 C   0  0  0  0  0  0  0  0  0
    4.9227    1.6828    0.0000 C   0  0  0  0  0  0  0  0  0
    4.2083    2.0953    0.0000 O   0  0  0  0  0  0  0  0  0
    4.9227    0.8578    0.0000 C   0  0  0  0  0  0  0  0  0
    5.6372    0.4453    0.0000 C   0  0  0  0  0  0  0  0  0
    5.6372   -0.3797    0.0000 C   0  0  0  0  0  0  0  0  0
    4.9227   -0.7922    0.0000 N   0  0  0  0  0  0  0  0  0
    4.2083   -0.3797    0.0000 C   0  0  0  0  0  0  0  0  0
    4.2083    0.4453    0.0000 C   0  0  0  0  0  0  0  0  0
    4.9227   -1.6172    0.0000 C   0  0  0  0  0  0  0  0  0
    5.6372   -2.0297    0.0000 C   0  0  0  0  0  0  0  0  0
    5.6372   -2.8547    0.0000 C   0  0  0  0  0  0  0  0  0
    6.3517   -3.2672    0.0000 C   0  0  0  0  0  0  0  0  0
    6.3517   -4.0922    0.0000 C   0  0  0  0  0  0  0  0  0
    5.6372   -4.5047    0.0000 C   0  0  0  0  0  0  0  0  0
    4.9227   -4.0922    0.0000 C   0  0  0  0  0  0  0  0  0
    4.9227   -3.2672    0.0000 C   0  0  0  0  0  0  0  0  0
    5.6372   -5.3297    0.0000 C   0  0  0  0  0  0  0  0  0
    5.6372    2.9203    0.0000 C   0  0  0  0  0  0  0  0  0
    4.9227    3.3328    0.0000 O   0  0  0  0  0  0  0  0  0
    4.2083    2.9203    0.0000 C   0  0  0  0  0  0  0  0  0
  1  2  1  0  0  0  0
  2  3  1  0  0  0  0
  3  4  1  0  0  0  0
  4  5  1  0  0  0  0
  5  6  4  0  0  0  0
  5 27  4  0  0  0  0
  6  7  4  0  0  0  0
  7  8  4  0  0  0  0
  8  9  4  0  0  0  0
  9 10  1  0  0  0  0
  9 27  4  0  0  0  0
 10 11  1  0  0  0  0
 10 12  1  0  0  0  0
 12 13  1  0  0  0  0
 12 17  1  0  0  0  0
 13 14  1  0  0  0  0
 14 15  1  0  0  0  0
 15 16  1  0  0  0  0
 15 18  1  0  0  0  0
 16 17  1  0  0  0  0
 18 19  1  0  0  0  0
 19 20  1  0  0  0  0
 20 21  4  0  0  0  0
 20 25  4  0  0  0  0
 21 22  4  0  0  0  0
 22 23  4  0  0  0  0
 23 24  4  0  0  0  0
 23 26  1  0  0  0  0
 24 25  4  0  0  0  0
 27 28  1  0  0  0  0
 28 29  1  0  0  0  0
M  END
>  <Name_Molregno>
498964

>  <5-HT1A>
5

>  <5-HT1B>
5.31

>  <5-HT1D>
5.84

>  <5-HT1E>
5

>  <5-HT2C>
6.29

>  <5-HT3>
5

>  <5-HT5>
5

>  <5-HT6>
5

>  <5-HT7>
6.3

>  <Alpha-1B>
5

>  <Alpha-2A>
5

>  <Alpha-2C>
6.84

>  <DOPAMINE D1>
5.75

>  <DOPAMINE D2>
5

>  <DOPAMINE D4>
5.57

>  <Dopamine transporter>
5

>  <HISTAMINE H1>
6.36

>  <HISTAMINE H2>
5.94

>  <HISTAMINE H3>
5

>  <Serotonin transporter>
5.58

$$$$
499028
  Marvin  02231216192D 0   1.00000     0.00000     0

 29 31  0  0  0  0  0  0  0  0999 V2000
    7.7806    5.8078    0.0000 F   0  0  0  0  0  0  0  0  0
    7.0662    5.3953    0.0000 C   0  0  0  0  0  0  0  0  0
    7.0662    4.5703    0.0000 C   0  0  0  0  0  0  0  0  0
    6.3517    4.1578    0.0000 O   0  0  0  0  0  0  0  0  0
    6.3517    3.3328    0.0000 C   0  0  0  0  0  0  0  0  0
    7.0662    2.9203    0.0000 C   0  0  0  0  0  0  0  0  0
    7.0662    2.0953    0.0000 C   0  0  0  0  0  0  0  0  0
    6.3517    1.6828    0.0000 C   0  0  0  0  0  0  0  0  0
    5.6372    2.0953    0.0000 C   0  0  0  0  0  0  0  0  0
    4.9227    1.6828    0.0000 C   0  0  0  0  0  0  0  0  0
    4.2083    2.0953    0.0000 O   0  0  0  0  0  0  0  0  0
    4.9227    0.8578    0.0000 C   0  0  0  0  0  0  0  0  0
    5.6372    0.4453    0.0000 C   0  0  0  0  0  0  0  0  0
    5.6372   -0.3797    0.0000 C   0  0  0  0  0  0  0  0  0
    4.9227   -0.7922    0.0000 N   0  0  0  0  0  0  0  0  0
    4.2083   -0.3797    0.0000 C   0  0  0  0  0  0  0  0  0
    4.2083    0.4453    0.0000 C   0  0  0  0  0  0  0  0  0
    4.9227   -1.6172    0.0000 C   0  0  0  0  0  0  0  0  0
    5.6372   -2.0297    0.0000 C   0  0  0  0  0  0  0  0  0
    5.6372   -2.8547    0.0000 C   0  0  0  0  0  0  0  0  0
    6.3517   -3.2672    0.0000 C   0  0  0  0  0  0  0  0  0
    6.3517   -4.0922    0.0000 C   0  0  0  0  0  0  0  0  0
    5.6372   -4.5047    0.0000 C   0  0  0  0  0  0  0  0  0
    4.9227   -4.0922    0.0000 C   0  0  0  0  0  0  0  0  0
    4.9227   -3.2672    0.0000 C   0  0  0  0  0  0  0  0  0
    5.6372   -5.3297    0.0000 C   0  0  0  0  0  0  0  0  0
    5.6372    2.9203    0.0000 C   0  0  0  0  0  0  0  0  0
    4.9227    3.3328    0.0000 O   0  0  0  0  0  0  0  0  0
    4.2083    2.9203    0.0000 C   0  0  0  0  0  0  0  0  0
  1  2  1  0  0  0  0
  2  3  1  0  0  0  0
  3  4  1  0  0  0  0
  4  5  1  0  0  0  0
  5  6  4  0  0  0  0
  5 27  4  0  0  0  0
  6  7  4  0  0  0  0
  7  8  4  0  0  0  0
  8  9  4  0  0  0  0
  9 10  1  0  0  0  0
  9 27  4  0  0  0  0
 10 11  2  0  0  0  0
 10 12  1  0  0  0  0
 12 13  1  0  0  0  0
 12 17  1  0  0  0  0
 13 14  1  0  0  0  0
 14 15  1  0  0  0  0
 15 16  1  0  0  0  0
 15 18  1  0  0  0  0
 16 17  1  0  0  0  0
 18 19  1  0  0  0  0
 19 20  1  0  0  0  0
 20 21  4  0  0  0  0
 20 25  4  0  0  0  0
 21 22  4  0  0  0  0
 22 23  4  0  0  0  0
 23 24  4  0  0  0  0
 23 26  1  0  0  0  0
 24 25  4  0  0  0  0
 27 28  1  0  0  0  0
 28 29  1  0  0  0  0
M  END
>  <Name_Molregno>
499028

>  <5-HT1A>
5.73

>  <5-HT1B>
5.47

>  <5-HT1E>
5

>  <5-HT2C>
6.3

>  <5-HT3>
5

>  <5-HT5>
5.77

>  <5-HT6>
5

>  <5-HT7>
6.14

>  <Alpha-2C>
6.81

>  <DOPAMINE D1>
5.71

>  <DOPAMINE D2>
5

>  <DOPAMINE D4>
6.03

>  <HISTAMINE H1>
6.18

>  <HISTAMINE H2>
6.08

>  <HISTAMINE H3>
5.04

>  <Serotonin transporter>
6

$$$$
499029
  Marvin  02231216192D 0   1.00000     0.00000     0

 30 32  0  0  1  0  0  0  0  0999 V2000
    7.9632    6.0652    0.0000 F   0  0  0  0  0  0  0  0  0
    7.2488    5.6527    0.0000 C   0  0  0  0  0  0  0  0  0
    7.2488    4.8277    0.0000 C   0  0  0  0  0  0  0  0  0
    6.5343    4.4152    0.0000 O   0  0  0  0  0  0  0  0  0
    6.5343    3.5902    0.0000 C   0  0  0  0  0  0  0  0  0
    7.2488    3.1777    0.0000 C   0  0  0  0  0  0  0  0  0
    7.2488    2.3527    0.0000 C   0  0  0  0  0  0  0  0  0
    6.5343    1.9402    0.0000 C   0  0  0  0  0  0  0  0  0
    5.8198    2.3527    0.0000 C   0  0  0  0  0  0  0  0  0
    5.1053    1.9402    0.0000 C   0  0  0  0  0  0  0  0  0
    4.3909    2.3527    0.0000 O   0  0  0  0  0  0  0  0  0
    5.1053    1.1152    0.0000 C   0  0  0  0  0  0  0  0  0
    5.8198    0.7027    0.0000 C   0  0  0  0  0  0  0  0  0
    5.8198   -0.1223    0.0000 C   0  0  0  0  0  0  0  0  0
    5.1053   -0.5348    0.0000 N   0  0  0  0  0  0  0  0  0
    4.3909   -0.1223    0.0000 C   0  0  0  0  0  0  0  0  0
    4.3909    0.7027    0.0000 C   0  0  0  0  0  0  0  0  0
    5.1053   -1.3598    0.0000 C   0  0  0  0  0  0  0  0  0
    5.8198   -1.7723    0.0000 C   0  0  0  0  0  0  0  0  0
    5.8198   -2.5973    0.0000 C   0  0  0  0  0  0  0  0  0
    6.5343   -3.0098    0.0000 C   0  0  0  0  0  0  0  0  0
    6.5343   -3.8348    0.0000 C   0  0  0  0  0  0  0  0  0
    5.8198   -4.2473    0.0000 C   0  0  0  0  0  0  0  0  0
    5.8198   -5.0723    0.0000 O   0  0  0  0  0  0  0  0  0
    6.5343   -5.4848    0.0000 C   0  0  0  0  0  0  0  0  0
    5.1053   -3.8348    0.0000 C   0  0  0  0  0  0  0  0  0
    5.1053   -3.0098    0.0000 C   0  0  0  0  0  0  0  0  0
    5.8198    3.1777    0.0000 C   0  0  0  0  0  0  0  0  0
    5.1053    3.5902    0.0000 O   0  0  0  0  0  0  0  0  0
    4.3909    3.1777    0.0000 C   0  0  0  0  0  0  0  0  0
  1  2  1  0  0  0  0
  2  3  1  0  0  0  0
  3  4  1  0  0  0  0
  4  5  1  0  0  0  0
  5  6  4  0  0  0  0
  5 28  4  0  0  0  0
  6  7  4  0  0  0  0
  7  8  4  0  0  0  0
  8  9  4  0  0  0  0
  9 10  1  0  0  0  0
  9 28  4  0  0  0  0
 10 11  1  0  0  0  0
 10 12  1  0  0  0  0
 12 13  1  0  0  0  0
 12 17  1  0  0  0  0
 13 14  1  0  0  0  0
 14 15  1  0  0  0  0
 15 16  1  0  0  0  0
 15 18  1  0  0  0  0
 16 17  1  0  0  0  0
 18 19  1  0  0  0  0
 19 20  1  0  0  0  0
 20 21  4  0  0  0  0
 20 27  4  0  0  0  0
 21 22  4  0  0  0  0
 22 23  4  0  0  0  0
 23 24  1  0  0  0  0
 23 26  4  0  0  0  0
 24 25  1  0  0  0  0
 26 27  4  0  0  0  0
 28 29  1  0  0  0  0
 29 30  1  0  0  0  0
M  END
>  <Name_Molregno>
499029

>  <5-HT1A>
5

>  <5-HT1B>
5

>  <5-HT1D>
5

>  <5-HT1E>
5

>  <5-HT2C>
5

>  <5-HT3>
5

>  <5-HT5>
5

>  <5-HT6>
5

>  <5-HT7>
5

$$$$
499030
  Marvin  02231216192D 0   1.00000     0.00000     0

 31 33  0  0  0  0  0  0  0  0999 V2000
    8.1600    6.3223    0.0000 F   0  0  0  0  0  0  0  0  0
    7.4455    5.9098    0.0000 C   0  0  0  0  0  0  0  0  0
    7.4455    5.0848    0.0000 C   0  0  0  0  0  0  0  0  0
    6.7310    4.6723    0.0000 O   0  0  0  0  0  0  0  0  0
    6.7310    3.8473    0.0000 C   0  0  0  0  0  0  0  0  0
    7.4455    3.4348    0.0000 C   0  0  0  0  0  0  0  0  0
    7.4455    2.6098    0.0000 C   0  0  0  0  0  0  0  0  0
    6.7310    2.1973    0.0000 C   0  0  0  0  0  0  0  0  0
    6.0165    2.6098    0.0000 C   0  0  0  0  0  0  0  0  0
    5.3021    2.1973    0.0000 C   0  0  0  0  0  0  0  0  0
    4.5876    2.6098    0.0000 O   0  0  0  0  0  0  0  0  0
    5.3021    1.3723    0.0000 C   0  0  0  0  0  0  0  0  0
    6.0165    0.9598    0.0000 C   0  0  0  0  0  0  0  0  0
    6.0165    0.1348    0.0000 C   0  0  0  0  0  0  0  0  0
    5.3021   -0.2777    0.0000 N   0  0  0  0  0  0  0  0  0
    4.5876    0.1348    0.0000 C   0  0  0  0  0  0  0  0  0
    4.5876    0.9598    0.0000 C   0  0  0  0  0  0  0  0  0
    5.3021   -1.1027    0.0000 C   0  0  0  0  0  0  0  0  0
    6.0165   -1.5152    0.0000 C   0  0  0  0  0  0  0  0  0
    6.0165   -2.3402    0.0000 C   0  0  0  0  0  0  0  0  0
    6.7310   -2.7527    0.0000 C   0  0  0  0  0  0  0  0  0
    6.7310   -3.5777    0.0000 C   0  0  0  0  0  0  0  0  0
    6.0165   -3.9902    0.0000 C   0  0  0  0  0  0  0  0  0
    6.0165   -4.8152    0.0000 N   0  3  0  0  0  0  0  0  0
    6.7310   -5.2277    0.0000 O   0  5  0  0  0  0  0  0  0
    5.3021   -5.2277    0.0000 O   0  5  0  0  0  0  0  0  0
    5.3021   -3.5777    0.0000 C   0  0  0  0  0  0  0  0  0
    5.3021   -2.7527    0.0000 C   0  0  0  0  0  0  0  0  0
    6.0165    3.4348    0.0000 C   0  0  0  0  0  0  0  0  0
    5.3021    3.8473    0.0000 O   0  0  0  0  0  0  0  0  0
    4.5876    3.4348    0.0000 C   0  0  0  0  0  0  0  0  0
  1  2  1  0  0  0  0
  2  3  1  0  0  0  0
  3  4  1  0  0  0  0
  4  5  1  0  0  0  0
  5  6  4  0  0  0  0
  5 29  4  0  0  0  0
  6  7  4  0  0  0  0
  7  8  4  0  0  0  0
  8  9  4  0  0  0  0
  9 10  1  0  0  0  0
  9 29  4  0  0  0  0
 10 11  2  0  0  0  0
 10 12  1  0  0  0  0
 12 13  1  0  0  0  0
 12 17  1  0  0  0  0
 13 14  1  0  0  0  0
 14 15  1  0  0  0  0
 15 16  1  0  0  0  0
 15 18  1  0  0  0  0
 16 17  1  0  0  0  0
 18 19  1  0  0  0  0
 19 20  1  0  0  0  0
 20 21  4  0  0  0  0
 20 28  4  0  0  0  0
 21 22  4  0  0  0  0
 22 23  4  0  0  0  0
 23 24  1  0  0  0  0
 23 27  4  0  0  0  0
 24 25  1  0  0  0  0
 24 26  1  0  0  0  0
 27 28  4  0  0  0  0
 29 30  1  0  0  0  0
 30 31  1  0  0  0  0
M  CHG  3  24   1  25  -1  26  -1
M  END
>  <Name_Molregno>
499030

>  <5-HT1A>
5.76

>  <5-HT1B>
5

>  <5-HT1D>
5.74

>  <5-HT1E>
5

>  <5-HT2C>
5

>  <5-HT3>
5

>  <5-HT5>
5

>  <5-HT6>
5

>  <5-HT7>
5.2

$$$$
499031
  Marvin  02231216192D 0   1.00000     0.00000     0

 30 32  0  0  0  0  0  0  0  0999 V2000
    7.9632    6.0652    0.0000 F   0  0  0  0  0  0  0  0  0
    7.2488    5.6527    0.0000 C   0  0  0  0  0  0  0  0  0
    7.2488    4.8277    0.0000 C   0  0  0  0  0  0  0  0  0
    6.5343    4.4152    0.0000 O   0  0  0  0  0  0  0  0  0
    6.5343    3.5902    0.0000 C   0  0  0  0  0  0  0  0  0
    7.2488    3.1777    0.0000 C   0  0  0  0  0  0  0  0  0
    7.2488    2.3527    0.0000 C   0  0  0  0  0  0  0  0  0
    6.5343    1.9402    0.0000 C   0  0  0  0  0  0  0  0  0
    5.8198    2.3527    0.0000 C   0  0  0  0  0  0  0  0  0
    5.1053    1.9402    0.0000 C   0  0  0  0  0  0  0  0  0
    4.3909    2.3527    0.0000 O   0  0  0  0  0  0  0  0  0
    5.1053    1.1152    0.0000 C   0  0  0  0  0  0  0  0  0
    5.8198    0.7027    0.0000 C   0  0  0  0  0  0  0  0  0
    5.8198   -0.1223    0.0000 C   0  0  0  0  0  0  0  0  0
    5.1053   -0.5348    0.0000 N   0  0  0  0  0  0  0  0  0
    4.3909   -0.1223    0.0000 C   0  0  0  0  0  0  0  0  0
    4.3909    0.7027    0.0000 C   0  0  0  0  0  0  0  0  0
    5.1053   -1.3598    0.0000 C   0  0  0  0  0  0  0  0  0
    5.8198   -1.7723    0.0000 C   0  0  0  0  0  0  0  0  0
    5.8198   -2.5973    0.0000 C   0  0  0  0  0  0  0  0  0
    6.5343   -3.0098    0.0000 C   0  0  0  0  0  0  0  0  0
    6.5343   -3.8348    0.0000 C   0  0  0  0  0  0  0  0  0
    5.8198   -4.2473    0.0000 C   0  0  0  0  0  0  0  0  0
    5.8198   -5.0723    0.0000 O   0  0  0  0  0  0  0  0  0
    6.5343   -5.4848    0.0000 C   0  0  0  0  0  0  0  0  0
    5.1053   -3.8348    0.0000 C   0  0  0  0  0  0  0  0  0
    5.1053   -3.0098    0.0000 C   0  0  0  0  0  0  0  0  0
    5.8198    3.1777    0.0000 C   0  0  0  0  0  0  0  0  0
    5.1053    3.5902    0.0000 O   0  0  0  0  0  0  0  0  0
    4.3909    3.1777    0.0000 C   0  0  0  0  0  0  0  0  0
  1  2  1  0  0  0  0
  2  3  1  0  0  0  0
  3  4  1  0  0  0  0
  4  5  1  0  0  0  0
  5  6  4  0  0  0  0
  5 28  4  0  0  0  0
  6  7  4  0  0  0  0
  7  8  4  0  0  0  0
  8  9  4  0  0  0  0
  9 10  1  0  0  0  0
  9 28  4  0  0  0  0
 10 11  2  0  0  0  0
 10 12  1  0  0  0  0
 12 13  1  0  0  0  0
 12 17  1  0  0  0  0
 13 14  1  0  0  0  0
 14 15  1  0  0  0  0
 15 16  1  0  0  0  0
 15 18  1  0  0  0  0
 16 17  1  0  0  0  0
 18 19  1  0  0  0  0
 19 20  1  0  0  0  0
 20 21  4  0  0  0  0
 20 27  4  0  0  0  0
 21 22  4  0  0  0  0
 22 23  4  0  0  0  0
 23 24  1  0  0  0  0
 23 26  4  0  0  0  0
 24 25  1  0  0  0  0
 26 27  4  0  0  0  0
 28 29  1  0  0  0  0
 29 30  1  0  0  0  0
M  END
>  <Name_Molregno>
499031

>  <5-HT1A>
6

>  <5-HT1B>
5

>  <5-HT1D>
5.84

>  <5-HT1E>
5

>  <5-HT2C>
5.03

>  <5-HT3>
5

>  <5-HT5>
5

>  <5-HT6>
5

>  <5-HT7>
5.54

$$$$
499202
  Marvin  02231216192D 0   1.00000     0.00000     0

 27 30  0  0  0  0  0  0  0  0999 V2000
   -5.8456   -1.9199    0.0000 O   0  0  0  0  0  0  0  0  0
   -6.4587   -1.3678    0.0000 C   0  0  0  0  0  0  0  0  0
   -6.3725   -0.5473    0.0000 N   0  0  0  0  0  0  0  0  0
   -7.1262   -0.2118    0.0000 C   0  0  0  0  0  0  0  0  0
   -7.6782   -0.8249    0.0000 C   0  0  0  0  0  0  0  0  0
   -7.2657   -1.5394    0.0000 C   0  0  0  0  0  0  0  0  0
   -7.6782   -2.2538    0.0000 C   0  0  0  0  0  0  0  0  0
   -8.5032   -2.2538    0.0000 C   0  0  0  0  0  0  0  0  0
   -8.9157   -1.5394    0.0000 C   0  0  0  0  0  0  0  0  0
   -8.5032   -0.8249    0.0000 C   0  0  0  0  0  0  0  0  0
   -5.6580   -0.1348    0.0000 C   0  0  0  0  0  0  0  0  0
   -4.9436   -0.5473    0.0000 C   0  0  0  0  0  0  0  0  0
   -4.2291   -0.1348    0.0000 C   0  0  0  0  0  0  0  0  0
   -3.5146   -0.5473    0.0000 C   0  0  0  0  0  0  0  0  0
   -2.8001   -0.1348    0.0000 C   0  0  0  0  0  0  0  0  0
   -2.0857   -0.5473    0.0000 N   0  0  0  0  0  0  0  0  0
   -1.3712   -0.1348    0.0000 C   0  0  0  0  0  0  0  0  0
   -0.6567   -0.5473    0.0000 C   0  0  0  0  0  0  0  0  0
   -0.6567   -1.3723    0.0000 N   0  0  0  0  0  0  0  0  0
   -1.3712   -1.7848    0.0000 C   0  0  0  0  0  0  0  0  0
   -2.0857   -1.3723    0.0000 C   0  0  0  0  0  0  0  0  0
    0.0577   -1.7848    0.0000 C   0  0  0  0  0  0  0  0  0
    0.7722   -1.3723    0.0000 C   0  0  0  0  0  0  0  0  0
    1.4867   -1.7848    0.0000 C   0  0  0  0  0  0  0  0  0
    1.4867   -2.6098    0.0000 C   0  0  0  0  0  0  0  0  0
    0.7722   -3.0223    0.0000 C   0  0  0  0  0  0  0  0  0
    0.0577   -2.6098    0.0000 C   0  0  0  0  0  0  0  0  0
  1  2  2  0  0  0  0
  2  3  1  0  0  0  0
  2  6  1  0  0  0  0
  3  4  1  0  0  0  0
  3 11  1  0  0  0  0
  4  5  1  0  0  0  0
  5  6  4  0  0  0  0
  5 10  4  0  0  0  0
  6  7  4  0  0  0  0
  7  8  4  0  0  0  0
  8  9  4  0  0  0  0
  9 10  4  0  0  0  0
 11 12  1  0  0  0  0
 12 13  1  0  0  0  0
 13 14  1  0  0  0  0
 14 15  1  0  0  0  0
 15 16  1  0  0  0  0
 16 17  1  0  0  0  0
 16 21  1  0  0  0  0
 17 18  1  0  0  0  0
 18 19  1  0  0  0  0
 19 20  1  0  0  0  0
 19 22  1  0  0  0  0
 20 21  1  0  0  0  0
 22 23  4  0  0  0  0
 22 27  4  0  0  0  0
 23 24  4  0  0  0  0
 24 25  4  0  0  0  0
 25 26  4  0  0  0  0
 26 27  4  0  0  0  0
M  END
>  <Name_Molregno>
499202

>  <5-HT1A>
6

>  <5-HT7>
6.69

$$$$
499269
  Marvin  02231216192D 0   1.00000     0.00000     0

 30 34  0  0  0  0  0  0  0  0999 V2000
    5.3408   -3.6690    0.0000 O   0  0  0  0  0  0  0  0  0
    4.5562   -3.9239    0.0000 C   0  0  0  0  0  0  0  0  0
    3.8887   -3.4390    0.0000 N   0  0  0  0  0  0  0  0  0
    3.2213   -3.9239    0.0000 C   0  0  0  0  0  0  0  0  0
    3.4762   -4.7086    0.0000 C   0  0  0  0  0  0  0  0  0
    4.3012   -4.7086    0.0000 C   0  0  0  0  0  0  0  0  0
    2.9242   -5.3217    0.0000 C   0  0  0  0  0  0  0  0  0
    2.1172   -5.1501    0.0000 C   0  0  0  0  0  0  0  0  0
    1.8623   -4.3655    0.0000 C   0  0  0  0  0  0  0  0  0
    2.4143   -3.7524    0.0000 C   0  0  0  0  0  0  0  0  0
    3.8887   -2.6140    0.0000 C   0  0  0  0  0  0  0  0  0
    3.1743   -2.2015    0.0000 C   0  0  0  0  0  0  0  0  0
    3.1743   -1.3765    0.0000 C   0  0  0  0  0  0  0  0  0
    2.4598   -0.9640    0.0000 C   0  0  0  0  0  0  0  0  0
    2.4598   -0.1390    0.0000 N   0  0  0  0  0  0  0  0  0
    1.7453    0.2735    0.0000 C   0  0  0  0  0  0  0  0  0
    1.7453    1.0985    0.0000 C   0  0  0  0  0  0  0  0  0
    2.4598    1.5110    0.0000 N   0  0  0  0  0  0  0  0  0
    3.1743    1.0985    0.0000 C   0  0  0  0  0  0  0  0  0
    3.1743    0.2735    0.0000 C   0  0  0  0  0  0  0  0  0
    2.4598    2.3360    0.0000 C   0  0  0  0  0  0  0  0  0
    3.1743    2.7485    0.0000 C   0  0  0  0  0  0  0  0  0
    3.1743    3.5735    0.0000 C   0  0  0  0  0  0  0  0  0
    2.4598    3.9860    0.0000 C   0  0  0  0  0  0  0  0  0
    1.7453    3.5735    0.0000 C   0  0  0  0  0  0  0  0  0
    1.7453    2.7485    0.0000 C   0  0  0  0  0  0  0  0  0
    3.8887    3.9860    0.0000 C   0  0  0  0  0  0  0  0  0
    4.6032    3.5735    0.0000 C   0  0  0  0  0  0  0  0  0
    4.6032    2.7485    0.0000 C   0  0  0  0  0  0  0  0  0
    3.8887    2.3360    0.0000 C   0  0  0  0  0  0  0  0  0
  1  2  2  0  0  0  0
  2  3  1  0  0  0  0
  2  6  1  0  0  0  0
  3  4  1  0  0  0  0
  3 11  1  0  0  0  0
  4  5  4  0  0  0  0
  4 10  4  0  0  0  0
  5  6  1  0  0  0  0
  5  7  4  0  0  0  0
  7  8  4  0  0  0  0
  8  9  4  0  0  0  0
  9 10  4  0  0  0  0
 11 12  1  0  0  0  0
 12 13  1  0  0  0  0
 13 14  1  0  0  0  0
 14 15  1  0  0  0  0
 15 16  1  0  0  0  0
 15 20  1  0  0  0  0
 16 17  1  0  0  0  0
 17 18  1  0  0  0  0
 18 19  1  0  0  0  0
 18 21  1  0  0  0  0
 19 20  1  0  0  0  0
 21 22  4  0  0  0  0
 21 26  4  0  0  0  0
 22 23  4  0  0  0  0
 22 30  4  0  0  0  0
 23 24  4  0  0  0  0
 23 27  4  0  0  0  0
 24 25  4  0  0  0  0
 25 26  4  0  0  0  0
 27 28  4  0  0  0  0
 28 29  4  0  0  0  0
 29 30  4  0  0  0  0
M  END
>  <Name_Molregno>
499269

>  <5-HT1A>
7.66

>  <5-HT7>
7.33

$$$$
499270
  Marvin  02231216192D 0   1.00000     0.00000     0

 27 30  0  0  0  0  0  0  0  0999 V2000
   -4.3766   -1.8305    0.0000 O   0  0  0  0  0  0  0  0  0
   -4.9897   -1.2784    0.0000 C   0  0  0  0  0  0  0  0  0
   -4.9034   -0.4580    0.0000 N   0  0  0  0  0  0  0  0  0
   -5.6571   -0.1224    0.0000 C   0  0  0  0  0  0  0  0  0
   -6.2091   -0.7355    0.0000 C   0  0  0  0  0  0  0  0  0
   -5.7966   -1.4500    0.0000 C   0  0  0  0  0  0  0  0  0
   -7.0161   -0.5640    0.0000 C   0  0  0  0  0  0  0  0  0
   -7.2710    0.2207    0.0000 C   0  0  0  0  0  0  0  0  0
   -6.7190    0.8337    0.0000 C   0  0  0  0  0  0  0  0  0
   -5.9120    0.6622    0.0000 C   0  0  0  0  0  0  0  0  0
   -4.1889   -0.0455    0.0000 C   0  0  0  0  0  0  0  0  0
   -3.4745   -0.4580    0.0000 C   0  0  0  0  0  0  0  0  0
   -2.7600   -0.0455    0.0000 C   0  0  0  0  0  0  0  0  0
   -2.0455   -0.4580    0.0000 C   0  0  0  0  0  0  0  0  0
   -1.3311   -0.0455    0.0000 C   0  0  0  0  0  0  0  0  0
   -0.6166   -0.4580    0.0000 N   0  0  0  0  0  0  0  0  0
    0.0979   -0.0455    0.0000 C   0  0  0  0  0  0  0  0  0
    0.8123   -0.4580    0.0000 C   0  0  0  0  0  0  0  0  0
    0.8123   -1.2830    0.0000 N   0  0  0  0  0  0  0  0  0
    0.0979   -1.6955    0.0000 C   0  0  0  0  0  0  0  0  0
   -0.6166   -1.2830    0.0000 C   0  0  0  0  0  0  0  0  0
    1.5268   -1.6955    0.0000 C   0  0  0  0  0  0  0  0  0
    2.2413   -1.2830    0.0000 C   0  0  0  0  0  0  0  0  0
    2.9558   -1.6955    0.0000 C   0  0  0  0  0  0  0  0  0
    2.9558   -2.5205    0.0000 C   0  0  0  0  0  0  0  0  0
    2.2413   -2.9330    0.0000 C   0  0  0  0  0  0  0  0  0
    1.5268   -2.5205    0.0000 C   0  0  0  0  0  0  0  0  0
  1  2  2  0  0  0  0
  2  3  1  0  0  0  0
  2  6  1  0  0  0  0
  3  4  1  0  0  0  0
  3 11  1  0  0  0  0
  4  5  4  0  0  0  0
  4 10  4  0  0  0  0
  5  6  1  0  0  0  0
  5  7  4  0  0  0  0
  7  8  4  0  0  0  0
  8  9  4  0  0  0  0
  9 10  4  0  0  0  0
 11 12  1  0  0  0  0
 12 13  1  0  0  0  0
 13 14  1  0  0  0  0
 14 15  1  0  0  0  0
 15 16  1  0  0  0  0
 16 17  1  0  0  0  0
 16 21  1  0  0  0  0
 17 18  1  0  0  0  0
 18 19  1  0  0  0  0
 19 20  1  0  0  0  0
 19 22  1  0  0  0  0
 20 21  1  0  0  0  0
 22 23  4  0  0  0  0
 22 27  4  0  0  0  0
 23 24  4  0  0  0  0
 24 25  4  0  0  0  0
 25 26  4  0  0  0  0
 26 27  4  0  0  0  0
M  END
>  <Name_Molregno>
499270

>  <5-HT1A>
6

>  <5-HT7>
7.2

$$$$
499271
  Marvin  02231216192D 0   1.00000     0.00000     0

 29 32  0  0  0  0  0  0  0  0999 V2000
   -8.0581    0.0161    0.0000 O   0  0  0  0  0  0  0  0  0
   -8.7725   -0.3964    0.0000 C   0  0  0  0  0  0  0  0  0
   -8.0581    0.8411    0.0000 C   0  0  0  0  0  0  0  0  0
   -8.7725    1.2536    0.0000 C   0  0  0  0  0  0  0  0  0
   -8.7725    2.0786    0.0000 C   0  0  0  0  0  0  0  0  0
   -8.0581    2.4911    0.0000 C   0  0  0  0  0  0  0  0  0
   -7.3436    2.0786    0.0000 C   0  0  0  0  0  0  0  0  0
   -7.3436    1.2536    0.0000 C   0  0  0  0  0  0  0  0  0
   -6.6291    0.8411    0.0000 N   0  0  0  0  0  0  0  0  0
   -5.9147    1.2536    0.0000 C   0  0  0  0  0  0  0  0  0
   -5.2002    0.8411    0.0000 C   0  0  0  0  0  0  0  0  0
   -5.2002    0.0161    0.0000 N   0  0  0  0  0  0  0  0  0
   -5.9147   -0.3964    0.0000 C   0  0  0  0  0  0  0  0  0
   -6.6291    0.0161    0.0000 C   0  0  0  0  0  0  0  0  0
   -4.4857   -0.3964    0.0000 C   0  0  0  0  0  0  0  0  0
   -3.7712    0.0161    0.0000 C   0  0  0  0  0  0  0  0  0
   -3.0568   -0.3964    0.0000 C   0  0  0  0  0  0  0  0  0
   -2.3423    0.0161    0.0000 C   0  0  0  0  0  0  0  0  0
   -1.6278   -0.3964    0.0000 C   0  0  0  0  0  0  0  0  0
   -0.9134    0.0161    0.0000 N   0  0  0  0  0  0  0  0  0
   -0.1597   -0.3194    0.0000 C   0  0  0  0  0  0  0  0  0
    0.3923    0.2937    0.0000 C   0  0  0  0  0  0  0  0  0
   -0.0202    1.0082    0.0000 C   0  0  0  0  0  0  0  0  0
   -0.8271    0.8366    0.0000 C   0  0  0  0  0  0  0  0  0
   -1.4402    1.3887    0.0000 O   0  0  0  0  0  0  0  0  0
    1.1993    0.1222    0.0000 C   0  0  0  0  0  0  0  0  0
    1.4543   -0.6625    0.0000 C   0  0  0  0  0  0  0  0  0
    0.9022   -1.2756    0.0000 C   0  0  0  0  0  0  0  0  0
    0.0953   -1.1040    0.0000 C   0  0  0  0  0  0  0  0  0
  1  2  1  0  0  0  0
  1  3  1  0  0  0  0
  3  4  4  0  0  0  0
  3  8  4  0  0  0  0
  4  5  4  0  0  0  0
  5  6  4  0  0  0  0
  6  7  4  0  0  0  0
  7  8  4  0  0  0  0
  8  9  1  0  0  0  0
  9 10  1  0  0  0  0
  9 14  1  0  0  0  0
 10 11  1  0  0  0  0
 11 12  1  0  0  0  0
 12 13  1  0  0  0  0
 12 15  1  0  0  0  0
 13 14  1  0  0  0  0
 15 16  1  0  0  0  0
 16 17  1  0  0  0  0
 17 18  1  0  0  0  0
 18 19  1  0  0  0  0
 19 20  1  0  0  0  0
 20 21  1  0  0  0  0
 20 24  1  0  0  0  0
 21 22  4  0  0  0  0
 21 29  4  0  0  0  0
 22 23  1  0  0  0  0
 22 26  4  0  0  0  0
 23 24  1  0  0  0  0
 24 25  2  0  0  0  0
 26 27  4  0  0  0  0
 27 28  4  0  0  0  0
 28 29  4  0  0  0  0
M  END
>  <Name_Molregno>
499271

>  <5-HT1A>
6

>  <5-HT7>
7.2

$$$$
499341
  Marvin  02231216192D 0   1.00000     0.00000     0

 31 35  0  0  0  0  0  0  0  0999 V2000
   -4.4201   -4.1530    0.0000 O   0  0  0  0  0  0  0  0  0
   -5.0332   -3.6010    0.0000 C   0  0  0  0  0  0  0  0  0
   -4.9470   -2.7805    0.0000 N   0  0  0  0  0  0  0  0  0
   -5.7007   -2.4450    0.0000 C   0  0  0  0  0  0  0  0  0
   -6.2527   -3.0581    0.0000 C   0  0  0  0  0  0  0  0  0
   -5.8402   -3.7725    0.0000 C   0  0  0  0  0  0  0  0  0
   -7.0597   -2.8865    0.0000 C   0  0  0  0  0  0  0  0  0
   -7.3146   -2.1019    0.0000 C   0  0  0  0  0  0  0  0  0
   -6.7626   -1.4888    0.0000 C   0  0  0  0  0  0  0  0  0
   -5.9556   -1.6604    0.0000 C   0  0  0  0  0  0  0  0  0
   -4.2325   -2.3680    0.0000 C   0  0  0  0  0  0  0  0  0
   -3.5180   -2.7805    0.0000 C   0  0  0  0  0  0  0  0  0
   -2.8036   -2.3680    0.0000 C   0  0  0  0  0  0  0  0  0
   -2.0891   -2.7805    0.0000 C   0  0  0  0  0  0  0  0  0
   -1.3746   -2.3680    0.0000 C   0  0  0  0  0  0  0  0  0
   -1.3746   -1.5430    0.0000 N   0  0  0  0  0  0  0  0  0
   -2.0891   -1.1305    0.0000 C   0  0  0  0  0  0  0  0  0
   -2.0891   -0.3055    0.0000 C   0  0  0  0  0  0  0  0  0
   -1.3746    0.1070    0.0000 N   0  0  0  0  0  0  0  0  0
   -0.6602   -0.3055    0.0000 C   0  0  0  0  0  0  0  0  0
   -0.6602   -1.1305    0.0000 C   0  0  0  0  0  0  0  0  0
   -1.3746    0.9320    0.0000 C   0  0  0  0  0  0  0  0  0
   -0.6602    1.3445    0.0000 C   0  0  0  0  0  0  0  0  0
   -0.6602    2.1695    0.0000 C   0  0  0  0  0  0  0  0  0
   -1.3746    2.5820    0.0000 C   0  0  0  0  0  0  0  0  0
   -2.0891    2.1695    0.0000 C   0  0  0  0  0  0  0  0  0
   -2.0891    1.3445    0.0000 C   0  0  0  0  0  0  0  0  0
    0.0543    2.5820    0.0000 C   0  0  0  0  0  0  0  0  0
    0.7688    2.1695    0.0000 C   0  0  0  0  0  0  0  0  0
    0.7688    1.3445    0.0000 C   0  0  0  0  0  0  0  0  0
    0.0543    0.9320    0.0000 C   0  0  0  0  0  0  0  0  0
  1  2  2  0  0  0  0
  2  3  1  0  0  0  0
  2  6  1  0  0  0  0
  3  4  1  0  0  0  0
  3 11  1  0  0  0  0
  4  5  4  0  0  0  0
  4 10  4  0  0  0  0
  5  6  1  0  0  0  0
  5  7  4  0  0  0  0
  7  8  4  0  0  0  0
  8  9  4  0  0  0  0
  9 10  4  0  0  0  0
 11 12  1  0  0  0  0
 12 13  1  0  0  0  0
 13 14  1  0  0  0  0
 14 15  1  0  0  0  0
 15 16  1  0  0  0  0
 16 17  1  0  0  0  0
 16 21  1  0  0  0  0
 17 18  1  0  0  0  0
 18 19  1  0  0  0  0
 19 20  1  0  0  0  0
 19 22  1  0  0  0  0
 20 21  1  0  0  0  0
 22 23  4  0  0  0  0
 22 27  4  0  0  0  0
 23 24  4  0  0  0  0
 23 31  4  0  0  0  0
 24 25  4  0  0  0  0
 24 28  4  0  0  0  0
 25 26  4  0  0  0  0
 26 27  4  0  0  0  0
 28 29  4  0  0  0  0
 29 30  4  0  0  0  0
 30 31  4  0  0  0  0
M  END
>  <Name_Molregno>
499341

>  <5-HT1A>
7.8

>  <5-HT7>
7.16

$$$$
499342
  Marvin  02231216192D 0   1.00000     0.00000     0

 30 34  0  0  0  0  0  0  0  0999 V2000
   -0.5810   -2.3067    0.0000 O   0  0  0  0  0  0  0  0  0
   -0.7526   -3.1136    0.0000 C   0  0  0  0  0  0  0  0  0
   -1.5062   -3.4492    0.0000 N   0  0  0  0  0  0  0  0  0
   -1.4200   -4.2697    0.0000 C   0  0  0  0  0  0  0  0  0
   -0.6130   -4.4412    0.0000 C   0  0  0  0  0  0  0  0  0
   -0.2005   -3.7267    0.0000 C   0  0  0  0  0  0  0  0  0
   -0.3581   -5.2258    0.0000 C   0  0  0  0  0  0  0  0  0
   -0.9101   -5.8389    0.0000 C   0  0  0  0  0  0  0  0  0
   -1.7171   -5.6674    0.0000 C   0  0  0  0  0  0  0  0  0
   -1.9720   -4.8828    0.0000 C   0  0  0  0  0  0  0  0  0
   -2.2207   -3.0367    0.0000 C   0  0  0  0  0  0  0  0  0
   -2.2207   -2.2117    0.0000 C   0  0  0  0  0  0  0  0  0
   -2.9352   -1.7992    0.0000 C   0  0  0  0  0  0  0  0  0
   -2.9352   -0.9742    0.0000 C   0  0  0  0  0  0  0  0  0
   -3.6497   -0.5617    0.0000 C   0  0  0  0  0  0  0  0  0
   -3.6497    0.2633    0.0000 N   0  0  0  0  0  0  0  0  0
   -4.3641    0.6758    0.0000 C   0  0  0  0  0  0  0  0  0
   -4.3641    1.5008    0.0000 C   0  0  0  0  0  0  0  0  0
   -3.6497    1.9133    0.0000 N   0  0  0  0  0  0  0  0  0
   -2.9352    1.5008    0.0000 C   0  0  0  0  0  0  0  0  0
   -2.9352    0.6758    0.0000 C   0  0  0  0  0  0  0  0  0
   -3.6497    2.7383    0.0000 C   0  0  0  0  0  0  0  0  0
   -4.3641    3.1508    0.0000 C   0  0  0  0  0  0  0  0  0
   -5.1487    2.8959    0.0000 N   0  0  0  0  0  0  0  0  0
   -5.6337    3.5633    0.0000 C   0  0  0  0  0  0  0  0  0
   -5.1487    4.2307    0.0000 N   0  0  0  0  0  0  0  0  0
   -4.3641    3.9758    0.0000 C   0  0  0  0  0  0  0  0  0
   -3.6497    4.3883    0.0000 C   0  0  0  0  0  0  0  0  0
   -2.9352    3.9758    0.0000 C   0  0  0  0  0  0  0  0  0
   -2.9352    3.1508    0.0000 C   0  0  0  0  0  0  0  0  0
  1  2  2  0  0  0  0
  2  3  1  0  0  0  0
  2  6  1  0  0  0  0
  3  4  1  0  0  0  0
  3 11  1  0  0  0  0
  4  5  4  0  0  0  0
  4 10  4  0  0  0  0
  5  6  1  0  0  0  0
  5  7  4  0  0  0  0
  7  8  4  0  0  0  0
  8  9  4  0  0  0  0
  9 10  4  0  0  0  0
 11 12  1  0  0  0  0
 12 13  1  0  0  0  0
 13 14  1  0  0  0  0
 14 15  1  0  0  0  0
 15 16  1  0  0  0  0
 16 17  1  0  0  0  0
 16 21  1  0  0  0  0
 17 18  1  0  0  0  0
 18 19  1  0  0  0  0
 19 20  1  0  0  0  0
 19 22  1  0  0  0  0
 20 21  1  0  0  0  0
 22 23  4  0  0  0  0
 22 30  4  0  0  0  0
 23 24  4  0  0  0  0
 23 27  4  0  0  0  0
 24 25  4  0  0  0  0
 25 26  4  0  0  0  0
 26 27  4  0  0  0  0
 27 28  4  0  0  0  0
 28 29  4  0  0  0  0
 29 30  4  0  0  0  0
M  STY  1   1 DAT
M  SAL   1  1  26
M  SDT   1 MRV_IMPLICIT_H                                        
M  SDD   1     0.0000    0.0000    DR    ALL  0       0  
M  SED   1 IMPL_H1
M  END
>  <Name_Molregno>
499342

>  <5-HT1A>
7.74

>  <5-HT7>
7.17

$$$$
499343
  Marvin  02231216192D 0   1.00000     0.00000     0

 30 34  0  0  0  0  0  0  0  0999 V2000
   -0.8793   -3.6690    0.0000 O   0  0  0  0  0  0  0  0  0
   -1.6639   -3.9239    0.0000 C   0  0  0  0  0  0  0  0  0
   -2.3313   -3.4390    0.0000 N   0  0  0  0  0  0  0  0  0
   -2.9988   -3.9239    0.0000 C   0  0  0  0  0  0  0  0  0
   -2.7438   -4.7086    0.0000 C   0  0  0  0  0  0  0  0  0
   -1.9188   -4.7086    0.0000 C   0  0  0  0  0  0  0  0  0
   -3.2959   -5.3217    0.0000 C   0  0  0  0  0  0  0  0  0
   -4.1028   -5.1501    0.0000 C   0  0  0  0  0  0  0  0  0
   -4.3578   -4.3655    0.0000 C   0  0  0  0  0  0  0  0  0
   -3.8057   -3.7524    0.0000 C   0  0  0  0  0  0  0  0  0
   -2.3313   -2.6140    0.0000 C   0  0  0  0  0  0  0  0  0
   -3.0458   -2.2015    0.0000 C   0  0  0  0  0  0  0  0  0
   -3.0458   -1.3765    0.0000 C   0  0  0  0  0  0  0  0  0
   -3.7603   -0.9640    0.0000 C   0  0  0  0  0  0  0  0  0
   -3.7603   -0.1390    0.0000 N   0  0  0  0  0  0  0  0  0
   -4.4747    0.2735    0.0000 C   0  0  0  0  0  0  0  0  0
   -4.4747    1.0985    0.0000 C   0  0  0  0  0  0  0  0  0
   -3.7603    1.5110    0.0000 N   0  0  0  0  0  0  0  0  0
   -3.0458    1.0985    0.0000 C   0  0  0  0  0  0  0  0  0
   -3.0458    0.2735    0.0000 C   0  0  0  0  0  0  0  0  0
   -3.7603    2.3360    0.0000 C   0  0  0  0  0  0  0  0  0
   -3.0458    2.7485    0.0000 C   0  0  0  0  0  0  0  0  0
   -3.0458    3.5735    0.0000 C   0  0  0  0  0  0  0  0  0
   -3.7603    3.9860    0.0000 C   0  0  0  0  0  0  0  0  0
   -4.4747    3.5735    0.0000 C   0  0  0  0  0  0  0  0  0
   -4.4747    2.7485    0.0000 C   0  0  0  0  0  0  0  0  0
   -2.3313    3.9860    0.0000 C   0  0  0  0  0  0  0  0  0
   -1.6169    3.5735    0.0000 C   0  0  0  0  0  0  0  0  0
   -1.6169    2.7485    0.0000 C   0  0  0  0  0  0  0  0  0
   -2.3313    2.3360    0.0000 C   0  0  0  0  0  0  0  0  0
  1  2  2  0  0  0  0
  2  3  1  0  0  0  0
  2  6  1  0  0  0  0
  3  4  1  0  0  0  0
  3 11  1  0  0  0  0
  4  5  4  0  0  0  0
  4 10  4  0  0  0  0
  5  6  1  0  0  0  0
  5  7  4  0  0  0  0
  7  8  4  0  0  0  0
  8  9  4  0  0  0  0
  9 10  4  0  0  0  0
 11 12  1  0  0  0  0
 12 13  2  0  0  0  0
 13 14  1  0  0  0  0
 14 15  1  0  0  0  0
 15 16  1  0  0  0  0
 15 20  1  0  0  0  0
 16 17  1  0  0  0  0
 17 18  1  0  0  0  0
 18 19  1  0  0  0  0
 18 21  1  0  0  0  0
 19 20  1  0  0  0  0
 21 22  4  0  0  0  0
 21 26  4  0  0  0  0
 22 23  4  0  0  0  0
 22 30  4  0  0  0  0
 23 24  4  0  0  0  0
 23 27  4  0  0  0  0
 24 25  4  0  0  0  0
 25 26  4  0  0  0  0
 27 28  4  0  0  0  0
 28 29  4  0  0  0  0
 29 30  4  0  0  0  0
M  END
>  <Name_Molregno>
499343

>  <5-HT1A>
7.67

>  <5-HT7>
6.88

$$$$
499408
  Marvin  02231216192D 0   1.00000     0.00000     0

 30 34  0  0  0  0  0  0  0  0999 V2000
   -0.2057   -3.0322    0.0000 O   0  0  0  0  0  0  0  0  0
   -0.9903   -3.2871    0.0000 C   0  0  0  0  0  0  0  0  0
   -1.6577   -2.8022    0.0000 N   0  0  0  0  0  0  0  0  0
   -2.3252   -3.2871    0.0000 C   0  0  0  0  0  0  0  0  0
   -2.0702   -4.0718    0.0000 C   0  0  0  0  0  0  0  0  0
   -1.2452   -4.0718    0.0000 C   0  0  0  0  0  0  0  0  0
   -2.6223   -4.6849    0.0000 C   0  0  0  0  0  0  0  0  0
   -3.4292   -4.5133    0.0000 C   0  0  0  0  0  0  0  0  0
   -3.6842   -3.7287    0.0000 C   0  0  0  0  0  0  0  0  0
   -3.1321   -3.1156    0.0000 C   0  0  0  0  0  0  0  0  0
   -1.6577   -1.9772    0.0000 C   0  0  0  0  0  0  0  0  0
   -2.3722   -1.5647    0.0000 C   0  0  0  0  0  0  0  0  0
   -3.0867   -1.1522    0.0000 C   0  0  0  0  0  0  0  0  0
   -3.8011   -0.7397    0.0000 C   0  0  0  0  0  0  0  0  0
   -3.8011    0.0853    0.0000 N   0  0  0  0  0  0  0  0  0
   -4.5156    0.4978    0.0000 C   0  0  0  0  0  0  0  0  0
   -4.5156    1.3228    0.0000 C   0  0  0  0  0  0  0  0  0
   -3.8011    1.7353    0.0000 N   0  0  0  0  0  0  0  0  0
   -3.0867    1.3228    0.0000 C   0  0  0  0  0  0  0  0  0
   -3.0867    0.4978    0.0000 C   0  0  0  0  0  0  0  0  0
   -3.8011    2.5603    0.0000 C   0  0  0  0  0  0  0  0  0
   -3.0867    2.9728    0.0000 C   0  0  0  0  0  0  0  0  0
   -3.0867    3.7978    0.0000 C   0  0  0  0  0  0  0  0  0
   -3.8011    4.2103    0.0000 C   0  0  0  0  0  0  0  0  0
   -4.5156    3.7978    0.0000 C   0  0  0  0  0  0  0  0  0
   -4.5156    2.9728    0.0000 C   0  0  0  0  0  0  0  0  0
   -2.3722    4.2103    0.0000 C   0  0  0  0  0  0  0  0  0
   -1.6577    3.7978    0.0000 C   0  0  0  0  0  0  0  0  0
   -1.6577    2.9728    0.0000 C   0  0  0  0  0  0  0  0  0
   -2.3722    2.5603    0.0000 C   0  0  0  0  0  0  0  0  0
  1  2  2  0  0  0  0
  2  3  1  0  0  0  0
  2  6  1  0  0  0  0
  3  4  1  0  0  0  0
  3 11  1  0  0  0  0
  4  5  4  0  0  0  0
  4 10  4  0  0  0  0
  5  6  1  0  0  0  0
  5  7  4  0  0  0  0
  7  8  4  0  0  0  0
  8  9  4  0  0  0  0
  9 10  4  0  0  0  0
 11 12  1  0  0  0  0
 12 13  3  0  0  0  0
 13 14  1  0  0  0  0
 14 15  1  0  0  0  0
 15 16  1  0  0  0  0
 15 20  1  0  0  0  0
 16 17  1  0  0  0  0
 17 18  1  0  0  0  0
 18 19  1  0  0  0  0
 18 21  1  0  0  0  0
 19 20  1  0  0  0  0
 21 22  4  0  0  0  0
 21 26  4  0  0  0  0
 22 23  4  0  0  0  0
 22 30  4  0  0  0  0
 23 24  4  0  0  0  0
 23 27  4  0  0  0  0
 24 25  4  0  0  0  0
 25 26  4  0  0  0  0
 27 28  4  0  0  0  0
 28 29  4  0  0  0  0
 29 30  4  0  0  0  0
M  END
>  <Name_Molregno>
499408

>  <5-HT1A>
7.59

>  <5-HT7>
6

$$$$
499409
  Marvin  02231216192D 0   1.00000     0.00000     0

 34 39  0  0  0  0  0  0  0  0999 V2000
   -0.7904   -0.6977    0.0000 O   0  0  0  0  0  0  0  0  0
   -0.9620   -1.5047    0.0000 C   0  0  0  0  0  0  0  0  0
   -1.7156   -1.8402    0.0000 N   0  0  0  0  0  0  0  0  0
   -1.6294   -2.6607    0.0000 C   0  0  0  0  0  0  0  0  0
   -0.8224   -2.8322    0.0000 C   0  0  0  0  0  0  0  0  0
   -0.4099   -2.1177    0.0000 C   0  0  0  0  0  0  0  0  0
   -0.5675   -3.6168    0.0000 C   0  0  0  0  0  0  0  0  0
   -1.1195   -4.2299    0.0000 C   0  0  0  0  0  0  0  0  0
   -1.9265   -4.0584    0.0000 C   0  0  0  0  0  0  0  0  0
   -2.1814   -3.2738    0.0000 C   0  0  0  0  0  0  0  0  0
   -2.4301   -1.4277    0.0000 C   0  0  0  0  0  0  0  0  0
   -2.4301   -0.6027    0.0000 C   0  0  0  0  0  0  0  0  0
   -3.1446   -0.1902    0.0000 C   0  0  0  0  0  0  0  0  0
   -3.1446    0.6348    0.0000 C   0  0  0  0  0  0  0  0  0
   -2.4301    1.0473    0.0000 C   0  0  0  0  0  0  0  0  0
   -1.7156    0.6348    0.0000 C   0  0  0  0  0  0  0  0  0
   -1.7156   -0.1902    0.0000 C   0  0  0  0  0  0  0  0  0
   -3.8591    1.0473    0.0000 C   0  0  0  0  0  0  0  0  0
   -3.8591    1.8723    0.0000 N   0  0  0  0  0  0  0  0  0
   -4.5735    2.2848    0.0000 C   0  0  0  0  0  0  0  0  0
   -4.5735    3.1098    0.0000 C   0  0  0  0  0  0  0  0  0
   -3.8591    3.5223    0.0000 N   0  0  0  0  0  0  0  0  0
   -3.1446    3.1098    0.0000 C   0  0  0  0  0  0  0  0  0
   -3.1446    2.2848    0.0000 C   0  0  0  0  0  0  0  0  0
   -3.8591    4.3473    0.0000 C   0  0  0  0  0  0  0  0  0
   -3.1446    4.7598    0.0000 C   0  0  0  0  0  0  0  0  0
   -3.1446    5.5848    0.0000 C   0  0  0  0  0  0  0  0  0
   -3.8591    5.9973    0.0000 C   0  0  0  0  0  0  0  0  0
   -4.5735    5.5848    0.0000 C   0  0  0  0  0  0  0  0  0
   -4.5735    4.7598    0.0000 C   0  0  0  0  0  0  0  0  0
   -2.4301    5.9973    0.0000 C   0  0  0  0  0  0  0  0  0
   -1.7156    5.5848    0.0000 C   0  0  0  0  0  0  0  0  0
   -1.7156    4.7598    0.0000 C   0  0  0  0  0  0  0  0  0
   -2.4301    4.3473    0.0000 C   0  0  0  0  0  0  0  0  0
  1  2  2  0  0  0  0
  2  3  1  0  0  0  0
  2  6  1  0  0  0  0
  3  4  1  0  0  0  0
  3 11  1  0  0  0  0
  4  5  4  0  0  0  0
  4 10  4  0  0  0  0
  5  6  1  0  0  0  0
  5  7  4  0  0  0  0
  7  8  4  0  0  0  0
  8  9  4  0  0  0  0
  9 10  4  0  0  0  0
 11 12  1  0  0  0  0
 12 13  4  0  0  0  0
 12 17  4  0  0  0  0
 13 14  4  0  0  0  0
 14 15  4  0  0  0  0
 14 18  1  0  0  0  0
 15 16  4  0  0  0  0
 16 17  4  0  0  0  0
 18 19  1  0  0  0  0
 19 20  1  0  0  0  0
 19 24  1  0  0  0  0
 20 21  1  0  0  0  0
 21 22  1  0  0  0  0
 22 23  1  0  0  0  0
 22 25  1  0  0  0  0
 23 24  1  0  0  0  0
 25 26  4  0  0  0  0
 25 30  4  0  0  0  0
 26 27  4  0  0  0  0
 26 34  4  0  0  0  0
 27 28  4  0  0  0  0
 27 31  4  0  0  0  0
 28 29  4  0  0  0  0
 29 30  4  0  0  0  0
 31 32  4  0  0  0  0
 32 33  4  0  0  0  0
 33 34  4  0  0  0  0
M  END
>  <Name_Molregno>
499409

>  <5-HT1A>
6

>  <5-HT7>
6

$$$$
499410
  Marvin  02231216192D 0   1.00000     0.00000     0

 34 39  0  0  0  0  0  0  0  0999 V2000
   -1.5844    0.3222    0.0000 O   0  0  0  0  0  0  0  0  0
   -0.9713   -0.2298    0.0000 C   0  0  0  0  0  0  0  0  0
   -1.0575   -1.0503    0.0000 N   0  0  0  0  0  0  0  0  0
   -0.3038   -1.3858    0.0000 C   0  0  0  0  0  0  0  0  0
    0.2482   -0.7727    0.0000 C   0  0  0  0  0  0  0  0  0
   -0.1643   -0.0583    0.0000 C   0  0  0  0  0  0  0  0  0
    1.0552   -0.9443    0.0000 C   0  0  0  0  0  0  0  0  0
    1.3101   -1.7289    0.0000 C   0  0  0  0  0  0  0  0  0
    0.7581   -2.3420    0.0000 C   0  0  0  0  0  0  0  0  0
   -0.0489   -2.1704    0.0000 C   0  0  0  0  0  0  0  0  0
   -1.7720   -1.4628    0.0000 C   0  0  0  0  0  0  0  0  0
   -2.4865   -1.0503    0.0000 C   0  0  0  0  0  0  0  0  0
   -3.2009   -1.4628    0.0000 C   0  0  0  0  0  0  0  0  0
   -3.9154   -1.0503    0.0000 C   0  0  0  0  0  0  0  0  0
   -3.9154   -0.2253    0.0000 C   0  0  0  0  0  0  0  0  0
   -3.2009    0.1872    0.0000 C   0  0  0  0  0  0  0  0  0
   -2.4865   -0.2253    0.0000 C   0  0  0  0  0  0  0  0  0
   -4.6299    0.1872    0.0000 C   0  0  0  0  0  0  0  0  0
   -4.6299    1.0122    0.0000 N   0  0  0  0  0  0  0  0  0
   -5.3443    1.4247    0.0000 C   0  0  0  0  0  0  0  0  0
   -5.3443    2.2497    0.0000 C   0  0  0  0  0  0  0  0  0
   -4.6299    2.6622    0.0000 N   0  0  0  0  0  0  0  0  0
   -3.9154    2.2497    0.0000 C   0  0  0  0  0  0  0  0  0
   -3.9154    1.4247    0.0000 C   0  0  0  0  0  0  0  0  0
   -4.6299    3.4872    0.0000 C   0  0  0  0  0  0  0  0  0
   -3.9154    3.8997    0.0000 C   0  0  0  0  0  0  0  0  0
   -3.9154    4.7247    0.0000 C   0  0  0  0  0  0  0  0  0
   -4.6299    5.1372    0.0000 C   0  0  0  0  0  0  0  0  0
   -5.3443    4.7247    0.0000 C   0  0  0  0  0  0  0  0  0
   -5.3443    3.8997    0.0000 C   0  0  0  0  0  0  0  0  0
   -3.2009    5.1372    0.0000 C   0  0  0  0  0  0  0  0  0
   -2.4865    4.7247    0.0000 C   0  0  0  0  0  0  0  0  0
   -2.4865    3.8997    0.0000 C   0  0  0  0  0  0  0  0  0
   -3.2009    3.4872    0.0000 C   0  0  0  0  0  0  0  0  0
  1  2  2  0  0  0  0
  2  3  1  0  0  0  0
  2  6  1  0  0  0  0
  3  4  1  0  0  0  0
  3 11  1  0  0  0  0
  4  5  4  0  0  0  0
  4 10  4  0  0  0  0
  5  6  1  0  0  0  0
  5  7  4  0  0  0  0
  7  8  4  0  0  0  0
  8  9  4  0  0  0  0
  9 10  4  0  0  0  0
 11 12  1  0  0  0  0
 12 13  4  0  0  0  0
 12 17  4  0  0  0  0
 13 14  4  0  0  0  0
 14 15  4  0  0  0  0
 15 16  4  0  0  0  0
 15 18  1  0  0  0  0
 16 17  4  0  0  0  0
 18 19  1  0  0  0  0
 19 20  1  0  0  0  0
 19 24  1  0  0  0  0
 20 21  1  0  0  0  0
 21 22  1  0  0  0  0
 22 23  1  0  0  0  0
 22 25  1  0  0  0  0
 23 24  1  0  0  0  0
 25 26  4  0  0  0  0
 25 30  4  0  0  0  0
 26 27  4  0  0  0  0
 26 34  4  0  0  0  0
 27 28  4  0  0  0  0
 27 31  4  0  0  0  0
 28 29  4  0  0  0  0
 29 30  4  0  0  0  0
 31 32  4  0  0  0  0
 32 33  4  0  0  0  0
 33 34  4  0  0  0  0
M  END
>  <Name_Molregno>
499410

>  <5-HT1A>
6.74

>  <5-HT7>
6

$$$$
499411
  Marvin  02231216192D 0   1.00000     0.00000     0

 26 29  0  0  0  0  0  0  0  0999 V2000
   -4.0391    2.4085    0.0000 O   0  0  0  0  0  0  0  0  0
   -3.2141    2.4085    0.0000 C   0  0  0  0  0  0  0  0  0
   -2.7292    1.7411    0.0000 N   0  0  0  0  0  0  0  0  0
   -1.9445    1.9960    0.0000 C   0  0  0  0  0  0  0  0  0
   -1.9445    2.8210    0.0000 C   0  0  0  0  0  0  0  0  0
   -2.7292    3.0760    0.0000 C   0  0  0  0  0  0  0  0  0
   -1.2301    3.2335    0.0000 C   0  0  0  0  0  0  0  0  0
   -0.5156    2.8210    0.0000 C   0  0  0  0  0  0  0  0  0
   -0.5156    1.9960    0.0000 C   0  0  0  0  0  0  0  0  0
   -1.2301    1.5835    0.0000 C   0  0  0  0  0  0  0  0  0
   -2.9841    0.9565    0.0000 C   0  0  0  0  0  0  0  0  0
   -2.4321    0.3434    0.0000 C   0  0  0  0  0  0  0  0  0
   -2.6870   -0.4413    0.0000 C   0  0  0  0  0  0  0  0  0
   -2.1350   -1.0543    0.0000 C   0  0  0  0  0  0  0  0  0
   -2.3899   -1.8390    0.0000 N   0  0  0  0  0  0  0  0  0
   -1.8379   -2.4521    0.0000 C   0  0  0  0  0  0  0  0  0
   -2.0928   -3.2367    0.0000 C   0  0  0  0  0  0  0  0  0
   -2.8998   -3.4082    0.0000 C   0  0  0  0  0  0  0  0  0
   -3.4518   -2.7951    0.0000 C   0  0  0  0  0  0  0  0  0
   -3.1969   -2.0105    0.0000 C   0  0  0  0  0  0  0  0  0
   -3.1547   -4.1928    0.0000 C   0  0  0  0  0  0  0  0  0
   -2.6027   -4.8059    0.0000 C   0  0  0  0  0  0  0  0  0
   -2.8576   -5.5905    0.0000 C   0  0  0  0  0  0  0  0  0
   -3.6646   -5.7621    0.0000 C   0  0  0  0  0  0  0  0  0
   -4.2166   -5.1490    0.0000 C   0  0  0  0  0  0  0  0  0
   -3.9617   -4.3644    0.0000 C   0  0  0  0  0  0  0  0  0
  1  2  2  0  0  0  0
  2  3  1  0  0  0  0
  2  6  1  0  0  0  0
  3  4  1  0  0  0  0
  3 11  1  0  0  0  0
  4  5  4  0  0  0  0
  4 10  4  0  0  0  0
  5  6  1  0  0  0  0
  5  7  4  0  0  0  0
  7  8  4  0  0  0  0
  8  9  4  0  0  0  0
  9 10  4  0  0  0  0
 11 12  1  0  0  0  0
 12 13  1  0  0  0  0
 13 14  1  0  0  0  0
 14 15  1  0  0  0  0
 15 16  1  0  0  0  0
 15 20  1  0  0  0  0
 16 17  1  0  0  0  0
 17 18  1  0  0  0  0
 18 19  1  0  0  0  0
 18 21  1  0  0  0  0
 19 20  1  0  0  0  0
 21 22  4  0  0  0  0
 21 26  4  0  0  0  0
 22 23  4  0  0  0  0
 23 24  4  0  0  0  0
 24 25  4  0  0  0  0
 25 26  4  0  0  0  0
M  END
>  <Name_Molregno>
499411

>  <5-HT1A>
6

>  <5-HT7>
6.8

$$$$
499477
  Marvin  02231216192D 0   1.00000     0.00000     0

 26 29  0  0  1  0  0  0  0  0999 V2000
   -2.8858    5.2736    0.0000 O   0  0  0  0  0  0  0  0  0
   -2.0608    5.2736    0.0000 C   0  0  0  0  0  0  0  0  0
   -1.5759    4.6062    0.0000 N   0  0  0  0  0  0  0  0  0
   -0.7912    4.8611    0.0000 C   0  0  0  0  0  0  0  0  0
   -0.7912    5.6861    0.0000 C   0  0  0  0  0  0  0  0  0
   -1.5759    5.9411    0.0000 C   0  0  0  0  0  0  0  0  0
   -0.0768    6.0986    0.0000 C   0  0  0  0  0  0  0  0  0
    0.6377    5.6861    0.0000 C   0  0  0  0  0  0  0  0  0
    0.6377    4.8611    0.0000 C   0  0  0  0  0  0  0  0  0
   -0.0768    4.4486    0.0000 C   0  0  0  0  0  0  0  0  0
   -1.8308    3.8216    0.0000 C   0  0  0  0  0  0  0  0  0
   -1.2788    3.2085    0.0000 C   0  0  0  0  0  0  0  0  0
   -1.5337    2.4238    0.0000 C   0  0  0  0  0  0  0  0  0
   -0.9817    1.8108    0.0000 C   0  0  0  0  0  0  0  0  0
   -1.2366    1.0261    0.0000 N   0  0  0  0  0  0  0  0  0
   -0.6846    0.4130    0.0000 C   0  0  0  0  0  0  0  0  0
   -0.9395   -0.3716    0.0000 C   0  0  0  0  0  0  0  0  0
   -1.7465   -0.5431    0.0000 C   0  0  0  0  0  0  0  0  0
   -2.2985    0.0700    0.0000 C   0  0  0  0  0  0  0  0  0
   -2.0436    0.8546    0.0000 C   0  0  0  0  0  0  0  0  0
   -0.3875   -0.9847    0.0000 C   0  0  0  0  0  0  0  0  0
    0.4195   -0.8132    0.0000 C   0  0  0  0  0  0  0  0  0
    0.9715   -1.4262    0.0000 C   0  0  0  0  0  0  0  0  0
    0.7166   -2.2109    0.0000 C   0  0  0  0  0  0  0  0  0
   -0.0904   -2.3824    0.0000 C   0  0  0  0  0  0  0  0  0
   -0.6424   -1.7693    0.0000 C   0  0  0  0  0  0  0  0  0
  1  2  2  0  0  0  0
  2  3  1  0  0  0  0
  2  6  1  0  0  0  0
  3  4  1  0  0  0  0
  3 11  1  0  0  0  0
  4  5  4  0  0  0  0
  4 10  4  0  0  0  0
  5  6  1  0  0  0  0
  5  7  4  0  0  0  0
  7  8  4  0  0  0  0
  8  9  4  0  0  0  0
  9 10  4  0  0  0  0
 11 12  1  0  0  0  0
 12 13  1  0  0  0  0
 13 14  1  0  0  0  0
 14 15  1  0  0  0  0
 15 16  1  0  0  0  0
 15 20  1  0  0  0  0
 16 17  1  0  0  0  0
 17 18  1  0  0  0  0
 17 21  1  0  0  0  0
 18 19  1  0  0  0  0
 19 20  1  0  0  0  0
 21 22  4  0  0  0  0
 21 26  4  0  0  0  0
 22 23  4  0  0  0  0
 23 24  4  0  0  0  0
 24 25  4  0  0  0  0
 25 26  4  0  0  0  0
M  END
>  <Name_Molregno>
499477

>  <5-HT1A>
6

>  <5-HT7>
6.71

$$$$
499478
  Marvin  02231216192D 0   1.00000     0.00000     0

 24 27  0  0  0  0  0  0  0  0999 V2000
   -5.1686   -1.8768    0.0000 O   0  0  0  0  0  0  0  0  0
   -4.9971   -1.0698    0.0000 C   0  0  0  0  0  0  0  0  0
   -4.2434   -0.7343    0.0000 N   0  0  0  0  0  0  0  0  0
   -4.3297    0.0862    0.0000 C   0  0  0  0  0  0  0  0  0
   -5.1366    0.2577    0.0000 C   0  0  0  0  0  0  0  0  0
   -5.5491   -0.4567    0.0000 C   0  0  0  0  0  0  0  0  0
   -5.3916    1.0424    0.0000 C   0  0  0  0  0  0  0  0  0
   -4.8396    1.6555    0.0000 C   0  0  0  0  0  0  0  0  0
   -4.0326    1.4839    0.0000 C   0  0  0  0  0  0  0  0  0
   -3.7776    0.6993    0.0000 C   0  0  0  0  0  0  0  0  0
   -3.5290   -1.1468    0.0000 C   0  0  0  0  0  0  0  0  0
   -2.8145   -0.7343    0.0000 C   0  0  0  0  0  0  0  0  0
   -2.1000   -1.1468    0.0000 C   0  0  0  0  0  0  0  0  0
   -1.3856   -0.7343    0.0000 C   0  0  0  0  0  0  0  0  0
   -0.6711   -1.1468    0.0000 N   0  0  0  0  0  0  0  0  0
   -0.6711   -1.9718    0.0000 C   0  0  0  0  0  0  0  0  0
    0.0434   -2.3843    0.0000 C   0  0  0  0  0  0  0  0  0
    0.7579   -1.9718    0.0000 C   0  0  0  0  0  0  0  0  0
    0.7579   -1.1468    0.0000 C   0  0  0  0  0  0  0  0  0
    0.0434   -0.7343    0.0000 C   0  0  0  0  0  0  0  0  0
    1.4723   -0.7343    0.0000 C   0  0  0  0  0  0  0  0  0
    2.1868   -1.1468    0.0000 C   0  0  0  0  0  0  0  0  0
    2.1868   -1.9718    0.0000 C   0  0  0  0  0  0  0  0  0
    1.4723   -2.3843    0.0000 C   0  0  0  0  0  0  0  0  0
  1  2  2  0  0  0  0
  2  3  1  0  0  0  0
  2  6  1  0  0  0  0
  3  4  1  0  0  0  0
  3 11  1  0  0  0  0
  4  5  4  0  0  0  0
  4 10  4  0  0  0  0
  5  6  1  0  0  0  0
  5  7  4  0  0  0  0
  7  8  4  0  0  0  0
  8  9  4  0  0  0  0
  9 10  4  0  0  0  0
 11 12  1  0  0  0  0
 12 13  1  0  0  0  0
 13 14  1  0  0  0  0
 14 15  1  0  0  0  0
 15 16  1  0  0  0  0
 15 20  1  0  0  0  0
 16 17  1  0  0  0  0
 17 18  1  0  0  0  0
 18 19  4  0  0  0  0
 18 24  4  0  0  0  0
 19 20  1  0  0  0  0
 19 21  4  0  0  0  0
 21 22  4  0  0  0  0
 22 23  4  0  0  0  0
 23 24  4  0  0  0  0
M  END
>  <Name_Molregno>
499478

>  <5-HT1A>
6.66

>  <5-HT7>
8.15

$$$$
499479
  Marvin  02231216192D 0   1.00000     0.00000     0

 23 26  0  0  0  0  0  0  0  0999 V2000
   -2.2061   -0.0703    0.0000 O   0  0  0  0  0  0  0  0  0
   -2.8192    0.4818    0.0000 C   0  0  0  0  0  0  0  0  0
   -2.7329    1.3023    0.0000 N   0  0  0  0  0  0  0  0  0
   -3.4866    1.6378    0.0000 C   0  0  0  0  0  0  0  0  0
   -4.0386    1.0247    0.0000 C   0  0  0  0  0  0  0  0  0
   -3.6261    0.3102    0.0000 C   0  0  0  0  0  0  0  0  0
   -4.8456    1.1962    0.0000 C   0  0  0  0  0  0  0  0  0
   -5.1005    1.9809    0.0000 C   0  0  0  0  0  0  0  0  0
   -4.5485    2.5940    0.0000 C   0  0  0  0  0  0  0  0  0
   -3.7415    2.4224    0.0000 C   0  0  0  0  0  0  0  0  0
   -2.0185    1.7148    0.0000 C   0  0  0  0  0  0  0  0  0
   -1.3040    1.3023    0.0000 C   0  0  0  0  0  0  0  0  0
   -0.5895    1.7148    0.0000 C   0  0  0  0  0  0  0  0  0
    0.1250    1.3023    0.0000 N   0  0  0  0  0  0  0  0  0
    0.1250    0.4773    0.0000 C   0  0  0  0  0  0  0  0  0
    0.8394    0.0648    0.0000 C   0  0  0  0  0  0  0  0  0
    1.5539    0.4773    0.0000 C   0  0  0  0  0  0  0  0  0
    1.5539    1.3023    0.0000 C   0  0  0  0  0  0  0  0  0
    0.8394    1.7148    0.0000 C   0  0  0  0  0  0  0  0  0
    2.2684    1.7148    0.0000 C   0  0  0  0  0  0  0  0  0
    2.9828    1.3023    0.0000 C   0  0  0  0  0  0  0  0  0
    2.9828    0.4773    0.0000 C   0  0  0  0  0  0  0  0  0
    2.2684    0.0648    0.0000 C   0  0  0  0  0  0  0  0  0
  1  2  2  0  0  0  0
  2  3  1  0  0  0  0
  2  6  1  0  0  0  0
  3  4  1  0  0  0  0
  3 11  1  0  0  0  0
  4  5  4  0  0  0  0
  4 10  4  0  0  0  0
  5  6  1  0  0  0  0
  5  7  4  0  0  0  0
  7  8  4  0  0  0  0
  8  9  4  0  0  0  0
  9 10  4  0  0  0  0
 11 12  1  0  0  0  0
 12 13  1  0  0  0  0
 13 14  1  0  0  0  0
 14 15  1  0  0  0  0
 14 19  1  0  0  0  0
 15 16  1  0  0  0  0
 16 17  1  0  0  0  0
 17 18  4  0  0  0  0
 17 23  4  0  0  0  0
 18 19  1  0  0  0  0
 18 20  4  0  0  0  0
 20 21  4  0  0  0  0
 21 22  4  0  0  0  0
 22 23  4  0  0  0  0
M  END
>  <Name_Molregno>
499479

>  <5-HT1A>
6

>  <5-HT7>
6.98

$$$$
499480
  Marvin  02231216192D 0   1.00000     0.00000     0

 22 25  0  0  0  0  0  0  0  0999 V2000
   -0.9204   -2.2397    0.0000 O   0  0  0  0  0  0  0  0  0
   -0.7488   -1.4327    0.0000 C   0  0  0  0  0  0  0  0  0
    0.0048   -1.0971    0.0000 N   0  0  0  0  0  0  0  0  0
   -0.0814   -0.2767    0.0000 C   0  0  0  0  0  0  0  0  0
   -0.8884   -0.1051    0.0000 C   0  0  0  0  0  0  0  0  0
   -1.3009   -0.8196    0.0000 C   0  0  0  0  0  0  0  0  0
   -1.1433    0.6795    0.0000 C   0  0  0  0  0  0  0  0  0
   -0.5913    1.2926    0.0000 C   0  0  0  0  0  0  0  0  0
    0.2157    1.1211    0.0000 C   0  0  0  0  0  0  0  0  0
    0.4706    0.3364    0.0000 C   0  0  0  0  0  0  0  0  0
    0.7193   -1.5096    0.0000 C   0  0  0  0  0  0  0  0  0
    1.4338   -1.0971    0.0000 C   0  0  0  0  0  0  0  0  0
    2.1482   -1.5096    0.0000 N   0  0  0  0  0  0  0  0  0
    2.1482   -2.3346    0.0000 C   0  0  0  0  0  0  0  0  0
    2.8627   -2.7471    0.0000 C   0  0  0  0  0  0  0  0  0
    3.5772   -2.3346    0.0000 C   0  0  0  0  0  0  0  0  0
    3.5772   -1.5096    0.0000 C   0  0  0  0  0  0  0  0  0
    2.8627   -1.0971    0.0000 C   0  0  0  0  0  0  0  0  0
    4.2917   -1.0971    0.0000 C   0  0  0  0  0  0  0  0  0
    5.0061   -1.5096    0.0000 C   0  0  0  0  0  0  0  0  0
    5.0061   -2.3346    0.0000 C   0  0  0  0  0  0  0  0  0
    4.2917   -2.7471    0.0000 C   0  0  0  0  0  0  0  0  0
  1  2  2  0  0  0  0
  2  3  1  0  0  0  0
  2  6  1  0  0  0  0
  3  4  1  0  0  0  0
  3 11  1  0  0  0  0
  4  5  4  0  0  0  0
  4 10  4  0  0  0  0
  5  6  1  0  0  0  0
  5  7  4  0  0  0  0
  7  8  4  0  0  0  0
  8  9  4  0  0  0  0
  9 10  4  0  0  0  0
 11 12  1  0  0  0  0
 12 13  1  0  0  0  0
 13 14  1  0  0  0  0
 13 18  1  0  0  0  0
 14 15  1  0  0  0  0
 15 16  1  0  0  0  0
 16 17  4  0  0  0  0
 16 22  4  0  0  0  0
 17 18  1  0  0  0  0
 17 19  4  0  0  0  0
 19 20  4  0  0  0  0
 20 21  4  0  0  0  0
 21 22  4  0  0  0  0
M  END
>  <Name_Molregno>
499480

>  <5-HT1A>
6

>  <5-HT7>
6.46

$$$$
513010
  Marvin  02231216192D 0   1.00000     0.00000     0

 22 24  0  0  1  0  0  0  0  0999 V2000
   -0.2296   -0.4433    0.0000 O   0  0  0  0  0  0  0  0  0
    0.5954   -0.4441    0.0000 C   0  0  0  0  0  0  0  0  0
    1.0086    0.2700    0.0000 O   0  0  0  0  0  0  0  0  0
    1.0072   -1.1590    0.0000 C   0  0  0  0  0  0  0  0  0
    1.8322   -1.1598    0.0000 C   0  0  0  0  0  0  0  0  0
    2.2440   -1.8747    0.0000 C   0  0  0  0  0  0  0  0  0
    1.8308   -2.5887    0.0000 C   0  0  0  0  0  0  0  0  0
    1.0058   -2.5879    0.0000 C   0  0  0  0  0  0  0  0  0
    0.5940   -1.8730    0.0000 C   0  0  0  0  0  0  0  0  0
   -0.6414    0.2716    0.0000 C   0  0  0  0  0  0  0  0  0
   -0.7796    1.0890    0.0000 C   0  0  0  0  0  0  0  0  0
   -1.7084    1.0735    0.0000 C   0  0  0  0  0  0  0  0  0
   -2.2690    1.5134    0.0000 N   0  0  0  0  0  0  0  0  0
   -2.1293    0.7003    0.0000 C   0  0  0  0  0  0  0  0  0
   -2.6492   -0.0120    0.0000 C   0  0  0  0  0  0  0  0  0
   -2.0289    0.3649    0.0000 C   0  0  0  0  0  0  0  0  0
   -1.1576    0.7003    0.0000 C   0  0  0  0  0  0  0  0  0
   -1.4378   -0.0757    0.0000 C   0  0  0  0  0  0  0  0  0
   -2.2499   -0.2210    0.0000 O   0  0  0  0  0  0  0  0  0
   -2.5301   -0.9969    0.0000 C   0  0  0  0  0  0  0  0  0
   -0.9059   -0.7063    0.0000 O   0  0  0  0  0  0  0  0  0
   -2.6916    2.2219    0.0000 C   0  0  0  0  0  0  0  0  0
  1  2  1  0  0  0  0
  1 10  1  0  0  0  0
  2  3  2  0  0  0  0
  2  4  1  0  0  0  0
  4  5  4  0  0  0  0
  4  9  4  0  0  0  0
  5  6  4  0  0  0  0
  6  7  4  0  0  0  0
  7  8  4  0  0  0  0
  8  9  4  0  0  0  0
 10 11  1  0  0  0  0
 10 17  1  0  0  0  0
 11 12  1  0  0  0  0
 12 13  1  0  0  0  0
 12 16  1  0  0  0  0
 13 14  1  0  0  0  0
 13 22  1  0  0  0  0
 14 15  1  0  0  0  0
 14 17  1  0  0  0  0
 15 16  1  0  0  0  0
 17 18  1  0  0  0  0
 18 19  1  0  0  0  0
 18 21  2  0  0  0  0
 19 20  1  0  0  0  0
M  END
>  <Name_Molregno>
513010

>  <5-HT1A>
5

>  <5-HT1B>
5.47

>  <5-HT1D>
5

>  <5-HT1E>
5

>  <5-HT3>
5.31

>  <5-HT5>
5

>  <5-HT6>
5

>  <5-HT7>
5

>  <Alpha-1A>
5.68

>  <Alpha-1B>
5

>  <Alpha-2A>
5

>  <Alpha-2C>
5

>  <Beta-1>
5

>  <Beta-2>
5

>  <DOPAMINE D1>
5

>  <DOPAMINE D2>
5

>  <DOPAMINE D4>
5

>  <DOPAMINE D5>
5

>  <Dopamine transporter>
6.67

>  <HISTAMINE H1>
5.67

>  <HISTAMINE H2>
5

>  <HISTAMINE H4>
5

>  <Muscarinic acetylcholine receptor M1>
5

>  <Muscarinic acetylcholine receptor M2>
5

>  <Muscarinic acetylcholine receptor M3>
5

>  <Muscarinic acetylcholine receptor M4>
5

>  <Muscarinic acetylcholine receptor M5>
5

>  <Norepinephrine transporter>
5.76

>  <Serotonin transporter>
6.68

$$$$
515852
  Marvin  02231216192D 0   1.00000     0.00000     0

 24 28  0  0  1  0  0  0  0  0999 V2000
    3.5696   -0.3324    0.0000 O   0  0  0  0  0  0  0  0  0
    3.9434   -1.0678    0.0000 C   0  0  0  0  0  0  0  0  0
    3.3594   -1.6506    0.0000 C   0  0  0  0  0  0  0  0  0
    2.6247   -1.2753    0.0000 C   0  0  0  0  0  0  0  0  0
    2.7546   -0.4606    0.0000 C   0  0  0  0  0  0  0  0  0
    2.1140    0.0593    0.0000 C   0  0  0  0  0  0  0  0  0
    1.3435   -0.2355    0.0000 C   0  0  0  0  0  0  0  0  0
    1.2136   -1.0502    0.0000 C   0  0  0  0  0  0  0  0  0
    1.8542   -1.5701    0.0000 C   0  0  0  0  0  0  0  0  0
    1.7243   -2.3848    0.0000 N   0  0  0  0  0  0  0  0  0
    0.9537   -2.6797    0.0000 C   0  0  0  0  0  0  0  0  0
    0.3131   -2.1598    0.0000 N   0  0  0  0  0  0  0  0  0
    0.4431   -1.3451    0.0000 C   0  0  0  0  0  0  0  0  0
   -0.1975   -0.8252    0.0000 N   0  0  0  0  0  0  0  0  0
   -0.9680   -1.1201    0.0000 C   0  0  0  0  0  0  0  0  0
   -1.6086   -0.6002    0.0000 C   0  0  0  0  0  0  0  0  0
   -1.4787    0.2145    0.0000 N   0  0  0  0  0  0  0  0  0
   -0.7082    0.5094    0.0000 C   0  0  0  0  0  0  0  0  0
   -0.0676   -0.0105    0.0000 C   0  0  0  0  0  0  0  0  0
    0.8238   -3.4944    0.0000 N   0  0  0  0  0  0  0  0  0
    3.5721   -2.4477    0.0000 C   0  0  0  0  0  0  0  0  0
    4.3687   -2.6621    0.0000 C   0  0  0  0  0  0  0  0  0
    4.9527   -2.0793    0.0000 C   0  0  0  0  0  0  0  0  0
    4.7400   -1.2822    0.0000 C   0  0  0  0  0  0  0  0  0
  1  2  1  0  0  0  0
  1  5  1  0  0  0  0
  2  3  1  0  0  0  0
  2 24  1  0  0  0  0
  3  4  1  0  0  0  0
  3 21  1  0  0  0  0
  4  5  2  0  0  0  0
  4  9  1  0  0  0  0
  5  6  1  0  0  0  0
  6  7  1  0  0  0  0
  7  8  1  0  0  0  0
  8  9  4  0  0  0  0
  8 13  4  0  0  0  0
  9 10  4  0  0  0  0
 10 11  4  0  0  0  0
 11 12  4  0  0  0  0
 11 20  1  0  0  0  0
 12 13  4  0  0  0  0
 13 14  1  0  0  0  0
 14 15  1  0  0  0  0
 14 19  1  0  0  0  0
 15 16  1  0  0  0  0
 16 17  1  0  0  0  0
 17 18  1  0  0  0  0
 18 19  1  0  0  0  0
 21 22  1  0  0  0  0
 22 23  1  0  0  0  0
 23 24  1  0  0  0  0
M  END
>  <Name_Molregno>
515852

>  <5-HT1A>
9.18

>  <5-HT1B>
7.74

>  <5-HT2A>
8.89

>  <5-HT2C>
8.41

>  <5-HT3>
8.18

>  <5-HT5>
6.96

>  <5-HT6>
7.03

>  <5-HT7>
9.66

>  <Beta-1>
6.37

>  <Beta-2>
9.3

>  <DOPAMINE D1>
9.42

>  <DOPAMINE D2>
8.54

>  <DOPAMINE D3>
8.85

>  <DOPAMINE D5>
9.32

>  <Dopamine transporter>
8.05

>  <HISTAMINE H1>
7.05

>  <HISTAMINE H2>
5.91

>  <HISTAMINE H3>
6.03

>  <HISTAMINE H4>
8.24

>  <Muscarinic acetylcholine receptor M1>
7.6

>  <Muscarinic acetylcholine receptor M2>
7.44

>  <Muscarinic acetylcholine receptor M3>
9.38

>  <Muscarinic acetylcholine receptor M4>
9.18

>  <Muscarinic acetylcholine receptor M5>
9.38

>  <Norepinephrine transporter>
8.17

>  <Serotonin transporter>
8.49

$$$$
557603
  Marvin  02231216192D 0   1.00000     0.00000     0

 18 18  0  0  0  0  0  0  0  0999 V2000
   -2.2997   -0.1869    0.0000 O   0  0  0  0  0  0  0  0  0
   -2.2997   -1.0119    0.0000 C   0  0  0  0  0  0  0  0  0
   -1.5852   -1.4244    0.0000 C   0  0  0  0  0  0  0  0  0
   -3.0142    0.2256    0.0000 C   0  0  0  0  0  0  0  0  0
   -3.7286   -0.1869    0.0000 C   0  0  0  0  0  0  0  0  0
   -4.4431    0.2256    0.0000 C   0  0  0  0  0  0  0  0  0
   -4.4431    1.0506    0.0000 C   0  0  0  0  0  0  0  0  0
   -3.7286    1.4631    0.0000 C   0  0  0  0  0  0  0  0  0
   -3.0142    1.0506    0.0000 C   0  0  0  0  0  0  0  0  0
   -2.2997    1.4631    0.0000 C   0  0  0  0  0  0  0  0  0
   -1.5852    1.0506    0.0000 N   0  0  0  0  0  0  0  0  0
   -0.8708    1.4631    0.0000 C   0  0  0  0  0  0  0  0  0
   -0.1563    1.0506    0.0000 N   0  0  0  0  0  0  0  0  0
    0.5582    1.4631    0.0000 C   0  0  0  0  0  0  0  0  0
    0.5582    2.2881    0.0000 O   0  0  0  0  0  0  0  0  0
    1.2727    1.0506    0.0000 N   0  0  0  0  0  0  0  0  0
    1.9871    1.4631    0.0000 C   0  0  0  0  0  0  0  0  0
   -0.8708    2.2881    0.0000 N   0  0  0  0  0  0  0  0  0
  1  2  1  0  0  0  0
  1  4  1  0  0  0  0
  2  3  1  0  0  0  0
  4  5  4  0  0  0  0
  4  9  4  0  0  0  0
  5  6  4  0  0  0  0
  6  7  4  0  0  0  0
  7  8  4  0  0  0  0
  8  9  4  0  0  0  0
  9 10  1  0  0  0  0
 10 11  1  0  0  0  0
 11 12  1  0  0  0  0
 12 13  1  0  0  0  0
 12 18  2  0  0  0  0
 13 14  1  0  0  0  0
 14 15  2  0  0  0  0
 14 16  1  0  0  0  0
 16 17  1  0  0  0  0
M  END
>  <Name_Molregno>
557603

>  <5-HT7>
7.31

$$$$
557610
  Marvin  02231216192D 0   1.00000     0.00000     0

 29 31  0  0  0  0  0  0  0  0999 V2000
   -6.0788    0.0084    0.0000 S   0  0  0  0  0  0  0  0  0
   -5.6663    0.7228    0.0000 O   0  0  0  0  0  0  0  0  0
   -6.4913   -0.7061    0.0000 O   0  0  0  0  0  0  0  0  0
   -5.3643   -0.4041    0.0000 N   0  0  0  0  0  0  0  0  0
   -4.6498    0.0084    0.0000 C   0  0  0  0  0  0  0  0  0
   -3.9354   -0.4041    0.0000 C   0  0  0  0  0  0  0  0  0
   -3.2209    0.0084    0.0000 C   0  0  0  0  0  0  0  0  0
   -2.5064   -0.4041    0.0000 N   0  0  0  0  0  0  0  0  0
   -1.7919    0.0084    0.0000 C   0  0  0  0  0  0  0  0  0
   -1.7919    0.8334    0.0000 N   0  0  0  0  0  0  0  0  0
   -1.0775   -0.4041    0.0000 N   0  0  0  0  0  0  0  0  0
   -0.3630    0.0084    0.0000 C   0  0  0  0  0  0  0  0  0
    0.3515   -0.4041    0.0000 C   0  0  0  0  0  0  0  0  0
    0.3515   -1.2291    0.0000 C   0  0  0  0  0  0  0  0  0
   -0.3630   -1.6416    0.0000 C   0  0  0  0  0  0  0  0  0
   -1.0775   -1.2291    0.0000 C   0  0  0  0  0  0  0  0  0
    1.0659   -1.6416    0.0000 C   0  0  0  0  0  0  0  0  0
    1.7804   -1.2291    0.0000 C   0  0  0  0  0  0  0  0  0
    2.4949   -1.6416    0.0000 C   0  0  0  0  0  0  0  0  0
    2.4949   -2.4666    0.0000 C   0  0  0  0  0  0  0  0  0
    1.7804   -2.8791    0.0000 C   0  0  0  0  0  0  0  0  0
    1.0659   -2.4666    0.0000 C   0  0  0  0  0  0  0  0  0
   -6.7932    0.4209    0.0000 C   0  0  0  0  0  0  0  0  0
   -7.5077    0.0084    0.0000 C   0  0  0  0  0  0  0  0  0
   -8.2222    0.4209    0.0000 C   0  0  0  0  0  0  0  0  0
   -8.2222    1.2459    0.0000 C   0  0  0  0  0  0  0  0  0
   -7.5077    1.6584    0.0000 C   0  0  0  0  0  0  0  0  0
   -6.7932    1.2459    0.0000 C   0  0  0  0  0  0  0  0  0
   -8.9367    0.0084    0.0000 C   0  0  0  0  0  0  0  0  0
  1  2  2  0  0  0  0
  1  3  2  0  0  0  0
  1  4  1  0  0  0  0
  1 23  1  0  0  0  0
  4  5  1  0  0  0  0
  5  6  1  0  0  0  0
  6  7  1  0  0  0  0
  7  8  1  0  0  0  0
  8  9  1  0  0  0  0
  9 10  2  0  0  0  0
  9 11  1  0  0  0  0
 11 12  1  0  0  0  0
 11 16  1  0  0  0  0
 12 13  1  0  0  0  0
 13 14  1  0  0  0  0
 14 15  1  0  0  0  0
 14 17  1  0  0  0  0
 15 16  1  0  0  0  0
 17 18  4  0  0  0  0
 17 22  4  0  0  0  0
 18 19  4  0  0  0  0
 19 20  4  0  0  0  0
 20 21  4  0  0  0  0
 21 22  4  0  0  0  0
 23 24  4  0  0  0  0
 23 28  4  0  0  0  0
 24 25  4  0  0  0  0
 25 26  4  0  0  0  0
 25 29  1  0  0  0  0
 26 27  4  0  0  0  0
 27 28  4  0  0  0  0
M  END
>  <Name_Molregno>
557610

>  <5-HT7>
6.56

$$$$
559335
  Marvin  02231216192D 0   1.00000     0.00000     0

 31 34  0  0  0  0  0  0  0  0999 V2000
   -5.0051    0.1975    0.0000 S   0  0  0  0  0  0  0  0  0
   -5.4176    0.9119    0.0000 O   0  0  0  0  0  0  0  0  0
   -4.5926   -0.5170    0.0000 O   0  0  0  0  0  0  0  0  0
   -4.2906    0.6100    0.0000 N   0  0  0  0  0  0  0  0  0
   -3.5761    0.1975    0.0000 C   0  0  0  0  0  0  0  0  0
   -2.8617    0.6100    0.0000 C   0  0  0  0  0  0  0  0  0
   -2.1472    0.1975    0.0000 C   0  0  0  0  0  0  0  0  0
   -1.4327    0.6100    0.0000 C   0  0  0  0  0  0  0  0  0
   -0.7182    0.1975    0.0000 N   0  0  0  0  0  0  0  0  0
   -0.0038    0.6100    0.0000 C   0  0  0  0  0  0  0  0  0
   -0.0038    1.4350    0.0000 N   0  0  0  0  0  0  0  0  0
    0.7107    0.1975    0.0000 N   0  0  0  0  0  0  0  0  0
    0.7107   -0.6275    0.0000 C   0  0  0  0  0  0  0  0  0
    1.4252   -1.0400    0.0000 C   0  0  0  0  0  0  0  0  0
    2.1396   -0.6275    0.0000 C   0  0  0  0  0  0  0  0  0
    2.1396    0.1975    0.0000 C   0  0  0  0  0  0  0  0  0
    1.4252    0.6100    0.0000 C   0  0  0  0  0  0  0  0  0
    2.8541    0.6100    0.0000 C   0  0  0  0  0  0  0  0  0
    3.5686    0.1975    0.0000 C   0  0  0  0  0  0  0  0  0
    3.5686   -0.6275    0.0000 C   0  0  0  0  0  0  0  0  0
    2.8541   -1.0400    0.0000 C   0  0  0  0  0  0  0  0  0
   -5.7195   -0.2150    0.0000 C   0  0  0  0  0  0  0  0  0
   -6.4340    0.1975    0.0000 C   0  0  0  0  0  0  0  0  0
   -7.1485   -0.2150    0.0000 C   0  0  0  0  0  0  0  0  0
   -7.1485   -1.0400    0.0000 C   0  0  0  0  0  0  0  0  0
   -6.4340   -1.4525    0.0000 C   0  0  0  0  0  0  0  0  0
   -5.7195   -1.0400    0.0000 C   0  0  0  0  0  0  0  0  0
   -7.8630    0.1975    0.0000 C   0  0  0  0  0  0  0  0  0
   -7.8630    1.0225    0.0000 C   0  0  0  0  0  0  0  0  0
   -7.1485    1.4350    0.0000 C   0  0  0  0  0  0  0  0  0
   -6.4340    1.0225    0.0000 C   0  0  0  0  0  0  0  0  0
  1  2  2  0  0  0  0
  1  3  2  0  0  0  0
  1  4  1  0  0  0  0
  1 22  1  0  0  0  0
  4  5  1  0  0  0  0
  5  6  1  0  0  0  0
  6  7  1  0  0  0  0
  7  8  1  0  0  0  0
  8  9  1  0  0  0  0
  9 10  1  0  0  0  0
 10 11  2  0  0  0  0
 10 12  1  0  0  0  0
 12 13  1  0  0  0  0
 12 17  1  0  0  0  0
 13 14  1  0  0  0  0
 14 15  1  0  0  0  0
 15 16  4  0  0  0  0
 15 21  4  0  0  0  0
 16 17  1  0  0  0  0
 16 18  4  0  0  0  0
 18 19  4  0  0  0  0
 19 20  4  0  0  0  0
 20 21  4  0  0  0  0
 22 23  4  0  0  0  0
 22 27  4  0  0  0  0
 23 24  4  0  0  0  0
 23 31  4  0  0  0  0
 24 25  4  0  0  0  0
 24 28  4  0  0  0  0
 25 26  4  0  0  0  0
 26 27  4  0  0  0  0
 28 29  4  0  0  0  0
 29 30  4  0  0  0  0
 30 31  4  0  0  0  0
M  END
>  <Name_Molregno>
559335

>  <5-HT7>
6.7

$$$$
562915
  Marvin  02231216192D 0   1.00000     0.00000     0

 34 37  0  0  0  0  0  0  0  0999 V2000
   -0.0732   -0.9176    0.0000 S   0  0  0  0  0  0  0  0  0
   -0.4857   -0.2031    0.0000 O   0  0  0  0  0  0  0  0  0
    0.3393   -1.6320    0.0000 O   0  0  0  0  0  0  0  0  0
    0.6412   -0.5051    0.0000 N   0  0  0  0  0  0  0  0  0
    1.3557   -0.9176    0.0000 C   0  0  0  0  0  0  0  0  0
    2.0702   -0.5051    0.0000 C   0  0  0  0  0  0  0  0  0
    2.7846   -0.9176    0.0000 C   0  0  0  0  0  0  0  0  0
    3.4991   -0.5051    0.0000 N   0  0  0  0  0  0  0  0  0
    4.2136   -0.9176    0.0000 C   0  0  0  0  0  0  0  0  0
    4.2136   -1.7426    0.0000 N   0  0  0  0  0  0  0  0  0
    4.9281   -0.5051    0.0000 N   0  0  0  0  0  0  0  0  0
    4.9281    0.3199    0.0000 C   0  0  0  0  0  0  0  0  0
    5.6425    0.7324    0.0000 C   0  0  0  0  0  0  0  0  0
    6.3570    0.3199    0.0000 N   0  0  0  0  0  0  0  0  0
    6.3570   -0.5051    0.0000 C   0  0  0  0  0  0  0  0  0
    5.6425   -0.9176    0.0000 C   0  0  0  0  0  0  0  0  0
    7.0715    0.7324    0.0000 C   0  0  0  0  0  0  0  0  0
    7.0715    1.5574    0.0000 C   0  0  0  0  0  0  0  0  0
    7.7859    1.9699    0.0000 C   0  0  0  0  0  0  0  0  0
    8.5004    1.5574    0.0000 C   0  0  0  0  0  0  0  0  0
    8.5004    0.7324    0.0000 C   0  0  0  0  0  0  0  0  0
    7.7859    0.3199    0.0000 C   0  0  0  0  0  0  0  0  0
    7.7859   -0.5051    0.0000 O   0  0  0  0  0  0  0  0  0
    8.5004   -0.9176    0.0000 C   0  0  0  0  0  0  0  0  0
   -0.7877   -1.3301    0.0000 C   0  0  0  0  0  0  0  0  0
   -1.5022   -0.9176    0.0000 C   0  0  0  0  0  0  0  0  0
   -2.2167   -1.3301    0.0000 C   0  0  0  0  0  0  0  0  0
   -2.2167   -2.1551    0.0000 C   0  0  0  0  0  0  0  0  0
   -1.5022   -2.5676    0.0000 C   0  0  0  0  0  0  0  0  0
   -0.7877   -2.1551    0.0000 C   0  0  0  0  0  0  0  0  0
   -2.9311   -0.9176    0.0000 C   0  0  0  0  0  0  0  0  0
   -2.9311   -0.0926    0.0000 C   0  0  0  0  0  0  0  0  0
   -2.2167    0.3199    0.0000 C   0  0  0  0  0  0  0  0  0
   -1.5022   -0.0926    0.0000 C   0  0  0  0  0  0  0  0  0
  1  2  2  0  0  0  0
  1  3  2  0  0  0  0
  1  4  1  0  0  0  0
  1 25  1  0  0  0  0
  4  5  1  0  0  0  0
  5  6  1  0  0  0  0
  6  7  1  0  0  0  0
  7  8  1  0  0  0  0
  8  9  1  0  0  0  0
  9 10  2  0  0  0  0
  9 11  1  0  0  0  0
 11 12  1  0  0  0  0
 11 16  1  0  0  0  0
 12 13  1  0  0  0  0
 13 14  1  0  0  0  0
 14 15  1  0  0  0  0
 14 17  1  0  0  0  0
 15 16  1  0  0  0  0
 17 18  4  0  0  0  0
 17 22  4  0  0  0  0
 18 19  4  0  0  0  0
 19 20  4  0  0  0  0
 20 21  4  0  0  0  0
 21 22  4  0  0  0  0
 22 23  1  0  0  0  0
 23 24  1  0  0  0  0
 25 26  4  0  0  0  0
 25 30  4  0  0  0  0
 26 27  4  0  0  0  0
 26 34  4  0  0  0  0
 27 28  4  0  0  0  0
 27 31  4  0  0  0  0
 28 29  4  0  0  0  0
 29 30  4  0  0  0  0
 31 32  4  0  0  0  0
 32 33  4  0  0  0  0
 33 34  4  0  0  0  0
M  END
>  <Name_Molregno>
562915

>  <5-HT7>
6.71

$$$$
564660
  Marvin  02231216192D 0   1.00000     0.00000     0

 30 32  0  0  0  0  0  0  0  0999 V2000
   -0.0801   -0.0027    0.0000 S   0  0  0  0  0  0  0  0  0
    0.3324    0.7118    0.0000 O   0  0  0  0  0  0  0  0  0
   -0.4926   -0.7171    0.0000 O   0  0  0  0  0  0  0  0  0
    0.6343   -0.4152    0.0000 N   0  0  0  0  0  0  0  0  0
    1.3488   -0.0027    0.0000 C   0  0  0  0  0  0  0  0  0
    2.0633   -0.4152    0.0000 C   0  0  0  0  0  0  0  0  0
    2.7777   -0.0027    0.0000 N   0  0  0  0  0  0  0  0  0
    3.4922   -0.4152    0.0000 C   0  0  0  0  0  0  0  0  0
    3.4922   -1.2402    0.0000 N   0  0  0  0  0  0  0  0  0
    4.2067   -0.0027    0.0000 N   0  0  0  0  0  0  0  0  0
    4.2067    0.8223    0.0000 C   0  0  0  0  0  0  0  0  0
    4.9211    1.2348    0.0000 C   0  0  0  0  0  0  0  0  0
    5.6356    0.8223    0.0000 N   0  0  0  0  0  0  0  0  0
    5.6356   -0.0027    0.0000 C   0  0  0  0  0  0  0  0  0
    4.9211   -0.4152    0.0000 C   0  0  0  0  0  0  0  0  0
    6.3501    1.2348    0.0000 C   0  0  0  0  0  0  0  0  0
    6.3501    2.0598    0.0000 C   0  0  0  0  0  0  0  0  0
    7.0646    2.4723    0.0000 C   0  0  0  0  0  0  0  0  0
    7.7790    2.0598    0.0000 C   0  0  0  0  0  0  0  0  0
    7.7790    1.2348    0.0000 C   0  0  0  0  0  0  0  0  0
    7.0646    0.8223    0.0000 C   0  0  0  0  0  0  0  0  0
    7.0646   -0.0027    0.0000 O   0  0  0  0  0  0  0  0  0
    7.7790   -0.4152    0.0000 C   0  0  0  0  0  0  0  0  0
   -0.7946    0.4098    0.0000 C   0  0  0  0  0  0  0  0  0
   -1.5091   -0.0027    0.0000 C   0  0  0  0  0  0  0  0  0
   -2.2236    0.4098    0.0000 C   0  0  0  0  0  0  0  0  0
   -2.2236    1.2348    0.0000 C   0  0  0  0  0  0  0  0  0
   -1.5091    1.6473    0.0000 C   0  0  0  0  0  0  0  0  0
   -0.7946    1.2348    0.0000 C   0  0  0  0  0  0  0  0  0
   -2.9380   -0.0027    0.0000 C   0  0  0  0  0  0  0  0  0
  1  2  2  0  0  0  0
  1  3  2  0  0  0  0
  1  4  1  0  0  0  0
  1 24  1  0  0  0  0
  4  5  1  0  0  0  0
  5  6  1  0  0  0  0
  6  7  1  0  0  0  0
  7  8  1  0  0  0  0
  8  9  2  0  0  0  0
  8 10  1  0  0  0  0
 10 11  1  0  0  0  0
 10 15  1  0  0  0  0
 11 12  1  0  0  0  0
 12 13  1  0  0  0  0
 13 14  1  0  0  0  0
 13 16  1  0  0  0  0
 14 15  1  0  0  0  0
 16 17  4  0  0  0  0
 16 21  4  0  0  0  0
 17 18  4  0  0  0  0
 18 19  4  0  0  0  0
 19 20  4  0  0  0  0
 20 21  4  0  0  0  0
 21 22  1  0  0  0  0
 22 23  1  0  0  0  0
 24 25  4  0  0  0  0
 24 29  4  0  0  0  0
 25 26  4  0  0  0  0
 26 27  4  0  0  0  0
 26 30  1  0  0  0  0
 27 28  4  0  0  0  0
 28 29  4  0  0  0  0
M  END
>  <Name_Molregno>
564660

>  <5-HT7>
6.47

$$$$
566422
  Marvin  02231216192D 0   1.00000     0.00000     0

 23 24  0  0  0  0  0  0  0  0999 V2000
   -3.3716   -0.0006    0.0000 S   0  0  0  0  0  0  0  0  0
   -2.9591    0.7139    0.0000 O   0  0  0  0  0  0  0  0  0
   -3.7841   -0.7151    0.0000 O   0  0  0  0  0  0  0  0  0
   -2.6571   -0.4131    0.0000 N   0  0  0  0  0  0  0  0  0
   -1.9427   -0.0006    0.0000 C   0  0  0  0  0  0  0  0  0
   -1.2282   -0.4131    0.0000 C   0  0  0  0  0  0  0  0  0
   -0.5137   -0.0006    0.0000 N   0  0  0  0  0  0  0  0  0
    0.2007   -0.4131    0.0000 C   0  0  0  0  0  0  0  0  0
    0.2007   -1.2381    0.0000 N   0  0  0  0  0  0  0  0  0
    0.9152   -0.0006    0.0000 N   0  0  0  0  0  0  0  0  0
    0.9152    0.8244    0.0000 C   0  0  0  0  0  0  0  0  0
    1.6297    1.2369    0.0000 C   0  0  0  0  0  0  0  0  0
    2.3442    0.8244    0.0000 C   0  0  0  0  0  0  0  0  0
    2.3442   -0.0006    0.0000 C   0  0  0  0  0  0  0  0  0
    1.6297   -0.4131    0.0000 C   0  0  0  0  0  0  0  0  0
    3.0586    1.2369    0.0000 C   0  0  0  0  0  0  0  0  0
   -4.0861    0.4119    0.0000 C   0  0  0  0  0  0  0  0  0
   -4.8005   -0.0006    0.0000 C   0  0  0  0  0  0  0  0  0
   -5.5150    0.4119    0.0000 C   0  0  0  0  0  0  0  0  0
   -5.5150    1.2369    0.0000 C   0  0  0  0  0  0  0  0  0
   -4.8005    1.6494    0.0000 C   0  0  0  0  0  0  0  0  0
   -4.0861    1.2369    0.0000 C   0  0  0  0  0  0  0  0  0
   -6.2295   -0.0006    0.0000 C   0  0  0  0  0  0  0  0  0
  1  2  2  0  0  0  0
  1  3  2  0  0  0  0
  1  4  1  0  0  0  0
  1 17  1  0  0  0  0
  4  5  1  0  0  0  0
  5  6  1  0  0  0  0
  6  7  1  0  0  0  0
  7  8  1  0  0  0  0
  8  9  2  0  0  0  0
  8 10  1  0  0  0  0
 10 11  1  0  0  0  0
 10 15  1  0  0  0  0
 11 12  1  0  0  0  0
 12 13  1  0  0  0  0
 13 14  1  0  0  0  0
 13 16  1  0  0  0  0
 14 15  1  0  0  0  0
 17 18  4  0  0  0  0
 17 22  4  0  0  0  0
 18 19  4  0  0  0  0
 19 20  4  0  0  0  0
 19 23  1  0  0  0  0
 20 21  4  0  0  0  0
 21 22  4  0  0  0  0
M  END
>  <Name_Molregno>
566422

>  <5-HT7>
6.75

$$$$
566457
  Marvin  02231216192D 0   1.00000     0.00000     0

 32 34  0  0  0  0  0  0  0  0999 V2000
   -0.1002   -0.0006    0.0000 S   0  0  0  0  0  0  0  0  0
    0.3123    0.7139    0.0000 O   0  0  0  0  0  0  0  0  0
   -0.5127   -0.7150    0.0000 O   0  0  0  0  0  0  0  0  0
    0.6143   -0.4131    0.0000 N   0  0  0  0  0  0  0  0  0
    1.3288   -0.0006    0.0000 C   0  0  0  0  0  0  0  0  0
    2.0432   -0.4131    0.0000 C   0  0  0  0  0  0  0  0  0
    2.7577   -0.0006    0.0000 C   0  0  0  0  0  0  0  0  0
    3.4722   -0.4131    0.0000 C   0  0  0  0  0  0  0  0  0
    4.1867   -0.0006    0.0000 N   0  0  0  0  0  0  0  0  0
    4.9011   -0.4131    0.0000 C   0  0  0  0  0  0  0  0  0
    4.9011   -1.2381    0.0000 N   0  0  0  0  0  0  0  0  0
    5.6156   -0.0006    0.0000 N   0  0  0  0  0  0  0  0  0
    5.6156    0.8244    0.0000 C   0  0  0  0  0  0  0  0  0
    6.3301    1.2369    0.0000 C   0  0  0  0  0  0  0  0  0
    7.0445    0.8244    0.0000 N   0  0  0  0  0  0  0  0  0
    7.0445   -0.0006    0.0000 C   0  0  0  0  0  0  0  0  0
    6.3301   -0.4131    0.0000 C   0  0  0  0  0  0  0  0  0
    7.7590    1.2369    0.0000 C   0  0  0  0  0  0  0  0  0
    7.7590    2.0619    0.0000 C   0  0  0  0  0  0  0  0  0
    8.4735    2.4744    0.0000 C   0  0  0  0  0  0  0  0  0
    9.1880    2.0619    0.0000 C   0  0  0  0  0  0  0  0  0
    9.1880    1.2369    0.0000 C   0  0  0  0  0  0  0  0  0
    8.4735    0.8244    0.0000 C   0  0  0  0  0  0  0  0  0
    8.4735   -0.0006    0.0000 O   0  0  0  0  0  0  0  0  0
    9.1880   -0.4131    0.0000 C   0  0  0  0  0  0  0  0  0
   -0.8146    0.4119    0.0000 C   0  0  0  0  0  0  0  0  0
   -1.5291   -0.0006    0.0000 C   0  0  0  0  0  0  0  0  0
   -2.2436    0.4119    0.0000 C   0  0  0  0  0  0  0  0  0
   -2.2436    1.2369    0.0000 C   0  0  0  0  0  0  0  0  0
   -1.5291    1.6494    0.0000 C   0  0  0  0  0  0  0  0  0
   -0.8146    1.2369    0.0000 C   0  0  0  0  0  0  0  0  0
   -2.9581    1.6494    0.0000 C   0  0  0  0  0  0  0  0  0
  1  2  2  0  0  0  0
  1  3  2  0  0  0  0
  1  4  1  0  0  0  0
  1 26  1  0  0  0  0
  4  5  1  0  0  0  0
  5  6  1  0  0  0  0
  6  7  1  0  0  0  0
  7  8  1  0  0  0  0
  8  9  1  0  0  0  0
  9 10  1  0  0  0  0
 10 11  2  0  0  0  0
 10 12  1  0  0  0  0
 12 13  1  0  0  0  0
 12 17  1  0  0  0  0
 13 14  1  0  0  0  0
 14 15  1  0  0  0  0
 15 16  1  0  0  0  0
 15 18  1  0  0  0  0
 16 17  1  0  0  0  0
 18 19  4  0  0  0  0
 18 23  4  0  0  0  0
 19 20  4  0  0  0  0
 20 21  4  0  0  0  0
 21 22  4  0  0  0  0
 22 23  4  0  0  0  0
 23 24  1  0  0  0  0
 24 25  1  0  0  0  0
 26 27  4  0  0  0  0
 26 31  4  0  0  0  0
 27 28  4  0  0  0  0
 28 29  4  0  0  0  0
 29 30  4  0  0  0  0
 29 32  1  0  0  0  0
 30 31  4  0  0  0  0
M  END
>  <Name_Molregno>
566457

>  <5-HT7>
6.85

$$$$
568260
  Marvin  02231216192D 0   1.00000     0.00000     0

 31 34  0  0  0  0  0  0  0  0999 V2000
   -8.1447   -0.3744    0.0000 O   0  0  0  0  0  0  0  0  0
   -8.8592   -0.7869    0.0000 C   0  0  0  0  0  0  0  0  0
   -8.1447    0.4506    0.0000 C   0  0  0  0  0  0  0  0  0
   -8.8592    0.8631    0.0000 C   0  0  0  0  0  0  0  0  0
   -8.8592    1.6881    0.0000 C   0  0  0  0  0  0  0  0  0
   -8.1447    2.1006    0.0000 C   0  0  0  0  0  0  0  0  0
   -7.4302    1.6881    0.0000 C   0  0  0  0  0  0  0  0  0
   -7.4302    0.8631    0.0000 C   0  0  0  0  0  0  0  0  0
   -6.7158    0.4506    0.0000 N   0  0  0  0  0  0  0  0  0
   -6.0013    0.8631    0.0000 C   0  0  0  0  0  0  0  0  0
   -5.2868    0.4506    0.0000 C   0  0  0  0  0  0  0  0  0
   -5.2868   -0.3744    0.0000 N   0  0  0  0  0  0  0  0  0
   -6.0013   -0.7869    0.0000 C   0  0  0  0  0  0  0  0  0
   -6.7158   -0.3744    0.0000 C   0  0  0  0  0  0  0  0  0
   -4.5723   -0.7869    0.0000 C   0  0  0  0  0  0  0  0  0
   -4.5723   -1.6119    0.0000 O   0  0  0  0  0  0  0  0  0
   -3.8579   -0.3744    0.0000 N   0  0  0  0  0  0  0  0  0
   -3.1434   -0.7869    0.0000 C   0  0  0  0  0  0  0  0  0
   -2.4289   -0.3744    0.0000 N   0  0  0  0  0  0  0  0  0
   -1.7145   -0.7869    0.0000 C   0  0  0  0  0  0  0  0  0
   -1.0000   -0.3744    0.0000 C   0  0  0  0  0  0  0  0  0
   -0.2855   -0.7869    0.0000 C   0  0  0  0  0  0  0  0  0
    0.4290   -0.3744    0.0000 C   0  0  0  0  0  0  0  0  0
    0.4290    0.4506    0.0000 C   0  0  0  0  0  0  0  0  0
   -0.2855    0.8631    0.0000 C   0  0  0  0  0  0  0  0  0
   -1.0000    0.4506    0.0000 C   0  0  0  0  0  0  0  0  0
    1.1434   -0.7869    0.0000 C   0  0  0  0  0  0  0  0  0
    1.1434   -1.6119    0.0000 C   0  0  0  0  0  0  0  0  0
    0.4290   -2.0244    0.0000 C   0  0  0  0  0  0  0  0  0
   -0.2855   -1.6119    0.0000 C   0  0  0  0  0  0  0  0  0
   -3.1434   -1.6119    0.0000 N   0  0  0  0  0  0  0  0  0
  1  2  1  0  0  0  0
  1  3  1  0  0  0  0
  3  4  4  0  0  0  0
  3  8  4  0  0  0  0
  4  5  4  0  0  0  0
  5  6  4  0  0  0  0
  6  7  4  0  0  0  0
  7  8  4  0  0  0  0
  8  9  1  0  0  0  0
  9 10  1  0  0  0  0
  9 14  1  0  0  0  0
 10 11  1  0  0  0  0
 11 12  1  0  0  0  0
 12 13  1  0  0  0  0
 12 15  1  0  0  0  0
 13 14  1  0  0  0  0
 15 16  2  0  0  0  0
 15 17  1  0  0  0  0
 17 18  1  0  0  0  0
 18 19  1  0  0  0  0
 18 31  2  0  0  0  0
 19 20  1  0  0  0  0
 20 21  1  0  0  0  0
 21 22  4  0  0  0  0
 21 26  4  0  0  0  0
 22 23  4  0  0  0  0
 22 30  4  0  0  0  0
 23 24  4  0  0  0  0
 23 27  4  0  0  0  0
 24 25  4  0  0  0  0
 25 26  4  0  0  0  0
 27 28  4  0  0  0  0
 28 29  4  0  0  0  0
 29 30  4  0  0  0  0
M  END
>  <Name_Molregno>
568260

>  <5-HT7>
8.22

$$$$
568261
  Marvin  02231216192D 0   1.00000     0.00000     0

 28 30  0  0  0  0  0  0  0  0999 V2000
   -0.0739    0.0043    0.0000 S   0  0  0  0  0  0  0  0  0
    0.3386    0.7187    0.0000 O   0  0  0  0  0  0  0  0  0
   -0.4864   -0.7102    0.0000 O   0  0  0  0  0  0  0  0  0
    0.6406   -0.4082    0.0000 N   0  0  0  0  0  0  0  0  0
    1.3551    0.0043    0.0000 C   0  0  0  0  0  0  0  0  0
    2.0696   -0.4082    0.0000 C   0  0  0  0  0  0  0  0  0
    2.7840    0.0043    0.0000 N   0  0  0  0  0  0  0  0  0
    3.4985   -0.4082    0.0000 C   0  0  0  0  0  0  0  0  0
    3.4985   -1.2332    0.0000 N   0  0  0  0  0  0  0  0  0
    4.2130    0.0043    0.0000 N   0  0  0  0  0  0  0  0  0
    4.2130    0.8293    0.0000 C   0  0  0  0  0  0  0  0  0
    4.9274    1.2418    0.0000 C   0  0  0  0  0  0  0  0  0
    5.6419    0.8293    0.0000 C   0  0  0  0  0  0  0  0  0
    5.6419    0.0043    0.0000 C   0  0  0  0  0  0  0  0  0
    4.9274   -0.4082    0.0000 C   0  0  0  0  0  0  0  0  0
    6.3564    1.2418    0.0000 C   0  0  0  0  0  0  0  0  0
    6.3564    2.0668    0.0000 C   0  0  0  0  0  0  0  0  0
    7.0709    2.4793    0.0000 C   0  0  0  0  0  0  0  0  0
    7.7853    2.0668    0.0000 C   0  0  0  0  0  0  0  0  0
    7.7853    1.2418    0.0000 C   0  0  0  0  0  0  0  0  0
    7.0709    0.8293    0.0000 C   0  0  0  0  0  0  0  0  0
   -0.7883    0.4168    0.0000 C   0  0  0  0  0  0  0  0  0
   -1.5028    0.0043    0.0000 C   0  0  0  0  0  0  0  0  0
   -2.2173    0.4168    0.0000 C   0  0  0  0  0  0  0  0  0
   -2.2173    1.2418    0.0000 C   0  0  0  0  0  0  0  0  0
   -1.5028    1.6543    0.0000 C   0  0  0  0  0  0  0  0  0
   -0.7883    1.2418    0.0000 C   0  0  0  0  0  0  0  0  0
   -2.9317    0.0043    0.0000 C   0  0  0  0  0  0  0  0  0
  1  2  2  0  0  0  0
  1  3  2  0  0  0  0
  1  4  1  0  0  0  0
  1 22  1  0  0  0  0
  4  5  1  0  0  0  0
  5  6  1  0  0  0  0
  6  7  1  0  0  0  0
  7  8  1  0  0  0  0
  8  9  2  0  0  0  0
  8 10  1  0  0  0  0
 10 11  1  0  0  0  0
 10 15  1  0  0  0  0
 11 12  1  0  0  0  0
 12 13  1  0  0  0  0
 13 14  1  0  0  0  0
 13 16  1  0  0  0  0
 14 15  1  0  0  0  0
 16 17  4  0  0  0  0
 16 21  4  0  0  0  0
 17 18  4  0  0  0  0
 18 19  4  0  0  0  0
 19 20  4  0  0  0  0
 20 21  4  0  0  0  0
 22 23  4  0  0  0  0
 22 27  4  0  0  0  0
 23 24  4  0  0  0  0
 24 25  4  0  0  0  0
 24 28  1  0  0  0  0
 25 26  4  0  0  0  0
 26 27  4  0  0  0  0
M  END
>  <Name_Molregno>
568261

>  <5-HT7>
6.79

$$$$
568271
  Marvin  02231216192D 0   1.00000     0.00000     0

 30 32  0  0  0  0  0  0  0  0999 V2000
   -6.8202   -0.9250    0.0000 S   0  0  0  0  0  0  0  0  0
   -6.4077   -0.2105    0.0000 O   0  0  0  0  0  0  0  0  0
   -7.2327   -1.6395    0.0000 O   0  0  0  0  0  0  0  0  0
   -6.1058   -1.3375    0.0000 N   0  0  0  0  0  0  0  0  0
   -5.3913   -0.9250    0.0000 C   0  0  0  0  0  0  0  0  0
   -4.6768   -1.3375    0.0000 C   0  0  0  0  0  0  0  0  0
   -3.9623   -0.9250    0.0000 C   0  0  0  0  0  0  0  0  0
   -3.2479   -1.3375    0.0000 C   0  0  0  0  0  0  0  0  0
   -2.5334   -0.9250    0.0000 N   0  0  0  0  0  0  0  0  0
   -1.8189   -1.3375    0.0000 C   0  0  0  0  0  0  0  0  0
   -1.8189   -2.1625    0.0000 N   0  0  0  0  0  0  0  0  0
   -1.1045   -0.9250    0.0000 N   0  0  0  0  0  0  0  0  0
   -1.1045   -0.1000    0.0000 C   0  0  0  0  0  0  0  0  0
   -0.3900    0.3125    0.0000 C   0  0  0  0  0  0  0  0  0
    0.3245   -0.1000    0.0000 C   0  0  0  0  0  0  0  0  0
    0.3245   -0.9250    0.0000 C   0  0  0  0  0  0  0  0  0
   -0.3900   -1.3375    0.0000 C   0  0  0  0  0  0  0  0  0
    1.0390    0.3125    0.0000 C   0  0  0  0  0  0  0  0  0
    1.0390    1.1375    0.0000 C   0  0  0  0  0  0  0  0  0
    1.7534    1.5500    0.0000 C   0  0  0  0  0  0  0  0  0
    2.4679    1.1375    0.0000 C   0  0  0  0  0  0  0  0  0
    2.4679    0.3125    0.0000 C   0  0  0  0  0  0  0  0  0
    1.7534   -0.1000    0.0000 C   0  0  0  0  0  0  0  0  0
   -7.5347   -0.5125    0.0000 C   0  0  0  0  0  0  0  0  0
   -8.2492   -0.9250    0.0000 C   0  0  0  0  0  0  0  0  0
   -8.9636   -0.5125    0.0000 C   0  0  0  0  0  0  0  0  0
   -8.9636    0.3125    0.0000 C   0  0  0  0  0  0  0  0  0
   -8.2492    0.7250    0.0000 C   0  0  0  0  0  0  0  0  0
   -7.5347    0.3125    0.0000 C   0  0  0  0  0  0  0  0  0
   -9.6781   -0.9250    0.0000 C   0  0  0  0  0  0  0  0  0
  1  2  2  0  0  0  0
  1  3  2  0  0  0  0
  1  4  1  0  0  0  0
  1 24  1  0  0  0  0
  4  5  1  0  0  0  0
  5  6  1  0  0  0  0
  6  7  1  0  0  0  0
  7  8  1  0  0  0  0
  8  9  1  0  0  0  0
  9 10  1  0  0  0  0
 10 11  2  0  0  0  0
 10 12  1  0  0  0  0
 12 13  1  0  0  0  0
 12 17  1  0  0  0  0
 13 14  1  0  0  0  0
 14 15  1  0  0  0  0
 15 16  1  0  0  0  0
 15 18  1  0  0  0  0
 16 17  1  0  0  0  0
 18 19  4  0  0  0  0
 18 23  4  0  0  0  0
 19 20  4  0  0  0  0
 20 21  4  0  0  0  0
 21 22  4  0  0  0  0
 22 23  4  0  0  0  0
 24 25  4  0  0  0  0
 24 29  4  0  0  0  0
 25 26  4  0  0  0  0
 26 27  4  0  0  0  0
 26 30  1  0  0  0  0
 27 28  4  0  0  0  0
 28 29  4  0  0  0  0
M  END
>  <Name_Molregno>
568271

>  <5-HT7>
6.82

$$$$
583531
  Marvin  02231216192D 0   1.00000     0.00000     0

 27 31  0  0  0  0  0  0  0  0999 V2000
    0.7697    0.3706    0.0000 N   0  0  0  0  0  0  0  0  0
   -0.0373    0.5421    0.0000 C   0  0  0  0  0  0  0  0  0
   -0.4498   -0.1724    0.0000 C   0  0  0  0  0  0  0  0  0
    0.1022   -0.7855    0.0000 N   0  0  0  0  0  0  0  0  0
    0.8559   -0.4499    0.0000 C   0  0  0  0  0  0  0  0  0
    1.5704   -0.8624    0.0000 C   0  0  0  0  0  0  0  0  0
    2.2849   -0.4499    0.0000 C   0  0  0  0  0  0  0  0  0
    2.9993   -0.8624    0.0000 C   0  0  0  0  0  0  0  0  0
    3.7138   -0.4499    0.0000 C   0  0  0  0  0  0  0  0  0
    3.7138    0.3751    0.0000 C   0  0  0  0  0  0  0  0  0
    2.9993    0.7876    0.0000 C   0  0  0  0  0  0  0  0  0
    2.2849    0.3751    0.0000 C   0  0  0  0  0  0  0  0  0
    4.4283    0.7876    0.0000 C   0  0  0  0  0  0  0  0  0
    5.1427    0.3751    0.0000 C   0  0  0  0  0  0  0  0  0
    5.1427   -0.4499    0.0000 C   0  0  0  0  0  0  0  0  0
    4.4283   -0.8624    0.0000 C   0  0  0  0  0  0  0  0  0
   -1.2748   -0.1724    0.0000 C   0  0  0  0  0  0  0  0  0
   -1.6873    0.5421    0.0000 C   0  0  0  0  0  0  0  0  0
   -2.5123    0.5421    0.0000 N   0  0  0  0  0  0  0  0  0
   -2.9248   -0.1724    0.0000 C   0  0  0  0  0  0  0  0  0
   -3.7498   -0.1724    0.0000 C   0  0  0  0  0  0  0  0  0
   -4.1623    0.5421    0.0000 N   0  0  0  0  0  0  0  0  0
   -3.7498    1.2566    0.0000 C   0  0  0  0  0  0  0  0  0
   -2.9248    1.2566    0.0000 C   0  0  0  0  0  0  0  0  0
   -4.9873    0.5421    0.0000 C   0  0  0  0  0  0  0  0  0
   -1.2748    1.2566    0.0000 C   0  0  0  0  0  0  0  0  0
   -0.4498    1.2566    0.0000 C   0  0  0  0  0  0  0  0  0
  1  2  4  0  0  0  0
  1  5  4  0  0  0  0
  2  3  4  0  0  0  0
  2 27  4  0  0  0  0
  3  4  4  0  0  0  0
  3 17  4  0  0  0  0
  4  5  4  0  0  0  0
  5  6  1  0  0  0  0
  6  7  1  0  0  0  0
  7  8  4  0  0  0  0
  7 12  4  0  0  0  0
  8  9  4  0  0  0  0
  9 10  4  0  0  0  0
  9 16  4  0  0  0  0
 10 11  4  0  0  0  0
 10 13  4  0  0  0  0
 11 12  4  0  0  0  0
 13 14  4  0  0  0  0
 14 15  4  0  0  0  0
 15 16  4  0  0  0  0
 17 18  4  0  0  0  0
 18 19  1  0  0  0  0
 18 26  4  0  0  0  0
 19 20  1  0  0  0  0
 19 24  1  0  0  0  0
 20 21  1  0  0  0  0
 21 22  1  0  0  0  0
 22 23  1  0  0  0  0
 22 25  1  0  0  0  0
 23 24  1  0  0  0  0
 26 27  4  0  0  0  0
M  STY  1   1 DAT
M  SAL   1  1   1
M  SDT   1 MRV_IMPLICIT_H                                        
M  SDD   1     0.0000    0.0000    DR    ALL  0       0  
M  SED   1 IMPL_H1
M  END
>  <Name_Molregno>
583531

>  <5-HT6>
6

>  <5-HT7>
6.3

$$$$
583535
  Marvin  02231216192D 0   1.00000     0.00000     0

 27 31  0  0  0  0  0  0  0  0999 V2000
   -0.0481    0.0223    0.0000 O   0  0  0  0  0  0  0  0  0
    0.3644   -0.6922    0.0000 C   0  0  0  0  0  0  0  0  0
   -0.0481   -1.4067    0.0000 C   0  0  0  0  0  0  0  0  0
   -0.8731   -1.4067    0.0000 C   0  0  0  0  0  0  0  0  0
   -1.2856   -2.1212    0.0000 C   0  0  0  0  0  0  0  0  0
   -0.8731   -2.8356    0.0000 C   0  0  0  0  0  0  0  0  0
   -0.0481   -2.8356    0.0000 C   0  0  0  0  0  0  0  0  0
    0.3644   -2.1212    0.0000 C   0  0  0  0  0  0  0  0  0
   -1.2856   -3.5501    0.0000 C   0  0  0  0  0  0  0  0  0
   -2.1106   -3.5501    0.0000 C   0  0  0  0  0  0  0  0  0
   -2.5231   -2.8356    0.0000 C   0  0  0  0  0  0  0  0  0
   -2.1106   -2.1212    0.0000 C   0  0  0  0  0  0  0  0  0
    1.1894   -0.6922    0.0000 C   0  0  0  0  0  0  0  0  0
    1.6743   -1.3597    0.0000 N   0  0  0  0  0  0  0  0  0
    2.4589   -1.1047    0.0000 C   0  0  0  0  0  0  0  0  0
    2.4589   -0.2797    0.0000 C   0  0  0  0  0  0  0  0  0
    1.6743   -0.0248    0.0000 N   0  0  0  0  0  0  0  0  0
    3.1734    0.1328    0.0000 C   0  0  0  0  0  0  0  0  0
    3.8878   -0.2797    0.0000 C   0  0  0  0  0  0  0  0  0
    4.6023    0.1328    0.0000 N   0  0  0  0  0  0  0  0  0
    4.6023    0.9578    0.0000 C   0  0  0  0  0  0  0  0  0
    5.3168    1.3703    0.0000 C   0  0  0  0  0  0  0  0  0
    6.0313    0.9578    0.0000 N   0  0  0  0  0  0  0  0  0
    6.0313    0.1328    0.0000 C   0  0  0  0  0  0  0  0  0
    5.3168   -0.2797    0.0000 C   0  0  0  0  0  0  0  0  0
    3.8878   -1.1047    0.0000 C   0  0  0  0  0  0  0  0  0
    3.1734   -1.5172    0.0000 C   0  0  0  0  0  0  0  0  0
  1  2  2  0  0  0  0
  2  3  1  0  0  0  0
  2 13  1  0  0  0  0
  3  4  4  0  0  0  0
  3  8  4  0  0  0  0
  4  5  4  0  0  0  0
  5  6  4  0  0  0  0
  5 12  4  0  0  0  0
  6  7  4  0  0  0  0
  6  9  4  0  0  0  0
  7  8  4  0  0  0  0
  9 10  4  0  0  0  0
 10 11  4  0  0  0  0
 11 12  4  0  0  0  0
 13 14  4  0  0  0  0
 13 17  4  0  0  0  0
 14 15  4  0  0  0  0
 15 16  4  0  0  0  0
 15 27  4  0  0  0  0
 16 17  4  0  0  0  0
 16 18  4  0  0  0  0
 18 19  4  0  0  0  0
 19 20  1  0  0  0  0
 19 26  4  0  0  0  0
 20 21  1  0  0  0  0
 20 25  1  0  0  0  0
 21 22  1  0  0  0  0
 22 23  1  0  0  0  0
 23 24  1  0  0  0  0
 24 25  1  0  0  0  0
 26 27  4  0  0  0  0
M  STY  1   1 DAT
M  SAL   1  1  14
M  SDT   1 MRV_IMPLICIT_H                                        
M  SDD   1     0.0000    0.0000    DR    ALL  0       0  
M  SED   1 IMPL_H1
M  END
>  <Name_Molregno>
583535

>  <5-HT6>
6

>  <5-HT7>
6.3

$$$$
583536
  Marvin  02231216192D 0   1.00000     0.00000     0

 22 25  0  0  0  0  0  0  0  0999 V2000
    0.4430   -0.2265    0.0000 N   0  0  0  0  0  0  0  0  0
    1.2277    0.0284    0.0000 C   0  0  0  0  0  0  0  0  0
    1.2277    0.8534    0.0000 C   0  0  0  0  0  0  0  0  0
    0.4430    1.1084    0.0000 N   0  0  0  0  0  0  0  0  0
   -0.0419    0.4409    0.0000 C   0  0  0  0  0  0  0  0  0
   -0.8669    0.4409    0.0000 C   0  0  0  0  0  0  0  0  0
   -1.2794   -0.2736    0.0000 C   0  0  0  0  0  0  0  0  0
   -0.8669   -0.9880    0.0000 C   0  0  0  0  0  0  0  0  0
   -1.2794   -1.7025    0.0000 C   0  0  0  0  0  0  0  0  0
   -2.1044   -1.7025    0.0000 C   0  0  0  0  0  0  0  0  0
   -2.5169   -0.9880    0.0000 C   0  0  0  0  0  0  0  0  0
   -2.1044   -0.2736    0.0000 C   0  0  0  0  0  0  0  0  0
    1.9421    1.2659    0.0000 C   0  0  0  0  0  0  0  0  0
    1.9421    2.0909    0.0000 N   0  0  0  0  0  0  0  0  0
    1.2277    2.5034    0.0000 C   0  0  0  0  0  0  0  0  0
    1.2277    3.3284    0.0000 C   0  0  0  0  0  0  0  0  0
    1.9421    3.7409    0.0000 N   0  0  0  0  0  0  0  0  0
    2.6566    3.3284    0.0000 C   0  0  0  0  0  0  0  0  0
    2.6566    2.5034    0.0000 C   0  0  0  0  0  0  0  0  0
    2.6566    0.8534    0.0000 C   0  0  0  0  0  0  0  0  0
    2.6566    0.0284    0.0000 C   0  0  0  0  0  0  0  0  0
    1.9421   -0.3841    0.0000 C   0  0  0  0  0  0  0  0  0
  1  2  4  0  0  0  0
  1  5  4  0  0  0  0
  2  3  4  0  0  0  0
  2 22  4  0  0  0  0
  3  4  4  0  0  0  0
  3 13  4  0  0  0  0
  4  5  4  0  0  0  0
  5  6  1  0  0  0  0
  6  7  1  0  0  0  0
  7  8  4  0  0  0  0
  7 12  4  0  0  0  0
  8  9  4  0  0  0  0
  9 10  4  0  0  0  0
 10 11  4  0  0  0  0
 11 12  4  0  0  0  0
 13 14  1  0  0  0  0
 13 20  4  0  0  0  0
 14 15  1  0  0  0  0
 14 19  1  0  0  0  0
 15 16  1  0  0  0  0
 16 17  1  0  0  0  0
 17 18  1  0  0  0  0
 18 19  1  0  0  0  0
 20 21  4  0  0  0  0
 21 22  4  0  0  0  0
M  STY  1   1 DAT
M  SAL   1  1   1
M  SDT   1 MRV_IMPLICIT_H                                        
M  SDD   1     0.0000    0.0000    DR    ALL  0       0  
M  SED   1 IMPL_H1
M  END
>  <Name_Molregno>
583536

>  <5-HT6>
7.38

>  <5-HT7>
6.3

$$$$
583547
  Marvin  02231216192D 0   1.00000     0.00000     0

 24 27  0  0  0  0  0  0  0  0999 V2000
   -2.5335   -1.4397    0.0000 O   0  0  0  0  0  0  0  0  0
   -2.1210   -2.1542    0.0000 C   0  0  0  0  0  0  0  0  0
   -2.5335   -2.8687    0.0000 C   0  0  0  0  0  0  0  0  0
   -2.1210   -3.5832    0.0000 C   0  0  0  0  0  0  0  0  0
   -2.5335   -4.2976    0.0000 C   0  0  0  0  0  0  0  0  0
   -3.3585   -4.2976    0.0000 C   0  0  0  0  0  0  0  0  0
   -3.7710   -3.5832    0.0000 C   0  0  0  0  0  0  0  0  0
   -3.3585   -2.8687    0.0000 C   0  0  0  0  0  0  0  0  0
   -1.2960   -2.1542    0.0000 C   0  0  0  0  0  0  0  0  0
   -0.8111   -2.8216    0.0000 N   0  0  0  0  0  0  0  0  0
   -0.0265   -2.5667    0.0000 C   0  0  0  0  0  0  0  0  0
   -0.0265   -1.7417    0.0000 C   0  0  0  0  0  0  0  0  0
   -0.8111   -1.4868    0.0000 N   0  0  0  0  0  0  0  0  0
    0.6880   -1.3292    0.0000 C   0  0  0  0  0  0  0  0  0
    0.6880   -0.5042    0.0000 N   0  0  0  0  0  0  0  0  0
   -0.0265   -0.0917    0.0000 C   0  0  0  0  0  0  0  0  0
   -0.0265    0.7333    0.0000 C   0  0  0  0  0  0  0  0  0
    0.6880    1.1458    0.0000 N   0  0  0  0  0  0  0  0  0
    1.4025    0.7333    0.0000 C   0  0  0  0  0  0  0  0  0
    1.4025   -0.0917    0.0000 C   0  0  0  0  0  0  0  0  0
    0.6880    1.9708    0.0000 C   0  0  0  0  0  0  0  0  0
    1.4025   -1.7417    0.0000 C   0  0  0  0  0  0  0  0  0
    1.4025   -2.5667    0.0000 C   0  0  0  0  0  0  0  0  0
    0.6880   -2.9792    0.0000 C   0  0  0  0  0  0  0  0  0
  1  2  2  0  0  0  0
  2  3  1  0  0  0  0
  2  9  1  0  0  0  0
  3  4  4  0  0  0  0
  3  8  4  0  0  0  0
  4  5  4  0  0  0  0
  5  6  4  0  0  0  0
  6  7  4  0  0  0  0
  7  8  4  0  0  0  0
  9 10  4  0  0  0  0
  9 13  4  0  0  0  0
 10 11  4  0  0  0  0
 11 12  4  0  0  0  0
 11 24  4  0  0  0  0
 12 13  4  0  0  0  0
 12 14  4  0  0  0  0
 14 15  1  0  0  0  0
 14 22  4  0  0  0  0
 15 16  1  0  0  0  0
 15 20  1  0  0  0  0
 16 17  1  0  0  0  0
 17 18  1  0  0  0  0
 18 19  1  0  0  0  0
 18 21  1  0  0  0  0
 19 20  1  0  0  0  0
 22 23  4  0  0  0  0
 23 24  4  0  0  0  0
M  STY  1   1 DAT
M  SAL   1  1  10
M  SDT   1 MRV_IMPLICIT_H                                        
M  SDD   1     0.0000    0.0000    DR    ALL  0       0  
M  SED   1 IMPL_H1
M  END
>  <Name_Molregno>
583547

>  <5-HT6>
6

>  <5-HT7>
6.3

$$$$
583548
  Marvin  02231216192D 0   1.00000     0.00000     0

 23 26  0  0  0  0  0  0  0  0999 V2000
   -1.2123   -0.6376    0.0000 N   0  0  0  0  0  0  0  0  0
   -0.4276   -0.3826    0.0000 C   0  0  0  0  0  0  0  0  0
   -0.4276    0.4424    0.0000 C   0  0  0  0  0  0  0  0  0
   -1.2123    0.6973    0.0000 N   0  0  0  0  0  0  0  0  0
   -1.6972    0.0299    0.0000 C   0  0  0  0  0  0  0  0  0
   -2.5222    0.0299    0.0000 C   0  0  0  0  0  0  0  0  0
   -2.9347   -0.6846    0.0000 C   0  0  0  0  0  0  0  0  0
   -2.5222   -1.3991    0.0000 C   0  0  0  0  0  0  0  0  0
   -2.9347   -2.1135    0.0000 C   0  0  0  0  0  0  0  0  0
   -3.7597   -2.1135    0.0000 C   0  0  0  0  0  0  0  0  0
   -4.1722   -1.3991    0.0000 C   0  0  0  0  0  0  0  0  0
   -3.7597   -0.6846    0.0000 C   0  0  0  0  0  0  0  0  0
    0.2868    0.8549    0.0000 C   0  0  0  0  0  0  0  0  0
    0.2868    1.6799    0.0000 N   0  0  0  0  0  0  0  0  0
   -0.4276    2.0924    0.0000 C   0  0  0  0  0  0  0  0  0
   -0.4276    2.9174    0.0000 C   0  0  0  0  0  0  0  0  0
    0.2868    3.3299    0.0000 N   0  0  0  0  0  0  0  0  0
    1.0013    2.9174    0.0000 C   0  0  0  0  0  0  0  0  0
    1.0013    2.0924    0.0000 C   0  0  0  0  0  0  0  0  0
    0.2868    4.1549    0.0000 C   0  0  0  0  0  0  0  0  0
    1.0013    0.4424    0.0000 C   0  0  0  0  0  0  0  0  0
    1.0013   -0.3826    0.0000 C   0  0  0  0  0  0  0  0  0
    0.2868   -0.7951    0.0000 C   0  0  0  0  0  0  0  0  0
  1  2  4  0  0  0  0
  1  5  4  0  0  0  0
  2  3  4  0  0  0  0
  2 23  4  0  0  0  0
  3  4  4  0  0  0  0
  3 13  4  0  0  0  0
  4  5  4  0  0  0  0
  5  6  1  0  0  0  0
  6  7  1  0  0  0  0
  7  8  4  0  0  0  0
  7 12  4  0  0  0  0
  8  9  4  0  0  0  0
  9 10  4  0  0  0  0
 10 11  4  0  0  0  0
 11 12  4  0  0  0  0
 13 14  1  0  0  0  0
 13 21  4  0  0  0  0
 14 15  1  0  0  0  0
 14 19  1  0  0  0  0
 15 16  1  0  0  0  0
 16 17  1  0  0  0  0
 17 18  1  0  0  0  0
 17 20  1  0  0  0  0
 18 19  1  0  0  0  0
 21 22  4  0  0  0  0
 22 23  4  0  0  0  0
M  STY  1   1 DAT
M  SAL   1  1   1
M  SDT   1 MRV_IMPLICIT_H                                        
M  SDD   1     0.0000    0.0000    DR    ALL  0       0  
M  SED   1 IMPL_H1
M  END
>  <Name_Molregno>
583548

>  <5-HT6>
7.49

>  <5-HT7>
6.3

$$$$
583552
  Marvin  02231216192D 0   1.00000     0.00000     0

 26 30  0  0  0  0  0  0  0  0999 V2000
   -0.7585    1.4071    0.0000 N   0  0  0  0  0  0  0  0  0
   -1.3105    0.7940    0.0000 C   0  0  0  0  0  0  0  0  0
   -0.8980    0.0796    0.0000 C   0  0  0  0  0  0  0  0  0
   -0.0910    0.2511    0.0000 N   0  0  0  0  0  0  0  0  0
   -0.0048    1.0716    0.0000 C   0  0  0  0  0  0  0  0  0
    0.7097    1.4841    0.0000 C   0  0  0  0  0  0  0  0  0
    0.7097    2.3091    0.0000 C   0  0  0  0  0  0  0  0  0
    1.4241    2.7216    0.0000 C   0  0  0  0  0  0  0  0  0
    1.4241    3.5466    0.0000 C   0  0  0  0  0  0  0  0  0
    0.7097    3.9591    0.0000 C   0  0  0  0  0  0  0  0  0
   -0.0048    3.5466    0.0000 C   0  0  0  0  0  0  0  0  0
   -0.0048    2.7216    0.0000 C   0  0  0  0  0  0  0  0  0
    2.1386    3.9591    0.0000 C   0  0  0  0  0  0  0  0  0
    2.8531    3.5466    0.0000 C   0  0  0  0  0  0  0  0  0
    2.8531    2.7216    0.0000 C   0  0  0  0  0  0  0  0  0
    2.1386    2.3091    0.0000 C   0  0  0  0  0  0  0  0  0
   -1.3105   -0.6349    0.0000 C   0  0  0  0  0  0  0  0  0
   -0.8980   -1.3494    0.0000 N   0  0  0  0  0  0  0  0  0
   -0.0730   -1.3494    0.0000 C   0  0  0  0  0  0  0  0  0
    0.3395   -2.0638    0.0000 C   0  0  0  0  0  0  0  0  0
   -0.0730   -2.7783    0.0000 N   0  0  0  0  0  0  0  0  0
   -0.8980   -2.7783    0.0000 C   0  0  0  0  0  0  0  0  0
   -1.3105   -2.0638    0.0000 C   0  0  0  0  0  0  0  0  0
   -2.1355   -0.6349    0.0000 C   0  0  0  0  0  0  0  0  0
   -2.5480    0.0796    0.0000 C   0  0  0  0  0  0  0  0  0
   -2.1355    0.7940    0.0000 C   0  0  0  0  0  0  0  0  0
  1  2  4  0  0  0  0
  1  5  4  0  0  0  0
  2  3  4  0  0  0  0
  2 26  4  0  0  0  0
  3  4  4  0  0  0  0
  3 17  4  0  0  0  0
  4  5  4  0  0  0  0
  5  6  1  0  0  0  0
  6  7  1  0  0  0  0
  7  8  4  0  0  0  0
  7 12  4  0  0  0  0
  8  9  4  0  0  0  0
  8 16  4  0  0  0  0
  9 10  4  0  0  0  0
  9 13  4  0  0  0  0
 10 11  4  0  0  0  0
 11 12  4  0  0  0  0
 13 14  4  0  0  0  0
 14 15  4  0  0  0  0
 15 16  4  0  0  0  0
 17 18  1  0  0  0  0
 17 24  4  0  0  0  0
 18 19  1  0  0  0  0
 18 23  1  0  0  0  0
 19 20  1  0  0  0  0
 20 21  1  0  0  0  0
 21 22  1  0  0  0  0
 22 23  1  0  0  0  0
 24 25  4  0  0  0  0
 25 26  4  0  0  0  0
M  STY  1   1 DAT
M  SAL   1  1   1
M  SDT   1 MRV_IMPLICIT_H                                        
M  SDD   1     0.0000    0.0000    DR    ALL  0       0  
M  SED   1 IMPL_H1
M  END
>  <Name_Molregno>
583552

>  <5-HT6>
7.8

>  <5-HT7>
6.3

$$$$
583562
  Marvin  02231216192D 0   1.00000     0.00000     0

 27 31  0  0  0  0  0  0  0  0999 V2000
   -2.0149   -0.5253    0.0000 O   0  0  0  0  0  0  0  0  0
   -1.6024   -1.2398    0.0000 C   0  0  0  0  0  0  0  0  0
   -2.0149   -1.9543    0.0000 C   0  0  0  0  0  0  0  0  0
   -2.8399   -1.9543    0.0000 C   0  0  0  0  0  0  0  0  0
   -3.2524   -2.6688    0.0000 C   0  0  0  0  0  0  0  0  0
   -2.8399   -3.3832    0.0000 C   0  0  0  0  0  0  0  0  0
   -2.0149   -3.3832    0.0000 C   0  0  0  0  0  0  0  0  0
   -1.6024   -2.6688    0.0000 C   0  0  0  0  0  0  0  0  0
   -4.0774   -2.6688    0.0000 C   0  0  0  0  0  0  0  0  0
   -4.4899   -1.9543    0.0000 C   0  0  0  0  0  0  0  0  0
   -4.0774   -1.2398    0.0000 C   0  0  0  0  0  0  0  0  0
   -3.2524   -1.2398    0.0000 C   0  0  0  0  0  0  0  0  0
   -0.7774   -1.2398    0.0000 C   0  0  0  0  0  0  0  0  0
   -0.2924   -1.9073    0.0000 N   0  0  0  0  0  0  0  0  0
    0.4922   -1.6523    0.0000 C   0  0  0  0  0  0  0  0  0
    0.4922   -0.8273    0.0000 C   0  0  0  0  0  0  0  0  0
   -0.2924   -0.5724    0.0000 N   0  0  0  0  0  0  0  0  0
    1.2066   -0.4148    0.0000 C   0  0  0  0  0  0  0  0  0
    1.2066    0.4102    0.0000 N   0  0  0  0  0  0  0  0  0
    0.4922    0.8227    0.0000 C   0  0  0  0  0  0  0  0  0
    0.4922    1.6477    0.0000 C   0  0  0  0  0  0  0  0  0
    1.2066    2.0602    0.0000 N   0  0  0  0  0  0  0  0  0
    1.9211    1.6477    0.0000 C   0  0  0  0  0  0  0  0  0
    1.9211    0.8227    0.0000 C   0  0  0  0  0  0  0  0  0
    1.9211   -0.8273    0.0000 C   0  0  0  0  0  0  0  0  0
    1.9211   -1.6523    0.0000 C   0  0  0  0  0  0  0  0  0
    1.2066   -2.0648    0.0000 C   0  0  0  0  0  0  0  0  0
  1  2  2  0  0  0  0
  2  3  1  0  0  0  0
  2 13  1  0  0  0  0
  3  4  4  0  0  0  0
  3  8  4  0  0  0  0
  4  5  4  0  0  0  0
  4 12  4  0  0  0  0
  5  6  4  0  0  0  0
  5  9  4  0  0  0  0
  6  7  4  0  0  0  0
  7  8  4  0  0  0  0
  9 10  4  0  0  0  0
 10 11  4  0  0  0  0
 11 12  4  0  0  0  0
 13 14  4  0  0  0  0
 13 17  4  0  0  0  0
 14 15  4  0  0  0  0
 15 16  4  0  0  0  0
 15 27  4  0  0  0  0
 16 17  4  0  0  0  0
 16 18  4  0  0  0  0
 18 19  1  0  0  0  0
 18 25  4  0  0  0  0
 19 20  1  0  0  0  0
 19 24  1  0  0  0  0
 20 21  1  0  0  0  0
 21 22  1  0  0  0  0
 22 23  1  0  0  0  0
 23 24  1  0  0  0  0
 25 26  4  0  0  0  0
 26 27  4  0  0  0  0
M  STY  1   1 DAT
M  SAL   1  1  14
M  SDT   1 MRV_IMPLICIT_H                                        
M  SDD   1     0.0000    0.0000    DR    ALL  0       0  
M  SED   1 IMPL_H1
M  END
>  <Name_Molregno>
583562

>  <5-HT6>
7.86

>  <5-HT7>
6.3

$$$$
583563
  Marvin  02231216192D 0   1.00000     0.00000     0

 28 32  0  0  0  0  0  0  0  0999 V2000
   -2.2149   -0.5826    0.0000 O   0  0  0  0  0  0  0  0  0
   -1.8024   -1.2971    0.0000 C   0  0  0  0  0  0  0  0  0
   -2.2149   -2.0116    0.0000 C   0  0  0  0  0  0  0  0  0
   -3.0399   -2.0116    0.0000 C   0  0  0  0  0  0  0  0  0
   -3.4524   -2.7260    0.0000 C   0  0  0  0  0  0  0  0  0
   -3.0399   -3.4405    0.0000 C   0  0  0  0  0  0  0  0  0
   -2.2149   -3.4405    0.0000 C   0  0  0  0  0  0  0  0  0
   -1.8024   -2.7260    0.0000 C   0  0  0  0  0  0  0  0  0
   -4.2774   -2.7260    0.0000 C   0  0  0  0  0  0  0  0  0
   -4.6899   -2.0116    0.0000 C   0  0  0  0  0  0  0  0  0
   -4.2774   -1.2971    0.0000 C   0  0  0  0  0  0  0  0  0
   -3.4524   -1.2971    0.0000 C   0  0  0  0  0  0  0  0  0
   -0.9774   -1.2971    0.0000 C   0  0  0  0  0  0  0  0  0
   -0.4925   -1.9645    0.0000 N   0  0  0  0  0  0  0  0  0
    0.2922   -1.7096    0.0000 C   0  0  0  0  0  0  0  0  0
    0.2922   -0.8846    0.0000 C   0  0  0  0  0  0  0  0  0
   -0.4925   -0.6296    0.0000 N   0  0  0  0  0  0  0  0  0
    1.0066   -0.4721    0.0000 C   0  0  0  0  0  0  0  0  0
    1.0066    0.3529    0.0000 N   0  0  0  0  0  0  0  0  0
    0.2922    0.7654    0.0000 C   0  0  0  0  0  0  0  0  0
    0.2922    1.5904    0.0000 C   0  0  0  0  0  0  0  0  0
    1.0066    2.0029    0.0000 N   0  0  0  0  0  0  0  0  0
    1.7211    1.5904    0.0000 C   0  0  0  0  0  0  0  0  0
    1.7211    0.7654    0.0000 C   0  0  0  0  0  0  0  0  0
    1.0066    2.8279    0.0000 C   0  0  0  0  0  0  0  0  0
    1.7211   -0.8846    0.0000 C   0  0  0  0  0  0  0  0  0
    1.7211   -1.7096    0.0000 C   0  0  0  0  0  0  0  0  0
    1.0066   -2.1221    0.0000 C   0  0  0  0  0  0  0  0  0
  1  2  2  0  0  0  0
  2  3  1  0  0  0  0
  2 13  1  0  0  0  0
  3  4  4  0  0  0  0
  3  8  4  0  0  0  0
  4  5  4  0  0  0  0
  4 12  4  0  0  0  0
  5  6  4  0  0  0  0
  5  9  4  0  0  0  0
  6  7  4  0  0  0  0
  7  8  4  0  0  0  0
  9 10  4  0  0  0  0
 10 11  4  0  0  0  0
 11 12  4  0  0  0  0
 13 14  4  0  0  0  0
 13 17  4  0  0  0  0
 14 15  4  0  0  0  0
 15 16  4  0  0  0  0
 15 28  4  0  0  0  0
 16 17  4  0  0  0  0
 16 18  4  0  0  0  0
 18 19  1  0  0  0  0
 18 26  4  0  0  0  0
 19 20  1  0  0  0  0
 19 24  1  0  0  0  0
 20 21  1  0  0  0  0
 21 22  1  0  0  0  0
 22 23  1  0  0  0  0
 22 25  1  0  0  0  0
 23 24  1  0  0  0  0
 26 27  4  0  0  0  0
 27 28  4  0  0  0  0
M  STY  1   1 DAT
M  SAL   1  1  14
M  SDT   1 MRV_IMPLICIT_H                                        
M  SDD   1     0.0000    0.0000    DR    ALL  0       0  
M  SED   1 IMPL_H1
M  END
>  <Name_Molregno>
583563

>  <5-HT6>
7.89

>  <5-HT7>
6.3

$$$$
583567
  Marvin  02231216192D 0   1.00000     0.00000     0

 28 32  0  0  0  0  0  0  0  0999 V2000
   -1.2237   -0.7718    0.0000 O   0  0  0  0  0  0  0  0  0
   -0.8112   -1.4863    0.0000 C   0  0  0  0  0  0  0  0  0
   -1.2237   -2.2008    0.0000 C   0  0  0  0  0  0  0  0  0
   -2.0487   -2.2008    0.0000 C   0  0  0  0  0  0  0  0  0
   -2.4612   -2.9152    0.0000 C   0  0  0  0  0  0  0  0  0
   -2.0487   -3.6297    0.0000 C   0  0  0  0  0  0  0  0  0
   -1.2237   -3.6297    0.0000 C   0  0  0  0  0  0  0  0  0
   -0.8112   -2.9152    0.0000 C   0  0  0  0  0  0  0  0  0
   -2.4612   -4.3442    0.0000 C   0  0  0  0  0  0  0  0  0
   -3.2862   -4.3442    0.0000 C   0  0  0  0  0  0  0  0  0
   -3.6987   -3.6297    0.0000 C   0  0  0  0  0  0  0  0  0
   -3.2862   -2.9152    0.0000 C   0  0  0  0  0  0  0  0  0
    0.0138   -1.4863    0.0000 C   0  0  0  0  0  0  0  0  0
    0.4987   -2.1537    0.0000 N   0  0  0  0  0  0  0  0  0
    1.2833   -1.8988    0.0000 C   0  0  0  0  0  0  0  0  0
    1.2833   -1.0738    0.0000 C   0  0  0  0  0  0  0  0  0
    0.4987   -0.8189    0.0000 N   0  0  0  0  0  0  0  0  0
    1.9978   -0.6613    0.0000 C   0  0  0  0  0  0  0  0  0
    1.9978    0.1637    0.0000 N   0  0  0  0  0  0  0  0  0
    1.2833    0.5762    0.0000 C   0  0  0  0  0  0  0  0  0
    1.2833    1.4012    0.0000 C   0  0  0  0  0  0  0  0  0
    1.9978    1.8137    0.0000 N   0  0  0  0  0  0  0  0  0
    2.7123    1.4012    0.0000 C   0  0  0  0  0  0  0  0  0
    2.7123    0.5762    0.0000 C   0  0  0  0  0  0  0  0  0
    1.9978    2.6387    0.0000 C   0  0  0  0  0  0  0  0  0
    2.7123   -1.0738    0.0000 C   0  0  0  0  0  0  0  0  0
    2.7123   -1.8988    0.0000 C   0  0  0  0  0  0  0  0  0
    1.9978   -2.3113    0.0000 C   0  0  0  0  0  0  0  0  0
  1  2  2  0  0  0  0
  2  3  1  0  0  0  0
  2 13  1  0  0  0  0
  3  4  4  0  0  0  0
  3  8  4  0  0  0  0
  4  5  4  0  0  0  0
  5  6  4  0  0  0  0
  5 12  4  0  0  0  0
  6  7  4  0  0  0  0
  6  9  4  0  0  0  0
  7  8  4  0  0  0  0
  9 10  4  0  0  0  0
 10 11  4  0  0  0  0
 11 12  4  0  0  0  0
 13 14  4  0  0  0  0
 13 17  4  0  0  0  0
 14 15  4  0  0  0  0
 15 16  4  0  0  0  0
 15 28  4  0  0  0  0
 16 17  4  0  0  0  0
 16 18  4  0  0  0  0
 18 19  1  0  0  0  0
 18 26  4  0  0  0  0
 19 20  1  0  0  0  0
 19 24  1  0  0  0  0
 20 21  1  0  0  0  0
 21 22  1  0  0  0  0
 22 23  1  0  0  0  0
 22 25  1  0  0  0  0
 23 24  1  0  0  0  0
 26 27  4  0  0  0  0
 27 28  4  0  0  0  0
M  STY  1   1 DAT
M  SAL   1  1  14
M  SDT   1 MRV_IMPLICIT_H                                        
M  SDD   1     0.0000    0.0000    DR    ALL  0       0  
M  SED   1 IMPL_H1
M  END
>  <Name_Molregno>
583567

>  <5-HT6>
6

>  <5-HT7>
6.3

$$$$
583577
  Marvin  02231216192D 0   1.00000     0.00000     0

 27 31  0  0  0  0  0  0  0  0999 V2000
   -0.6385    1.6596    0.0000 N   0  0  0  0  0  0  0  0  0
   -1.1905    1.0465    0.0000 C   0  0  0  0  0  0  0  0  0
   -0.7780    0.3320    0.0000 C   0  0  0  0  0  0  0  0  0
    0.0289    0.5036    0.0000 N   0  0  0  0  0  0  0  0  0
    0.1152    1.3240    0.0000 C   0  0  0  0  0  0  0  0  0
    0.8296    1.7365    0.0000 C   0  0  0  0  0  0  0  0  0
    0.8296    2.5615    0.0000 C   0  0  0  0  0  0  0  0  0
    1.5441    2.9740    0.0000 C   0  0  0  0  0  0  0  0  0
    1.5441    3.7990    0.0000 C   0  0  0  0  0  0  0  0  0
    0.8296    4.2115    0.0000 C   0  0  0  0  0  0  0  0  0
    0.1152    3.7990    0.0000 C   0  0  0  0  0  0  0  0  0
    0.1152    2.9740    0.0000 C   0  0  0  0  0  0  0  0  0
    2.2586    4.2115    0.0000 C   0  0  0  0  0  0  0  0  0
    2.9731    3.7990    0.0000 C   0  0  0  0  0  0  0  0  0
    2.9731    2.9740    0.0000 C   0  0  0  0  0  0  0  0  0
    2.2586    2.5615    0.0000 C   0  0  0  0  0  0  0  0  0
   -1.1905   -0.3824    0.0000 C   0  0  0  0  0  0  0  0  0
   -0.7780   -1.0969    0.0000 N   0  0  0  0  0  0  0  0  0
    0.0470   -1.0969    0.0000 C   0  0  0  0  0  0  0  0  0
    0.4595   -1.8114    0.0000 C   0  0  0  0  0  0  0  0  0
    0.0470   -2.5259    0.0000 N   0  0  0  0  0  0  0  0  0
   -0.7780   -2.5259    0.0000 C   0  0  0  0  0  0  0  0  0
   -1.1905   -1.8114    0.0000 C   0  0  0  0  0  0  0  0  0
    0.4595   -3.2403    0.0000 C   0  0  0  0  0  0  0  0  0
   -2.0155   -0.3824    0.0000 C   0  0  0  0  0  0  0  0  0
   -2.4280    0.3320    0.0000 C   0  0  0  0  0  0  0  0  0
   -2.0155    1.0465    0.0000 C   0  0  0  0  0  0  0  0  0
  1  2  4  0  0  0  0
  1  5  4  0  0  0  0
  2  3  4  0  0  0  0
  2 27  4  0  0  0  0
  3  4  4  0  0  0  0
  3 17  4  0  0  0  0
  4  5  4  0  0  0  0
  5  6  1  0  0  0  0
  6  7  1  0  0  0  0
  7  8  4  0  0  0  0
  7 12  4  0  0  0  0
  8  9  4  0  0  0  0
  8 16  4  0  0  0  0
  9 10  4  0  0  0  0
  9 13  4  0  0  0  0
 10 11  4  0  0  0  0
 11 12  4  0  0  0  0
 13 14  4  0  0  0  0
 14 15  4  0  0  0  0
 15 16  4  0  0  0  0
 17 18  1  0  0  0  0
 17 25  4  0  0  0  0
 18 19  1  0  0  0  0
 18 23  1  0  0  0  0
 19 20  1  0  0  0  0
 20 21  1  0  0  0  0
 21 22  1  0  0  0  0
 21 24  1  0  0  0  0
 22 23  1  0  0  0  0
 25 26  4  0  0  0  0
 26 27  4  0  0  0  0
M  STY  1   1 DAT
M  SAL   1  1   1
M  SDT   1 MRV_IMPLICIT_H                                        
M  SDD   1     0.0000    0.0000    DR    ALL  0       0  
M  SED   1 IMPL_H1
M  END
>  <Name_Molregno>
583577

>  <5-HT6>
7.51

>  <5-HT7>
6.3

$$$$
583578
  Marvin  02231216192D 0   1.00000     0.00000     0

 26 30  0  0  0  0  0  0  0  0999 V2000
   -0.1958    1.3744    0.0000 N   0  0  0  0  0  0  0  0  0
   -1.0027    1.5459    0.0000 C   0  0  0  0  0  0  0  0  0
   -1.4152    0.8314    0.0000 C   0  0  0  0  0  0  0  0  0
   -0.8632    0.2183    0.0000 N   0  0  0  0  0  0  0  0  0
   -0.1095    0.5539    0.0000 C   0  0  0  0  0  0  0  0  0
    0.6050    0.1414    0.0000 C   0  0  0  0  0  0  0  0  0
    1.3194    0.5539    0.0000 C   0  0  0  0  0  0  0  0  0
    2.0339    0.1414    0.0000 C   0  0  0  0  0  0  0  0  0
    2.7484    0.5539    0.0000 C   0  0  0  0  0  0  0  0  0
    2.7484    1.3789    0.0000 C   0  0  0  0  0  0  0  0  0
    2.0339    1.7914    0.0000 C   0  0  0  0  0  0  0  0  0
    1.3194    1.3789    0.0000 C   0  0  0  0  0  0  0  0  0
    3.4628    1.7914    0.0000 C   0  0  0  0  0  0  0  0  0
    4.1773    1.3789    0.0000 C   0  0  0  0  0  0  0  0  0
    4.1773    0.5539    0.0000 C   0  0  0  0  0  0  0  0  0
    3.4628    0.1414    0.0000 C   0  0  0  0  0  0  0  0  0
   -2.2402    0.8314    0.0000 C   0  0  0  0  0  0  0  0  0
   -2.6527    0.1170    0.0000 N   0  0  0  0  0  0  0  0  0
   -2.2402   -0.5975    0.0000 C   0  0  0  0  0  0  0  0  0
   -2.6527   -1.3120    0.0000 C   0  0  0  0  0  0  0  0  0
   -3.4777   -1.3120    0.0000 N   0  0  0  0  0  0  0  0  0
   -3.8902   -0.5975    0.0000 C   0  0  0  0  0  0  0  0  0
   -3.4777    0.1170    0.0000 C   0  0  0  0  0  0  0  0  0
   -2.6527    1.5459    0.0000 C   0  0  0  0  0  0  0  0  0
   -2.2402    2.2604    0.0000 C   0  0  0  0  0  0  0  0  0
   -1.4152    2.2604    0.0000 C   0  0  0  0  0  0  0  0  0
  1  2  4  0  0  0  0
  1  5  4  0  0  0  0
  2  3  4  0  0  0  0
  2 26  4  0  0  0  0
  3  4  4  0  0  0  0
  3 17  4  0  0  0  0
  4  5  4  0  0  0  0
  5  6  1  0  0  0  0
  6  7  1  0  0  0  0
  7  8  4  0  0  0  0
  7 12  4  0  0  0  0
  8  9  4  0  0  0  0
  9 10  4  0  0  0  0
  9 16  4  0  0  0  0
 10 11  4  0  0  0  0
 10 13  4  0  0  0  0
 11 12  4  0  0  0  0
 13 14  4  0  0  0  0
 14 15  4  0  0  0  0
 15 16  4  0  0  0  0
 17 18  1  0  0  0  0
 17 24  4  0  0  0  0
 18 19  1  0  0  0  0
 18 23  1  0  0  0  0
 19 20  1  0  0  0  0
 20 21  1  0  0  0  0
 21 22  1  0  0  0  0
 22 23  1  0  0  0  0
 24 25  4  0  0  0  0
 25 26  4  0  0  0  0
M  STY  1   1 DAT
M  SAL   1  1   1
M  SDT   1 MRV_IMPLICIT_H                                        
M  SDD   1     0.0000    0.0000    DR    ALL  0       0  
M  SED   1 IMPL_H1
M  END
>  <Name_Molregno>
583578

>  <5-HT6>
7.54

>  <5-HT7>
6.3

$$$$
583583
  Marvin  02231216192D 0   1.00000     0.00000     0

 24 27  0  0  0  0  0  0  0  0999 V2000
   -0.7211   -1.1444    0.0000 O   0  0  0  0  0  0  0  0  0
   -0.3086   -1.8589    0.0000 C   0  0  0  0  0  0  0  0  0
   -0.7211   -2.5733    0.0000 C   0  0  0  0  0  0  0  0  0
   -0.3086   -3.2878    0.0000 C   0  0  0  0  0  0  0  0  0
   -0.7211   -4.0023    0.0000 C   0  0  0  0  0  0  0  0  0
   -1.5461   -4.0023    0.0000 C   0  0  0  0  0  0  0  0  0
   -1.9586   -3.2878    0.0000 C   0  0  0  0  0  0  0  0  0
   -1.5461   -2.5733    0.0000 C   0  0  0  0  0  0  0  0  0
    0.5164   -1.8589    0.0000 C   0  0  0  0  0  0  0  0  0
    1.0013   -2.5263    0.0000 N   0  0  0  0  0  0  0  0  0
    1.7859   -2.2714    0.0000 C   0  0  0  0  0  0  0  0  0
    1.7859   -1.4464    0.0000 C   0  0  0  0  0  0  0  0  0
    1.0013   -1.1914    0.0000 N   0  0  0  0  0  0  0  0  0
    2.5004   -1.0339    0.0000 C   0  0  0  0  0  0  0  0  0
    3.2149   -1.4464    0.0000 C   0  0  0  0  0  0  0  0  0
    3.9293   -1.0339    0.0000 N   0  0  0  0  0  0  0  0  0
    3.9293   -0.2089    0.0000 C   0  0  0  0  0  0  0  0  0
    4.6438    0.2036    0.0000 C   0  0  0  0  0  0  0  0  0
    5.3583   -0.2089    0.0000 N   0  0  0  0  0  0  0  0  0
    5.3583   -1.0339    0.0000 C   0  0  0  0  0  0  0  0  0
    4.6438   -1.4464    0.0000 C   0  0  0  0  0  0  0  0  0
    6.0727    0.2036    0.0000 C   0  0  0  0  0  0  0  0  0
    3.2149   -2.2714    0.0000 C   0  0  0  0  0  0  0  0  0
    2.5004   -2.6839    0.0000 C   0  0  0  0  0  0  0  0  0
  1  2  2  0  0  0  0
  2  3  1  0  0  0  0
  2  9  1  0  0  0  0
  3  4  4  0  0  0  0
  3  8  4  0  0  0  0
  4  5  4  0  0  0  0
  5  6  4  0  0  0  0
  6  7  4  0  0  0  0
  7  8  4  0  0  0  0
  9 10  4  0  0  0  0
  9 13  4  0  0  0  0
 10 11  4  0  0  0  0
 11 12  4  0  0  0  0
 11 24  4  0  0  0  0
 12 13  4  0  0  0  0
 12 14  4  0  0  0  0
 14 15  4  0  0  0  0
 15 16  1  0  0  0  0
 15 23  4  0  0  0  0
 16 17  1  0  0  0  0
 16 21  1  0  0  0  0
 17 18  1  0  0  0  0
 18 19  1  0  0  0  0
 19 20  1  0  0  0  0
 19 22  1  0  0  0  0
 20 21  1  0  0  0  0
 23 24  4  0  0  0  0
M  STY  1   1 DAT
M  SAL   1  1  10
M  SDT   1 MRV_IMPLICIT_H                                        
M  SDD   1     0.0000    0.0000    DR    ALL  0       0  
M  SED   1 IMPL_H1
M  END
>  <Name_Molregno>
583583

>  <5-HT6>
6

>  <5-HT7>
6.3

$$$$
583584
  Marvin  02231216192D 0   1.00000     0.00000     0

 22 25  0  0  0  0  0  0  0  0999 V2000
    0.1845   -0.4588    0.0000 N   0  0  0  0  0  0  0  0  0
    0.9691   -0.2039    0.0000 C   0  0  0  0  0  0  0  0  0
    0.9691    0.6211    0.0000 C   0  0  0  0  0  0  0  0  0
    0.1845    0.8761    0.0000 N   0  0  0  0  0  0  0  0  0
   -0.3004    0.2086    0.0000 C   0  0  0  0  0  0  0  0  0
   -1.1254    0.2086    0.0000 C   0  0  0  0  0  0  0  0  0
   -1.5379   -0.5058    0.0000 C   0  0  0  0  0  0  0  0  0
   -1.1254   -1.2203    0.0000 C   0  0  0  0  0  0  0  0  0
   -1.5379   -1.9348    0.0000 C   0  0  0  0  0  0  0  0  0
   -2.3629   -1.9348    0.0000 C   0  0  0  0  0  0  0  0  0
   -2.7754   -1.2203    0.0000 C   0  0  0  0  0  0  0  0  0
   -2.3629   -0.5058    0.0000 C   0  0  0  0  0  0  0  0  0
    1.6836    1.0336    0.0000 C   0  0  0  0  0  0  0  0  0
    2.3981    0.6211    0.0000 C   0  0  0  0  0  0  0  0  0
    3.1126    1.0336    0.0000 N   0  0  0  0  0  0  0  0  0
    3.1126    1.8586    0.0000 C   0  0  0  0  0  0  0  0  0
    3.8270    2.2711    0.0000 C   0  0  0  0  0  0  0  0  0
    4.5415    1.8586    0.0000 N   0  0  0  0  0  0  0  0  0
    4.5415    1.0336    0.0000 C   0  0  0  0  0  0  0  0  0
    3.8270    0.6211    0.0000 C   0  0  0  0  0  0  0  0  0
    2.3981   -0.2039    0.0000 C   0  0  0  0  0  0  0  0  0
    1.6836   -0.6164    0.0000 C   0  0  0  0  0  0  0  0  0
  1  2  4  0  0  0  0
  1  5  4  0  0  0  0
  2  3  4  0  0  0  0
  2 22  4  0  0  0  0
  3  4  4  0  0  0  0
  3 13  4  0  0  0  0
  4  5  4  0  0  0  0
  5  6  1  0  0  0  0
  6  7  1  0  0  0  0
  7  8  4  0  0  0  0
  7 12  4  0  0  0  0
  8  9  4  0  0  0  0
  9 10  4  0  0  0  0
 10 11  4  0  0  0  0
 11 12  4  0  0  0  0
 13 14  4  0  0  0  0
 14 15  1  0  0  0  0
 14 21  4  0  0  0  0
 15 16  1  0  0  0  0
 15 20  1  0  0  0  0
 16 17  1  0  0  0  0
 17 18  1  0  0  0  0
 18 19  1  0  0  0  0
 19 20  1  0  0  0  0
 21 22  4  0  0  0  0
M  STY  1   1 DAT
M  SAL   1  1   1
M  SDT   1 MRV_IMPLICIT_H                                        
M  SDD   1     0.0000    0.0000    DR    ALL  0       0  
M  SED   1 IMPL_H1
M  END
>  <Name_Molregno>
583584

>  <5-HT6>
6

>  <5-HT7>
6.3

$$$$
583586
  Marvin  02231216192D 0   1.00000     0.00000     0

 23 26  0  0  0  0  0  0  0  0999 V2000
   -2.8508   -1.0386    0.0000 O   0  0  0  0  0  0  0  0  0
   -2.4383   -1.7531    0.0000 C   0  0  0  0  0  0  0  0  0
   -2.8508   -2.4676    0.0000 C   0  0  0  0  0  0  0  0  0
   -2.4383   -3.1820    0.0000 C   0  0  0  0  0  0  0  0  0
   -2.8508   -3.8965    0.0000 C   0  0  0  0  0  0  0  0  0
   -3.6758   -3.8965    0.0000 C   0  0  0  0  0  0  0  0  0
   -4.0883   -3.1820    0.0000 C   0  0  0  0  0  0  0  0  0
   -3.6758   -2.4676    0.0000 C   0  0  0  0  0  0  0  0  0
   -1.6133   -1.7531    0.0000 C   0  0  0  0  0  0  0  0  0
   -1.1284   -2.4205    0.0000 N   0  0  0  0  0  0  0  0  0
   -0.3438   -2.1656    0.0000 C   0  0  0  0  0  0  0  0  0
   -0.3438   -1.3406    0.0000 C   0  0  0  0  0  0  0  0  0
   -1.1284   -1.0857    0.0000 N   0  0  0  0  0  0  0  0  0
    0.3707   -0.9281    0.0000 C   0  0  0  0  0  0  0  0  0
    0.3707   -0.1031    0.0000 N   0  0  0  0  0  0  0  0  0
   -0.3438    0.3094    0.0000 C   0  0  0  0  0  0  0  0  0
   -0.3438    1.1344    0.0000 C   0  0  0  0  0  0  0  0  0
    0.3707    1.5469    0.0000 N   0  0  0  0  0  0  0  0  0
    1.0852    1.1344    0.0000 C   0  0  0  0  0  0  0  0  0
    1.0852    0.3094    0.0000 C   0  0  0  0  0  0  0  0  0
    1.0852   -1.3406    0.0000 C   0  0  0  0  0  0  0  0  0
    1.0852   -2.1656    0.0000 C   0  0  0  0  0  0  0  0  0
    0.3707   -2.5781    0.0000 C   0  0  0  0  0  0  0  0  0
  1  2  2  0  0  0  0
  2  3  1  0  0  0  0
  2  9  1  0  0  0  0
  3  4  4  0  0  0  0
  3  8  4  0  0  0  0
  4  5  4  0  0  0  0
  5  6  4  0  0  0  0
  6  7  4  0  0  0  0
  7  8  4  0  0  0  0
  9 10  4  0  0  0  0
  9 13  4  0  0  0  0
 10 11  4  0  0  0  0
 11 12  4  0  0  0  0
 11 23  4  0  0  0  0
 12 13  4  0  0  0  0
 12 14  4  0  0  0  0
 14 15  1  0  0  0  0
 14 21  4  0  0  0  0
 15 16  1  0  0  0  0
 15 20  1  0  0  0  0
 16 17  1  0  0  0  0
 17 18  1  0  0  0  0
 18 19  1  0  0  0  0
 19 20  1  0  0  0  0
 21 22  4  0  0  0  0
 22 23  4  0  0  0  0
M  STY  1   1 DAT
M  SAL   1  1  10
M  SDT   1 MRV_IMPLICIT_H                                        
M  SDD   1     0.0000    0.0000    DR    ALL  0       0  
M  SED   1 IMPL_H1
M  END
>  <Name_Molregno>
583586

>  <5-HT6>
6

>  <5-HT7>
6.3

$$$$
583587
  Marvin  02231216192D 0   1.00000     0.00000     0

 23 26  0  0  0  0  0  0  0  0999 V2000
    0.1983   -0.5542    0.0000 N   0  0  0  0  0  0  0  0  0
    0.9829   -0.2992    0.0000 C   0  0  0  0  0  0  0  0  0
    0.9829    0.5258    0.0000 C   0  0  0  0  0  0  0  0  0
    0.1983    0.7807    0.0000 N   0  0  0  0  0  0  0  0  0
   -0.2867    0.1133    0.0000 C   0  0  0  0  0  0  0  0  0
   -1.1117    0.1133    0.0000 C   0  0  0  0  0  0  0  0  0
   -1.5242   -0.6012    0.0000 C   0  0  0  0  0  0  0  0  0
   -1.1117   -1.3157    0.0000 C   0  0  0  0  0  0  0  0  0
   -1.5242   -2.0301    0.0000 C   0  0  0  0  0  0  0  0  0
   -2.3492   -2.0301    0.0000 C   0  0  0  0  0  0  0  0  0
   -2.7617   -1.3157    0.0000 C   0  0  0  0  0  0  0  0  0
   -2.3492   -0.6012    0.0000 C   0  0  0  0  0  0  0  0  0
    1.6974    0.9383    0.0000 C   0  0  0  0  0  0  0  0  0
    2.4118    0.5258    0.0000 C   0  0  0  0  0  0  0  0  0
    3.1263    0.9383    0.0000 N   0  0  0  0  0  0  0  0  0
    3.1263    1.7633    0.0000 C   0  0  0  0  0  0  0  0  0
    3.8408    2.1758    0.0000 C   0  0  0  0  0  0  0  0  0
    4.5552    1.7633    0.0000 N   0  0  0  0  0  0  0  0  0
    4.5552    0.9383    0.0000 C   0  0  0  0  0  0  0  0  0
    3.8408    0.5258    0.0000 C   0  0  0  0  0  0  0  0  0
    5.2697    2.1758    0.0000 C   0  0  0  0  0  0  0  0  0
    2.4118   -0.2992    0.0000 C   0  0  0  0  0  0  0  0  0
    1.6974   -0.7117    0.0000 C   0  0  0  0  0  0  0  0  0
  1  2  4  0  0  0  0
  1  5  4  0  0  0  0
  2  3  4  0  0  0  0
  2 23  4  0  0  0  0
  3  4  4  0  0  0  0
  3 13  4  0  0  0  0
  4  5  4  0  0  0  0
  5  6  1  0  0  0  0
  6  7  1  0  0  0  0
  7  8  4  0  0  0  0
  7 12  4  0  0  0  0
  8  9  4  0  0  0  0
  9 10  4  0  0  0  0
 10 11  4  0  0  0  0
 11 12  4  0  0  0  0
 13 14  4  0  0  0  0
 14 15  1  0  0  0  0
 14 22  4  0  0  0  0
 15 16  1  0  0  0  0
 15 20  1  0  0  0  0
 16 17  1  0  0  0  0
 17 18  1  0  0  0  0
 18 19  1  0  0  0  0
 18 21  1  0  0  0  0
 19 20  1  0  0  0  0
 22 23  4  0  0  0  0
M  STY  1   1 DAT
M  SAL   1  1   1
M  SDT   1 MRV_IMPLICIT_H                                        
M  SDD   1     0.0000    0.0000    DR    ALL  0       0  
M  SED   1 IMPL_H1
M  END
>  <Name_Molregno>
583587

>  <5-HT6>
6

>  <5-HT7>
6.3

$$$$
583591
  Marvin  02231216192D 0   1.00000     0.00000     0

 26 30  0  0  0  0  0  0  0  0999 V2000
   -0.0063    0.9824    0.0000 N   0  0  0  0  0  0  0  0  0
   -0.5583    0.3693    0.0000 C   0  0  0  0  0  0  0  0  0
   -0.1458   -0.3451    0.0000 C   0  0  0  0  0  0  0  0  0
    0.6611   -0.1736    0.0000 N   0  0  0  0  0  0  0  0  0
    0.7474    0.6469    0.0000 C   0  0  0  0  0  0  0  0  0
    1.4618    1.0594    0.0000 C   0  0  0  0  0  0  0  0  0
    1.4618    1.8844    0.0000 C   0  0  0  0  0  0  0  0  0
    2.1763    2.2969    0.0000 C   0  0  0  0  0  0  0  0  0
    2.1763    3.1219    0.0000 C   0  0  0  0  0  0  0  0  0
    1.4618    3.5344    0.0000 C   0  0  0  0  0  0  0  0  0
    0.7474    3.1219    0.0000 C   0  0  0  0  0  0  0  0  0
    0.7474    2.2969    0.0000 C   0  0  0  0  0  0  0  0  0
    2.8908    3.5344    0.0000 C   0  0  0  0  0  0  0  0  0
    3.6053    3.1219    0.0000 C   0  0  0  0  0  0  0  0  0
    3.6053    2.2969    0.0000 C   0  0  0  0  0  0  0  0  0
    2.8908    1.8844    0.0000 C   0  0  0  0  0  0  0  0  0
   -0.5583   -1.0596    0.0000 C   0  0  0  0  0  0  0  0  0
   -1.3833   -1.0596    0.0000 C   0  0  0  0  0  0  0  0  0
   -1.7958   -1.7741    0.0000 N   0  0  0  0  0  0  0  0  0
   -1.3833   -2.4886    0.0000 C   0  0  0  0  0  0  0  0  0
   -1.7958   -3.2030    0.0000 C   0  0  0  0  0  0  0  0  0
   -2.6208   -3.2030    0.0000 N   0  0  0  0  0  0  0  0  0
   -3.0333   -2.4886    0.0000 C   0  0  0  0  0  0  0  0  0
   -2.6208   -1.7741    0.0000 C   0  0  0  0  0  0  0  0  0
   -1.7958   -0.3451    0.0000 C   0  0  0  0  0  0  0  0  0
   -1.3833    0.3693    0.0000 C   0  0  0  0  0  0  0  0  0
  1  2  4  0  0  0  0
  1  5  4  0  0  0  0
  2  3  4  0  0  0  0
  2 26  4  0  0  0  0
  3  4  4  0  0  0  0
  3 17  4  0  0  0  0
  4  5  4  0  0  0  0
  5  6  1  0  0  0  0
  6  7  1  0  0  0  0
  7  8  4  0  0  0  0
  7 12  4  0  0  0  0
  8  9  4  0  0  0  0
  8 16  4  0  0  0  0
  9 10  4  0  0  0  0
  9 13  4  0  0  0  0
 10 11  4  0  0  0  0
 11 12  4  0  0  0  0
 13 14  4  0  0  0  0
 14 15  4  0  0  0  0
 15 16  4  0  0  0  0
 17 18  4  0  0  0  0
 18 19  1  0  0  0  0
 18 25  4  0  0  0  0
 19 20  1  0  0  0  0
 19 24  1  0  0  0  0
 20 21  1  0  0  0  0
 21 22  1  0  0  0  0
 22 23  1  0  0  0  0
 23 24  1  0  0  0  0
 25 26  4  0  0  0  0
M  STY  1   1 DAT
M  SAL   1  1   1
M  SDT   1 MRV_IMPLICIT_H                                        
M  SDD   1     0.0000    0.0000    DR    ALL  0       0  
M  SED   1 IMPL_H1
M  END
>  <Name_Molregno>
583591

>  <5-HT6>
6

>  <5-HT7>
6.3

$$$$
583593
  Marvin  02231216192D 0   1.00000     0.00000     0

 28 32  0  0  0  0  0  0  0  0999 V2000
   -3.1430   -0.8055    0.0000 O   0  0  0  0  0  0  0  0  0
   -2.7305   -1.5200    0.0000 C   0  0  0  0  0  0  0  0  0
   -3.1430   -2.2345    0.0000 C   0  0  0  0  0  0  0  0  0
   -3.9680   -2.2345    0.0000 C   0  0  0  0  0  0  0  0  0
   -4.3805   -2.9489    0.0000 C   0  0  0  0  0  0  0  0  0
   -3.9680   -3.6634    0.0000 C   0  0  0  0  0  0  0  0  0
   -3.1430   -3.6634    0.0000 C   0  0  0  0  0  0  0  0  0
   -2.7305   -2.9489    0.0000 C   0  0  0  0  0  0  0  0  0
   -5.2055   -2.9489    0.0000 C   0  0  0  0  0  0  0  0  0
   -5.6180   -2.2345    0.0000 C   0  0  0  0  0  0  0  0  0
   -5.2055   -1.5200    0.0000 C   0  0  0  0  0  0  0  0  0
   -4.3805   -1.5200    0.0000 C   0  0  0  0  0  0  0  0  0
   -1.9055   -1.5200    0.0000 C   0  0  0  0  0  0  0  0  0
   -1.4206   -2.1874    0.0000 N   0  0  0  0  0  0  0  0  0
   -0.6360   -1.9325    0.0000 C   0  0  0  0  0  0  0  0  0
   -0.6360   -1.1075    0.0000 C   0  0  0  0  0  0  0  0  0
   -1.4206   -0.8526    0.0000 N   0  0  0  0  0  0  0  0  0
    0.0785   -0.6950    0.0000 C   0  0  0  0  0  0  0  0  0
    0.7930   -1.1075    0.0000 C   0  0  0  0  0  0  0  0  0
    1.5075   -0.6950    0.0000 N   0  0  0  0  0  0  0  0  0
    1.5075    0.1300    0.0000 C   0  0  0  0  0  0  0  0  0
    2.2219    0.5425    0.0000 C   0  0  0  0  0  0  0  0  0
    2.9364    0.1300    0.0000 N   0  0  0  0  0  0  0  0  0
    2.9364   -0.6950    0.0000 C   0  0  0  0  0  0  0  0  0
    2.2219   -1.1075    0.0000 C   0  0  0  0  0  0  0  0  0
    3.6509    0.5425    0.0000 C   0  0  0  0  0  0  0  0  0
    0.7930   -1.9325    0.0000 C   0  0  0  0  0  0  0  0  0
    0.0785   -2.3450    0.0000 C   0  0  0  0  0  0  0  0  0
  1  2  2  0  0  0  0
  2  3  1  0  0  0  0
  2 13  1  0  0  0  0
  3  4  4  0  0  0  0
  3  8  4  0  0  0  0
  4  5  4  0  0  0  0
  4 12  4  0  0  0  0
  5  6  4  0  0  0  0
  5  9  4  0  0  0  0
  6  7  4  0  0  0  0
  7  8  4  0  0  0  0
  9 10  4  0  0  0  0
 10 11  4  0  0  0  0
 11 12  4  0  0  0  0
 13 14  4  0  0  0  0
 13 17  4  0  0  0  0
 14 15  4  0  0  0  0
 15 16  4  0  0  0  0
 15 28  4  0  0  0  0
 16 17  4  0  0  0  0
 16 18  4  0  0  0  0
 18 19  4  0  0  0  0
 19 20  1  0  0  0  0
 19 27  4  0  0  0  0
 20 21  1  0  0  0  0
 20 25  1  0  0  0  0
 21 22  1  0  0  0  0
 22 23  1  0  0  0  0
 23 24  1  0  0  0  0
 23 26  1  0  0  0  0
 24 25  1  0  0  0  0
 27 28  4  0  0  0  0
M  STY  1   1 DAT
M  SAL   1  1  14
M  SDT   1 MRV_IMPLICIT_H                                        
M  SDD   1     0.0000    0.0000    DR    ALL  0       0  
M  SED   1 IMPL_H1
M  END
>  <Name_Molregno>
583593

>  <5-HT6>
6

>  <5-HT7>
6.3

$$$$
583594
  Marvin  02231216192D 0   1.00000     0.00000     0

 27 31  0  0  0  0  0  0  0  0999 V2000
    0.4120    1.0627    0.0000 N   0  0  0  0  0  0  0  0  0
   -0.1400    0.4496    0.0000 C   0  0  0  0  0  0  0  0  0
    0.2725   -0.2649    0.0000 C   0  0  0  0  0  0  0  0  0
    1.0795   -0.0933    0.0000 N   0  0  0  0  0  0  0  0  0
    1.1657    0.7272    0.0000 C   0  0  0  0  0  0  0  0  0
    1.8802    1.1397    0.0000 C   0  0  0  0  0  0  0  0  0
    1.8802    1.9647    0.0000 C   0  0  0  0  0  0  0  0  0
    2.5946    2.3772    0.0000 C   0  0  0  0  0  0  0  0  0
    2.5946    3.2022    0.0000 C   0  0  0  0  0  0  0  0  0
    1.8802    3.6147    0.0000 C   0  0  0  0  0  0  0  0  0
    1.1657    3.2022    0.0000 C   0  0  0  0  0  0  0  0  0
    1.1657    2.3772    0.0000 C   0  0  0  0  0  0  0  0  0
    3.3091    3.6147    0.0000 C   0  0  0  0  0  0  0  0  0
    4.0236    3.2022    0.0000 C   0  0  0  0  0  0  0  0  0
    4.0236    2.3772    0.0000 C   0  0  0  0  0  0  0  0  0
    3.3091    1.9647    0.0000 C   0  0  0  0  0  0  0  0  0
   -0.1400   -0.9793    0.0000 C   0  0  0  0  0  0  0  0  0
   -0.9650   -0.9793    0.0000 C   0  0  0  0  0  0  0  0  0
   -1.3775   -1.6938    0.0000 N   0  0  0  0  0  0  0  0  0
   -0.9650   -2.4083    0.0000 C   0  0  0  0  0  0  0  0  0
   -1.3775   -3.1227    0.0000 C   0  0  0  0  0  0  0  0  0
   -2.2025   -3.1227    0.0000 N   0  0  0  0  0  0  0  0  0
   -2.6150   -2.4083    0.0000 C   0  0  0  0  0  0  0  0  0
   -2.2025   -1.6938    0.0000 C   0  0  0  0  0  0  0  0  0
   -2.6150   -3.8372    0.0000 C   0  0  0  0  0  0  0  0  0
   -1.3775   -0.2649    0.0000 C   0  0  0  0  0  0  0  0  0
   -0.9650    0.4496    0.0000 C   0  0  0  0  0  0  0  0  0
  1  2  4  0  0  0  0
  1  5  4  0  0  0  0
  2  3  4  0  0  0  0
  2 27  4  0  0  0  0
  3  4  4  0  0  0  0
  3 17  4  0  0  0  0
  4  5  4  0  0  0  0
  5  6  1  0  0  0  0
  6  7  1  0  0  0  0
  7  8  4  0  0  0  0
  7 12  4  0  0  0  0
  8  9  4  0  0  0  0
  8 16  4  0  0  0  0
  9 10  4  0  0  0  0
  9 13  4  0  0  0  0
 10 11  4  0  0  0  0
 11 12  4  0  0  0  0
 13 14  4  0  0  0  0
 14 15  4  0  0  0  0
 15 16  4  0  0  0  0
 17 18  4  0  0  0  0
 18 19  1  0  0  0  0
 18 26  4  0  0  0  0
 19 20  1  0  0  0  0
 19 24  1  0  0  0  0
 20 21  1  0  0  0  0
 21 22  1  0  0  0  0
 22 23  1  0  0  0  0
 22 25  1  0  0  0  0
 23 24  1  0  0  0  0
 26 27  4  0  0  0  0
M  STY  1   1 DAT
M  SAL   1  1   1
M  SDT   1 MRV_IMPLICIT_H                                        
M  SDD   1     0.0000    0.0000    DR    ALL  0       0  
M  SED   1 IMPL_H1
M  END
>  <Name_Molregno>
583594

>  <5-HT6>
6

>  <5-HT7>
6.3

$$$$
583596
  Marvin  02231216192D 0   1.00000     0.00000     0

 28 32  0  0  0  0  0  0  0  0999 V2000
   -0.0554    0.0140    0.0000 O   0  0  0  0  0  0  0  0  0
    0.3571   -0.7005    0.0000 C   0  0  0  0  0  0  0  0  0
   -0.0554   -1.4149    0.0000 C   0  0  0  0  0  0  0  0  0
   -0.8804   -1.4149    0.0000 C   0  0  0  0  0  0  0  0  0
   -1.2929   -2.1294    0.0000 C   0  0  0  0  0  0  0  0  0
   -0.8804   -2.8439    0.0000 C   0  0  0  0  0  0  0  0  0
   -0.0554   -2.8439    0.0000 C   0  0  0  0  0  0  0  0  0
    0.3571   -2.1294    0.0000 C   0  0  0  0  0  0  0  0  0
   -1.2929   -3.5583    0.0000 C   0  0  0  0  0  0  0  0  0
   -2.1179   -3.5583    0.0000 C   0  0  0  0  0  0  0  0  0
   -2.5304   -2.8439    0.0000 C   0  0  0  0  0  0  0  0  0
   -2.1179   -2.1294    0.0000 C   0  0  0  0  0  0  0  0  0
    1.1821   -0.7005    0.0000 C   0  0  0  0  0  0  0  0  0
    1.6671   -1.3679    0.0000 N   0  0  0  0  0  0  0  0  0
    2.4517   -1.1130    0.0000 C   0  0  0  0  0  0  0  0  0
    2.4517   -0.2880    0.0000 C   0  0  0  0  0  0  0  0  0
    1.6671   -0.0330    0.0000 N   0  0  0  0  0  0  0  0  0
    3.1662    0.1245    0.0000 C   0  0  0  0  0  0  0  0  0
    3.8806   -0.2880    0.0000 C   0  0  0  0  0  0  0  0  0
    4.5951    0.1245    0.0000 N   0  0  0  0  0  0  0  0  0
    4.5951    0.9495    0.0000 C   0  0  0  0  0  0  0  0  0
    5.3096    1.3620    0.0000 C   0  0  0  0  0  0  0  0  0
    6.0240    0.9495    0.0000 N   0  0  0  0  0  0  0  0  0
    6.0240    0.1245    0.0000 C   0  0  0  0  0  0  0  0  0
    5.3096   -0.2880    0.0000 C   0  0  0  0  0  0  0  0  0
    6.7385    1.3620    0.0000 C   0  0  0  0  0  0  0  0  0
    3.8806   -1.1130    0.0000 C   0  0  0  0  0  0  0  0  0
    3.1662   -1.5255    0.0000 C   0  0  0  0  0  0  0  0  0
  1  2  2  0  0  0  0
  2  3  1  0  0  0  0
  2 13  1  0  0  0  0
  3  4  4  0  0  0  0
  3  8  4  0  0  0  0
  4  5  4  0  0  0  0
  5  6  4  0  0  0  0
  5 12  4  0  0  0  0
  6  7  4  0  0  0  0
  6  9  4  0  0  0  0
  7  8  4  0  0  0  0
  9 10  4  0  0  0  0
 10 11  4  0  0  0  0
 11 12  4  0  0  0  0
 13 14  4  0  0  0  0
 13 17  4  0  0  0  0
 14 15  4  0  0  0  0
 15 16  4  0  0  0  0
 15 28  4  0  0  0  0
 16 17  4  0  0  0  0
 16 18  4  0  0  0  0
 18 19  4  0  0  0  0
 19 20  1  0  0  0  0
 19 27  4  0  0  0  0
 20 21  1  0  0  0  0
 20 25  1  0  0  0  0
 21 22  1  0  0  0  0
 22 23  1  0  0  0  0
 23 24  1  0  0  0  0
 23 26  1  0  0  0  0
 24 25  1  0  0  0  0
 27 28  4  0  0  0  0
M  STY  1   1 DAT
M  SAL   1  1  14
M  SDT   1 MRV_IMPLICIT_H                                        
M  SDD   1     0.0000    0.0000    DR    ALL  0       0  
M  SED   1 IMPL_H1
M  END
>  <Name_Molregno>
583596

>  <5-HT6>
6

>  <5-HT7>
6.3

$$$$
583597
  Marvin  02231216192D 0   1.00000     0.00000     0

 26 30  0  0  0  0  0  0  0  0999 V2000
    0.3616    0.3981    0.0000 N   0  0  0  0  0  0  0  0  0
   -0.4454    0.5696    0.0000 C   0  0  0  0  0  0  0  0  0
   -0.8579   -0.1449    0.0000 C   0  0  0  0  0  0  0  0  0
   -0.3059   -0.7580    0.0000 N   0  0  0  0  0  0  0  0  0
    0.4478   -0.4224    0.0000 C   0  0  0  0  0  0  0  0  0
    1.1623   -0.8349    0.0000 C   0  0  0  0  0  0  0  0  0
    1.8768   -0.4224    0.0000 C   0  0  0  0  0  0  0  0  0
    2.5912   -0.8349    0.0000 C   0  0  0  0  0  0  0  0  0
    3.3057   -0.4224    0.0000 C   0  0  0  0  0  0  0  0  0
    3.3057    0.4026    0.0000 C   0  0  0  0  0  0  0  0  0
    2.5912    0.8151    0.0000 C   0  0  0  0  0  0  0  0  0
    1.8768    0.4026    0.0000 C   0  0  0  0  0  0  0  0  0
    4.0202    0.8151    0.0000 C   0  0  0  0  0  0  0  0  0
    4.7346    0.4026    0.0000 C   0  0  0  0  0  0  0  0  0
    4.7346   -0.4224    0.0000 C   0  0  0  0  0  0  0  0  0
    4.0202   -0.8349    0.0000 C   0  0  0  0  0  0  0  0  0
   -1.6829   -0.1449    0.0000 C   0  0  0  0  0  0  0  0  0
   -2.0954    0.5696    0.0000 C   0  0  0  0  0  0  0  0  0
   -2.9204    0.5696    0.0000 N   0  0  0  0  0  0  0  0  0
   -3.3329   -0.1449    0.0000 C   0  0  0  0  0  0  0  0  0
   -4.1579   -0.1449    0.0000 C   0  0  0  0  0  0  0  0  0
   -4.5704    0.5696    0.0000 N   0  0  0  0  0  0  0  0  0
   -4.1579    1.2841    0.0000 C   0  0  0  0  0  0  0  0  0
   -3.3329    1.2841    0.0000 C   0  0  0  0  0  0  0  0  0
   -1.6829    1.2841    0.0000 C   0  0  0  0  0  0  0  0  0
   -0.8579    1.2841    0.0000 C   0  0  0  0  0  0  0  0  0
  1  2  4  0  0  0  0
  1  5  4  0  0  0  0
  2  3  4  0  0  0  0
  2 26  4  0  0  0  0
  3  4  4  0  0  0  0
  3 17  4  0  0  0  0
  4  5  4  0  0  0  0
  5  6  1  0  0  0  0
  6  7  1  0  0  0  0
  7  8  4  0  0  0  0
  7 12  4  0  0  0  0
  8  9  4  0  0  0  0
  9 10  4  0  0  0  0
  9 16  4  0  0  0  0
 10 11  4  0  0  0  0
 10 13  4  0  0  0  0
 11 12  4  0  0  0  0
 13 14  4  0  0  0  0
 14 15  4  0  0  0  0
 15 16  4  0  0  0  0
 17 18  4  0  0  0  0
 18 19  1  0  0  0  0
 18 25  4  0  0  0  0
 19 20  1  0  0  0  0
 19 24  1  0  0  0  0
 20 21  1  0  0  0  0
 21 22  1  0  0  0  0
 22 23  1  0  0  0  0
 23 24  1  0  0  0  0
 25 26  4  0  0  0  0
M  STY  1   1 DAT
M  SAL   1  1   1
M  SDT   1 MRV_IMPLICIT_H                                        
M  SDD   1     0.0000    0.0000    DR    ALL  0       0  
M  SED   1 IMPL_H1
M  END
>  <Name_Molregno>
583597

>  <5-HT6>
6

>  <5-HT7>
6.3

$$$$
590504
  Marvin  02231216192D 0   1.00000     0.00000     0

 23 26  0  0  0  0  0  0  0  0999 V2000
    0.2821   -0.2802    0.0000 N   0  0  0  0  0  0  0  0  0
    0.9496   -0.7652    0.0000 C   0  0  0  0  0  0  0  0  0
    1.7565   -0.5936    0.0000 C   0  0  0  0  0  0  0  0  0
    2.3086   -1.2067    0.0000 C   0  0  0  0  0  0  0  0  0
    2.0536   -1.9913    0.0000 N   0  0  0  0  0  0  0  0  0
    1.2467   -2.1629    0.0000 C   0  0  0  0  0  0  0  0  0
    0.6946   -1.5498    0.0000 C   0  0  0  0  0  0  0  0  0
   -0.1304   -1.5498    0.0000 C   0  0  0  0  0  0  0  0  0
   -0.6824   -2.1629    0.0000 C   0  0  0  0  0  0  0  0  0
   -1.4894   -1.9913    0.0000 C   0  0  0  0  0  0  0  0  0
   -1.7443   -1.2067    0.0000 C   0  0  0  0  0  0  0  0  0
   -1.1923   -0.5936    0.0000 C   0  0  0  0  0  0  0  0  0
   -0.3853   -0.7652    0.0000 C   0  0  0  0  0  0  0  0  0
   -2.0414   -2.6044    0.0000 C   0  0  0  0  0  0  0  0  0
    2.6057   -2.6044    0.0000 C   0  0  0  0  0  0  0  0  0
    0.2821    0.5448    0.0000 C   0  0  0  0  0  0  0  0  0
   -0.4323    0.9573    0.0000 C   0  0  0  0  0  0  0  0  0
   -0.4323    1.7823    0.0000 C   0  0  0  0  0  0  0  0  0
   -1.1468    2.1948    0.0000 C   0  0  0  0  0  0  0  0  0
   -1.1468    3.0198    0.0000 C   0  0  0  0  0  0  0  0  0
   -0.4323    3.4323    0.0000 C   0  0  0  0  0  0  0  0  0
    0.2821    3.0198    0.0000 C   0  0  0  0  0  0  0  0  0
    0.2821    2.1948    0.0000 C   0  0  0  0  0  0  0  0  0
  1  2  4  0  0  0  0
  1 13  4  0  0  0  0
  1 16  1  0  0  0  0
  2  3  1  0  0  0  0
  2  7  4  0  0  0  0
  3  4  1  0  0  0  0
  4  5  1  0  0  0  0
  5  6  1  0  0  0  0
  5 15  1  0  0  0  0
  6  7  1  0  0  0  0
  7  8  4  0  0  0  0
  8  9  4  0  0  0  0
  8 13  4  0  0  0  0
  9 10  4  0  0  0  0
 10 11  4  0  0  0  0
 10 14  1  0  0  0  0
 11 12  4  0  0  0  0
 12 13  4  0  0  0  0
 16 17  2  0  0  0  0
 17 18  1  0  0  0  0
 18 19  4  0  0  0  0
 18 23  4  0  0  0  0
 19 20  4  0  0  0  0
 20 21  4  0  0  0  0
 21 22  4  0  0  0  0
 22 23  4  0  0  0  0
M  END
>  <Name_Molregno>
590504

>  <5-HT2A>
9

>  <5-HT2C>
9.32

>  <5-HT6>
9.21

>  <5-HT7>
9.68

>  <Alpha-2A>
9.62

>  <DOPAMINE D2>
7.46

$$$$
590667
  Marvin  02231216192D 0   1.00000     0.00000     0

 23 26  0  0  0  0  0  0  0  0999 V2000
    0.2821   -0.2802    0.0000 N   0  0  0  0  0  0  0  0  0
    0.9496   -0.7652    0.0000 C   0  0  0  0  0  0  0  0  0
    1.7565   -0.5936    0.0000 C   0  0  0  0  0  0  0  0  0
    2.3086   -1.2067    0.0000 C   0  0  0  0  0  0  0  0  0
    2.0536   -1.9913    0.0000 N   0  0  0  0  0  0  0  0  0
    1.2467   -2.1629    0.0000 C   0  0  0  0  0  0  0  0  0
    0.6946   -1.5498    0.0000 C   0  0  0  0  0  0  0  0  0
   -0.1304   -1.5498    0.0000 C   0  0  0  0  0  0  0  0  0
   -0.6824   -2.1629    0.0000 C   0  0  0  0  0  0  0  0  0
   -1.4894   -1.9913    0.0000 C   0  0  0  0  0  0  0  0  0
   -1.7443   -1.2067    0.0000 C   0  0  0  0  0  0  0  0  0
   -1.1923   -0.5936    0.0000 C   0  0  0  0  0  0  0  0  0
   -0.3853   -0.7652    0.0000 C   0  0  0  0  0  0  0  0  0
   -2.0414   -2.6044    0.0000 C   0  0  0  0  0  0  0  0  0
    2.6057   -2.6044    0.0000 C   0  0  0  0  0  0  0  0  0
    0.2821    0.5448    0.0000 C   0  0  0  0  0  0  0  0  0
   -0.4323    0.9573    0.0000 C   0  0  0  0  0  0  0  0  0
   -0.4323    1.7823    0.0000 C   0  0  0  0  0  0  0  0  0
   -1.1468    2.1948    0.0000 C   0  0  0  0  0  0  0  0  0
   -1.1468    3.0198    0.0000 C   0  0  0  0  0  0  0  0  0
   -0.4323    3.4323    0.0000 C   0  0  0  0  0  0  0  0  0
    0.2821    3.0198    0.0000 C   0  0  0  0  0  0  0  0  0
    0.2821    2.1948    0.0000 C   0  0  0  0  0  0  0  0  0
  1  2  4  0  0  0  0
  1 13  4  0  0  0  0
  1 16  1  0  0  0  0
  2  3  1  0  0  0  0
  2  7  4  0  0  0  0
  3  4  1  0  0  0  0
  4  5  1  0  0  0  0
  5  6  1  0  0  0  0
  5 15  1  0  0  0  0
  6  7  1  0  0  0  0
  7  8  4  0  0  0  0
  8  9  4  0  0  0  0
  8 13  4  0  0  0  0
  9 10  4  0  0  0  0
 10 11  4  0  0  0  0
 10 14  1  0  0  0  0
 11 12  4  0  0  0  0
 12 13  4  0  0  0  0
 16 17  1  0  0  0  0
 17 18  1  0  0  0  0
 18 19  4  0  0  0  0
 18 23  4  0  0  0  0
 19 20  4  0  0  0  0
 20 21  4  0  0  0  0
 21 22  4  0  0  0  0
 22 23  4  0  0  0  0
M  END
>  <Name_Molregno>
590667

>  <5-HT2A>
8.7

>  <5-HT2C>
8.92

>  <5-HT6>
8.7

>  <5-HT7>
9.6

>  <Alpha-2A>
8.7

>  <DOPAMINE D2>
7.07

$$$$
590668
  Marvin  02231216192D 0   1.00000     0.00000     0

 24 27  0  0  0  0  0  0  0  0999 V2000
    0.4874   -0.4845    0.0000 N   0  0  0  0  0  0  0  0  0
    1.1548   -0.9694    0.0000 C   0  0  0  0  0  0  0  0  0
    1.9618   -0.7979    0.0000 C   0  0  0  0  0  0  0  0  0
    2.5138   -1.4110    0.0000 C   0  0  0  0  0  0  0  0  0
    2.2589   -2.1956    0.0000 N   0  0  0  0  0  0  0  0  0
    1.4519   -2.3672    0.0000 C   0  0  0  0  0  0  0  0  0
    0.8999   -1.7541    0.0000 C   0  0  0  0  0  0  0  0  0
    0.0749   -1.7541    0.0000 C   0  0  0  0  0  0  0  0  0
   -0.4772   -2.3672    0.0000 C   0  0  0  0  0  0  0  0  0
   -1.2841   -2.1956    0.0000 C   0  0  0  0  0  0  0  0  0
   -1.5391   -1.4110    0.0000 C   0  0  0  0  0  0  0  0  0
   -0.9870   -0.7979    0.0000 C   0  0  0  0  0  0  0  0  0
   -0.1801   -0.9694    0.0000 C   0  0  0  0  0  0  0  0  0
   -1.8362   -2.8087    0.0000 C   0  0  0  0  0  0  0  0  0
    2.8109   -2.8087    0.0000 C   0  0  0  0  0  0  0  0  0
    0.4874    0.3405    0.0000 C   0  0  0  0  0  0  0  0  0
   -0.2271    0.7530    0.0000 C   0  0  0  0  0  0  0  0  0
   -0.2271    1.5780    0.0000 C   0  0  0  0  0  0  0  0  0
   -0.9416    1.9905    0.0000 C   0  0  0  0  0  0  0  0  0
   -0.9416    2.8155    0.0000 C   0  0  0  0  0  0  0  0  0
   -0.2271    3.2280    0.0000 C   0  0  0  0  0  0  0  0  0
    0.4874    2.8155    0.0000 C   0  0  0  0  0  0  0  0  0
    0.4874    1.9905    0.0000 C   0  0  0  0  0  0  0  0  0
   -0.2271    4.0530    0.0000 C   0  0  0  0  0  0  0  0  0
  1  2  4  0  0  0  0
  1 13  4  0  0  0  0
  1 16  1  0  0  0  0
  2  3  1  0  0  0  0
  2  7  4  0  0  0  0
  3  4  1  0  0  0  0
  4  5  1  0  0  0  0
  5  6  1  0  0  0  0
  5 15  1  0  0  0  0
  6  7  1  0  0  0  0
  7  8  4  0  0  0  0
  8  9  4  0  0  0  0
  8 13  4  0  0  0  0
  9 10  4  0  0  0  0
 10 11  4  0  0  0  0
 10 14  1  0  0  0  0
 11 12  4  0  0  0  0
 12 13  4  0  0  0  0
 16 17  1  0  0  0  0
 17 18  1  0  0  0  0
 18 19  4  0  0  0  0
 18 23  4  0  0  0  0
 19 20  4  0  0  0  0
 20 21  4  0  0  0  0
 21 22  4  0  0  0  0
 21 24  1  0  0  0  0
 22 23  4  0  0  0  0
M  END
>  <Name_Molregno>
590668

>  <5-HT2A>
8.96

>  <5-HT2C>
8.8

>  <5-HT6>
8.62

>  <5-HT7>
9.41

>  <Alpha-2A>
9.09

$$$$
590783
  Marvin  02231216192D 0   1.00000     0.00000     0

 24 27  0  0  0  0  0  0  0  0999 V2000
   -1.9550    2.5452    0.0000 N   0  0  0  0  0  0  0  0  0
   -1.9550    1.7202    0.0000 C   0  0  0  0  0  0  0  0  0
   -2.6694    1.3077    0.0000 C   0  0  0  0  0  0  0  0  0
   -3.3839    1.7202    0.0000 C   0  0  0  0  0  0  0  0  0
   -3.3839    2.5452    0.0000 C   0  0  0  0  0  0  0  0  0
   -2.6694    2.9577    0.0000 C   0  0  0  0  0  0  0  0  0
   -2.6694    3.7827    0.0000 C   0  0  0  0  0  0  0  0  0
   -2.6694    0.4827    0.0000 C   0  0  0  0  0  0  0  0  0
   -3.3839    0.0702    0.0000 C   0  0  0  0  0  0  0  0  0
   -3.3839   -0.7548    0.0000 N   0  0  0  0  0  0  0  0  0
   -2.7165   -1.2397    0.0000 C   0  0  0  0  0  0  0  0  0
   -1.9095   -1.0682    0.0000 C   0  0  0  0  0  0  0  0  0
   -1.3575   -1.6813    0.0000 C   0  0  0  0  0  0  0  0  0
   -1.6124   -2.4659    0.0000 N   0  0  0  0  0  0  0  0  0
   -2.4194   -2.6374    0.0000 C   0  0  0  0  0  0  0  0  0
   -2.9714   -2.0243    0.0000 C   0  0  0  0  0  0  0  0  0
   -3.7964   -2.0243    0.0000 C   0  0  0  0  0  0  0  0  0
   -4.3484   -2.6374    0.0000 C   0  0  0  0  0  0  0  0  0
   -5.1554   -2.4659    0.0000 C   0  0  0  0  0  0  0  0  0
   -5.4103   -1.6813    0.0000 C   0  0  0  0  0  0  0  0  0
   -4.8583   -1.0682    0.0000 C   0  0  0  0  0  0  0  0  0
   -4.0513   -1.2397    0.0000 C   0  0  0  0  0  0  0  0  0
   -5.7074   -3.0790    0.0000 C   0  0  0  0  0  0  0  0  0
   -1.0604   -3.0790    0.0000 C   0  0  0  0  0  0  0  0  0
  1  2  4  0  0  0  0
  1  6  4  0  0  0  0
  2  3  4  0  0  0  0
  3  4  4  0  0  0  0
  3  8  1  0  0  0  0
  4  5  4  0  0  0  0
  5  6  4  0  0  0  0
  6  7  1  0  0  0  0
  8  9  1  0  0  0  0
  9 10  1  0  0  0  0
 10 11  4  0  0  0  0
 10 22  4  0  0  0  0
 11 12  1  0  0  0  0
 11 16  4  0  0  0  0
 12 13  1  0  0  0  0
 13 14  1  0  0  0  0
 14 15  1  0  0  0  0
 14 24  1  0  0  0  0
 15 16  1  0  0  0  0
 16 17  4  0  0  0  0
 17 18  4  0  0  0  0
 17 22  4  0  0  0  0
 18 19  4  0  0  0  0
 19 20  4  0  0  0  0
 19 23  1  0  0  0  0
 20 21  4  0  0  0  0
 21 22  4  0  0  0  0
M  END
>  <Name_Molregno>
590783

>  <5-HT2A>
7.21

>  <5-HT2C>
7.12

>  <5-HT6>
7.51

>  <5-HT7>
8.1

>  <Alpha-2A>
6.96

>  <DOPAMINE D2>
6.2

$$$$
591110
  Marvin  02231216192D 0   1.00000     0.00000     0

 27 31  0  0  1  0  0  0  0  0999 V2000
    0.4188    1.2437    0.0000 O   0  0  0  0  0  0  0  0  0
   -0.3658    0.9887    0.0000 C   0  0  0  0  0  0  0  0  0
   -0.3658    0.1637    0.0000 C   0  0  0  0  0  0  0  0  0
    0.4188   -0.0912    0.0000 O   0  0  0  0  0  0  0  0  0
    0.9037    0.5762    0.0000 C   0  0  0  0  0  0  0  0  0
   -1.0803   -0.2488    0.0000 C   0  0  0  0  0  0  0  0  0
   -1.7947    0.1637    0.0000 C   0  0  0  0  0  0  0  0  0
   -2.5092   -0.2488    0.0000 C   0  0  0  0  0  0  0  0  0
   -3.2237    0.1637    0.0000 C   0  0  0  0  0  0  0  0  0
   -3.9382   -0.2488    0.0000 N   0  0  0  0  0  0  0  0  0
   -4.6526    0.1637    0.0000 C   0  0  0  0  0  0  0  0  0
   -4.6526    0.9887    0.0000 C   0  0  0  0  0  0  0  0  0
   -3.9382    1.4012    0.0000 C   0  0  0  0  0  0  0  0  0
   -3.9382    2.2262    0.0000 C   0  0  0  0  0  0  0  0  0
   -3.2237    2.6387    0.0000 C   0  0  0  0  0  0  0  0  0
   -3.2237    3.4637    0.0000 C   0  0  0  0  0  0  0  0  0
   -3.9382    3.8762    0.0000 O   0  0  0  0  0  0  0  0  0
   -2.5092    3.8762    0.0000 C   0  0  0  0  0  0  0  0  0
   -2.5092    2.2262    0.0000 C   0  0  0  0  0  0  0  0  0
   -2.5092    1.4012    0.0000 C   0  0  0  0  0  0  0  0  0
   -3.2237    0.9887    0.0000 C   0  0  0  0  0  0  0  0  0
   -1.7947    0.9887    0.0000 C   0  0  0  0  0  0  0  0  0
   -1.0803    1.4012    0.0000 C   0  0  0  0  0  0  0  0  0
   -1.7947    2.6387    0.0000 C   0  0  0  0  0  0  0  0  0
   -1.0803    2.2262    0.0000 O   0  0  0  0  0  0  0  0  0
   -1.7947    3.4637    0.0000 C   0  0  0  0  0  0  0  0  0
   -3.9382   -1.0738    0.0000 C   0  0  0  0  0  0  0  0  0
  1  2  1  0  0  0  0
  1  5  1  0  0  0  0
  2  3  4  0  0  0  0
  2 23  4  0  0  0  0
  3  4  1  0  0  0  0
  3  6  4  0  0  0  0
  4  5  1  0  0  0  0
  6  7  4  0  0  0  0
  7  8  1  0  0  0  0
  7 22  4  0  0  0  0
  8  9  1  0  0  0  0
  9 10  1  0  0  0  0
  9 21  1  0  0  0  0
 10 11  1  0  0  0  0
 10 27  1  0  0  0  0
 11 12  1  0  0  0  0
 12 13  1  0  0  0  0
 13 14  4  0  0  0  0
 13 21  4  0  0  0  0
 14 15  4  0  0  0  0
 15 16  1  0  0  0  0
 15 19  4  0  0  0  0
 16 17  2  0  0  0  0
 16 18  1  0  0  0  0
 19 20  4  0  0  0  0
 19 24  1  0  0  0  0
 20 21  4  0  0  0  0
 20 22  1  0  0  0  0
 22 23  4  0  0  0  0
 24 25  2  0  0  0  0
 24 26  1  0  0  0  0
M  END
>  <Name_Molregno>
591110

>  <5-HT1B>
7

>  <5-HT1D>
7.31

>  <5-HT1E>
5

>  <5-HT2A>
6.08

>  <5-HT2C>
5.97

>  <5-HT3>
5

>  <5-HT5>
5.65

>  <5-HT6>
6.59

>  <5-HT7>
7.17

>  <Alpha-1A>
8.7

>  <Alpha-1B>
5.92

>  <Alpha-2A>
5.89

>  <Alpha-2B>
6.6

>  <Alpha-2C>
6.74

>  <Beta-1>
5.07

>  <Beta-2>
5

>  <DOPAMINE D1>
6.05

>  <DOPAMINE D2>
6.07

>  <DOPAMINE D3>
6.51

>  <DOPAMINE D4>
6.58

>  <DOPAMINE D5>
5.62

>  <Dopamine transporter>
5

>  <HISTAMINE H1>
5

>  <HISTAMINE H2>
6.17

>  <HISTAMINE H3>
5

>  <HISTAMINE H4>
5

>  <Muscarinic acetylcholine receptor M1>
5

>  <Muscarinic acetylcholine receptor M2>
5

>  <Muscarinic acetylcholine receptor M3>
5

>  <Muscarinic acetylcholine receptor M4>
5

>  <Norepinephrine transporter>
5

>  <Serotonin transporter>
6.61

$$$$
594448
  Marvin  02231216192D 0   1.00000     0.00000     0

 24 27  0  0  1  0  0  0  0  0999 V2000
   -0.1249   -0.5370    0.0000 O   0  0  0  0  0  0  0  0  0
    0.6852   -0.6929    0.0000 C   0  0  0  0  0  0  0  0  0
   -0.3950    0.2426    0.0000 C   0  0  0  0  0  0  0  0  0
   -1.2051    0.3985    0.0000 C   0  0  0  0  0  0  0  0  0
   -1.4751    1.1780    0.0000 C   0  0  0  0  0  0  0  0  0
   -2.2853    1.3340    0.0000 C   0  0  0  0  0  0  0  0  0
   -2.8254    0.7103    0.0000 C   0  0  0  0  0  0  0  0  0
   -2.5553   -0.0692    0.0000 N   0  0  0  0  0  0  0  0  0
   -1.7452   -0.2251    0.0000 C   0  0  0  0  0  0  0  0  0
   -3.0954   -0.6929    0.0000 C   0  0  0  0  0  0  0  0  0
   -3.9055   -0.5370    0.0000 C   0  0  0  0  0  0  0  0  0
   -4.1756    0.2426    0.0000 C   0  0  0  0  0  0  0  0  0
   -4.9857    0.3985    0.0000 C   0  0  0  0  0  0  0  0  0
   -5.2558    1.1780    0.0000 C   0  0  0  0  0  0  0  0  0
   -6.0659    1.3340    0.0000 O   0  0  0  0  0  0  0  0  0
   -6.6060    0.7103    0.0000 C   0  0  0  0  0  0  0  0  0
   -4.7157    1.8017    0.0000 C   0  0  0  0  0  0  0  0  0
   -4.9857    2.5812    0.0000 O   0  0  0  0  0  0  0  0  0
   -3.9055    1.6458    0.0000 C   0  0  0  0  0  0  0  0  0
   -3.6355    0.8662    0.0000 C   0  0  0  0  0  0  0  0  0
   -0.9351    1.8017    0.0000 C   0  0  0  0  0  0  0  0  0
   -0.1249    1.6458    0.0000 C   0  0  0  0  0  0  0  0  0
    0.1451    0.8662    0.0000 C   0  0  0  0  0  0  0  0  0
    0.9553    0.7103    0.0000 O   0  0  0  0  0  0  0  0  0
  1  2  1  0  0  0  0
  1  3  1  0  0  0  0
  3  4  4  0  0  0  0
  3 23  4  0  0  0  0
  4  5  4  0  0  0  0
  4  9  1  0  0  0  0
  5  6  1  0  0  0  0
  5 21  4  0  0  0  0
  6  7  1  0  0  0  0
  7  8  1  0  0  0  0
  7 20  1  0  0  0  0
  8  9  1  0  0  0  0
  8 10  1  0  0  0  0
 10 11  1  0  0  0  0
 11 12  1  0  0  0  0
 12 13  4  0  0  0  0
 12 20  4  0  0  0  0
 13 14  4  0  0  0  0
 14 15  1  0  0  0  0
 14 17  4  0  0  0  0
 15 16  1  0  0  0  0
 17 18  1  0  0  0  0
 17 19  4  0  0  0  0
 19 20  4  0  0  0  0
 21 22  4  0  0  0  0
 22 23  4  0  0  0  0
 23 24  1  0  0  0  0
M  END
>  <Name_Molregno>
594448

>  <5-HT1A>
6.84

>  <5-HT1B>
5.16

>  <5-HT1D>
5

>  <5-HT1E>
5

>  <5-HT2A>
5

>  <5-HT3>
5

>  <5-HT5>
5

>  <5-HT6>
5

>  <5-HT7>
5

>  <Alpha-1A>
5

>  <Alpha-1B>
5

>  <Alpha-2A>
5

>  <Alpha-2B>
5.16

>  <Alpha-2C>
6.67

>  <Beta-1>
5

>  <Beta-2>
5

>  <DOPAMINE D1>
8.23

>  <DOPAMINE D2>
6.01

>  <DOPAMINE D4>
5.43

>  <DOPAMINE D5>
8.36

>  <Dopamine transporter>
5

>  <HISTAMINE H1>
5

>  <HISTAMINE H2>
5

>  <HISTAMINE H4>
5

>  <Muscarinic acetylcholine receptor M2>
5

>  <Muscarinic acetylcholine receptor M5>
5

>  <Norepinephrine transporter>
5

>  <Serotonin transporter>
5

$$$$
594617
  Marvin  02231216192D 0   1.00000     0.00000     0

 26 29  0  0  1  0  0  0  0  0999 V2000
   -0.4854   -0.6621    0.0000 I   0  0  0  0  0  0  0  0  0
    0.2291   -1.0746    0.0000 C   0  0  0  0  0  0  0  0  0
    0.9436   -0.6621    0.0000 C   0  0  0  0  0  0  0  0  0
    1.6580   -1.0746    0.0000 C   0  0  0  0  0  0  0  0  0
    1.6580   -1.8996    0.0000 C   0  0  0  0  0  0  0  0  0
    0.9436   -2.3121    0.0000 C   0  0  0  0  0  0  0  0  0
    0.2291   -1.8996    0.0000 C   0  0  0  0  0  0  0  0  0
   -0.4854   -2.3121    0.0000 S   0  0  0  0  0  0  0  0  0
   -0.8979   -1.5976    0.0000 O   0  0  0  0  0  0  0  0  0
   -0.0729   -3.0266    0.0000 O   0  0  0  0  0  0  0  0  0
   -1.1998   -2.7246    0.0000 N   0  0  0  0  0  0  0  0  0
   -1.9143   -2.3121    0.0000 C   0  0  0  0  0  0  0  0  0
   -2.6288   -2.7246    0.0000 C   0  0  0  0  0  0  0  0  0
   -3.3433   -2.3121    0.0000 C   0  0  0  0  0  0  0  0  0
   -3.3433   -1.4871    0.0000 C   0  0  0  0  0  0  0  0  0
   -4.1279   -1.2321    0.0000 N   0  0  0  0  0  0  0  0  0
   -4.6128   -1.8996    0.0000 C   0  0  0  0  0  0  0  0  0
   -4.1279   -2.5670    0.0000 C   0  0  0  0  0  0  0  0  0
   -4.3828   -3.3516    0.0000 C   0  0  0  0  0  0  0  0  0
   -5.1898   -3.5232    0.0000 C   0  0  0  0  0  0  0  0  0
   -5.5254   -4.2768    0.0000 N   0  0  0  0  0  0  0  0  0
   -6.3458   -4.1906    0.0000 C   0  0  0  0  0  0  0  0  0
   -6.5174   -3.3836    0.0000 C   0  0  0  0  0  0  0  0  0
   -5.8029   -2.9711    0.0000 C   0  0  0  0  0  0  0  0  0
   -2.6288   -1.0746    0.0000 C   0  0  0  0  0  0  0  0  0
   -1.9143   -1.4871    0.0000 C   0  0  0  0  0  0  0  0  0
  1  2  1  0  0  0  0
  2  3  4  0  0  0  0
  2  7  4  0  0  0  0
  3  4  4  0  0  0  0
  4  5  4  0  0  0  0
  5  6  4  0  0  0  0
  6  7  4  0  0  0  0
  7  8  1  0  0  0  0
  8  9  2  0  0  0  0
  8 10  2  0  0  0  0
  8 11  1  0  0  0  0
 11 12  1  0  0  0  0
 12 13  4  0  0  0  0
 12 26  4  0  0  0  0
 13 14  4  0  0  0  0
 14 15  4  0  0  0  0
 14 18  4  0  0  0  0
 15 16  4  0  0  0  0
 15 25  4  0  0  0  0
 16 17  4  0  0  0  0
 17 18  4  0  0  0  0
 18 19  1  0  0  0  0
 19 20  1  0  0  0  0
 20 21  1  0  0  0  0
 20 24  1  0  0  0  0
 21 22  1  0  0  0  0
 22 23  1  0  0  0  0
 23 24  1  0  0  0  0
 25 26  4  0  0  0  0
M  STY  1   1 DAT
M  SAL   1  1  16
M  SDT   1 MRV_IMPLICIT_H                                        
M  SDD   1     0.0000    0.0000    DR    ALL  0       0  
M  SED   1 IMPL_H1
M  END
>  <Name_Molregno>
594617

>  <5-HT1A>
6.63

>  <5-HT1B>
8.03

>  <5-HT1D>
7.19

>  <5-HT2C>
6.63

>  <5-HT6>
9

>  <5-HT7>
6.48

>  <DOPAMINE D2>
5.7

>  <DOPAMINE D3>
5.3

>  <DOPAMINE D4>
5.3

$$$$
603859
  Marvin  02231216192D 0   1.00000     0.00000     0

 13 13  0  0  0  0  0  0  0  0999 V2000
   -0.0714    1.0716    0.0000 Br  0  0  0  0  0  0  0  0  0
    0.6430    0.6591    0.0000 C   0  0  0  0  0  0  0  0  0
    1.3575    1.0716    0.0000 N   0  0  0  0  0  0  0  0  0
    2.0720    0.6591    0.0000 C   0  0  0  0  0  0  0  0  0
    2.7865    1.0716    0.0000 O   0  0  0  0  0  0  0  0  0
    3.5009    0.6591    0.0000 C   0  0  0  0  0  0  0  0  0
    4.2154    1.0716    0.0000 C   0  0  0  0  0  0  0  0  0
    4.9299    0.6591    0.0000 N   0  0  0  0  0  0  0  0  0
    5.6443    1.0716    0.0000 C   0  0  0  0  0  0  0  0  0
    4.9299   -0.1659    0.0000 C   0  0  0  0  0  0  0  0  0
    2.0720   -0.1659    0.0000 C   0  0  0  0  0  0  0  0  0
    1.3575   -0.5784    0.0000 C   0  0  0  0  0  0  0  0  0
    0.6430   -0.1659    0.0000 C   0  0  0  0  0  0  0  0  0
  1  2  1  0  0  0  0
  2  3  4  0  0  0  0
  2 13  4  0  0  0  0
  3  4  4  0  0  0  0
  4  5  1  0  0  0  0
  4 11  4  0  0  0  0
  5  6  1  0  0  0  0
  6  7  1  0  0  0  0
  7  8  1  0  0  0  0
  8  9  1  0  0  0  0
  8 10  1  0  0  0  0
 11 12  4  0  0  0  0
 12 13  4  0  0  0  0
M  END
>  <Name_Molregno>
603859

>  <5-HT7>
5.65

$$$$
603860
  Marvin  02231216192D 0   1.00000     0.00000     0

 20 21  0  0  0  0  0  0  0  0999 V2000
    0.0332   -0.4418    0.0000 S   0  0  0  0  0  0  0  0  0
    0.7477   -0.0293    0.0000 C   0  0  0  0  0  0  0  0  0
    1.4622   -0.4418    0.0000 C   0  0  0  0  0  0  0  0  0
    2.1767   -0.0293    0.0000 N   0  0  0  0  0  0  0  0  0
    2.8911   -0.4418    0.0000 C   0  0  0  0  0  0  0  0  0
    2.1767    0.7957    0.0000 C   0  0  0  0  0  0  0  0  0
   -0.6812   -0.0293    0.0000 C   0  0  0  0  0  0  0  0  0
   -1.3957   -0.4418    0.0000 N   0  0  0  0  0  0  0  0  0
   -2.1102   -0.0293    0.0000 C   0  0  0  0  0  0  0  0  0
   -2.1102    0.7957    0.0000 C   0  0  0  0  0  0  0  0  0
   -1.3957    1.2082    0.0000 C   0  0  0  0  0  0  0  0  0
   -0.6812    0.7957    0.0000 C   0  0  0  0  0  0  0  0  0
   -2.8246   -0.4418    0.0000 C   0  0  0  0  0  0  0  0  0
   -2.8246   -1.2668    0.0000 C   0  0  0  0  0  0  0  0  0
   -3.5391   -1.6793    0.0000 C   0  0  0  0  0  0  0  0  0
   -4.2536   -1.2668    0.0000 C   0  0  0  0  0  0  0  0  0
   -4.2536   -0.4418    0.0000 C   0  0  0  0  0  0  0  0  0
   -3.5391   -0.0293    0.0000 C   0  0  0  0  0  0  0  0  0
   -3.5391    0.7957    0.0000 C   0  0  0  0  0  0  0  0  0
   -2.1102   -1.6793    0.0000 C   0  0  0  0  0  0  0  0  0
  1  2  1  0  0  0  0
  1  7  1  0  0  0  0
  2  3  1  0  0  0  0
  3  4  1  0  0  0  0
  4  5  1  0  0  0  0
  4  6  1  0  0  0  0
  7  8  4  0  0  0  0
  7 12  4  0  0  0  0
  8  9  4  0  0  0  0
  9 10  4  0  0  0  0
  9 13  1  0  0  0  0
 10 11  4  0  0  0  0
 11 12  4  0  0  0  0
 13 14  4  0  0  0  0
 13 18  4  0  0  0  0
 14 15  4  0  0  0  0
 14 20  1  0  0  0  0
 15 16  4  0  0  0  0
 16 17  4  0  0  0  0
 17 18  4  0  0  0  0
 18 19  1  0  0  0  0
M  END
>  <Name_Molregno>
603860

>  <5-HT7>
6.89

$$$$
603861
  Marvin  02231216192D 0   1.00000     0.00000     0

 20 21  0  0  0  0  0  0  0  0999 V2000
    0.0332   -0.4418    0.0000 O   0  0  0  0  0  0  0  0  0
    0.7477   -0.0293    0.0000 C   0  0  0  0  0  0  0  0  0
    1.4622   -0.4418    0.0000 C   0  0  0  0  0  0  0  0  0
    2.1767   -0.0293    0.0000 N   0  0  0  0  0  0  0  0  0
    2.8911   -0.4418    0.0000 C   0  0  0  0  0  0  0  0  0
    2.1767    0.7957    0.0000 C   0  0  0  0  0  0  0  0  0
   -0.6812   -0.0293    0.0000 C   0  0  0  0  0  0  0  0  0
   -1.3957   -0.4418    0.0000 N   0  0  0  0  0  0  0  0  0
   -2.1102   -0.0293    0.0000 C   0  0  0  0  0  0  0  0  0
   -2.1102    0.7957    0.0000 C   0  0  0  0  0  0  0  0  0
   -1.3957    1.2082    0.0000 C   0  0  0  0  0  0  0  0  0
   -0.6812    0.7957    0.0000 C   0  0  0  0  0  0  0  0  0
   -2.8246   -0.4418    0.0000 C   0  0  0  0  0  0  0  0  0
   -2.8246   -1.2668    0.0000 C   0  0  0  0  0  0  0  0  0
   -3.5391   -1.6793    0.0000 C   0  0  0  0  0  0  0  0  0
   -4.2536   -1.2668    0.0000 C   0  0  0  0  0  0  0  0  0
   -4.2536   -0.4418    0.0000 C   0  0  0  0  0  0  0  0  0
   -3.5391   -0.0293    0.0000 C   0  0  0  0  0  0  0  0  0
   -3.5391    0.7957    0.0000 C   0  0  0  0  0  0  0  0  0
   -2.1102   -1.6793    0.0000 C   0  0  0  0  0  0  0  0  0
  1  2  1  0  0  0  0
  1  7  1  0  0  0  0
  2  3  1  0  0  0  0
  3  4  1  0  0  0  0
  4  5  1  0  0  0  0
  4  6  1  0  0  0  0
  7  8  4  0  0  0  0
  7 12  4  0  0  0  0
  8  9  4  0  0  0  0
  9 10  4  0  0  0  0
  9 13  1  0  0  0  0
 10 11  4  0  0  0  0
 11 12  4  0  0  0  0
 13 14  4  0  0  0  0
 13 18  4  0  0  0  0
 14 15  4  0  0  0  0
 14 20  1  0  0  0  0
 15 16  4  0  0  0  0
 16 17  4  0  0  0  0
 17 18  4  0  0  0  0
 18 19  1  0  0  0  0
M  END
>  <Name_Molregno>
603861

>  <5-HT7>
5.79

$$$$
603862
  Marvin  02231216192D 0   1.00000     0.00000     0

 17 18  0  0  0  0  0  0  0  0999 V2000
    0.0271   -0.6160    0.0000 S   0  0  0  0  0  0  0  0  0
    0.7416   -0.2035    0.0000 C   0  0  0  0  0  0  0  0  0
    1.4561   -0.6160    0.0000 C   0  0  0  0  0  0  0  0  0
    2.1705   -0.2035    0.0000 N   0  0  0  0  0  0  0  0  0
    2.8850   -0.6160    0.0000 C   0  0  0  0  0  0  0  0  0
    2.1705    0.6215    0.0000 C   0  0  0  0  0  0  0  0  0
   -0.6874   -0.2035    0.0000 C   0  0  0  0  0  0  0  0  0
   -1.4018   -0.6160    0.0000 N   0  0  0  0  0  0  0  0  0
   -2.1163   -0.2035    0.0000 C   0  0  0  0  0  0  0  0  0
   -2.1163    0.6215    0.0000 C   0  0  0  0  0  0  0  0  0
   -1.4018    1.0340    0.0000 C   0  0  0  0  0  0  0  0  0
   -0.6874    0.6215    0.0000 C   0  0  0  0  0  0  0  0  0
   -2.8308   -0.6160    0.0000 C   0  0  0  0  0  0  0  0  0
   -2.9170   -1.4365    0.0000 C   0  0  0  0  0  0  0  0  0
   -3.7240   -1.6080    0.0000 C   0  0  0  0  0  0  0  0  0
   -4.1365   -0.8936    0.0000 O   0  0  0  0  0  0  0  0  0
   -3.5844   -0.2805    0.0000 C   0  0  0  0  0  0  0  0  0
  1  2  1  0  0  0  0
  1  7  1  0  0  0  0
  2  3  1  0  0  0  0
  3  4  1  0  0  0  0
  4  5  1  0  0  0  0
  4  6  1  0  0  0  0
  7  8  4  0  0  0  0
  7 12  4  0  0  0  0
  8  9  4  0  0  0  0
  9 10  4  0  0  0  0
  9 13  1  0  0  0  0
 10 11  4  0  0  0  0
 11 12  4  0  0  0  0
 13 14  4  0  0  0  0
 13 17  4  0  0  0  0
 14 15  4  0  0  0  0
 15 16  4  0  0  0  0
 16 17  4  0  0  0  0
M  END
>  <Name_Molregno>
603862

>  <5-HT7>
7.59

$$$$
603863
  Marvin  02231216192D 0   1.00000     0.00000     0

 13 13  0  0  0  0  0  0  0  0999 V2000
   -0.5734   -2.7523    0.0000 Br  0  0  0  0  0  0  0  0  0
   -1.2879   -2.3398    0.0000 C   0  0  0  0  0  0  0  0  0
   -2.0024   -2.7523    0.0000 C   0  0  0  0  0  0  0  0  0
   -2.7169   -2.3398    0.0000 C   0  0  0  0  0  0  0  0  0
   -2.7169   -1.5148    0.0000 C   0  0  0  0  0  0  0  0  0
   -2.0024   -1.1023    0.0000 C   0  0  0  0  0  0  0  0  0
   -1.2879   -1.5148    0.0000 C   0  0  0  0  0  0  0  0  0
   -0.5734   -1.1023    0.0000 S   0  0  0  0  0  0  0  0  0
    0.1410   -1.5148    0.0000 C   0  0  0  0  0  0  0  0  0
    0.8555   -1.1023    0.0000 C   0  0  0  0  0  0  0  0  0
    1.5700   -1.5148    0.0000 N   0  0  0  0  0  0  0  0  0
    2.2844   -1.1023    0.0000 C   0  0  0  0  0  0  0  0  0
    1.5700   -2.3398    0.0000 C   0  0  0  0  0  0  0  0  0
  1  2  1  0  0  0  0
  2  3  4  0  0  0  0
  2  7  4  0  0  0  0
  3  4  4  0  0  0  0
  4  5  4  0  0  0  0
  5  6  4  0  0  0  0
  6  7  4  0  0  0  0
  7  8  1  0  0  0  0
  8  9  1  0  0  0  0
  9 10  1  0  0  0  0
 10 11  1  0  0  0  0
 11 12  1  0  0  0  0
 11 13  1  0  0  0  0
M  END
>  <Name_Molregno>
603863

>  <5-HT7>
5.39

$$$$
603920
  Marvin  02231216192D 0   1.00000     0.00000     0

 13 13  0  0  0  0  0  0  0  0999 V2000
   -0.5734   -2.7523    0.0000 Br  0  0  0  0  0  0  0  0  0
   -1.2879   -2.3398    0.0000 C   0  0  0  0  0  0  0  0  0
   -2.0024   -2.7523    0.0000 C   0  0  0  0  0  0  0  0  0
   -2.7169   -2.3398    0.0000 C   0  0  0  0  0  0  0  0  0
   -2.7169   -1.5148    0.0000 C   0  0  0  0  0  0  0  0  0
   -2.0024   -1.1023    0.0000 C   0  0  0  0  0  0  0  0  0
   -1.2879   -1.5148    0.0000 C   0  0  0  0  0  0  0  0  0
   -0.5734   -1.1023    0.0000 O   0  0  0  0  0  0  0  0  0
    0.1410   -1.5148    0.0000 C   0  0  0  0  0  0  0  0  0
    0.8555   -1.1023    0.0000 C   0  0  0  0  0  0  0  0  0
    1.5700   -1.5148    0.0000 N   0  0  0  0  0  0  0  0  0
    2.2844   -1.1023    0.0000 C   0  0  0  0  0  0  0  0  0
    1.5700   -2.3398    0.0000 C   0  0  0  0  0  0  0  0  0
  1  2  1  0  0  0  0
  2  3  4  0  0  0  0
  2  7  4  0  0  0  0
  3  4  4  0  0  0  0
  4  5  4  0  0  0  0
  5  6  4  0  0  0  0
  6  7  4  0  0  0  0
  7  8  1  0  0  0  0
  8  9  1  0  0  0  0
  9 10  1  0  0  0  0
 10 11  1  0  0  0  0
 11 12  1  0  0  0  0
 11 13  1  0  0  0  0
M  END
>  <Name_Molregno>
603920

>  <5-HT7>
5.57

$$$$
603921
  Marvin  02231216192D 0   1.00000     0.00000     0

 18 19  0  0  0  0  0  0  0  0999 V2000
   -0.0103   -0.2346    0.0000 S   0  0  0  0  0  0  0  0  0
    0.7041   -0.6471    0.0000 C   0  0  0  0  0  0  0  0  0
    1.4186   -0.2346    0.0000 C   0  0  0  0  0  0  0  0  0
    2.1331   -0.6471    0.0000 N   0  0  0  0  0  0  0  0  0
    2.8475   -0.2346    0.0000 C   0  0  0  0  0  0  0  0  0
    2.1331   -1.4721    0.0000 C   0  0  0  0  0  0  0  0  0
   -0.7248   -0.6471    0.0000 C   0  0  0  0  0  0  0  0  0
   -0.7248   -1.4721    0.0000 C   0  0  0  0  0  0  0  0  0
   -1.4393   -1.8846    0.0000 C   0  0  0  0  0  0  0  0  0
   -2.1538   -1.4721    0.0000 C   0  0  0  0  0  0  0  0  0
   -2.1538   -0.6471    0.0000 C   0  0  0  0  0  0  0  0  0
   -1.4393   -0.2346    0.0000 C   0  0  0  0  0  0  0  0  0
   -1.4393    0.5904    0.0000 C   0  0  0  0  0  0  0  0  0
   -2.1538    1.0029    0.0000 C   0  0  0  0  0  0  0  0  0
   -2.1538    1.8279    0.0000 C   0  0  0  0  0  0  0  0  0
   -1.4393    2.2404    0.0000 C   0  0  0  0  0  0  0  0  0
   -0.7248    1.8279    0.0000 C   0  0  0  0  0  0  0  0  0
   -0.7248    1.0029    0.0000 C   0  0  0  0  0  0  0  0  0
  1  2  1  0  0  0  0
  1  7  1  0  0  0  0
  2  3  1  0  0  0  0
  3  4  1  0  0  0  0
  4  5  1  0  0  0  0
  4  6  1  0  0  0  0
  7  8  4  0  0  0  0
  7 12  4  0  0  0  0
  8  9  4  0  0  0  0
  9 10  4  0  0  0  0
 10 11  4  0  0  0  0
 11 12  4  0  0  0  0
 12 13  1  0  0  0  0
 13 14  4  0  0  0  0
 13 18  4  0  0  0  0
 14 15  4  0  0  0  0
 15 16  4  0  0  0  0
 16 17  4  0  0  0  0
 17 18  4  0  0  0  0
M  END
>  <Name_Molregno>
603921

>  <5-HT7>
6.26

$$$$
603922
  Marvin  02231216192D 0   1.00000     0.00000     0

 20 21  0  0  0  0  0  0  0  0999 V2000
   -0.3664   -0.3842    0.0000 O   0  0  0  0  0  0  0  0  0
    0.3480   -0.7967    0.0000 C   0  0  0  0  0  0  0  0  0
    1.0625   -0.3842    0.0000 C   0  0  0  0  0  0  0  0  0
    1.7770   -0.7967    0.0000 N   0  0  0  0  0  0  0  0  0
    2.4914   -0.3842    0.0000 C   0  0  0  0  0  0  0  0  0
    1.7770   -1.6217    0.0000 C   0  0  0  0  0  0  0  0  0
   -1.0809   -0.7967    0.0000 C   0  0  0  0  0  0  0  0  0
   -1.0809   -1.6217    0.0000 C   0  0  0  0  0  0  0  0  0
   -1.7954   -2.0342    0.0000 C   0  0  0  0  0  0  0  0  0
   -2.5098   -1.6217    0.0000 C   0  0  0  0  0  0  0  0  0
   -2.5098   -0.7967    0.0000 C   0  0  0  0  0  0  0  0  0
   -1.7954   -0.3842    0.0000 C   0  0  0  0  0  0  0  0  0
   -1.7954    0.4408    0.0000 C   0  0  0  0  0  0  0  0  0
   -2.5098    0.8533    0.0000 C   0  0  0  0  0  0  0  0  0
   -2.5098    1.6783    0.0000 C   0  0  0  0  0  0  0  0  0
   -1.7954    2.0908    0.0000 C   0  0  0  0  0  0  0  0  0
   -1.0809    1.6783    0.0000 C   0  0  0  0  0  0  0  0  0
   -1.0809    0.8533    0.0000 C   0  0  0  0  0  0  0  0  0
   -0.3664    0.4408    0.0000 O   0  0  0  0  0  0  0  0  0
    0.3480    0.8533    0.0000 C   0  0  0  0  0  0  0  0  0
  1  2  1  0  0  0  0
  1  7  1  0  0  0  0
  2  3  1  0  0  0  0
  3  4  1  0  0  0  0
  4  5  1  0  0  0  0
  4  6  1  0  0  0  0
  7  8  4  0  0  0  0
  7 12  4  0  0  0  0
  8  9  4  0  0  0  0
  9 10  4  0  0  0  0
 10 11  4  0  0  0  0
 11 12  4  0  0  0  0
 12 13  1  0  0  0  0
 13 14  4  0  0  0  0
 13 18  4  0  0  0  0
 14 15  4  0  0  0  0
 15 16  4  0  0  0  0
 16 17  4  0  0  0  0
 17 18  4  0  0  0  0
 18 19  1  0  0  0  0
 19 20  1  0  0  0  0
M  END
>  <Name_Molregno>
603922

>  <5-HT7>
6.17

$$$$
603923
  Marvin  02231216192D 0   1.00000     0.00000     0

 20 21  0  0  0  0  0  0  0  0999 V2000
   -0.0268   -0.1582    0.0000 S   0  0  0  0  0  0  0  0  0
    0.6877   -0.5707    0.0000 C   0  0  0  0  0  0  0  0  0
    1.4022   -0.1582    0.0000 C   0  0  0  0  0  0  0  0  0
    2.1167   -0.5707    0.0000 N   0  0  0  0  0  0  0  0  0
    2.8311   -0.1582    0.0000 C   0  0  0  0  0  0  0  0  0
    2.1167   -1.3957    0.0000 C   0  0  0  0  0  0  0  0  0
   -0.7412   -0.5707    0.0000 C   0  0  0  0  0  0  0  0  0
   -0.7412   -1.3957    0.0000 C   0  0  0  0  0  0  0  0  0
   -1.4557   -1.8082    0.0000 C   0  0  0  0  0  0  0  0  0
   -2.1702   -1.3957    0.0000 C   0  0  0  0  0  0  0  0  0
   -2.1702   -0.5707    0.0000 C   0  0  0  0  0  0  0  0  0
   -1.4557   -0.1582    0.0000 C   0  0  0  0  0  0  0  0  0
   -1.4557    0.6668    0.0000 C   0  0  0  0  0  0  0  0  0
   -2.1702    1.0793    0.0000 C   0  0  0  0  0  0  0  0  0
   -2.1702    1.9043    0.0000 C   0  0  0  0  0  0  0  0  0
   -1.4557    2.3168    0.0000 C   0  0  0  0  0  0  0  0  0
   -0.7412    1.9043    0.0000 C   0  0  0  0  0  0  0  0  0
   -0.7412    1.0793    0.0000 C   0  0  0  0  0  0  0  0  0
   -0.0268    0.6668    0.0000 C   0  0  0  0  0  0  0  0  0
   -2.8846    0.6668    0.0000 C   0  0  0  0  0  0  0  0  0
  1  2  1  0  0  0  0
  1  7  1  0  0  0  0
  2  3  1  0  0  0  0
  3  4  1  0  0  0  0
  4  5  1  0  0  0  0
  4  6  1  0  0  0  0
  7  8  4  0  0  0  0
  7 12  4  0  0  0  0
  8  9  4  0  0  0  0
  9 10  4  0  0  0  0
 10 11  4  0  0  0  0
 11 12  4  0  0  0  0
 12 13  1  0  0  0  0
 13 14  4  0  0  0  0
 13 18  4  0  0  0  0
 14 15  4  0  0  0  0
 14 20  1  0  0  0  0
 15 16  4  0  0  0  0
 16 17  4  0  0  0  0
 17 18  4  0  0  0  0
 18 19  1  0  0  0  0
M  END
>  <Name_Molregno>
603923

>  <5-HT7>
5.84

$$$$
603924
  Marvin  02231216192D 0   1.00000     0.00000     0

 17 18  0  0  0  0  0  0  0  0999 V2000
    0.1267   -0.0690    0.0000 N   0  0  0  0  0  0  0  0  0
    0.1267   -0.8940    0.0000 C   0  0  0  0  0  0  0  0  0
   -0.5878   -1.3065    0.0000 C   0  0  0  0  0  0  0  0  0
   -1.3023   -0.8940    0.0000 N   0  0  0  0  0  0  0  0  0
   -1.3023   -0.0690    0.0000 N   0  0  0  0  0  0  0  0  0
   -0.5878    0.3435    0.0000 C   0  0  0  0  0  0  0  0  0
   -0.5878    1.1685    0.0000 C   0  0  0  0  0  0  0  0  0
   -1.3023    1.5810    0.0000 C   0  0  0  0  0  0  0  0  0
   -1.3023    2.4060    0.0000 N   0  0  0  0  0  0  0  0  0
   -2.0168    2.8185    0.0000 C   0  0  0  0  0  0  0  0  0
   -0.5878    2.8185    0.0000 C   0  0  0  0  0  0  0  0  0
    0.8411   -1.3065    0.0000 C   0  0  0  0  0  0  0  0  0
    1.5556   -0.8940    0.0000 C   0  0  0  0  0  0  0  0  0
    2.2701   -1.3065    0.0000 C   0  0  0  0  0  0  0  0  0
    2.2701   -2.1315    0.0000 C   0  0  0  0  0  0  0  0  0
    1.5556   -2.5440    0.0000 C   0  0  0  0  0  0  0  0  0
    0.8411   -2.1315    0.0000 C   0  0  0  0  0  0  0  0  0
  1  2  4  0  0  0  0
  1  6  4  0  0  0  0
  2  3  4  0  0  0  0
  2 12  1  0  0  0  0
  3  4  4  0  0  0  0
  4  5  4  0  0  0  0
  5  6  4  0  0  0  0
  6  7  1  0  0  0  0
  7  8  1  0  0  0  0
  8  9  1  0  0  0  0
  9 10  1  0  0  0  0
  9 11  1  0  0  0  0
 12 13  4  0  0  0  0
 12 17  4  0  0  0  0
 13 14  4  0  0  0  0
 14 15  4  0  0  0  0
 15 16  4  0  0  0  0
 16 17  4  0  0  0  0
M  END
>  <Name_Molregno>
603924

>  <5-HT7>
5

$$$$
603925
  Marvin  02231216192D 0   1.00000     0.00000     0

 19 20  0  0  0  0  0  0  0  0999 V2000
   -0.1094    0.0691    0.0000 N   0  0  0  0  0  0  0  0  0
   -0.1094   -0.7559    0.0000 C   0  0  0  0  0  0  0  0  0
   -0.8239   -1.1684    0.0000 C   0  0  0  0  0  0  0  0  0
   -1.5383   -0.7559    0.0000 N   0  0  0  0  0  0  0  0  0
   -1.5383    0.0691    0.0000 N   0  0  0  0  0  0  0  0  0
   -0.8239    0.4816    0.0000 C   0  0  0  0  0  0  0  0  0
   -0.8239    1.3066    0.0000 C   0  0  0  0  0  0  0  0  0
   -1.5383    1.7191    0.0000 C   0  0  0  0  0  0  0  0  0
   -1.5383    2.5441    0.0000 N   0  0  0  0  0  0  0  0  0
   -2.2528    2.9566    0.0000 C   0  0  0  0  0  0  0  0  0
   -0.8239    2.9566    0.0000 C   0  0  0  0  0  0  0  0  0
    0.6051   -1.1684    0.0000 C   0  0  0  0  0  0  0  0  0
    1.3195   -0.7559    0.0000 C   0  0  0  0  0  0  0  0  0
    2.0340   -1.1684    0.0000 C   0  0  0  0  0  0  0  0  0
    2.0340   -1.9934    0.0000 C   0  0  0  0  0  0  0  0  0
    1.3195   -2.4059    0.0000 C   0  0  0  0  0  0  0  0  0
    0.6051   -1.9934    0.0000 C   0  0  0  0  0  0  0  0  0
   -0.1094   -2.4059    0.0000 C   0  0  0  0  0  0  0  0  0
    1.3195    0.0691    0.0000 C   0  0  0  0  0  0  0  0  0
  1  2  4  0  0  0  0
  1  6  4  0  0  0  0
  2  3  4  0  0  0  0
  2 12  1  0  0  0  0
  3  4  4  0  0  0  0
  4  5  4  0  0  0  0
  5  6  4  0  0  0  0
  6  7  1  0  0  0  0
  7  8  1  0  0  0  0
  8  9  1  0  0  0  0
  9 10  1  0  0  0  0
  9 11  1  0  0  0  0
 12 13  4  0  0  0  0
 12 17  4  0  0  0  0
 13 14  4  0  0  0  0
 13 19  1  0  0  0  0
 14 15  4  0  0  0  0
 15 16  4  0  0  0  0
 16 17  4  0  0  0  0
 17 18  1  0  0  0  0
M  END
>  <Name_Molregno>
603925

>  <5-HT7>
5

$$$$
604017
  Marvin  02231216192D 0   1.00000     0.00000     0

 21 22  0  0  0  0  0  0  0  0999 V2000
    0.7419    2.2458    0.0000 O   0  0  0  0  0  0  0  0  0
    1.4564    2.6583    0.0000 C   0  0  0  0  0  0  0  0  0
    0.7419    1.4208    0.0000 C   0  0  0  0  0  0  0  0  0
    1.4564    1.0083    0.0000 C   0  0  0  0  0  0  0  0  0
    1.4564    0.1833    0.0000 C   0  0  0  0  0  0  0  0  0
    0.7419   -0.2292    0.0000 C   0  0  0  0  0  0  0  0  0
    0.0275    0.1833    0.0000 C   0  0  0  0  0  0  0  0  0
   -0.6870   -0.2292    0.0000 O   0  0  0  0  0  0  0  0  0
   -1.4015    0.1833    0.0000 C   0  0  0  0  0  0  0  0  0
    0.0275    1.0083    0.0000 C   0  0  0  0  0  0  0  0  0
   -0.6870    1.4208    0.0000 C   0  0  0  0  0  0  0  0  0
   -1.4015    1.0083    0.0000 N   0  0  0  0  0  0  0  0  0
   -2.1160    1.4208    0.0000 C   0  0  0  0  0  0  0  0  0
   -2.1160    2.2458    0.0000 N   0  0  0  0  0  0  0  0  0
   -1.4015    2.6583    0.0000 N   0  0  0  0  0  0  0  0  0
   -0.6870    2.2458    0.0000 C   0  0  0  0  0  0  0  0  0
   -2.8304    1.0083    0.0000 C   0  0  0  0  0  0  0  0  0
   -2.8304    0.1833    0.0000 C   0  0  0  0  0  0  0  0  0
   -3.5449   -0.2292    0.0000 N   0  0  0  0  0  0  0  0  0
   -3.5449   -1.0542    0.0000 C   0  0  0  0  0  0  0  0  0
   -4.2594    0.1833    0.0000 C   0  0  0  0  0  0  0  0  0
  1  2  1  0  0  0  0
  1  3  1  0  0  0  0
  3  4  4  0  0  0  0
  3 10  4  0  0  0  0
  4  5  4  0  0  0  0
  5  6  4  0  0  0  0
  6  7  4  0  0  0  0
  7  8  1  0  0  0  0
  7 10  4  0  0  0  0
  8  9  1  0  0  0  0
 10 11  1  0  0  0  0
 11 12  4  0  0  0  0
 11 16  4  0  0  0  0
 12 13  4  0  0  0  0
 13 14  4  0  0  0  0
 13 17  1  0  0  0  0
 14 15  4  0  0  0  0
 15 16  4  0  0  0  0
 17 18  1  0  0  0  0
 18 19  1  0  0  0  0
 19 20  1  0  0  0  0
 19 21  1  0  0  0  0
M  END
>  <Name_Molregno>
604017

>  <5-HT7>
5

$$$$
604018
  Marvin  02231216192D 0   1.00000     0.00000     0

 21 22  0  0  0  0  0  0  0  0999 V2000
    0.7419    2.2458    0.0000 O   0  0  0  0  0  0  0  0  0
    1.4564    2.6583    0.0000 C   0  0  0  0  0  0  0  0  0
    0.7419    1.4208    0.0000 C   0  0  0  0  0  0  0  0  0
    1.4564    1.0083    0.0000 C   0  0  0  0  0  0  0  0  0
    1.4564    0.1833    0.0000 C   0  0  0  0  0  0  0  0  0
    0.7419   -0.2292    0.0000 C   0  0  0  0  0  0  0  0  0
    0.0275    0.1833    0.0000 C   0  0  0  0  0  0  0  0  0
   -0.6870   -0.2292    0.0000 O   0  0  0  0  0  0  0  0  0
   -1.4015    0.1833    0.0000 C   0  0  0  0  0  0  0  0  0
    0.0275    1.0083    0.0000 C   0  0  0  0  0  0  0  0  0
   -0.6870    1.4208    0.0000 C   0  0  0  0  0  0  0  0  0
   -1.4015    1.0083    0.0000 N   0  0  0  0  0  0  0  0  0
   -2.1160    1.4208    0.0000 C   0  0  0  0  0  0  0  0  0
   -2.1160    2.2458    0.0000 N   0  0  0  0  0  0  0  0  0
   -1.4015    2.6583    0.0000 C   0  0  0  0  0  0  0  0  0
   -0.6870    2.2458    0.0000 C   0  0  0  0  0  0  0  0  0
   -2.8304    1.0083    0.0000 C   0  0  0  0  0  0  0  0  0
   -2.8304    0.1833    0.0000 C   0  0  0  0  0  0  0  0  0
   -3.5449   -0.2292    0.0000 N   0  0  0  0  0  0  0  0  0
   -3.5449   -1.0542    0.0000 C   0  0  0  0  0  0  0  0  0
   -4.2594    0.1833    0.0000 C   0  0  0  0  0  0  0  0  0
  1  2  1  0  0  0  0
  1  3  1  0  0  0  0
  3  4  4  0  0  0  0
  3 10  4  0  0  0  0
  4  5  4  0  0  0  0
  5  6  4  0  0  0  0
  6  7  4  0  0  0  0
  7  8  1  0  0  0  0
  7 10  4  0  0  0  0
  8  9  1  0  0  0  0
 10 11  1  0  0  0  0
 11 12  4  0  0  0  0
 11 16  4  0  0  0  0
 12 13  4  0  0  0  0
 13 14  4  0  0  0  0
 13 17  1  0  0  0  0
 14 15  4  0  0  0  0
 15 16  4  0  0  0  0
 17 18  1  0  0  0  0
 18 19  1  0  0  0  0
 19 20  1  0  0  0  0
 19 21  1  0  0  0  0
M  END
>  <Name_Molregno>
604018

>  <5-HT7>
5.83

$$$$
604019
  Marvin  02231216192D 0   1.00000     0.00000     0

 27 30  0  0  1  0  0  0  0  0999 V2000
   -3.7888   -1.6874    0.0000 N   0  0  0  0  0  0  0  0  0
   -4.6138   -1.6874    0.0000 C   0  0  0  0  0  0  0  0  0
   -5.0263   -2.4018    0.0000 C   0  0  0  0  0  0  0  0  0
   -5.8513   -2.4018    0.0000 C   0  0  0  0  0  0  0  0  0
   -3.3763   -2.4018    0.0000 C   0  0  0  0  0  0  0  0  0
   -2.5513   -2.4018    0.0000 C   0  0  0  0  0  0  0  0  0
   -2.1388   -3.1163    0.0000 C   0  0  0  0  0  0  0  0  0
   -3.3763   -0.9729    0.0000 C   0  0  0  0  0  0  0  0  0
   -2.5513   -0.9729    0.0000 C   0  0  0  0  0  0  0  0  0
   -2.1388   -0.2584    0.0000 C   0  0  0  0  0  0  0  0  0
   -2.5513    0.4560    0.0000 C   0  0  0  0  0  0  0  0  0
   -3.3763    0.4560    0.0000 C   0  0  0  0  0  0  0  0  0
   -3.7888   -0.2584    0.0000 C   0  0  0  0  0  0  0  0  0
   -3.7888    1.1705    0.0000 C   0  0  0  0  0  0  0  0  0
   -3.3763    1.8850    0.0000 C   0  0  0  0  0  0  0  0  0
   -2.5513    1.8850    0.0000 C   0  0  0  0  0  0  0  0  0
   -2.1388    1.1705    0.0000 C   0  0  0  0  0  0  0  0  0
   -1.3138    1.1705    0.0000 C   0  0  0  0  0  0  0  0  0
   -0.9013    0.4560    0.0000 C   0  0  0  0  0  0  0  0  0
   -0.0763    0.4560    0.0000 C   0  0  0  0  0  0  0  0  0
    0.3362    1.1705    0.0000 C   0  0  0  0  0  0  0  0  0
   -0.0763    1.8850    0.0000 C   0  0  0  0  0  0  0  0  0
   -0.9013    1.8850    0.0000 C   0  0  0  0  0  0  0  0  0
    0.3362   -0.2584    0.0000 C   0  0  0  0  0  0  0  0  0
   -0.0763   -0.9729    0.0000 C   0  0  0  0  0  0  0  0  0
   -0.9013   -0.9729    0.0000 C   0  0  0  0  0  0  0  0  0
   -1.3138   -0.2584    0.0000 C   0  0  0  0  0  0  0  0  0
  1  2  1  0  0  0  0
  1  5  1  0  0  0  0
  1  8  1  0  0  0  0
  2  3  1  0  0  0  0
  3  4  1  0  0  0  0
  5  6  1  0  0  0  0
  6  7  1  0  0  0  0
  8  9  1  0  0  0  0
  8 13  1  0  0  0  0
  9 10  1  0  0  0  0
 10 11  1  0  0  0  0
 11 12  4  0  0  0  0
 11 17  4  0  0  0  0
 12 13  1  0  0  0  0
 12 14  4  0  0  0  0
 14 15  4  0  0  0  0
 15 16  4  0  0  0  0
 16 17  4  0  0  0  0
 17 18  1  0  0  0  0
 18 19  4  0  0  0  0
 18 23  4  0  0  0  0
 19 20  4  0  0  0  0
 19 27  4  0  0  0  0
 20 21  4  0  0  0  0
 20 24  4  0  0  0  0
 21 22  4  0  0  0  0
 22 23  4  0  0  0  0
 24 25  4  0  0  0  0
 25 26  4  0  0  0  0
 26 27  4  0  0  0  0
M  END
>  <Name_Molregno>
604019

>  <5-HT7>
9.52

$$$$
604085
  Marvin  02231216192D 0   1.00000     0.00000     0

 21 23  0  0  1  0  0  0  0  0999 V2000
   -0.4676   -0.5890    0.0000 O   0  0  0  0  0  0  0  0  0
   -1.1820   -1.0015    0.0000 C   0  0  0  0  0  0  0  0  0
   -1.1820   -1.8265    0.0000 C   0  0  0  0  0  0  0  0  0
   -1.8965   -2.2390    0.0000 N   0  0  0  0  0  0  0  0  0
   -1.8965   -3.0640    0.0000 C   0  0  0  0  0  0  0  0  0
   -2.6110   -1.8265    0.0000 C   0  0  0  0  0  0  0  0  0
   -0.4676   -2.2390    0.0000 C   0  0  0  0  0  0  0  0  0
    0.2469   -1.8265    0.0000 C   0  0  0  0  0  0  0  0  0
    0.2469   -1.0015    0.0000 C   0  0  0  0  0  0  0  0  0
    0.9614   -0.5890    0.0000 C   0  0  0  0  0  0  0  0  0
    1.6758   -1.0015    0.0000 C   0  0  0  0  0  0  0  0  0
    1.6758   -1.8265    0.0000 C   0  0  0  0  0  0  0  0  0
    0.9614   -2.2390    0.0000 C   0  0  0  0  0  0  0  0  0
    2.3903   -0.5890    0.0000 C   0  0  0  0  0  0  0  0  0
    2.3903    0.2360    0.0000 C   0  0  0  0  0  0  0  0  0
    3.1048    0.6485    0.0000 C   0  0  0  0  0  0  0  0  0
    3.8193    0.2360    0.0000 C   0  0  0  0  0  0  0  0  0
    3.8193   -0.5890    0.0000 C   0  0  0  0  0  0  0  0  0
    3.1048   -1.0015    0.0000 C   0  0  0  0  0  0  0  0  0
    3.1048   -1.8265    0.0000 C   0  0  0  0  0  0  0  0  0
    1.6758    0.6485    0.0000 C   0  0  0  0  0  0  0  0  0
  1  2  1  0  0  0  0
  1  9  1  0  0  0  0
  2  3  1  0  0  0  0
  3  4  1  0  0  0  0
  3  7  1  0  0  0  0
  4  5  1  0  0  0  0
  4  6  1  0  0  0  0
  7  8  1  0  0  0  0
  8  9  4  0  0  0  0
  8 13  4  0  0  0  0
  9 10  4  0  0  0  0
 10 11  4  0  0  0  0
 11 12  4  0  0  0  0
 11 14  1  0  0  0  0
 12 13  4  0  0  0  0
 14 15  4  0  0  0  0
 14 19  4  0  0  0  0
 15 16  4  0  0  0  0
 15 21  1  0  0  0  0
 16 17  4  0  0  0  0
 17 18  4  0  0  0  0
 18 19  4  0  0  0  0
 19 20  1  0  0  0  0
M  END
>  <Name_Molregno>
604085

>  <5-HT7>
5

$$$$
610059
  Marvin  02231216192D 0   1.00000     0.00000     0

 27 30  0  0  1  0  0  0  0  0999 V2000
   -0.5134   -0.5339    0.0000 Cl  0  0  0  0  0  0  0  0  0
    0.2011   -0.9464    0.0000 C   0  0  0  0  0  0  0  0  0
    0.9155   -0.5339    0.0000 C   0  0  0  0  0  0  0  0  0
    1.6300   -0.9464    0.0000 C   0  0  0  0  0  0  0  0  0
    1.6300   -1.7714    0.0000 C   0  0  0  0  0  0  0  0  0
    0.9155   -2.1839    0.0000 C   0  0  0  0  0  0  0  0  0
    0.2011   -1.7714    0.0000 C   0  0  0  0  0  0  0  0  0
   -0.5134   -2.1839    0.0000 S   0  0  0  0  0  0  0  0  0
   -0.9259   -1.4694    0.0000 O   0  0  0  0  0  0  0  0  0
   -0.1009   -2.8983    0.0000 O   0  0  0  0  0  0  0  0  0
   -1.2279   -2.5964    0.0000 N   0  0  0  0  0  0  0  0  0
   -1.9424   -2.1839    0.0000 C   0  0  0  0  0  0  0  0  0
   -2.6568   -2.5964    0.0000 C   0  0  0  0  0  0  0  0  0
   -3.3713   -2.1839    0.0000 C   0  0  0  0  0  0  0  0  0
   -3.3713   -1.3589    0.0000 C   0  0  0  0  0  0  0  0  0
   -4.1559   -1.1039    0.0000 N   0  0  0  0  0  0  0  0  0
   -4.6408   -1.7714    0.0000 C   0  0  0  0  0  0  0  0  0
   -4.1559   -2.4388    0.0000 C   0  0  0  0  0  0  0  0  0
   -4.4109   -3.2234    0.0000 C   0  0  0  0  0  0  0  0  0
   -5.2178   -3.3950    0.0000 C   0  0  0  0  0  0  0  0  0
   -5.5534   -4.1486    0.0000 N   0  0  0  0  0  0  0  0  0
   -6.3739   -4.0624    0.0000 C   0  0  0  0  0  0  0  0  0
   -6.5454   -3.2554    0.0000 C   0  0  0  0  0  0  0  0  0
   -5.8309   -2.8429    0.0000 C   0  0  0  0  0  0  0  0  0
   -5.1409   -4.8631    0.0000 C   0  0  0  0  0  0  0  0  0
   -2.6568   -0.9464    0.0000 C   0  0  0  0  0  0  0  0  0
   -1.9424   -1.3589    0.0000 C   0  0  0  0  0  0  0  0  0
  1  2  1  0  0  0  0
  2  3  4  0  0  0  0
  2  7  4  0  0  0  0
  3  4  4  0  0  0  0
  4  5  4  0  0  0  0
  5  6  4  0  0  0  0
  6  7  4  0  0  0  0
  7  8  1  0  0  0  0
  8  9  2  0  0  0  0
  8 10  2  0  0  0  0
  8 11  1  0  0  0  0
 11 12  1  0  0  0  0
 12 13  4  0  0  0  0
 12 27  4  0  0  0  0
 13 14  4  0  0  0  0
 14 15  4  0  0  0  0
 14 18  4  0  0  0  0
 15 16  4  0  0  0  0
 15 26  4  0  0  0  0
 16 17  4  0  0  0  0
 17 18  4  0  0  0  0
 18 19  1  0  0  0  0
 19 20  1  0  0  0  0
 20 21  1  0  0  0  0
 20 24  1  0  0  0  0
 21 22  1  0  0  0  0
 21 25  1  0  0  0  0
 22 23  1  0  0  0  0
 23 24  1  0  0  0  0
 26 27  4  0  0  0  0
M  STY  1   1 DAT
M  SAL   1  1  16
M  SDT   1 MRV_IMPLICIT_H                                        
M  SDD   1     0.0000    0.0000    DR    ALL  0       0  
M  SED   1 IMPL_H1
M  END
>  <Name_Molregno>
610059

>  <5-HT1A>
6.77

>  <5-HT1B>
7.82

>  <5-HT1D>
7.53

>  <5-HT2A>
6.44

>  <5-HT2C>
6.54

>  <5-HT6>
8.33

>  <5-HT7>
7.13

>  <DOPAMINE D2>
5.7

>  <DOPAMINE D3>
6

>  <DOPAMINE D4>
5.3

$$$$
610060
  Marvin  02231216192D 0   1.00000     0.00000     0

 27 30  0  0  1  0  0  0  0  0999 V2000
    9.2263   -0.0100    0.0000 Cl  0  0  0  0  0  0  0  0  0
    8.5119    0.4025    0.0000 C   0  0  0  0  0  0  0  0  0
    7.7974   -0.0100    0.0000 C   0  0  0  0  0  0  0  0  0
    7.0829    0.4025    0.0000 C   0  0  0  0  0  0  0  0  0
    6.3685   -0.0100    0.0000 S   0  0  0  0  0  0  0  0  0
    5.9560    0.7045    0.0000 O   0  0  0  0  0  0  0  0  0
    6.7810   -0.7245    0.0000 O   0  0  0  0  0  0  0  0  0
    5.6540   -0.4225    0.0000 N   0  0  0  0  0  0  0  0  0
    4.9395   -0.0100    0.0000 C   0  0  0  0  0  0  0  0  0
    4.2250   -0.4225    0.0000 C   0  0  0  0  0  0  0  0  0
    3.5106   -0.0100    0.0000 C   0  0  0  0  0  0  0  0  0
    3.5106    0.8150    0.0000 C   0  0  0  0  0  0  0  0  0
    2.7260    1.0699    0.0000 N   0  0  0  0  0  0  0  0  0
    2.2410    0.4025    0.0000 C   0  0  0  0  0  0  0  0  0
    2.7260   -0.2649    0.0000 C   0  0  0  0  0  0  0  0  0
    2.4710   -1.0496    0.0000 C   0  0  0  0  0  0  0  0  0
    1.6640   -1.2211    0.0000 C   0  0  0  0  0  0  0  0  0
    1.3285   -1.9748    0.0000 N   0  0  0  0  0  0  0  0  0
    0.5080   -1.8885    0.0000 C   0  0  0  0  0  0  0  0  0
    0.3365   -1.0816    0.0000 C   0  0  0  0  0  0  0  0  0
    1.0509   -0.6691    0.0000 C   0  0  0  0  0  0  0  0  0
    1.7410   -2.6892    0.0000 C   0  0  0  0  0  0  0  0  0
    4.2250    1.2275    0.0000 C   0  0  0  0  0  0  0  0  0
    4.9395    0.8150    0.0000 C   0  0  0  0  0  0  0  0  0
    7.0829    1.2275    0.0000 C   0  0  0  0  0  0  0  0  0
    7.7974    1.6400    0.0000 C   0  0  0  0  0  0  0  0  0
    8.5119    1.2275    0.0000 C   0  0  0  0  0  0  0  0  0
  1  2  1  0  0  0  0
  2  3  4  0  0  0  0
  2 27  4  0  0  0  0
  3  4  4  0  0  0  0
  4  5  1  0  0  0  0
  4 25  4  0  0  0  0
  5  6  2  0  0  0  0
  5  7  2  0  0  0  0
  5  8  1  0  0  0  0
  8  9  1  0  0  0  0
  9 10  4  0  0  0  0
  9 24  4  0  0  0  0
 10 11  4  0  0  0  0
 11 12  4  0  0  0  0
 11 15  4  0  0  0  0
 12 13  4  0  0  0  0
 12 23  4  0  0  0  0
 13 14  4  0  0  0  0
 14 15  4  0  0  0  0
 15 16  1  0  0  0  0
 16 17  1  0  0  0  0
 17 18  1  0  0  0  0
 17 21  1  0  0  0  0
 18 19  1  0  0  0  0
 18 22  1  0  0  0  0
 19 20  1  0  0  0  0
 20 21  1  0  0  0  0
 23 24  4  0  0  0  0
 25 26  4  0  0  0  0
 26 27  4  0  0  0  0
M  STY  1   1 DAT
M  SAL   1  1  13
M  SDT   1 MRV_IMPLICIT_H                                        
M  SDD   1     0.0000    0.0000    DR    ALL  0       0  
M  SED   1 IMPL_H1
M  END
>  <Name_Molregno>
610060

>  <5-HT1A>
6.7

>  <5-HT1B>
8.37

>  <5-HT1D>
8.33

>  <5-HT2A>
6.57

>  <5-HT2C>
6.64

>  <5-HT6>
8.68

>  <5-HT7>
7.62

>  <DOPAMINE D2>
5.7

>  <DOPAMINE D3>
6.03

>  <DOPAMINE D4>
5.3

$$$$
5-Hydroxy-Tryptamine
  Marvin  02231216192D 0   1.00000     0.00000     0

 13 14  0  0  0  0  0  0  0  0999 V2000
    0.1644   -1.0899    0.0000 O   0  0  0  0  0  0  0  0  0
   -0.5501   -0.6774    0.0000 C   0  0  0  0  0  0  0  0  0
   -1.2645   -1.0899    0.0000 C   0  0  0  0  0  0  0  0  0
   -1.9790   -0.6774    0.0000 C   0  0  0  0  0  0  0  0  0
   -1.9790    0.1476    0.0000 C   0  0  0  0  0  0  0  0  0
   -2.7636    0.4026    0.0000 N   0  0  0  0  0  0  0  0  0
   -3.2486   -0.2649    0.0000 C   0  0  0  0  0  0  0  0  0
   -2.7636   -0.9323    0.0000 C   0  0  0  0  0  0  0  0  0
   -3.0186   -1.7169    0.0000 C   0  0  0  0  0  0  0  0  0
   -3.8255   -1.8885    0.0000 C   0  0  0  0  0  0  0  0  0
   -4.0805   -2.6731    0.0000 N   0  0  0  0  0  0  0  0  0
   -1.2645    0.5601    0.0000 C   0  0  0  0  0  0  0  0  0
   -0.5501    0.1476    0.0000 C   0  0  0  0  0  0  0  0  0
  1  2  1  0  0  0  0
  2  3  4  0  0  0  0
  2 13  4  0  0  0  0
  3  4  4  0  0  0  0
  4  5  4  0  0  0  0
  4  8  4  0  0  0  0
  5  6  4  0  0  0  0
  5 12  4  0  0  0  0
  6  7  4  0  0  0  0
  7  8  4  0  0  0  0
  8  9  1  0  0  0  0
  9 10  1  0  0  0  0
 10 11  1  0  0  0  0
 12 13  4  0  0  0  0
M  STY  1   1 DAT
M  SAL   1  1   6
M  SDT   1 MRV_IMPLICIT_H                                        
M  SDD   1     0.0000    0.0000    DR    ALL  0       0  
M  SED   1 IMPL_H1
M  END
>  <Name_Molregno>
5-Hydroxy-Tryptamine

>  <5-HT1A>
8.25

>  <5-HT1B>
8.48

>  <5-HT1D>
8.54

>  <5-HT1E>
8.23

>  <5-HT2A>
7.1

>  <5-HT2C>
7.9

>  <5-HT3>
5.99

>  <5-HT5>
6.9

>  <5-HT6>
7.1

>  <5-HT7>
8.48

>  <DOPAMINE D1>
5.01

>  <DOPAMINE D2>
5

>  <DOPAMINE D5>
5.52

>  <Dopamine transporter>
5

$$$$
9-OH-risperidone
  Marvin  02231216192D 0   1.00000     0.00000     0

 31 35  0  0  1  0  0  0  0  0999 V2000
    1.7758   -2.6889    0.0000 F   0  0  0  0  0  0  0  0  0
    2.0308   -1.9043    0.0000 C   0  0  0  0  0  0  0  0  0
    1.4788   -1.2912    0.0000 C   0  0  0  0  0  0  0  0  0
    1.7337   -0.5066    0.0000 C   0  0  0  0  0  0  0  0  0
    1.3212    0.2079    0.0000 O   0  0  0  0  0  0  0  0  0
    1.8732    0.8210    0.0000 N   0  0  0  0  0  0  0  0  0
    2.6269    0.4854    0.0000 C   0  0  0  0  0  0  0  0  0
    2.5407   -0.3350    0.0000 C   0  0  0  0  0  0  0  0  0
    3.0927   -0.9481    0.0000 C   0  0  0  0  0  0  0  0  0
    2.8378   -1.7327    0.0000 C   0  0  0  0  0  0  0  0  0
    3.3414    0.8979    0.0000 C   0  0  0  0  0  0  0  0  0
    3.3414    1.7229    0.0000 C   0  0  0  0  0  0  0  0  0
    4.0558    2.1354    0.0000 C   0  0  0  0  0  0  0  0  0
    4.7703    1.7229    0.0000 N   0  0  0  0  0  0  0  0  0
    4.7703    0.8979    0.0000 C   0  0  0  0  0  0  0  0  0
    4.0558    0.4854    0.0000 C   0  0  0  0  0  0  0  0  0
    5.4848    2.1354    0.0000 C   0  0  0  0  0  0  0  0  0
    6.1993    1.7229    0.0000 C   0  0  0  0  0  0  0  0  0
    6.9137    2.1354    0.0000 C   0  0  0  0  0  0  0  0  0
    7.6282    1.7229    0.0000 C   0  0  0  0  0  0  0  0  0
    7.6282    0.8979    0.0000 O   0  0  0  0  0  0  0  0  0
    8.3427    2.1354    0.0000 N   0  0  0  0  0  0  0  0  0
    8.3427    2.9604    0.0000 C   0  0  0  0  0  0  0  0  0
    7.6282    3.3729    0.0000 N   0  0  0  0  0  0  0  0  0
    6.9137    2.9604    0.0000 C   0  0  0  0  0  0  0  0  0
    6.1993    3.3729    0.0000 C   0  0  0  0  0  0  0  0  0
    9.0571    3.3729    0.0000 C   0  0  0  0  0  0  0  0  0
    9.0571    4.1979    0.0000 O   0  0  0  0  0  0  0  0  0
    9.7716    2.9604    0.0000 C   0  0  0  0  0  0  0  0  0
    9.7716    2.1354    0.0000 C   0  0  0  0  0  0  0  0  0
    9.0571    1.7229    0.0000 C   0  0  0  0  0  0  0  0  0
  1  2  1  0  0  0  0
  2  3  4  0  0  0  0
  2 10  4  0  0  0  0
  3  4  4  0  0  0  0
  4  5  4  0  0  0  0
  4  8  4  0  0  0  0
  5  6  4  0  0  0  0
  6  7  4  0  0  0  0
  7  8  4  0  0  0  0
  7 11  1  0  0  0  0
  8  9  4  0  0  0  0
  9 10  4  0  0  0  0
 11 12  1  0  0  0  0
 11 16  1  0  0  0  0
 12 13  1  0  0  0  0
 13 14  1  0  0  0  0
 14 15  1  0  0  0  0
 14 17  1  0  0  0  0
 15 16  1  0  0  0  0
 17 18  1  0  0  0  0
 18 19  1  0  0  0  0
 19 20  1  0  0  0  0
 19 25  2  0  0  0  0
 20 21  2  0  0  0  0
 20 22  1  0  0  0  0
 22 23  1  0  0  0  0
 22 31  1  0  0  0  0
 23 24  2  0  0  0  0
 23 27  1  0  0  0  0
 24 25  1  0  0  0  0
 25 26  1  0  0  0  0
 27 28  1  0  0  0  0
 27 29  1  0  0  0  0
 29 30  1  0  0  0  0
 30 31  1  0  0  0  0
M  END
>  <Name_Molregno>
9-OH-risperidone

>  <5-HT1A>
6.24

>  <5-HT1B>
7.51

>  <5-HT1D>
7.44

>  <5-HT1E>
5.49

>  <5-HT2A>
9

>  <5-HT2C>
7.32

>  <5-HT3>
5

>  <5-HT5>
6.56

>  <5-HT6>
5.62

>  <5-HT7>
8.57

>  <Alpha-1A>
8.6

>  <Alpha-1B>
9.15

>  <Alpha-2A>
7.92

>  <Alpha-2B>
7.63

>  <Alpha-2C>
8.2

>  <Beta-1>
5.15

>  <Beta-2>
5.15

>  <DOPAMINE D1>
7.39

>  <DOPAMINE D2>
8.61

>  <DOPAMINE D3>
9.07

>  <DOPAMINE D4>
7.4

>  <DOPAMINE D5>
7.54

>  <Dopamine transporter>
5

>  <HISTAMINE H1>
8.07

>  <HISTAMINE H2>
6.92

>  <HISTAMINE H4>
5.06

>  <Muscarinic acetylcholine receptor M1>
5

>  <Muscarinic acetylcholine receptor M2>
5

>  <Muscarinic acetylcholine receptor M3>
5

>  <Muscarinic acetylcholine receptor M4>
5

>  <Muscarinic acetylcholine receptor M5>
5

>  <Norepinephrine transporter>
5

>  <Serotonin transporter>
5.71

$$$$
Acetylsalicylic-acid
  Marvin  02231216192D 0   1.00000     0.00000     0

 13 13  0  0  0  0  0  0  0  0999 V2000
    0.0203    0.5019    0.0000 O   0  0  0  0  0  0  0  0  0
    0.7347    0.0894    0.0000 C   0  0  0  0  0  0  0  0  0
    1.4492    0.5019    0.0000 O   0  0  0  0  0  0  0  0  0
    0.7347   -0.7356    0.0000 C   0  0  0  0  0  0  0  0  0
   -0.6942    0.0894    0.0000 C   0  0  0  0  0  0  0  0  0
   -0.6942   -0.7356    0.0000 C   0  0  0  0  0  0  0  0  0
   -1.4087   -1.1481    0.0000 C   0  0  0  0  0  0  0  0  0
   -2.1232   -0.7356    0.0000 C   0  0  0  0  0  0  0  0  0
   -2.1232    0.0894    0.0000 C   0  0  0  0  0  0  0  0  0
   -1.4087    0.5019    0.0000 C   0  0  0  0  0  0  0  0  0
   -1.4087    1.3269    0.0000 C   0  0  0  0  0  0  0  0  0
   -2.1232    1.7394    0.0000 O   0  0  0  0  0  0  0  0  0
   -0.6942    1.7394    0.0000 O   0  0  0  0  0  0  0  0  0
  1  2  1  0  0  0  0
  1  5  1  0  0  0  0
  2  3  2  0  0  0  0
  2  4  1  0  0  0  0
  5  6  4  0  0  0  0
  5 10  4  0  0  0  0
  6  7  4  0  0  0  0
  7  8  4  0  0  0  0
  8  9  4  0  0  0  0
  9 10  4  0  0  0  0
 10 11  1  0  0  0  0
 11 12  1  0  0  0  0
 11 13  2  0  0  0  0
M  END
>  <Name_Molregno>
Acetylsalicylic-acid

>  <5-HT1A>
5

>  <5-HT1B>
5

>  <5-HT1D>
5

>  <5-HT2A>
5

>  <5-HT3>
5

>  <5-HT5>
5

>  <5-HT6>
5

>  <5-HT7>
5

>  <Alpha-1A>
5

>  <Alpha-1B>
5

>  <Alpha-2A>
5

>  <Alpha-2B>
5

>  <Alpha-2C>
5

>  <DOPAMINE D1>
5

>  <DOPAMINE D2>
5

>  <DOPAMINE D4>
5

>  <DOPAMINE D5>
5

>  <HISTAMINE H1>
5

>  <HISTAMINE H2>
5

>  <Muscarinic acetylcholine receptor M2>
5

>  <Muscarinic acetylcholine receptor M5>
5

$$$$
Amentoflavone
  Marvin  02231216192D 0   1.00000     0.00000     0

 40 45  0  0  0  0  0  0  0  0999 V2000
   -3.5941   -0.9772    0.0000 O   0  0  0  0  0  0  0  0  0
   -3.5941   -0.1522    0.0000 C   0  0  0  0  0  0  0  0  0
   -4.3085    0.2603    0.0000 C   0  0  0  0  0  0  0  0  0
   -5.0230   -0.1522    0.0000 C   0  0  0  0  0  0  0  0  0
   -5.7375    0.2603    0.0000 O   0  0  0  0  0  0  0  0  0
   -5.0230   -0.9772    0.0000 C   0  0  0  0  0  0  0  0  0
   -4.3085   -1.3897    0.0000 C   0  0  0  0  0  0  0  0  0
   -4.3085   -2.2147    0.0000 C   0  0  0  0  0  0  0  0  0
   -3.5941   -2.6272    0.0000 C   0  0  0  0  0  0  0  0  0
   -3.5941   -3.4522    0.0000 C   0  0  0  0  0  0  0  0  0
   -4.3085   -3.8647    0.0000 C   0  0  0  0  0  0  0  0  0
   -4.3085   -4.6897    0.0000 O   0  0  0  0  0  0  0  0  0
   -5.0230   -3.4522    0.0000 C   0  0  0  0  0  0  0  0  0
   -5.0230   -2.6272    0.0000 C   0  0  0  0  0  0  0  0  0
   -4.3085    1.0853    0.0000 C   0  0  0  0  0  0  0  0  0
   -5.0230    1.4978    0.0000 O   0  0  0  0  0  0  0  0  0
   -3.5941    1.4978    0.0000 C   0  0  0  0  0  0  0  0  0
   -2.8796    1.0853    0.0000 C   0  0  0  0  0  0  0  0  0
   -2.1651    1.4978    0.0000 O   0  0  0  0  0  0  0  0  0
   -2.8796    0.2603    0.0000 C   0  0  0  0  0  0  0  0  0
   -2.1651   -0.1522    0.0000 C   0  0  0  0  0  0  0  0  0
   -1.4507    0.2603    0.0000 C   0  0  0  0  0  0  0  0  0
   -0.7362   -0.1522    0.0000 C   0  0  0  0  0  0  0  0  0
   -0.7362   -0.9772    0.0000 C   0  0  0  0  0  0  0  0  0
   -1.4507   -1.3897    0.0000 C   0  0  0  0  0  0  0  0  0
   -2.1651   -0.9772    0.0000 C   0  0  0  0  0  0  0  0  0
   -2.8796   -1.3897    0.0000 O   0  0  0  0  0  0  0  0  0
   -0.0217    0.2603    0.0000 C   0  0  0  0  0  0  0  0  0
    0.6928   -0.1522    0.0000 O   0  0  0  0  0  0  0  0  0
    1.4072    0.2603    0.0000 C   0  0  0  0  0  0  0  0  0
    1.4072    1.0853    0.0000 C   0  0  0  0  0  0  0  0  0
    0.6928    1.4978    0.0000 C   0  0  0  0  0  0  0  0  0
    0.6928    2.3228    0.0000 O   0  0  0  0  0  0  0  0  0
   -0.0217    1.0853    0.0000 C   0  0  0  0  0  0  0  0  0
    2.1217    1.4978    0.0000 C   0  0  0  0  0  0  0  0  0
    2.1217    2.3228    0.0000 O   0  0  0  0  0  0  0  0  0
    2.8362    1.0853    0.0000 C   0  0  0  0  0  0  0  0  0
    2.8362    0.2603    0.0000 C   0  0  0  0  0  0  0  0  0
    3.5506   -0.1522    0.0000 O   0  0  0  0  0  0  0  0  0
    2.1217   -0.1522    0.0000 C   0  0  0  0  0  0  0  0  0
  1  2  1  0  0  0  0
  1  7  1  0  0  0  0
  2  3  4  0  0  0  0
  2 20  4  0  0  0  0
  3  4  1  0  0  0  0
  3 15  4  0  0  0  0
  4  5  2  0  0  0  0
  4  6  1  0  0  0  0
  6  7  2  0  0  0  0
  7  8  1  0  0  0  0
  8  9  4  0  0  0  0
  8 14  4  0  0  0  0
  9 10  4  0  0  0  0
 10 11  4  0  0  0  0
 11 12  1  0  0  0  0
 11 13  4  0  0  0  0
 13 14  4  0  0  0  0
 15 16  1  0  0  0  0
 15 17  4  0  0  0  0
 17 18  4  0  0  0  0
 18 19  1  0  0  0  0
 18 20  4  0  0  0  0
 20 21  1  0  0  0  0
 21 22  4  0  0  0  0
 21 26  4  0  0  0  0
 22 23  4  0  0  0  0
 23 24  4  0  0  0  0
 23 28  1  0  0  0  0
 24 25  4  0  0  0  0
 25 26  4  0  0  0  0
 26 27  1  0  0  0  0
 28 29  1  0  0  0  0
 28 34  2  0  0  0  0
 29 30  1  0  0  0  0
 30 31  4  0  0  0  0
 30 40  4  0  0  0  0
 31 32  1  0  0  0  0
 31 35  4  0  0  0  0
 32 33  2  0  0  0  0
 32 34  1  0  0  0  0
 35 36  1  0  0  0  0
 35 37  4  0  0  0  0
 37 38  4  0  0  0  0
 38 39  1  0  0  0  0
 38 40  4  0  0  0  0
M  END
>  <Name_Molregno>
Amentoflavone

>  <5-HT1A>
5

>  <5-HT1B>
5.39

>  <5-HT1D>
5

>  <5-HT2C>
5.59

>  <5-HT3>
5

>  <5-HT5>
5

>  <5-HT6>
5

>  <5-HT7>
5

>  <Alpha-1A>
5

>  <Alpha-1B>
5

>  <Alpha-2A>
5

>  <Alpha-2B>
5

>  <Alpha-2C>
5

>  <DOPAMINE D1>
5

>  <DOPAMINE D5>
5

>  <Muscarinic acetylcholine receptor M1>
5

>  <Muscarinic acetylcholine receptor M2>
5

>  <Muscarinic acetylcholine receptor M3>
5

>  <Muscarinic acetylcholine receptor M4>
5

>  <Muscarinic acetylcholine receptor M5>
5

>  <Norepinephrine transporter>
5

>  <Serotonin transporter>
5

$$$$
AMOXAPINE
  Marvin  02231216192D 0   1.00000     0.00000     0

 22 25  0  0  0  0  0  0  0  0999 V2000
    4.1595    1.7861    0.0000 Cl  0  0  0  0  0  0  0  0  0
    3.3712    1.5429    0.0000 C   0  0  0  0  0  0  0  0  0
    2.7664    2.1041    0.0000 C   0  0  0  0  0  0  0  0  0
    1.9781    1.8609    0.0000 C   0  0  0  0  0  0  0  0  0
    1.7945    1.0566    0.0000 C   0  0  0  0  0  0  0  0  0
    1.0512    0.6986    0.0000 O   0  0  0  0  0  0  0  0  0
    0.3079    1.0566    0.0000 C   0  0  0  0  0  0  0  0  0
    0.1243    1.8609    0.0000 C   0  0  0  0  0  0  0  0  0
    0.6387    2.5059    0.0000 N   0  0  0  0  0  0  0  0  0
    1.4637    2.5059    0.0000 C   0  0  0  0  0  0  0  0  0
    1.8217    3.2492    0.0000 N   0  0  0  0  0  0  0  0  0
    1.3569    3.9309    0.0000 C   0  0  0  0  0  0  0  0  0
    1.7149    4.6742    0.0000 C   0  0  0  0  0  0  0  0  0
    2.5376    4.7358    0.0000 N   0  0  0  0  0  0  0  0  0
    3.0023    4.0542    0.0000 C   0  0  0  0  0  0  0  0  0
    2.6444    3.3109    0.0000 C   0  0  0  0  0  0  0  0  0
   -0.6640    2.1041    0.0000 C   0  0  0  0  0  0  0  0  0
   -1.2688    1.5429    0.0000 C   0  0  0  0  0  0  0  0  0
   -1.0852    0.7386    0.0000 C   0  0  0  0  0  0  0  0  0
   -0.2969    0.4954    0.0000 C   0  0  0  0  0  0  0  0  0
    2.3993    0.4954    0.0000 C   0  0  0  0  0  0  0  0  0
    3.1876    0.7386    0.0000 C   0  0  0  0  0  0  0  0  0
  1  2  1  0  0  0  0
  2  3  4  0  0  0  0
  2 22  4  0  0  0  0
  3  4  4  0  0  0  0
  4  5  4  0  0  0  0
  4 10  1  0  0  0  0
  5  6  1  0  0  0  0
  5 21  4  0  0  0  0
  6  7  1  0  0  0  0
  7  8  4  0  0  0  0
  7 20  4  0  0  0  0
  8  9  1  0  0  0  0
  8 17  4  0  0  0  0
  9 10  2  0  0  0  0
 10 11  1  0  0  0  0
 11 12  1  0  0  0  0
 11 16  1  0  0  0  0
 12 13  1  0  0  0  0
 13 14  1  0  0  0  0
 14 15  1  0  0  0  0
 15 16  1  0  0  0  0
 17 18  4  0  0  0  0
 18 19  4  0  0  0  0
 19 20  4  0  0  0  0
 21 22  4  0  0  0  0
M  END
>  <Name_Molregno>
AMOXAPINE

>  <5-HT2A>
9.3

>  <5-HT6>
7.3

>  <5-HT7>
6.3

>  <DOPAMINE D2>
7.89

>  <DOPAMINE D3>
7.74

>  <DOPAMINE D4>
8.05

>  <Dopamine transporter>
5.37

>  <Norepinephrine transporter>
7.8

>  <Serotonin transporter>
7.24

$$$$
ARIPIPRAZOLE
  Marvin  02231216192D 0   1.00000     0.00000     0

 30 33  0  0  0  0  0  0  0  0999 V2000
   -8.7485    0.0493    0.0000 Cl  0  0  0  0  0  0  0  0  0
   -8.7485   -0.7757    0.0000 C   0  0  0  0  0  0  0  0  0
   -8.0340   -1.1882    0.0000 C   0  0  0  0  0  0  0  0  0
   -7.3195   -0.7757    0.0000 N   0  0  0  0  0  0  0  0  0
   -7.3195    0.0493    0.0000 C   0  0  0  0  0  0  0  0  0
   -6.6051    0.4618    0.0000 C   0  0  0  0  0  0  0  0  0
   -5.8906    0.0493    0.0000 N   0  0  0  0  0  0  0  0  0
   -5.8906   -0.7757    0.0000 C   0  0  0  0  0  0  0  0  0
   -6.6051   -1.1882    0.0000 C   0  0  0  0  0  0  0  0  0
   -5.1761    0.4618    0.0000 C   0  0  0  0  0  0  0  0  0
   -4.4616    0.0493    0.0000 C   0  0  0  0  0  0  0  0  0
   -3.7472    0.4618    0.0000 C   0  0  0  0  0  0  0  0  0
   -3.0327    0.0493    0.0000 C   0  0  0  0  0  0  0  0  0
   -2.3182    0.4618    0.0000 O   0  0  0  0  0  0  0  0  0
   -1.6038    0.0493    0.0000 C   0  0  0  0  0  0  0  0  0
   -0.8893    0.4618    0.0000 C   0  0  0  0  0  0  0  0  0
   -0.1748    0.0493    0.0000 C   0  0  0  0  0  0  0  0  0
    0.5397    0.4618    0.0000 N   0  0  0  0  0  0  0  0  0
    1.2541    0.0493    0.0000 C   0  0  0  0  0  0  0  0  0
    1.9686    0.4618    0.0000 O   0  0  0  0  0  0  0  0  0
    1.2541   -0.7757    0.0000 C   0  0  0  0  0  0  0  0  0
    0.5397   -1.1882    0.0000 C   0  0  0  0  0  0  0  0  0
   -0.1748   -0.7757    0.0000 C   0  0  0  0  0  0  0  0  0
   -0.8893   -1.1882    0.0000 C   0  0  0  0  0  0  0  0  0
   -1.6038   -0.7757    0.0000 C   0  0  0  0  0  0  0  0  0
   -8.0340   -2.0132    0.0000 C   0  0  0  0  0  0  0  0  0
   -8.7485   -2.4257    0.0000 C   0  0  0  0  0  0  0  0  0
   -9.4629   -2.0132    0.0000 C   0  0  0  0  0  0  0  0  0
   -9.4629   -1.1882    0.0000 C   0  0  0  0  0  0  0  0  0
  -10.1774   -0.7757    0.0000 Cl  0  0  0  0  0  0  0  0  0
  1  2  1  0  0  0  0
  2  3  4  0  0  0  0
  2 29  4  0  0  0  0
  3  4  1  0  0  0  0
  3 26  4  0  0  0  0
  4  5  1  0  0  0  0
  4  9  1  0  0  0  0
  5  6  1  0  0  0  0
  6  7  1  0  0  0  0
  7  8  1  0  0  0  0
  7 10  1  0  0  0  0
  8  9  1  0  0  0  0
 10 11  1  0  0  0  0
 11 12  1  0  0  0  0
 12 13  1  0  0  0  0
 13 14  1  0  0  0  0
 14 15  1  0  0  0  0
 15 16  4  0  0  0  0
 15 25  4  0  0  0  0
 16 17  4  0  0  0  0
 17 18  1  0  0  0  0
 17 23  4  0  0  0  0
 18 19  1  0  0  0  0
 19 20  2  0  0  0  0
 19 21  1  0  0  0  0
 21 22  1  0  0  0  0
 22 23  1  0  0  0  0
 23 24  4  0  0  0  0
 24 25  4  0  0  0  0
 26 27  4  0  0  0  0
 27 28  4  0  0  0  0
 28 29  4  0  0  0  0
 29 30  1  0  0  0  0
M  END
>  <Name_Molregno>
ARIPIPRAZOLE

>  <5-HT1A>
8.21

>  <5-HT1B>
6.08

>  <5-HT1D>
7.18

>  <5-HT1E>
5.1

>  <5-HT2A>
7.85

>  <5-HT2C>
7.48

>  <5-HT3>
6.25

>  <5-HT5>
5.91

>  <5-HT6>
6.32

>  <5-HT7>
7.81

>  <Alpha-1A>
7.59

>  <Alpha-1B>
7.46

>  <Alpha-2A>
7.13

>  <Alpha-2B>
6.99

>  <Alpha-2C>
7.42

>  <Beta-1>
6.85

>  <Beta-2>
6.79

>  <DOPAMINE D1>
6.06

>  <DOPAMINE D2>
8.72

>  <DOPAMINE D3>
8.45

>  <DOPAMINE D4>
6.51

>  <DOPAMINE D5>
5.69

>  <Dopamine transporter>
5.49

>  <HISTAMINE H1>
7.56

>  <HISTAMINE H2>
5

>  <HISTAMINE H4>
5

>  <Muscarinic acetylcholine receptor M1>
5.17

>  <Muscarinic acetylcholine receptor M2>
5.45

>  <Muscarinic acetylcholine receptor M3>
5.33

>  <Muscarinic acetylcholine receptor M4>
5.82

>  <Muscarinic acetylcholine receptor M5>
5.63

>  <Norepinephrine transporter>
5.68

>  <Serotonin transporter>
6.48

$$$$
Atomoxetine
  Marvin  02231216192D 0   1.00000     0.00000     0

 19 20  0  0  1  0  0  0  0  0999 V2000
   -0.2008    0.4420    0.0000 O   0  0  0  0  0  0  0  0  0
    0.5136    0.8545    0.0000 C   0  0  0  0  0  0  0  0  0
    1.2281    0.4420    0.0000 C   0  0  0  0  0  0  0  0  0
    1.9426    0.8545    0.0000 C   0  0  0  0  0  0  0  0  0
    2.6570    0.4420    0.0000 N   0  0  0  0  0  0  0  0  0
    2.6570   -0.3830    0.0000 C   0  0  0  0  0  0  0  0  0
    0.5136    1.6795    0.0000 C   0  0  0  0  0  0  0  0  0
   -0.2008    2.0920    0.0000 C   0  0  0  0  0  0  0  0  0
   -0.2008    2.9170    0.0000 C   0  0  0  0  0  0  0  0  0
    0.5136    3.3295    0.0000 C   0  0  0  0  0  0  0  0  0
    1.2281    2.9170    0.0000 C   0  0  0  0  0  0  0  0  0
    1.2281    2.0920    0.0000 C   0  0  0  0  0  0  0  0  0
   -0.2008   -0.3830    0.0000 C   0  0  0  0  0  0  0  0  0
    0.5136   -0.7955    0.0000 C   0  0  0  0  0  0  0  0  0
    0.5136   -1.6205    0.0000 C   0  0  0  0  0  0  0  0  0
   -0.2008   -2.0330    0.0000 C   0  0  0  0  0  0  0  0  0
   -0.9153   -1.6205    0.0000 C   0  0  0  0  0  0  0  0  0
   -0.9153   -0.7955    0.0000 C   0  0  0  0  0  0  0  0  0
   -1.6298   -0.3830    0.0000 C   0  0  0  0  0  0  0  0  0
  1  2  1  0  0  0  0
  1 13  1  0  0  0  0
  2  3  1  0  0  0  0
  2  7  1  0  0  0  0
  3  4  1  0  0  0  0
  4  5  1  0  0  0  0
  5  6  1  0  0  0  0
  7  8  4  0  0  0  0
  7 12  4  0  0  0  0
  8  9  4  0  0  0  0
  9 10  4  0  0  0  0
 10 11  4  0  0  0  0
 11 12  4  0  0  0  0
 13 14  4  0  0  0  0
 13 18  4  0  0  0  0
 14 15  4  0  0  0  0
 15 16  4  0  0  0  0
 16 17  4  0  0  0  0
 17 18  4  0  0  0  0
 18 19  1  0  0  0  0
M  END
>  <Name_Molregno>
Atomoxetine

>  <5-HT1A>
5.5

>  <5-HT1B>
6

>  <5-HT1D>
6

>  <5-HT2A>
6

>  <5-HT2C>
6

>  <5-HT6>
6

>  <5-HT7>
6

>  <Alpha-2A>
6

>  <DOPAMINE D2>
5.5

>  <Dopamine transporter>
5.88

>  <HISTAMINE H1>
5.63

>  <Muscarinic acetylcholine receptor M1>
6

>  <Muscarinic acetylcholine receptor M2>
6

>  <Norepinephrine transporter>
8.43

>  <Serotonin transporter>
7.42

$$$$
BW-723C86
  Marvin  02231216192D 0   1.00000     0.00000     0

 20 22  0  0  1  0  0  0  0  0999 V2000
    5.9230   -0.7378    0.0000 S   0  0  0  0  0  0  0  0  0
    6.4751   -1.3509    0.0000 C   0  0  0  0  0  0  0  0  0
    6.0626   -2.0654    0.0000 C   0  0  0  0  0  0  0  0  0
    5.2556   -1.8938    0.0000 C   0  0  0  0  0  0  0  0  0
    5.1694   -1.0734    0.0000 C   0  0  0  0  0  0  0  0  0
    4.4549   -0.6609    0.0000 C   0  0  0  0  0  0  0  0  0
    3.7404   -1.0734    0.0000 O   0  0  0  0  0  0  0  0  0
    3.0259   -0.6609    0.0000 C   0  0  0  0  0  0  0  0  0
    2.3115   -1.0734    0.0000 C   0  0  0  0  0  0  0  0  0
    1.5970   -0.6609    0.0000 C   0  0  0  0  0  0  0  0  0
    1.5970    0.1641    0.0000 C   0  0  0  0  0  0  0  0  0
    0.8124    0.4191    0.0000 N   0  0  0  0  0  0  0  0  0
    0.3275   -0.2484    0.0000 C   0  0  0  0  0  0  0  0  0
    0.8124   -0.9158    0.0000 C   0  0  0  0  0  0  0  0  0
    0.5574   -1.7004    0.0000 C   0  0  0  0  0  0  0  0  0
   -0.2495   -1.8720    0.0000 C   0  0  0  0  0  0  0  0  0
   -0.5045   -2.6566    0.0000 N   0  0  0  0  0  0  0  0  0
   -0.8016   -1.2589    0.0000 C   0  0  0  0  0  0  0  0  0
    2.3115    0.5766    0.0000 C   0  0  0  0  0  0  0  0  0
    3.0259    0.1641    0.0000 C   0  0  0  0  0  0  0  0  0
  1  2  4  0  0  0  0
  1  5  4  0  0  0  0
  2  3  4  0  0  0  0
  3  4  4  0  0  0  0
  4  5  4  0  0  0  0
  5  6  1  0  0  0  0
  6  7  1  0  0  0  0
  7  8  1  0  0  0  0
  8  9  4  0  0  0  0
  8 20  4  0  0  0  0
  9 10  4  0  0  0  0
 10 11  4  0  0  0  0
 10 14  4  0  0  0  0
 11 12  4  0  0  0  0
 11 19  4  0  0  0  0
 12 13  4  0  0  0  0
 13 14  4  0  0  0  0
 14 15  1  0  0  0  0
 15 16  1  0  0  0  0
 16 17  1  0  0  0  0
 16 18  1  0  0  0  0
 19 20  4  0  0  0  0
M  STY  1   1 DAT
M  SAL   1  1  12
M  SDT   1 MRV_IMPLICIT_H                                        
M  SDD   1     0.0000    0.0000    DR    ALL  0       0  
M  SED   1 IMPL_H1
M  END
>  <Name_Molregno>
BW-723C86

>  <5-HT1B>
6.9

>  <5-HT1D>
6.33

>  <5-HT1E>
5.5

>  <5-HT2A>
6.99

>  <5-HT2C>
6.64

>  <5-HT6>
6.4

>  <5-HT7>
5.5

>  <DOPAMINE D4>
5

$$$$
Cathinone
  Marvin  02231216192D 0   1.00000     0.00000     0

 11 11  0  0  1  0  0  0  0  0999 V2000
    1.9974    0.2298    0.0000 O   0  0  0  0  0  0  0  0  0
    1.2829   -0.1827    0.0000 C   0  0  0  0  0  0  0  0  0
    0.5684    0.2298    0.0000 C   0  0  0  0  0  0  0  0  0
    0.5684    1.0548    0.0000 N   0  0  0  0  0  0  0  0  0
   -0.1461   -0.1827    0.0000 C   0  0  0  0  0  0  0  0  0
    1.2829   -1.0077    0.0000 C   0  0  0  0  0  0  0  0  0
    1.9974   -1.4202    0.0000 C   0  0  0  0  0  0  0  0  0
    1.9974   -2.2452    0.0000 C   0  0  0  0  0  0  0  0  0
    1.2829   -2.6577    0.0000 C   0  0  0  0  0  0  0  0  0
    0.5684   -2.2452    0.0000 C   0  0  0  0  0  0  0  0  0
    0.5684   -1.4202    0.0000 C   0  0  0  0  0  0  0  0  0
  1  2  2  0  0  0  0
  2  3  1  0  0  0  0
  2  6  1  0  0  0  0
  3  4  1  0  0  0  0
  3  5  1  0  0  0  0
  6  7  4  0  0  0  0
  6 11  4  0  0  0  0
  7  8  4  0  0  0  0
  8  9  4  0  0  0  0
  9 10  4  0  0  0  0
 10 11  4  0  0  0  0
M  END
>  <Name_Molregno>
Cathinone

>  <5-HT1A>
5

>  <5-HT1B>
5

>  <5-HT1D>
5

>  <5-HT1E>
5

>  <5-HT3>
5

>  <5-HT5>
5

>  <5-HT6>
5

>  <5-HT7>
5.57

>  <Alpha-1A>
5

>  <Alpha-1B>
5

>  <Alpha-2A>
5.17

>  <Alpha-2B>
6.04

>  <Alpha-2C>
6.12

>  <Beta-1>
5

>  <Beta-2>
5

>  <DOPAMINE D1>
5

>  <DOPAMINE D2>
5

>  <DOPAMINE D4>
5

>  <DOPAMINE D5>
5

>  <Dopamine transporter>
6.37

>  <HISTAMINE H1>
5

>  <HISTAMINE H2>
5

>  <HISTAMINE H4>
5

>  <Muscarinic acetylcholine receptor M1>
5

>  <Muscarinic acetylcholine receptor M2>
5

>  <Muscarinic acetylcholine receptor M3>
5

>  <Muscarinic acetylcholine receptor M4>
5

>  <Muscarinic acetylcholine receptor M5>
5

>  <Norepinephrine transporter>
6.76

>  <Serotonin transporter>
5.32

$$$$
CELECOXIB
  Marvin  02231216192D 0   1.00000     0.00000     0

 26 28  0  0  0  0  0  0  0  0999 V2000
   -2.2304    2.3034    0.0000 S   0  0  0  0  0  0  0  0  0
   -2.2304    3.1284    0.0000 O   0  0  0  0  0  0  0  0  0
   -3.0554    2.3034    0.0000 O   0  0  0  0  0  0  0  0  0
   -1.4054    2.3034    0.0000 N   0  0  0  0  0  0  0  0  0
   -2.2304    1.4784    0.0000 C   0  0  0  0  0  0  0  0  0
   -1.5159    1.0659    0.0000 C   0  0  0  0  0  0  0  0  0
   -1.5159    0.2409    0.0000 C   0  0  0  0  0  0  0  0  0
   -2.2304   -0.1716    0.0000 C   0  0  0  0  0  0  0  0  0
   -2.2304   -0.9966    0.0000 N   0  0  0  0  0  0  0  0  0
   -1.5629   -1.4815    0.0000 N   0  0  0  0  0  0  0  0  0
   -1.8179   -2.2662    0.0000 C   0  0  0  0  0  0  0  0  0
   -2.6429   -2.2662    0.0000 C   0  0  0  0  0  0  0  0  0
   -2.8978   -1.4815    0.0000 C   0  0  0  0  0  0  0  0  0
   -3.6824   -1.2266    0.0000 C   0  0  0  0  0  0  0  0  0
   -4.2955   -1.7786    0.0000 C   0  0  0  0  0  0  0  0  0
   -5.0802   -1.5237    0.0000 C   0  0  0  0  0  0  0  0  0
   -5.2517   -0.7167    0.0000 C   0  0  0  0  0  0  0  0  0
   -4.6386   -0.1647    0.0000 C   0  0  0  0  0  0  0  0  0
   -3.8540   -0.4196    0.0000 C   0  0  0  0  0  0  0  0  0
   -6.0363   -0.4618    0.0000 C   0  0  0  0  0  0  0  0  0
   -1.3330   -2.9336    0.0000 C   0  0  0  0  0  0  0  0  0
   -0.8480   -3.6010    0.0000 F   0  0  0  0  0  0  0  0  0
   -2.0004   -3.4185    0.0000 F   0  0  0  0  0  0  0  0  0
   -0.6655   -2.4487    0.0000 F   0  0  0  0  0  0  0  0  0
   -2.9448    0.2409    0.0000 C   0  0  0  0  0  0  0  0  0
   -2.9448    1.0659    0.0000 C   0  0  0  0  0  0  0  0  0
  1  2  2  0  0  0  0
  1  3  2  0  0  0  0
  1  4  1  0  0  0  0
  1  5  1  0  0  0  0
  5  6  4  0  0  0  0
  5 26  4  0  0  0  0
  6  7  4  0  0  0  0
  7  8  4  0  0  0  0
  8  9  1  0  0  0  0
  8 25  4  0  0  0  0
  9 10  4  0  0  0  0
  9 13  4  0  0  0  0
 10 11  4  0  0  0  0
 11 12  4  0  0  0  0
 11 21  1  0  0  0  0
 12 13  4  0  0  0  0
 13 14  1  0  0  0  0
 14 15  4  0  0  0  0
 14 19  4  0  0  0  0
 15 16  4  0  0  0  0
 16 17  4  0  0  0  0
 17 18  4  0  0  0  0
 17 20  1  0  0  0  0
 18 19  4  0  0  0  0
 21 22  1  0  0  0  0
 21 23  1  0  0  0  0
 21 24  1  0  0  0  0
 25 26  4  0  0  0  0
M  END
>  <Name_Molregno>
CELECOXIB

>  <5-HT1A>
5

>  <5-HT1B>
5

>  <5-HT1D>
5

>  <5-HT1E>
5

>  <5-HT2A>
5

>  <5-HT3>
5

>  <5-HT6>
5

>  <5-HT7>
5

>  <Alpha-1A>
5

>  <Alpha-1B>
5

>  <Alpha-2A>
5

>  <Alpha-2B>
5

>  <Alpha-2C>
5

>  <DOPAMINE D1>
5

>  <DOPAMINE D2>
5

>  <DOPAMINE D4>
5

>  <DOPAMINE D5>
5

>  <Dopamine transporter>
6.18

>  <HISTAMINE H1>
5

>  <HISTAMINE H2>
5

>  <Muscarinic acetylcholine receptor M2>
5

>  <Muscarinic acetylcholine receptor M5>
5

>  <Norepinephrine transporter>
5

>  <Serotonin transporter>
5

$$$$
CHLOROPHENYLPIPERAZINE
  Marvin  02231216192D 0   1.00000     0.00000     0

 13 14  0  0  0  0  0  0  0  0999 V2000
    1.2605    1.9269    0.0000 Cl  0  0  0  0  0  0  0  0  0
    1.2605    1.1019    0.0000 C   0  0  0  0  0  0  0  0  0
    1.9750    0.6894    0.0000 C   0  0  0  0  0  0  0  0  0
    1.9750   -0.1356    0.0000 C   0  0  0  0  0  0  0  0  0
    2.6894   -0.5481    0.0000 N   0  0  0  0  0  0  0  0  0
    3.4039   -0.1356    0.0000 C   0  0  0  0  0  0  0  0  0
    4.1184   -0.5481    0.0000 C   0  0  0  0  0  0  0  0  0
    4.1184   -1.3731    0.0000 N   0  0  0  0  0  0  0  0  0
    3.4039   -1.7856    0.0000 C   0  0  0  0  0  0  0  0  0
    2.6894   -1.3731    0.0000 C   0  0  0  0  0  0  0  0  0
    1.2605   -0.5481    0.0000 C   0  0  0  0  0  0  0  0  0
    0.5460   -0.1356    0.0000 C   0  0  0  0  0  0  0  0  0
    0.5460    0.6894    0.0000 C   0  0  0  0  0  0  0  0  0
  1  2  1  0  0  0  0
  2  3  4  0  0  0  0
  2 13  4  0  0  0  0
  3  4  4  0  0  0  0
  4  5  1  0  0  0  0
  4 11  4  0  0  0  0
  5  6  1  0  0  0  0
  5 10  1  0  0  0  0
  6  7  1  0  0  0  0
  7  8  1  0  0  0  0
  8  9  1  0  0  0  0
  9 10  1  0  0  0  0
 11 12  4  0  0  0  0
 12 13  4  0  0  0  0
M  END
>  <Name_Molregno>
CHLOROPHENYLPIPERAZINE

>  <5-HT1A>
6.88

>  <5-HT1B>
6.72

>  <5-HT1D>
6.23

>  <5-HT2A>
7.01

>  <5-HT2C>
7.55

>  <5-HT3>
6.37

>  <5-HT5>
5.87

>  <5-HT6>
5.7

>  <5-HT7>
6.79

>  <Alpha-1A>
5.86

>  <Alpha-1B>
6.04

>  <Alpha-2A>
6.84

>  <Alpha-2B>
6.98

>  <Alpha-2C>
6.91

>  <Beta-1>
5.63

>  <Beta-2>
5.46

>  <DOPAMINE D1>
5.15

>  <DOPAMINE D2>
5

>  <DOPAMINE D5>
5

>  <HISTAMINE H1>
6.49

>  <Norepinephrine transporter>
5.36

>  <Serotonin transporter>
6.13

$$$$
CHLORPROMAZINE
  Marvin  02231216192D 0   1.00000     0.00000     0

 21 23  0  0  0  0  0  0  0  0999 V2000
   -1.3730   -3.5598    0.0000 Cl  0  0  0  0  0  0  0  0  0
   -2.0875   -3.1473    0.0000 C   0  0  0  0  0  0  0  0  0
   -2.0875   -2.3223    0.0000 C   0  0  0  0  0  0  0  0  0
   -2.8019   -1.9098    0.0000 C   0  0  0  0  0  0  0  0  0
   -2.8019   -1.0848    0.0000 N   0  0  0  0  0  0  0  0  0
   -3.5164   -0.6723    0.0000 C   0  0  0  0  0  0  0  0  0
   -4.2309   -1.0848    0.0000 C   0  0  0  0  0  0  0  0  0
   -4.2309   -1.9098    0.0000 S   0  0  0  0  0  0  0  0  0
   -3.5164   -2.3223    0.0000 C   0  0  0  0  0  0  0  0  0
   -3.5164   -3.1473    0.0000 C   0  0  0  0  0  0  0  0  0
   -2.8019   -3.5598    0.0000 C   0  0  0  0  0  0  0  0  0
   -4.9453   -0.6723    0.0000 C   0  0  0  0  0  0  0  0  0
   -4.9453    0.1527    0.0000 C   0  0  0  0  0  0  0  0  0
   -4.2309    0.5652    0.0000 C   0  0  0  0  0  0  0  0  0
   -3.5164    0.1527    0.0000 C   0  0  0  0  0  0  0  0  0
   -2.0875   -0.6723    0.0000 C   0  0  0  0  0  0  0  0  0
   -1.3730   -1.0848    0.0000 C   0  0  0  0  0  0  0  0  0
   -0.6585   -0.6723    0.0000 C   0  0  0  0  0  0  0  0  0
    0.0560   -1.0848    0.0000 N   0  0  0  0  0  0  0  0  0
    0.7704   -0.6723    0.0000 C   0  0  0  0  0  0  0  0  0
    0.0560   -1.9098    0.0000 C   0  0  0  0  0  0  0  0  0
  1  2  1  0  0  0  0
  2  3  4  0  0  0  0
  2 11  4  0  0  0  0
  3  4  4  0  0  0  0
  4  5  1  0  0  0  0
  4  9  4  0  0  0  0
  5  6  1  0  0  0  0
  5 16  1  0  0  0  0
  6  7  4  0  0  0  0
  6 15  4  0  0  0  0
  7  8  1  0  0  0  0
  7 12  4  0  0  0  0
  8  9  1  0  0  0  0
  9 10  4  0  0  0  0
 10 11  4  0  0  0  0
 12 13  4  0  0  0  0
 13 14  4  0  0  0  0
 14 15  4  0  0  0  0
 16 17  1  0  0  0  0
 17 18  1  0  0  0  0
 18 19  1  0  0  0  0
 19 20  1  0  0  0  0
 19 21  1  0  0  0  0
M  END
>  <Name_Molregno>
CHLORPROMAZINE

>  <5-HT1A>
5.98

>  <5-HT1B>
5.83

>  <5-HT1D>
6.34

>  <5-HT1E>
6.46

>  <5-HT2A>
8.36

>  <5-HT2C>
7.74

>  <5-HT3>
6.01

>  <5-HT5>
6.93

>  <5-HT6>
7.59

>  <5-HT7>
7.54

>  <Alpha-1A>
9.55

>  <Alpha-1B>
9.09

>  <Alpha-2A>
6.71

>  <Alpha-2B>
7.81

>  <Alpha-2C>
7.36

>  <Beta-1>
5

>  <Beta-2>
5

>  <DOPAMINE D1>
7.1

>  <DOPAMINE D2>
8.51

>  <DOPAMINE D3>
8.58

>  <DOPAMINE D4>
8.03

>  <DOPAMINE D5>
6.82

>  <Dopamine transporter>
5

>  <HISTAMINE H1>
8.47

>  <HISTAMINE H2>
6.76

>  <HISTAMINE H3>
6

>  <HISTAMINE H4>
6.3

>  <Muscarinic acetylcholine receptor M1>
7.36

>  <Muscarinic acetylcholine receptor M2>
6.67

>  <Muscarinic acetylcholine receptor M3>
7.25

>  <Muscarinic acetylcholine receptor M4>
7.11

>  <Muscarinic acetylcholine receptor M5>
7.5

>  <Norepinephrine transporter>
5.61

>  <Serotonin transporter>
6.54

$$$$
cis-Thiothixene
  Marvin  02231216192D 0   1.00000     0.00000     0

 30 33  0  0  0  0  0  0  0  0999 V2000
    1.0940   -3.6931    0.0000 S   0  0  0  0  0  0  0  0  0
    1.8085   -3.2806    0.0000 C   0  0  0  0  0  0  0  0  0
    1.8085   -2.4556    0.0000 C   0  0  0  0  0  0  0  0  0
    2.5230   -2.0431    0.0000 C   0  0  0  0  0  0  0  0  0
    3.2375   -2.4556    0.0000 C   0  0  0  0  0  0  0  0  0
    3.9519   -2.0431    0.0000 S   0  0  0  0  0  0  0  0  0
    3.5394   -1.3286    0.0000 O   0  0  0  0  0  0  0  0  0
    4.3644   -2.7575    0.0000 O   0  0  0  0  0  0  0  0  0
    4.6664   -1.6306    0.0000 N   0  0  0  0  0  0  0  0  0
    5.3809   -2.0431    0.0000 C   0  0  0  0  0  0  0  0  0
    4.6664   -0.8056    0.0000 C   0  0  0  0  0  0  0  0  0
    3.2375   -3.2806    0.0000 C   0  0  0  0  0  0  0  0  0
    2.5230   -3.6931    0.0000 C   0  0  0  0  0  0  0  0  0
    1.0940   -2.0431    0.0000 C   0  0  0  0  0  0  0  0  0
    0.3796   -2.4556    0.0000 C   0  0  0  0  0  0  0  0  0
    0.3796   -3.2806    0.0000 C   0  0  0  0  0  0  0  0  0
   -0.3349   -3.6931    0.0000 C   0  0  0  0  0  0  0  0  0
   -1.0494   -3.2806    0.0000 C   0  0  0  0  0  0  0  0  0
   -1.0494   -2.4556    0.0000 C   0  0  0  0  0  0  0  0  0
   -0.3349   -2.0431    0.0000 C   0  0  0  0  0  0  0  0  0
    1.0940   -1.2181    0.0000 C   0  0  0  0  0  0  0  0  0
    0.3796   -0.8056    0.0000 C   0  0  0  0  0  0  0  0  0
   -0.3349   -1.2181    0.0000 C   0  0  0  0  0  0  0  0  0
   -1.0494   -0.8056    0.0000 N   0  0  0  0  0  0  0  0  0
   -1.7638   -1.2181    0.0000 C   0  0  0  0  0  0  0  0  0
   -2.4783   -0.8056    0.0000 C   0  0  0  0  0  0  0  0  0
   -2.4783    0.0194    0.0000 N   0  0  0  0  0  0  0  0  0
   -1.7638    0.4319    0.0000 C   0  0  0  0  0  0  0  0  0
   -1.0494    0.0194    0.0000 C   0  0  0  0  0  0  0  0  0
   -3.1928    0.4319    0.0000 C   0  0  0  0  0  0  0  0  0
  1  2  1  0  0  0  0
  1 16  1  0  0  0  0
  2  3  4  0  0  0  0
  2 13  4  0  0  0  0
  3  4  4  0  0  0  0
  3 14  1  0  0  0  0
  4  5  4  0  0  0  0
  5  6  1  0  0  0  0
  5 12  4  0  0  0  0
  6  7  2  0  0  0  0
  6  8  2  0  0  0  0
  6  9  1  0  0  0  0
  9 10  1  0  0  0  0
  9 11  1  0  0  0  0
 12 13  4  0  0  0  0
 14 15  1  0  0  0  0
 14 21  2  0  0  0  0
 15 16  4  0  0  0  0
 15 20  4  0  0  0  0
 16 17  4  0  0  0  0
 17 18  4  0  0  0  0
 18 19  4  0  0  0  0
 19 20  4  0  0  0  0
 21 22  1  0  0  0  0
 22 23  1  0  0  0  0
 23 24  1  0  0  0  0
 24 25  1  0  0  0  0
 24 29  1  0  0  0  0
 25 26  1  0  0  0  0
 26 27  1  0  0  0  0
 27 28  1  0  0  0  0
 27 30  1  0  0  0  0
 28 29  1  0  0  0  0
M  END
>  <Name_Molregno>
cis-Thiothixene

>  <5-HT1A>
6.39

>  <5-HT1B>
6.82

>  <5-HT1D>
6.18

>  <5-HT1E>
5

>  <5-HT2A>
7.42

>  <5-HT2C>
5.87

>  <5-HT3>
5.73

>  <5-HT5>
6.44

>  <5-HT6>
6.62

>  <5-HT7>
7.82

>  <Alpha-1A>
7.94

>  <Alpha-1B>
7.46

>  <Alpha-2A>
7.1

>  <Alpha-2B>
7.3

>  <Alpha-2C>
7.28

>  <Beta-1>
5

>  <Beta-2>
5

>  <DOPAMINE D1>
7.29

>  <DOPAMINE D2>
9.56

>  <DOPAMINE D3>
9.41

>  <DOPAMINE D4>
6.86

>  <DOPAMINE D5>
6.58

>  <Dopamine transporter>
5

>  <HISTAMINE H1>
8.23

>  <HISTAMINE H2>
6.39

>  <HISTAMINE H4>
5

>  <Muscarinic acetylcholine receptor M1>
5.3

>  <Muscarinic acetylcholine receptor M2>
5.34

>  <Muscarinic acetylcholine receptor M3>
5.27

>  <Muscarinic acetylcholine receptor M4>
5.4

>  <Muscarinic acetylcholine receptor M5>
5.32

>  <Norepinephrine transporter>
5

>  <Serotonin transporter>
5.41

$$$$
CLOZAPINE
  Marvin  02231216192D 0   1.00000     0.00000     0

 23 26  0  0  0  0  0  0  0  0999 V2000
   -0.5622   -2.2603    0.0000 Cl  0  0  0  0  0  0  0  0  0
    0.2262   -2.5035    0.0000 C   0  0  0  0  0  0  0  0  0
    0.8309   -1.9424    0.0000 C   0  0  0  0  0  0  0  0  0
    1.6193   -2.1855    0.0000 C   0  0  0  0  0  0  0  0  0
    2.1337   -1.5405    0.0000 N   0  0  0  0  0  0  0  0  0
    2.9587   -1.5405    0.0000 C   0  0  0  0  0  0  0  0  0
    3.3166   -0.7972    0.0000 N   0  0  0  0  0  0  0  0  0
    2.8519   -0.1156    0.0000 C   0  0  0  0  0  0  0  0  0
    3.2098    0.6277    0.0000 C   0  0  0  0  0  0  0  0  0
    4.0325    0.6894    0.0000 N   0  0  0  0  0  0  0  0  0
    4.4973    0.0077    0.0000 C   0  0  0  0  0  0  0  0  0
    4.1393   -0.7356    0.0000 C   0  0  0  0  0  0  0  0  0
    4.3905    1.4327    0.0000 C   0  0  0  0  0  0  0  0  0
    3.4730   -2.1855    0.0000 C   0  0  0  0  0  0  0  0  0
    3.2895   -2.9898    0.0000 C   0  0  0  0  0  0  0  0  0
    2.5462   -3.3478    0.0000 N   0  0  0  0  0  0  0  0  0
    1.8029   -2.9898    0.0000 C   0  0  0  0  0  0  0  0  0
    1.1981   -3.5510    0.0000 C   0  0  0  0  0  0  0  0  0
    0.4098   -3.3078    0.0000 C   0  0  0  0  0  0  0  0  0
    3.8942   -3.5510    0.0000 C   0  0  0  0  0  0  0  0  0
    4.6826   -3.3078    0.0000 C   0  0  0  0  0  0  0  0  0
    4.8662   -2.5035    0.0000 C   0  0  0  0  0  0  0  0  0
    4.2614   -1.9424    0.0000 C   0  0  0  0  0  0  0  0  0
  1  2  1  0  0  0  0
  2  3  4  0  0  0  0
  2 19  4  0  0  0  0
  3  4  4  0  0  0  0
  4  5  1  0  0  0  0
  4 17  4  0  0  0  0
  5  6  1  0  0  0  0
  6  7  1  0  0  0  0
  6 14  2  0  0  0  0
  7  8  1  0  0  0  0
  7 12  1  0  0  0  0
  8  9  1  0  0  0  0
  9 10  1  0  0  0  0
 10 11  1  0  0  0  0
 10 13  1  0  0  0  0
 11 12  1  0  0  0  0
 14 15  1  0  0  0  0
 14 23  1  0  0  0  0
 15 16  2  0  0  0  0
 15 20  1  0  0  0  0
 16 17  1  0  0  0  0
 17 18  4  0  0  0  0
 18 19  4  0  0  0  0
 20 21  2  0  0  0  0
 21 22  1  0  0  0  0
 22 23  2  0  0  0  0
M  END
>  <Name_Molregno>
CLOZAPINE

>  <5-HT1A>
6.88

>  <5-HT1B>
6.33

>  <5-HT1D>
6.27

>  <5-HT1E>
6.19

>  <5-HT2A>
8.22

>  <5-HT2C>
8

>  <5-HT3>
6.62

>  <5-HT5>
5.41

>  <5-HT6>
7.9

>  <5-HT7>
8.05

>  <Alpha-1A>
8.8

>  <Alpha-1B>
8.15

>  <Alpha-2A>
7.15

>  <Alpha-2B>
7.61

>  <Alpha-2C>
7.88

>  <Beta-1>
5.15

>  <Beta-2>
5.39

>  <DOPAMINE D1>
6.69

>  <DOPAMINE D2>
6.9

>  <DOPAMINE D3>
6.62

>  <DOPAMINE D4>
7.62

>  <DOPAMINE D5>
6.62

>  <Dopamine transporter>
5

>  <HISTAMINE H1>
8.81

>  <HISTAMINE H2>
6.82

>  <HISTAMINE H3>
5.25

>  <HISTAMINE H4>
6.15

>  <Muscarinic acetylcholine receptor M1>
8.26

>  <Muscarinic acetylcholine receptor M2>
7.17

>  <Muscarinic acetylcholine receptor M3>
7.59

>  <Muscarinic acetylcholine receptor M4>
7.85

>  <Muscarinic acetylcholine receptor M5>
7.79

>  <Norepinephrine transporter>
5.5

>  <Serotonin transporter>
5.73

$$$$
CLOZAPINE-2
  Marvin  02231216192D 0   1.00000     0.00000     0

 23 26  0  0  0  0  0  0  0  0999 V2000
   -0.5622   -2.2603    0.0000 Cl  0  0  0  0  0  0  0  0  0
    0.2262   -2.5035    0.0000 C   0  0  0  0  0  0  0  0  0
    0.8309   -1.9424    0.0000 C   0  0  0  0  0  0  0  0  0
    1.6193   -2.1855    0.0000 C   0  0  0  0  0  0  0  0  0
    2.1337   -1.5405    0.0000 N   0  0  0  0  0  0  0  0  0
    2.9587   -1.5405    0.0000 C   0  0  0  0  0  0  0  0  0
    3.3166   -0.7972    0.0000 N   0  0  0  0  0  0  0  0  0
    2.8519   -0.1156    0.0000 C   0  0  0  0  0  0  0  0  0
    3.2098    0.6277    0.0000 C   0  0  0  0  0  0  0  0  0
    4.0325    0.6894    0.0000 N   0  0  0  0  0  0  0  0  0
    4.4973    0.0077    0.0000 C   0  0  0  0  0  0  0  0  0
    4.1393   -0.7356    0.0000 C   0  0  0  0  0  0  0  0  0
    4.3905    1.4327    0.0000 C   0  0  0  0  0  0  0  0  0
    3.4730   -2.1855    0.0000 C   0  0  0  0  0  0  0  0  0
    3.2895   -2.9898    0.0000 C   0  0  0  0  0  0  0  0  0
    2.5462   -3.3478    0.0000 N   0  0  0  0  0  0  0  0  0
    1.8029   -2.9898    0.0000 C   0  0  0  0  0  0  0  0  0
    1.1981   -3.5510    0.0000 C   0  0  0  0  0  0  0  0  0
    0.4098   -3.3078    0.0000 C   0  0  0  0  0  0  0  0  0
    3.8942   -3.5510    0.0000 C   0  0  0  0  0  0  0  0  0
    4.6826   -3.3078    0.0000 C   0  0  0  0  0  0  0  0  0
    4.8662   -2.5035    0.0000 C   0  0  0  0  0  0  0  0  0
    4.2614   -1.9424    0.0000 C   0  0  0  0  0  0  0  0  0
  1  2  1  0  0  0  0
  2  3  4  0  0  0  0
  2 19  4  0  0  0  0
  3  4  4  0  0  0  0
  4  5  1  0  0  0  0
  4 17  4  0  0  0  0
  5  6  2  0  0  0  0
  6  7  1  0  0  0  0
  6 14  1  0  0  0  0
  7  8  1  0  0  0  0
  7 12  1  0  0  0  0
  8  9  1  0  0  0  0
  9 10  1  0  0  0  0
 10 11  1  0  0  0  0
 10 13  1  0  0  0  0
 11 12  1  0  0  0  0
 14 15  4  0  0  0  0
 14 23  4  0  0  0  0
 15 16  1  0  0  0  0
 15 20  4  0  0  0  0
 16 17  1  0  0  0  0
 17 18  4  0  0  0  0
 18 19  4  0  0  0  0
 20 21  4  0  0  0  0
 21 22  4  0  0  0  0
 22 23  4  0  0  0  0
M  END
>  <Name_Molregno>
CLOZAPINE-2

>  <5-HT1A>
6.92

>  <5-HT2A>
8.15

>  <5-HT2C>
7.92

>  <5-HT3>
6.4

>  <5-HT5>
6

>  <5-HT6>
7.85

>  <5-HT7>
7.47

>  <Alpha-2A>
7.62

>  <Alpha-2C>
8.54

>  <DOPAMINE D1>
7

>  <DOPAMINE D2>
7.03

>  <DOPAMINE D3>
6.48

>  <DOPAMINE D4>
7.6

>  <DOPAMINE D5>
6.7

>  <HISTAMINE H1>
8.77

>  <HISTAMINE H3>
6.1

>  <HISTAMINE H4>
6.75

>  <Muscarinic acetylcholine receptor M1>
8.47

>  <Muscarinic acetylcholine receptor M4>
7.9

>  <Serotonin transporter>
5.41

$$$$
Cyamemazine
  Marvin  02231216192D 0   1.00000     0.00000     0

 23 25  0  0  1  0  0  0  0  0999 V2000
   -0.6214   -0.6088    0.0000 S   0  0  0  0  0  0  0  0  0
   -0.6214   -1.4338    0.0000 C   0  0  0  0  0  0  0  0  0
    0.0931   -1.8463    0.0000 C   0  0  0  0  0  0  0  0  0
    0.8076   -1.4338    0.0000 N   0  0  0  0  0  0  0  0  0
    0.8076   -0.6088    0.0000 C   0  0  0  0  0  0  0  0  0
    0.0931   -0.1963    0.0000 C   0  0  0  0  0  0  0  0  0
    0.0931    0.6287    0.0000 C   0  0  0  0  0  0  0  0  0
    0.8076    1.0412    0.0000 C   0  0  0  0  0  0  0  0  0
    1.5220    0.6287    0.0000 C   0  0  0  0  0  0  0  0  0
    1.5220   -0.1963    0.0000 C   0  0  0  0  0  0  0  0  0
    1.5220   -1.8463    0.0000 C   0  0  0  0  0  0  0  0  0
    2.2365   -1.4338    0.0000 C   0  0  0  0  0  0  0  0  0
    2.9510   -1.8463    0.0000 C   0  0  0  0  0  0  0  0  0
    3.6655   -1.4338    0.0000 N   0  0  0  0  0  0  0  0  0
    4.3799   -1.8463    0.0000 C   0  0  0  0  0  0  0  0  0
    3.6655   -0.6088    0.0000 C   0  0  0  0  0  0  0  0  0
    2.2365   -0.6088    0.0000 C   0  0  0  0  0  0  0  0  0
    0.0931   -2.6713    0.0000 C   0  0  0  0  0  0  0  0  0
   -0.6214   -3.0838    0.0000 C   0  0  0  0  0  0  0  0  0
   -1.3358   -2.6713    0.0000 C   0  0  0  0  0  0  0  0  0
   -1.3358   -1.8463    0.0000 C   0  0  0  0  0  0  0  0  0
   -0.6214   -3.9088    0.0000 C   0  0  0  0  0  0  0  0  0
   -0.6214   -4.7338    0.0000 N   0  0  0  0  0  0  0  0  0
  1  2  1  0  0  0  0
  1  6  1  0  0  0  0
  2  3  4  0  0  0  0
  2 21  4  0  0  0  0
  3  4  1  0  0  0  0
  3 18  4  0  0  0  0
  4  5  1  0  0  0  0
  4 11  1  0  0  0  0
  5  6  4  0  0  0  0
  5 10  4  0  0  0  0
  6  7  4  0  0  0  0
  7  8  4  0  0  0  0
  8  9  4  0  0  0  0
  9 10  4  0  0  0  0
 11 12  1  0  0  0  0
 12 13  1  0  0  0  0
 12 17  1  0  0  0  0
 13 14  1  0  0  0  0
 14 15  1  0  0  0  0
 14 16  1  0  0  0  0
 18 19  4  0  0  0  0
 19 20  4  0  0  0  0
 19 22  1  0  0  0  0
 20 21  4  0  0  0  0
 22 23  3  0  0  0  0
M  END
>  <Name_Molregno>
Cyamemazine

>  <5-HT1A>
6.29

>  <5-HT2A>
8.82

>  <5-HT2C>
7.92

>  <5-HT3>
5.53

>  <5-HT7>
7.66

>  <DOPAMINE D1>
8.42

>  <DOPAMINE D2>
8.24

>  <DOPAMINE D3>
8.6

>  <DOPAMINE D4>
8.28

>  <Muscarinic acetylcholine receptor M1>
7.89

>  <Muscarinic acetylcholine receptor M2>
7.38

>  <Muscarinic acetylcholine receptor M3>
7.49

>  <Muscarinic acetylcholine receptor M4>
7.92

>  <Muscarinic acetylcholine receptor M5>
7.46

$$$$
CYPROHEPTADINE
  Marvin  02231216192D 0   1.00000     0.00000     0

 22 25  0  0  0  0  0  0  0  0999 V2000
    2.3061   -2.3673    0.0000 N   0  0  0  0  0  0  0  0  0
    1.5917   -1.9548    0.0000 C   0  0  0  0  0  0  0  0  0
    1.5917   -1.1298    0.0000 C   0  0  0  0  0  0  0  0  0
    2.3061   -0.7173    0.0000 C   0  0  0  0  0  0  0  0  0
    3.0206   -1.1298    0.0000 C   0  0  0  0  0  0  0  0  0
    3.0206   -1.9548    0.0000 C   0  0  0  0  0  0  0  0  0
    2.3061    0.1077    0.0000 C   0  0  0  0  0  0  0  0  0
    3.0494    0.4657    0.0000 C   0  0  0  0  0  0  0  0  0
    3.2330    1.2700    0.0000 C   0  0  0  0  0  0  0  0  0
    2.7186    1.9150    0.0000 C   0  0  0  0  0  0  0  0  0
    1.8936    1.9150    0.0000 C   0  0  0  0  0  0  0  0  0
    1.3792    1.2700    0.0000 C   0  0  0  0  0  0  0  0  0
    1.5628    0.4657    0.0000 C   0  0  0  0  0  0  0  0  0
    0.9581   -0.0955    0.0000 C   0  0  0  0  0  0  0  0  0
    0.1697    0.1477    0.0000 C   0  0  0  0  0  0  0  0  0
   -0.0139    0.9520    0.0000 C   0  0  0  0  0  0  0  0  0
    0.5909    1.5132    0.0000 C   0  0  0  0  0  0  0  0  0
    4.0214    1.5132    0.0000 C   0  0  0  0  0  0  0  0  0
    4.6261    0.9520    0.0000 C   0  0  0  0  0  0  0  0  0
    4.4425    0.1477    0.0000 C   0  0  0  0  0  0  0  0  0
    3.6542   -0.0955    0.0000 C   0  0  0  0  0  0  0  0  0
    2.3061   -3.1923    0.0000 C   0  0  0  0  0  0  0  0  0
  1  2  1  0  0  0  0
  1  6  1  0  0  0  0
  1 22  1  0  0  0  0
  2  3  1  0  0  0  0
  3  4  1  0  0  0  0
  4  5  1  0  0  0  0
  4  7  2  0  0  0  0
  5  6  1  0  0  0  0
  7  8  1  0  0  0  0
  7 13  1  0  0  0  0
  8  9  4  0  0  0  0
  8 21  4  0  0  0  0
  9 10  1  0  0  0  0
  9 18  4  0  0  0  0
 10 11  2  0  0  0  0
 11 12  1  0  0  0  0
 12 13  4  0  0  0  0
 12 17  4  0  0  0  0
 13 14  4  0  0  0  0
 14 15  4  0  0  0  0
 15 16  4  0  0  0  0
 16 17  4  0  0  0  0
 18 19  4  0  0  0  0
 19 20  4  0  0  0  0
 20 21  4  0  0  0  0
M  END
>  <Name_Molregno>
CYPROHEPTADINE

>  <5-HT1A>
7.12

>  <5-HT1D>
5.89

>  <5-HT2A>
8.42

>  <5-HT2C>
8.65

>  <5-HT6>
6.85

>  <5-HT7>
6.91

>  <DOPAMINE D1>
6.93

>  <DOPAMINE D2>
6.95

>  <DOPAMINE D3>
8.1

>  <HISTAMINE H1>
10.22

>  <HISTAMINE H3>
5

>  <HISTAMINE H4>
5.85

>  <Muscarinic acetylcholine receptor M1>
7.92

>  <Muscarinic acetylcholine receptor M2>
8.15

>  <Muscarinic acetylcholine receptor M3>
7.92

>  <Muscarinic acetylcholine receptor M4>
8.1

>  <Muscarinic acetylcholine receptor M5>
7.93

$$$$
D-cystine
  Marvin  02231216192D 0   1.00000     0.00000     0

 14 13  0  0  1  0  0  0  0  0999 V2000
    0.5597    0.5534    0.0000 S   0  0  0  0  0  0  0  0  0
   -0.1548    0.1409    0.0000 S   0  0  0  0  0  0  0  0  0
   -0.8693    0.5534    0.0000 C   0  0  0  0  0  0  0  0  0
   -1.5838    0.1409    0.0000 C   0  0  0  0  0  0  0  0  0
   -1.5838   -0.6841    0.0000 N   0  0  0  0  0  0  0  0  0
   -2.2982    0.5534    0.0000 C   0  0  0  0  0  0  0  0  0
   -3.0127    0.1409    0.0000 O   0  0  0  0  0  0  0  0  0
   -2.2982    1.3784    0.0000 O   0  0  0  0  0  0  0  0  0
    1.2741    0.1409    0.0000 C   0  0  0  0  0  0  0  0  0
    1.9886    0.5534    0.0000 C   0  0  0  0  0  0  0  0  0
    1.9886    1.3784    0.0000 N   0  0  0  0  0  0  0  0  0
    2.7031    0.1409    0.0000 C   0  0  0  0  0  0  0  0  0
    3.4175    0.5534    0.0000 O   0  0  0  0  0  0  0  0  0
    2.7031   -0.6841    0.0000 O   0  0  0  0  0  0  0  0  0
  1  2  1  0  0  0  0
  1  9  1  0  0  0  0
  2  3  1  0  0  0  0
  3  4  1  0  0  0  0
  4  5  1  0  0  0  0
  4  6  1  0  0  0  0
  6  7  1  0  0  0  0
  6  8  2  0  0  0  0
  9 10  1  0  0  0  0
 10 11  1  0  0  0  0
 10 12  1  0  0  0  0
 12 13  1  0  0  0  0
 12 14  2  0  0  0  0
M  END
>  <Name_Molregno>
D-cystine

>  <5-HT1A>
5

>  <5-HT1B>
5

>  <5-HT1D>
5

>  <5-HT3>
5

>  <5-HT5>
5

>  <5-HT6>
5

>  <5-HT7>
5

>  <Alpha-1A>
5

>  <Alpha-1B>
5

>  <Alpha-2A>
5

>  <Alpha-2B>
5

>  <Alpha-2C>
5

>  <DOPAMINE D1>
5

>  <DOPAMINE D2>
5

>  <DOPAMINE D3>
5

>  <DOPAMINE D5>
5

>  <Dopamine transporter>
5

>  <HISTAMINE H1>
5

>  <HISTAMINE H2>
5

>  <HISTAMINE H4>
5

>  <Muscarinic acetylcholine receptor M1>
5

>  <Muscarinic acetylcholine receptor M2>
5

>  <Muscarinic acetylcholine receptor M3>
5

>  <Muscarinic acetylcholine receptor M4>
5

>  <Muscarinic acetylcholine receptor M5>
5

>  <Norepinephrine transporter>
5

>  <Serotonin transporter>
5

$$$$
d-Fenfluramine
  Marvin  02231216192D 0   1.00000     0.00000     0

 16 16  0  0  1  0  0  0  0  0999 V2000
   -5.1694    0.5172    0.0000 F   0  0  0  0  0  0  0  0  0
   -4.4549    0.1047    0.0000 C   0  0  0  0  0  0  0  0  0
   -4.8674   -0.6097    0.0000 F   0  0  0  0  0  0  0  0  0
   -4.0424    0.8192    0.0000 F   0  0  0  0  0  0  0  0  0
   -3.7405   -0.3078    0.0000 C   0  0  0  0  0  0  0  0  0
   -3.0260    0.1047    0.0000 C   0  0  0  0  0  0  0  0  0
   -2.3115   -0.3078    0.0000 C   0  0  0  0  0  0  0  0  0
   -2.3115   -1.1328    0.0000 C   0  0  0  0  0  0  0  0  0
   -3.0260   -1.5453    0.0000 C   0  0  0  0  0  0  0  0  0
   -3.7405   -1.1328    0.0000 C   0  0  0  0  0  0  0  0  0
   -1.5971    0.1047    0.0000 C   0  0  0  0  0  0  0  0  0
   -0.8826   -0.3078    0.0000 C   0  0  0  0  0  0  0  0  0
   -0.1681    0.1047    0.0000 N   0  0  0  0  0  0  0  0  0
    0.5464   -0.3078    0.0000 C   0  0  0  0  0  0  0  0  0
    1.2608    0.1047    0.0000 C   0  0  0  0  0  0  0  0  0
   -0.8826   -1.1328    0.0000 C   0  0  0  0  0  0  0  0  0
  1  2  1  0  0  0  0
  2  3  1  0  0  0  0
  2  4  1  0  0  0  0
  2  5  1  0  0  0  0
  5  6  4  0  0  0  0
  5 10  4  0  0  0  0
  6  7  4  0  0  0  0
  7  8  4  0  0  0  0
  7 11  1  0  0  0  0
  8  9  4  0  0  0  0
  9 10  4  0  0  0  0
 11 12  1  0  0  0  0
 12 13  1  0  0  0  0
 12 16  1  0  0  0  0
 13 14  1  0  0  0  0
 14 15  1  0  0  0  0
M  END
>  <Name_Molregno>
d-Fenfluramine

>  <5-HT1A>
6.11

>  <5-HT1B>
5.67

>  <5-HT1D>
5.79

>  <5-HT1E>
5

>  <5-HT2A>
5.92

>  <5-HT2C>
6.27

>  <5-HT3>
5

>  <5-HT5>
5

>  <5-HT6>
5.01

>  <5-HT7>
5.17

>  <Alpha-1A>
5.52

>  <Alpha-1B>
5.62

>  <Alpha-2A>
6.26

>  <Alpha-2B>
6.65

>  <Alpha-2C>
6.68

>  <Beta-1>
5.67

>  <Beta-2>
5.07

>  <DOPAMINE D1>
5

>  <DOPAMINE D2>
5

>  <DOPAMINE D4>
5

>  <DOPAMINE D5>
5

>  <Dopamine transporter>
5

>  <HISTAMINE H1>
5

>  <HISTAMINE H2>
5

>  <Muscarinic acetylcholine receptor M1>
5.61

>  <Muscarinic acetylcholine receptor M2>
5.39

>  <Muscarinic acetylcholine receptor M3>
5.22

>  <Muscarinic acetylcholine receptor M4>
5.1

>  <Muscarinic acetylcholine receptor M5>
5

>  <Norepinephrine transporter>
5

>  <Serotonin transporter>
6.18

$$$$
DHE
  Marvin  02231216192D 0   1.00000     0.00000     0

 43 50  0  0  1  0  0  0  0  0999 V2000
   -2.1239   -1.0172    0.0000 O   0  0  0  0  0  0  0  0  0
   -1.3035   -1.1045    0.0000 C   0  0  0  0  0  0  0  0  0
   -1.3025   -0.2795    0.0000 N   0  0  0  0  0  0  0  0  0
   -0.5876    0.1322    0.0000 C   0  0  0  0  0  0  0  0  0
    0.1264   -0.2812    0.0000 O   0  0  0  0  0  0  0  0  0
   -0.5866    0.9572    0.0000 C   0  0  0  0  0  0  0  0  0
    0.1284    1.3688    0.0000 C   0  0  0  0  0  0  0  0  0
    0.1294    2.1938    0.0000 C   0  0  0  0  0  0  0  0  0
   -0.5846    2.6072    0.0000 C   0  0  0  0  0  0  0  0  0
   -1.2996    2.1955    0.0000 N   0  0  0  0  0  0  0  0  0
   -1.3006    1.3705    0.0000 C   0  0  0  0  0  0  0  0  0
   -2.0136    2.6089    0.0000 C   0  0  0  0  0  0  0  0  0
   -0.5831    3.4313    0.0000 C   0  0  0  0  0  0  0  0  0
    0.1294    3.8438    0.0000 C   0  0  0  0  0  0  0  0  0
    0.8419    3.4313    0.0000 C   0  0  0  0  0  0  0  0  0
    0.8419    2.6063    0.0000 C   0  0  0  0  0  0  0  0  0
    1.5597    2.1938    0.0000 C   0  0  0  0  0  0  0  0  0
    2.2722    2.6063    0.0000 C   0  0  0  0  0  0  0  0  0
    2.2722    3.4313    0.0000 C   0  0  0  0  0  0  0  0  0
    1.5597    3.8438    0.0000 C   0  0  0  0  0  0  0  0  0
    1.2544    4.7010    0.0000 N   0  0  0  0  0  0  0  0  0
    0.4294    4.7010    0.0000 C   0  0  0  0  0  0  0  0  0
   -0.4830   -1.0192    0.0000 C   0  0  0  0  0  0  0  0  0
   -1.1330   -1.9116    0.0000 C   0  0  0  0  0  0  0  0  0
   -0.3797   -2.2481    0.0000 O   0  0  0  0  0  0  0  0  0
   -1.8479   -2.3233    0.0000 N   0  0  0  0  0  0  0  0  0
   -2.0204   -3.1301    0.0000 C   0  0  0  0  0  0  0  0  0
   -1.4080   -3.6828    0.0000 C   0  0  0  0  0  0  0  0  0
   -1.5805   -4.4896    0.0000 C   0  0  0  0  0  0  0  0  0
   -0.9681   -5.0424    0.0000 C   0  0  0  0  0  0  0  0  0
   -1.1406   -5.8491    0.0000 C   0  0  0  0  0  0  0  0  0
   -1.9255   -6.1031    0.0000 C   0  0  0  0  0  0  0  0  0
   -2.5379   -5.5504    0.0000 C   0  0  0  0  0  0  0  0  0
   -2.3654   -4.7436    0.0000 C   0  0  0  0  0  0  0  0  0
   -2.8054   -3.3841    0.0000 C   0  0  0  0  0  0  0  0  0
   -2.9779   -4.1908    0.0000 O   0  0  0  0  0  0  0  0  0
   -3.4178   -2.8313    0.0000 N   0  0  0  0  0  0  0  0  0
   -3.2453   -2.0245    0.0000 C   0  0  0  0  0  0  0  0  0
   -3.9593   -1.6112    0.0000 C   0  0  0  0  0  0  0  0  0
   -4.5730   -2.1625    0.0000 C   0  0  0  0  0  0  0  0  0
   -4.2384   -2.9165    0.0000 C   0  0  0  0  0  0  0  0  0
   -2.4604   -1.7705    0.0000 C   0  0  0  0  0  0  0  0  0
   -3.0117   -1.1568    0.0000 O   0  0  0  0  0  0  0  0  0
  1  2  1  0  0  0  0
  1 42  1  0  0  0  0
  2  3  1  0  0  0  0
  2 23  1  0  0  0  0
  2 24  1  0  0  0  0
  3  4  1  0  0  0  0
  4  5  2  0  0  0  0
  4  6  1  0  0  0  0
  6  7  1  0  0  0  0
  6 11  1  0  0  0  0
  7  8  1  0  0  0  0
  8  9  1  0  0  0  0
  8 16  1  0  0  0  0
  9 10  1  0  0  0  0
  9 13  1  0  0  0  0
 10 11  1  0  0  0  0
 10 12  1  0  0  0  0
 13 14  1  0  0  0  0
 14 15  4  0  0  0  0
 14 22  4  0  0  0  0
 15 16  4  0  0  0  0
 15 20  4  0  0  0  0
 16 17  4  0  0  0  0
 17 18  4  0  0  0  0
 18 19  4  0  0  0  0
 19 20  4  0  0  0  0
 20 21  4  0  0  0  0
 21 22  4  0  0  0  0
 24 25  2  0  0  0  0
 24 26  1  0  0  0  0
 26 27  1  0  0  0  0
 26 42  1  0  0  0  0
 27 28  1  0  0  0  0
 27 35  1  0  0  0  0
 28 29  1  0  0  0  0
 29 30  4  0  0  0  0
 29 34  4  0  0  0  0
 30 31  4  0  0  0  0
 31 32  4  0  0  0  0
 32 33  4  0  0  0  0
 33 34  4  0  0  0  0
 35 36  2  0  0  0  0
 35 37  1  0  0  0  0
 37 38  1  0  0  0  0
 37 41  1  0  0  0  0
 38 39  1  0  0  0  0
 38 42  1  0  0  0  0
 39 40  1  0  0  0  0
 40 41  1  0  0  0  0
 42 43  1  0  0  0  0
M  STY  1   1 DAT
M  SAL   1  1  21
M  SDT   1 MRV_IMPLICIT_H                                        
M  SDD   1     0.0000    0.0000    DR    ALL  0       0  
M  SED   1 IMPL_H1
M  END
>  <Name_Molregno>
DHE

>  <5-HT1A>
8.82

>  <5-HT1B>
9.62

>  <5-HT1D>
9.89

>  <5-HT6>
8.27

>  <5-HT7>
8.04

>  <DOPAMINE D1>
5.56

>  <DOPAMINE D2>
8.3

>  <DOPAMINE D3>
7.8

$$$$
Diclofenac
  Marvin  02231216192D 0   1.00000     0.00000     0

 19 20  0  0  0  0  0  0  0  0999 V2000
    1.8639   -0.1839    0.0000 Cl  0  0  0  0  0  0  0  0  0
    1.8639   -1.0089    0.0000 C   0  0  0  0  0  0  0  0  0
    2.5784   -1.4214    0.0000 C   0  0  0  0  0  0  0  0  0
    2.5784   -2.2464    0.0000 C   0  0  0  0  0  0  0  0  0
    1.8639   -2.6589    0.0000 C   0  0  0  0  0  0  0  0  0
    1.1494   -2.2464    0.0000 C   0  0  0  0  0  0  0  0  0
    0.4350   -2.6589    0.0000 Cl  0  0  0  0  0  0  0  0  0
    1.1494   -1.4214    0.0000 C   0  0  0  0  0  0  0  0  0
    0.4350   -1.0089    0.0000 N   0  0  0  0  0  0  0  0  0
   -0.2795   -1.4214    0.0000 C   0  0  0  0  0  0  0  0  0
   -0.2795   -2.2464    0.0000 C   0  0  0  0  0  0  0  0  0
   -0.9940   -2.6589    0.0000 C   0  0  0  0  0  0  0  0  0
   -1.7085   -2.2464    0.0000 C   0  0  0  0  0  0  0  0  0
   -1.7085   -1.4214    0.0000 C   0  0  0  0  0  0  0  0  0
   -0.9940   -1.0089    0.0000 C   0  0  0  0  0  0  0  0  0
   -0.9940   -0.1839    0.0000 C   0  0  0  0  0  0  0  0  0
   -0.2795    0.2286    0.0000 C   0  0  0  0  0  0  0  0  0
   -0.2795    1.0536    0.0000 O   0  0  0  0  0  0  0  0  0
    0.4350   -0.1839    0.0000 O   0  0  0  0  0  0  0  0  0
  1  2  1  0  0  0  0
  2  3  4  0  0  0  0
  2  8  4  0  0  0  0
  3  4  4  0  0  0  0
  4  5  4  0  0  0  0
  5  6  4  0  0  0  0
  6  7  1  0  0  0  0
  6  8  4  0  0  0  0
  8  9  1  0  0  0  0
  9 10  1  0  0  0  0
 10 11  4  0  0  0  0
 10 15  4  0  0  0  0
 11 12  4  0  0  0  0
 12 13  4  0  0  0  0
 13 14  4  0  0  0  0
 14 15  4  0  0  0  0
 15 16  1  0  0  0  0
 16 17  1  0  0  0  0
 17 18  1  0  0  0  0
 17 19  2  0  0  0  0
M  END
>  <Name_Molregno>
Diclofenac

>  <5-HT1A>
5

>  <5-HT1B>
5

>  <5-HT1D>
5

>  <5-HT1E>
5

>  <5-HT2A>
5

>  <5-HT3>
5

>  <5-HT5>
5

>  <5-HT6>
5

>  <5-HT7>
5

>  <Alpha-1A>
5

>  <Alpha-1B>
5

>  <Alpha-2A>
5

>  <Alpha-2B>
5

>  <Alpha-2C>
5

>  <DOPAMINE D1>
5

>  <DOPAMINE D2>
5

>  <DOPAMINE D4>
5

>  <DOPAMINE D5>
5

>  <HISTAMINE H1>
5

>  <HISTAMINE H2>
5

>  <Muscarinic acetylcholine receptor M2>
5

>  <Muscarinic acetylcholine receptor M5>
5

$$$$
DL-homocysteic-acid
  Marvin  02231216192D 0   1.00000     0.00000     0

 11 10  0  0  1  0  0  0  0  0999 V2000
   -2.6928   -0.0066    0.0000 S   0  0  0  0  0  0  0  0  0
   -3.4073   -0.4191    0.0000 O   0  0  0  0  0  0  0  0  0
   -2.2803   -0.7210    0.0000 O   0  0  0  0  0  0  0  0  0
   -3.1053    0.7079    0.0000 O   0  0  0  0  0  0  0  0  0
   -1.9783    0.4059    0.0000 C   0  0  0  0  0  0  0  0  0
   -1.2639   -0.0066    0.0000 C   0  0  0  0  0  0  0  0  0
   -0.5494    0.4059    0.0000 C   0  0  0  0  0  0  0  0  0
   -0.5494    1.2309    0.0000 N   0  0  0  0  0  0  0  0  0
    0.1651   -0.0066    0.0000 C   0  0  0  0  0  0  0  0  0
    0.8795    0.4059    0.0000 O   0  0  0  0  0  0  0  0  0
    0.1651   -0.8316    0.0000 O   0  0  0  0  0  0  0  0  0
  1  2  2  0  0  0  0
  1  3  2  0  0  0  0
  1  4  1  0  0  0  0
  1  5  1  0  0  0  0
  5  6  1  0  0  0  0
  6  7  1  0  0  0  0
  7  8  1  0  0  0  0
  7  9  1  0  0  0  0
  9 10  1  0  0  0  0
  9 11  2  0  0  0  0
M  END
>  <Name_Molregno>
DL-homocysteic-acid

>  <5-HT1A>
5

>  <5-HT1B>
5

>  <5-HT1D>
5

>  <5-HT3>
5

>  <5-HT5>
5

>  <5-HT6>
5

>  <5-HT7>
5

>  <Alpha-1A>
5

>  <Alpha-1B>
5

>  <Alpha-2A>
5

>  <Alpha-2B>
5

>  <Alpha-2C>
5

>  <DOPAMINE D1>
5

>  <DOPAMINE D2>
5

>  <DOPAMINE D3>
5

>  <DOPAMINE D5>
5

>  <Dopamine transporter>
5

>  <Muscarinic acetylcholine receptor M1>
5

>  <Muscarinic acetylcholine receptor M2>
5

>  <Muscarinic acetylcholine receptor M3>
5

>  <Muscarinic acetylcholine receptor M4>
5

>  <Muscarinic acetylcholine receptor M5>
5

>  <Norepinephrine transporter>
5

>  <Serotonin transporter>
5

$$$$
DL-homocysteine
  Marvin  02231216192D 0   1.00000     0.00000     0

  8  7  0  0  1  0  0  0  0  0999 V2000
   -0.0519    0.0021    0.0000 S   0  0  0  0  0  0  0  0  0
    0.6626    0.4146    0.0000 C   0  0  0  0  0  0  0  0  0
    1.3770    0.0021    0.0000 C   0  0  0  0  0  0  0  0  0
    2.0915    0.4146    0.0000 C   0  0  0  0  0  0  0  0  0
    2.0915    1.2396    0.0000 N   0  0  0  0  0  0  0  0  0
    2.8060    0.0021    0.0000 C   0  0  0  0  0  0  0  0  0
    3.5205    0.4146    0.0000 O   0  0  0  0  0  0  0  0  0
    2.8060   -0.8229    0.0000 O   0  0  0  0  0  0  0  0  0
  1  2  1  0  0  0  0
  2  3  1  0  0  0  0
  3  4  1  0  0  0  0
  4  5  1  0  0  0  0
  4  6  1  0  0  0  0
  6  7  1  0  0  0  0
  6  8  2  0  0  0  0
M  END
>  <Name_Molregno>
DL-homocysteine

>  <5-HT1A>
5

>  <5-HT1B>
5

>  <5-HT1D>
5

>  <5-HT3>
5

>  <5-HT5>
5

>  <5-HT6>
5

>  <5-HT7>
5

>  <Alpha-1A>
5

>  <Alpha-1B>
5

>  <Alpha-2A>
5

>  <Alpha-2B>
5

>  <Alpha-2C>
5

>  <DOPAMINE D1>
5

>  <DOPAMINE D2>
5

>  <DOPAMINE D3>
5

>  <DOPAMINE D5>
5

>  <Dopamine transporter>
5

>  <HISTAMINE H1>
5

>  <HISTAMINE H2>
5

>  <HISTAMINE H4>
5

>  <Muscarinic acetylcholine receptor M1>
5

>  <Muscarinic acetylcholine receptor M2>
5

>  <Muscarinic acetylcholine receptor M3>
5

>  <Muscarinic acetylcholine receptor M4>
5

>  <Muscarinic acetylcholine receptor M5>
5

>  <Norepinephrine transporter>
5

>  <Serotonin transporter>
5

$$$$
D-methionine
  Marvin  02231216192D 0   1.00000     0.00000     0

  9  8  0  0  1  0  0  0  0  0999 V2000
   -0.3763    1.2394    0.0000 S   0  0  0  0  0  0  0  0  0
    0.3381    0.8269    0.0000 C   0  0  0  0  0  0  0  0  0
    1.0526    1.2394    0.0000 C   0  0  0  0  0  0  0  0  0
    1.7671    0.8269    0.0000 C   0  0  0  0  0  0  0  0  0
    1.7671    0.0019    0.0000 N   0  0  0  0  0  0  0  0  0
    2.4816    1.2394    0.0000 C   0  0  0  0  0  0  0  0  0
    3.1960    0.8269    0.0000 O   0  0  0  0  0  0  0  0  0
    2.4816    2.0644    0.0000 O   0  0  0  0  0  0  0  0  0
   -1.0908    0.8269    0.0000 C   0  0  0  0  0  0  0  0  0
  1  2  1  0  0  0  0
  1  9  1  0  0  0  0
  2  3  1  0  0  0  0
  3  4  1  0  0  0  0
  4  5  1  0  0  0  0
  4  6  1  0  0  0  0
  6  7  1  0  0  0  0
  6  8  2  0  0  0  0
M  END
>  <Name_Molregno>
D-methionine

>  <5-HT1A>
5

>  <5-HT1B>
5

>  <5-HT1D>
5

>  <5-HT3>
5

>  <5-HT5>
5

>  <5-HT6>
5

>  <5-HT7>
5

>  <Alpha-1A>
5

>  <Alpha-1B>
5

>  <Alpha-2A>
5

>  <Alpha-2B>
5

>  <Alpha-2C>
5

>  <DOPAMINE D1>
5

>  <DOPAMINE D2>
5

>  <DOPAMINE D3>
5

>  <DOPAMINE D5>
5

>  <Dopamine transporter>
5

>  <HISTAMINE H1>
5

>  <HISTAMINE H2>
5

>  <HISTAMINE H4>
5

>  <Muscarinic acetylcholine receptor M1>
5

>  <Muscarinic acetylcholine receptor M2>
5

>  <Muscarinic acetylcholine receptor M3>
5

>  <Muscarinic acetylcholine receptor M4>
5

>  <Muscarinic acetylcholine receptor M5>
5

>  <Norepinephrine transporter>
5

>  <Serotonin transporter>
5

$$$$
DOPAMINE
  Marvin  02231216192D 0   1.00000     0.00000     0

 11 11  0  0  0  0  0  0  0  0999 V2000
    3.1358    1.8244    0.0000 O   0  0  0  0  0  0  0  0  0
    2.4213    1.4119    0.0000 C   0  0  0  0  0  0  0  0  0
    2.4213    0.5869    0.0000 C   0  0  0  0  0  0  0  0  0
    1.7068    0.1744    0.0000 C   0  0  0  0  0  0  0  0  0
    0.9924    0.5869    0.0000 C   0  0  0  0  0  0  0  0  0
    0.9924    1.4119    0.0000 C   0  0  0  0  0  0  0  0  0
    1.7068    1.8244    0.0000 C   0  0  0  0  0  0  0  0  0
    1.7068    2.6494    0.0000 O   0  0  0  0  0  0  0  0  0
    1.7068   -0.6506    0.0000 C   0  0  0  0  0  0  0  0  0
    0.9924   -1.0631    0.0000 C   0  0  0  0  0  0  0  0  0
    0.9924   -1.8881    0.0000 N   0  0  0  0  0  0  0  0  0
  1  2  1  0  0  0  0
  2  3  4  0  0  0  0
  2  7  4  0  0  0  0
  3  4  4  0  0  0  0
  4  5  4  0  0  0  0
  4  9  1  0  0  0  0
  5  6  4  0  0  0  0
  6  7  4  0  0  0  0
  7  8  1  0  0  0  0
  9 10  1  0  0  0  0
 10 11  1  0  0  0  0
M  END
>  <Name_Molregno>
DOPAMINE

>  <5-HT1A>
5.08

>  <5-HT2A>
5

>  <5-HT3>
5

>  <5-HT7>
5

>  <DOPAMINE D1>
5.72

>  <DOPAMINE D2>
6.7

>  <DOPAMINE D3>
7.41

>  <DOPAMINE D4>
7.64

>  <DOPAMINE D5>
6.64

>  <Dopamine transporter>
5.79

>  <Norepinephrine transporter>
6.49

$$$$
Ephedrine
  Marvin  02231216192D 0   1.00000     0.00000     0

 12 12  0  0  1  0  0  0  0  0999 V2000
    1.9192   -0.0549    0.0000 O   0  0  0  0  0  0  0  0  0
    1.2047   -0.4674    0.0000 C   0  0  0  0  0  0  0  0  0
    0.4903   -0.0549    0.0000 C   0  0  0  0  0  0  0  0  0
    0.4903    0.7701    0.0000 N   0  0  0  0  0  0  0  0  0
   -0.2242    1.1826    0.0000 C   0  0  0  0  0  0  0  0  0
   -0.2242   -0.4674    0.0000 C   0  0  0  0  0  0  0  0  0
    1.2047   -1.2924    0.0000 C   0  0  0  0  0  0  0  0  0
    1.9192   -1.7049    0.0000 C   0  0  0  0  0  0  0  0  0
    1.9192   -2.5299    0.0000 C   0  0  0  0  0  0  0  0  0
    1.2047   -2.9424    0.0000 C   0  0  0  0  0  0  0  0  0
    0.4903   -2.5299    0.0000 C   0  0  0  0  0  0  0  0  0
    0.4903   -1.7049    0.0000 C   0  0  0  0  0  0  0  0  0
  1  2  1  0  0  0  0
  2  3  1  0  0  0  0
  2  7  1  0  0  0  0
  3  4  1  0  0  0  0
  3  6  1  0  0  0  0
  4  5  1  0  0  0  0
  7  8  4  0  0  0  0
  7 12  4  0  0  0  0
  8  9  4  0  0  0  0
  9 10  4  0  0  0  0
 10 11  4  0  0  0  0
 11 12  4  0  0  0  0
M  END
>  <Name_Molregno>
Ephedrine

>  <5-HT1A>
5

>  <5-HT1B>
5

>  <5-HT1D>
5

>  <5-HT1E>
5

>  <5-HT3>
5

>  <5-HT5>
5

>  <5-HT6>
5

>  <5-HT7>
5.33

>  <Alpha-1A>
5

>  <Alpha-1B>
5

>  <Alpha-2A>
5.17

>  <Alpha-2B>
5.48

>  <Alpha-2C>
5.51

>  <Beta-1>
5

>  <Beta-2>
5

>  <DOPAMINE D1>
5

>  <DOPAMINE D2>
5

>  <DOPAMINE D4>
5

>  <DOPAMINE D5>
5

>  <Dopamine transporter>
5.38

>  <HISTAMINE H1>
5

>  <HISTAMINE H2>
5

>  <HISTAMINE H4>
5

>  <Muscarinic acetylcholine receptor M1>
5

>  <Muscarinic acetylcholine receptor M2>
5

>  <Muscarinic acetylcholine receptor M3>
5

>  <Muscarinic acetylcholine receptor M4>
5

>  <Muscarinic acetylcholine receptor M5>
5

>  <Norepinephrine transporter>
5.79

>  <Serotonin transporter>
5

$$$$
EPINEPHRINE
  Marvin  02231216192D 0   1.00000     0.00000     0

 13 13  0  0  1  0  0  0  0  0999 V2000
    3.1920    1.0753    0.0000 O   0  0  0  0  0  0  0  0  0
    2.4776    0.6628    0.0000 C   0  0  0  0  0  0  0  0  0
    2.4776   -0.1622    0.0000 C   0  0  0  0  0  0  0  0  0
    1.7631   -0.5747    0.0000 C   0  0  0  0  0  0  0  0  0
    1.0486   -0.1622    0.0000 C   0  0  0  0  0  0  0  0  0
    1.0486    0.6628    0.0000 C   0  0  0  0  0  0  0  0  0
    1.7631    1.0753    0.0000 C   0  0  0  0  0  0  0  0  0
    1.7631    1.9003    0.0000 O   0  0  0  0  0  0  0  0  0
    1.7631   -1.3997    0.0000 C   0  0  0  0  0  0  0  0  0
    1.0486   -1.8122    0.0000 O   0  0  0  0  0  0  0  0  0
    2.4776   -1.8122    0.0000 C   0  0  0  0  0  0  0  0  0
    2.4776   -2.6372    0.0000 N   0  0  0  0  0  0  0  0  0
    3.1920   -3.0497    0.0000 C   0  0  0  0  0  0  0  0  0
  1  2  1  0  0  0  0
  2  3  4  0  0  0  0
  2  7  4  0  0  0  0
  3  4  4  0  0  0  0
  4  5  4  0  0  0  0
  4  9  1  0  0  0  0
  5  6  4  0  0  0  0
  6  7  4  0  0  0  0
  7  8  1  0  0  0  0
  9 10  1  0  0  0  0
  9 11  1  0  0  0  0
 11 12  1  0  0  0  0
 12 13  1  0  0  0  0
M  END
>  <Name_Molregno>
EPINEPHRINE

>  <5-HT2A>
5

>  <5-HT7>
5

>  <Alpha-2A>
5.83

>  <Alpha-2B>
5.9

>  <Alpha-2C>
5.77

>  <Beta-1>
5.4

>  <Beta-2>
5.76

>  <Norepinephrine transporter>
5.43

$$$$
ERGOTAMINE
  Marvin  02231216192D 0   1.00000     0.00000     0

 43 50  0  0  1  0  0  0  0  0999 V2000
   -2.1239   -1.0172    0.0000 O   0  0  0  0  0  0  0  0  0
   -1.3035   -1.1045    0.0000 C   0  0  0  0  0  0  0  0  0
   -1.3025   -0.2795    0.0000 N   0  0  0  0  0  0  0  0  0
   -0.5876    0.1322    0.0000 C   0  0  0  0  0  0  0  0  0
    0.1264   -0.2812    0.0000 O   0  0  0  0  0  0  0  0  0
   -0.5866    0.9572    0.0000 C   0  0  0  0  0  0  0  0  0
    0.1284    1.3688    0.0000 C   0  0  0  0  0  0  0  0  0
    0.1294    2.1938    0.0000 C   0  0  0  0  0  0  0  0  0
   -0.5846    2.6072    0.0000 C   0  0  0  0  0  0  0  0  0
   -1.2996    2.1955    0.0000 N   0  0  0  0  0  0  0  0  0
   -1.3006    1.3705    0.0000 C   0  0  0  0  0  0  0  0  0
   -2.0136    2.6089    0.0000 C   0  0  0  0  0  0  0  0  0
   -0.5831    3.4313    0.0000 C   0  0  0  0  0  0  0  0  0
    0.1294    3.8438    0.0000 C   0  0  0  0  0  0  0  0  0
    0.8419    3.4313    0.0000 C   0  0  0  0  0  0  0  0  0
    0.8419    2.6063    0.0000 C   0  0  0  0  0  0  0  0  0
    1.5597    2.1938    0.0000 C   0  0  0  0  0  0  0  0  0
    2.2722    2.6063    0.0000 C   0  0  0  0  0  0  0  0  0
    2.2722    3.4313    0.0000 C   0  0  0  0  0  0  0  0  0
    1.5597    3.8438    0.0000 C   0  0  0  0  0  0  0  0  0
    1.2544    4.7010    0.0000 N   0  0  0  0  0  0  0  0  0
    0.4294    4.7010    0.0000 C   0  0  0  0  0  0  0  0  0
   -0.4830   -1.0192    0.0000 C   0  0  0  0  0  0  0  0  0
   -1.1330   -1.9116    0.0000 C   0  0  0  0  0  0  0  0  0
   -0.3797   -2.2481    0.0000 O   0  0  0  0  0  0  0  0  0
   -1.8479   -2.3233    0.0000 N   0  0  0  0  0  0  0  0  0
   -2.0204   -3.1301    0.0000 C   0  0  0  0  0  0  0  0  0
   -1.4080   -3.6828    0.0000 C   0  0  0  0  0  0  0  0  0
   -1.5805   -4.4896    0.0000 C   0  0  0  0  0  0  0  0  0
   -0.9681   -5.0424    0.0000 C   0  0  0  0  0  0  0  0  0
   -1.1406   -5.8491    0.0000 C   0  0  0  0  0  0  0  0  0
   -1.9255   -6.1031    0.0000 C   0  0  0  0  0  0  0  0  0
   -2.5379   -5.5504    0.0000 C   0  0  0  0  0  0  0  0  0
   -2.3654   -4.7436    0.0000 C   0  0  0  0  0  0  0  0  0
   -2.8054   -3.3841    0.0000 C   0  0  0  0  0  0  0  0  0
   -2.9779   -4.1908    0.0000 O   0  0  0  0  0  0  0  0  0
   -3.4178   -2.8313    0.0000 N   0  0  0  0  0  0  0  0  0
   -3.2453   -2.0245    0.0000 C   0  0  0  0  0  0  0  0  0
   -3.9593   -1.6112    0.0000 C   0  0  0  0  0  0  0  0  0
   -4.5730   -2.1625    0.0000 C   0  0  0  0  0  0  0  0  0
   -4.2384   -2.9165    0.0000 C   0  0  0  0  0  0  0  0  0
   -2.4604   -1.7705    0.0000 C   0  0  0  0  0  0  0  0  0
   -3.0117   -1.1568    0.0000 O   0  0  0  0  0  0  0  0  0
  1  2  1  0  0  0  0
  1 42  1  0  0  0  0
  2  3  1  0  0  0  0
  2 23  1  0  0  0  0
  2 24  1  0  0  0  0
  3  4  1  0  0  0  0
  4  5  2  0  0  0  0
  4  6  1  0  0  0  0
  6  7  1  0  0  0  0
  6 11  1  0  0  0  0
  7  8  2  0  0  0  0
  8  9  1  0  0  0  0
  8 16  1  0  0  0  0
  9 10  1  0  0  0  0
  9 13  1  0  0  0  0
 10 11  1  0  0  0  0
 10 12  1  0  0  0  0
 13 14  1  0  0  0  0
 14 15  4  0  0  0  0
 14 22  4  0  0  0  0
 15 16  4  0  0  0  0
 15 20  4  0  0  0  0
 16 17  4  0  0  0  0
 17 18  4  0  0  0  0
 18 19  4  0  0  0  0
 19 20  4  0  0  0  0
 20 21  4  0  0  0  0
 21 22  4  0  0  0  0
 24 25  2  0  0  0  0
 24 26  1  0  0  0  0
 26 27  1  0  0  0  0
 26 42  1  0  0  0  0
 27 28  1  0  0  0  0
 27 35  1  0  0  0  0
 28 29  1  0  0  0  0
 29 30  4  0  0  0  0
 29 34  4  0  0  0  0
 30 31  4  0  0  0  0
 31 32  4  0  0  0  0
 32 33  4  0  0  0  0
 33 34  4  0  0  0  0
 35 36  2  0  0  0  0
 35 37  1  0  0  0  0
 37 38  1  0  0  0  0
 37 41  1  0  0  0  0
 38 39  1  0  0  0  0
 38 42  1  0  0  0  0
 39 40  1  0  0  0  0
 40 41  1  0  0  0  0
 42 43  1  0  0  0  0
M  STY  1   1 DAT
M  SAL   1  1  21
M  SDT   1 MRV_IMPLICIT_H                                        
M  SDD   1     0.0000    0.0000    DR    ALL  0       0  
M  SED   1 IMPL_H1
M  END
>  <Name_Molregno>
ERGOTAMINE

>  <5-HT1A>
9.77

>  <5-HT1B>
8.33

>  <5-HT1D>
9

>  <5-HT1E>
6.58

>  <5-HT2A>
9.1

>  <5-HT2C>
8.37

>  <5-HT3>
5

>  <5-HT6>
7.92

>  <5-HT7>
5.89

>  <Alpha-1A>
5

>  <Alpha-1B>
5

>  <Alpha-2A>
6.97

>  <Alpha-2B>
7.05

>  <Alpha-2C>
5

>  <Beta-1>
5

>  <Beta-2>
5

>  <DOPAMINE D1>
5

>  <DOPAMINE D2>
5

>  <DOPAMINE D4>
5

>  <DOPAMINE D5>
6.77

>  <Dopamine transporter>
5

>  <HISTAMINE H1>
5

>  <HISTAMINE H2>
5

>  <Muscarinic acetylcholine receptor M1>
6.06

>  <Muscarinic acetylcholine receptor M2>
6.04

>  <Muscarinic acetylcholine receptor M3>
5

>  <Muscarinic acetylcholine receptor M4>
5

>  <Muscarinic acetylcholine receptor M5>
5

>  <Norepinephrine transporter>
5

>  <Serotonin transporter>
5

$$$$
ETORICOXIB
  Marvin  02231216192D 0   1.00000     0.00000     0

 24 26  0  0  0  0  0  0  0  0999 V2000
    1.3103    1.0543    0.0000 Cl  0  0  0  0  0  0  0  0  0
    1.3103    0.2293    0.0000 C   0  0  0  0  0  0  0  0  0
    2.0248   -0.1832    0.0000 C   0  0  0  0  0  0  0  0  0
    2.0248   -1.0082    0.0000 C   0  0  0  0  0  0  0  0  0
    1.3103   -1.4207    0.0000 C   0  0  0  0  0  0  0  0  0
    0.5958   -1.0082    0.0000 N   0  0  0  0  0  0  0  0  0
    0.5958   -0.1832    0.0000 C   0  0  0  0  0  0  0  0  0
    1.3103   -2.2457    0.0000 C   0  0  0  0  0  0  0  0  0
    2.0248   -2.6582    0.0000 C   0  0  0  0  0  0  0  0  0
    2.0248   -3.4832    0.0000 C   0  0  0  0  0  0  0  0  0
    1.3103   -3.8957    0.0000 C   0  0  0  0  0  0  0  0  0
    0.5958   -3.4832    0.0000 N   0  0  0  0  0  0  0  0  0
    0.5958   -2.6582    0.0000 C   0  0  0  0  0  0  0  0  0
    1.3103   -4.7207    0.0000 C   0  0  0  0  0  0  0  0  0
    2.7392   -1.4207    0.0000 C   0  0  0  0  0  0  0  0  0
    3.4537   -1.0082    0.0000 C   0  0  0  0  0  0  0  0  0
    4.1682   -1.4207    0.0000 C   0  0  0  0  0  0  0  0  0
    4.1682   -2.2457    0.0000 C   0  0  0  0  0  0  0  0  0
    4.8826   -2.6582    0.0000 S   0  0  0  0  0  0  0  0  0
    5.5971   -3.0707    0.0000 O   0  0  0  0  0  0  0  0  0
    4.4701   -3.3727    0.0000 O   0  0  0  0  0  0  0  0  0
    5.2951   -1.9437    0.0000 C   0  0  0  0  0  0  0  0  0
    3.4537   -2.6582    0.0000 C   0  0  0  0  0  0  0  0  0
    2.7392   -2.2457    0.0000 C   0  0  0  0  0  0  0  0  0
  1  2  1  0  0  0  0
  2  3  4  0  0  0  0
  2  7  4  0  0  0  0
  3  4  4  0  0  0  0
  4  5  4  0  0  0  0
  4 15  1  0  0  0  0
  5  6  4  0  0  0  0
  5  8  1  0  0  0  0
  6  7  4  0  0  0  0
  8  9  4  0  0  0  0
  8 13  4  0  0  0  0
  9 10  4  0  0  0  0
 10 11  4  0  0  0  0
 11 12  4  0  0  0  0
 11 14  1  0  0  0  0
 12 13  4  0  0  0  0
 15 16  4  0  0  0  0
 15 24  4  0  0  0  0
 16 17  4  0  0  0  0
 17 18  4  0  0  0  0
 18 19  1  0  0  0  0
 18 23  4  0  0  0  0
 19 20  2  0  0  0  0
 19 21  2  0  0  0  0
 19 22  1  0  0  0  0
 23 24  4  0  0  0  0
M  END
>  <Name_Molregno>
ETORICOXIB

>  <5-HT1A>
5

>  <5-HT1B>
5

>  <5-HT1D>
5

>  <5-HT1E>
5

>  <5-HT2A>
5

>  <5-HT3>
5

>  <5-HT6>
5

>  <5-HT7>
5

>  <Alpha-1A>
5

>  <Alpha-1B>
5

>  <Alpha-2A>
5

>  <Alpha-2B>
5

>  <Alpha-2C>
5

>  <DOPAMINE D1>
5

>  <DOPAMINE D2>
5

>  <DOPAMINE D5>
5

>  <Dopamine transporter>
5

>  <HISTAMINE H2>
5

>  <HISTAMINE H4>
5

>  <Muscarinic acetylcholine receptor M1>
5

>  <Norepinephrine transporter>
5

>  <Serotonin transporter>
5

$$$$
Fluorocarazolol
  Marvin  02231216192D 0   1.00000     0.00000     0

 23 25  0  0  1  0  0  0  0  0999 V2000
   -0.1270    1.0228    0.0000 F   0  0  0  0  0  0  0  0  0
    0.5874    0.6103    0.0000 C   0  0  0  0  0  0  0  0  0
    1.3019    1.0228    0.0000 C   0  0  0  0  0  0  0  0  0
    2.0164    0.6103    0.0000 N   0  0  0  0  0  0  0  0  0
    2.7309    1.0228    0.0000 C   0  0  0  0  0  0  0  0  0
    3.4453    0.6103    0.0000 C   0  0  0  0  0  0  0  0  0
    3.4453   -0.2147    0.0000 O   0  0  0  0  0  0  0  0  0
    4.1598    1.0228    0.0000 C   0  0  0  0  0  0  0  0  0
    4.8743    0.6103    0.0000 O   0  0  0  0  0  0  0  0  0
    5.5887    1.0228    0.0000 C   0  0  0  0  0  0  0  0  0
    6.3032    0.6103    0.0000 C   0  0  0  0  0  0  0  0  0
    6.4747   -0.1966    0.0000 C   0  0  0  0  0  0  0  0  0
    7.2952   -0.2829    0.0000 C   0  0  0  0  0  0  0  0  0
    7.6308    0.4708    0.0000 N   0  0  0  0  0  0  0  0  0
    7.0177    1.0228    0.0000 C   0  0  0  0  0  0  0  0  0
    7.0177    1.8478    0.0000 C   0  0  0  0  0  0  0  0  0
    6.3032    2.2603    0.0000 C   0  0  0  0  0  0  0  0  0
    5.5887    1.8478    0.0000 C   0  0  0  0  0  0  0  0  0
    7.6308   -1.0365    0.0000 C   0  0  0  0  0  0  0  0  0
    7.1459   -1.7040    0.0000 C   0  0  0  0  0  0  0  0  0
    6.3254   -1.6178    0.0000 C   0  0  0  0  0  0  0  0  0
    5.9898   -0.8641    0.0000 C   0  0  0  0  0  0  0  0  0
    1.3019    1.8478    0.0000 C   0  0  0  0  0  0  0  0  0
  1  2  1  0  0  0  0
  2  3  1  0  0  0  0
  3  4  1  0  0  0  0
  3 23  1  0  0  0  0
  4  5  1  0  0  0  0
  5  6  1  0  0  0  0
  6  7  1  0  0  0  0
  6  8  1  0  0  0  0
  8  9  1  0  0  0  0
  9 10  1  0  0  0  0
 10 11  4  0  0  0  0
 10 18  4  0  0  0  0
 11 12  4  0  0  0  0
 11 15  4  0  0  0  0
 12 13  4  0  0  0  0
 12 22  4  0  0  0  0
 13 14  4  0  0  0  0
 13 19  4  0  0  0  0
 14 15  4  0  0  0  0
 15 16  4  0  0  0  0
 16 17  4  0  0  0  0
 17 18  4  0  0  0  0
 19 20  4  0  0  0  0
 20 21  4  0  0  0  0
 21 22  4  0  0  0  0
M  STY  1   1 DAT
M  SAL   1  1  14
M  SDT   1 MRV_IMPLICIT_H                                        
M  SDD   1     0.0000    0.0000    DR    ALL  0       0  
M  SED   1 IMPL_H1
M  END
>  <Name_Molregno>
Fluorocarazolol

>  <5-HT1A>
6.97

>  <5-HT1B>
6.31

>  <5-HT1D>
5.5

>  <5-HT1E>
5

>  <5-HT3>
5

>  <5-HT5>
5

>  <5-HT6>
5

>  <5-HT7>
5.17

>  <Alpha-1A>
5.85

>  <Alpha-1B>
5.76

>  <Alpha-2A>
5.5

>  <Alpha-2B>
5.03

>  <Alpha-2C>
5.54

>  <Beta-1>
9.65

>  <Beta-2>
9.98

>  <DOPAMINE D1>
5

>  <DOPAMINE D5>
5

>  <Muscarinic acetylcholine receptor M1>
5.66

>  <Muscarinic acetylcholine receptor M2>
5

>  <Muscarinic acetylcholine receptor M3>
5.4

>  <Muscarinic acetylcholine receptor M4>
5.14

>  <Muscarinic acetylcholine receptor M5>
5.27

>  <Norepinephrine transporter>
5

>  <Serotonin transporter>
5

$$$$
FLUPHENAZINE
  Marvin  02231216192D 0   1.00000     0.00000     0

 38 41  0  0  0  0  0  0  0  0999 V2000
   -7.1492   -1.5262    0.0000 S   0  0  0  0  0  0  0  0  0
   -7.1492   -2.3512    0.0000 C   0  0  0  0  0  0  0  0  0
   -6.4348   -2.7637    0.0000 C   0  0  0  0  0  0  0  0  0
   -5.7203   -2.3512    0.0000 N   0  0  0  0  0  0  0  0  0
   -5.7203   -1.5262    0.0000 C   0  0  0  0  0  0  0  0  0
   -6.4348   -1.1137    0.0000 C   0  0  0  0  0  0  0  0  0
   -6.4348   -0.2887    0.0000 C   0  0  0  0  0  0  0  0  0
   -5.7203    0.1238    0.0000 C   0  0  0  0  0  0  0  0  0
   -5.0058   -0.2887    0.0000 C   0  0  0  0  0  0  0  0  0
   -5.0058   -1.1137    0.0000 C   0  0  0  0  0  0  0  0  0
   -5.0058   -2.7637    0.0000 C   0  0  0  0  0  0  0  0  0
   -4.2914   -2.3512    0.0000 C   0  0  0  0  0  0  0  0  0
   -3.5769   -2.7637    0.0000 C   0  0  0  0  0  0  0  0  0
   -2.8624   -2.3512    0.0000 N   0  0  0  0  0  0  0  0  0
   -2.8624   -1.5262    0.0000 C   0  0  0  0  0  0  0  0  0
   -2.1479   -1.1137    0.0000 C   0  0  0  0  0  0  0  0  0
   -1.4335   -1.5262    0.0000 N   0  0  0  0  0  0  0  0  0
   -1.4335   -2.3512    0.0000 C   0  0  0  0  0  0  0  0  0
   -2.1479   -2.7637    0.0000 C   0  0  0  0  0  0  0  0  0
   -0.7190   -1.1137    0.0000 C   0  0  0  0  0  0  0  0  0
   -0.0045   -1.5262    0.0000 C   0  0  0  0  0  0  0  0  0
    0.7099   -1.1137    0.0000 O   0  0  0  0  0  0  0  0  0
    1.4244   -1.5262    0.0000 C   0  0  0  0  0  0  0  0  0
    1.4244   -2.3512    0.0000 O   0  0  0  0  0  0  0  0  0
    2.1389   -1.1137    0.0000 C   0  0  0  0  0  0  0  0  0
    2.8534   -1.5262    0.0000 C   0  0  0  0  0  0  0  0  0
    3.5678   -1.1137    0.0000 C   0  0  0  0  0  0  0  0  0
    4.2823   -1.5262    0.0000 C   0  0  0  0  0  0  0  0  0
    4.9968   -1.1137    0.0000 C   0  0  0  0  0  0  0  0  0
    5.7112   -1.5262    0.0000 C   0  0  0  0  0  0  0  0  0
   -6.4348   -3.5887    0.0000 C   0  0  0  0  0  0  0  0  0
   -7.1492   -4.0012    0.0000 C   0  0  0  0  0  0  0  0  0
   -7.8637   -3.5887    0.0000 C   0  0  0  0  0  0  0  0  0
   -7.8637   -2.7637    0.0000 C   0  0  0  0  0  0  0  0  0
   -7.1492   -4.8262    0.0000 C   0  0  0  0  0  0  0  0  0
   -7.1492   -5.6512    0.0000 F   0  0  0  0  0  0  0  0  0
   -7.9742   -4.8262    0.0000 F   0  0  0  0  0  0  0  0  0
   -6.3242   -4.8262    0.0000 F   0  0  0  0  0  0  0  0  0
  1  2  1  0  0  0  0
  1  6  1  0  0  0  0
  2  3  4  0  0  0  0
  2 34  4  0  0  0  0
  3  4  1  0  0  0  0
  3 31  4  0  0  0  0
  4  5  1  0  0  0  0
  4 11  1  0  0  0  0
  5  6  4  0  0  0  0
  5 10  4  0  0  0  0
  6  7  4  0  0  0  0
  7  8  4  0  0  0  0
  8  9  4  0  0  0  0
  9 10  4  0  0  0  0
 11 12  1  0  0  0  0
 12 13  1  0  0  0  0
 13 14  1  0  0  0  0
 14 15  1  0  0  0  0
 14 19  1  0  0  0  0
 15 16  1  0  0  0  0
 16 17  1  0  0  0  0
 17 18  1  0  0  0  0
 17 20  1  0  0  0  0
 18 19  1  0  0  0  0
 20 21  1  0  0  0  0
 21 22  1  0  0  0  0
 22 23  1  0  0  0  0
 23 24  2  0  0  0  0
 23 25  1  0  0  0  0
 25 26  1  0  0  0  0
 26 27  1  0  0  0  0
 27 28  1  0  0  0  0
 28 29  1  0  0  0  0
 29 30  1  0  0  0  0
 31 32  4  0  0  0  0
 32 33  4  0  0  0  0
 32 35  1  0  0  0  0
 33 34  4  0  0  0  0
 35 36  1  0  0  0  0
 35 37  1  0  0  0  0
 35 38  1  0  0  0  0
M  END
>  <Name_Molregno>
FLUPHENAZINE

>  <5-HT1A>
6.41

>  <5-HT1B>
6.48

>  <5-HT1D>
6.48

>  <5-HT1E>
6.27

>  <5-HT2A>
7.87

>  <5-HT2C>
6.05

>  <5-HT3>
5

>  <5-HT5>
6.84

>  <5-HT6>
7.46

>  <5-HT7>
8.1

>  <Alpha-1A>
8.19

>  <Alpha-1B>
7.89

>  <Alpha-2A>
6.5

>  <Alpha-2B>
7.09

>  <Alpha-2C>
7.54

>  <Beta-1>
5

>  <Beta-2>
5

>  <DOPAMINE D1>
7.55

>  <DOPAMINE D2>
9.22

>  <DOPAMINE D3>
9.33

>  <DOPAMINE D4>
7.52

>  <DOPAMINE D5>
7.82

>  <Dopamine transporter>
5

>  <HISTAMINE H1>
7.72

>  <HISTAMINE H2>
6.25

>  <HISTAMINE H3>
6

>  <HISTAMINE H4>
5

>  <Muscarinic acetylcholine receptor M1>
5.96

>  <Muscarinic acetylcholine receptor M2>
5.14

>  <Muscarinic acetylcholine receptor M3>
5.84

>  <Muscarinic acetylcholine receptor M4>
5.27

>  <Muscarinic acetylcholine receptor M5>
6.45

>  <Norepinephrine transporter>
5.51

>  <Serotonin transporter>
5.23

$$$$
HALOPERIDOL
  Marvin  02231216192D 0   1.00000     0.00000     0

 26 28  0  0  0  0  0  0  0  0999 V2000
    1.7138    2.6466    0.0000 Cl  0  0  0  0  0  0  0  0  0
    1.9960    1.8714    0.0000 C   0  0  0  0  0  0  0  0  0
    2.8084    1.7281    0.0000 C   0  0  0  0  0  0  0  0  0
    3.0906    0.9529    0.0000 C   0  0  0  0  0  0  0  0  0
    2.5603    0.3209    0.0000 C   0  0  0  0  0  0  0  0  0
    1.7478    0.4642    0.0000 C   0  0  0  0  0  0  0  0  0
    1.4657    1.2394    0.0000 C   0  0  0  0  0  0  0  0  0
    2.8425   -0.4543    0.0000 C   0  0  0  0  0  0  0  0  0
    2.0300   -0.5976    0.0000 O   0  0  0  0  0  0  0  0  0
    3.5569   -0.0418    0.0000 C   0  0  0  0  0  0  0  0  0
    4.2714   -0.4543    0.0000 C   0  0  0  0  0  0  0  0  0
    4.2714   -1.2793    0.0000 N   0  0  0  0  0  0  0  0  0
    3.5569   -1.6918    0.0000 C   0  0  0  0  0  0  0  0  0
    2.8425   -1.2793    0.0000 C   0  0  0  0  0  0  0  0  0
    4.9859   -1.6918    0.0000 C   0  0  0  0  0  0  0  0  0
    5.7003   -1.2793    0.0000 C   0  0  0  0  0  0  0  0  0
    6.4148   -1.6918    0.0000 C   0  0  0  0  0  0  0  0  0
    7.1293   -1.2793    0.0000 C   0  0  0  0  0  0  0  0  0
    7.1293   -0.4543    0.0000 O   0  0  0  0  0  0  0  0  0
    7.8438   -1.6918    0.0000 C   0  0  0  0  0  0  0  0  0
    8.5582   -1.2793    0.0000 C   0  0  0  0  0  0  0  0  0
    9.2727   -1.6918    0.0000 C   0  0  0  0  0  0  0  0  0
    9.2727   -2.5168    0.0000 C   0  0  0  0  0  0  0  0  0
    9.9872   -2.9293    0.0000 F   0  0  0  0  0  0  0  0  0
    8.5582   -2.9293    0.0000 C   0  0  0  0  0  0  0  0  0
    7.8438   -2.5168    0.0000 C   0  0  0  0  0  0  0  0  0
  1  2  1  0  0  0  0
  2  3  4  0  0  0  0
  2  7  4  0  0  0  0
  3  4  4  0  0  0  0
  4  5  4  0  0  0  0
  5  6  4  0  0  0  0
  5  8  1  0  0  0  0
  6  7  4  0  0  0  0
  8  9  1  0  0  0  0
  8 10  1  0  0  0  0
  8 14  1  0  0  0  0
 10 11  1  0  0  0  0
 11 12  1  0  0  0  0
 12 13  1  0  0  0  0
 12 15  1  0  0  0  0
 13 14  1  0  0  0  0
 15 16  1  0  0  0  0
 16 17  1  0  0  0  0
 17 18  1  0  0  0  0
 18 19  2  0  0  0  0
 18 20  1  0  0  0  0
 20 21  4  0  0  0  0
 20 26  4  0  0  0  0
 21 22  4  0  0  0  0
 22 23  4  0  0  0  0
 23 24  1  0  0  0  0
 23 25  4  0  0  0  0
 25 26  4  0  0  0  0
M  END
>  <Name_Molregno>
HALOPERIDOL

>  <5-HT1A>
5.67

>  <5-HT1B>
6.63

>  <5-HT1D>
5.56

>  <5-HT1E>
5.15

>  <5-HT2A>
7.01

>  <5-HT2C>
5.24

>  <5-HT3>
5

>  <5-HT5>
5.65

>  <5-HT6>
5.28

>  <5-HT7>
6.32

>  <Alpha-1A>
7.92

>  <Alpha-1B>
8.1

>  <Alpha-2A>
6.04

>  <Alpha-2B>
6.32

>  <Alpha-2C>
6.34

>  <Beta-1>
5

>  <Beta-2>
5.15

>  <DOPAMINE D1>
7.22

>  <DOPAMINE D2>
8.75

>  <DOPAMINE D3>
8.33

>  <DOPAMINE D4>
8.29

>  <DOPAMINE D5>
7.03

>  <Dopamine transporter>
5

>  <HISTAMINE H1>
6.04

>  <HISTAMINE H2>
6

>  <HISTAMINE H4>
5

>  <Muscarinic acetylcholine receptor M1>
5.4

>  <Muscarinic acetylcholine receptor M2>
5

>  <Muscarinic acetylcholine receptor M3>
5

>  <Muscarinic acetylcholine receptor M4>
5

>  <Muscarinic acetylcholine receptor M5>
5.59

>  <Norepinephrine transporter>
5.68

>  <Serotonin transporter>
5.74

$$$$
HISTAMINE
  Marvin  02231216192D 0   1.00000     0.00000     0

  8  8  0  0  0  0  0  0  0  0999 V2000
    1.0236   -1.0521    0.0000 N   0  0  0  0  0  0  0  0  0
    0.7687   -1.8367    0.0000 C   0  0  0  0  0  0  0  0  0
   -0.0563   -1.8367    0.0000 N   0  0  0  0  0  0  0  0  0
   -0.3113   -1.0521    0.0000 C   0  0  0  0  0  0  0  0  0
    0.3562   -0.5672    0.0000 C   0  0  0  0  0  0  0  0  0
    0.3562    0.2578    0.0000 C   0  0  0  0  0  0  0  0  0
    1.0706    0.6703    0.0000 C   0  0  0  0  0  0  0  0  0
    1.0706    1.4953    0.0000 N   0  0  0  0  0  0  0  0  0
  1  2  4  0  0  0  0
  1  5  4  0  0  0  0
  2  3  4  0  0  0  0
  3  4  4  0  0  0  0
  4  5  4  0  0  0  0
  5  6  1  0  0  0  0
  6  7  1  0  0  0  0
  7  8  1  0  0  0  0
M  STY  1   1 DAT
M  SAL   1  1   1
M  SDT   1 MRV_IMPLICIT_H                                        
M  SDD   1     0.0000    0.0000    DR    ALL  0       0  
M  SED   1 IMPL_H1
M  END
>  <Name_Molregno>
HISTAMINE

>  <5-HT2A>
5

>  <5-HT3>
5

>  <5-HT7>
5

>  <HISTAMINE H1>
5.5

>  <HISTAMINE H2>
5

>  <HISTAMINE H3>
7.87

>  <HISTAMINE H4>
7.46

$$$$
Hyperforin
  Marvin  02231216192D 0   1.00000     0.00000     0

 39 40  0  0  1  0  0  0  0  0999 V2000
   -0.0475    3.0141    0.0000 O   0  0  0  0  0  0  0  0  0
    0.7326    2.5988    0.0000 C   0  0  0  0  0  0  0  0  0
    1.6516    2.5995    0.0000 C   0  0  0  0  0  0  0  0  0
    1.7130    1.6464    0.0000 C   0  0  0  0  0  0  0  0  0
    1.3009    1.0655    0.0000 C   0  0  0  0  0  0  0  0  0
    0.9271    0.2926    0.0000 C   0  0  0  0  0  0  0  0  0
    0.6406   -0.4973    0.0000 C   0  0  0  0  0  0  0  0  0
   -0.1718   -0.6414    0.0000 C   0  0  0  0  0  0  0  0  0
   -0.7027   -0.0100    0.0000 C   0  0  0  0  0  0  0  0  0
   -0.4531   -1.4170    0.0000 C   0  0  0  0  0  0  0  0  0
    2.1172    1.2450    0.0000 C   0  0  0  0  0  0  0  0  0
    2.4176    0.4250    0.0000 C   0  0  0  0  0  0  0  0  0
    3.1181   -0.0803    0.0000 C   0  0  0  0  0  0  0  0  0
    3.0346   -0.9010    0.0000 C   0  0  0  0  0  0  0  0  0
    2.2821   -1.2391    0.0000 C   0  0  0  0  0  0  0  0  0
    1.6130   -0.7565    0.0000 C   0  0  0  0  0  0  0  0  0
    2.1987   -2.0599    0.0000 C   0  0  0  0  0  0  0  0  0
    2.9989    1.2958    0.0000 C   0  0  0  0  0  0  0  0  0
    2.0702    2.2319    0.0000 C   0  0  0  0  0  0  0  0  0
    2.8036    2.7016    0.0000 C   0  0  0  0  0  0  0  0  0
    2.8813    3.6702    0.0000 O   0  0  0  0  0  0  0  0  0
    3.6516    2.8271    0.0000 C   0  0  0  0  0  0  0  0  0
    3.9551    3.5942    0.0000 C   0  0  0  0  0  0  0  0  0
    4.1642    2.1806    0.0000 C   0  0  0  0  0  0  0  0  0
    2.0364    2.8705    0.0000 C   0  0  0  0  0  0  0  0  0
    2.9600    3.1637    0.0000 O   0  0  0  0  0  0  0  0  0
    1.1102    2.2212    0.0000 C   0  0  0  0  0  0  0  0  0
    0.8447    3.1353    0.0000 O   0  0  0  0  0  0  0  0  0
    0.6057    1.7969    0.0000 C   0  0  0  0  0  0  0  0  0
   -0.1558    1.3974    0.0000 C   0  0  0  0  0  0  0  0  0
   -0.9549    1.0682    0.0000 C   0  0  0  0  0  0  0  0  0
   -1.6085    1.5717    0.0000 C   0  0  0  0  0  0  0  0  0
   -2.3713    1.2575    0.0000 C   0  0  0  0  0  0  0  0  0
   -1.4992    2.3895    0.0000 C   0  0  0  0  0  0  0  0  0
    1.5780    3.5970    0.0000 C   0  0  0  0  0  0  0  0  0
    1.5386    4.4833    0.0000 C   0  0  0  0  0  0  0  0  0
    0.8065    4.8636    0.0000 C   0  0  0  0  0  0  0  0  0
    0.7698    5.6878    0.0000 C   0  0  0  0  0  0  0  0  0
    0.1111    4.4198    0.0000 C   0  0  0  0  0  0  0  0  0
  1  2  1  0  0  0  0
  2  3  1  0  0  0  0
  2 29  2  0  0  0  0
  3  4  1  0  0  0  0
  3 25  1  0  0  0  0
  3 35  1  0  0  0  0
  4  5  1  0  0  0  0
  5  6  1  0  0  0  0
  5 11  1  0  0  0  0
  6  7  1  0  0  0  0
  7  8  2  0  0  0  0
  8  9  1  0  0  0  0
  8 10  1  0  0  0  0
 11 12  1  0  0  0  0
 11 18  1  0  0  0  0
 11 19  1  0  0  0  0
 12 13  1  0  0  0  0
 13 14  1  0  0  0  0
 14 15  2  0  0  0  0
 15 16  1  0  0  0  0
 15 17  1  0  0  0  0
 19 20  1  0  0  0  0
 19 25  1  0  0  0  0
 19 27  1  0  0  0  0
 20 21  2  0  0  0  0
 20 22  1  0  0  0  0
 22 23  1  0  0  0  0
 22 24  1  0  0  0  0
 25 26  2  0  0  0  0
 27 28  2  0  0  0  0
 27 29  1  0  0  0  0
 29 30  1  0  0  0  0
 30 31  1  0  0  0  0
 31 32  2  0  0  0  0
 32 33  1  0  0  0  0
 32 34  1  0  0  0  0
 35 36  1  0  0  0  0
 36 37  2  0  0  0  0
 37 38  1  0  0  0  0
 37 39  1  0  0  0  0
M  END
>  <Name_Molregno>
Hyperforin

>  <5-HT1A>
5

>  <5-HT1D>
5

>  <5-HT3>
5

>  <5-HT5>
5

>  <5-HT6>
5

>  <5-HT7>
5

>  <Alpha-1A>
5

>  <Alpha-1B>
5

>  <Alpha-2A>
5

>  <Alpha-2B>
5

>  <Alpha-2C>
5

>  <DOPAMINE D1>
6.22

>  <DOPAMINE D5>
5

>  <Muscarinic acetylcholine receptor M1>
5

>  <Muscarinic acetylcholine receptor M2>
5

>  <Muscarinic acetylcholine receptor M3>
5

>  <Muscarinic acetylcholine receptor M4>
5

>  <Muscarinic acetylcholine receptor M5>
5

>  <Norepinephrine transporter>
5

>  <Serotonin transporter>
5

$$$$
Hypericin
  Marvin  02231216192D 0   1.00000     0.00000     0

 39 46  0  0  0  0  0  0  0  0999 V2000
   -0.3746   -3.0738    0.0000 O   0  0  0  0  0  0  0  0  0
    0.1655   -2.4502    0.0000 C   0  0  0  0  0  0  0  0  0
    0.9756   -2.6061    0.0000 C   0  0  0  0  0  0  0  0  0
    1.5157   -1.9824    0.0000 C   0  0  0  0  0  0  0  0  0
    1.2457   -1.2029    0.0000 C   0  0  0  0  0  0  0  0  0
    1.7858   -0.5792    0.0000 C   0  0  0  0  0  0  0  0  0
    2.5959   -0.7352    0.0000 C   0  0  0  0  0  0  0  0  0
    3.1360   -0.1115    0.0000 C   0  0  0  0  0  0  0  0  0
    3.9461   -0.2674    0.0000 C   0  0  0  0  0  0  0  0  0
    4.4862    0.3562    0.0000 O   0  0  0  0  0  0  0  0  0
    4.2162   -1.0470    0.0000 C   0  0  0  0  0  0  0  0  0
    3.6761   -1.6706    0.0000 C   0  0  0  0  0  0  0  0  0
    3.9461   -2.4502    0.0000 C   0  0  0  0  0  0  0  0  0
    3.4060   -3.0738    0.0000 C   0  0  0  0  0  0  0  0  0
    2.5959   -2.9179    0.0000 C   0  0  0  0  0  0  0  0  0
    2.0558   -3.5415    0.0000 C   0  0  0  0  0  0  0  0  0
    1.2457   -3.3856    0.0000 C   0  0  0  0  0  0  0  0  0
    0.7056   -4.0093    0.0000 O   0  0  0  0  0  0  0  0  0
    2.3258   -4.3211    0.0000 C   0  0  0  0  0  0  0  0  0
    1.7858   -4.9447    0.0000 O   0  0  0  0  0  0  0  0  0
    3.1360   -4.4770    0.0000 C   0  0  0  0  0  0  0  0  0
    3.6761   -3.8534    0.0000 C   0  0  0  0  0  0  0  0  0
    4.4862   -4.0093    0.0000 O   0  0  0  0  0  0  0  0  0
    2.3258   -2.1384    0.0000 C   0  0  0  0  0  0  0  0  0
    2.8659   -1.5147    0.0000 C   0  0  0  0  0  0  0  0  0
    4.7562   -2.6061    0.0000 C   0  0  0  0  0  0  0  0  0
    5.0263   -3.3856    0.0000 O   0  0  0  0  0  0  0  0  0
    5.2963   -1.9824    0.0000 C   0  0  0  0  0  0  0  0  0
    5.0263   -1.2029    0.0000 C   0  0  0  0  0  0  0  0  0
    5.5664   -0.5792    0.0000 O   0  0  0  0  0  0  0  0  0
    2.8659    0.6680    0.0000 C   0  0  0  0  0  0  0  0  0
    3.4060    1.2917    0.0000 O   0  0  0  0  0  0  0  0  0
    2.0558    0.8239    0.0000 C   0  0  0  0  0  0  0  0  0
    1.5157    0.2003    0.0000 C   0  0  0  0  0  0  0  0  0
    0.7056    0.3562    0.0000 C   0  0  0  0  0  0  0  0  0
    0.4355   -1.0470    0.0000 C   0  0  0  0  0  0  0  0  0
   -0.1046   -1.6706    0.0000 C   0  0  0  0  0  0  0  0  0
    0.1655   -0.2674    0.0000 C   0  0  0  0  0  0  0  0  0
   -0.6446   -0.1115    0.0000 O   0  0  0  0  0  0  0  0  0
  1  2  1  0  0  0  0
  2  3  4  0  0  0  0
  2 37  4  0  0  0  0
  3  4  4  0  0  0  0
  3 17  1  0  0  0  0
  4  5  4  0  0  0  0
  4 24  4  0  0  0  0
  5  6  4  0  0  0  0
  5 36  4  0  0  0  0
  6  7  4  0  0  0  0
  6 34  4  0  0  0  0
  7  8  4  0  0  0  0
  7 25  4  0  0  0  0
  8  9  1  0  0  0  0
  8 31  4  0  0  0  0
  9 10  2  0  0  0  0
  9 11  1  0  0  0  0
 11 12  4  0  0  0  0
 11 29  4  0  0  0  0
 12 13  4  0  0  0  0
 12 25  4  0  0  0  0
 13 14  4  0  0  0  0
 13 26  4  0  0  0  0
 14 15  4  0  0  0  0
 14 22  4  0  0  0  0
 15 16  4  0  0  0  0
 15 24  4  0  0  0  0
 16 17  1  0  0  0  0
 16 19  4  0  0  0  0
 17 18  2  0  0  0  0
 19 20  1  0  0  0  0
 19 21  4  0  0  0  0
 21 22  4  0  0  0  0
 22 23  1  0  0  0  0
 24 25  4  0  0  0  0
 26 27  1  0  0  0  0
 26 28  4  0  0  0  0
 28 29  4  0  0  0  0
 29 30  1  0  0  0  0
 31 32  1  0  0  0  0
 31 33  4  0  0  0  0
 33 34  4  0  0  0  0
 34 35  1  0  0  0  0
 36 37  4  0  0  0  0
 36 38  1  0  0  0  0
 38 39  1  0  0  0  0
M  END
>  <Name_Molregno>
Hypericin

>  <5-HT1A>
5

>  <5-HT1D>
5

>  <5-HT3>
5

>  <5-HT5>
5

>  <5-HT6>
5

>  <5-HT7>
5

>  <Alpha-1A>
5

>  <Alpha-1B>
5

>  <Alpha-2A>
5

>  <Alpha-2B>
5

>  <Alpha-2C>
5

>  <DOPAMINE D1>
5

>  <DOPAMINE D5>
5

>  <Muscarinic acetylcholine receptor M1>
5

>  <Muscarinic acetylcholine receptor M2>
5

>  <Muscarinic acetylcholine receptor M3>
5

>  <Muscarinic acetylcholine receptor M4>
5

>  <Muscarinic acetylcholine receptor M5>
5

>  <Norepinephrine transporter>
5

>  <Serotonin transporter>
5

$$$$
Hyperoside
  Marvin  02231216192D 0   1.00000     0.00000     0

 33 36  0  0  1  0  0  0  0  0999 V2000
    1.3731    1.4076    0.0000 O   0  0  0  0  0  0  0  0  0
    1.3731    2.2326    0.0000 C   0  0  0  0  0  0  0  0  0
    2.0876    2.6451    0.0000 C   0  0  0  0  0  0  0  0  0
    2.0876    3.4701    0.0000 O   0  0  0  0  0  0  0  0  0
    0.6587    2.6451    0.0000 C   0  0  0  0  0  0  0  0  0
    0.6587    3.4701    0.0000 O   0  0  0  0  0  0  0  0  0
   -0.0558    2.2326    0.0000 C   0  0  0  0  0  0  0  0  0
   -0.7703    2.6451    0.0000 O   0  0  0  0  0  0  0  0  0
   -0.0558    1.4076    0.0000 C   0  0  0  0  0  0  0  0  0
   -0.7703    0.9951    0.0000 O   0  0  0  0  0  0  0  0  0
    0.6587    0.9951    0.0000 C   0  0  0  0  0  0  0  0  0
    0.6587    0.1701    0.0000 O   0  0  0  0  0  0  0  0  0
    1.3731   -0.2424    0.0000 C   0  0  0  0  0  0  0  0  0
    1.3731   -1.0674    0.0000 C   0  0  0  0  0  0  0  0  0
    2.0876   -1.4799    0.0000 O   0  0  0  0  0  0  0  0  0
    2.8021   -1.0674    0.0000 C   0  0  0  0  0  0  0  0  0
    2.8021   -0.2424    0.0000 C   0  0  0  0  0  0  0  0  0
    2.0876    0.1701    0.0000 C   0  0  0  0  0  0  0  0  0
    2.0876    0.9951    0.0000 O   0  0  0  0  0  0  0  0  0
    3.5166    0.1701    0.0000 C   0  0  0  0  0  0  0  0  0
    3.5166    0.9951    0.0000 O   0  0  0  0  0  0  0  0  0
    4.2310   -0.2424    0.0000 C   0  0  0  0  0  0  0  0  0
    4.2310   -1.0674    0.0000 C   0  0  0  0  0  0  0  0  0
    4.9455   -1.4799    0.0000 O   0  0  0  0  0  0  0  0  0
    3.5166   -1.4799    0.0000 C   0  0  0  0  0  0  0  0  0
    0.6587   -1.4799    0.0000 C   0  0  0  0  0  0  0  0  0
    0.6587   -2.3049    0.0000 C   0  0  0  0  0  0  0  0  0
   -0.0558   -2.7174    0.0000 C   0  0  0  0  0  0  0  0  0
   -0.0558   -3.5424    0.0000 O   0  0  0  0  0  0  0  0  0
   -0.7703   -2.3049    0.0000 C   0  0  0  0  0  0  0  0  0
   -1.4847   -2.7174    0.0000 O   0  0  0  0  0  0  0  0  0
   -0.7703   -1.4799    0.0000 C   0  0  0  0  0  0  0  0  0
   -0.0558   -1.0674    0.0000 C   0  0  0  0  0  0  0  0  0
  1  2  1  0  0  0  0
  1 11  1  0  0  0  0
  2  3  1  0  0  0  0
  2  5  1  0  0  0  0
  3  4  1  0  0  0  0
  5  6  1  0  0  0  0
  5  7  1  0  0  0  0
  7  8  1  0  0  0  0
  7  9  1  0  0  0  0
  9 10  1  0  0  0  0
  9 11  1  0  0  0  0
 11 12  1  0  0  0  0
 12 13  1  0  0  0  0
 13 14  2  0  0  0  0
 13 18  1  0  0  0  0
 14 15  1  0  0  0  0
 14 26  1  0  0  0  0
 15 16  1  0  0  0  0
 16 17  1  0  0  0  0
 16 25  2  0  0  0  0
 17 18  2  0  0  0  0
 17 20  1  0  0  0  0
 18 19  1  0  0  0  0
 20 21  1  0  0  0  0
 20 22  2  0  0  0  0
 22 23  1  0  0  0  0
 23 24  2  0  0  0  0
 23 25  1  0  0  0  0
 26 27  4  0  0  0  0
 26 33  4  0  0  0  0
 27 28  4  0  0  0  0
 28 29  1  0  0  0  0
 28 30  4  0  0  0  0
 30 31  1  0  0  0  0
 30 32  4  0  0  0  0
 32 33  4  0  0  0  0
M  END
>  <Name_Molregno>
Hyperoside

>  <5-HT1A>
5

>  <5-HT1D>
5

>  <5-HT3>
5

>  <5-HT5>
5

>  <5-HT6>
5

>  <5-HT7>
5

>  <Alpha-1A>
5

>  <Alpha-1B>
5

>  <Alpha-2A>
5.38

>  <Alpha-2B>
5

>  <Alpha-2C>
5.13

>  <DOPAMINE D1>
5

>  <DOPAMINE D5>
5

>  <Muscarinic acetylcholine receptor M1>
5

>  <Muscarinic acetylcholine receptor M2>
5

>  <Muscarinic acetylcholine receptor M3>
5

>  <Muscarinic acetylcholine receptor M4>
5

>  <Muscarinic acetylcholine receptor M5>
5

>  <Norepinephrine transporter>
5

>  <Serotonin transporter>
5

$$$$
ibuprofen
  Marvin  02231216192D 0   1.00000     0.00000     0

 15 15  0  0  1  0  0  0  0  0999 V2000
    3.0591   -3.4943    0.0000 O   0  0  0  0  0  0  0  0  0
    3.0591   -2.6693    0.0000 C   0  0  0  0  0  0  0  0  0
    3.7735   -2.2568    0.0000 O   0  0  0  0  0  0  0  0  0
    2.3446   -2.2568    0.0000 C   0  0  0  0  0  0  0  0  0
    1.6301   -2.6693    0.0000 C   0  0  0  0  0  0  0  0  0
    2.3446   -1.4318    0.0000 C   0  0  0  0  0  0  0  0  0
    1.6301   -1.0193    0.0000 C   0  0  0  0  0  0  0  0  0
    1.6301   -0.1943    0.0000 C   0  0  0  0  0  0  0  0  0
    2.3446    0.2182    0.0000 C   0  0  0  0  0  0  0  0  0
    3.0591   -0.1943    0.0000 C   0  0  0  0  0  0  0  0  0
    3.0591   -1.0193    0.0000 C   0  0  0  0  0  0  0  0  0
    2.3446    1.0432    0.0000 C   0  0  0  0  0  0  0  0  0
    3.0591    1.4557    0.0000 C   0  0  0  0  0  0  0  0  0
    3.0591    2.2807    0.0000 C   0  0  0  0  0  0  0  0  0
    3.7735    1.0432    0.0000 C   0  0  0  0  0  0  0  0  0
  1  2  1  0  0  0  0
  2  3  2  0  0  0  0
  2  4  1  0  0  0  0
  4  5  1  0  0  0  0
  4  6  1  0  0  0  0
  6  7  4  0  0  0  0
  6 11  4  0  0  0  0
  7  8  4  0  0  0  0
  8  9  4  0  0  0  0
  9 10  4  0  0  0  0
  9 12  1  0  0  0  0
 10 11  4  0  0  0  0
 12 13  1  0  0  0  0
 13 14  1  0  0  0  0
 13 15  1  0  0  0  0
M  END
>  <Name_Molregno>
ibuprofen

>  <5-HT1A>
5

>  <5-HT1B>
5

>  <5-HT1D>
5

>  <5-HT1E>
5

>  <5-HT2A>
5

>  <5-HT3>
5

>  <5-HT6>
5

>  <5-HT7>
5

>  <Alpha-1A>
5

>  <Alpha-1B>
5

>  <Alpha-2A>
5

>  <Alpha-2B>
5

>  <Alpha-2C>
5

>  <DOPAMINE D1>
5

>  <DOPAMINE D2>
5

>  <DOPAMINE D4>
5

>  <DOPAMINE D5>
5

>  <Dopamine transporter>
5

>  <HISTAMINE H1>
5

>  <HISTAMINE H2>
5

>  <Muscarinic acetylcholine receptor M2>
5

>  <Muscarinic acetylcholine receptor M5>
5

>  <Norepinephrine transporter>
5

>  <Serotonin transporter>
5

$$$$
ILOPERIDONE
  Marvin  02231216192D 0   1.00000     0.00000     0

 31 34  0  0  0  0  0  0  0  0999 V2000
    9.8408   -5.0338    0.0000 F   0  0  0  0  0  0  0  0  0
    9.1263   -4.6213    0.0000 C   0  0  0  0  0  0  0  0  0
    8.4119   -5.0338    0.0000 C   0  0  0  0  0  0  0  0  0
    7.6974   -4.6213    0.0000 C   0  0  0  0  0  0  0  0  0
    6.9128   -4.8762    0.0000 O   0  0  0  0  0  0  0  0  0
    6.4279   -4.2088    0.0000 N   0  0  0  0  0  0  0  0  0
    6.9128   -3.5413    0.0000 C   0  0  0  0  0  0  0  0  0
    7.6974   -3.7963    0.0000 C   0  0  0  0  0  0  0  0  0
    8.4119   -3.3838    0.0000 C   0  0  0  0  0  0  0  0  0
    9.1263   -3.7963    0.0000 C   0  0  0  0  0  0  0  0  0
    6.6578   -2.7567    0.0000 C   0  0  0  0  0  0  0  0  0
    5.8509   -2.5852    0.0000 C   0  0  0  0  0  0  0  0  0
    5.5959   -1.8006    0.0000 C   0  0  0  0  0  0  0  0  0
    6.1480   -1.1875    0.0000 N   0  0  0  0  0  0  0  0  0
    6.9549   -1.3590    0.0000 C   0  0  0  0  0  0  0  0  0
    7.2099   -2.1436    0.0000 C   0  0  0  0  0  0  0  0  0
    5.8930   -0.4028    0.0000 C   0  0  0  0  0  0  0  0  0
    5.0861   -0.2313    0.0000 C   0  0  0  0  0  0  0  0  0
    4.8311    0.5533    0.0000 C   0  0  0  0  0  0  0  0  0
    4.0241    0.7248    0.0000 O   0  0  0  0  0  0  0  0  0
    3.7692    1.5095    0.0000 C   0  0  0  0  0  0  0  0  0
    2.9622    1.6810    0.0000 C   0  0  0  0  0  0  0  0  0
    2.7073    2.4656    0.0000 C   0  0  0  0  0  0  0  0  0
    3.2593    3.0787    0.0000 C   0  0  0  0  0  0  0  0  0
    4.0663    2.9072    0.0000 C   0  0  0  0  0  0  0  0  0
    4.3212    2.1225    0.0000 C   0  0  0  0  0  0  0  0  0
    5.1282    1.9510    0.0000 O   0  0  0  0  0  0  0  0  0
    5.6802    2.5641    0.0000 C   0  0  0  0  0  0  0  0  0
    3.0044    3.8633    0.0000 C   0  0  0  0  0  0  0  0  0
    2.1974    4.0348    0.0000 O   0  0  0  0  0  0  0  0  0
    3.5564    4.4764    0.0000 C   0  0  0  0  0  0  0  0  0
  1  2  1  0  0  0  0
  2  3  4  0  0  0  0
  2 10  4  0  0  0  0
  3  4  4  0  0  0  0
  4  5  4  0  0  0  0
  4  8  4  0  0  0  0
  5  6  4  0  0  0  0
  6  7  4  0  0  0  0
  7  8  4  0  0  0  0
  7 11  1  0  0  0  0
  8  9  4  0  0  0  0
  9 10  4  0  0  0  0
 11 12  1  0  0  0  0
 11 16  1  0  0  0  0
 12 13  1  0  0  0  0
 13 14  1  0  0  0  0
 14 15  1  0  0  0  0
 14 17  1  0  0  0  0
 15 16  1  0  0  0  0
 17 18  1  0  0  0  0
 18 19  1  0  0  0  0
 19 20  1  0  0  0  0
 20 21  1  0  0  0  0
 21 22  4  0  0  0  0
 21 26  4  0  0  0  0
 22 23  4  0  0  0  0
 23 24  4  0  0  0  0
 24 25  4  0  0  0  0
 24 29  1  0  0  0  0
 25 26  4  0  0  0  0
 26 27  1  0  0  0  0
 27 28  1  0  0  0  0
 29 30  2  0  0  0  0
 29 31  1  0  0  0  0
M  END
>  <Name_Molregno>
ILOPERIDONE

>  <5-HT1A>
7.18

>  <5-HT1B>
7.05

>  <5-HT1D>
7.82

>  <5-HT2A>
9.46

>  <5-HT2C>
7.27

>  <5-HT3>
5

>  <5-HT6>
7.2

>  <5-HT7>
6.95

>  <Alpha-2A>
6.79

>  <Alpha-2B>
6.79

>  <Alpha-2C>
7.79

>  <Beta-1>
5

>  <Beta-2>
5

>  <DOPAMINE D1>
7.02

>  <DOPAMINE D2>
8.23

>  <DOPAMINE D3>
8

>  <DOPAMINE D4>
7.96

>  <DOPAMINE D5>
6.5

>  <Dopamine transporter>
5.53

>  <HISTAMINE H1>
7.91

>  <Muscarinic acetylcholine receptor M1>
5.31

>  <Muscarinic acetylcholine receptor M2>
5.48

>  <Muscarinic acetylcholine receptor M3>
5

>  <Muscarinic acetylcholine receptor M4>
5.08

>  <Muscarinic acetylcholine receptor M5>
5

>  <Norepinephrine transporter>
5.83

$$$$
KETANSERIN
  Marvin  02231216192D 0   1.00000     0.00000     0

 29 32  0  0  0  0  0  0  0  0999 V2000
    2.3505   -3.5857    0.0000 F   0  0  0  0  0  0  0  0  0
    2.3505   -2.7607    0.0000 C   0  0  0  0  0  0  0  0  0
    1.6360   -2.3482    0.0000 C   0  0  0  0  0  0  0  0  0
    1.6360   -1.5232    0.0000 C   0  0  0  0  0  0  0  0  0
    2.3505   -1.1107    0.0000 C   0  0  0  0  0  0  0  0  0
    3.0649   -1.5232    0.0000 C   0  0  0  0  0  0  0  0  0
    3.0649   -2.3482    0.0000 C   0  0  0  0  0  0  0  0  0
    2.3505   -0.2857    0.0000 C   0  0  0  0  0  0  0  0  0
    1.6360    0.1268    0.0000 O   0  0  0  0  0  0  0  0  0
    3.0649    0.1268    0.0000 C   0  0  0  0  0  0  0  0  0
    3.0649    0.9518    0.0000 C   0  0  0  0  0  0  0  0  0
    3.7794    1.3643    0.0000 C   0  0  0  0  0  0  0  0  0
    4.4939    0.9518    0.0000 N   0  0  0  0  0  0  0  0  0
    4.4939    0.1268    0.0000 C   0  0  0  0  0  0  0  0  0
    3.7794   -0.2857    0.0000 C   0  0  0  0  0  0  0  0  0
    5.2083    1.3643    0.0000 C   0  0  0  0  0  0  0  0  0
    5.9228    0.9518    0.0000 C   0  0  0  0  0  0  0  0  0
    6.6373    1.3643    0.0000 N   0  0  0  0  0  0  0  0  0
    7.3518    0.9518    0.0000 C   0  0  0  0  0  0  0  0  0
    7.3518    0.1268    0.0000 O   0  0  0  0  0  0  0  0  0
    8.0662    1.3643    0.0000 C   0  0  0  0  0  0  0  0  0
    8.0662    2.1893    0.0000 C   0  0  0  0  0  0  0  0  0
    7.3518    2.6018    0.0000 N   0  0  0  0  0  0  0  0  0
    6.6373    2.1893    0.0000 C   0  0  0  0  0  0  0  0  0
    5.9228    2.6018    0.0000 O   0  0  0  0  0  0  0  0  0
    8.7807    2.6018    0.0000 C   0  0  0  0  0  0  0  0  0
    9.4952    2.1893    0.0000 C   0  0  0  0  0  0  0  0  0
    9.4952    1.3643    0.0000 C   0  0  0  0  0  0  0  0  0
    8.7807    0.9518    0.0000 C   0  0  0  0  0  0  0  0  0
  1  2  1  0  0  0  0
  2  3  4  0  0  0  0
  2  7  4  0  0  0  0
  3  4  4  0  0  0  0
  4  5  4  0  0  0  0
  5  6  4  0  0  0  0
  5  8  1  0  0  0  0
  6  7  4  0  0  0  0
  8  9  2  0  0  0  0
  8 10  1  0  0  0  0
 10 11  1  0  0  0  0
 10 15  1  0  0  0  0
 11 12  1  0  0  0  0
 12 13  1  0  0  0  0
 13 14  1  0  0  0  0
 13 16  1  0  0  0  0
 14 15  1  0  0  0  0
 16 17  1  0  0  0  0
 17 18  1  0  0  0  0
 18 19  1  0  0  0  0
 18 24  1  0  0  0  0
 19 20  2  0  0  0  0
 19 21  1  0  0  0  0
 21 22  4  0  0  0  0
 21 29  4  0  0  0  0
 22 23  1  0  0  0  0
 22 26  4  0  0  0  0
 23 24  1  0  0  0  0
 24 25  2  0  0  0  0
 26 27  4  0  0  0  0
 27 28  4  0  0  0  0
 28 29  4  0  0  0  0
M  END
>  <Name_Molregno>
KETANSERIN

>  <5-HT1A>
5.28

>  <5-HT1B>
5.48

>  <5-HT1D>
5.65

>  <5-HT1E>
5

>  <5-HT2A>
8.67

>  <5-HT2C>
7.08

>  <5-HT5>
4.7

>  <5-HT6>
5.55

>  <5-HT7>
6.1

>  <Alpha-2B>
6.7

>  <DOPAMINE D1>
6.52

>  <DOPAMINE D2>
5

>  <DOPAMINE D5>
5.6

>  <Dopamine transporter>
5

>  <HISTAMINE H1>
8.75

$$$$
Ketorolac
  Marvin  02231216192D 0   1.00000     0.00000     0

 19 21  0  0  1  0  0  0  0  0999 V2000
    1.4450    2.2138    0.0000 O   0  0  0  0  0  0  0  0  0
    2.2520    2.0422    0.0000 C   0  0  0  0  0  0  0  0  0
    2.8040    2.6553    0.0000 O   0  0  0  0  0  0  0  0  0
    2.5069    1.2576    0.0000 C   0  0  0  0  0  0  0  0  0
    2.0220    0.5902    0.0000 C   0  0  0  0  0  0  0  0  0
    2.5069   -0.0773    0.0000 C   0  0  0  0  0  0  0  0  0
    3.2915    0.1777    0.0000 N   0  0  0  0  0  0  0  0  0
    3.2915    1.0027    0.0000 C   0  0  0  0  0  0  0  0  0
    4.0761    1.2576    0.0000 C   0  0  0  0  0  0  0  0  0
    4.5611    0.5902    0.0000 C   0  0  0  0  0  0  0  0  0
    4.0761   -0.0773    0.0000 C   0  0  0  0  0  0  0  0  0
    4.3311   -0.8619    0.0000 C   0  0  0  0  0  0  0  0  0
    5.1381   -1.0334    0.0000 O   0  0  0  0  0  0  0  0  0
    3.7791   -1.4750    0.0000 C   0  0  0  0  0  0  0  0  0
    4.0340   -2.2596    0.0000 C   0  0  0  0  0  0  0  0  0
    3.4820   -2.8727    0.0000 C   0  0  0  0  0  0  0  0  0
    2.6750   -2.7012    0.0000 C   0  0  0  0  0  0  0  0  0
    2.4201   -1.9166    0.0000 C   0  0  0  0  0  0  0  0  0
    2.9721   -1.3035    0.0000 C   0  0  0  0  0  0  0  0  0
  1  2  1  0  0  0  0
  2  3  2  0  0  0  0
  2  4  1  0  0  0  0
  4  5  1  0  0  0  0
  4  8  1  0  0  0  0
  5  6  1  0  0  0  0
  6  7  1  0  0  0  0
  7  8  4  0  0  0  0
  7 11  4  0  0  0  0
  8  9  4  0  0  0  0
  9 10  4  0  0  0  0
 10 11  4  0  0  0  0
 11 12  1  0  0  0  0
 12 13  2  0  0  0  0
 12 14  1  0  0  0  0
 14 15  4  0  0  0  0
 14 19  4  0  0  0  0
 15 16  4  0  0  0  0
 16 17  4  0  0  0  0
 17 18  4  0  0  0  0
 18 19  4  0  0  0  0
M  END
>  <Name_Molregno>
Ketorolac

>  <5-HT1A>
5

>  <5-HT1B>
5

>  <5-HT1D>
5

>  <5-HT1E>
5

>  <5-HT2A>
5

>  <5-HT3>
5

>  <5-HT5>
5

>  <5-HT6>
5

>  <5-HT7>
5

>  <Alpha-1A>
5

>  <Alpha-1B>
5

>  <Alpha-2A>
5

>  <Alpha-2B>
5

>  <Alpha-2C>
5

>  <DOPAMINE D1>
5

>  <DOPAMINE D2>
5

>  <DOPAMINE D4>
5

>  <DOPAMINE D5>
5

>  <Dopamine transporter>
5

>  <HISTAMINE H1>
5

>  <HISTAMINE H2>
5

>  <Muscarinic acetylcholine receptor M2>
5

>  <Muscarinic acetylcholine receptor M5>
5

>  <Norepinephrine transporter>
5

>  <Serotonin transporter>
5

$$$$
L-cysteic-acid
  Marvin  02231216192D 0   1.00000     0.00000     0

 10  9  0  0  1  0  0  0  0  0999 V2000
   -1.9749    0.1579    0.0000 S   0  0  0  0  0  0  0  0  0
   -2.6894    0.5704    0.0000 O   0  0  0  0  0  0  0  0  0
   -2.3874   -0.5565    0.0000 O   0  0  0  0  0  0  0  0  0
   -1.5624    0.8724    0.0000 O   0  0  0  0  0  0  0  0  0
   -1.2605   -0.2546    0.0000 C   0  0  0  0  0  0  0  0  0
   -0.5460    0.1579    0.0000 C   0  0  0  0  0  0  0  0  0
   -0.5460    0.9829    0.0000 N   0  0  0  0  0  0  0  0  0
    0.1685   -0.2546    0.0000 C   0  0  0  0  0  0  0  0  0
    0.8829    0.1579    0.0000 O   0  0  0  0  0  0  0  0  0
    0.1685   -1.0796    0.0000 O   0  0  0  0  0  0  0  0  0
  1  2  2  0  0  0  0
  1  3  2  0  0  0  0
  1  4  1  0  0  0  0
  1  5  1  0  0  0  0
  5  6  1  0  0  0  0
  6  7  1  0  0  0  0
  6  8  1  0  0  0  0
  8  9  1  0  0  0  0
  8 10  2  0  0  0  0
M  END
>  <Name_Molregno>
L-cysteic-acid

>  <5-HT1A>
5

>  <5-HT1B>
5

>  <5-HT1D>
5

>  <5-HT3>
5

>  <5-HT5>
5

>  <5-HT6>
5

>  <5-HT7>
5

>  <Alpha-1A>
5

>  <Alpha-1B>
5

>  <Alpha-2A>
5

>  <Alpha-2C>
5

>  <DOPAMINE D1>
5

>  <DOPAMINE D2>
5

>  <DOPAMINE D3>
5

>  <DOPAMINE D5>
5

>  <Dopamine transporter>
5

>  <HISTAMINE H1>
5

>  <HISTAMINE H2>
5

>  <HISTAMINE H4>
5

>  <Muscarinic acetylcholine receptor M1>
5

>  <Muscarinic acetylcholine receptor M2>
5

>  <Muscarinic acetylcholine receptor M3>
5

>  <Muscarinic acetylcholine receptor M4>
5

>  <Muscarinic acetylcholine receptor M5>
5

>  <Norepinephrine transporter>
5

>  <Serotonin transporter>
5

$$$$
L-cysteine
  Marvin  02231216192D 0   1.00000     0.00000     0

  7  6  0  0  1  0  0  0  0  0999 V2000
    1.5580    2.1190    0.0000 S   0  0  0  0  0  0  0  0  0
    1.1455    1.4045    0.0000 C   0  0  0  0  0  0  0  0  0
    1.5580    0.6901    0.0000 C   0  0  0  0  0  0  0  0  0
    2.3830    0.6901    0.0000 N   0  0  0  0  0  0  0  0  0
    1.1455   -0.0244    0.0000 C   0  0  0  0  0  0  0  0  0
    1.5580   -0.7389    0.0000 O   0  0  0  0  0  0  0  0  0
    0.3205   -0.0244    0.0000 O   0  0  0  0  0  0  0  0  0
  1  2  1  0  0  0  0
  2  3  1  0  0  0  0
  3  4  1  0  0  0  0
  3  5  1  0  0  0  0
  5  6  1  0  0  0  0
  5  7  2  0  0  0  0
M  END
>  <Name_Molregno>
L-cysteine

>  <5-HT1A>
5

>  <5-HT1B>
5

>  <5-HT1D>
5

>  <5-HT3>
5

>  <5-HT5>
5

>  <5-HT6>
5

>  <5-HT7>
5

>  <Alpha-1A>
5

>  <Alpha-1B>
5

>  <Alpha-2A>
5

>  <Alpha-2B>
5

>  <Alpha-2C>
5

>  <DOPAMINE D1>
5

>  <DOPAMINE D2>
5

>  <DOPAMINE D3>
5

>  <DOPAMINE D5>
5

>  <Dopamine transporter>
5

>  <HISTAMINE H1>
5

>  <HISTAMINE H2>
5

>  <HISTAMINE H4>
5

>  <Muscarinic acetylcholine receptor M1>
5

>  <Muscarinic acetylcholine receptor M2>
5

>  <Muscarinic acetylcholine receptor M3>
5

>  <Muscarinic acetylcholine receptor M4>
5

>  <Muscarinic acetylcholine receptor M5>
5

>  <Norepinephrine transporter>
5

>  <Serotonin transporter>
5

$$$$
L-cysteine-sulfinic-acid
  Marvin  02231216192D 0   1.00000     0.00000     0

  9  8  0  0  1  0  0  0  0  0999 V2000
   -2.0945    0.5537    0.0000 S   0  0  0  0  0  0  0  0  0
   -2.8090    0.1412    0.0000 O   0  0  0  0  0  0  0  0  0
   -2.0945    1.3787    0.0000 O   0  0  0  0  0  0  0  0  0
   -1.3800    0.1412    0.0000 C   0  0  0  0  0  0  0  0  0
   -0.6656    0.5537    0.0000 C   0  0  0  0  0  0  0  0  0
   -0.6656    1.3787    0.0000 N   0  0  0  0  0  0  0  0  0
    0.0489    0.1412    0.0000 C   0  0  0  0  0  0  0  0  0
    0.7634    0.5537    0.0000 O   0  0  0  0  0  0  0  0  0
    0.0489   -0.6838    0.0000 O   0  0  0  0  0  0  0  0  0
  1  2  2  0  0  0  0
  1  3  1  0  0  0  0
  1  4  1  0  0  0  0
  4  5  1  0  0  0  0
  5  6  1  0  0  0  0
  5  7  1  0  0  0  0
  7  8  1  0  0  0  0
  7  9  2  0  0  0  0
M  END
>  <Name_Molregno>
L-cysteine-sulfinic-acid

>  <5-HT1A>
5

>  <5-HT1B>
5

>  <5-HT1D>
5

>  <5-HT3>
5

>  <5-HT5>
5

>  <5-HT6>
5

>  <5-HT7>
5

>  <Alpha-1A>
5

>  <Alpha-1B>
5

>  <Alpha-2A>
5

>  <Alpha-2B>
5

>  <Alpha-2C>
5

>  <DOPAMINE D1>
5

>  <DOPAMINE D2>
5

>  <DOPAMINE D3>
5

>  <DOPAMINE D5>
5

>  <Dopamine transporter>
5

>  <HISTAMINE H1>
5

>  <HISTAMINE H2>
5

>  <HISTAMINE H4>
5

>  <Muscarinic acetylcholine receptor M1>
5

>  <Muscarinic acetylcholine receptor M2>
5

>  <Muscarinic acetylcholine receptor M3>
5

>  <Muscarinic acetylcholine receptor M4>
5

>  <Muscarinic acetylcholine receptor M5>
5

>  <Norepinephrine transporter>
5

>  <Serotonin transporter>
5

$$$$
L-homocysteine-thiolactone
  Marvin  02231216192D 0   1.00000     0.00000     0

  7  7  0  0  1  0  0  0  0  0999 V2000
    1.4299   -0.7189    0.0000 S   0  0  0  0  0  0  0  0  0
    1.1749   -1.5035    0.0000 C   0  0  0  0  0  0  0  0  0
    0.3499   -1.5035    0.0000 C   0  0  0  0  0  0  0  0  0
    0.0950   -0.7189    0.0000 C   0  0  0  0  0  0  0  0  0
   -0.6896   -0.4639    0.0000 N   0  0  0  0  0  0  0  0  0
    0.7624   -0.2339    0.0000 C   0  0  0  0  0  0  0  0  0
    0.7624    0.5911    0.0000 O   0  0  0  0  0  0  0  0  0
  1  2  1  0  0  0  0
  1  6  1  0  0  0  0
  2  3  1  0  0  0  0
  3  4  1  0  0  0  0
  4  5  1  0  0  0  0
  4  6  1  0  0  0  0
  6  7  2  0  0  0  0
M  END
>  <Name_Molregno>
L-homocysteine-thiolactone

>  <5-HT1A>
5

>  <5-HT3>
5

>  <5-HT5>
5

>  <5-HT6>
5

>  <5-HT7>
5

>  <Alpha-1A>
5

>  <Alpha-1B>
5

>  <Alpha-2A>
5

>  <Alpha-2B>
5

>  <Alpha-2C>
5

>  <DOPAMINE D1>
5

>  <DOPAMINE D2>
5

>  <DOPAMINE D5>
5

>  <Dopamine transporter>
5

>  <HISTAMINE H1>
5

>  <HISTAMINE H2>
5

>  <HISTAMINE H4>
5

>  <Muscarinic acetylcholine receptor M1>
5

>  <Muscarinic acetylcholine receptor M2>
5

>  <Muscarinic acetylcholine receptor M3>
5

>  <Muscarinic acetylcholine receptor M4>
5

>  <Muscarinic acetylcholine receptor M5>
5

>  <Norepinephrine transporter>
5

>  <Serotonin transporter>
5

$$$$
LOXAPINE
  Marvin  02231216192D 0   1.00000     0.00000     0

 23 26  0  0  0  0  0  0  0  0999 V2000
    3.9671    1.6854    0.0000 Cl  0  0  0  0  0  0  0  0  0
    3.1788    1.4422    0.0000 C   0  0  0  0  0  0  0  0  0
    2.5740    2.0033    0.0000 C   0  0  0  0  0  0  0  0  0
    1.7856    1.7602    0.0000 C   0  0  0  0  0  0  0  0  0
    1.6021    0.9558    0.0000 C   0  0  0  0  0  0  0  0  0
    0.8588    0.5979    0.0000 O   0  0  0  0  0  0  0  0  0
    0.1155    0.9558    0.0000 C   0  0  0  0  0  0  0  0  0
   -0.0681    1.7602    0.0000 C   0  0  0  0  0  0  0  0  0
    0.4463    2.4052    0.0000 N   0  0  0  0  0  0  0  0  0
    1.2713    2.4052    0.0000 C   0  0  0  0  0  0  0  0  0
    1.6292    3.1485    0.0000 N   0  0  0  0  0  0  0  0  0
    1.1645    3.8301    0.0000 C   0  0  0  0  0  0  0  0  0
    1.5224    4.5734    0.0000 C   0  0  0  0  0  0  0  0  0
    2.3451    4.6351    0.0000 N   0  0  0  0  0  0  0  0  0
    2.8099    3.9534    0.0000 C   0  0  0  0  0  0  0  0  0
    2.4519    3.2101    0.0000 C   0  0  0  0  0  0  0  0  0
    2.7031    5.3784    0.0000 C   0  0  0  0  0  0  0  0  0
   -0.8565    2.0033    0.0000 C   0  0  0  0  0  0  0  0  0
   -1.4612    1.4422    0.0000 C   0  0  0  0  0  0  0  0  0
   -1.2776    0.6379    0.0000 C   0  0  0  0  0  0  0  0  0
   -0.4893    0.3947    0.0000 C   0  0  0  0  0  0  0  0  0
    2.2068    0.3947    0.0000 C   0  0  0  0  0  0  0  0  0
    2.9952    0.6379    0.0000 C   0  0  0  0  0  0  0  0  0
  1  2  1  0  0  0  0
  2  3  4  0  0  0  0
  2 23  4  0  0  0  0
  3  4  4  0  0  0  0
  4  5  4  0  0  0  0
  4 10  1  0  0  0  0
  5  6  1  0  0  0  0
  5 22  4  0  0  0  0
  6  7  1  0  0  0  0
  7  8  4  0  0  0  0
  7 21  4  0  0  0  0
  8  9  1  0  0  0  0
  8 18  4  0  0  0  0
  9 10  2  0  0  0  0
 10 11  1  0  0  0  0
 11 12  1  0  0  0  0
 11 16  1  0  0  0  0
 12 13  1  0  0  0  0
 13 14  1  0  0  0  0
 14 15  1  0  0  0  0
 14 17  1  0  0  0  0
 15 16  1  0  0  0  0
 18 19  4  0  0  0  0
 19 20  4  0  0  0  0
 20 21  4  0  0  0  0
 22 23  4  0  0  0  0
M  END
>  <Name_Molregno>
LOXAPINE

>  <5-HT1A>
5.59

>  <5-HT1B>
6.41

>  <5-HT1D>
5.46

>  <5-HT1E>
5.85

>  <5-HT2A>
8.43

>  <5-HT2C>
7.9

>  <5-HT3>
6.72

>  <5-HT5>
6.11

>  <5-HT6>
7.46

>  <5-HT7>
7.06

>  <Alpha-1A>
7.51

>  <Alpha-1B>
7.28

>  <Alpha-2A>
6.82

>  <Alpha-2B>
6.97

>  <Alpha-2C>
7.1

>  <Beta-1>
5

>  <Beta-2>
5

>  <DOPAMINE D1>
7.27

>  <DOPAMINE D2>
7.74

>  <DOPAMINE D3>
7.64

>  <DOPAMINE D4>
8.04

>  <DOPAMINE D5>
7.12

>  <Dopamine transporter>
5

>  <HISTAMINE H1>
8.33

>  <HISTAMINE H2>
6.68

>  <HISTAMINE H4>
5.32

>  <Muscarinic acetylcholine receptor M1>
6.98

>  <Muscarinic acetylcholine receptor M2>
6.38

>  <Muscarinic acetylcholine receptor M3>
6.74

>  <Muscarinic acetylcholine receptor M4>
6.09

>  <Muscarinic acetylcholine receptor M5>
6.83

>  <Norepinephrine transporter>
5.24

>  <Serotonin transporter>
5

$$$$
LY344864
  Marvin  02231216192D 0   1.00000     0.00000     0

 26 29  0  0  1  0  0  0  0  0999 V2000
    0.4821    3.8418    0.0000 F   0  0  0  0  0  0  0  0  0
    1.0342    3.2287    0.0000 C   0  0  0  0  0  0  0  0  0
    1.8411    3.4003    0.0000 C   0  0  0  0  0  0  0  0  0
    2.3932    2.7872    0.0000 C   0  0  0  0  0  0  0  0  0
    2.1382    2.0026    0.0000 C   0  0  0  0  0  0  0  0  0
    1.3312    1.8310    0.0000 C   0  0  0  0  0  0  0  0  0
    0.7792    2.4441    0.0000 C   0  0  0  0  0  0  0  0  0
    2.6902    1.3895    0.0000 C   0  0  0  0  0  0  0  0  0
    2.4353    0.6048    0.0000 O   0  0  0  0  0  0  0  0  0
    3.4972    1.5610    0.0000 N   0  0  0  0  0  0  0  0  0
    4.0493    0.9479    0.0000 C   0  0  0  0  0  0  0  0  0
    4.8562    1.1194    0.0000 C   0  0  0  0  0  0  0  0  0
    5.4083    0.5063    0.0000 C   0  0  0  0  0  0  0  0  0
    6.2333    0.5063    0.0000 C   0  0  0  0  0  0  0  0  0
    6.7853    1.1194    0.0000 C   0  0  0  0  0  0  0  0  0
    7.5923    0.9479    0.0000 C   0  0  0  0  0  0  0  0  0
    8.1443    1.5610    0.0000 N   0  0  0  0  0  0  0  0  0
    7.8894    2.3456    0.0000 C   0  0  0  0  0  0  0  0  0
    8.9513    1.3895    0.0000 C   0  0  0  0  0  0  0  0  0
    7.8472    0.1633    0.0000 C   0  0  0  0  0  0  0  0  0
    7.2952   -0.4498    0.0000 C   0  0  0  0  0  0  0  0  0
    6.4882   -0.2783    0.0000 C   0  0  0  0  0  0  0  0  0
    5.8208   -0.7632    0.0000 N   0  0  0  0  0  0  0  0  0
    5.1533   -0.2783    0.0000 C   0  0  0  0  0  0  0  0  0
    4.3463   -0.4498    0.0000 C   0  0  0  0  0  0  0  0  0
    3.7943    0.1633    0.0000 C   0  0  0  0  0  0  0  0  0
  1  2  1  0  0  0  0
  2  3  4  0  0  0  0
  2  7  4  0  0  0  0
  3  4  4  0  0  0  0
  4  5  4  0  0  0  0
  5  6  4  0  0  0  0
  5  8  1  0  0  0  0
  6  7  4  0  0  0  0
  8  9  2  0  0  0  0
  8 10  1  0  0  0  0
 10 11  1  0  0  0  0
 11 12  4  0  0  0  0
 11 26  4  0  0  0  0
 12 13  4  0  0  0  0
 13 14  4  0  0  0  0
 13 24  4  0  0  0  0
 14 15  1  0  0  0  0
 14 22  4  0  0  0  0
 15 16  1  0  0  0  0
 16 17  1  0  0  0  0
 16 20  1  0  0  0  0
 17 18  1  0  0  0  0
 17 19  1  0  0  0  0
 20 21  1  0  0  0  0
 21 22  1  0  0  0  0
 22 23  4  0  0  0  0
 23 24  4  0  0  0  0
 24 25  4  0  0  0  0
 25 26  4  0  0  0  0
M  STY  1   1 DAT
M  SAL   1  1  23
M  SDT   1 MRV_IMPLICIT_H                                        
M  SDD   1     0.0000    0.0000    DR    ALL  0       0  
M  SED   1 IMPL_H1
M  END
>  <Name_Molregno>
LY344864

>  <5-HT1A>
6.28

>  <5-HT1B>
6.26

>  <5-HT1D>
6.24

>  <5-HT1E>
5.85

>  <5-HT2A>
5.41

>  <5-HT2C>
5.46

>  <5-HT7>
5.31

$$$$
Meloxicam
  Marvin  02231216192D 0   1.00000     0.00000     0

 23 25  0  0  0  0  0  0  0  0999 V2000
    1.0530    2.3261    0.0000 S   0  0  0  0  0  0  0  0  0
    0.2461    2.4976    0.0000 C   0  0  0  0  0  0  0  0  0
   -0.1664    1.7831    0.0000 C   0  0  0  0  0  0  0  0  0
    0.3856    1.1700    0.0000 N   0  0  0  0  0  0  0  0  0
    1.1393    1.5056    0.0000 C   0  0  0  0  0  0  0  0  0
    1.8537    1.0931    0.0000 N   0  0  0  0  0  0  0  0  0
    1.8537    0.2681    0.0000 C   0  0  0  0  0  0  0  0  0
    1.1393   -0.1444    0.0000 O   0  0  0  0  0  0  0  0  0
    2.5682   -0.1444    0.0000 C   0  0  0  0  0  0  0  0  0
    2.5682   -0.9694    0.0000 N   0  0  0  0  0  0  0  0  0
    3.2827   -1.3819    0.0000 S   0  0  0  0  0  0  0  0  0
    2.7524   -2.0139    0.0000 O   0  0  0  0  0  0  0  0  0
    3.8130   -2.0139    0.0000 O   0  0  0  0  0  0  0  0  0
    3.9972   -0.9694    0.0000 C   0  0  0  0  0  0  0  0  0
    3.9972   -0.1444    0.0000 C   0  0  0  0  0  0  0  0  0
    4.7116    0.2681    0.0000 C   0  0  0  0  0  0  0  0  0
    5.4261   -0.1444    0.0000 C   0  0  0  0  0  0  0  0  0
    5.4261   -0.9694    0.0000 C   0  0  0  0  0  0  0  0  0
    4.7116   -1.3819    0.0000 C   0  0  0  0  0  0  0  0  0
    3.2827    0.2681    0.0000 C   0  0  0  0  0  0  0  0  0
    3.2827    1.0931    0.0000 O   0  0  0  0  0  0  0  0  0
    1.8537   -1.3819    0.0000 C   0  0  0  0  0  0  0  0  0
   -0.0895    3.2513    0.0000 C   0  0  0  0  0  0  0  0  0
  1  2  4  0  0  0  0
  1  5  4  0  0  0  0
  2  3  4  0  0  0  0
  2 23  1  0  0  0  0
  3  4  4  0  0  0  0
  4  5  4  0  0  0  0
  5  6  1  0  0  0  0
  6  7  1  0  0  0  0
  7  8  1  0  0  0  0
  7  9  2  0  0  0  0
  9 10  1  0  0  0  0
  9 20  1  0  0  0  0
 10 11  1  0  0  0  0
 10 22  1  0  0  0  0
 11 12  2  0  0  0  0
 11 13  2  0  0  0  0
 11 14  1  0  0  0  0
 14 15  4  0  0  0  0
 14 19  4  0  0  0  0
 15 16  4  0  0  0  0
 15 20  1  0  0  0  0
 16 17  4  0  0  0  0
 17 18  4  0  0  0  0
 18 19  4  0  0  0  0
 20 21  2  0  0  0  0
M  END
>  <Name_Molregno>
Meloxicam

>  <5-HT1A>
5

>  <5-HT1B>
5

>  <5-HT1D>
5

>  <5-HT1E>
5

>  <5-HT2A>
5

>  <5-HT3>
5

>  <5-HT5>
5

>  <5-HT6>
5

>  <5-HT7>
5

>  <Alpha-1A>
5

>  <Alpha-1B>
5

>  <Alpha-2A>
5

>  <Alpha-2B>
5

>  <Alpha-2C>
5

>  <DOPAMINE D1>
5

>  <DOPAMINE D2>
5

>  <DOPAMINE D4>
5

>  <DOPAMINE D5>
5

>  <Dopamine transporter>
5

>  <HISTAMINE H1>
5

>  <HISTAMINE H2>
5

>  <HISTAMINE H4>
5

>  <Muscarinic acetylcholine receptor M2>
5

>  <Muscarinic acetylcholine receptor M5>
5

>  <Norepinephrine transporter>
5

>  <Serotonin transporter>
5

$$$$
MESULERGINE
  Marvin  02231216192D 0   1.00000     0.00000     0

 25 28  0  0  1  0  0  0  0  0999 V2000
   -3.5897   -2.1386    0.0000 S   0  0  0  0  0  0  0  0  0
   -4.0013   -1.4236    0.0000 O   0  0  0  0  0  0  0  0  0
   -3.1780   -2.8535    0.0000 O   0  0  0  0  0  0  0  0  0
   -2.8747   -1.7269    0.0000 N   0  0  0  0  0  0  0  0  0
   -2.8737   -0.9019    0.0000 C   0  0  0  0  0  0  0  0  0
   -2.1588   -0.4903    0.0000 C   0  0  0  0  0  0  0  0  0
   -2.1578    0.3347    0.0000 C   0  0  0  0  0  0  0  0  0
   -2.8717    0.7481    0.0000 C   0  0  0  0  0  0  0  0  0
   -3.5867    0.3364    0.0000 N   0  0  0  0  0  0  0  0  0
   -3.5877   -0.4886    0.0000 C   0  0  0  0  0  0  0  0  0
   -4.3007    0.7498    0.0000 C   0  0  0  0  0  0  0  0  0
   -2.8703    1.5722    0.0000 C   0  0  0  0  0  0  0  0  0
   -2.1578    1.9847    0.0000 C   0  0  0  0  0  0  0  0  0
   -1.4453    1.5722    0.0000 C   0  0  0  0  0  0  0  0  0
   -1.4453    0.7472    0.0000 C   0  0  0  0  0  0  0  0  0
   -0.7274    0.3347    0.0000 C   0  0  0  0  0  0  0  0  0
   -0.0149    0.7472    0.0000 C   0  0  0  0  0  0  0  0  0
   -0.0149    1.5722    0.0000 C   0  0  0  0  0  0  0  0  0
   -0.7274    1.9847    0.0000 C   0  0  0  0  0  0  0  0  0
   -1.0328    2.8419    0.0000 N   0  0  0  0  0  0  0  0  0
   -1.8578    2.8419    0.0000 C   0  0  0  0  0  0  0  0  0
   -0.5573    3.5161    0.0000 C   0  0  0  0  0  0  0  0  0
   -4.3046   -2.5502    0.0000 N   0  0  0  0  0  0  0  0  0
   -4.3056   -3.3752    0.0000 C   0  0  0  0  0  0  0  0  0
   -5.0186   -2.1368    0.0000 C   0  0  0  0  0  0  0  0  0
  1  2  2  0  0  0  0
  1  3  2  0  0  0  0
  1  4  1  0  0  0  0
  1 23  1  0  0  0  0
  4  5  1  0  0  0  0
  5  6  1  0  0  0  0
  5 10  1  0  0  0  0
  6  7  1  0  0  0  0
  7  8  1  0  0  0  0
  7 15  1  0  0  0  0
  8  9  1  0  0  0  0
  8 12  1  0  0  0  0
  9 10  1  0  0  0  0
  9 11  1  0  0  0  0
 12 13  1  0  0  0  0
 13 14  4  0  0  0  0
 13 21  4  0  0  0  0
 14 15  4  0  0  0  0
 14 19  4  0  0  0  0
 15 16  4  0  0  0  0
 16 17  4  0  0  0  0
 17 18  4  0  0  0  0
 18 19  4  0  0  0  0
 19 20  4  0  0  0  0
 20 21  4  0  0  0  0
 20 22  1  0  0  0  0
 23 24  1  0  0  0  0
 23 25  1  0  0  0  0
M  END
>  <Name_Molregno>
MESULERGINE

>  <5-HT1A>
6.61

>  <5-HT1B>
6.09

>  <5-HT1D>
5.33

>  <5-HT2A>
7.19

>  <5-HT2C>
8.71

>  <5-HT6>
5.59

>  <5-HT7>
7.74

$$$$
METERGOLINE
  Marvin  02231216192D 0   1.00000     0.00000     0

 30 34  0  0  1  0  0  0  0  0999 V2000
   -3.9736   -2.5674    0.0000 O   0  0  0  0  0  0  0  0  0
   -3.9745   -3.3924    0.0000 C   0  0  0  0  0  0  0  0  0
   -4.6895   -3.8041    0.0000 C   0  0  0  0  0  0  0  0  0
   -4.6905   -4.6291    0.0000 C   0  0  0  0  0  0  0  0  0
   -5.4055   -5.0407    0.0000 C   0  0  0  0  0  0  0  0  0
   -6.1194   -4.6274    0.0000 C   0  0  0  0  0  0  0  0  0
   -6.1184   -3.8024    0.0000 C   0  0  0  0  0  0  0  0  0
   -5.4035   -3.3907    0.0000 C   0  0  0  0  0  0  0  0  0
   -3.2586   -2.1558    0.0000 C   0  0  0  0  0  0  0  0  0
   -2.5446   -2.5692    0.0000 O   0  0  0  0  0  0  0  0  0
   -3.2576   -1.3308    0.0000 N   0  0  0  0  0  0  0  0  0
   -2.5426   -0.9192    0.0000 C   0  0  0  0  0  0  0  0  0
   -2.5417   -0.0942    0.0000 C   0  0  0  0  0  0  0  0  0
   -1.8267    0.3175    0.0000 C   0  0  0  0  0  0  0  0  0
   -1.8257    1.1425    0.0000 C   0  0  0  0  0  0  0  0  0
   -2.5397    1.5558    0.0000 C   0  0  0  0  0  0  0  0  0
   -3.2546    1.1442    0.0000 N   0  0  0  0  0  0  0  0  0
   -3.2556    0.3192    0.0000 C   0  0  0  0  0  0  0  0  0
   -3.9686    1.5575    0.0000 C   0  0  0  0  0  0  0  0  0
   -2.5382    2.3800    0.0000 C   0  0  0  0  0  0  0  0  0
   -1.8257    2.7925    0.0000 C   0  0  0  0  0  0  0  0  0
   -1.1132    2.3800    0.0000 C   0  0  0  0  0  0  0  0  0
   -1.1132    1.5550    0.0000 C   0  0  0  0  0  0  0  0  0
   -0.3953    1.1425    0.0000 C   0  0  0  0  0  0  0  0  0
    0.3172    1.5550    0.0000 C   0  0  0  0  0  0  0  0  0
    0.3172    2.3800    0.0000 C   0  0  0  0  0  0  0  0  0
   -0.3953    2.7925    0.0000 C   0  0  0  0  0  0  0  0  0
   -0.7007    3.6496    0.0000 N   0  0  0  0  0  0  0  0  0
   -1.5257    3.6496    0.0000 C   0  0  0  0  0  0  0  0  0
   -0.2252    4.3238    0.0000 C   0  0  0  0  0  0  0  0  0
  1  2  1  0  0  0  0
  1  9  1  0  0  0  0
  2  3  1  0  0  0  0
  3  4  4  0  0  0  0
  3  8  4  0  0  0  0
  4  5  4  0  0  0  0
  5  6  4  0  0  0  0
  6  7  4  0  0  0  0
  7  8  4  0  0  0  0
  9 10  2  0  0  0  0
  9 11  1  0  0  0  0
 11 12  1  0  0  0  0
 12 13  1  0  0  0  0
 13 14  1  0  0  0  0
 13 18  1  0  0  0  0
 14 15  1  0  0  0  0
 15 16  1  0  0  0  0
 15 23  1  0  0  0  0
 16 17  1  0  0  0  0
 16 20  1  0  0  0  0
 17 18  1  0  0  0  0
 17 19  1  0  0  0  0
 20 21  1  0  0  0  0
 21 22  4  0  0  0  0
 21 29  4  0  0  0  0
 22 23  4  0  0  0  0
 22 27  4  0  0  0  0
 23 24  4  0  0  0  0
 24 25  4  0  0  0  0
 25 26  4  0  0  0  0
 26 27  4  0  0  0  0
 27 28  4  0  0  0  0
 28 29  4  0  0  0  0
 28 30  1  0  0  0  0
M  END
>  <Name_Molregno>
METERGOLINE

>  <5-HT1A>
8.36

>  <5-HT1B>
8

>  <5-HT1D>
8.83

>  <5-HT1E>
6.03

>  <5-HT2A>
9.28

>  <5-HT2C>
9.24

>  <5-HT6>
6.81

>  <5-HT7>
8.31

$$$$
Methcathinone
  Marvin  02231216192D 0   1.00000     0.00000     0

 12 12  0  0  1  0  0  0  0  0999 V2000
    1.9192   -0.0549    0.0000 O   0  0  0  0  0  0  0  0  0
    1.2047   -0.4674    0.0000 C   0  0  0  0  0  0  0  0  0
    0.4903   -0.0549    0.0000 C   0  0  0  0  0  0  0  0  0
    0.4903    0.7701    0.0000 N   0  0  0  0  0  0  0  0  0
   -0.2242    1.1826    0.0000 C   0  0  0  0  0  0  0  0  0
   -0.2242   -0.4674    0.0000 C   0  0  0  0  0  0  0  0  0
    1.2047   -1.2924    0.0000 C   0  0  0  0  0  0  0  0  0
    1.9192   -1.7049    0.0000 C   0  0  0  0  0  0  0  0  0
    1.9192   -2.5299    0.0000 C   0  0  0  0  0  0  0  0  0
    1.2047   -2.9424    0.0000 C   0  0  0  0  0  0  0  0  0
    0.4903   -2.5299    0.0000 C   0  0  0  0  0  0  0  0  0
    0.4903   -1.7049    0.0000 C   0  0  0  0  0  0  0  0  0
  1  2  2  0  0  0  0
  2  3  1  0  0  0  0
  2  7  1  0  0  0  0
  3  4  1  0  0  0  0
  3  6  1  0  0  0  0
  4  5  1  0  0  0  0
  7  8  4  0  0  0  0
  7 12  4  0  0  0  0
  8  9  4  0  0  0  0
  9 10  4  0  0  0  0
 10 11  4  0  0  0  0
 11 12  4  0  0  0  0
M  END
>  <Name_Molregno>
Methcathinone

>  <5-HT1A>
5

>  <5-HT1B>
5

>  <5-HT1D>
5

>  <5-HT1E>
5

>  <5-HT3>
5

>  <5-HT5>
5

>  <5-HT6>
5

>  <5-HT7>
6

>  <Alpha-1A>
5

>  <Alpha-1B>
5

>  <Alpha-2A>
5.04

>  <Alpha-2B>
5.81

>  <Alpha-2C>
6.22

>  <Beta-1>
5

>  <Beta-2>
5

>  <DOPAMINE D1>
5

>  <DOPAMINE D2>
5

>  <DOPAMINE D4>
5

>  <DOPAMINE D5>
5

>  <Dopamine transporter>
6.41

>  <HISTAMINE H1>
5

>  <HISTAMINE H2>
5

>  <HISTAMINE H4>
5

>  <Muscarinic acetylcholine receptor M1>
5

>  <Muscarinic acetylcholine receptor M2>
5

>  <Muscarinic acetylcholine receptor M3>
5

>  <Muscarinic acetylcholine receptor M4>
5

>  <Muscarinic acetylcholine receptor M5>
5

>  <Norepinephrine transporter>
6.87

>  <Serotonin transporter>
5.38

$$$$
METHIOTHEPIN
  Marvin  02231216192D 0   1.00000     0.00000     0

 24 27  0  0  1  0  0  0  0  0999 V2000
    0.1974    0.1481    0.0000 S   0  0  0  0  0  0  0  0  0
    0.9407   -0.2099    0.0000 C   0  0  0  0  0  0  0  0  0
    1.1243   -1.0142    0.0000 C   0  0  0  0  0  0  0  0  0
    1.9127   -1.2574    0.0000 C   0  0  0  0  0  0  0  0  0
    2.5174   -0.6962    0.0000 C   0  0  0  0  0  0  0  0  0
    3.3058   -0.9394    0.0000 S   0  0  0  0  0  0  0  0  0
    3.9106   -0.3783    0.0000 C   0  0  0  0  0  0  0  0  0
    2.3339    0.1081    0.0000 C   0  0  0  0  0  0  0  0  0
    1.5455    0.3512    0.0000 C   0  0  0  0  0  0  0  0  0
    0.6099   -1.6592    0.0000 C   0  0  0  0  0  0  0  0  0
    0.9679   -2.4025    0.0000 N   0  0  0  0  0  0  0  0  0
    1.7906   -2.4642    0.0000 C   0  0  0  0  0  0  0  0  0
    2.1486   -3.2075    0.0000 C   0  0  0  0  0  0  0  0  0
    1.6838   -3.8891    0.0000 N   0  0  0  0  0  0  0  0  0
    0.8611   -3.8275    0.0000 C   0  0  0  0  0  0  0  0  0
    0.5032   -3.0842    0.0000 C   0  0  0  0  0  0  0  0  0
    2.0418   -4.6324    0.0000 C   0  0  0  0  0  0  0  0  0
   -0.2151   -1.6592    0.0000 C   0  0  0  0  0  0  0  0  0
   -0.7294   -1.0142    0.0000 C   0  0  0  0  0  0  0  0  0
   -0.5459   -0.2099    0.0000 C   0  0  0  0  0  0  0  0  0
   -1.1506    0.3512    0.0000 C   0  0  0  0  0  0  0  0  0
   -1.9390    0.1081    0.0000 C   0  0  0  0  0  0  0  0  0
   -2.1225   -0.6962    0.0000 C   0  0  0  0  0  0  0  0  0
   -1.5178   -1.2574    0.0000 C   0  0  0  0  0  0  0  0  0
  1  2  1  0  0  0  0
  1 20  1  0  0  0  0
  2  3  4  0  0  0  0
  2  9  4  0  0  0  0
  3  4  4  0  0  0  0
  3 10  1  0  0  0  0
  4  5  4  0  0  0  0
  5  6  1  0  0  0  0
  5  8  4  0  0  0  0
  6  7  1  0  0  0  0
  8  9  4  0  0  0  0
 10 11  1  0  0  0  0
 10 18  1  0  0  0  0
 11 12  1  0  0  0  0
 11 16  1  0  0  0  0
 12 13  1  0  0  0  0
 13 14  1  0  0  0  0
 14 15  1  0  0  0  0
 14 17  1  0  0  0  0
 15 16  1  0  0  0  0
 18 19  1  0  0  0  0
 19 20  4  0  0  0  0
 19 24  4  0  0  0  0
 20 21  4  0  0  0  0
 21 22  4  0  0  0  0
 22 23  4  0  0  0  0
 23 24  4  0  0  0  0
M  END
>  <Name_Molregno>
METHIOTHEPIN

>  <5-HT1A>
7.52

>  <5-HT1B>
8.41

>  <5-HT1D>
7.85

>  <5-HT1E>
6.75

>  <5-HT2A>
9.25

>  <5-HT2C>
8.91

>  <5-HT5>
9

>  <5-HT6>
9.26

>  <5-HT7>
8.57

$$$$
METHYLPHENIDATE
  Marvin  02231216192D 0   1.00000     0.00000     0

 17 18  0  0  1  0  0  0  0  0999 V2000
   -0.3749   -0.6902    0.0000 O   0  0  0  0  0  0  0  0  0
    0.3395   -0.2777    0.0000 C   0  0  0  0  0  0  0  0  0
    0.3395    0.5473    0.0000 O   0  0  0  0  0  0  0  0  0
    1.0540   -0.6902    0.0000 C   0  0  0  0  0  0  0  0  0
    1.0540   -1.5152    0.0000 C   0  0  0  0  0  0  0  0  0
    1.7685   -1.9277    0.0000 N   0  0  0  0  0  0  0  0  0
    1.7685   -2.7527    0.0000 C   0  0  0  0  0  0  0  0  0
    1.0540   -3.1652    0.0000 C   0  0  0  0  0  0  0  0  0
    0.3395   -2.7527    0.0000 C   0  0  0  0  0  0  0  0  0
    0.3395   -1.9277    0.0000 C   0  0  0  0  0  0  0  0  0
    1.7685   -0.2777    0.0000 C   0  0  0  0  0  0  0  0  0
    1.7685    0.5473    0.0000 C   0  0  0  0  0  0  0  0  0
    2.4829    0.9598    0.0000 C   0  0  0  0  0  0  0  0  0
    3.1974    0.5473    0.0000 C   0  0  0  0  0  0  0  0  0
    3.1974   -0.2777    0.0000 C   0  0  0  0  0  0  0  0  0
    2.4829   -0.6902    0.0000 C   0  0  0  0  0  0  0  0  0
   -0.3749   -1.5152    0.0000 C   0  0  0  0  0  0  0  0  0
  1  2  1  0  0  0  0
  1 17  1  0  0  0  0
  2  3  2  0  0  0  0
  2  4  1  0  0  0  0
  4  5  1  0  0  0  0
  4 11  1  0  0  0  0
  5  6  1  0  0  0  0
  5 10  1  0  0  0  0
  6  7  1  0  0  0  0
  7  8  1  0  0  0  0
  8  9  1  0  0  0  0
  9 10  1  0  0  0  0
 11 12  4  0  0  0  0
 11 16  4  0  0  0  0
 12 13  4  0  0  0  0
 13 14  4  0  0  0  0
 14 15  4  0  0  0  0
 15 16  4  0  0  0  0
M  END
>  <Name_Molregno>
METHYLPHENIDATE

>  <5-HT1A>
5

>  <5-HT1B>
5

>  <5-HT1E>
5

>  <5-HT3>
5

>  <5-HT5>
5

>  <5-HT6>
5

>  <5-HT7>
5

>  <Alpha-1A>
5

>  <Alpha-1B>
5

>  <Alpha-2A>
5.25

>  <Alpha-2B>
5.61

>  <Alpha-2C>
6.07

>  <DOPAMINE D1>
5

>  <DOPAMINE D2>
5

>  <Dopamine transporter>
7.28

>  <Muscarinic acetylcholine receptor M1>
5

>  <Muscarinic acetylcholine receptor M2>
5

>  <Muscarinic acetylcholine receptor M3>
5

>  <Muscarinic acetylcholine receptor M4>
5

>  <Muscarinic acetylcholine receptor M5>
5

>  <Norepinephrine transporter>
6.46

>  <Serotonin transporter>
5

$$$$
METHYSERGIDE
  Marvin  02231216192D 0   1.00000     0.00000     0

 26 29  0  0  1  0  0  0  0  0999 V2000
   -5.6466   -4.8655    0.0000 O   0  0  0  0  0  0  0  0  0
   -5.6457   -4.0405    0.0000 C   0  0  0  0  0  0  0  0  0
   -4.9307   -3.6289    0.0000 C   0  0  0  0  0  0  0  0  0
   -4.9297   -2.8039    0.0000 N   0  0  0  0  0  0  0  0  0
   -4.2147   -2.3922    0.0000 C   0  0  0  0  0  0  0  0  0
   -3.5008   -2.8056    0.0000 O   0  0  0  0  0  0  0  0  0
   -4.2138   -1.5672    0.0000 C   0  0  0  0  0  0  0  0  0
   -3.4988   -1.1556    0.0000 C   0  0  0  0  0  0  0  0  0
   -3.4978   -0.3306    0.0000 C   0  0  0  0  0  0  0  0  0
   -4.2118    0.0828    0.0000 C   0  0  0  0  0  0  0  0  0
   -4.9267   -0.3289    0.0000 N   0  0  0  0  0  0  0  0  0
   -4.9277   -1.1539    0.0000 C   0  0  0  0  0  0  0  0  0
   -5.6407    0.0845    0.0000 C   0  0  0  0  0  0  0  0  0
   -4.2103    0.9069    0.0000 C   0  0  0  0  0  0  0  0  0
   -3.4978    1.3194    0.0000 C   0  0  0  0  0  0  0  0  0
   -2.7853    0.9069    0.0000 C   0  0  0  0  0  0  0  0  0
   -2.7853    0.0819    0.0000 C   0  0  0  0  0  0  0  0  0
   -2.0674   -0.3306    0.0000 C   0  0  0  0  0  0  0  0  0
   -1.3549    0.0819    0.0000 C   0  0  0  0  0  0  0  0  0
   -1.3549    0.9069    0.0000 C   0  0  0  0  0  0  0  0  0
   -2.0674    1.3194    0.0000 C   0  0  0  0  0  0  0  0  0
   -2.3728    2.1766    0.0000 N   0  0  0  0  0  0  0  0  0
   -3.1978    2.1766    0.0000 C   0  0  0  0  0  0  0  0  0
   -1.8973    2.8507    0.0000 C   0  0  0  0  0  0  0  0  0
   -4.2167   -4.0422    0.0000 C   0  0  0  0  0  0  0  0  0
   -4.2177   -4.8672    0.0000 C   0  0  0  0  0  0  0  0  0
  1  2  1  0  0  0  0
  2  3  1  0  0  0  0
  3  4  1  0  0  0  0
  3 25  1  0  0  0  0
  4  5  1  0  0  0  0
  5  6  2  0  0  0  0
  5  7  1  0  0  0  0
  7  8  1  0  0  0  0
  7 12  1  0  0  0  0
  8  9  2  0  0  0  0
  9 10  1  0  0  0  0
  9 17  1  0  0  0  0
 10 11  1  0  0  0  0
 10 14  1  0  0  0  0
 11 12  1  0  0  0  0
 11 13  1  0  0  0  0
 14 15  1  0  0  0  0
 15 16  4  0  0  0  0
 15 23  4  0  0  0  0
 16 17  4  0  0  0  0
 16 21  4  0  0  0  0
 17 18  4  0  0  0  0
 18 19  4  0  0  0  0
 19 20  4  0  0  0  0
 20 21  4  0  0  0  0
 21 22  4  0  0  0  0
 22 23  4  0  0  0  0
 22 24  1  0  0  0  0
 25 26  1  0  0  0  0
M  END
>  <Name_Molregno>
METHYSERGIDE

>  <5-HT1A>
7.81

>  <5-HT1B>
7.91

>  <5-HT1D>
7.56

>  <5-HT1E>
6.71

>  <5-HT2A>
8.05

>  <5-HT2C>
8.69

>  <5-HT3>
5

>  <5-HT5>
5

>  <5-HT6>
6.82

>  <5-HT7>
7.32

>  <Alpha-1A>
5

>  <Alpha-1B>
5

>  <Alpha-2A>
6.77

>  <Alpha-2B>
6.97

>  <Alpha-2C>
7.05

>  <Beta-1>
5

>  <Beta-2>
5

>  <DOPAMINE D1>
5

>  <DOPAMINE D2>
5

>  <DOPAMINE D4>
5

>  <DOPAMINE D5>
5

>  <Dopamine transporter>
5

>  <HISTAMINE H1>
5.26

>  <HISTAMINE H2>
5

>  <Muscarinic acetylcholine receptor M1>
5.26

>  <Muscarinic acetylcholine receptor M2>
5.21

>  <Muscarinic acetylcholine receptor M3>
5.33

>  <Muscarinic acetylcholine receptor M4>
5

>  <Muscarinic acetylcholine receptor M5>
5

>  <Norepinephrine transporter>
5

>  <Serotonin transporter>
5

$$$$
MIANSERIN
  Marvin  02231216192D 0   1.00000     0.00000     0

 20 23  0  0  1  0  0  0  0  0999 V2000
   -0.0097    0.0139    0.0000 N   0  0  0  0  0  0  0  0  0
    0.8153    0.0139    0.0000 C   0  0  0  0  0  0  0  0  0
    1.3296   -0.6312    0.0000 C   0  0  0  0  0  0  0  0  0
    1.1460   -1.4355    0.0000 C   0  0  0  0  0  0  0  0  0
    0.4028   -1.7934    0.0000 C   0  0  0  0  0  0  0  0  0
   -0.3405   -1.4355    0.0000 C   0  0  0  0  0  0  0  0  0
   -0.5241   -0.6312    0.0000 C   0  0  0  0  0  0  0  0  0
   -1.3125   -0.3880    0.0000 C   0  0  0  0  0  0  0  0  0
   -1.9172   -0.9491    0.0000 C   0  0  0  0  0  0  0  0  0
   -1.7337   -1.7534    0.0000 C   0  0  0  0  0  0  0  0  0
   -0.9453   -1.9966    0.0000 C   0  0  0  0  0  0  0  0  0
    1.7508   -1.9966    0.0000 C   0  0  0  0  0  0  0  0  0
    2.5392   -1.7534    0.0000 C   0  0  0  0  0  0  0  0  0
    2.7227   -0.9491    0.0000 C   0  0  0  0  0  0  0  0  0
    2.1180   -0.3880    0.0000 C   0  0  0  0  0  0  0  0  0
    1.2278    0.7283    0.0000 C   0  0  0  0  0  0  0  0  0
    0.8153    1.4428    0.0000 N   0  0  0  0  0  0  0  0  0
   -0.0097    1.4428    0.0000 C   0  0  0  0  0  0  0  0  0
   -0.4222    0.7283    0.0000 C   0  0  0  0  0  0  0  0  0
    1.2278    2.1573    0.0000 C   0  0  0  0  0  0  0  0  0
  1  2  1  0  0  0  0
  1  7  1  0  0  0  0
  1 19  1  0  0  0  0
  2  3  1  0  0  0  0
  2 16  1  0  0  0  0
  3  4  4  0  0  0  0
  3 15  4  0  0  0  0
  4  5  1  0  0  0  0
  4 12  4  0  0  0  0
  5  6  1  0  0  0  0
  6  7  4  0  0  0  0
  6 11  4  0  0  0  0
  7  8  4  0  0  0  0
  8  9  4  0  0  0  0
  9 10  4  0  0  0  0
 10 11  4  0  0  0  0
 12 13  4  0  0  0  0
 13 14  4  0  0  0  0
 14 15  4  0  0  0  0
 16 17  1  0  0  0  0
 17 18  1  0  0  0  0
 17 20  1  0  0  0  0
 18 19  1  0  0  0  0
M  END
>  <Name_Molregno>
MIANSERIN

>  <5-HT1A>
6.15

>  <5-HT1D>
6.53

>  <5-HT2A>
8.13

>  <5-HT2C>
8.5

>  <5-HT6>
7.2

>  <5-HT7>
7.28

>  <Alpha-2A>
8.32

>  <Alpha-2B>
7.57

>  <Alpha-2C>
8.42

>  <DOPAMINE D1>
6.11

>  <DOPAMINE D2>
5.69

>  <DOPAMINE D3>
5.55

>  <Dopamine transporter>
5.03

>  <HISTAMINE H1>
9.13

>  <HISTAMINE H4>
6.12

>  <Norepinephrine transporter>
7.15

>  <Serotonin transporter>
5.4

$$$$
MIRTAZAPINE
  Marvin  02231216192D 0   1.00000     0.00000     0

 20 23  0  0  1  0  0  0  0  0999 V2000
   -2.9515    1.3173    0.0000 N   0  0  0  0  0  0  0  0  0
   -2.1632    1.0741    0.0000 C   0  0  0  0  0  0  0  0  0
   -1.6488    1.7191    0.0000 N   0  0  0  0  0  0  0  0  0
   -0.8238    1.7191    0.0000 C   0  0  0  0  0  0  0  0  0
   -0.3094    1.0741    0.0000 C   0  0  0  0  0  0  0  0  0
   -0.4930    0.2698    0.0000 C   0  0  0  0  0  0  0  0  0
   -1.2363   -0.0881    0.0000 C   0  0  0  0  0  0  0  0  0
   -1.9796    0.2698    0.0000 C   0  0  0  0  0  0  0  0  0
   -2.5844   -0.2913    0.0000 C   0  0  0  0  0  0  0  0  0
   -3.3727   -0.0482    0.0000 C   0  0  0  0  0  0  0  0  0
   -3.5563    0.7562    0.0000 C   0  0  0  0  0  0  0  0  0
    0.1118   -0.2913    0.0000 C   0  0  0  0  0  0  0  0  0
    0.9001   -0.0482    0.0000 C   0  0  0  0  0  0  0  0  0
    1.0837    0.7562    0.0000 C   0  0  0  0  0  0  0  0  0
    0.4789    1.3173    0.0000 C   0  0  0  0  0  0  0  0  0
   -0.4113    2.4336    0.0000 C   0  0  0  0  0  0  0  0  0
   -0.8238    3.1481    0.0000 N   0  0  0  0  0  0  0  0  0
   -1.6488    3.1481    0.0000 C   0  0  0  0  0  0  0  0  0
   -2.0613    2.4336    0.0000 C   0  0  0  0  0  0  0  0  0
   -0.4113    3.8626    0.0000 C   0  0  0  0  0  0  0  0  0
  1  2  4  0  0  0  0
  1 11  4  0  0  0  0
  2  3  1  0  0  0  0
  2  8  4  0  0  0  0
  3  4  1  0  0  0  0
  3 19  1  0  0  0  0
  4  5  1  0  0  0  0
  4 16  1  0  0  0  0
  5  6  4  0  0  0  0
  5 15  4  0  0  0  0
  6  7  1  0  0  0  0
  6 12  4  0  0  0  0
  7  8  1  0  0  0  0
  8  9  4  0  0  0  0
  9 10  4  0  0  0  0
 10 11  4  0  0  0  0
 12 13  4  0  0  0  0
 13 14  4  0  0  0  0
 14 15  4  0  0  0  0
 16 17  1  0  0  0  0
 17 18  1  0  0  0  0
 17 20  1  0  0  0  0
 18 19  1  0  0  0  0
M  END
>  <Name_Molregno>
MIRTAZAPINE

>  <5-HT1A>
7.74

>  <5-HT2A>
7.16

>  <5-HT2C>
7.41

>  <5-HT7>
6.58

>  <Alpha-2A>
7.7

>  <Alpha-2C>
7.74

>  <DOPAMINE D1>
5.38

>  <DOPAMINE D2>
5.26

>  <DOPAMINE D3>
6.06

>  <DOPAMINE D4>
7.6

>  <Dopamine transporter>
5

>  <HISTAMINE H1>
8.8

>  <Norepinephrine transporter>
5.29

>  <Serotonin transporter>
5

$$$$
MOLINDONE
  Marvin  02231216192D 0   1.00000     0.00000     0

 20 22  0  0  1  0  0  0  0  0999 V2000
    0.1066   -1.7192    0.0000 O   0  0  0  0  0  0  0  0  0
   -0.6079   -2.1317    0.0000 C   0  0  0  0  0  0  0  0  0
   -1.3224   -1.7192    0.0000 C   0  0  0  0  0  0  0  0  0
   -1.3224   -0.8942    0.0000 N   0  0  0  0  0  0  0  0  0
   -0.6079   -0.4817    0.0000 C   0  0  0  0  0  0  0  0  0
    0.1066   -0.8942    0.0000 C   0  0  0  0  0  0  0  0  0
   -2.0368   -0.4817    0.0000 C   0  0  0  0  0  0  0  0  0
   -2.7513   -0.8942    0.0000 C   0  0  0  0  0  0  0  0  0
   -2.7513   -1.7192    0.0000 C   0  0  0  0  0  0  0  0  0
   -3.4658   -2.1317    0.0000 C   0  0  0  0  0  0  0  0  0
   -4.1803   -1.7192    0.0000 C   0  0  0  0  0  0  0  0  0
   -4.9649   -1.9741    0.0000 N   0  0  0  0  0  0  0  0  0
   -5.4498   -1.3067    0.0000 C   0  0  0  0  0  0  0  0  0
   -6.2748   -1.3067    0.0000 C   0  0  0  0  0  0  0  0  0
   -4.9649   -0.6392    0.0000 C   0  0  0  0  0  0  0  0  0
   -4.1803   -0.8942    0.0000 C   0  0  0  0  0  0  0  0  0
   -3.4658   -0.4817    0.0000 C   0  0  0  0  0  0  0  0  0
   -3.4658    0.3433    0.0000 O   0  0  0  0  0  0  0  0  0
   -5.2198    0.1454    0.0000 C   0  0  0  0  0  0  0  0  0
   -4.6678    0.7585    0.0000 C   0  0  0  0  0  0  0  0  0
  1  2  1  0  0  0  0
  1  6  1  0  0  0  0
  2  3  1  0  0  0  0
  3  4  1  0  0  0  0
  4  5  1  0  0  0  0
  4  7  1  0  0  0  0
  5  6  1  0  0  0  0
  7  8  1  0  0  0  0
  8  9  1  0  0  0  0
  8 17  1  0  0  0  0
  9 10  1  0  0  0  0
 10 11  1  0  0  0  0
 11 12  4  0  0  0  0
 11 16  4  0  0  0  0
 12 13  4  0  0  0  0
 13 14  1  0  0  0  0
 13 15  4  0  0  0  0
 15 16  4  0  0  0  0
 15 19  1  0  0  0  0
 16 17  1  0  0  0  0
 17 18  2  0  0  0  0
 19 20  1  0  0  0  0
M  STY  1   1 DAT
M  SAL   1  1  12
M  SDT   1 MRV_IMPLICIT_H                                        
M  SDD   1     0.0000    0.0000    DR    ALL  0       0  
M  SED   1 IMPL_H1
M  END
>  <Name_Molregno>
MOLINDONE

>  <5-HT1A>
5.42

>  <5-HT2A>
5.41

>  <5-HT2C>
5

>  <5-HT6>
6

>  <5-HT7>
6.05

>  <Alpha-1A>
5.58

>  <Alpha-2A>
5.96

>  <Alpha-2B>
6.25

>  <Alpha-2C>
6.76

>  <DOPAMINE D2>
7.74

>  <DOPAMINE D3>
7.39

>  <DOPAMINE D4>
5.99

>  <HISTAMINE H1>
5.17

>  <Muscarinic acetylcholine receptor M3>
5

$$$$
N-(4-Acetamidophenyl)indomethacinamide
  Marvin  02231216192D 0   1.00000     0.00000     0

 37 40  0  0  0  0  0  0  0  0999 V2000
    0.5106    2.7433    0.0000 Cl  0  0  0  0  0  0  0  0  0
    1.3311    2.6571    0.0000 C   0  0  0  0  0  0  0  0  0
    1.8160    3.3245    0.0000 C   0  0  0  0  0  0  0  0  0
    2.6365    3.2383    0.0000 C   0  0  0  0  0  0  0  0  0
    2.9720    2.4846    0.0000 C   0  0  0  0  0  0  0  0  0
    2.4871    1.8172    0.0000 C   0  0  0  0  0  0  0  0  0
    1.6666    1.9034    0.0000 C   0  0  0  0  0  0  0  0  0
    3.7925    2.3984    0.0000 C   0  0  0  0  0  0  0  0  0
    4.2774    3.0658    0.0000 O   0  0  0  0  0  0  0  0  0
    4.1281    1.6447    0.0000 N   0  0  0  0  0  0  0  0  0
    3.7156    0.9302    0.0000 C   0  0  0  0  0  0  0  0  0
    4.2676    0.3171    0.0000 C   0  0  0  0  0  0  0  0  0
    4.0127   -0.4675    0.0000 C   0  0  0  0  0  0  0  0  0
    3.2057   -0.6390    0.0000 C   0  0  0  0  0  0  0  0  0
    2.9508   -1.4236    0.0000 O   0  0  0  0  0  0  0  0  0
    2.1438   -1.5952    0.0000 C   0  0  0  0  0  0  0  0  0
    2.6537   -0.0259    0.0000 C   0  0  0  0  0  0  0  0  0
    2.9086    0.7587    0.0000 C   0  0  0  0  0  0  0  0  0
    5.0213    0.6527    0.0000 C   0  0  0  0  0  0  0  0  0
    5.7358    0.2402    0.0000 C   0  0  0  0  0  0  0  0  0
    5.7358   -0.5848    0.0000 C   0  0  0  0  0  0  0  0  0
    5.0213   -0.9973    0.0000 O   0  0  0  0  0  0  0  0  0
    6.4502   -0.9973    0.0000 N   0  0  0  0  0  0  0  0  0
    7.1647   -0.5848    0.0000 C   0  0  0  0  0  0  0  0  0
    7.1647    0.2402    0.0000 C   0  0  0  0  0  0  0  0  0
    7.8792    0.6527    0.0000 C   0  0  0  0  0  0  0  0  0
    7.8792    1.4777    0.0000 C   0  0  0  0  0  0  0  0  0
    8.5936    1.8902    0.0000 C   0  0  0  0  0  0  0  0  0
    9.3081    1.4777    0.0000 C   0  0  0  0  0  0  0  0  0
   10.0226    1.8902    0.0000 N   0  0  0  0  0  0  0  0  0
   10.7371    1.4777    0.0000 C   0  0  0  0  0  0  0  0  0
   11.4515    1.8902    0.0000 O   0  0  0  0  0  0  0  0  0
   10.7371    0.6527    0.0000 C   0  0  0  0  0  0  0  0  0
    9.3081    0.6527    0.0000 C   0  0  0  0  0  0  0  0  0
    8.5936    0.2402    0.0000 C   0  0  0  0  0  0  0  0  0
    4.9351    1.4732    0.0000 C   0  0  0  0  0  0  0  0  0
    5.5481    2.0252    0.0000 C   0  0  0  0  0  0  0  0  0
  1  2  1  0  0  0  0
  2  3  4  0  0  0  0
  2  7  4  0  0  0  0
  3  4  4  0  0  0  0
  4  5  4  0  0  0  0
  5  6  4  0  0  0  0
  5  8  1  0  0  0  0
  6  7  4  0  0  0  0
  8  9  2  0  0  0  0
  8 10  1  0  0  0  0
 10 11  4  0  0  0  0
 10 36  4  0  0  0  0
 11 12  4  0  0  0  0
 11 18  4  0  0  0  0
 12 13  4  0  0  0  0
 12 19  4  0  0  0  0
 13 14  4  0  0  0  0
 14 15  1  0  0  0  0
 14 17  4  0  0  0  0
 15 16  1  0  0  0  0
 17 18  4  0  0  0  0
 19 20  1  0  0  0  0
 19 36  4  0  0  0  0
 20 21  1  0  0  0  0
 21 22  2  0  0  0  0
 21 23  1  0  0  0  0
 23 24  1  0  0  0  0
 24 25  1  0  0  0  0
 25 26  1  0  0  0  0
 26 27  4  0  0  0  0
 26 35  4  0  0  0  0
 27 28  4  0  0  0  0
 28 29  4  0  0  0  0
 29 30  1  0  0  0  0
 29 34  4  0  0  0  0
 30 31  1  0  0  0  0
 31 32  2  0  0  0  0
 31 33  1  0  0  0  0
 34 35  4  0  0  0  0
 36 37  1  0  0  0  0
M  END
>  <Name_Molregno>
N-(4-Acetamidophenyl)indomethacinamide

>  <5-HT1A>
5

>  <5-HT1B>
5

>  <5-HT1E>
5

>  <5-HT2A>
5

>  <5-HT3>
5

>  <5-HT6>
5

>  <5-HT7>
5

>  <Alpha-1A>
5

>  <Alpha-1B>
5

>  <Alpha-2A>
5

>  <Alpha-2B>
5

>  <Alpha-2C>
5

>  <DOPAMINE D1>
5

>  <DOPAMINE D2>
5

>  <DOPAMINE D5>
5

>  <Dopamine transporter>
5

>  <HISTAMINE H1>
5

>  <HISTAMINE H2>
5

>  <HISTAMINE H4>
5

>  <Muscarinic acetylcholine receptor M2>
5

>  <Muscarinic acetylcholine receptor M5>
5

>  <Serotonin transporter>
5

$$$$
Naproxen
  Marvin  02231216192D 0   1.00000     0.00000     0

 17 18  0  0  1  0  0  0  0  0999 V2000
   -5.3383   -1.4581    0.0000 O   0  0  0  0  0  0  0  0  0
   -6.0528   -1.0456    0.0000 C   0  0  0  0  0  0  0  0  0
   -4.6238   -1.0456    0.0000 C   0  0  0  0  0  0  0  0  0
   -3.9093   -1.4581    0.0000 C   0  0  0  0  0  0  0  0  0
   -3.1949   -1.0456    0.0000 C   0  0  0  0  0  0  0  0  0
   -3.1949   -0.2206    0.0000 C   0  0  0  0  0  0  0  0  0
   -2.4804    0.1919    0.0000 C   0  0  0  0  0  0  0  0  0
   -1.7659   -0.2206    0.0000 C   0  0  0  0  0  0  0  0  0
   -1.7659   -1.0456    0.0000 C   0  0  0  0  0  0  0  0  0
   -2.4804   -1.4581    0.0000 C   0  0  0  0  0  0  0  0  0
   -1.0515    0.1919    0.0000 C   0  0  0  0  0  0  0  0  0
   -0.3370   -0.2206    0.0000 C   0  0  0  0  0  0  0  0  0
    0.3775    0.1919    0.0000 O   0  0  0  0  0  0  0  0  0
   -0.3370   -1.0456    0.0000 O   0  0  0  0  0  0  0  0  0
   -1.0515    1.0169    0.0000 C   0  0  0  0  0  0  0  0  0
   -3.9093    0.1919    0.0000 C   0  0  0  0  0  0  0  0  0
   -4.6238   -0.2206    0.0000 C   0  0  0  0  0  0  0  0  0
  1  2  1  0  0  0  0
  1  3  1  0  0  0  0
  3  4  4  0  0  0  0
  3 17  4  0  0  0  0
  4  5  4  0  0  0  0
  5  6  4  0  0  0  0
  5 10  4  0  0  0  0
  6  7  4  0  0  0  0
  6 16  4  0  0  0  0
  7  8  4  0  0  0  0
  8  9  4  0  0  0  0
  8 11  1  0  0  0  0
  9 10  4  0  0  0  0
 11 12  1  0  0  0  0
 11 15  1  0  0  0  0
 12 13  1  0  0  0  0
 12 14  2  0  0  0  0
 16 17  4  0  0  0  0
M  END
>  <Name_Molregno>
Naproxen

>  <5-HT1A>
5

>  <5-HT1B>
5

>  <5-HT1D>
5

>  <5-HT1E>
5

>  <5-HT2A>
5

>  <5-HT3>
5

>  <5-HT5>
5

>  <5-HT6>
5

>  <5-HT7>
5

>  <Alpha-1A>
5

>  <Alpha-1B>
5

>  <Alpha-2A>
5

>  <Alpha-2B>
5

>  <Alpha-2C>
5

>  <DOPAMINE D1>
5

>  <DOPAMINE D2>
5

>  <DOPAMINE D4>
5

>  <DOPAMINE D5>
5

>  <Dopamine transporter>
5

>  <HISTAMINE H1>
5

>  <HISTAMINE H2>
5

>  <HISTAMINE H4>
5

>  <Muscarinic acetylcholine receptor M2>
5

>  <Muscarinic acetylcholine receptor M5>
5

>  <Norepinephrine transporter>
5

>  <Serotonin transporter>
5

$$$$
N-DESMETHYLCLOZAPINE
  Marvin  02231216192D 0   1.00000     0.00000     0

 22 25  0  0  0  0  0  0  0  0999 V2000
   -0.3818   -1.7384    0.0000 Cl  0  0  0  0  0  0  0  0  0
    0.4065   -1.9816    0.0000 C   0  0  0  0  0  0  0  0  0
    1.0113   -1.4204    0.0000 C   0  0  0  0  0  0  0  0  0
    1.7996   -1.6636    0.0000 C   0  0  0  0  0  0  0  0  0
    2.3140   -1.0186    0.0000 N   0  0  0  0  0  0  0  0  0
    3.1390   -1.0186    0.0000 C   0  0  0  0  0  0  0  0  0
    3.4969   -0.2753    0.0000 N   0  0  0  0  0  0  0  0  0
    3.0322    0.4063    0.0000 C   0  0  0  0  0  0  0  0  0
    3.3902    1.1496    0.0000 C   0  0  0  0  0  0  0  0  0
    4.2129    1.2113    0.0000 N   0  0  0  0  0  0  0  0  0
    4.6776    0.5296    0.0000 C   0  0  0  0  0  0  0  0  0
    4.3196   -0.2137    0.0000 C   0  0  0  0  0  0  0  0  0
    3.6534   -1.6636    0.0000 C   0  0  0  0  0  0  0  0  0
    3.4698   -2.4679    0.0000 C   0  0  0  0  0  0  0  0  0
    2.7265   -2.8259    0.0000 N   0  0  0  0  0  0  0  0  0
    1.9832   -2.4679    0.0000 C   0  0  0  0  0  0  0  0  0
    1.3784   -3.0291    0.0000 C   0  0  0  0  0  0  0  0  0
    0.5901   -2.7859    0.0000 C   0  0  0  0  0  0  0  0  0
    4.0746   -3.0291    0.0000 C   0  0  0  0  0  0  0  0  0
    4.8629   -2.7859    0.0000 C   0  0  0  0  0  0  0  0  0
    5.0465   -1.9816    0.0000 C   0  0  0  0  0  0  0  0  0
    4.4417   -1.4204    0.0000 C   0  0  0  0  0  0  0  0  0
  1  2  1  0  0  0  0
  2  3  4  0  0  0  0
  2 18  4  0  0  0  0
  3  4  4  0  0  0  0
  4  5  1  0  0  0  0
  4 16  4  0  0  0  0
  5  6  1  0  0  0  0
  6  7  1  0  0  0  0
  6 13  2  0  0  0  0
  7  8  1  0  0  0  0
  7 12  1  0  0  0  0
  8  9  1  0  0  0  0
  9 10  1  0  0  0  0
 10 11  1  0  0  0  0
 11 12  1  0  0  0  0
 13 14  1  0  0  0  0
 13 22  1  0  0  0  0
 14 15  2  0  0  0  0
 14 19  1  0  0  0  0
 15 16  1  0  0  0  0
 16 17  4  0  0  0  0
 17 18  4  0  0  0  0
 19 20  2  0  0  0  0
 20 21  1  0  0  0  0
 21 22  2  0  0  0  0
M  END
>  <Name_Molregno>
N-DESMETHYLCLOZAPINE

>  <5-HT1A>
7.86

>  <5-HT1B>
6.39

>  <5-HT1D>
6.32

>  <5-HT1E>
6.41

>  <5-HT2A>
7.96

>  <5-HT3>
6.57

>  <5-HT5>
6.46

>  <5-HT6>
7.94

>  <5-HT7>
7.22

>  <Alpha-1A>
6.98

>  <Alpha-1B>
7.07

>  <Alpha-2A>
6.86

>  <Alpha-2B>
7.02

>  <Alpha-2C>
6.93

>  <Beta-1>
5.2

>  <Beta-2>
5.33

>  <DOPAMINE D1>
7.84

>  <DOPAMINE D2>
7

>  <DOPAMINE D3>
6.82

>  <DOPAMINE D4>
7.28

>  <DOPAMINE D5>
6.55

>  <Dopamine transporter>
5

>  <HISTAMINE H1>
8.47

>  <HISTAMINE H2>
6.46

>  <HISTAMINE H4>
5.99

>  <Muscarinic acetylcholine receptor M1>
7.17

>  <Muscarinic acetylcholine receptor M2>
6.38

>  <Muscarinic acetylcholine receptor M3>
7.02

>  <Muscarinic acetylcholine receptor M4>
6.77

>  <Muscarinic acetylcholine receptor M5>
7.45

>  <Norepinephrine transporter>
6.31

>  <Serotonin transporter>
6.5

$$$$
nimesulide
  Marvin  02231216192D 0   1.00000     0.00000     0

 21 22  0  0  0  0  0  0  0  0999 V2000
    3.1126    1.9121    0.0000 S   0  0  0  0  0  0  0  0  0
    3.8271    2.3246    0.0000 O   0  0  0  0  0  0  0  0  0
    2.7001    2.6266    0.0000 O   0  0  0  0  0  0  0  0  0
    2.3982    1.4996    0.0000 N   0  0  0  0  0  0  0  0  0
    2.3982    0.6746    0.0000 C   0  0  0  0  0  0  0  0  0
    3.1126    0.2621    0.0000 C   0  0  0  0  0  0  0  0  0
    3.1126   -0.5629    0.0000 C   0  0  0  0  0  0  0  0  0
    2.3982   -0.9754    0.0000 C   0  0  0  0  0  0  0  0  0
    2.3982   -1.8004    0.0000 N   0  3  0  0  0  0  0  0  0
    1.6837   -2.2129    0.0000 O   0  5  0  0  0  0  0  0  0
    3.1126   -2.2129    0.0000 O   0  5  0  0  0  0  0  0  0
    1.6837   -0.5629    0.0000 C   0  0  0  0  0  0  0  0  0
    1.6837    0.2621    0.0000 C   0  0  0  0  0  0  0  0  0
    0.9692    0.6746    0.0000 O   0  0  0  0  0  0  0  0  0
    0.9692    1.4996    0.0000 C   0  0  0  0  0  0  0  0  0
    0.2548    1.9121    0.0000 C   0  0  0  0  0  0  0  0  0
    0.2548    2.7371    0.0000 C   0  0  0  0  0  0  0  0  0
    0.9692    3.1496    0.0000 C   0  0  0  0  0  0  0  0  0
    1.6837    2.7371    0.0000 C   0  0  0  0  0  0  0  0  0
    1.6837    1.9121    0.0000 C   0  0  0  0  0  0  0  0  0
    3.5251    1.1976    0.0000 C   0  0  0  0  0  0  0  0  0
  1  2  2  0  0  0  0
  1  3  2  0  0  0  0
  1  4  1  0  0  0  0
  1 21  1  0  0  0  0
  4  5  1  0  0  0  0
  5  6  4  0  0  0  0
  5 13  4  0  0  0  0
  6  7  4  0  0  0  0
  7  8  4  0  0  0  0
  8  9  1  0  0  0  0
  8 12  4  0  0  0  0
  9 10  1  0  0  0  0
  9 11  1  0  0  0  0
 12 13  4  0  0  0  0
 13 14  1  0  0  0  0
 14 15  1  0  0  0  0
 15 16  4  0  0  0  0
 15 20  4  0  0  0  0
 16 17  4  0  0  0  0
 17 18  4  0  0  0  0
 18 19  4  0  0  0  0
 19 20  4  0  0  0  0
M  CHG  3   9   1  10  -1  11  -1
M  END
>  <Name_Molregno>
nimesulide

>  <5-HT1A>
5

>  <5-HT1B>
5

>  <5-HT1D>
5

>  <5-HT1E>
5

>  <5-HT2A>
5

>  <5-HT3>
5

>  <5-HT5>
5

>  <5-HT6>
5

>  <5-HT7>
5

>  <Alpha-1A>
5

>  <Alpha-1B>
5

>  <Alpha-2A>
5

>  <Alpha-2B>
5

>  <Alpha-2C>
5

>  <DOPAMINE D1>
5

>  <DOPAMINE D2>
5

>  <DOPAMINE D4>
5

>  <DOPAMINE D5>
5

>  <Dopamine transporter>
5

>  <HISTAMINE H1>
5

>  <HISTAMINE H2>
5

>  <HISTAMINE H4>
5

>  <Muscarinic acetylcholine receptor M2>
5

>  <Muscarinic acetylcholine receptor M5>
5

>  <Norepinephrine transporter>
5

>  <Serotonin transporter>
5

$$$$
Norephedrine
  Marvin  02231216192D 0   1.00000     0.00000     0

 11 11  0  0  1  0  0  0  0  0999 V2000
    1.9974    0.2298    0.0000 O   0  0  0  0  0  0  0  0  0
    1.2829   -0.1827    0.0000 C   0  0  0  0  0  0  0  0  0
    0.5684    0.2298    0.0000 C   0  0  0  0  0  0  0  0  0
    0.5684    1.0548    0.0000 N   0  0  0  0  0  0  0  0  0
   -0.1461   -0.1827    0.0000 C   0  0  0  0  0  0  0  0  0
    1.2829   -1.0077    0.0000 C   0  0  0  0  0  0  0  0  0
    1.9974   -1.4202    0.0000 C   0  0  0  0  0  0  0  0  0
    1.9974   -2.2452    0.0000 C   0  0  0  0  0  0  0  0  0
    1.2829   -2.6577    0.0000 C   0  0  0  0  0  0  0  0  0
    0.5684   -2.2452    0.0000 C   0  0  0  0  0  0  0  0  0
    0.5684   -1.4202    0.0000 C   0  0  0  0  0  0  0  0  0
  1  2  1  0  0  0  0
  2  3  1  0  0  0  0
  2  6  1  0  0  0  0
  3  4  1  0  0  0  0
  3  5  1  0  0  0  0
  6  7  4  0  0  0  0
  6 11  4  0  0  0  0
  7  8  4  0  0  0  0
  8  9  4  0  0  0  0
  9 10  4  0  0  0  0
 10 11  4  0  0  0  0
M  END
>  <Name_Molregno>
Norephedrine

>  <5-HT1A>
5

>  <5-HT1B>
5

>  <5-HT1D>
5

>  <5-HT1E>
5

>  <5-HT3>
5

>  <5-HT5>
5

>  <5-HT6>
5

>  <5-HT7>
5.04

>  <Alpha-1A>
5

>  <Alpha-1B>
5

>  <Alpha-2A>
5.64

>  <Alpha-2B>
5.73

>  <Alpha-2C>
6.04

>  <Beta-1>
5

>  <Beta-2>
5

>  <DOPAMINE D1>
5

>  <DOPAMINE D2>
5

>  <DOPAMINE D4>
5

>  <DOPAMINE D5>
5

>  <Dopamine transporter>
5.76

>  <HISTAMINE H1>
5

>  <HISTAMINE H2>
5

>  <HISTAMINE H4>
5

>  <Muscarinic acetylcholine receptor M1>
5.04

>  <Muscarinic acetylcholine receptor M2>
5

>  <Muscarinic acetylcholine receptor M3>
5

>  <Muscarinic acetylcholine receptor M4>
5

>  <Muscarinic acetylcholine receptor M5>
5

>  <Norepinephrine transporter>
6.34

>  <Serotonin transporter>
5

$$$$
NOREPINEPHRINE
  Marvin  02231216192D 0   1.00000     0.00000     0

 12 12  0  0  1  0  0  0  0  0999 V2000
    3.1670    0.8378    0.0000 O   0  0  0  0  0  0  0  0  0
    2.4525    0.4253    0.0000 C   0  0  0  0  0  0  0  0  0
    2.4525   -0.3997    0.0000 C   0  0  0  0  0  0  0  0  0
    1.7381   -0.8122    0.0000 C   0  0  0  0  0  0  0  0  0
    1.0236   -0.3997    0.0000 C   0  0  0  0  0  0  0  0  0
    1.0236    0.4253    0.0000 C   0  0  0  0  0  0  0  0  0
    1.7381    0.8378    0.0000 C   0  0  0  0  0  0  0  0  0
    1.7381    1.6628    0.0000 O   0  0  0  0  0  0  0  0  0
    1.7381   -1.6372    0.0000 C   0  0  0  0  0  0  0  0  0
    2.4525   -2.0497    0.0000 O   0  0  0  0  0  0  0  0  0
    1.0236   -2.0497    0.0000 C   0  0  0  0  0  0  0  0  0
    1.0236   -2.8747    0.0000 N   0  0  0  0  0  0  0  0  0
  1  2  1  0  0  0  0
  2  3  4  0  0  0  0
  2  7  4  0  0  0  0
  3  4  4  0  0  0  0
  4  5  4  0  0  0  0
  4  9  1  0  0  0  0
  5  6  4  0  0  0  0
  6  7  4  0  0  0  0
  7  8  1  0  0  0  0
  9 10  1  0  0  0  0
  9 11  1  0  0  0  0
 11 12  1  0  0  0  0
M  END
>  <Name_Molregno>
NOREPINEPHRINE

>  <5-HT1A>
5

>  <5-HT2A>
5

>  <5-HT3>
5

>  <5-HT7>
5

>  <Alpha-1A>
5.33

>  <Alpha-1B>
5.1

>  <Alpha-2A>
6.32

>  <Alpha-2B>
6.02

>  <Alpha-2C>
6.43

>  <Beta-1>
5.45

>  <Beta-2>
4.9

>  <DOPAMINE D1>
5

>  <DOPAMINE D2>
5

>  <DOPAMINE D5>
5

>  <Dopamine transporter>
5.02

$$$$
Norfenfluramine
  Marvin  02231216192D 0   1.00000     0.00000     0

 14 14  0  0  1  0  0  0  0  0999 V2000
    0.4631   -1.9707    0.0000 F   0  0  0  0  0  0  0  0  0
    1.1776   -1.5582    0.0000 C   0  0  0  0  0  0  0  0  0
    1.5901   -2.2727    0.0000 F   0  0  0  0  0  0  0  0  0
    0.7651   -0.8437    0.0000 F   0  0  0  0  0  0  0  0  0
    1.8921   -1.1457    0.0000 C   0  0  0  0  0  0  0  0  0
    1.8921   -0.3207    0.0000 C   0  0  0  0  0  0  0  0  0
    2.6065    0.0918    0.0000 C   0  0  0  0  0  0  0  0  0
    3.3210   -0.3207    0.0000 C   0  0  0  0  0  0  0  0  0
    3.3210   -1.1457    0.0000 C   0  0  0  0  0  0  0  0  0
    2.6065   -1.5582    0.0000 C   0  0  0  0  0  0  0  0  0
    2.6065    0.9168    0.0000 C   0  0  0  0  0  0  0  0  0
    3.3210    1.3293    0.0000 C   0  0  0  0  0  0  0  0  0
    3.3210    2.1543    0.0000 N   0  0  0  0  0  0  0  0  0
    4.0355    0.9168    0.0000 C   0  0  0  0  0  0  0  0  0
  1  2  1  0  0  0  0
  2  3  1  0  0  0  0
  2  4  1  0  0  0  0
  2  5  1  0  0  0  0
  5  6  4  0  0  0  0
  5 10  4  0  0  0  0
  6  7  4  0  0  0  0
  7  8  4  0  0  0  0
  7 11  1  0  0  0  0
  8  9  4  0  0  0  0
  9 10  4  0  0  0  0
 11 12  1  0  0  0  0
 12 13  1  0  0  0  0
 12 14  1  0  0  0  0
M  END
>  <Name_Molregno>
Norfenfluramine

>  <5-HT1A>
5.77

>  <5-HT1B>
5.57

>  <5-HT1D>
5.88

>  <5-HT1E>
5

>  <5-HT3>
5

>  <5-HT5>
5

>  <5-HT6>
5

>  <5-HT7>
6.44

>  <Alpha-1A>
5.11

>  <Alpha-1B>
5

>  <Alpha-2A>
5.42

>  <Alpha-2B>
5.75

>  <Alpha-2C>
6.08

>  <Beta-1>
5

>  <Beta-2>
5

>  <DOPAMINE D1>
5

>  <DOPAMINE D2>
5

>  <DOPAMINE D4>
5

>  <DOPAMINE D5>
5

>  <Dopamine transporter>
5

>  <HISTAMINE H1>
5

>  <HISTAMINE H2>
5

>  <Muscarinic acetylcholine receptor M1>
5.42

>  <Muscarinic acetylcholine receptor M2>
5.24

>  <Muscarinic acetylcholine receptor M3>
6.04

>  <Muscarinic acetylcholine receptor M4>
5.31

>  <Muscarinic acetylcholine receptor M5>
5.78

>  <Norepinephrine transporter>
5

>  <Serotonin transporter>
5

$$$$
OLANZAPINE
  Marvin  02231216192D 0   1.00000     0.00000     0

 22 25  0  0  0  0  0  0  0  0999 V2000
   -1.5954    3.4952    0.0000 S   0  0  0  0  0  0  0  0  0
   -0.8919    3.0642    0.0000 C   0  0  0  0  0  0  0  0  0
   -0.1447    3.4138    0.0000 N   0  0  0  0  0  0  0  0  0
    0.5946    3.0476    0.0000 C   0  0  0  0  0  0  0  0  0
    0.7691    2.2413    0.0000 C   0  0  0  0  0  0  0  0  0
    0.2476    1.6020    0.0000 N   0  0  0  0  0  0  0  0  0
   -0.5774    1.6113    0.0000 C   0  0  0  0  0  0  0  0  0
   -0.9436    0.8720    0.0000 N   0  0  0  0  0  0  0  0  0
   -0.4865    0.1852    0.0000 C   0  0  0  0  0  0  0  0  0
   -0.8527   -0.5540    0.0000 C   0  0  0  0  0  0  0  0  0
   -1.6761   -0.6065    0.0000 N   0  0  0  0  0  0  0  0  0
   -2.1332    0.0803    0.0000 C   0  0  0  0  0  0  0  0  0
   -1.7669    0.8196    0.0000 C   0  0  0  0  0  0  0  0  0
   -2.0423   -1.3458    0.0000 C   0  0  0  0  0  0  0  0  0
   -1.0845    2.2620    0.0000 C   0  0  0  0  0  0  0  0  0
   -1.9069    2.1972    0.0000 C   0  0  0  0  0  0  0  0  0
   -2.2227    2.9594    0.0000 C   0  0  0  0  0  0  0  0  0
   -3.0249    3.1520    0.0000 C   0  0  0  0  0  0  0  0  0
    1.5547    1.9893    0.0000 C   0  0  0  0  0  0  0  0  0
    2.1657    2.5436    0.0000 C   0  0  0  0  0  0  0  0  0
    1.9912    3.3499    0.0000 C   0  0  0  0  0  0  0  0  0
    1.2056    3.6019    0.0000 C   0  0  0  0  0  0  0  0  0
  1  2  1  0  0  0  0
  1 17  1  0  0  0  0
  2  3  2  0  0  0  0
  2 15  1  0  0  0  0
  3  4  1  0  0  0  0
  4  5  4  0  0  0  0
  4 22  4  0  0  0  0
  5  6  1  0  0  0  0
  5 19  4  0  0  0  0
  6  7  1  0  0  0  0
  7  8  1  0  0  0  0
  7 15  2  0  0  0  0
  8  9  1  0  0  0  0
  8 13  1  0  0  0  0
  9 10  1  0  0  0  0
 10 11  1  0  0  0  0
 11 12  1  0  0  0  0
 11 14  1  0  0  0  0
 12 13  1  0  0  0  0
 15 16  1  0  0  0  0
 16 17  2  0  0  0  0
 17 18  1  0  0  0  0
 19 20  4  0  0  0  0
 20 21  4  0  0  0  0
 21 22  4  0  0  0  0
M  END
>  <Name_Molregno>
OLANZAPINE

>  <5-HT1A>
5.77

>  <5-HT1B>
6.23

>  <5-HT1D>
6.3

>  <5-HT1E>
5.66

>  <5-HT2A>
8.46

>  <5-HT2C>
7.86

>  <5-HT3>
6.69

>  <5-HT5>
5.92

>  <5-HT6>
7.97

>  <5-HT7>
6.73

>  <Alpha-1A>
6.95

>  <Alpha-1B>
6.58

>  <Alpha-2A>
6.51

>  <Alpha-2B>
6.97

>  <Alpha-2C>
7.21

>  <Beta-1>
5.15

>  <Beta-2>
5.15

>  <DOPAMINE D1>
7.3

>  <DOPAMINE D2>
7.67

>  <DOPAMINE D3>
7.53

>  <DOPAMINE D4>
7.73

>  <DOPAMINE D5>
7.09

>  <Dopamine transporter>
5

>  <HISTAMINE H1>
8.96

>  <HISTAMINE H2>
7.36

>  <HISTAMINE H4>
5

>  <Muscarinic acetylcholine receptor M1>
7.99

>  <Muscarinic acetylcholine receptor M2>
6.93

>  <Muscarinic acetylcholine receptor M3>
7.33

>  <Muscarinic acetylcholine receptor M4>
7.35

>  <Muscarinic acetylcholine receptor M5>
7.78

>  <Norepinephrine transporter>
5

>  <Serotonin transporter>
5.48

$$$$
OLANZAPINE-2
  Marvin  02231216192D 0   1.00000     0.00000     0

 22 25  0  0  0  0  0  0  0  0999 V2000
   -1.5954    3.4952    0.0000 S   0  0  0  0  0  0  0  0  0
   -0.8919    3.0642    0.0000 C   0  0  0  0  0  0  0  0  0
   -0.1447    3.4138    0.0000 N   0  0  0  0  0  0  0  0  0
    0.5946    3.0476    0.0000 C   0  0  0  0  0  0  0  0  0
    0.7691    2.2413    0.0000 C   0  0  0  0  0  0  0  0  0
    0.2476    1.6020    0.0000 N   0  0  0  0  0  0  0  0  0
   -0.5774    1.6113    0.0000 C   0  0  0  0  0  0  0  0  0
   -0.9436    0.8720    0.0000 N   0  0  0  0  0  0  0  0  0
   -0.4865    0.1852    0.0000 C   0  0  0  0  0  0  0  0  0
   -0.8527   -0.5540    0.0000 C   0  0  0  0  0  0  0  0  0
   -1.6761   -0.6065    0.0000 N   0  0  0  0  0  0  0  0  0
   -2.1332    0.0803    0.0000 C   0  0  0  0  0  0  0  0  0
   -1.7669    0.8196    0.0000 C   0  0  0  0  0  0  0  0  0
   -2.0423   -1.3458    0.0000 C   0  0  0  0  0  0  0  0  0
   -1.0845    2.2620    0.0000 C   0  0  0  0  0  0  0  0  0
   -1.9069    2.1972    0.0000 C   0  0  0  0  0  0  0  0  0
   -2.2227    2.9594    0.0000 C   0  0  0  0  0  0  0  0  0
   -3.0249    3.1520    0.0000 C   0  0  0  0  0  0  0  0  0
    1.5547    1.9893    0.0000 C   0  0  0  0  0  0  0  0  0
    2.1657    2.5436    0.0000 C   0  0  0  0  0  0  0  0  0
    1.9912    3.3499    0.0000 C   0  0  0  0  0  0  0  0  0
    1.2056    3.6019    0.0000 C   0  0  0  0  0  0  0  0  0
  1  2  4  0  0  0  0
  1 17  4  0  0  0  0
  2  3  1  0  0  0  0
  2 15  4  0  0  0  0
  3  4  1  0  0  0  0
  4  5  4  0  0  0  0
  4 22  4  0  0  0  0
  5  6  1  0  0  0  0
  5 19  4  0  0  0  0
  6  7  2  0  0  0  0
  7  8  1  0  0  0  0
  7 15  1  0  0  0  0
  8  9  1  0  0  0  0
  8 13  1  0  0  0  0
  9 10  1  0  0  0  0
 10 11  1  0  0  0  0
 11 12  1  0  0  0  0
 11 14  1  0  0  0  0
 12 13  1  0  0  0  0
 15 16  4  0  0  0  0
 16 17  4  0  0  0  0
 17 18  1  0  0  0  0
 19 20  4  0  0  0  0
 20 21  4  0  0  0  0
 21 22  4  0  0  0  0
M  END
>  <Name_Molregno>
OLANZAPINE-2

>  <5-HT1A>
5.68

>  <5-HT2A>
8.66

>  <5-HT2C>
8.05

>  <5-HT3>
6.7

>  <5-HT6>
7.8

>  <5-HT7>
6.77

>  <Alpha-2A>
6.72

>  <Alpha-2C>
7.09

>  <DOPAMINE D1>
7.28

>  <DOPAMINE D2>
7.63

>  <DOPAMINE D3>
7.47

>  <DOPAMINE D4>
7.3

>  <HISTAMINE H1>
8.74

>  <Muscarinic acetylcholine receptor M1>
8.16

>  <Muscarinic acetylcholine receptor M4>
7.9

>  <Serotonin transporter>
4.82

$$$$
ORG-5222
  Marvin  02231216192D 0   1.00000     0.00000     0

 20 23  0  0  1  0  0  0  0  0999 V2000
   -0.0754   -0.1702    0.0000 Cl  0  0  0  0  0  0  0  0  0
    0.7129   -0.4133    0.0000 C   0  0  0  0  0  0  0  0  0
    1.3177    0.1478    0.0000 C   0  0  0  0  0  0  0  0  0
    2.1060   -0.0954    0.0000 C   0  0  0  0  0  0  0  0  0
    2.6204    0.5496    0.0000 C   0  0  0  0  0  0  0  0  0
    3.4454    0.5496    0.0000 C   0  0  0  0  0  0  0  0  0
    3.9598   -0.0954    0.0000 C   0  0  0  0  0  0  0  0  0
    3.7762   -0.8997    0.0000 C   0  0  0  0  0  0  0  0  0
    3.0329   -1.2576    0.0000 O   0  0  0  0  0  0  0  0  0
    2.2896   -0.8997    0.0000 C   0  0  0  0  0  0  0  0  0
    1.6849   -1.4608    0.0000 C   0  0  0  0  0  0  0  0  0
    0.8965   -1.2176    0.0000 C   0  0  0  0  0  0  0  0  0
    4.3810   -1.4608    0.0000 C   0  0  0  0  0  0  0  0  0
    5.1693   -1.2176    0.0000 C   0  0  0  0  0  0  0  0  0
    5.3529   -0.4133    0.0000 C   0  0  0  0  0  0  0  0  0
    4.7482    0.1478    0.0000 C   0  0  0  0  0  0  0  0  0
    3.7004    1.3343    0.0000 C   0  0  0  0  0  0  0  0  0
    3.0329    1.8192    0.0000 N   0  0  0  0  0  0  0  0  0
    2.3655    1.3343    0.0000 C   0  0  0  0  0  0  0  0  0
    3.0329    2.6442    0.0000 C   0  0  0  0  0  0  0  0  0
  1  2  1  0  0  0  0
  2  3  4  0  0  0  0
  2 12  4  0  0  0  0
  3  4  4  0  0  0  0
  4  5  1  0  0  0  0
  4 10  4  0  0  0  0
  5  6  1  0  0  0  0
  5 19  1  0  0  0  0
  6  7  1  0  0  0  0
  6 17  1  0  0  0  0
  7  8  4  0  0  0  0
  7 16  4  0  0  0  0
  8  9  1  0  0  0  0
  8 13  4  0  0  0  0
  9 10  1  0  0  0  0
 10 11  4  0  0  0  0
 11 12  4  0  0  0  0
 13 14  4  0  0  0  0
 14 15  4  0  0  0  0
 15 16  4  0  0  0  0
 17 18  1  0  0  0  0
 18 19  1  0  0  0  0
 18 20  1  0  0  0  0
M  END
>  <Name_Molregno>
ORG-5222

>  <5-HT1A>
7.7

>  <5-HT1B>
8.34

>  <5-HT1D>
8.07

>  <5-HT1E>
7.69

>  <5-HT2A>
9.41

>  <5-HT2C>
9.63

>  <5-HT3>
6.35

>  <5-HT5>
8.4

>  <5-HT6>
8.85

>  <5-HT7>
9.05

>  <Alpha-1A>
8.36

>  <Alpha-1B>
8.41

>  <Alpha-2A>
8.08

>  <Alpha-2B>
8.64

>  <Alpha-2C>
7.82

>  <Beta-1>
5.3

>  <Beta-2>
5.3

>  <DOPAMINE D1>
8.54

>  <DOPAMINE D2>
8.72

>  <DOPAMINE D3>
8.74

>  <DOPAMINE D4>
8.58

>  <DOPAMINE D5>
7.64

>  <Dopamine transporter>
5.5

>  <HISTAMINE H1>
8.91

>  <HISTAMINE H2>
8.64

>  <HISTAMINE H4>
5

>  <Muscarinic acetylcholine receptor M1>
7.61

>  <Muscarinic acetylcholine receptor M2>
7.1

>  <Muscarinic acetylcholine receptor M3>
7.41

>  <Muscarinic acetylcholine receptor M4>
5

>  <Muscarinic acetylcholine receptor M5>
8.02

>  <Norepinephrine transporter>
5

>  <Serotonin transporter>
5.5

$$$$
PARECOXIB
  Marvin  02231216192D 0   1.00000     0.00000     0

 26 28  0  0  0  0  0  0  0  0999 V2000
    3.2898   -1.2399    0.0000 S   0  0  0  0  0  0  0  0  0
    3.7023   -0.5254    0.0000 O   0  0  0  0  0  0  0  0  0
    2.8773   -1.9544    0.0000 O   0  0  0  0  0  0  0  0  0
    4.0042   -1.6524    0.0000 N   0  0  0  0  0  0  0  0  0
    4.7187   -1.2399    0.0000 C   0  0  0  0  0  0  0  0  0
    4.7187   -0.4149    0.0000 O   0  0  0  0  0  0  0  0  0
    5.4332   -1.6524    0.0000 C   0  0  0  0  0  0  0  0  0
    6.1476   -1.2399    0.0000 C   0  0  0  0  0  0  0  0  0
    2.5753   -0.8274    0.0000 C   0  0  0  0  0  0  0  0  0
    1.8608   -1.2399    0.0000 C   0  0  0  0  0  0  0  0  0
    1.1463   -0.8274    0.0000 C   0  0  0  0  0  0  0  0  0
    1.1463   -0.0024    0.0000 C   0  0  0  0  0  0  0  0  0
    1.8608    0.4101    0.0000 C   0  0  0  0  0  0  0  0  0
    2.5753   -0.0024    0.0000 C   0  0  0  0  0  0  0  0  0
    0.4319    0.4101    0.0000 C   0  0  0  0  0  0  0  0  0
   -0.3218    0.0745    0.0000 C   0  0  0  0  0  0  0  0  0
   -0.8738    0.6876    0.0000 N   0  0  0  0  0  0  0  0  0
   -0.4613    1.4021    0.0000 O   0  0  0  0  0  0  0  0  0
    0.3456    1.2306    0.0000 C   0  0  0  0  0  0  0  0  0
    0.9587    1.7826    0.0000 C   0  0  0  0  0  0  0  0  0
   -0.4933   -0.7324    0.0000 C   0  0  0  0  0  0  0  0  0
    0.1198   -1.2845    0.0000 C   0  0  0  0  0  0  0  0  0
   -0.0518   -2.0914    0.0000 C   0  0  0  0  0  0  0  0  0
   -0.8364   -2.3464    0.0000 C   0  0  0  0  0  0  0  0  0
   -1.4495   -1.7943    0.0000 C   0  0  0  0  0  0  0  0  0
   -1.2779   -0.9874    0.0000 C   0  0  0  0  0  0  0  0  0
  1  2  2  0  0  0  0
  1  3  2  0  0  0  0
  1  4  1  0  0  0  0
  1  9  1  0  0  0  0
  4  5  1  0  0  0  0
  5  6  2  0  0  0  0
  5  7  1  0  0  0  0
  7  8  1  0  0  0  0
  9 10  4  0  0  0  0
  9 14  4  0  0  0  0
 10 11  4  0  0  0  0
 11 12  4  0  0  0  0
 12 13  4  0  0  0  0
 12 15  1  0  0  0  0
 13 14  4  0  0  0  0
 15 16  4  0  0  0  0
 15 19  4  0  0  0  0
 16 17  4  0  0  0  0
 16 21  1  0  0  0  0
 17 18  4  0  0  0  0
 18 19  4  0  0  0  0
 19 20  1  0  0  0  0
 21 22  4  0  0  0  0
 21 26  4  0  0  0  0
 22 23  4  0  0  0  0
 23 24  4  0  0  0  0
 24 25  4  0  0  0  0
 25 26  4  0  0  0  0
M  END
>  <Name_Molregno>
PARECOXIB

>  <5-HT1A>
5

>  <5-HT1B>
5

>  <5-HT1D>
5

>  <5-HT1E>
5

>  <5-HT2A>
5

>  <5-HT3>
5

>  <5-HT6>
5

>  <5-HT7>
5

>  <Alpha-1A>
5

>  <Alpha-1B>
5

>  <Alpha-2A>
5

>  <Alpha-2B>
5

>  <Alpha-2C>
5

>  <DOPAMINE D1>
5

>  <DOPAMINE D2>
5

>  <DOPAMINE D4>
5

>  <DOPAMINE D5>
5

>  <Dopamine transporter>
5

>  <HISTAMINE H1>
5

>  <HISTAMINE H2>
5

>  <HISTAMINE H4>
5

>  <Muscarinic acetylcholine receptor M2>
5

>  <Muscarinic acetylcholine receptor M5>
5

>  <Norepinephrine transporter>
5

>  <Serotonin transporter>
5

$$$$
PBR28
  Marvin  02231216192D 0   1.00000     0.00000     0

 26 28  0  0  0  0  0  0  0  0999 V2000
    0.4191    0.0796    0.0000 O   0  0  0  0  0  0  0  0  0
    0.4191   -0.7454    0.0000 C   0  0  0  0  0  0  0  0  0
    1.1336   -1.1579    0.0000 C   0  0  0  0  0  0  0  0  0
    1.1336   -1.9829    0.0000 C   0  0  0  0  0  0  0  0  0
    0.4191   -2.3954    0.0000 C   0  0  0  0  0  0  0  0  0
   -0.2953   -1.9829    0.0000 C   0  0  0  0  0  0  0  0  0
   -0.2953   -1.1579    0.0000 C   0  0  0  0  0  0  0  0  0
   -1.0098   -0.7454    0.0000 N   0  0  0  0  0  0  0  0  0
   -1.7243   -1.1579    0.0000 C   0  0  0  0  0  0  0  0  0
   -2.4387   -0.7454    0.0000 C   0  0  0  0  0  0  0  0  0
   -2.4387    0.0796    0.0000 C   0  0  0  0  0  0  0  0  0
   -3.1532    0.4921    0.0000 C   0  0  0  0  0  0  0  0  0
   -3.8677    0.0796    0.0000 C   0  0  0  0  0  0  0  0  0
   -3.8677   -0.7454    0.0000 C   0  0  0  0  0  0  0  0  0
   -3.1532   -1.1579    0.0000 C   0  0  0  0  0  0  0  0  0
   -3.1532   -1.9829    0.0000 O   0  0  0  0  0  0  0  0  0
   -3.8677   -2.3954    0.0000 C   0  0  0  0  0  0  0  0  0
   -1.0098    0.0796    0.0000 C   0  0  0  0  0  0  0  0  0
   -1.7243    0.4921    0.0000 O   0  0  0  0  0  0  0  0  0
   -0.2953    0.4921    0.0000 C   0  0  0  0  0  0  0  0  0
    1.1336    0.4921    0.0000 C   0  0  0  0  0  0  0  0  0
    1.1336    1.3171    0.0000 C   0  0  0  0  0  0  0  0  0
    1.8481    1.7296    0.0000 C   0  0  0  0  0  0  0  0  0
    2.5626    1.3171    0.0000 C   0  0  0  0  0  0  0  0  0
    2.5626    0.4921    0.0000 C   0  0  0  0  0  0  0  0  0
    1.8481    0.0796    0.0000 C   0  0  0  0  0  0  0  0  0
  1  2  1  0  0  0  0
  1 21  1  0  0  0  0
  2  3  4  0  0  0  0
  2  7  4  0  0  0  0
  3  4  4  0  0  0  0
  4  5  4  0  0  0  0
  5  6  4  0  0  0  0
  6  7  4  0  0  0  0
  7  8  1  0  0  0  0
  8  9  1  0  0  0  0
  8 18  1  0  0  0  0
  9 10  1  0  0  0  0
 10 11  4  0  0  0  0
 10 15  4  0  0  0  0
 11 12  4  0  0  0  0
 12 13  4  0  0  0  0
 13 14  4  0  0  0  0
 14 15  4  0  0  0  0
 15 16  1  0  0  0  0
 16 17  1  0  0  0  0
 18 19  2  0  0  0  0
 18 20  1  0  0  0  0
 21 22  4  0  0  0  0
 21 26  4  0  0  0  0
 22 23  4  0  0  0  0
 23 24  4  0  0  0  0
 24 25  4  0  0  0  0
 25 26  4  0  0  0  0
M  END
>  <Name_Molregno>
PBR28

>  <5-HT1A>
5

>  <5-HT1B>
5

>  <5-HT1D>
5

>  <5-HT1E>
5

>  <5-HT2A>
5

>  <5-HT3>
5

>  <5-HT5>
5

>  <5-HT6>
5

>  <5-HT7>
5

>  <Alpha-1A>
5

>  <Alpha-1B>
5

>  <Alpha-2A>
5

>  <Alpha-2B>
5

>  <Alpha-2C>
5

>  <Beta-1>
5

>  <Beta-2>
5

>  <DOPAMINE D1>
5

>  <DOPAMINE D2>
5

>  <DOPAMINE D4>
5

>  <Dopamine transporter>
5

>  <HISTAMINE H1>
5

>  <HISTAMINE H2>
5

>  <HISTAMINE H4>
5

>  <Muscarinic acetylcholine receptor M2>
5

>  <Muscarinic acetylcholine receptor M5>
5

>  <Norepinephrine transporter>
5

>  <Serotonin transporter>
5

$$$$
PERPHENAZINE
  Marvin  02231216192D 0   1.00000     0.00000     0

 27 30  0  0  0  0  0  0  0  0999 V2000
   -5.2850   -0.3290    0.0000 Cl  0  0  0  0  0  0  0  0  0
   -4.5705    0.0835    0.0000 C   0  0  0  0  0  0  0  0  0
   -3.8561   -0.3290    0.0000 C   0  0  0  0  0  0  0  0  0
   -3.1416    0.0835    0.0000 C   0  0  0  0  0  0  0  0  0
   -2.4271   -0.3290    0.0000 N   0  0  0  0  0  0  0  0  0
   -1.7126    0.0835    0.0000 C   0  0  0  0  0  0  0  0  0
   -1.7126    0.9085    0.0000 C   0  0  0  0  0  0  0  0  0
   -2.4271    1.3210    0.0000 S   0  0  0  0  0  0  0  0  0
   -3.1416    0.9085    0.0000 C   0  0  0  0  0  0  0  0  0
   -3.8561    1.3210    0.0000 C   0  0  0  0  0  0  0  0  0
   -4.5705    0.9085    0.0000 C   0  0  0  0  0  0  0  0  0
   -0.9982    1.3210    0.0000 C   0  0  0  0  0  0  0  0  0
   -0.2837    0.9085    0.0000 C   0  0  0  0  0  0  0  0  0
   -0.2837    0.0835    0.0000 C   0  0  0  0  0  0  0  0  0
   -0.9982   -0.3290    0.0000 C   0  0  0  0  0  0  0  0  0
   -2.4271   -1.1540    0.0000 C   0  0  0  0  0  0  0  0  0
   -3.1416   -1.5665    0.0000 C   0  0  0  0  0  0  0  0  0
   -3.1416   -2.3915    0.0000 C   0  0  0  0  0  0  0  0  0
   -3.8561   -2.8040    0.0000 N   0  0  0  0  0  0  0  0  0
   -3.8561   -3.6290    0.0000 C   0  0  0  0  0  0  0  0  0
   -4.5705   -4.0415    0.0000 C   0  0  0  0  0  0  0  0  0
   -5.2850   -3.6290    0.0000 N   0  0  0  0  0  0  0  0  0
   -5.2850   -2.8040    0.0000 C   0  0  0  0  0  0  0  0  0
   -4.5705   -2.3915    0.0000 C   0  0  0  0  0  0  0  0  0
   -5.9995   -4.0415    0.0000 C   0  0  0  0  0  0  0  0  0
   -6.7139   -3.6290    0.0000 C   0  0  0  0  0  0  0  0  0
   -7.4284   -4.0415    0.0000 O   0  0  0  0  0  0  0  0  0
  1  2  1  0  0  0  0
  2  3  4  0  0  0  0
  2 11  4  0  0  0  0
  3  4  4  0  0  0  0
  4  5  1  0  0  0  0
  4  9  4  0  0  0  0
  5  6  1  0  0  0  0
  5 16  1  0  0  0  0
  6  7  4  0  0  0  0
  6 15  4  0  0  0  0
  7  8  1  0  0  0  0
  7 12  4  0  0  0  0
  8  9  1  0  0  0  0
  9 10  4  0  0  0  0
 10 11  4  0  0  0  0
 12 13  4  0  0  0  0
 13 14  4  0  0  0  0
 14 15  4  0  0  0  0
 16 17  1  0  0  0  0
 17 18  1  0  0  0  0
 18 19  1  0  0  0  0
 19 20  1  0  0  0  0
 19 24  1  0  0  0  0
 20 21  1  0  0  0  0
 21 22  1  0  0  0  0
 22 23  1  0  0  0  0
 22 25  1  0  0  0  0
 23 24  1  0  0  0  0
 25 26  1  0  0  0  0
 26 27  1  0  0  0  0
M  END
>  <Name_Molregno>
PERPHENAZINE

>  <5-HT1A>
6.38

>  <5-HT2A>
8.25

>  <5-HT2C>
6.88

>  <5-HT6>
7.77

>  <5-HT7>
7.64

>  <Alpha-1A>
8

>  <Alpha-2A>
6.09

>  <Alpha-2B>
6.98

>  <Alpha-2C>
7.07

>  <DOPAMINE D2>
9.26

>  <DOPAMINE D3>
9.52

>  <DOPAMINE D4>
7.59

>  <HISTAMINE H1>
8.09

>  <Muscarinic acetylcholine receptor M3>
5.73

$$$$
PIMOZIDE
  Marvin  02231216192D 0   1.00000     0.00000     0

 34 38  0  0  0  0  0  0  0  0999 V2000
    3.4878   -7.4849    0.0000 F   0  0  0  0  0  0  0  0  0
    3.7428   -6.7002    0.0000 C   0  0  0  0  0  0  0  0  0
    3.1908   -6.0871    0.0000 C   0  0  0  0  0  0  0  0  0
    3.4457   -5.3025    0.0000 C   0  0  0  0  0  0  0  0  0
    4.2527   -5.1310    0.0000 C   0  0  0  0  0  0  0  0  0
    4.8047   -5.7441    0.0000 C   0  0  0  0  0  0  0  0  0
    4.5498   -6.5287    0.0000 C   0  0  0  0  0  0  0  0  0
    4.5076   -4.3464    0.0000 C   0  0  0  0  0  0  0  0  0
    3.9556   -3.7333    0.0000 C   0  0  0  0  0  0  0  0  0
    4.2105   -2.9487    0.0000 C   0  0  0  0  0  0  0  0  0
    3.6585   -2.3356    0.0000 C   0  0  0  0  0  0  0  0  0
    3.9134   -1.5509    0.0000 N   0  0  0  0  0  0  0  0  0
    3.3614   -0.9378    0.0000 C   0  0  0  0  0  0  0  0  0
    3.6163   -0.1532    0.0000 C   0  0  0  0  0  0  0  0  0
    4.4233    0.0183    0.0000 C   0  0  0  0  0  0  0  0  0
    4.6782    0.8029    0.0000 N   0  0  0  0  0  0  0  0  0
    5.4629    1.0579    0.0000 C   0  0  0  0  0  0  0  0  0
    5.4629    1.8829    0.0000 C   0  0  0  0  0  0  0  0  0
    4.6782    2.1378    0.0000 N   0  0  0  0  0  0  0  0  0
    4.1933    1.4704    0.0000 C   0  0  0  0  0  0  0  0  0
    3.3683    1.4704    0.0000 O   0  0  0  0  0  0  0  0  0
    6.1773    2.2954    0.0000 C   0  0  0  0  0  0  0  0  0
    6.8918    1.8829    0.0000 C   0  0  0  0  0  0  0  0  0
    6.8918    1.0579    0.0000 C   0  0  0  0  0  0  0  0  0
    6.1773    0.6454    0.0000 C   0  0  0  0  0  0  0  0  0
    4.9753   -0.5948    0.0000 C   0  0  0  0  0  0  0  0  0
    4.7204   -1.3794    0.0000 C   0  0  0  0  0  0  0  0  0
    5.3146   -4.1748    0.0000 C   0  0  0  0  0  0  0  0  0
    5.5695   -3.3902    0.0000 C   0  0  0  0  0  0  0  0  0
    6.3765   -3.2187    0.0000 C   0  0  0  0  0  0  0  0  0
    6.9285   -3.8318    0.0000 C   0  0  0  0  0  0  0  0  0
    7.7355   -3.6603    0.0000 F   0  0  0  0  0  0  0  0  0
    6.6736   -4.6164    0.0000 C   0  0  0  0  0  0  0  0  0
    5.8666   -4.7879    0.0000 C   0  0  0  0  0  0  0  0  0
  1  2  1  0  0  0  0
  2  3  4  0  0  0  0
  2  7  4  0  0  0  0
  3  4  4  0  0  0  0
  4  5  4  0  0  0  0
  5  6  4  0  0  0  0
  5  8  1  0  0  0  0
  6  7  4  0  0  0  0
  8  9  1  0  0  0  0
  8 28  1  0  0  0  0
  9 10  1  0  0  0  0
 10 11  1  0  0  0  0
 11 12  1  0  0  0  0
 12 13  1  0  0  0  0
 12 27  1  0  0  0  0
 13 14  1  0  0  0  0
 14 15  1  0  0  0  0
 15 16  1  0  0  0  0
 15 26  1  0  0  0  0
 16 17  1  0  0  0  0
 16 20  1  0  0  0  0
 17 18  4  0  0  0  0
 17 25  4  0  0  0  0
 18 19  1  0  0  0  0
 18 22  4  0  0  0  0
 19 20  1  0  0  0  0
 20 21  2  0  0  0  0
 22 23  4  0  0  0  0
 23 24  4  0  0  0  0
 24 25  4  0  0  0  0
 26 27  1  0  0  0  0
 28 29  4  0  0  0  0
 28 34  4  0  0  0  0
 29 30  4  0  0  0  0
 30 31  4  0  0  0  0
 31 32  1  0  0  0  0
 31 33  4  0  0  0  0
 33 34  4  0  0  0  0
M  END
>  <Name_Molregno>
PIMOZIDE

>  <5-HT1A>
6.48

>  <5-HT1D>
5.51

>  <5-HT2A>
7.56

>  <5-HT2C>
5.92

>  <5-HT6>
7.15

>  <5-HT7>
9.3

>  <Alpha-1A>
6.7

>  <Alpha-2A>
5.8

>  <Alpha-2B>
6.09

>  <Alpha-2C>
6.42

>  <DOPAMINE D1>
5

>  <DOPAMINE D2>
8.86

>  <DOPAMINE D3>
9.05

>  <DOPAMINE D4>
8.74

>  <HISTAMINE H1>
6.88

>  <Muscarinic acetylcholine receptor M3>
5.71

$$$$
PIRENPERONE
  Marvin  02231216192D 0   1.00000     0.00000     0

 29 32  0  0  0  0  0  0  0  0999 V2000
    2.3505   -3.5857    0.0000 F   0  0  0  0  0  0  0  0  0
    2.3505   -2.7607    0.0000 C   0  0  0  0  0  0  0  0  0
    1.6360   -2.3482    0.0000 C   0  0  0  0  0  0  0  0  0
    1.6360   -1.5232    0.0000 C   0  0  0  0  0  0  0  0  0
    2.3505   -1.1107    0.0000 C   0  0  0  0  0  0  0  0  0
    3.0649   -1.5232    0.0000 C   0  0  0  0  0  0  0  0  0
    3.0649   -2.3482    0.0000 C   0  0  0  0  0  0  0  0  0
    2.3505   -0.2857    0.0000 C   0  0  0  0  0  0  0  0  0
    1.6360    0.1268    0.0000 O   0  0  0  0  0  0  0  0  0
    3.0649    0.1268    0.0000 C   0  0  0  0  0  0  0  0  0
    3.0649    0.9518    0.0000 C   0  0  0  0  0  0  0  0  0
    3.7794    1.3643    0.0000 C   0  0  0  0  0  0  0  0  0
    4.4939    0.9518    0.0000 N   0  0  0  0  0  0  0  0  0
    4.4939    0.1268    0.0000 C   0  0  0  0  0  0  0  0  0
    3.7794   -0.2857    0.0000 C   0  0  0  0  0  0  0  0  0
    5.2083    1.3643    0.0000 C   0  0  0  0  0  0  0  0  0
    5.9228    0.9518    0.0000 C   0  0  0  0  0  0  0  0  0
    6.6373    1.3643    0.0000 C   0  0  0  0  0  0  0  0  0
    7.3518    0.9518    0.0000 C   0  0  0  0  0  0  0  0  0
    7.3518    0.1268    0.0000 O   0  0  0  0  0  0  0  0  0
    8.0662    1.3643    0.0000 N   0  0  0  0  0  0  0  0  0
    8.0662    2.1893    0.0000 C   0  0  0  0  0  0  0  0  0
    7.3518    2.6018    0.0000 N   0  0  0  0  0  0  0  0  0
    6.6373    2.1893    0.0000 C   0  0  0  0  0  0  0  0  0
    5.9228    2.6018    0.0000 C   0  0  0  0  0  0  0  0  0
    8.7807    2.6018    0.0000 C   0  0  0  0  0  0  0  0  0
    9.4952    2.1893    0.0000 C   0  0  0  0  0  0  0  0  0
    9.4952    1.3643    0.0000 C   0  0  0  0  0  0  0  0  0
    8.7807    0.9518    0.0000 C   0  0  0  0  0  0  0  0  0
  1  2  1  0  0  0  0
  2  3  4  0  0  0  0
  2  7  4  0  0  0  0
  3  4  4  0  0  0  0
  4  5  4  0  0  0  0
  5  6  4  0  0  0  0
  5  8  1  0  0  0  0
  6  7  4  0  0  0  0
  8  9  2  0  0  0  0
  8 10  1  0  0  0  0
 10 11  1  0  0  0  0
 10 15  1  0  0  0  0
 11 12  1  0  0  0  0
 12 13  1  0  0  0  0
 13 14  1  0  0  0  0
 13 16  1  0  0  0  0
 14 15  1  0  0  0  0
 16 17  1  0  0  0  0
 17 18  1  0  0  0  0
 18 19  1  0  0  0  0
 18 24  2  0  0  0  0
 19 20  2  0  0  0  0
 19 21  1  0  0  0  0
 21 22  1  0  0  0  0
 21 29  1  0  0  0  0
 22 23  2  0  0  0  0
 22 26  1  0  0  0  0
 23 24  1  0  0  0  0
 24 25  1  0  0  0  0
 26 27  2  0  0  0  0
 27 28  1  0  0  0  0
 28 29  2  0  0  0  0
M  END
>  <Name_Molregno>
PIRENPERONE

>  <5-HT1A>
6.25

>  <5-HT2A>
8.97

>  <5-HT2C>
7.2

>  <5-HT7>
8.19

$$$$
PRAZOSIN
  Marvin  02231216192D 0   1.00000     0.00000     0

 28 31  0  0  0  0  0  0  0  0999 V2000
    1.9686   -3.1357    0.0000 O   0  0  0  0  0  0  0  0  0
    1.7137   -3.9204    0.0000 C   0  0  0  0  0  0  0  0  0
    0.8887   -3.9204    0.0000 C   0  0  0  0  0  0  0  0  0
    0.6338   -3.1357    0.0000 C   0  0  0  0  0  0  0  0  0
    1.3012   -2.6508    0.0000 C   0  0  0  0  0  0  0  0  0
    1.3012   -1.8258    0.0000 C   0  0  0  0  0  0  0  0  0
    0.5867   -1.4133    0.0000 O   0  0  0  0  0  0  0  0  0
    2.0157   -1.4133    0.0000 N   0  0  0  0  0  0  0  0  0
    2.0157   -0.5883    0.0000 C   0  0  0  0  0  0  0  0  0
    2.7302   -0.1758    0.0000 C   0  0  0  0  0  0  0  0  0
    3.4446   -0.5883    0.0000 N   0  0  0  0  0  0  0  0  0
    3.4446   -1.4133    0.0000 C   0  0  0  0  0  0  0  0  0
    2.7302   -1.8258    0.0000 C   0  0  0  0  0  0  0  0  0
    4.1591   -0.1758    0.0000 C   0  0  0  0  0  0  0  0  0
    4.1591    0.6492    0.0000 N   0  0  0  0  0  0  0  0  0
    4.8736    1.0617    0.0000 C   0  0  0  0  0  0  0  0  0
    4.8736    1.8867    0.0000 N   0  0  0  0  0  0  0  0  0
    5.5880    0.6492    0.0000 C   0  0  0  0  0  0  0  0  0
    6.3025    1.0617    0.0000 C   0  0  0  0  0  0  0  0  0
    7.0170    0.6492    0.0000 C   0  0  0  0  0  0  0  0  0
    7.7314    1.0617    0.0000 O   0  0  0  0  0  0  0  0  0
    7.7314    1.8867    0.0000 C   0  0  0  0  0  0  0  0  0
    7.0170   -0.1758    0.0000 C   0  0  0  0  0  0  0  0  0
    7.7314   -0.5883    0.0000 O   0  0  0  0  0  0  0  0  0
    7.7314   -1.4133    0.0000 C   0  0  0  0  0  0  0  0  0
    6.3025   -0.5883    0.0000 C   0  0  0  0  0  0  0  0  0
    5.5880   -0.1758    0.0000 C   0  0  0  0  0  0  0  0  0
    4.8736   -0.5883    0.0000 N   0  0  0  0  0  0  0  0  0
  1  2  4  0  0  0  0
  1  5  4  0  0  0  0
  2  3  4  0  0  0  0
  3  4  4  0  0  0  0
  4  5  4  0  0  0  0
  5  6  1  0  0  0  0
  6  7  2  0  0  0  0
  6  8  1  0  0  0  0
  8  9  1  0  0  0  0
  8 13  1  0  0  0  0
  9 10  1  0  0  0  0
 10 11  1  0  0  0  0
 11 12  1  0  0  0  0
 11 14  1  0  0  0  0
 12 13  1  0  0  0  0
 14 15  4  0  0  0  0
 14 28  4  0  0  0  0
 15 16  4  0  0  0  0
 16 17  1  0  0  0  0
 16 18  4  0  0  0  0
 18 19  4  0  0  0  0
 18 27  4  0  0  0  0
 19 20  4  0  0  0  0
 20 21  1  0  0  0  0
 20 23  4  0  0  0  0
 21 22  1  0  0  0  0
 23 24  1  0  0  0  0
 23 26  4  0  0  0  0
 24 25  1  0  0  0  0
 26 27  4  0  0  0  0
 27 28  4  0  0  0  0
M  END
>  <Name_Molregno>
PRAZOSIN

>  <5-HT1A>
5

>  <5-HT2A>
6.92

>  <5-HT3>
5

>  <5-HT7>
5

>  <Alpha-1A>
9.14

>  <Alpha-1B>
9.33

>  <Alpha-2A>
5.84

>  <Alpha-2B>
7.11

>  <Alpha-2C>
7.52

$$$$
Prucalopride
  Marvin  02231216192D 0   1.00000     0.00000     0

 25 27  0  0  0  0  0  0  0  0999 V2000
   -0.3739   -1.3965    0.0000 Cl  0  0  0  0  0  0  0  0  0
    0.3406   -1.8090    0.0000 C   0  0  0  0  0  0  0  0  0
    1.0551   -1.3965    0.0000 C   0  0  0  0  0  0  0  0  0
    1.7696   -1.8090    0.0000 C   0  0  0  0  0  0  0  0  0
    1.7696   -2.6340    0.0000 C   0  0  0  0  0  0  0  0  0
    2.3827   -3.1861    0.0000 O   0  0  0  0  0  0  0  0  0
    2.0471   -3.9397    0.0000 C   0  0  0  0  0  0  0  0  0
    1.2266   -3.8535    0.0000 C   0  0  0  0  0  0  0  0  0
    1.0551   -3.0465    0.0000 C   0  0  0  0  0  0  0  0  0
    0.3406   -2.6340    0.0000 C   0  0  0  0  0  0  0  0  0
   -0.3739   -3.0465    0.0000 N   0  0  0  0  0  0  0  0  0
    2.4840   -1.3965    0.0000 C   0  0  0  0  0  0  0  0  0
    3.1985   -1.8090    0.0000 O   0  0  0  0  0  0  0  0  0
    2.4840   -0.5715    0.0000 N   0  0  0  0  0  0  0  0  0
    3.1985   -0.1590    0.0000 C   0  0  0  0  0  0  0  0  0
    3.1985    0.6660    0.0000 C   0  0  0  0  0  0  0  0  0
    3.9130    1.0785    0.0000 C   0  0  0  0  0  0  0  0  0
    4.6274    0.6660    0.0000 N   0  0  0  0  0  0  0  0  0
    4.6274   -0.1590    0.0000 C   0  0  0  0  0  0  0  0  0
    3.9130   -0.5715    0.0000 C   0  0  0  0  0  0  0  0  0
    5.3419    1.0785    0.0000 C   0  0  0  0  0  0  0  0  0
    6.0564    0.6660    0.0000 C   0  0  0  0  0  0  0  0  0
    6.7709    1.0785    0.0000 C   0  0  0  0  0  0  0  0  0
    7.4853    0.6660    0.0000 O   0  0  0  0  0  0  0  0  0
    8.1998    1.0785    0.0000 C   0  0  0  0  0  0  0  0  0
  1  2  1  0  0  0  0
  2  3  4  0  0  0  0
  2 10  4  0  0  0  0
  3  4  4  0  0  0  0
  4  5  4  0  0  0  0
  4 12  1  0  0  0  0
  5  6  1  0  0  0  0
  5  9  4  0  0  0  0
  6  7  1  0  0  0  0
  7  8  1  0  0  0  0
  8  9  1  0  0  0  0
  9 10  4  0  0  0  0
 10 11  1  0  0  0  0
 12 13  2  0  0  0  0
 12 14  1  0  0  0  0
 14 15  1  0  0  0  0
 15 16  1  0  0  0  0
 15 20  1  0  0  0  0
 16 17  1  0  0  0  0
 17 18  1  0  0  0  0
 18 19  1  0  0  0  0
 18 21  1  0  0  0  0
 19 20  1  0  0  0  0
 21 22  1  0  0  0  0
 22 23  1  0  0  0  0
 23 24  1  0  0  0  0
 24 25  1  0  0  0  0
M  END
>  <Name_Molregno>
Prucalopride

>  <5-HT1A>
5

>  <5-HT1B>
5

>  <5-HT1D>
5

>  <5-HT1E>
5

>  <5-HT2A>
5

>  <5-HT2C>
5

>  <5-HT5>
5

>  <5-HT6>
5

>  <5-HT7>
5

>  <Alpha-2A>
5

>  <Alpha-2B>
5

>  <Alpha-2C>
5

>  <Beta-1>
5

>  <Beta-2>
5

>  <DOPAMINE D2>
5

>  <DOPAMINE D3>
5

>  <DOPAMINE D4>
5.63

>  <HISTAMINE H1>
5

>  <Serotonin transporter>
5

$$$$
PSILOCIN
  Marvin  02231216192D 0   1.00000     0.00000     0

 15 16  0  0  0  0  0  0  0  0999 V2000
    1.2794   -2.2041    0.0000 O   0  0  0  0  0  0  0  0  0
    1.2794   -1.3791    0.0000 C   0  0  0  0  0  0  0  0  0
    0.5650   -0.9666    0.0000 C   0  0  0  0  0  0  0  0  0
    0.5650   -0.1416    0.0000 C   0  0  0  0  0  0  0  0  0
   -0.2197    0.1134    0.0000 N   0  0  0  0  0  0  0  0  0
   -0.7046   -0.5541    0.0000 C   0  0  0  0  0  0  0  0  0
   -0.2197   -1.2215    0.0000 C   0  0  0  0  0  0  0  0  0
   -0.4746   -2.0061    0.0000 C   0  0  0  0  0  0  0  0  0
   -1.2816   -2.1777    0.0000 C   0  0  0  0  0  0  0  0  0
   -1.5365   -2.9623    0.0000 N   0  0  0  0  0  0  0  0  0
   -2.3435   -3.1338    0.0000 C   0  0  0  0  0  0  0  0  0
   -0.9845   -3.5754    0.0000 C   0  0  0  0  0  0  0  0  0
    1.2794    0.2709    0.0000 C   0  0  0  0  0  0  0  0  0
    1.9939   -0.1416    0.0000 C   0  0  0  0  0  0  0  0  0
    1.9939   -0.9666    0.0000 C   0  0  0  0  0  0  0  0  0
  1  2  1  0  0  0  0
  2  3  4  0  0  0  0
  2 15  4  0  0  0  0
  3  4  4  0  0  0  0
  3  7  4  0  0  0  0
  4  5  4  0  0  0  0
  4 13  4  0  0  0  0
  5  6  4  0  0  0  0
  6  7  4  0  0  0  0
  7  8  1  0  0  0  0
  8  9  1  0  0  0  0
  9 10  1  0  0  0  0
 10 11  1  0  0  0  0
 10 12  1  0  0  0  0
 13 14  4  0  0  0  0
 14 15  4  0  0  0  0
M  STY  1   1 DAT
M  SAL   1  1   5
M  SDT   1 MRV_IMPLICIT_H                                        
M  SDD   1     0.0000    0.0000    DR    ALL  0       0  
M  SED   1 IMPL_H1
M  END
>  <Name_Molregno>
PSILOCIN

>  <5-HT1A>
6.78

>  <5-HT1B>
6.66

>  <5-HT1D>
7.44

>  <5-HT1E>
7.28

>  <5-HT2A>
6.97

>  <5-HT3>
5

>  <5-HT5>
7.08

>  <5-HT6>
7.24

>  <5-HT7>
8.46

>  <Alpha-1A>
5

>  <Alpha-1B>
5

>  <Alpha-2A>
5.86

>  <Alpha-2B>
5.72

>  <Alpha-2C>
5

>  <Beta-1>
5

>  <DOPAMINE D1>
5

>  <DOPAMINE D2>
5

>  <DOPAMINE D4>
5

>  <DOPAMINE D5>
5

>  <Dopamine transporter>
5

>  <HISTAMINE H1>
6.52

>  <HISTAMINE H2>
5

>  <HISTAMINE H4>
5

>  <Muscarinic acetylcholine receptor M2>
5

>  <Muscarinic acetylcholine receptor M5>
5

>  <Norepinephrine transporter>
5

>  <Serotonin transporter>
5.42

$$$$
PSILOCYBIN
  Marvin  02231216192D 0   1.00000     0.00000     0

 19 20  0  0  0  0  0  0  0  0999 V2000
    0.6946   -2.4480    0.0000 P   0  0  0  0  0  0  0  0  0
   -0.0199   -2.0355    0.0000 O   0  0  0  0  0  0  0  0  0
   -0.0199   -1.2105    0.0000 C   0  0  0  0  0  0  0  0  0
   -0.7343   -0.7980    0.0000 C   0  0  0  0  0  0  0  0  0
   -0.7343    0.0270    0.0000 C   0  0  0  0  0  0  0  0  0
   -1.5190    0.2819    0.0000 N   0  0  0  0  0  0  0  0  0
   -2.0039   -0.3855    0.0000 C   0  0  0  0  0  0  0  0  0
   -1.5190   -1.0530    0.0000 C   0  0  0  0  0  0  0  0  0
   -1.7739   -1.8376    0.0000 C   0  0  0  0  0  0  0  0  0
   -2.5809   -2.0091    0.0000 C   0  0  0  0  0  0  0  0  0
   -2.8358   -2.7937    0.0000 N   0  0  0  0  0  0  0  0  0
   -3.6428   -2.9653    0.0000 C   0  0  0  0  0  0  0  0  0
   -2.2838   -3.4068    0.0000 C   0  0  0  0  0  0  0  0  0
   -0.0199    0.4395    0.0000 C   0  0  0  0  0  0  0  0  0
    0.6946    0.0270    0.0000 C   0  0  0  0  0  0  0  0  0
    0.6946   -0.7980    0.0000 C   0  0  0  0  0  0  0  0  0
    1.4091   -2.8605    0.0000 O   0  0  0  0  0  0  0  0  0
    0.2821   -3.1625    0.0000 O   0  0  0  0  0  0  0  0  0
    1.1071   -1.7336    0.0000 O   0  0  0  0  0  0  0  0  0
  1  2  1  0  0  0  0
  1 17  2  0  0  0  0
  1 18  1  0  0  0  0
  1 19  1  0  0  0  0
  2  3  1  0  0  0  0
  3  4  4  0  0  0  0
  3 16  4  0  0  0  0
  4  5  4  0  0  0  0
  4  8  4  0  0  0  0
  5  6  4  0  0  0  0
  5 14  4  0  0  0  0
  6  7  4  0  0  0  0
  7  8  4  0  0  0  0
  8  9  1  0  0  0  0
  9 10  1  0  0  0  0
 10 11  1  0  0  0  0
 11 12  1  0  0  0  0
 11 13  1  0  0  0  0
 14 15  4  0  0  0  0
 15 16  4  0  0  0  0
M  STY  1   1 DAT
M  SAL   1  1   6
M  SDT   1 MRV_IMPLICIT_H                                        
M  SDD   1     0.0000    0.0000    DR    ALL  0       0  
M  SED   1 IMPL_H1
M  END
>  <Name_Molregno>
PSILOCYBIN

>  <5-HT1A>
5

>  <5-HT1B>
5

>  <5-HT1D>
5.67

>  <5-HT1E>
6.71

>  <5-HT2A>
5

>  <5-HT3>
5

>  <5-HT5>
5.21

>  <5-HT6>
6.38

>  <5-HT7>
6.22

>  <Alpha-1A>
5

>  <Alpha-1B>
5

>  <Alpha-2A>
5

>  <Alpha-2B>
5

>  <Alpha-2C>
5

>  <DOPAMINE D1>
5

>  <DOPAMINE D2>
5

>  <DOPAMINE D4>
5

>  <DOPAMINE D5>
5

>  <Dopamine transporter>
5

>  <HISTAMINE H1>
5

>  <HISTAMINE H2>
5

>  <HISTAMINE H4>
5

>  <Muscarinic acetylcholine receptor M2>
5

>  <Muscarinic acetylcholine receptor M5>
5

>  <Norepinephrine transporter>
5

>  <Serotonin transporter>
5

$$$$
Quercetin
  Marvin  02231216192D 0   1.00000     0.00000     0

 22 24  0  0  0  0  0  0  0  0999 V2000
    0.2617    0.1403    0.0000 O   0  0  0  0  0  0  0  0  0
    0.9762    0.5528    0.0000 C   0  0  0  0  0  0  0  0  0
    0.9762    1.3778    0.0000 C   0  0  0  0  0  0  0  0  0
    0.2617    1.7903    0.0000 C   0  0  0  0  0  0  0  0  0
    0.2617    2.6153    0.0000 O   0  0  0  0  0  0  0  0  0
   -0.4528    1.3778    0.0000 C   0  0  0  0  0  0  0  0  0
   -1.1672    1.7903    0.0000 O   0  0  0  0  0  0  0  0  0
   -0.4528    0.5528    0.0000 C   0  0  0  0  0  0  0  0  0
   -1.1672    0.1403    0.0000 C   0  0  0  0  0  0  0  0  0
   -1.1672   -0.6847    0.0000 C   0  0  0  0  0  0  0  0  0
   -1.8817   -1.0972    0.0000 C   0  0  0  0  0  0  0  0  0
   -1.8817   -1.9222    0.0000 O   0  0  0  0  0  0  0  0  0
   -2.5962   -0.6847    0.0000 C   0  0  0  0  0  0  0  0  0
   -3.3106   -1.0972    0.0000 O   0  0  0  0  0  0  0  0  0
   -2.5962    0.1403    0.0000 C   0  0  0  0  0  0  0  0  0
   -1.8817    0.5528    0.0000 C   0  0  0  0  0  0  0  0  0
    1.6907    1.7903    0.0000 C   0  0  0  0  0  0  0  0  0
    1.6907    2.6153    0.0000 O   0  0  0  0  0  0  0  0  0
    2.4051    1.3778    0.0000 C   0  0  0  0  0  0  0  0  0
    2.4051    0.5528    0.0000 C   0  0  0  0  0  0  0  0  0
    3.1196    0.1403    0.0000 O   0  0  0  0  0  0  0  0  0
    1.6907    0.1403    0.0000 C   0  0  0  0  0  0  0  0  0
  1  2  1  0  0  0  0
  1  8  1  0  0  0  0
  2  3  4  0  0  0  0
  2 22  4  0  0  0  0
  3  4  1  0  0  0  0
  3 17  4  0  0  0  0
  4  5  2  0  0  0  0
  4  6  1  0  0  0  0
  6  7  1  0  0  0  0
  6  8  2  0  0  0  0
  8  9  1  0  0  0  0
  9 10  4  0  0  0  0
  9 16  4  0  0  0  0
 10 11  4  0  0  0  0
 11 12  1  0  0  0  0
 11 13  4  0  0  0  0
 13 14  1  0  0  0  0
 13 15  4  0  0  0  0
 15 16  4  0  0  0  0
 17 18  1  0  0  0  0
 17 19  4  0  0  0  0
 19 20  4  0  0  0  0
 20 21  1  0  0  0  0
 20 22  4  0  0  0  0
M  END
>  <Name_Molregno>
Quercetin

>  <5-HT1A>
5

>  <5-HT1D>
5

>  <5-HT3>
5

>  <5-HT5>
5

>  <5-HT6>
5

>  <5-HT7>
5

>  <Alpha-1A>
5

>  <Alpha-1B>
5

>  <Alpha-2A>
5

>  <Alpha-2B>
5

>  <Alpha-2C>
5

>  <DOPAMINE D1>
5

>  <DOPAMINE D5>
5

>  <Muscarinic acetylcholine receptor M1>
5

>  <Muscarinic acetylcholine receptor M2>
5

>  <Muscarinic acetylcholine receptor M3>
5

>  <Muscarinic acetylcholine receptor M4>
5

>  <Muscarinic acetylcholine receptor M5>
5

>  <Norepinephrine transporter>
5

>  <Serotonin transporter>
5

$$$$
Quercitrin
  Marvin  02231216192D 0   1.00000     0.00000     0

 32 35  0  0  1  0  0  0  0  0999 V2000
    1.5011    1.5398    0.0000 O   0  0  0  0  0  0  0  0  0
    1.5011    2.3648    0.0000 C   0  0  0  0  0  0  0  0  0
    2.2156    2.7773    0.0000 C   0  0  0  0  0  0  0  0  0
    0.7866    2.7773    0.0000 C   0  0  0  0  0  0  0  0  0
    0.7866    3.6023    0.0000 O   0  0  0  0  0  0  0  0  0
    0.0722    2.3648    0.0000 C   0  0  0  0  0  0  0  0  0
   -0.6423    2.7773    0.0000 O   0  0  0  0  0  0  0  0  0
    0.0722    1.5398    0.0000 C   0  0  0  0  0  0  0  0  0
   -0.6423    1.1273    0.0000 O   0  0  0  0  0  0  0  0  0
    0.7866    1.1273    0.0000 C   0  0  0  0  0  0  0  0  0
    0.7866    0.3023    0.0000 O   0  0  0  0  0  0  0  0  0
    1.5011   -0.1102    0.0000 C   0  0  0  0  0  0  0  0  0
    1.5011   -0.9352    0.0000 C   0  0  0  0  0  0  0  0  0
    2.2156   -1.3477    0.0000 O   0  0  0  0  0  0  0  0  0
    2.9300   -0.9352    0.0000 C   0  0  0  0  0  0  0  0  0
    2.9300   -0.1102    0.0000 C   0  0  0  0  0  0  0  0  0
    2.2156    0.3023    0.0000 C   0  0  0  0  0  0  0  0  0
    2.2156    1.1273    0.0000 O   0  0  0  0  0  0  0  0  0
    3.6445    0.3023    0.0000 C   0  0  0  0  0  0  0  0  0
    3.6445    1.1273    0.0000 O   0  0  0  0  0  0  0  0  0
    4.3590   -0.1102    0.0000 C   0  0  0  0  0  0  0  0  0
    4.3590   -0.9352    0.0000 C   0  0  0  0  0  0  0  0  0
    5.0734   -1.3477    0.0000 O   0  0  0  0  0  0  0  0  0
    3.6445   -1.3477    0.0000 C   0  0  0  0  0  0  0  0  0
    0.7866   -1.3477    0.0000 C   0  0  0  0  0  0  0  0  0
    0.7866   -2.1727    0.0000 C   0  0  0  0  0  0  0  0  0
    0.0722   -2.5852    0.0000 C   0  0  0  0  0  0  0  0  0
    0.0722   -3.4102    0.0000 O   0  0  0  0  0  0  0  0  0
   -0.6423   -2.1727    0.0000 C   0  0  0  0  0  0  0  0  0
   -1.3568   -2.5852    0.0000 O   0  0  0  0  0  0  0  0  0
   -0.6423   -1.3477    0.0000 C   0  0  0  0  0  0  0  0  0
    0.0722   -0.9352    0.0000 C   0  0  0  0  0  0  0  0  0
  1  2  1  0  0  0  0
  1 10  1  0  0  0  0
  2  3  1  0  0  0  0
  2  4  1  0  0  0  0
  4  5  1  0  0  0  0
  4  6  1  0  0  0  0
  6  7  1  0  0  0  0
  6  8  1  0  0  0  0
  8  9  1  0  0  0  0
  8 10  1  0  0  0  0
 10 11  1  0  0  0  0
 11 12  1  0  0  0  0
 12 13  2  0  0  0  0
 12 17  1  0  0  0  0
 13 14  1  0  0  0  0
 13 25  1  0  0  0  0
 14 15  1  0  0  0  0
 15 16  1  0  0  0  0
 15 24  2  0  0  0  0
 16 17  2  0  0  0  0
 16 19  1  0  0  0  0
 17 18  1  0  0  0  0
 19 20  1  0  0  0  0
 19 21  2  0  0  0  0
 21 22  1  0  0  0  0
 22 23  2  0  0  0  0
 22 24  1  0  0  0  0
 25 26  4  0  0  0  0
 25 32  4  0  0  0  0
 26 27  4  0  0  0  0
 27 28  1  0  0  0  0
 27 29  4  0  0  0  0
 29 30  1  0  0  0  0
 29 31  4  0  0  0  0
 31 32  4  0  0  0  0
M  END
>  <Name_Molregno>
Quercitrin

>  <5-HT1A>
5

>  <5-HT1D>
5

>  <5-HT3>
5

>  <5-HT5>
5

>  <5-HT6>
5

>  <5-HT7>
5

>  <Alpha-1A>
5

>  <Alpha-1B>
5

>  <Alpha-2A>
5

>  <Alpha-2B>
5

>  <Alpha-2C>
5

>  <DOPAMINE D1>
5

>  <DOPAMINE D5>
5

>  <Muscarinic acetylcholine receptor M1>
5

>  <Muscarinic acetylcholine receptor M2>
5

>  <Muscarinic acetylcholine receptor M3>
5

>  <Muscarinic acetylcholine receptor M4>
5

>  <Muscarinic acetylcholine receptor M5>
5

>  <Norepinephrine transporter>
5

>  <Serotonin transporter>
5

$$$$
QUETIAPINE
  Marvin  02231216192D 0   1.00000     0.00000     0

 27 30  0  0  0  0  0  0  0  0999 V2000
    0.4015    1.2563    0.0000 S   0  0  0  0  0  0  0  0  0
    1.2173    1.3793    0.0000 C   0  0  0  0  0  0  0  0  0
    1.8221    0.8181    0.0000 C   0  0  0  0  0  0  0  0  0
    2.6104    1.0613    0.0000 C   0  0  0  0  0  0  0  0  0
    2.7940    1.8656    0.0000 C   0  0  0  0  0  0  0  0  0
    2.1892    2.4268    0.0000 C   0  0  0  0  0  0  0  0  0
    1.4009    2.1836    0.0000 C   0  0  0  0  0  0  0  0  0
    1.7604   -0.0046    0.0000 C   0  0  0  0  0  0  0  0  0
    1.0788   -0.4693    0.0000 N   0  0  0  0  0  0  0  0  0
    0.2904   -0.2261    0.0000 C   0  0  0  0  0  0  0  0  0
   -0.0110    0.5418    0.0000 C   0  0  0  0  0  0  0  0  0
   -0.8268    0.6648    0.0000 C   0  0  0  0  0  0  0  0  0
   -1.3412    0.0198    0.0000 C   0  0  0  0  0  0  0  0  0
   -1.0398   -0.7482    0.0000 C   0  0  0  0  0  0  0  0  0
   -0.2240   -0.8711    0.0000 C   0  0  0  0  0  0  0  0  0
    2.4749   -0.4171    0.0000 N   0  0  0  0  0  0  0  0  0
    3.1893   -0.0046    0.0000 C   0  0  0  0  0  0  0  0  0
    3.9038   -0.4171    0.0000 C   0  0  0  0  0  0  0  0  0
    3.9038   -1.2421    0.0000 N   0  0  0  0  0  0  0  0  0
    3.1893   -1.6546    0.0000 C   0  0  0  0  0  0  0  0  0
    2.4749   -1.2421    0.0000 C   0  0  0  0  0  0  0  0  0
    4.6183   -1.6546    0.0000 C   0  0  0  0  0  0  0  0  0
    5.3328   -1.2421    0.0000 C   0  0  0  0  0  0  0  0  0
    6.0472   -1.6546    0.0000 O   0  0  0  0  0  0  0  0  0
    6.7617   -1.2421    0.0000 C   0  0  0  0  0  0  0  0  0
    7.4762   -1.6546    0.0000 C   0  0  0  0  0  0  0  0  0
    8.1906   -1.2421    0.0000 O   0  0  0  0  0  0  0  0  0
  1  2  1  0  0  0  0
  1 11  1  0  0  0  0
  2  3  4  0  0  0  0
  2  7  4  0  0  0  0
  3  4  4  0  0  0  0
  3  8  1  0  0  0  0
  4  5  4  0  0  0  0
  5  6  4  0  0  0  0
  6  7  4  0  0  0  0
  8  9  2  0  0  0  0
  8 16  1  0  0  0  0
  9 10  1  0  0  0  0
 10 11  4  0  0  0  0
 10 15  4  0  0  0  0
 11 12  4  0  0  0  0
 12 13  4  0  0  0  0
 13 14  4  0  0  0  0
 14 15  4  0  0  0  0
 16 17  1  0  0  0  0
 16 21  1  0  0  0  0
 17 18  1  0  0  0  0
 18 19  1  0  0  0  0
 19 20  1  0  0  0  0
 19 22  1  0  0  0  0
 20 21  1  0  0  0  0
 22 23  1  0  0  0  0
 23 24  1  0  0  0  0
 24 25  1  0  0  0  0
 25 26  1  0  0  0  0
 26 27  1  0  0  0  0
M  END
>  <Name_Molregno>
QUETIAPINE

>  <5-HT1A>
6.59

>  <5-HT1B>
5.83

>  <5-HT1D>
5.52

>  <5-HT1E>
5.76

>  <5-HT2A>
6.76

>  <5-HT2C>
5.82

>  <5-HT3>
5

>  <5-HT5>
5.51

>  <5-HT6>
6.35

>  <5-HT7>
6.74

>  <Alpha-1A>
7.66

>  <Alpha-1B>
7.41

>  <Alpha-2A>
5.51

>  <Alpha-2B>
6.44

>  <Alpha-2C>
7.18

>  <Beta-1>
5.15

>  <Beta-2>
5.15

>  <DOPAMINE D1>
5.95

>  <DOPAMINE D2>
6.51

>  <DOPAMINE D3>
6.59

>  <DOPAMINE D4>
5.77

>  <DOPAMINE D5>
5.79

>  <Dopamine transporter>
5

>  <HISTAMINE H1>
8.1

>  <HISTAMINE H2>
5

>  <HISTAMINE H4>
5

>  <Muscarinic acetylcholine receptor M1>
6.71

>  <Muscarinic acetylcholine receptor M2>
6.03

>  <Muscarinic acetylcholine receptor M3>
5.69

>  <Muscarinic acetylcholine receptor M4>
6.5

>  <Muscarinic acetylcholine receptor M5>
5.58

>  <Norepinephrine transporter>
5

>  <Serotonin transporter>
5.18

$$$$
RISPERIDONE
  Marvin  02231216192D 0   1.00000     0.00000     0

 30 34  0  0  0  0  0  0  0  0999 V2000
    1.8325   -2.9394    0.0000 F   0  0  0  0  0  0  0  0  0
    2.0875   -2.1548    0.0000 C   0  0  0  0  0  0  0  0  0
    1.5354   -1.5417    0.0000 C   0  0  0  0  0  0  0  0  0
    1.7904   -0.7571    0.0000 C   0  0  0  0  0  0  0  0  0
    1.3779   -0.0426    0.0000 O   0  0  0  0  0  0  0  0  0
    1.9299    0.5705    0.0000 N   0  0  0  0  0  0  0  0  0
    2.6836    0.2349    0.0000 C   0  0  0  0  0  0  0  0  0
    2.5974   -0.5856    0.0000 C   0  0  0  0  0  0  0  0  0
    3.1494   -1.1987    0.0000 C   0  0  0  0  0  0  0  0  0
    2.8945   -1.9833    0.0000 C   0  0  0  0  0  0  0  0  0
    3.3981    0.6474    0.0000 C   0  0  0  0  0  0  0  0  0
    3.3981    1.4724    0.0000 C   0  0  0  0  0  0  0  0  0
    4.1125    1.8849    0.0000 C   0  0  0  0  0  0  0  0  0
    4.8270    1.4724    0.0000 N   0  0  0  0  0  0  0  0  0
    4.8270    0.6474    0.0000 C   0  0  0  0  0  0  0  0  0
    4.1125    0.2349    0.0000 C   0  0  0  0  0  0  0  0  0
    5.5415    1.8849    0.0000 C   0  0  0  0  0  0  0  0  0
    6.2559    1.4724    0.0000 C   0  0  0  0  0  0  0  0  0
    6.9704    1.8849    0.0000 C   0  0  0  0  0  0  0  0  0
    7.6849    1.4724    0.0000 C   0  0  0  0  0  0  0  0  0
    7.6849    0.6474    0.0000 O   0  0  0  0  0  0  0  0  0
    8.3994    1.8849    0.0000 N   0  0  0  0  0  0  0  0  0
    8.3994    2.7099    0.0000 C   0  0  0  0  0  0  0  0  0
    7.6849    3.1224    0.0000 N   0  0  0  0  0  0  0  0  0
    6.9704    2.7099    0.0000 C   0  0  0  0  0  0  0  0  0
    6.2559    3.1224    0.0000 C   0  0  0  0  0  0  0  0  0
    9.1138    3.1224    0.0000 C   0  0  0  0  0  0  0  0  0
    9.8283    2.7099    0.0000 C   0  0  0  0  0  0  0  0  0
    9.8283    1.8849    0.0000 C   0  0  0  0  0  0  0  0  0
    9.1138    1.4724    0.0000 C   0  0  0  0  0  0  0  0  0
  1  2  1  0  0  0  0
  2  3  4  0  0  0  0
  2 10  4  0  0  0  0
  3  4  4  0  0  0  0
  4  5  4  0  0  0  0
  4  8  4  0  0  0  0
  5  6  4  0  0  0  0
  6  7  4  0  0  0  0
  7  8  4  0  0  0  0
  7 11  1  0  0  0  0
  8  9  4  0  0  0  0
  9 10  4  0  0  0  0
 11 12  1  0  0  0  0
 11 16  1  0  0  0  0
 12 13  1  0  0  0  0
 13 14  1  0  0  0  0
 14 15  1  0  0  0  0
 14 17  1  0  0  0  0
 15 16  1  0  0  0  0
 17 18  1  0  0  0  0
 18 19  1  0  0  0  0
 19 20  1  0  0  0  0
 19 25  2  0  0  0  0
 20 21  2  0  0  0  0
 20 22  1  0  0  0  0
 22 23  1  0  0  0  0
 22 30  1  0  0  0  0
 23 24  2  0  0  0  0
 23 27  1  0  0  0  0
 24 25  1  0  0  0  0
 25 26  1  0  0  0  0
 27 28  1  0  0  0  0
 28 29  1  0  0  0  0
 29 30  1  0  0  0  0
M  END
>  <Name_Molregno>
RISPERIDONE

>  <5-HT1A>
6.52

>  <5-HT1B>
7.66

>  <5-HT1D>
7.6

>  <5-HT1E>
5.44

>  <5-HT2A>
9.35

>  <5-HT2C>
7.74

>  <5-HT3>
5

>  <5-HT5>
6.69

>  <5-HT6>
5.7

>  <5-HT7>
8.4

>  <Alpha-1A>
8.38

>  <Alpha-1B>
8.05

>  <Alpha-2A>
7.46

>  <Alpha-2B>
7.34

>  <Alpha-2C>
8.56

>  <Beta-1>
5.15

>  <Beta-2>
5.15

>  <DOPAMINE D1>
6.61

>  <DOPAMINE D2>
8.58

>  <DOPAMINE D3>
8.17

>  <DOPAMINE D4>
8.17

>  <DOPAMINE D5>
7.03

>  <Dopamine transporter>
5

>  <HISTAMINE H1>
7.79

>  <HISTAMINE H2>
6.92

>  <HISTAMINE H4>
5

>  <Muscarinic acetylcholine receptor M1>
5.22

>  <Muscarinic acetylcholine receptor M2>
5.14

>  <Muscarinic acetylcholine receptor M3>
5

>  <Muscarinic acetylcholine receptor M4>
5.18

>  <Muscarinic acetylcholine receptor M5>
5

>  <Norepinephrine transporter>
5

>  <Serotonin transporter>
5.67

$$$$
RITANSERIN
  Marvin  02231216192D 0   1.00000     0.00000     0

 34 38  0  0  0  0  0  0  0  0999 V2000
   -9.6255    1.6331    0.0000 S   0  0  0  0  0  0  0  0  0
  -10.1104    0.9657    0.0000 C   0  0  0  0  0  0  0  0  0
   -9.6255    0.2982    0.0000 C   0  0  0  0  0  0  0  0  0
   -8.8409    0.5532    0.0000 N   0  0  0  0  0  0  0  0  0
   -8.8409    1.3782    0.0000 C   0  0  0  0  0  0  0  0  0
   -8.1264    1.7907    0.0000 N   0  0  0  0  0  0  0  0  0
   -7.4119    1.3782    0.0000 C   0  0  0  0  0  0  0  0  0
   -6.6974    1.7907    0.0000 C   0  0  0  0  0  0  0  0  0
   -7.4119    0.5532    0.0000 C   0  0  0  0  0  0  0  0  0
   -6.6974    0.1407    0.0000 C   0  0  0  0  0  0  0  0  0
   -5.9830    0.5532    0.0000 C   0  0  0  0  0  0  0  0  0
   -5.2685    0.1407    0.0000 N   0  0  0  0  0  0  0  0  0
   -4.5540    0.5532    0.0000 C   0  0  0  0  0  0  0  0  0
   -3.8396    0.1407    0.0000 C   0  0  0  0  0  0  0  0  0
   -3.8396   -0.6843    0.0000 C   0  0  0  0  0  0  0  0  0
   -4.5540   -1.0968    0.0000 C   0  0  0  0  0  0  0  0  0
   -5.2685   -0.6843    0.0000 C   0  0  0  0  0  0  0  0  0
   -3.1251   -1.0968    0.0000 C   0  0  0  0  0  0  0  0  0
   -3.1251   -1.9218    0.0000 C   0  0  0  0  0  0  0  0  0
   -2.4106   -2.3343    0.0000 C   0  0  0  0  0  0  0  0  0
   -2.4106   -3.1593    0.0000 C   0  0  0  0  0  0  0  0  0
   -3.1251   -3.5718    0.0000 C   0  0  0  0  0  0  0  0  0
   -3.1251   -4.3968    0.0000 F   0  0  0  0  0  0  0  0  0
   -3.8396   -3.1593    0.0000 C   0  0  0  0  0  0  0  0  0
   -3.8396   -2.3343    0.0000 C   0  0  0  0  0  0  0  0  0
   -2.4106   -0.6843    0.0000 C   0  0  0  0  0  0  0  0  0
   -2.4106    0.1407    0.0000 C   0  0  0  0  0  0  0  0  0
   -1.6961    0.5532    0.0000 C   0  0  0  0  0  0  0  0  0
   -0.9817    0.1407    0.0000 C   0  0  0  0  0  0  0  0  0
   -0.2672    0.5532    0.0000 F   0  0  0  0  0  0  0  0  0
   -0.9817   -0.6843    0.0000 C   0  0  0  0  0  0  0  0  0
   -1.6961   -1.0968    0.0000 C   0  0  0  0  0  0  0  0  0
   -8.1264    0.1407    0.0000 C   0  0  0  0  0  0  0  0  0
   -8.1264   -0.6843    0.0000 O   0  0  0  0  0  0  0  0  0
  1  2  1  0  0  0  0
  1  5  1  0  0  0  0
  2  3  2  0  0  0  0
  3  4  1  0  0  0  0
  4  5  1  0  0  0  0
  4 33  1  0  0  0  0
  5  6  2  0  0  0  0
  6  7  1  0  0  0  0
  7  8  1  0  0  0  0
  7  9  2  0  0  0  0
  9 10  1  0  0  0  0
  9 33  1  0  0  0  0
 10 11  1  0  0  0  0
 11 12  1  0  0  0  0
 12 13  1  0  0  0  0
 12 17  1  0  0  0  0
 13 14  1  0  0  0  0
 14 15  1  0  0  0  0
 15 16  1  0  0  0  0
 15 18  2  0  0  0  0
 16 17  1  0  0  0  0
 18 19  1  0  0  0  0
 18 26  1  0  0  0  0
 19 20  4  0  0  0  0
 19 25  4  0  0  0  0
 20 21  4  0  0  0  0
 21 22  4  0  0  0  0
 22 23  1  0  0  0  0
 22 24  4  0  0  0  0
 24 25  4  0  0  0  0
 26 27  4  0  0  0  0
 26 32  4  0  0  0  0
 27 28  4  0  0  0  0
 28 29  4  0  0  0  0
 29 30  1  0  0  0  0
 29 31  4  0  0  0  0
 31 32  4  0  0  0  0
 33 34  2  0  0  0  0
M  END
>  <Name_Molregno>
RITANSERIN

>  <5-HT1A>
5.53

>  <5-HT1B>
6.56

>  <5-HT1D>
6.29

>  <5-HT2A>
9.14

>  <5-HT2C>
9.04

>  <5-HT3>
5

>  <5-HT6>
7.54

>  <5-HT7>
7.34

>  <DOPAMINE D1>
6.03

>  <DOPAMINE D2>
7.54

>  <DOPAMINE D3>
7.62

>  <DOPAMINE D4>
7.52

$$$$
ROFECOXIB
  Marvin  02231216192D 0   1.00000     0.00000     0

 22 24  0  0  0  0  0  0  0  0999 V2000
   -1.7307    1.7900    0.0000 S   0  0  0  0  0  0  0  0  0
   -1.7307    2.6150    0.0000 O   0  0  0  0  0  0  0  0  0
   -2.5557    1.7900    0.0000 O   0  0  0  0  0  0  0  0  0
   -0.9057    1.7900    0.0000 C   0  0  0  0  0  0  0  0  0
   -1.7307    0.9650    0.0000 C   0  0  0  0  0  0  0  0  0
   -1.0163    0.5525    0.0000 C   0  0  0  0  0  0  0  0  0
   -1.0163   -0.2725    0.0000 C   0  0  0  0  0  0  0  0  0
   -1.7307   -0.6850    0.0000 C   0  0  0  0  0  0  0  0  0
   -2.4452   -0.2725    0.0000 C   0  0  0  0  0  0  0  0  0
   -2.4452    0.5525    0.0000 C   0  0  0  0  0  0  0  0  0
   -1.7307   -1.5100    0.0000 C   0  0  0  0  0  0  0  0  0
   -1.0633   -1.9950    0.0000 C   0  0  0  0  0  0  0  0  0
   -1.3182   -2.7796    0.0000 O   0  0  0  0  0  0  0  0  0
   -2.1432   -2.7796    0.0000 C   0  0  0  0  0  0  0  0  0
   -2.6282   -3.4470    0.0000 O   0  0  0  0  0  0  0  0  0
   -2.3982   -1.9950    0.0000 C   0  0  0  0  0  0  0  0  0
   -3.1828   -1.7400    0.0000 C   0  0  0  0  0  0  0  0  0
   -3.7959   -2.2920    0.0000 C   0  0  0  0  0  0  0  0  0
   -4.5805   -2.0371    0.0000 C   0  0  0  0  0  0  0  0  0
   -4.7520   -1.2301    0.0000 C   0  0  0  0  0  0  0  0  0
   -4.1390   -0.6781    0.0000 C   0  0  0  0  0  0  0  0  0
   -3.3543   -0.9330    0.0000 C   0  0  0  0  0  0  0  0  0
  1  2  2  0  0  0  0
  1  3  2  0  0  0  0
  1  4  1  0  0  0  0
  1  5  1  0  0  0  0
  5  6  4  0  0  0  0
  5 10  4  0  0  0  0
  6  7  4  0  0  0  0
  7  8  4  0  0  0  0
  8  9  4  0  0  0  0
  8 11  1  0  0  0  0
  9 10  4  0  0  0  0
 11 12  1  0  0  0  0
 11 16  2  0  0  0  0
 12 13  1  0  0  0  0
 13 14  1  0  0  0  0
 14 15  2  0  0  0  0
 14 16  1  0  0  0  0
 16 17  1  0  0  0  0
 17 18  4  0  0  0  0
 17 22  4  0  0  0  0
 18 19  4  0  0  0  0
 19 20  4  0  0  0  0
 20 21  4  0  0  0  0
 21 22  4  0  0  0  0
M  END
>  <Name_Molregno>
ROFECOXIB

>  <5-HT1A>
5

>  <5-HT1B>
5

>  <5-HT1D>
5

>  <5-HT1E>
5

>  <5-HT2A>
5

>  <5-HT3>
5

>  <5-HT6>
5

>  <5-HT7>
5

>  <Alpha-1A>
5

>  <Alpha-1B>
5

>  <Alpha-2A>
5

>  <Alpha-2B>
5

>  <Alpha-2C>
5

>  <DOPAMINE D1>
5

>  <DOPAMINE D2>
5

>  <DOPAMINE D5>
5

>  <Dopamine transporter>
5

>  <HISTAMINE H2>
5

>  <Muscarinic acetylcholine receptor M2>
5

>  <Muscarinic acetylcholine receptor M5>
5

>  <Norepinephrine transporter>
5

>  <Serotonin transporter>
5

$$$$
Ropinirole
  Marvin  02231216192D 0   1.00000     0.00000     0

 19 20  0  0  0  0  0  0  0  0999 V2000
    0.9619   -1.7047    0.0000 O   0  0  0  0  0  0  0  0  0
    1.7869   -1.7047    0.0000 C   0  0  0  0  0  0  0  0  0
    2.2718   -2.3721    0.0000 N   0  0  0  0  0  0  0  0  0
    3.0565   -2.1172    0.0000 C   0  0  0  0  0  0  0  0  0
    3.0565   -1.2922    0.0000 C   0  0  0  0  0  0  0  0  0
    2.2718   -1.0372    0.0000 C   0  0  0  0  0  0  0  0  0
    3.7709   -0.8797    0.0000 C   0  0  0  0  0  0  0  0  0
    4.4854   -1.2922    0.0000 C   0  0  0  0  0  0  0  0  0
    4.4854   -2.1172    0.0000 C   0  0  0  0  0  0  0  0  0
    3.7709   -2.5297    0.0000 C   0  0  0  0  0  0  0  0  0
    3.7709   -0.0547    0.0000 C   0  0  0  0  0  0  0  0  0
    3.0565    0.3578    0.0000 C   0  0  0  0  0  0  0  0  0
    3.0565    1.1828    0.0000 N   0  0  0  0  0  0  0  0  0
    2.3420    1.5953    0.0000 C   0  0  0  0  0  0  0  0  0
    2.3420    2.4203    0.0000 C   0  0  0  0  0  0  0  0  0
    1.6275    2.8328    0.0000 C   0  0  0  0  0  0  0  0  0
    3.7709    1.5953    0.0000 C   0  0  0  0  0  0  0  0  0
    3.7709    2.4203    0.0000 C   0  0  0  0  0  0  0  0  0
    4.4854    2.8328    0.0000 C   0  0  0  0  0  0  0  0  0
  1  2  2  0  0  0  0
  2  3  1  0  0  0  0
  2  6  1  0  0  0  0
  3  4  1  0  0  0  0
  4  5  4  0  0  0  0
  4 10  4  0  0  0  0
  5  6  1  0  0  0  0
  5  7  4  0  0  0  0
  7  8  4  0  0  0  0
  7 11  1  0  0  0  0
  8  9  4  0  0  0  0
  9 10  4  0  0  0  0
 11 12  1  0  0  0  0
 12 13  1  0  0  0  0
 13 14  1  0  0  0  0
 13 17  1  0  0  0  0
 14 15  1  0  0  0  0
 15 16  1  0  0  0  0
 17 18  1  0  0  0  0
 18 19  1  0  0  0  0
M  END
>  <Name_Molregno>
Ropinirole

>  <5-HT1A>
6.28

>  <5-HT1B>
5

>  <5-HT1D>
5.86

>  <5-HT2A>
5

>  <5-HT2C>
5

>  <5-HT5>
5

>  <5-HT6>
5

>  <5-HT7>
5.82

>  <Alpha-1A>
5

>  <Alpha-1B>
5

>  <Alpha-2A>
5.73

>  <Alpha-2B>
6.12

>  <Alpha-2C>
5.92

>  <Beta-1>
5

>  <Beta-2>
5

>  <DOPAMINE D1>
5

>  <DOPAMINE D2>
6.45

>  <DOPAMINE D3>
7.5

>  <DOPAMINE D4>
6.07

>  <DOPAMINE D5>
5

$$$$
Rutin
  Marvin  02231216192D 0   1.00000     0.00000     0

 43 47  0  0  1  0  0  0  0  0999 V2000
   -0.5116   -0.2044    0.0000 O   0  0  0  0  0  0  0  0  0
   -0.5116    0.6206    0.0000 C   0  0  0  0  0  0  0  0  0
    0.2029    1.0331    0.0000 C   0  0  0  0  0  0  0  0  0
    0.2029    1.8581    0.0000 O   0  0  0  0  0  0  0  0  0
    0.9173    2.2706    0.0000 C   0  0  0  0  0  0  0  0  0
    0.9173    3.0956    0.0000 O   0  0  0  0  0  0  0  0  0
    1.6318    3.5081    0.0000 C   0  0  0  0  0  0  0  0  0
    1.6318    4.3331    0.0000 C   0  0  0  0  0  0  0  0  0
    2.3463    3.0956    0.0000 C   0  0  0  0  0  0  0  0  0
    3.0608    3.5081    0.0000 O   0  0  0  0  0  0  0  0  0
    2.3463    2.2706    0.0000 C   0  0  0  0  0  0  0  0  0
    3.0608    1.8581    0.0000 O   0  0  0  0  0  0  0  0  0
    1.6318    1.8581    0.0000 C   0  0  0  0  0  0  0  0  0
    1.6318    1.0331    0.0000 O   0  0  0  0  0  0  0  0  0
   -1.2261    1.0331    0.0000 C   0  0  0  0  0  0  0  0  0
   -1.2261    1.8581    0.0000 O   0  0  0  0  0  0  0  0  0
   -1.9405    0.6206    0.0000 C   0  0  0  0  0  0  0  0  0
   -2.6550    1.0331    0.0000 O   0  0  0  0  0  0  0  0  0
   -1.9405   -0.2044    0.0000 C   0  0  0  0  0  0  0  0  0
   -2.6550   -0.6169    0.0000 O   0  0  0  0  0  0  0  0  0
   -1.2261   -0.6169    0.0000 C   0  0  0  0  0  0  0  0  0
   -1.2261   -1.4419    0.0000 O   0  0  0  0  0  0  0  0  0
   -0.5116   -1.8544    0.0000 C   0  0  0  0  0  0  0  0  0
   -0.5116   -2.6794    0.0000 C   0  0  0  0  0  0  0  0  0
    0.2029   -3.0919    0.0000 O   0  0  0  0  0  0  0  0  0
    0.9173   -2.6794    0.0000 C   0  0  0  0  0  0  0  0  0
    0.9173   -1.8544    0.0000 C   0  0  0  0  0  0  0  0  0
    0.2029   -1.4419    0.0000 C   0  0  0  0  0  0  0  0  0
    0.2029   -0.6169    0.0000 O   0  0  0  0  0  0  0  0  0
    1.6318   -1.4419    0.0000 C   0  0  0  0  0  0  0  0  0
    1.6318   -0.6169    0.0000 O   0  0  0  0  0  0  0  0  0
    2.3463   -1.8544    0.0000 C   0  0  0  0  0  0  0  0  0
    2.3463   -2.6794    0.0000 C   0  0  0  0  0  0  0  0  0
    3.0608   -3.0919    0.0000 O   0  0  0  0  0  0  0  0  0
    1.6318   -3.0919    0.0000 C   0  0  0  0  0  0  0  0  0
   -1.2261   -3.0919    0.0000 C   0  0  0  0  0  0  0  0  0
   -1.2261   -3.9169    0.0000 C   0  0  0  0  0  0  0  0  0
   -1.9405   -4.3294    0.0000 C   0  0  0  0  0  0  0  0  0
   -1.9405   -5.1544    0.0000 O   0  0  0  0  0  0  0  0  0
   -2.6550   -3.9169    0.0000 C   0  0  0  0  0  0  0  0  0
   -3.3695   -4.3294    0.0000 O   0  0  0  0  0  0  0  0  0
   -2.6550   -3.0919    0.0000 C   0  0  0  0  0  0  0  0  0
   -1.9405   -2.6794    0.0000 C   0  0  0  0  0  0  0  0  0
  1  2  1  0  0  0  0
  1 21  1  0  0  0  0
  2  3  1  0  0  0  0
  2 15  1  0  0  0  0
  3  4  1  0  0  0  0
  4  5  1  0  0  0  0
  5  6  1  0  0  0  0
  5 13  1  0  0  0  0
  6  7  1  0  0  0  0
  7  8  1  0  0  0  0
  7  9  1  0  0  0  0
  9 10  1  0  0  0  0
  9 11  1  0  0  0  0
 11 12  1  0  0  0  0
 11 13  1  0  0  0  0
 13 14  1  0  0  0  0
 15 16  1  0  0  0  0
 15 17  1  0  0  0  0
 17 18  1  0  0  0  0
 17 19  1  0  0  0  0
 19 20  1  0  0  0  0
 19 21  1  0  0  0  0
 21 22  1  0  0  0  0
 22 23  1  0  0  0  0
 23 24  2  0  0  0  0
 23 28  1  0  0  0  0
 24 25  1  0  0  0  0
 24 36  1  0  0  0  0
 25 26  1  0  0  0  0
 26 27  4  0  0  0  0
 26 35  4  0  0  0  0
 27 28  1  0  0  0  0
 27 30  4  0  0  0  0
 28 29  2  0  0  0  0
 30 31  1  0  0  0  0
 30 32  4  0  0  0  0
 32 33  4  0  0  0  0
 33 34  1  0  0  0  0
 33 35  4  0  0  0  0
 36 37  4  0  0  0  0
 36 43  4  0  0  0  0
 37 38  4  0  0  0  0
 38 39  1  0  0  0  0
 38 40  4  0  0  0  0
 40 41  1  0  0  0  0
 40 42  4  0  0  0  0
 42 43  4  0  0  0  0
M  END
>  <Name_Molregno>
Rutin

>  <5-HT1A>
5

>  <5-HT1D>
5

>  <5-HT3>
5

>  <5-HT5>
5

>  <5-HT6>
5

>  <5-HT7>
5

>  <Alpha-1A>
5

>  <Alpha-1B>
5

>  <Alpha-2A>
5.03

>  <Alpha-2B>
5

>  <Alpha-2C>
5.02

>  <DOPAMINE D1>
5

>  <DOPAMINE D5>
5

>  <Muscarinic acetylcholine receptor M1>
5

>  <Muscarinic acetylcholine receptor M2>
5

>  <Muscarinic acetylcholine receptor M3>
5

>  <Muscarinic acetylcholine receptor M4>
5

>  <Muscarinic acetylcholine receptor M5>
7.45

>  <Norepinephrine transporter>
5

>  <Serotonin transporter>
5

$$$$
SalvinorinA
  Marvin  02231216192D 0   1.00000     0.00000     0

 31 34  0  0  1  0  0  0  0  0999 V2000
   -4.2035   -1.1582    0.0000 O   0  0  0  0  0  0  0  0  0
   -3.7910   -1.8727    0.0000 C   0  0  0  0  0  0  0  0  0
   -2.9660   -1.8727    0.0000 C   0  0  0  0  0  0  0  0  0
   -2.5535   -1.1582    0.0000 C   0  0  0  0  0  0  0  0  0
   -1.7285   -1.1582    0.0000 C   0  0  0  0  0  0  0  0  0
   -1.3160   -0.4437    0.0000 C   0  0  0  0  0  0  0  0  0
   -1.7285    0.2708    0.0000 C   0  0  0  0  0  0  0  0  0
   -2.5535    0.2708    0.0000 C   0  0  0  0  0  0  0  0  0
   -2.9660   -0.4437    0.0000 C   0  0  0  0  0  0  0  0  0
   -3.7910   -0.4437    0.0000 C   0  0  0  0  0  0  0  0  0
   -4.2035    0.2708    0.0000 O   0  0  0  0  0  0  0  0  0
   -0.9035    0.2708    0.0000 C   0  0  0  0  0  0  0  0  0
   -0.4910   -0.4437    0.0000 C   0  0  0  0  0  0  0  0  0
   -0.0785   -1.1582    0.0000 C   0  0  0  0  0  0  0  0  0
   -0.4910   -1.8727    0.0000 C   0  0  0  0  0  0  0  0  0
   -0.0785   -2.5871    0.0000 O   0  0  0  0  0  0  0  0  0
    0.7465   -2.5871    0.0000 C   0  0  0  0  0  0  0  0  0
    1.1590   -3.3016    0.0000 O   0  0  0  0  0  0  0  0  0
    1.1590   -1.8727    0.0000 C   0  0  0  0  0  0  0  0  0
   -1.3160   -1.8727    0.0000 C   0  0  0  0  0  0  0  0  0
   -1.7285   -2.5871    0.0000 O   0  0  0  0  0  0  0  0  0
   -0.0785    0.2708    0.0000 C   0  0  0  0  0  0  0  0  0
   -0.4910    0.9852    0.0000 O   0  0  0  0  0  0  0  0  0
   -0.0785    1.6997    0.0000 C   0  0  0  0  0  0  0  0  0
    0.7465    0.2708    0.0000 O   0  0  0  0  0  0  0  0  0
   -2.1410   -1.8727    0.0000 C   0  0  0  0  0  0  0  0  0
   -4.2035   -2.5871    0.0000 C   0  0  0  0  0  0  0  0  0
   -3.8680   -3.3408    0.0000 C   0  0  0  0  0  0  0  0  0
   -4.4811   -3.8928    0.0000 C   0  0  0  0  0  0  0  0  0
   -5.1956   -3.4803    0.0000 O   0  0  0  0  0  0  0  0  0
   -5.0240   -2.6734    0.0000 C   0  0  0  0  0  0  0  0  0
  1  2  1  0  0  0  0
  1 10  1  0  0  0  0
  2  3  1  0  0  0  0
  2 27  1  0  0  0  0
  3  4  1  0  0  0  0
  4  5  1  0  0  0  0
  4  9  1  0  0  0  0
  4 26  1  0  0  0  0
  5  6  1  0  0  0  0
  5 20  1  0  0  0  0
  6  7  1  0  0  0  0
  6 12  1  0  0  0  0
  6 13  1  0  0  0  0
  7  8  1  0  0  0  0
  8  9  1  0  0  0  0
  9 10  1  0  0  0  0
 10 11  2  0  0  0  0
 13 14  1  0  0  0  0
 13 22  1  0  0  0  0
 14 15  1  0  0  0  0
 15 16  1  0  0  0  0
 15 20  1  0  0  0  0
 16 17  1  0  0  0  0
 17 18  2  0  0  0  0
 17 19  1  0  0  0  0
 20 21  2  0  0  0  0
 22 23  1  0  0  0  0
 22 25  2  0  0  0  0
 23 24  1  0  0  0  0
 27 28  4  0  0  0  0
 27 31  4  0  0  0  0
 28 29  4  0  0  0  0
 29 30  4  0  0  0  0
 30 31  4  0  0  0  0
M  END
>  <Name_Molregno>
SalvinorinA

>  <5-HT1A>
5

>  <5-HT1B>
5

>  <5-HT1D>
5

>  <5-HT1E>
5

>  <5-HT3>
5

>  <5-HT5>
5

>  <5-HT6>
5

>  <5-HT7>
5

>  <Alpha-1A>
5

>  <Alpha-1B>
5

>  <DOPAMINE D1>
5

>  <DOPAMINE D2>
5

>  <DOPAMINE D3>
5

>  <DOPAMINE D5>
5

>  <HISTAMINE H1>
5

>  <Muscarinic acetylcholine receptor M1>
5

>  <Muscarinic acetylcholine receptor M2>
5

>  <Muscarinic acetylcholine receptor M3>
5

>  <Muscarinic acetylcholine receptor M4>
5

>  <Muscarinic acetylcholine receptor M5>
5

>  <Serotonin transporter>
5

$$$$
SERTINDOLE
  Marvin  02231216192D 0   1.00000     0.00000     0

 31 35  0  0  0  0  0  0  0  0999 V2000
    1.9546   -2.6271    0.0000 Cl  0  0  0  0  0  0  0  0  0
    1.2402   -2.2146    0.0000 C   0  0  0  0  0  0  0  0  0
    0.5257   -2.6271    0.0000 C   0  0  0  0  0  0  0  0  0
   -0.1888   -2.2146    0.0000 C   0  0  0  0  0  0  0  0  0
   -0.1888   -1.3896    0.0000 C   0  0  0  0  0  0  0  0  0
   -0.9734   -1.1347    0.0000 N   0  0  0  0  0  0  0  0  0
   -1.4583   -1.8021    0.0000 C   0  0  0  0  0  0  0  0  0
   -0.9734   -2.4695    0.0000 C   0  0  0  0  0  0  0  0  0
   -1.2283   -3.2542    0.0000 C   0  0  0  0  0  0  0  0  0
   -0.6763   -3.8672    0.0000 C   0  0  0  0  0  0  0  0  0
   -0.9312   -4.6519    0.0000 C   0  0  0  0  0  0  0  0  0
   -1.7382   -4.8234    0.0000 N   0  0  0  0  0  0  0  0  0
   -2.2902   -4.2103    0.0000 C   0  0  0  0  0  0  0  0  0
   -2.0353   -3.4257    0.0000 C   0  0  0  0  0  0  0  0  0
   -1.9931   -5.6080    0.0000 C   0  0  0  0  0  0  0  0  0
   -2.8001   -5.7795    0.0000 C   0  0  0  0  0  0  0  0  0
   -3.0551   -6.5642    0.0000 N   0  0  0  0  0  0  0  0  0
   -2.5701   -7.2316    0.0000 C   0  0  0  0  0  0  0  0  0
   -3.0551   -7.8990    0.0000 C   0  0  0  0  0  0  0  0  0
   -3.8397   -7.6441    0.0000 N   0  0  0  0  0  0  0  0  0
   -3.8397   -6.8191    0.0000 C   0  0  0  0  0  0  0  0  0
   -4.5071   -6.3342    0.0000 O   0  0  0  0  0  0  0  0  0
   -1.2283   -0.3500    0.0000 C   0  0  0  0  0  0  0  0  0
   -2.0353   -0.1785    0.0000 C   0  0  0  0  0  0  0  0  0
   -2.2902    0.6061    0.0000 C   0  0  0  0  0  0  0  0  0
   -1.7382    1.2192    0.0000 C   0  0  0  0  0  0  0  0  0
   -1.9931    2.0038    0.0000 F   0  0  0  0  0  0  0  0  0
   -0.9312    1.0477    0.0000 C   0  0  0  0  0  0  0  0  0
   -0.6763    0.2631    0.0000 C   0  0  0  0  0  0  0  0  0
    0.5257   -0.9771    0.0000 C   0  0  0  0  0  0  0  0  0
    1.2402   -1.3896    0.0000 C   0  0  0  0  0  0  0  0  0
  1  2  1  0  0  0  0
  2  3  4  0  0  0  0
  2 31  4  0  0  0  0
  3  4  4  0  0  0  0
  4  5  4  0  0  0  0
  4  8  4  0  0  0  0
  5  6  4  0  0  0  0
  5 30  4  0  0  0  0
  6  7  4  0  0  0  0
  6 23  1  0  0  0  0
  7  8  4  0  0  0  0
  8  9  1  0  0  0  0
  9 10  1  0  0  0  0
  9 14  1  0  0  0  0
 10 11  1  0  0  0  0
 11 12  1  0  0  0  0
 12 13  1  0  0  0  0
 12 15  1  0  0  0  0
 13 14  1  0  0  0  0
 15 16  1  0  0  0  0
 16 17  1  0  0  0  0
 17 18  1  0  0  0  0
 17 21  1  0  0  0  0
 18 19  1  0  0  0  0
 19 20  1  0  0  0  0
 20 21  1  0  0  0  0
 21 22  2  0  0  0  0
 23 24  4  0  0  0  0
 23 29  4  0  0  0  0
 24 25  4  0  0  0  0
 25 26  4  0  0  0  0
 26 27  1  0  0  0  0
 26 28  4  0  0  0  0
 28 29  4  0  0  0  0
 30 31  4  0  0  0  0
M  END
>  <Name_Molregno>
SERTINDOLE

>  <5-HT1A>
6.36

>  <5-HT1B>
7.22

>  <5-HT1D>
7.36

>  <5-HT1E>
6.37

>  <5-HT2A>
9.49

>  <5-HT2C>
8.64

>  <5-HT6>
8.27

>  <5-HT7>
7.55

>  <Alpha-1A>
8.74

>  <Alpha-2A>
6.19

>  <Alpha-2B>
6.35

>  <Alpha-2C>
6.35

>  <Beta-1>
5.3

>  <Beta-2>
5.3

>  <DOPAMINE D2>
8.54

>  <DOPAMINE D3>
8.35

>  <DOPAMINE D4>
8.2

>  <HISTAMINE H1>
6.76

>  <Muscarinic acetylcholine receptor M3>
5.57

>  <Serotonin transporter>
6

$$$$
SPIPERONE
  Marvin  02231216192D 0   1.00000     0.00000     0

 29 32  0  0  0  0  0  0  0  0999 V2000
   10.5422    0.0060    0.0000 F   0  0  0  0  0  0  0  0  0
    9.7172    0.0060    0.0000 C   0  0  0  0  0  0  0  0  0
    9.3047   -0.7084    0.0000 C   0  0  0  0  0  0  0  0  0
    8.4797   -0.7084    0.0000 C   0  0  0  0  0  0  0  0  0
    8.0672    0.0060    0.0000 C   0  0  0  0  0  0  0  0  0
    8.4797    0.7205    0.0000 C   0  0  0  0  0  0  0  0  0
    9.3047    0.7205    0.0000 C   0  0  0  0  0  0  0  0  0
    7.2422    0.0060    0.0000 C   0  0  0  0  0  0  0  0  0
    6.8297    0.7205    0.0000 O   0  0  0  0  0  0  0  0  0
    6.8297   -0.7084    0.0000 C   0  0  0  0  0  0  0  0  0
    6.0047   -0.7084    0.0000 C   0  0  0  0  0  0  0  0  0
    5.5922   -1.4229    0.0000 C   0  0  0  0  0  0  0  0  0
    4.7672   -1.4229    0.0000 N   0  0  0  0  0  0  0  0  0
    4.3547   -2.1374    0.0000 C   0  0  0  0  0  0  0  0  0
    3.5297   -2.1374    0.0000 C   0  0  0  0  0  0  0  0  0
    3.1172   -1.4229    0.0000 C   0  0  0  0  0  0  0  0  0
    2.6323   -2.0903    0.0000 N   0  0  0  0  0  0  0  0  0
    1.8476   -1.8354    0.0000 C   0  0  0  0  0  0  0  0  0
    1.8476   -1.0104    0.0000 N   0  0  0  0  0  0  0  0  0
    2.6323   -0.7555    0.0000 C   0  0  0  0  0  0  0  0  0
    2.8872    0.0292    0.0000 O   0  0  0  0  0  0  0  0  0
    2.8872   -2.8750    0.0000 C   0  0  0  0  0  0  0  0  0
    3.6942   -3.0465    0.0000 C   0  0  0  0  0  0  0  0  0
    3.9491   -3.8311    0.0000 C   0  0  0  0  0  0  0  0  0
    3.3971   -4.4442    0.0000 C   0  0  0  0  0  0  0  0  0
    2.5901   -4.2727    0.0000 C   0  0  0  0  0  0  0  0  0
    2.3352   -3.4880    0.0000 C   0  0  0  0  0  0  0  0  0
    3.5297   -0.7084    0.0000 C   0  0  0  0  0  0  0  0  0
    4.3547   -0.7084    0.0000 C   0  0  0  0  0  0  0  0  0
  1  2  1  0  0  0  0
  2  3  4  0  0  0  0
  2  7  4  0  0  0  0
  3  4  4  0  0  0  0
  4  5  4  0  0  0  0
  5  6  4  0  0  0  0
  5  8  1  0  0  0  0
  6  7  4  0  0  0  0
  8  9  2  0  0  0  0
  8 10  1  0  0  0  0
 10 11  1  0  0  0  0
 11 12  1  0  0  0  0
 12 13  1  0  0  0  0
 13 14  1  0  0  0  0
 13 29  1  0  0  0  0
 14 15  1  0  0  0  0
 15 16  1  0  0  0  0
 16 17  1  0  0  0  0
 16 20  1  0  0  0  0
 16 28  1  0  0  0  0
 17 18  1  0  0  0  0
 17 22  1  0  0  0  0
 18 19  1  0  0  0  0
 19 20  1  0  0  0  0
 20 21  2  0  0  0  0
 22 23  4  0  0  0  0
 22 27  4  0  0  0  0
 23 24  4  0  0  0  0
 24 25  4  0  0  0  0
 25 26  4  0  0  0  0
 26 27  4  0  0  0  0
 28 29  1  0  0  0  0
M  END
>  <Name_Molregno>
SPIPERONE

>  <5-HT1A>
7

>  <5-HT1B>
5.5

>  <5-HT1D>
5.4

>  <5-HT1E>
5.3

>  <5-HT2A>
8.65

>  <5-HT2C>
6.12

>  <5-HT5>
4.2

>  <5-HT6>
5.8

>  <5-HT7>
7.17

>  <Alpha-1A>
7.9

>  <Alpha-1B>
8.51

>  <DOPAMINE D1>
6.42

>  <DOPAMINE D2>
10.02

>  <DOPAMINE D3>
9.55

>  <DOPAMINE D4>
9.31

>  <DOPAMINE D5>
5.35

>  <HISTAMINE H1>
6.4

$$$$
SUMATRIPTAN
  Marvin  02231216192D 0   1.00000     0.00000     0

 20 21  0  0  0  0  0  0  0  0999 V2000
   -0.2094    0.6280    0.0000 S   0  0  0  0  0  0  0  0  0
   -0.6219    1.3424    0.0000 O   0  0  0  0  0  0  0  0  0
    0.2031   -0.0865    0.0000 O   0  0  0  0  0  0  0  0  0
    0.5050    1.0405    0.0000 N   0  0  0  0  0  0  0  0  0
    1.2195    0.6280    0.0000 C   0  0  0  0  0  0  0  0  0
   -0.9239    0.2155    0.0000 C   0  0  0  0  0  0  0  0  0
   -1.6384    0.6280    0.0000 C   0  0  0  0  0  0  0  0  0
   -2.3529    0.2155    0.0000 C   0  0  0  0  0  0  0  0  0
   -3.0673    0.6280    0.0000 C   0  0  0  0  0  0  0  0  0
   -3.0673    1.4530    0.0000 C   0  0  0  0  0  0  0  0  0
   -3.8519    1.7079    0.0000 N   0  0  0  0  0  0  0  0  0
   -4.3369    1.0405    0.0000 C   0  0  0  0  0  0  0  0  0
   -3.8519    0.3730    0.0000 C   0  0  0  0  0  0  0  0  0
   -4.1069   -0.4116    0.0000 C   0  0  0  0  0  0  0  0  0
   -3.5549   -1.0247    0.0000 C   0  0  0  0  0  0  0  0  0
   -3.8098   -1.8093    0.0000 N   0  0  0  0  0  0  0  0  0
   -4.6168   -1.9808    0.0000 C   0  0  0  0  0  0  0  0  0
   -3.2578   -2.4224    0.0000 C   0  0  0  0  0  0  0  0  0
   -2.3529    1.8655    0.0000 C   0  0  0  0  0  0  0  0  0
   -1.6384    1.4530    0.0000 C   0  0  0  0  0  0  0  0  0
  1  2  2  0  0  0  0
  1  3  2  0  0  0  0
  1  4  1  0  0  0  0
  1  6  1  0  0  0  0
  4  5  1  0  0  0  0
  6  7  1  0  0  0  0
  7  8  4  0  0  0  0
  7 20  4  0  0  0  0
  8  9  4  0  0  0  0
  9 10  4  0  0  0  0
  9 13  4  0  0  0  0
 10 11  4  0  0  0  0
 10 19  4  0  0  0  0
 11 12  4  0  0  0  0
 12 13  4  0  0  0  0
 13 14  1  0  0  0  0
 14 15  1  0  0  0  0
 15 16  1  0  0  0  0
 16 17  1  0  0  0  0
 16 18  1  0  0  0  0
 19 20  4  0  0  0  0
M  STY  1   1 DAT
M  SAL   1  1  11
M  SDT   1 MRV_IMPLICIT_H                                        
M  SDD   1     0.0000    0.0000    DR    ALL  0       0  
M  SED   1 IMPL_H1
M  END
>  <Name_Molregno>
SUMATRIPTAN

>  <5-HT1A>
6.38

>  <5-HT1B>
7.95

>  <5-HT1D>
8.46

>  <5-HT1E>
5.63

>  <5-HT2A>
5

>  <5-HT2C>
5

>  <5-HT6>
5.3

>  <5-HT7>
6.01

$$$$
THIORIDAZINE
  Marvin  02231216192D 0   1.00000     0.00000     0

 25 28  0  0  1  0  0  0  0  0999 V2000
    1.0601   -0.3753    0.0000 S   0  0  0  0  0  0  0  0  0
    1.7746    0.0372    0.0000 C   0  0  0  0  0  0  0  0  0
    1.7746    0.8622    0.0000 C   0  0  0  0  0  0  0  0  0
    1.0601    1.2747    0.0000 N   0  0  0  0  0  0  0  0  0
    0.3456    0.8622    0.0000 C   0  0  0  0  0  0  0  0  0
    0.3456    0.0372    0.0000 C   0  0  0  0  0  0  0  0  0
   -0.3689   -0.3753    0.0000 C   0  0  0  0  0  0  0  0  0
   -1.0833    0.0372    0.0000 C   0  0  0  0  0  0  0  0  0
   -1.0833    0.8622    0.0000 C   0  0  0  0  0  0  0  0  0
   -0.3689    1.2747    0.0000 C   0  0  0  0  0  0  0  0  0
    1.0601    2.0997    0.0000 C   0  0  0  0  0  0  0  0  0
    0.3456    2.5122    0.0000 C   0  0  0  0  0  0  0  0  0
    0.3456    3.3372    0.0000 C   0  0  0  0  0  0  0  0  0
   -0.3689    3.7497    0.0000 N   0  0  0  0  0  0  0  0  0
   -0.3689    4.5747    0.0000 C   0  0  0  0  0  0  0  0  0
    0.3456    4.9872    0.0000 C   0  0  0  0  0  0  0  0  0
    1.0601    4.5747    0.0000 C   0  0  0  0  0  0  0  0  0
    1.0601    3.7497    0.0000 C   0  0  0  0  0  0  0  0  0
   -1.0833    3.3372    0.0000 C   0  0  0  0  0  0  0  0  0
    2.4890    1.2747    0.0000 C   0  0  0  0  0  0  0  0  0
    3.2035    0.8622    0.0000 C   0  0  0  0  0  0  0  0  0
    3.9180    1.2747    0.0000 S   0  0  0  0  0  0  0  0  0
    3.9180    2.0997    0.0000 C   0  0  0  0  0  0  0  0  0
    3.2035    0.0372    0.0000 C   0  0  0  0  0  0  0  0  0
    2.4890   -0.3753    0.0000 C   0  0  0  0  0  0  0  0  0
  1  2  1  0  0  0  0
  1  6  1  0  0  0  0
  2  3  4  0  0  0  0
  2 25  4  0  0  0  0
  3  4  1  0  0  0  0
  3 20  4  0  0  0  0
  4  5  1  0  0  0  0
  4 11  1  0  0  0  0
  5  6  4  0  0  0  0
  5 10  4  0  0  0  0
  6  7  4  0  0  0  0
  7  8  4  0  0  0  0
  8  9  4  0  0  0  0
  9 10  4  0  0  0  0
 11 12  1  0  0  0  0
 12 13  1  0  0  0  0
 13 14  1  0  0  0  0
 13 18  1  0  0  0  0
 14 15  1  0  0  0  0
 14 19  1  0  0  0  0
 15 16  1  0  0  0  0
 16 17  1  0  0  0  0
 17 18  1  0  0  0  0
 20 21  4  0  0  0  0
 21 22  1  0  0  0  0
 21 24  4  0  0  0  0
 22 23  1  0  0  0  0
 24 25  4  0  0  0  0
M  END
>  <Name_Molregno>
THIORIDAZINE

>  <5-HT1A>
6.85

>  <5-HT1B>
6.96

>  <5-HT1D>
6.24

>  <5-HT1E>
6.71

>  <5-HT2A>
7.95

>  <5-HT2C>
7.28

>  <5-HT3>
5

>  <5-HT5>
6.44

>  <5-HT6>
7.24

>  <5-HT7>
7.05

>  <Alpha-1A>
8.6

>  <Alpha-1B>
8.62

>  <Alpha-2A>
6.87

>  <Alpha-2B>
6.47

>  <Alpha-2C>
7.13

>  <Beta-1>
5

>  <Beta-2>
5

>  <DOPAMINE D1>
7.03

>  <DOPAMINE D2>
8.31

>  <DOPAMINE D3>
8.59

>  <DOPAMINE D4>
8.21

>  <DOPAMINE D5>
6.6

>  <Dopamine transporter>
5.77

>  <HISTAMINE H1>
7.79

>  <HISTAMINE H2>
6.87

>  <HISTAMINE H4>
5.62

>  <Muscarinic acetylcholine receptor M1>
8.21

>  <Muscarinic acetylcholine receptor M2>
7.26

>  <Muscarinic acetylcholine receptor M3>
7.6

>  <Muscarinic acetylcholine receptor M4>
7.38

>  <Muscarinic acetylcholine receptor M5>
7.9

>  <Norepinephrine transporter>
6.07

>  <Serotonin transporter>
5.9

$$$$
TRAZODONE
  Marvin  02231216192D 0   1.00000     0.00000     0

 26 29  0  0  0  0  0  0  0  0999 V2000
    0.6158   -2.7707    0.0000 Cl  0  0  0  0  0  0  0  0  0
    1.4408   -2.7707    0.0000 C   0  0  0  0  0  0  0  0  0
    1.8533   -2.0563    0.0000 C   0  0  0  0  0  0  0  0  0
    2.6783   -2.0563    0.0000 C   0  0  0  0  0  0  0  0  0
    3.0908   -1.3418    0.0000 N   0  0  0  0  0  0  0  0  0
    2.6783   -0.6273    0.0000 C   0  0  0  0  0  0  0  0  0
    3.0908    0.0872    0.0000 C   0  0  0  0  0  0  0  0  0
    3.9158    0.0872    0.0000 N   0  0  0  0  0  0  0  0  0
    4.3283   -0.6273    0.0000 C   0  0  0  0  0  0  0  0  0
    3.9158   -1.3418    0.0000 C   0  0  0  0  0  0  0  0  0
    4.3283    0.8016    0.0000 C   0  0  0  0  0  0  0  0  0
    5.1533    0.8016    0.0000 C   0  0  0  0  0  0  0  0  0
    5.5658    1.5161    0.0000 C   0  0  0  0  0  0  0  0  0
    6.3908    1.5161    0.0000 N   0  0  0  0  0  0  0  0  0
    6.8757    0.8487    0.0000 N   0  0  0  0  0  0  0  0  0
    7.6604    1.1036    0.0000 C   0  0  0  0  0  0  0  0  0
    7.6604    1.9286    0.0000 N   0  0  0  0  0  0  0  0  0
    8.3748    2.3411    0.0000 C   0  0  0  0  0  0  0  0  0
    9.0893    1.9286    0.0000 C   0  0  0  0  0  0  0  0  0
    9.0893    1.1036    0.0000 C   0  0  0  0  0  0  0  0  0
    8.3748    0.6911    0.0000 C   0  0  0  0  0  0  0  0  0
    6.8757    2.1835    0.0000 C   0  0  0  0  0  0  0  0  0
    6.6208    2.9682    0.0000 O   0  0  0  0  0  0  0  0  0
    3.0908   -2.7707    0.0000 C   0  0  0  0  0  0  0  0  0
    2.6783   -3.4852    0.0000 C   0  0  0  0  0  0  0  0  0
    1.8533   -3.4852    0.0000 C   0  0  0  0  0  0  0  0  0
  1  2  1  0  0  0  0
  2  3  4  0  0  0  0
  2 26  4  0  0  0  0
  3  4  4  0  0  0  0
  4  5  1  0  0  0  0
  4 24  4  0  0  0  0
  5  6  1  0  0  0  0
  5 10  1  0  0  0  0
  6  7  1  0  0  0  0
  7  8  1  0  0  0  0
  8  9  1  0  0  0  0
  8 11  1  0  0  0  0
  9 10  1  0  0  0  0
 11 12  1  0  0  0  0
 12 13  1  0  0  0  0
 13 14  1  0  0  0  0
 14 15  1  0  0  0  0
 14 22  1  0  0  0  0
 15 16  2  0  0  0  0
 16 17  1  0  0  0  0
 16 21  1  0  0  0  0
 17 18  1  0  0  0  0
 17 22  1  0  0  0  0
 18 19  2  0  0  0  0
 19 20  1  0  0  0  0
 20 21  2  0  0  0  0
 22 23  2  0  0  0  0
 24 25  4  0  0  0  0
 25 26  4  0  0  0  0
M  END
>  <Name_Molregno>
TRAZODONE

>  <5-HT1A>
6.97

>  <5-HT1B>
5

>  <5-HT1D>
6.97

>  <5-HT1E>
5

>  <5-HT2A>
7.46

>  <5-HT2C>
6.65

>  <5-HT3>
5

>  <5-HT5>
5

>  <5-HT6>
5

>  <5-HT7>
5.75

>  <Alpha-1A>
6.82

>  <Alpha-2A>
6.14

>  <Alpha-2C>
6.81

>  <Beta-1>
5

>  <Beta-2>
5

>  <DOPAMINE D1>
5.43

>  <DOPAMINE D2>
5.42

>  <DOPAMINE D4>
6.15

>  <DOPAMINE D5>
5

>  <Dopamine transporter>
5.07

>  <HISTAMINE H1>
6.31

>  <HISTAMINE H2>
5.48

>  <HISTAMINE H4>
5

>  <Muscarinic acetylcholine receptor M1>
5

>  <Muscarinic acetylcholine receptor M2>
5

>  <Muscarinic acetylcholine receptor M3>
5

>  <Muscarinic acetylcholine receptor M4>
5

>  <Muscarinic acetylcholine receptor M5>
5

>  <Norepinephrine transporter>
5.02

>  <Serotonin transporter>
6.14

$$$$
TRIFLUOPERAZINE
  Marvin  02231216192D 0   1.00000     0.00000     0

 28 31  0  0  0  0  0  0  0  0999 V2000
   -1.0248   -3.8592    0.0000 S   0  0  0  0  0  0  0  0  0
   -0.3103   -3.4467    0.0000 C   0  0  0  0  0  0  0  0  0
   -0.3103   -2.6217    0.0000 C   0  0  0  0  0  0  0  0  0
   -1.0248   -2.2092    0.0000 N   0  0  0  0  0  0  0  0  0
   -1.7393   -2.6217    0.0000 C   0  0  0  0  0  0  0  0  0
   -1.7393   -3.4467    0.0000 C   0  0  0  0  0  0  0  0  0
   -2.4538   -3.8592    0.0000 C   0  0  0  0  0  0  0  0  0
   -3.1682   -3.4467    0.0000 C   0  0  0  0  0  0  0  0  0
   -3.1682   -2.6217    0.0000 C   0  0  0  0  0  0  0  0  0
   -2.4538   -2.2092    0.0000 C   0  0  0  0  0  0  0  0  0
   -1.0248   -1.3842    0.0000 C   0  0  0  0  0  0  0  0  0
   -1.7393   -0.9717    0.0000 C   0  0  0  0  0  0  0  0  0
   -1.7393   -0.1467    0.0000 C   0  0  0  0  0  0  0  0  0
   -2.4538    0.2658    0.0000 N   0  0  0  0  0  0  0  0  0
   -3.1682   -0.1467    0.0000 C   0  0  0  0  0  0  0  0  0
   -3.8827    0.2658    0.0000 C   0  0  0  0  0  0  0  0  0
   -3.8827    1.0908    0.0000 N   0  0  0  0  0  0  0  0  0
   -3.1682    1.5033    0.0000 C   0  0  0  0  0  0  0  0  0
   -2.4538    1.0908    0.0000 C   0  0  0  0  0  0  0  0  0
   -4.5972    1.5033    0.0000 C   0  0  0  0  0  0  0  0  0
    0.4041   -2.2092    0.0000 C   0  0  0  0  0  0  0  0  0
    1.1186   -2.6217    0.0000 C   0  0  0  0  0  0  0  0  0
    1.1186   -3.4467    0.0000 C   0  0  0  0  0  0  0  0  0
    0.4041   -3.8592    0.0000 C   0  0  0  0  0  0  0  0  0
    1.8331   -2.2092    0.0000 C   0  0  0  0  0  0  0  0  0
    2.5475   -1.7967    0.0000 F   0  0  0  0  0  0  0  0  0
    2.2456   -2.9236    0.0000 F   0  0  0  0  0  0  0  0  0
    1.4206   -1.4947    0.0000 F   0  0  0  0  0  0  0  0  0
  1  2  1  0  0  0  0
  1  6  1  0  0  0  0
  2  3  4  0  0  0  0
  2 24  4  0  0  0  0
  3  4  1  0  0  0  0
  3 21  4  0  0  0  0
  4  5  1  0  0  0  0
  4 11  1  0  0  0  0
  5  6  4  0  0  0  0
  5 10  4  0  0  0  0
  6  7  4  0  0  0  0
  7  8  4  0  0  0  0
  8  9  4  0  0  0  0
  9 10  4  0  0  0  0
 11 12  1  0  0  0  0
 12 13  1  0  0  0  0
 13 14  1  0  0  0  0
 14 15  1  0  0  0  0
 14 19  1  0  0  0  0
 15 16  1  0  0  0  0
 16 17  1  0  0  0  0
 17 18  1  0  0  0  0
 17 20  1  0  0  0  0
 18 19  1  0  0  0  0
 21 22  4  0  0  0  0
 22 23  4  0  0  0  0
 22 25  1  0  0  0  0
 23 24  4  0  0  0  0
 25 26  1  0  0  0  0
 25 27  1  0  0  0  0
 25 28  1  0  0  0  0
M  END
>  <Name_Molregno>
TRIFLUOPERAZINE

>  <5-HT1A>
6.02

>  <5-HT2A>
7.78

>  <5-HT2C>
6.42

>  <5-HT6>
6.85

>  <5-HT7>
6.54

>  <Alpha-1A>
7.62

>  <Alpha-2A>
6.18

>  <Alpha-2B>
6.79

>  <Alpha-2C>
6.41

>  <DOPAMINE D2>
8.75

>  <DOPAMINE D3>
9.22

>  <DOPAMINE D4>
7.24

>  <HISTAMINE H1>
7.2

>  <Muscarinic acetylcholine receptor M3>
6

$$$$
TRYPTAMINE
  Marvin  02231216192D 0   1.00000     0.00000     0

 12 13  0  0  0  0  0  0  0  0999 V2000
    0.3098    0.2368    0.0000 N   0  0  0  0  0  0  0  0  0
   -0.1752   -0.4306    0.0000 C   0  0  0  0  0  0  0  0  0
    0.3098   -1.0981    0.0000 C   0  0  0  0  0  0  0  0  0
    1.0944   -0.8431    0.0000 C   0  0  0  0  0  0  0  0  0
    1.0944   -0.0181    0.0000 C   0  0  0  0  0  0  0  0  0
    1.8089    0.3944    0.0000 C   0  0  0  0  0  0  0  0  0
    2.5233   -0.0181    0.0000 C   0  0  0  0  0  0  0  0  0
    2.5233   -0.8431    0.0000 C   0  0  0  0  0  0  0  0  0
    1.8089   -1.2556    0.0000 C   0  0  0  0  0  0  0  0  0
    0.0548   -1.8827    0.0000 C   0  0  0  0  0  0  0  0  0
   -0.7522   -2.0542    0.0000 C   0  0  0  0  0  0  0  0  0
   -1.0071   -2.8389    0.0000 N   0  0  0  0  0  0  0  0  0
  1  2  4  0  0  0  0
  1  5  4  0  0  0  0
  2  3  4  0  0  0  0
  3  4  4  0  0  0  0
  3 10  1  0  0  0  0
  4  5  4  0  0  0  0
  4  9  4  0  0  0  0
  5  6  4  0  0  0  0
  6  7  4  0  0  0  0
  7  8  4  0  0  0  0
  8  9  4  0  0  0  0
 10 11  1  0  0  0  0
 11 12  1  0  0  0  0
M  STY  1   1 DAT
M  SAL   1  1   1
M  SDT   1 MRV_IMPLICIT_H                                        
M  SDD   1     0.0000    0.0000    DR    ALL  0       0  
M  SED   1 IMPL_H1
M  END
>  <Name_Molregno>
TRYPTAMINE

>  <5-HT1A>
6.98

>  <5-HT1B>
6.68

>  <5-HT1D>
7.02

>  <5-HT1E>
5.59

>  <5-HT2A>
6.1

>  <5-HT2C>
6.5

>  <5-HT6>
6.36

>  <5-HT7>
6.83

$$$$
VALDECOXIB
  Marvin  02231216192D 0   1.00000     0.00000     0

 22 24  0  0  0  0  0  0  0  0999 V2000
   -2.8104    3.0816    0.0000 S   0  0  0  0  0  0  0  0  0
   -2.8104    3.9066    0.0000 O   0  0  0  0  0  0  0  0  0
   -3.6354    3.0816    0.0000 O   0  0  0  0  0  0  0  0  0
   -1.9854    3.0816    0.0000 N   0  0  0  0  0  0  0  0  0
   -2.8104    2.2566    0.0000 C   0  0  0  0  0  0  0  0  0
   -2.0959    1.8441    0.0000 C   0  0  0  0  0  0  0  0  0
   -2.0959    1.0191    0.0000 C   0  0  0  0  0  0  0  0  0
   -2.8104    0.6066    0.0000 C   0  0  0  0  0  0  0  0  0
   -3.5249    1.0191    0.0000 C   0  0  0  0  0  0  0  0  0
   -3.5249    1.8441    0.0000 C   0  0  0  0  0  0  0  0  0
   -2.8104   -0.2184    0.0000 C   0  0  0  0  0  0  0  0  0
   -2.1430   -0.7033    0.0000 C   0  0  0  0  0  0  0  0  0
   -2.3979   -1.4879    0.0000 N   0  0  0  0  0  0  0  0  0
   -3.2229   -1.4879    0.0000 O   0  0  0  0  0  0  0  0  0
   -3.4778   -0.7033    0.0000 C   0  0  0  0  0  0  0  0  0
   -4.2625   -0.4483    0.0000 C   0  0  0  0  0  0  0  0  0
   -1.3583   -0.4483    0.0000 C   0  0  0  0  0  0  0  0  0
   -1.1868    0.3586    0.0000 C   0  0  0  0  0  0  0  0  0
   -0.4022    0.6136    0.0000 C   0  0  0  0  0  0  0  0  0
    0.2109    0.0615    0.0000 C   0  0  0  0  0  0  0  0  0
    0.0394   -0.7454    0.0000 C   0  0  0  0  0  0  0  0  0
   -0.7452   -1.0004    0.0000 C   0  0  0  0  0  0  0  0  0
  1  2  2  0  0  0  0
  1  3  2  0  0  0  0
  1  4  1  0  0  0  0
  1  5  1  0  0  0  0
  5  6  4  0  0  0  0
  5 10  4  0  0  0  0
  6  7  4  0  0  0  0
  7  8  4  0  0  0  0
  8  9  4  0  0  0  0
  8 11  1  0  0  0  0
  9 10  4  0  0  0  0
 11 12  4  0  0  0  0
 11 15  4  0  0  0  0
 12 13  4  0  0  0  0
 12 17  1  0  0  0  0
 13 14  4  0  0  0  0
 14 15  4  0  0  0  0
 15 16  1  0  0  0  0
 17 18  4  0  0  0  0
 17 22  4  0  0  0  0
 18 19  4  0  0  0  0
 19 20  4  0  0  0  0
 20 21  4  0  0  0  0
 21 22  4  0  0  0  0
M  END
>  <Name_Molregno>
VALDECOXIB

>  <5-HT1A>
5

>  <5-HT1B>
5

>  <5-HT1D>
5

>  <5-HT1E>
5

>  <5-HT2A>
5

>  <5-HT3>
5

>  <5-HT6>
5

>  <5-HT7>
5

>  <Alpha-1A>
5

>  <Alpha-1B>
5

>  <Alpha-2A>
5

>  <Alpha-2B>
5

>  <Alpha-2C>
5

>  <DOPAMINE D1>
5

>  <DOPAMINE D2>
5

>  <DOPAMINE D5>
5

>  <Dopamine transporter>
5

>  <HISTAMINE H1>
5

>  <HISTAMINE H2>
5

>  <Muscarinic acetylcholine receptor M2>
5

>  <Muscarinic acetylcholine receptor M5>
5

>  <Serotonin transporter>
5

$$$$
valeryl-salicylate
  Marvin  02231216192D 0   1.00000     0.00000     0

 16 16  0  0  0  0  0  0  0  0999 V2000
   -0.4431    0.9218    0.0000 O   0  0  0  0  0  0  0  0  0
    0.2714    1.3343    0.0000 C   0  0  0  0  0  0  0  0  0
    0.2714    2.1593    0.0000 O   0  0  0  0  0  0  0  0  0
    0.9859    0.9218    0.0000 C   0  0  0  0  0  0  0  0  0
    1.7003    1.3343    0.0000 C   0  0  0  0  0  0  0  0  0
    2.4148    0.9218    0.0000 C   0  0  0  0  0  0  0  0  0
    2.4148    0.0968    0.0000 C   0  0  0  0  0  0  0  0  0
   -0.4431    0.0968    0.0000 C   0  0  0  0  0  0  0  0  0
    0.2714   -0.3157    0.0000 C   0  0  0  0  0  0  0  0  0
    0.2714   -1.1407    0.0000 C   0  0  0  0  0  0  0  0  0
   -0.4431   -1.5532    0.0000 C   0  0  0  0  0  0  0  0  0
   -1.1576   -1.1407    0.0000 C   0  0  0  0  0  0  0  0  0
   -1.1576   -0.3157    0.0000 C   0  0  0  0  0  0  0  0  0
   -1.8720    0.0968    0.0000 C   0  0  0  0  0  0  0  0  0
   -2.5865   -0.3157    0.0000 O   0  0  0  0  0  0  0  0  0
   -1.8720    0.9218    0.0000 O   0  0  0  0  0  0  0  0  0
  1  2  1  0  0  0  0
  1  8  1  0  0  0  0
  2  3  2  0  0  0  0
  2  4  1  0  0  0  0
  4  5  1  0  0  0  0
  5  6  1  0  0  0  0
  6  7  1  0  0  0  0
  8  9  4  0  0  0  0
  8 13  4  0  0  0  0
  9 10  4  0  0  0  0
 10 11  4  0  0  0  0
 11 12  4  0  0  0  0
 12 13  4  0  0  0  0
 13 14  1  0  0  0  0
 14 15  1  0  0  0  0
 14 16  2  0  0  0  0
M  END
>  <Name_Molregno>
valeryl-salicylate

>  <5-HT1A>
5

>  <5-HT1B>
5

>  <5-HT1D>
5

>  <5-HT1E>
5

>  <5-HT2A>
5

>  <5-HT3>
5

>  <5-HT5>
5

>  <5-HT6>
5

>  <5-HT7>
5

>  <Alpha-1A>
5

>  <Alpha-1B>
5

>  <Alpha-2A>
5

>  <Alpha-2B>
5

>  <Alpha-2C>
5

>  <DOPAMINE D1>
5

>  <DOPAMINE D2>
5

>  <DOPAMINE D4>
5

>  <DOPAMINE D5>
5

>  <HISTAMINE H1>
5

>  <HISTAMINE H2>
5

>  <HISTAMINE H4>
5

>  <Muscarinic acetylcholine receptor M2>
5

>  <Muscarinic acetylcholine receptor M5>
5

$$$$
Venlafaxine
  Marvin  02231216192D 0   1.00000     0.00000     0

 20 21  0  0  1  0  0  0  0  0999 V2000
    2.4113    2.7171    0.0000 O   0  0  0  0  0  0  0  0  0
    1.6968    3.1296    0.0000 C   0  0  0  0  0  0  0  0  0
    2.4113    1.8921    0.0000 C   0  0  0  0  0  0  0  0  0
    3.1257    1.4796    0.0000 C   0  0  0  0  0  0  0  0  0
    3.1257    0.6546    0.0000 C   0  0  0  0  0  0  0  0  0
    2.4113    0.2421    0.0000 C   0  0  0  0  0  0  0  0  0
    1.6968    0.6546    0.0000 C   0  0  0  0  0  0  0  0  0
    1.6968    1.4796    0.0000 C   0  0  0  0  0  0  0  0  0
    2.4113   -0.5829    0.0000 C   0  0  0  0  0  0  0  0  0
    1.6968   -0.9954    0.0000 C   0  0  0  0  0  0  0  0  0
    1.6968   -1.8204    0.0000 N   0  0  0  0  0  0  0  0  0
    2.4113   -2.2329    0.0000 C   0  0  0  0  0  0  0  0  0
    0.9823   -2.2329    0.0000 C   0  0  0  0  0  0  0  0  0
    3.1257   -0.9954    0.0000 C   0  0  0  0  0  0  0  0  0
    2.5954   -1.6274    0.0000 O   0  0  0  0  0  0  0  0  0
    3.4079   -0.2201    0.0000 C   0  0  0  0  0  0  0  0  0
    4.2204   -0.0769    0.0000 C   0  0  0  0  0  0  0  0  0
    4.7507   -0.7089    0.0000 C   0  0  0  0  0  0  0  0  0
    4.4685   -1.4841    0.0000 C   0  0  0  0  0  0  0  0  0
    3.6560   -1.6274    0.0000 C   0  0  0  0  0  0  0  0  0
  1  2  1  0  0  0  0
  1  3  1  0  0  0  0
  3  4  4  0  0  0  0
  3  8  4  0  0  0  0
  4  5  4  0  0  0  0
  5  6  4  0  0  0  0
  6  7  4  0  0  0  0
  6  9  1  0  0  0  0
  7  8  4  0  0  0  0
  9 10  1  0  0  0  0
  9 14  1  0  0  0  0
 10 11  1  0  0  0  0
 11 12  1  0  0  0  0
 11 13  1  0  0  0  0
 14 15  1  0  0  0  0
 14 16  1  0  0  0  0
 14 20  1  0  0  0  0
 16 17  1  0  0  0  0
 17 18  1  0  0  0  0
 18 19  1  0  0  0  0
 19 20  1  0  0  0  0
M  END
>  <Name_Molregno>
Venlafaxine

>  <5-HT1A>
5

>  <5-HT1B>
5

>  <5-HT1D>
5

>  <5-HT1E>
5

>  <5-HT2A>
5.33

>  <5-HT2C>
5.35

>  <5-HT6>
5.55

>  <5-HT7>
5

>  <Alpha-1A>
5

>  <Alpha-2A>
5.5

>  <DOPAMINE D2>
5

>  <DOPAMINE D3>
5

>  <Dopamine transporter>
5.17

>  <HISTAMINE H1>
5

>  <Muscarinic acetylcholine receptor M1>
5.5

>  <Muscarinic acetylcholine receptor M2>
5.5

>  <Muscarinic acetylcholine receptor M3>
5

>  <Muscarinic acetylcholine receptor M4>
5

>  <Muscarinic acetylcholine receptor M5>
5

>  <Norepinephrine transporter>
5.82

>  <Serotonin transporter>
7.43

$$$$
ZACOPRIDE
  Marvin  02231216192D 0   1.00000     0.00000     0

 21 23  0  0  1  0  0  0  0  0999 V2000
    1.1563    1.4853    0.0000 Cl  0  0  0  0  0  0  0  0  0
    1.1686    0.6604    0.0000 C   0  0  0  0  0  0  0  0  0
    1.8892    0.2587    0.0000 C   0  0  0  0  0  0  0  0  0
    1.9016   -0.5662    0.0000 C   0  0  0  0  0  0  0  0  0
    2.6222   -0.9679    0.0000 C   0  0  0  0  0  0  0  0  0
    3.3304   -0.5448    0.0000 O   0  0  0  0  0  0  0  0  0
    2.6346   -1.7928    0.0000 N   0  0  0  0  0  0  0  0  0
    3.3552   -2.1946    0.0000 C   0  0  0  0  0  0  0  0  0
    4.1590   -1.8427    0.0000 C   0  0  0  0  0  0  0  0  0
    4.8976   -2.1750    0.0000 C   0  0  0  0  0  0  0  0  0
    5.0502   -2.9380    0.0000 C   0  0  0  0  0  0  0  0  0
    4.3017   -2.5911    0.0000 N   0  0  0  0  0  0  0  0  0
    3.4624   -2.9500    0.0000 C   0  0  0  0  0  0  0  0  0
    4.4414   -1.5525    0.0000 C   0  0  0  0  0  0  0  0  0
    4.1967   -0.9466    0.0000 C   0  0  0  0  0  0  0  0  0
    1.1934   -0.9894    0.0000 C   0  0  0  0  0  0  0  0  0
    1.2058   -1.8143    0.0000 O   0  0  0  0  0  0  0  0  0
    0.4976   -2.2375    0.0000 C   0  0  0  0  0  0  0  0  0
    0.4728   -0.5877    0.0000 C   0  0  0  0  0  0  0  0  0
    0.4604    0.2372    0.0000 C   0  0  0  0  0  0  0  0  0
   -0.2601    0.6390    0.0000 N   0  0  0  0  0  0  0  0  0
  1  2  1  0  0  0  0
  2  3  4  0  0  0  0
  2 20  4  0  0  0  0
  3  4  4  0  0  0  0
  4  5  1  0  0  0  0
  4 16  4  0  0  0  0
  5  6  2  0  0  0  0
  5  7  1  0  0  0  0
  7  8  1  0  0  0  0
  8  9  1  0  0  0  0
  8 13  1  0  0  0  0
  9 10  1  0  0  0  0
  9 15  1  0  0  0  0
 10 11  1  0  0  0  0
 11 12  1  0  0  0  0
 12 13  1  0  0  0  0
 12 14  1  0  0  0  0
 14 15  1  0  0  0  0
 16 17  1  0  0  0  0
 16 19  4  0  0  0  0
 17 18  1  0  0  0  0
 19 20  4  0  0  0  0
 20 21  1  0  0  0  0
M  END
>  <Name_Molregno>
ZACOPRIDE

>  <5-HT1E>
5

>  <5-HT2A>
5.87

>  <5-HT2C>
6.1

>  <5-HT5>
4.8

>  <5-HT7>
5

$$$$
ZIPRASIDONE
  Marvin  02231216192D 0   1.00000     0.00000     0

 28 32  0  0  0  0  0  0  0  0999 V2000
   -5.2868    0.2535    0.0000 Cl  0  0  0  0  0  0  0  0  0
   -4.7347    0.8666    0.0000 C   0  0  0  0  0  0  0  0  0
   -4.9897    1.6513    0.0000 C   0  0  0  0  0  0  0  0  0
   -4.4376    2.2643    0.0000 C   0  0  0  0  0  0  0  0  0
   -4.5239    3.0848    0.0000 N   0  0  0  0  0  0  0  0  0
   -3.7702    3.4204    0.0000 C   0  0  0  0  0  0  0  0  0
   -3.5987    4.2274    0.0000 O   0  0  0  0  0  0  0  0  0
   -3.2182    2.8073    0.0000 C   0  0  0  0  0  0  0  0  0
   -3.6307    2.0928    0.0000 C   0  0  0  0  0  0  0  0  0
   -3.3757    1.3082    0.0000 C   0  0  0  0  0  0  0  0  0
   -3.9278    0.6951    0.0000 C   0  0  0  0  0  0  0  0  0
   -3.6728   -0.0895    0.0000 C   0  0  0  0  0  0  0  0  0
   -2.8658   -0.2610    0.0000 C   0  0  0  0  0  0  0  0  0
   -2.6109   -1.0457    0.0000 N   0  0  0  0  0  0  0  0  0
   -1.8039   -1.2172    0.0000 C   0  0  0  0  0  0  0  0  0
   -1.5490   -2.0018    0.0000 C   0  0  0  0  0  0  0  0  0
   -2.1010   -2.6149    0.0000 N   0  0  0  0  0  0  0  0  0
   -2.9080   -2.4434    0.0000 C   0  0  0  0  0  0  0  0  0
   -3.1629   -1.6588    0.0000 C   0  0  0  0  0  0  0  0  0
   -1.8461   -3.3995    0.0000 C   0  0  0  0  0  0  0  0  0
   -2.3310   -4.0670    0.0000 N   0  0  0  0  0  0  0  0  0
   -1.8461   -4.7344    0.0000 S   0  0  0  0  0  0  0  0  0
   -1.0615   -4.4795    0.0000 C   0  0  0  0  0  0  0  0  0
   -1.0615   -3.6545    0.0000 C   0  0  0  0  0  0  0  0  0
   -0.3470   -3.2420    0.0000 C   0  0  0  0  0  0  0  0  0
    0.3675   -3.6545    0.0000 C   0  0  0  0  0  0  0  0  0
    0.3675   -4.4795    0.0000 C   0  0  0  0  0  0  0  0  0
   -0.3470   -4.8920    0.0000 C   0  0  0  0  0  0  0  0  0
  1  2  1  0  0  0  0
  2  3  4  0  0  0  0
  2 11  4  0  0  0  0
  3  4  4  0  0  0  0
  4  5  1  0  0  0  0
  4  9  4  0  0  0  0
  5  6  1  0  0  0  0
  6  7  2  0  0  0  0
  6  8  1  0  0  0  0
  8  9  1  0  0  0  0
  9 10  4  0  0  0  0
 10 11  4  0  0  0  0
 11 12  1  0  0  0  0
 12 13  1  0  0  0  0
 13 14  1  0  0  0  0
 14 15  1  0  0  0  0
 14 19  1  0  0  0  0
 15 16  1  0  0  0  0
 16 17  1  0  0  0  0
 17 18  1  0  0  0  0
 17 20  1  0  0  0  0
 18 19  1  0  0  0  0
 20 21  4  0  0  0  0
 20 24  4  0  0  0  0
 21 22  4  0  0  0  0
 22 23  4  0  0  0  0
 23 24  4  0  0  0  0
 23 28  4  0  0  0  0
 24 25  4  0  0  0  0
 25 26  4  0  0  0  0
 26 27  4  0  0  0  0
 27 28  4  0  0  0  0
M  END
>  <Name_Molregno>
ZIPRASIDONE

>  <5-HT1A>
8.19

>  <5-HT1B>
8.7

>  <5-HT1D>
8.32

>  <5-HT1E>
6.17

>  <5-HT2A>
9.54

>  <5-HT2C>
8.82

>  <5-HT3>
5.7

>  <5-HT5>
6.54

>  <5-HT6>
7.17

>  <5-HT7>
8.23

>  <Alpha-1A>
7.74

>  <Alpha-1B>
8.05

>  <Alpha-2A>
6.8

>  <Alpha-2B>
7.32

>  <Alpha-2C>
7.15

>  <Beta-1>
5.3

>  <Beta-2>
5.15

>  <DOPAMINE D1>
7.1

>  <DOPAMINE D2>
8.39

>  <DOPAMINE D3>
8.21

>  <DOPAMINE D4>
7.43

>  <DOPAMINE D5>
6.82

>  <Dopamine transporter>
5

>  <HISTAMINE H1>
7.51

>  <HISTAMINE H2>
5.46

>  <HISTAMINE H4>
5

>  <Muscarinic acetylcholine receptor M1>
5.53

>  <Muscarinic acetylcholine receptor M2>
5.26

>  <Muscarinic acetylcholine receptor M3>
5.3

>  <Muscarinic acetylcholine receptor M4>
5.4

>  <Muscarinic acetylcholine receptor M5>
5.4

>  <Norepinephrine transporter>
7.36

>  <Serotonin transporter>
6.92

$$$$
ZOTEPINE
  Marvin  02231216192D 0   1.00000     0.00000     0

 22 24  0  0  0  0  0  0  0  0999 V2000
    1.8575   -4.4413    0.0000 Cl  0  0  0  0  0  0  0  0  0
    1.0691   -4.1981    0.0000 C   0  0  0  0  0  0  0  0  0
    0.8856   -3.3938    0.0000 C   0  0  0  0  0  0  0  0  0
    0.0972   -3.1507    0.0000 C   0  0  0  0  0  0  0  0  0
   -0.5076   -3.7118    0.0000 C   0  0  0  0  0  0  0  0  0
   -1.3233   -3.5888    0.0000 S   0  0  0  0  0  0  0  0  0
   -1.7358   -2.8744    0.0000 C   0  0  0  0  0  0  0  0  0
   -1.4344   -2.1064    0.0000 C   0  0  0  0  0  0  0  0  0
   -0.6461   -1.8632    0.0000 C   0  0  0  0  0  0  0  0  0
    0.0356   -2.3280    0.0000 C   0  0  0  0  0  0  0  0  0
    0.7500   -1.9155    0.0000 O   0  0  0  0  0  0  0  0  0
    1.4645   -2.3280    0.0000 C   0  0  0  0  0  0  0  0  0
    2.1790   -1.9155    0.0000 C   0  0  0  0  0  0  0  0  0
    2.8934   -2.3280    0.0000 N   0  0  0  0  0  0  0  0  0
    3.6079   -1.9155    0.0000 C   0  0  0  0  0  0  0  0  0
    2.8934   -3.1530    0.0000 C   0  0  0  0  0  0  0  0  0
   -1.9488   -1.4614    0.0000 C   0  0  0  0  0  0  0  0  0
   -2.7646   -1.5843    0.0000 C   0  0  0  0  0  0  0  0  0
   -3.0660   -2.3523    0.0000 C   0  0  0  0  0  0  0  0  0
   -2.5516   -2.9973    0.0000 C   0  0  0  0  0  0  0  0  0
   -0.3240   -4.5161    0.0000 C   0  0  0  0  0  0  0  0  0
    0.4644   -4.7593    0.0000 C   0  0  0  0  0  0  0  0  0
  1  2  1  0  0  0  0
  2  3  4  0  0  0  0
  2 22  4  0  0  0  0
  3  4  4  0  0  0  0
  4  5  4  0  0  0  0
  4 10  1  0  0  0  0
  5  6  1  0  0  0  0
  5 21  4  0  0  0  0
  6  7  1  0  0  0  0
  7  8  4  0  0  0  0
  7 20  4  0  0  0  0
  8  9  1  0  0  0  0
  8 17  4  0  0  0  0
  9 10  2  0  0  0  0
 10 11  1  0  0  0  0
 11 12  1  0  0  0  0
 12 13  1  0  0  0  0
 13 14  1  0  0  0  0
 14 15  1  0  0  0  0
 14 16  1  0  0  0  0
 17 18  4  0  0  0  0
 18 19  4  0  0  0  0
 19 20  4  0  0  0  0
 21 22  4  0  0  0  0
M  END
>  <Name_Molregno>
ZOTEPINE

>  <5-HT1A>
6.41

>  <5-HT1B>
7.23

>  <5-HT1D>
7.02

>  <5-HT1E>
6.23

>  <5-HT2A>
8.58

>  <5-HT2C>
8.49

>  <5-HT3>
6.33

>  <5-HT5>
7.54

>  <5-HT6>
8.22

>  <5-HT7>
7.92

>  <Alpha-1A>
8.15

>  <Alpha-1B>
8.3

>  <Alpha-2A>
6.68

>  <Alpha-2B>
8.27

>  <Alpha-2C>
7.02

>  <Beta-1>
5.19

>  <Beta-2>
5.32

>  <DOPAMINE D1>
7.15

>  <DOPAMINE D2>
7.98

>  <DOPAMINE D3>
8.19

>  <DOPAMINE D4>
7.57

>  <DOPAMINE D5>
6.61

>  <Dopamine transporter>
5.44

>  <HISTAMINE H1>
8.64

>  <HISTAMINE H2>
6.3

>  <HISTAMINE H4>
5.7

>  <Muscarinic acetylcholine receptor M1>
6.37

>  <Muscarinic acetylcholine receptor M2>
5.92

>  <Muscarinic acetylcholine receptor M3>
6.07

>  <Muscarinic acetylcholine receptor M4>
6.06

>  <Muscarinic acetylcholine receptor M5>
5.8

>  <Norepinephrine transporter>
6.28

>  <Serotonin transporter>
6.41

$$$$
