6291
  Marvin  02231216192D 0   1.00000     0.00000     0

 26 29  0  0  1  0  0  0  0  0999 V2000
   -4.2684    3.4148    0.0000 O   0  0  0  0  0  0  0  0  0
   -4.8815    2.8628    0.0000 C   0  0  0  0  0  0  0  0  0
   -4.8815    2.0378    0.0000 C   0  0  0  0  0  0  0  0  0
   -5.5960    1.6253    0.0000 C   0  0  0  0  0  0  0  0  0
   -6.3104    2.0378    0.0000 C   0  0  0  0  0  0  0  0  0
   -6.3104    2.8628    0.0000 C   0  0  0  0  0  0  0  0  0
   -5.5960    3.2753    0.0000 C   0  0  0  0  0  0  0  0  0
   -5.4244    4.0823    0.0000 C   0  0  0  0  0  0  0  0  0
   -4.6039    4.1685    0.0000 C   0  0  0  0  0  0  0  0  0
   -5.5960    0.8003    0.0000 C   0  0  0  0  0  0  0  0  0
   -4.8815    0.3878    0.0000 C   0  0  0  0  0  0  0  0  0
   -4.8815   -0.4372    0.0000 N   0  0  0  0  0  0  0  0  0
   -4.1670   -0.8497    0.0000 C   0  0  0  0  0  0  0  0  0
   -4.1670   -1.6747    0.0000 C   0  0  0  0  0  0  0  0  0
   -4.8815   -2.0872    0.0000 C   0  0  0  0  0  0  0  0  0
   -4.8815   -2.9122    0.0000 C   0  0  0  0  0  0  0  0  0
   -4.1670   -3.3247    0.0000 C   0  0  0  0  0  0  0  0  0
   -3.4525   -2.9122    0.0000 C   0  0  0  0  0  0  0  0  0
   -3.4525   -2.0872    0.0000 C   0  0  0  0  0  0  0  0  0
   -2.7381   -1.6747    0.0000 C   0  0  0  0  0  0  0  0  0
   -2.0236   -2.0872    0.0000 C   0  0  0  0  0  0  0  0  0
   -2.0236   -2.9122    0.0000 C   0  0  0  0  0  0  0  0  0
   -2.7381   -3.3247    0.0000 C   0  0  0  0  0  0  0  0  0
   -2.7381   -4.1497    0.0000 O   0  0  0  0  0  0  0  0  0
   -2.0236   -4.5622    0.0000 C   0  0  0  0  0  0  0  0  0
   -5.5960   -0.8497    0.0000 C   0  0  0  0  0  0  0  0  0
  1  2  4  0  0  0  0
  1  9  4  0  0  0  0
  2  3  4  0  0  0  0
  2  7  4  0  0  0  0
  3  4  4  0  0  0  0
  4  5  4  0  0  0  0
  4 10  1  0  0  0  0
  5  6  4  0  0  0  0
  6  7  4  0  0  0  0
  7  8  4  0  0  0  0
  8  9  4  0  0  0  0
 10 11  1  0  0  0  0
 11 12  1  0  0  0  0
 12 13  1  0  0  0  0
 12 26  1  0  0  0  0
 13 14  1  0  0  0  0
 14 15  1  0  0  0  0
 14 19  1  0  0  0  0
 15 16  1  0  0  0  0
 16 17  1  0  0  0  0
 17 18  1  0  0  0  0
 18 19  4  0  0  0  0
 18 23  4  0  0  0  0
 19 20  4  0  0  0  0
 20 21  4  0  0  0  0
 21 22  4  0  0  0  0
 22 23  4  0  0  0  0
 23 24  1  0  0  0  0
 24 25  1  0  0  0  0
M  END
>  <Name_Molregno>
6291

>  <5-HT1A>
7.35

>  <5-HT2A>
6

>  <5-HT2C>
6

>  <Alpha-2A>
8.6

>  <Alpha-2B>
7.96

>  <Alpha-2C>
8.68

>  <DOPAMINE D4>
6.63

>  <HISTAMINE H1>
6

>  <Serotonin transporter>
8.4

$$$$
6593
  Marvin  02231216192D 0   1.00000     0.00000     0

 26 30  0  0  1  0  0  0  0  0999 V2000
    6.3424    1.1120    0.0000 O   0  0  0  0  0  0  0  0  0
    5.8040    0.4869    0.0000 C   0  0  0  0  0  0  0  0  0
    6.0761   -0.2920    0.0000 C   0  0  0  0  0  0  0  0  0
    5.5377   -0.9170    0.0000 C   0  0  0  0  0  0  0  0  0
    4.7272   -0.7633    0.0000 C   0  0  0  0  0  0  0  0  0
    4.4550    0.0155    0.0000 C   0  0  0  0  0  0  0  0  0
    3.6445    0.1692    0.0000 C   0  0  0  0  0  0  0  0  0
    3.1061   -0.4559    0.0000 C   0  0  0  0  0  0  0  0  0
    3.3782   -1.2347    0.0000 N   0  0  0  0  0  0  0  0  0
    4.1888   -1.3884    0.0000 C   0  0  0  0  0  0  0  0  0
    2.8398   -1.8598    0.0000 C   0  0  0  0  0  0  0  0  0
    2.0292   -1.7061    0.0000 C   0  0  0  0  0  0  0  0  0
    1.7571   -0.9272    0.0000 C   0  0  0  0  0  0  0  0  0
    2.2955   -0.3021    0.0000 C   0  0  0  0  0  0  0  0  0
    1.8674    0.4031    0.0000 N   0  0  0  0  0  0  0  0  0
    1.0644    0.2138    0.0000 C   0  0  0  0  0  0  0  0  0
    0.9962   -0.6083    0.0000 C   0  0  0  0  0  0  0  0  0
    0.2501   -0.9604    0.0000 C   0  0  0  0  0  0  0  0  0
   -0.4278   -0.4903    0.0000 C   0  0  0  0  0  0  0  0  0
   -0.3597    0.3319    0.0000 C   0  0  0  0  0  0  0  0  0
    0.3864    0.6840    0.0000 C   0  0  0  0  0  0  0  0  0
    4.9934    0.6406    0.0000 C   0  0  0  0  0  0  0  0  0
    4.7213    1.4194    0.0000 C   0  0  0  0  0  0  0  0  0
    5.2597    2.0445    0.0000 O   0  0  0  0  0  0  0  0  0
    4.9875    2.8233    0.0000 C   0  0  0  0  0  0  0  0  0
    3.9107    1.5731    0.0000 O   0  0  0  0  0  0  0  0  0
  1  2  1  0  0  0  0
  2  3  1  0  0  0  0
  2 22  1  0  0  0  0
  3  4  1  0  0  0  0
  4  5  1  0  0  0  0
  5  6  1  0  0  0  0
  5 10  1  0  0  0  0
  6  7  1  0  0  0  0
  6 22  1  0  0  0  0
  7  8  1  0  0  0  0
  8  9  1  0  0  0  0
  8 14  1  0  0  0  0
  9 10  1  0  0  0  0
  9 11  1  0  0  0  0
 11 12  1  0  0  0  0
 12 13  1  0  0  0  0
 13 14  4  0  0  0  0
 13 17  4  0  0  0  0
 14 15  4  0  0  0  0
 15 16  4  0  0  0  0
 16 17  4  0  0  0  0
 16 21  4  0  0  0  0
 17 18  4  0  0  0  0
 18 19  4  0  0  0  0
 19 20  4  0  0  0  0
 20 21  4  0  0  0  0
 22 23  1  0  0  0  0
 23 24  1  0  0  0  0
 23 26  2  0  0  0  0
 24 25  1  0  0  0  0
M  STY  1   1 DAT
M  SAL   1  1  15
M  SDT   1 MRV_IMPLICIT_H                                        
M  SDD   1     0.0000    0.0000    DR    ALL  0       0  
M  SED   1 IMPL_H1
M  END
>  <Name_Molregno>
6593

>  <5-HT1A>
6.3

>  <5-HT1B>
7.45

>  <5-HT1D>
7.09

>  <5-HT1E>
5.75

>  <5-HT2A>
5.66

>  <5-HT2C>
5.49

>  <5-HT7>
5.55

>  <Alpha-1A>
6.32

>  <Alpha-1B>
6.42

>  <Alpha-2A>
8.74

>  <Alpha-2B>
8.53

>  <Alpha-2C>
9.21

>  <DOPAMINE D1>
5

>  <DOPAMINE D2>
6.48

>  <DOPAMINE D3>
5.5

>  <Serotonin transporter>
6

$$$$
6680
  Marvin  02231216192D 0   1.00000     0.00000     0

 17 19  0  0  1  0  0  0  0  0999 V2000
    0.0160    0.0028    0.0000 O   0  0  0  0  0  0  0  0  0
    0.7304    0.4153    0.0000 C   0  0  0  0  0  0  0  0  0
    0.7304    1.2403    0.0000 C   0  0  0  0  0  0  0  0  0
    0.0160    1.6528    0.0000 O   0  0  0  0  0  0  0  0  0
   -0.6985    1.2403    0.0000 C   0  0  0  0  0  0  0  0  0
   -0.6985    0.4153    0.0000 C   0  0  0  0  0  0  0  0  0
   -1.1357   -0.2843    0.0000 O   0  0  0  0  0  0  0  0  0
   -0.7484   -1.0127    0.0000 C   0  0  0  0  0  0  0  0  0
   -1.5230    0.3865    0.0000 C   0  0  0  0  0  0  0  0  0
   -1.9843   -0.2974    0.0000 N   0  0  0  0  0  0  0  0  0
   -2.7774   -0.0700    0.0000 C   0  0  0  0  0  0  0  0  0
   -2.8062    0.7545    0.0000 C   0  0  0  0  0  0  0  0  0
   -2.0309    1.0367    0.0000 N   0  0  0  0  0  0  0  0  0
    1.4449    1.6528    0.0000 C   0  0  0  0  0  0  0  0  0
    2.1594    1.2403    0.0000 C   0  0  0  0  0  0  0  0  0
    2.1594    0.4153    0.0000 C   0  0  0  0  0  0  0  0  0
    1.4449    0.0028    0.0000 C   0  0  0  0  0  0  0  0  0
  1  2  1  0  0  0  0
  1  6  1  0  0  0  0
  2  3  4  0  0  0  0
  2 17  4  0  0  0  0
  3  4  1  0  0  0  0
  3 14  4  0  0  0  0
  4  5  1  0  0  0  0
  5  6  1  0  0  0  0
  6  7  1  0  0  0  0
  6  9  1  0  0  0  0
  7  8  1  0  0  0  0
  9 10  1  0  0  0  0
  9 13  2  0  0  0  0
 10 11  1  0  0  0  0
 11 12  1  0  0  0  0
 12 13  1  0  0  0  0
 14 15  4  0  0  0  0
 15 16  4  0  0  0  0
 16 17  4  0  0  0  0
M  END
>  <Name_Molregno>
6680

>  <Alpha-2A>
9.23

>  <Alpha-2B>
8.67

>  <Alpha-2C>
8.98

$$$$
13267
  Marvin  02231216192D 0   1.00000     0.00000     0

 14 15  0  0  1  0  0  0  0  0999 V2000
   -0.6188   -0.3228    0.0000 O   0  0  0  0  0  0  0  0  0
    0.0957   -0.7353    0.0000 C   0  0  0  0  0  0  0  0  0
    0.8101   -0.3228    0.0000 C   0  0  0  0  0  0  0  0  0
    0.0957   -1.5603    0.0000 C   0  0  0  0  0  0  0  0  0
    0.7631   -2.0452    0.0000 N   0  0  0  0  0  0  0  0  0
    0.5082   -2.8298    0.0000 C   0  0  0  0  0  0  0  0  0
   -0.3168   -2.8298    0.0000 C   0  0  0  0  0  0  0  0  0
   -0.5718   -2.0452    0.0000 N   0  0  0  0  0  0  0  0  0
   -0.6188    0.5022    0.0000 C   0  0  0  0  0  0  0  0  0
   -1.3333    0.9147    0.0000 C   0  0  0  0  0  0  0  0  0
   -1.3333    1.7397    0.0000 C   0  0  0  0  0  0  0  0  0
   -0.6188    2.1522    0.0000 C   0  0  0  0  0  0  0  0  0
    0.0957    1.7397    0.0000 C   0  0  0  0  0  0  0  0  0
    0.0957    0.9147    0.0000 C   0  0  0  0  0  0  0  0  0
  1  2  1  0  0  0  0
  1  9  1  0  0  0  0
  2  3  1  0  0  0  0
  2  4  1  0  0  0  0
  4  5  1  0  0  0  0
  4  8  2  0  0  0  0
  5  6  1  0  0  0  0
  6  7  1  0  0  0  0
  7  8  1  0  0  0  0
  9 10  4  0  0  0  0
  9 14  4  0  0  0  0
 10 11  4  0  0  0  0
 11 12  4  0  0  0  0
 12 13  4  0  0  0  0
 13 14  4  0  0  0  0
M  END
>  <Name_Molregno>
13267

>  <Alpha-2A>
7.57

>  <Alpha-2B>
6.78

>  <Alpha-2C>
6.58

$$$$
14718
  Marvin  02231216192D 0   1.00000     0.00000     0

 20 22  0  0  0  0  0  0  0  0999 V2000
   -0.1307   -0.2468    0.0000 O   0  0  0  0  0  0  0  0  0
    0.5837    0.1657    0.0000 C   0  0  0  0  0  0  0  0  0
    1.2982   -0.2468    0.0000 C   0  0  0  0  0  0  0  0  0
    2.0127    0.1657    0.0000 C   0  0  0  0  0  0  0  0  0
    2.7272   -0.2468    0.0000 C   0  0  0  0  0  0  0  0  0
    3.4808    0.0888    0.0000 N   0  0  0  0  0  0  0  0  0
    4.0329   -0.5243    0.0000 C   0  0  0  0  0  0  0  0  0
    3.6204   -1.2388    0.0000 N   0  0  0  0  0  0  0  0  0
    2.8134   -1.0672    0.0000 C   0  0  0  0  0  0  0  0  0
   -0.8452    0.1657    0.0000 C   0  0  0  0  0  0  0  0  0
   -1.5597   -0.2468    0.0000 C   0  0  0  0  0  0  0  0  0
   -2.2741    0.1657    0.0000 C   0  0  0  0  0  0  0  0  0
   -2.2741    0.9907    0.0000 C   0  0  0  0  0  0  0  0  0
   -1.5597    1.4032    0.0000 C   0  0  0  0  0  0  0  0  0
   -0.8452    0.9907    0.0000 C   0  0  0  0  0  0  0  0  0
   -2.9886    1.4032    0.0000 C   0  0  0  0  0  0  0  0  0
   -3.7031    0.9907    0.0000 O   0  0  0  0  0  0  0  0  0
   -2.9886    2.2282    0.0000 C   0  0  0  0  0  0  0  0  0
   -3.4011    2.9427    0.0000 C   0  0  0  0  0  0  0  0  0
   -2.5761    2.9427    0.0000 C   0  0  0  0  0  0  0  0  0
  1  2  1  0  0  0  0
  1 10  1  0  0  0  0
  2  3  1  0  0  0  0
  3  4  1  0  0  0  0
  4  5  1  0  0  0  0
  5  6  4  0  0  0  0
  5  9  4  0  0  0  0
  6  7  4  0  0  0  0
  7  8  4  0  0  0  0
  8  9  4  0  0  0  0
 10 11  4  0  0  0  0
 10 15  4  0  0  0  0
 11 12  4  0  0  0  0
 12 13  4  0  0  0  0
 13 14  4  0  0  0  0
 13 16  1  0  0  0  0
 14 15  4  0  0  0  0
 16 17  2  0  0  0  0
 16 18  1  0  0  0  0
 18 19  1  0  0  0  0
 18 20  1  0  0  0  0
 19 20  1  0  0  0  0
M  STY  1   1 DAT
M  SAL   1  1   8
M  SDT   1 MRV_IMPLICIT_H                                        
M  SDD   1     0.0000    0.0000    DR    ALL  0       0  
M  SED   1 IMPL_H1
M  END
>  <Name_Molregno>
14718

>  <Alpha-2A>
7.37

>  <Alpha-2C>
7.2

>  <HISTAMINE H1>
5

>  <HISTAMINE H2>
5

>  <HISTAMINE H3>
7.19

>  <HISTAMINE H4>
5.97

$$$$
20202
  Marvin  02231216192D 0   1.00000     0.00000     0

 11 12  0  0  1  0  0  0  0  0999 V2000
   -1.6095   -2.5233    0.0000 N   0  0  0  0  0  0  0  0  0
   -1.0149   -1.9514    0.0000 C   0  0  0  0  0  0  0  0  0
   -0.2394   -1.5611    0.0000 C   0  0  0  0  0  0  0  0  0
   -0.1693   -0.0253    0.0000 C   0  0  0  0  0  0  0  0  0
   -0.0093   -0.8407    0.0000 C   0  0  0  0  0  0  0  0  0
    0.7862   -1.3060    0.0000 C   0  0  0  0  0  0  0  0  0
    0.4911   -1.9314    0.0000 C   0  0  0  0  0  0  0  0  0
   -0.6496   -1.2909    0.0000 C   0  0  0  0  0  0  0  0  0
   -1.2635   -0.7398    0.0000 C   0  0  0  0  0  0  0  0  0
   -2.0477   -0.9959    0.0000 C   0  0  0  0  0  0  0  0  0
   -1.0931    0.0674    0.0000 C   0  0  0  0  0  0  0  0  0
  1  2  1  0  0  0  0
  2  3  1  0  0  0  0
  2  8  1  0  0  0  0
  3  4  1  0  0  0  0
  3  7  1  0  0  0  0
  4  5  1  0  0  0  0
  5  6  1  0  0  0  0
  5  8  1  0  0  0  0
  6  7  1  0  0  0  0
  8  9  1  0  0  0  0
  9 10  1  0  0  0  0
  9 11  1  0  0  0  0
M  END
>  <Name_Molregno>
20202

>  <Alpha-1A>
4

>  <Alpha-1B>
4

>  <Alpha-2A>
4.7

>  <Alpha-2C>
4.7

$$$$
22470
  Marvin  02231216192D 0   1.00000     0.00000     0

 22 24  0  0  1  0  0  0  0  0999 V2000
    1.4966    1.5869    0.0000 O   0  0  0  0  0  0  0  0  0
    2.2110    1.1744    0.0000 C   0  0  0  0  0  0  0  0  0
    2.2110    0.3494    0.0000 C   0  0  0  0  0  0  0  0  0
    2.9255   -0.0631    0.0000 C   0  0  0  0  0  0  0  0  0
    2.9255   -0.8881    0.0000 C   0  0  0  0  0  0  0  0  0
    2.2110   -1.3006    0.0000 N   0  0  0  0  0  0  0  0  0
    1.4966   -0.8881    0.0000 C   0  0  0  0  0  0  0  0  0
    1.4966   -0.0631    0.0000 C   0  0  0  0  0  0  0  0  0
    2.2110   -2.1256    0.0000 C   0  0  0  0  0  0  0  0  0
    1.4966   -2.5381    0.0000 C   0  0  0  0  0  0  0  0  0
    1.4966   -3.3631    0.0000 C   0  0  0  0  0  0  0  0  0
    2.2110   -3.7756    0.0000 C   0  0  0  0  0  0  0  0  0
    2.2110   -4.6006    0.0000 C   0  0  0  0  0  0  0  0  0
    1.4966   -5.0131    0.0000 C   0  0  0  0  0  0  0  0  0
    0.7821   -4.6006    0.0000 C   0  0  0  0  0  0  0  0  0
    0.7821   -3.7756    0.0000 C   0  0  0  0  0  0  0  0  0
    2.9255    1.5869    0.0000 C   0  0  0  0  0  0  0  0  0
    2.9255    2.4119    0.0000 C   0  0  0  0  0  0  0  0  0
    3.6400    2.8244    0.0000 C   0  0  0  0  0  0  0  0  0
    4.3544    2.4119    0.0000 C   0  0  0  0  0  0  0  0  0
    4.3544    1.5869    0.0000 C   0  0  0  0  0  0  0  0  0
    3.6400    1.1744    0.0000 C   0  0  0  0  0  0  0  0  0
  1  2  1  0  0  0  0
  2  3  1  0  0  0  0
  2 17  1  0  0  0  0
  3  4  1  0  0  0  0
  3  8  1  0  0  0  0
  4  5  1  0  0  0  0
  5  6  1  0  0  0  0
  6  7  1  0  0  0  0
  6  9  1  0  0  0  0
  7  8  1  0  0  0  0
  9 10  1  0  0  0  0
 10 11  1  0  0  0  0
 11 12  4  0  0  0  0
 11 16  4  0  0  0  0
 12 13  4  0  0  0  0
 13 14  4  0  0  0  0
 14 15  4  0  0  0  0
 15 16  4  0  0  0  0
 17 18  4  0  0  0  0
 17 22  4  0  0  0  0
 18 19  4  0  0  0  0
 19 20  4  0  0  0  0
 20 21  4  0  0  0  0
 21 22  4  0  0  0  0
M  END
>  <Name_Molregno>
22470

>  <5-HT1A>
5.47

>  <5-HT2A>
8.13

>  <5-HT2C>
6.28

>  <5-HT6>
5.56

>  <Alpha-1A>
5.73

>  <Alpha-1B>
5.8

>  <Alpha-2A>
5.8

>  <Alpha-2C>
5.93

>  <DOPAMINE D1>
6.49

>  <DOPAMINE D4>
5.41

>  <DOPAMINE D5>
5.54

>  <Dopamine transporter>
5

>  <HISTAMINE H1>
5.79

>  <Norepinephrine transporter>
5

>  <Serotonin transporter>
5.59

$$$$
33515
  Marvin  02231216192D 0   1.00000     0.00000     0

 45 49  0  0  1  0  0  0  0  0999 V2000
    7.3522    2.7357    0.0000 O   0  0  0  0  0  0  0  0  0
    6.7054    2.1658    0.0000 C   0  0  0  0  0  0  0  0  0
    6.2631    2.9042    0.0000 O   0  0  0  0  0  0  0  0  0
    6.2720    1.4017    0.0000 C   0  0  0  0  0  0  0  0  0
    6.9865    0.9892    0.0000 C   0  0  0  0  0  0  0  0  0
    6.9865    0.1642    0.0000 C   0  0  0  0  0  0  0  0  0
    6.5985   -0.7755    0.0000 C   0  0  0  0  0  0  0  0  0
    6.7296   -1.6162    0.0000 O   0  0  0  0  0  0  0  0  0
    5.7382   -1.0410    0.0000 N   0  0  0  0  0  0  0  0  0
    4.8824   -1.1558    0.0000 C   0  0  0  0  0  0  0  0  0
    4.0426   -1.3232    0.0000 C   0  0  0  0  0  0  0  0  0
    3.2435   -1.6373    0.0000 C   0  0  0  0  0  0  0  0  0
    2.6997   -2.3108    0.0000 N   0  0  0  0  0  0  0  0  0
    3.4141   -2.7233    0.0000 C   0  0  0  0  0  0  0  0  0
    3.4141   -3.5483    0.0000 C   0  0  0  0  0  0  0  0  0
    2.6997   -3.9608    0.0000 C   0  0  0  0  0  0  0  0  0
    1.9852   -3.5483    0.0000 C   0  0  0  0  0  0  0  0  0
    1.9852   -2.7233    0.0000 C   0  0  0  0  0  0  0  0  0
    3.0870   -4.6892    0.0000 C   0  0  0  0  0  0  0  0  0
    3.9115   -4.7180    0.0000 C   0  0  0  0  0  0  0  0  0
    4.2988   -5.4464    0.0000 C   0  0  0  0  0  0  0  0  0
    3.8616   -6.1461    0.0000 C   0  0  0  0  0  0  0  0  0
    3.0371   -6.1173    0.0000 C   0  0  0  0  0  0  0  0  0
    2.4244   -5.4492    0.0000 C   0  0  0  0  0  0  0  0  0
    2.3123   -4.6892    0.0000 C   0  0  0  0  0  0  0  0  0
    2.7495   -5.3888    0.0000 C   0  0  0  0  0  0  0  0  0
    2.3622   -6.1173    0.0000 C   0  0  0  0  0  0  0  0  0
    1.5377   -6.1461    0.0000 C   0  0  0  0  0  0  0  0  0
    1.1005   -5.4464    0.0000 C   0  0  0  0  0  0  0  0  0
    1.4879   -4.7180    0.0000 C   0  0  0  0  0  0  0  0  0
    6.2720   -0.2483    0.0000 C   0  0  0  0  0  0  0  0  0
    5.5575    0.1642    0.0000 N   0  0  0  0  0  0  0  0  0
    5.5575    0.9892    0.0000 C   0  0  0  0  0  0  0  0  0
    5.6112    1.8391    0.0000 C   0  0  0  0  0  0  0  0  0
    7.1858   -0.4670    0.0000 C   0  0  0  0  0  0  0  0  0
    4.8431    1.4017    0.0000 C   0  0  0  0  0  0  0  0  0
    4.1286    0.9892    0.0000 C   0  0  0  0  0  0  0  0  0
    3.4141    1.4017    0.0000 C   0  0  0  0  0  0  0  0  0
    3.4141    2.2267    0.0000 C   0  0  0  0  0  0  0  0  0
    2.6739    2.6560    0.0000 N   0  3  0  0  0  0  0  0  0
    1.8346    2.5859    0.0000 O   0  5  0  0  0  0  0  0  0
    2.3147    3.4315    0.0000 O   0  5  0  0  0  0  0  0  0
    4.1286    2.6392    0.0000 C   0  0  0  0  0  0  0  0  0
    4.8431    2.2267    0.0000 C   0  0  0  0  0  0  0  0  0
    7.6328    3.5620    0.0000 C   0  0  0  0  0  0  0  0  0
  1  2  1  0  0  0  0
  1 45  1  0  0  0  0
  2  3  1  0  0  0  0
  2  4  2  0  0  0  0
  4  5  1  0  0  0  0
  4 33  1  0  0  0  0
  5  6  1  0  0  0  0
  5 36  1  0  0  0  0
  6  7  1  0  0  0  0
  6 31  2  0  0  0  0
  7  8  2  0  0  0  0
  7  9  1  0  0  0  0
  9 10  1  0  0  0  0
 10 11  1  0  0  0  0
 11 12  1  0  0  0  0
 12 13  1  0  0  0  0
 13 14  1  0  0  0  0
 13 18  1  0  0  0  0
 14 15  1  0  0  0  0
 15 16  1  0  0  0  0
 16 17  1  0  0  0  0
 16 19  1  0  0  0  0
 16 25  1  0  0  0  0
 17 18  1  0  0  0  0
 19 20  4  0  0  0  0
 19 24  4  0  0  0  0
 20 21  4  0  0  0  0
 21 22  4  0  0  0  0
 22 23  4  0  0  0  0
 23 24  4  0  0  0  0
 25 26  4  0  0  0  0
 25 30  4  0  0  0  0
 26 27  4  0  0  0  0
 27 28  4  0  0  0  0
 28 29  4  0  0  0  0
 29 30  4  0  0  0  0
 31 32  1  0  0  0  0
 31 35  1  0  0  0  0
 32 33  2  0  0  0  0
 33 34  1  0  0  0  0
 36 37  4  0  0  0  0
 36 44  4  0  0  0  0
 37 38  4  0  0  0  0
 38 39  4  0  0  0  0
 39 40  1  0  0  0  0
 39 43  4  0  0  0  0
 40 41  1  0  0  0  0
 40 42  1  0  0  0  0
 43 44  4  0  0  0  0
M  CHG  3  40   1  41  -1  42  -1
M  END
>  <Name_Molregno>
33515

>  <Alpha-1A>
9.74

>  <Alpha-2A>
5.62

>  <Alpha-2B>
5.96

>  <Alpha-2C>
6.04

$$$$
33675
  Marvin  02231216192D 0   1.00000     0.00000     0

 25 27  0  0  1  0  0  0  0  0999 V2000
   -4.9087    1.2684    0.0000 O   0  0  0  0  0  0  0  0  0
   -5.6231    0.8559    0.0000 C   0  0  0  0  0  0  0  0  0
   -5.6231    0.0309    0.0000 C   0  0  0  0  0  0  0  0  0
   -4.9087   -0.3816    0.0000 O   0  0  0  0  0  0  0  0  0
   -4.1942    0.0309    0.0000 C   0  0  0  0  0  0  0  0  0
   -4.1942    0.8559    0.0000 C   0  0  0  0  0  0  0  0  0
   -3.4797    1.2684    0.0000 C   0  0  0  0  0  0  0  0  0
   -2.7653    0.8559    0.0000 N   0  0  0  0  0  0  0  0  0
   -2.0508    1.2684    0.0000 C   0  0  0  0  0  0  0  0  0
   -1.3363    0.8559    0.0000 C   0  0  0  0  0  0  0  0  0
   -0.6218    1.2684    0.0000 O   0  0  0  0  0  0  0  0  0
    0.0926    0.8559    0.0000 C   0  0  0  0  0  0  0  0  0
    0.8071    1.2684    0.0000 C   0  0  0  0  0  0  0  0  0
    0.8071    2.0934    0.0000 O   0  0  0  0  0  0  0  0  0
    1.5216    2.5059    0.0000 C   0  0  0  0  0  0  0  0  0
    1.5216    0.8559    0.0000 C   0  0  0  0  0  0  0  0  0
    1.5216    0.0309    0.0000 C   0  0  0  0  0  0  0  0  0
    0.8071   -0.3816    0.0000 C   0  0  0  0  0  0  0  0  0
    0.0926    0.0309    0.0000 C   0  0  0  0  0  0  0  0  0
   -0.6218   -0.3816    0.0000 O   0  0  0  0  0  0  0  0  0
   -0.6218   -1.2066    0.0000 C   0  0  0  0  0  0  0  0  0
   -6.3376   -0.3816    0.0000 C   0  0  0  0  0  0  0  0  0
   -7.0521    0.0309    0.0000 C   0  0  0  0  0  0  0  0  0
   -7.0521    0.8559    0.0000 C   0  0  0  0  0  0  0  0  0
   -6.3376    1.2684    0.0000 C   0  0  0  0  0  0  0  0  0
  1  2  1  0  0  0  0
  1  6  1  0  0  0  0
  2  3  4  0  0  0  0
  2 25  4  0  0  0  0
  3  4  1  0  0  0  0
  3 22  4  0  0  0  0
  4  5  1  0  0  0  0
  5  6  1  0  0  0  0
  6  7  1  0  0  0  0
  7  8  1  0  0  0  0
  8  9  1  0  0  0  0
  9 10  1  0  0  0  0
 10 11  1  0  0  0  0
 11 12  1  0  0  0  0
 12 13  4  0  0  0  0
 12 19  4  0  0  0  0
 13 14  1  0  0  0  0
 13 16  4  0  0  0  0
 14 15  1  0  0  0  0
 16 17  4  0  0  0  0
 17 18  4  0  0  0  0
 18 19  4  0  0  0  0
 19 20  1  0  0  0  0
 20 21  1  0  0  0  0
 22 23  4  0  0  0  0
 23 24  4  0  0  0  0
 24 25  4  0  0  0  0
M  END
>  <Name_Molregno>
33675

>  <5-HT1A>
8.68

>  <Alpha-1A>
9.2

>  <Alpha-1B>
7.92

>  <Alpha-2A>
8.46

>  <Alpha-2B>
7.55

>  <Alpha-2C>
9.1

$$$$
33734
  Marvin  02231216192D 0   1.00000     0.00000     0

 44 48  0  0  1  0  0  0  0  0999 V2000
   -1.6609   -1.8146    0.0000 O   0  0  0  0  0  0  0  0  0
   -2.3754   -1.4021    0.0000 C   0  0  0  0  0  0  0  0  0
   -2.3754   -0.5771    0.0000 N   0  0  0  0  0  0  0  0  0
   -1.6609   -0.1646    0.0000 C   0  0  0  0  0  0  0  0  0
   -1.6609    0.6604    0.0000 C   0  0  0  0  0  0  0  0  0
   -0.9464    1.0729    0.0000 C   0  0  0  0  0  0  0  0  0
   -0.9464    1.8979    0.0000 N   0  0  0  0  0  0  0  0  0
   -1.6609    2.3104    0.0000 C   0  0  0  0  0  0  0  0  0
   -1.6609    3.1354    0.0000 C   0  0  0  0  0  0  0  0  0
   -0.9464    3.5479    0.0000 C   0  0  0  0  0  0  0  0  0
   -0.2320    3.1354    0.0000 C   0  0  0  0  0  0  0  0  0
   -0.2320    2.3104    0.0000 C   0  0  0  0  0  0  0  0  0
   -1.5399    4.1210    0.0000 C   0  0  0  0  0  0  0  0  0
   -2.3329    3.8936    0.0000 C   0  0  0  0  0  0  0  0  0
   -2.9264    4.4666    0.0000 C   0  0  0  0  0  0  0  0  0
   -2.7268    5.2671    0.0000 C   0  0  0  0  0  0  0  0  0
   -1.9338    5.4945    0.0000 C   0  0  0  0  0  0  0  0  0
   -1.3403    4.9215    0.0000 C   0  0  0  0  0  0  0  0  0
   -0.5591    4.2763    0.0000 C   0  0  0  0  0  0  0  0  0
   -0.9963    4.9759    0.0000 C   0  0  0  0  0  0  0  0  0
   -0.6090    5.7044    0.0000 C   0  0  0  0  0  0  0  0  0
    0.2155    5.7332    0.0000 C   0  0  0  0  0  0  0  0  0
    0.6527    5.0335    0.0000 C   0  0  0  0  0  0  0  0  0
    0.2654    4.3051    0.0000 C   0  0  0  0  0  0  0  0  0
   -3.0899   -1.8146    0.0000 C   0  0  0  0  0  0  0  0  0
   -3.0899   -2.6396    0.0000 C   0  0  0  0  0  0  0  0  0
   -3.8043   -3.0521    0.0000 C   0  0  0  0  0  0  0  0  0
   -3.8043   -3.8771    0.0000 C   0  0  0  0  0  0  0  0  0
   -4.5188   -4.2896    0.0000 O   0  0  0  0  0  0  0  0  0
   -3.0899   -4.2896    0.0000 N   0  0  0  0  0  0  0  0  0
   -4.5188   -2.6396    0.0000 C   0  0  0  0  0  0  0  0  0
   -4.5188   -1.8146    0.0000 N   0  0  0  0  0  0  0  0  0
   -3.8043   -1.4021    0.0000 C   0  0  0  0  0  0  0  0  0
   -3.8043   -0.5771    0.0000 C   0  0  0  0  0  0  0  0  0
   -5.2333   -3.0521    0.0000 C   0  0  0  0  0  0  0  0  0
   -2.3754   -3.0521    0.0000 C   0  0  0  0  0  0  0  0  0
   -1.6609   -2.6396    0.0000 C   0  0  0  0  0  0  0  0  0
   -0.9464   -3.0521    0.0000 C   0  0  0  0  0  0  0  0  0
   -0.9464   -3.8771    0.0000 C   0  0  0  0  0  0  0  0  0
   -0.2320   -4.2896    0.0000 N   0  3  0  0  0  0  0  0  0
   -0.2320   -5.1146    0.0000 O   0  5  0  0  0  0  0  0  0
    0.4825   -3.8771    0.0000 O   0  5  0  0  0  0  0  0  0
   -1.6609   -4.2896    0.0000 C   0  0  0  0  0  0  0  0  0
   -2.3754   -3.8771    0.0000 C   0  0  0  0  0  0  0  0  0
  1  2  2  0  0  0  0
  2  3  1  0  0  0  0
  2 25  1  0  0  0  0
  3  4  1  0  0  0  0
  4  5  1  0  0  0  0
  5  6  1  0  0  0  0
  6  7  1  0  0  0  0
  7  8  1  0  0  0  0
  7 12  1  0  0  0  0
  8  9  1  0  0  0  0
  9 10  1  0  0  0  0
 10 11  1  0  0  0  0
 10 13  1  0  0  0  0
 10 19  1  0  0  0  0
 11 12  1  0  0  0  0
 13 14  4  0  0  0  0
 13 18  4  0  0  0  0
 14 15  4  0  0  0  0
 15 16  4  0  0  0  0
 16 17  4  0  0  0  0
 17 18  4  0  0  0  0
 19 20  4  0  0  0  0
 19 24  4  0  0  0  0
 20 21  4  0  0  0  0
 21 22  4  0  0  0  0
 22 23  4  0  0  0  0
 23 24  4  0  0  0  0
 25 26  1  0  0  0  0
 25 33  2  0  0  0  0
 26 27  1  0  0  0  0
 26 36  1  0  0  0  0
 27 28  1  0  0  0  0
 27 31  2  0  0  0  0
 28 29  2  0  0  0  0
 28 30  1  0  0  0  0
 31 32  1  0  0  0  0
 31 35  1  0  0  0  0
 32 33  1  0  0  0  0
 33 34  1  0  0  0  0
 36 37  4  0  0  0  0
 36 44  4  0  0  0  0
 37 38  4  0  0  0  0
 38 39  4  0  0  0  0
 39 40  1  0  0  0  0
 39 43  4  0  0  0  0
 40 41  1  0  0  0  0
 40 42  1  0  0  0  0
 43 44  4  0  0  0  0
M  CHG  3  40   1  41  -1  42  -1
M  END
>  <Name_Molregno>
33734

>  <Alpha-2A>
6.43

>  <Alpha-2B>
6.38

>  <Alpha-2C>
6.49

$$$$
33870
  Marvin  02231216192D 0   1.00000     0.00000     0

 31 34  0  0  0  0  0  0  0  0999 V2000
   -7.8766   -2.2666    0.0000 O   0  0  0  0  0  0  0  0  0
   -7.8766   -3.0916    0.0000 C   0  0  0  0  0  0  0  0  0
   -8.5911   -1.8541    0.0000 C   0  0  0  0  0  0  0  0  0
   -9.3056   -2.2666    0.0000 C   0  0  0  0  0  0  0  0  0
  -10.0200   -1.8541    0.0000 C   0  0  0  0  0  0  0  0  0
  -10.0200   -1.0291    0.0000 C   0  0  0  0  0  0  0  0  0
   -9.3056   -0.6166    0.0000 C   0  0  0  0  0  0  0  0  0
   -8.5911   -1.0291    0.0000 C   0  0  0  0  0  0  0  0  0
   -7.8766   -0.6166    0.0000 N   0  0  0  0  0  0  0  0  0
   -7.8766    0.2084    0.0000 C   0  0  0  0  0  0  0  0  0
   -7.1621    0.6209    0.0000 C   0  0  0  0  0  0  0  0  0
   -6.4477    0.2084    0.0000 N   0  0  0  0  0  0  0  0  0
   -6.4477   -0.6166    0.0000 C   0  0  0  0  0  0  0  0  0
   -7.1621   -1.0291    0.0000 C   0  0  0  0  0  0  0  0  0
   -5.7332    0.6209    0.0000 C   0  0  0  0  0  0  0  0  0
   -5.0187    0.2084    0.0000 C   0  0  0  0  0  0  0  0  0
   -4.3043    0.6209    0.0000 C   0  0  0  0  0  0  0  0  0
   -3.5898    0.2084    0.0000 C   0  0  0  0  0  0  0  0  0
   -2.8753    0.6209    0.0000 N   0  0  0  0  0  0  0  0  0
   -2.1608    0.2084    0.0000 C   0  0  0  0  0  0  0  0  0
   -2.1608   -0.6166    0.0000 O   0  0  0  0  0  0  0  0  0
   -1.4464    0.6209    0.0000 C   0  0  0  0  0  0  0  0  0
   -0.7319    0.2084    0.0000 C   0  0  0  0  0  0  0  0  0
   -0.0174    0.6209    0.0000 C   0  0  0  0  0  0  0  0  0
   -0.0174    1.4459    0.0000 C   0  0  0  0  0  0  0  0  0
   -0.7319    1.8584    0.0000 C   0  0  0  0  0  0  0  0  0
   -1.4464    1.4459    0.0000 C   0  0  0  0  0  0  0  0  0
    0.6970    1.8584    0.0000 C   0  0  0  0  0  0  0  0  0
    1.4115    1.4459    0.0000 C   0  0  0  0  0  0  0  0  0
    1.4115    0.6209    0.0000 C   0  0  0  0  0  0  0  0  0
    0.6970    0.2084    0.0000 C   0  0  0  0  0  0  0  0  0
  1  2  1  0  0  0  0
  1  3  1  0  0  0  0
  3  4  4  0  0  0  0
  3  8  4  0  0  0  0
  4  5  4  0  0  0  0
  5  6  4  0  0  0  0
  6  7  4  0  0  0  0
  7  8  4  0  0  0  0
  8  9  1  0  0  0  0
  9 10  1  0  0  0  0
  9 14  1  0  0  0  0
 10 11  1  0  0  0  0
 11 12  1  0  0  0  0
 12 13  1  0  0  0  0
 12 15  1  0  0  0  0
 13 14  1  0  0  0  0
 15 16  1  0  0  0  0
 16 17  1  0  0  0  0
 17 18  1  0  0  0  0
 18 19  1  0  0  0  0
 19 20  1  0  0  0  0
 20 21  2  0  0  0  0
 20 22  1  0  0  0  0
 22 23  4  0  0  0  0
 22 27  4  0  0  0  0
 23 24  4  0  0  0  0
 24 25  4  0  0  0  0
 24 31  4  0  0  0  0
 25 26  4  0  0  0  0
 25 28  4  0  0  0  0
 26 27  4  0  0  0  0
 28 29  4  0  0  0  0
 29 30  4  0  0  0  0
 30 31  4  0  0  0  0
M  END
>  <Name_Molregno>
33870

>  <5-HT1A>
6.93

>  <Alpha-2A>
8.56

>  <DOPAMINE D1>
6.12

>  <DOPAMINE D2>
6.85

>  <DOPAMINE D3>
8.86

>  <DOPAMINE D4>
7.1

$$$$
35417
  Marvin  02231216192D 0   1.00000     0.00000     0

 13 14  0  0  0  0  0  0  0  0999 V2000
   -0.0600   -0.0049    0.0000 O   0  5  0  0  0  0  0  0  0
    0.6544   -0.4174    0.0000 N   0  3  0  0  0  0  0  0  0
    0.6544   -1.2424    0.0000 O   0  5  0  0  0  0  0  0  0
    1.3689   -0.0049    0.0000 C   0  0  0  0  0  0  0  0  0
    2.0834   -0.4174    0.0000 C   0  0  0  0  0  0  0  0  0
    2.7979   -0.0049    0.0000 C   0  0  0  0  0  0  0  0  0
    2.7979    0.8201    0.0000 C   0  0  0  0  0  0  0  0  0
    3.5123    1.2326    0.0000 C   0  0  0  0  0  0  0  0  0
    4.2268    0.8201    0.0000 C   0  0  0  0  0  0  0  0  0
    4.2268   -0.0049    0.0000 N   0  0  0  0  0  0  0  0  0
    3.5123   -0.4174    0.0000 C   0  0  0  0  0  0  0  0  0
    2.0834    1.2326    0.0000 C   0  0  0  0  0  0  0  0  0
    1.3689    0.8201    0.0000 C   0  0  0  0  0  0  0  0  0
  1  2  1  0  0  0  0
  2  3  1  0  0  0  0
  2  4  1  0  0  0  0
  4  5  4  0  0  0  0
  4 13  4  0  0  0  0
  5  6  4  0  0  0  0
  6  7  4  0  0  0  0
  6 11  1  0  0  0  0
  7  8  1  0  0  0  0
  7 12  4  0  0  0  0
  8  9  1  0  0  0  0
  9 10  1  0  0  0  0
 10 11  1  0  0  0  0
 12 13  4  0  0  0  0
M  CHG  3   1  -1   2   1   3  -1
M  END
>  <Name_Molregno>
35417

>  <Alpha-2A>
5.49

$$$$
35420
  Marvin  02231216192D 0   1.00000     0.00000     0

 14 15  0  0  0  0  0  0  0  0999 V2000
   -0.0414   -0.0068    0.0000 S   0  0  0  0  0  0  0  0  0
   -0.7559   -0.4193    0.0000 O   0  0  0  0  0  0  0  0  0
    0.3711   -0.7212    0.0000 O   0  0  0  0  0  0  0  0  0
   -0.4539    0.7077    0.0000 N   0  0  0  0  0  0  0  0  0
    0.6731    0.4057    0.0000 C   0  0  0  0  0  0  0  0  0
    1.3876   -0.0068    0.0000 C   0  0  0  0  0  0  0  0  0
    2.1020    0.4057    0.0000 C   0  0  0  0  0  0  0  0  0
    2.1020    1.2307    0.0000 C   0  0  0  0  0  0  0  0  0
    2.8165    1.6432    0.0000 C   0  0  0  0  0  0  0  0  0
    3.5310    1.2307    0.0000 C   0  0  0  0  0  0  0  0  0
    3.5310    0.4057    0.0000 N   0  0  0  0  0  0  0  0  0
    2.8165   -0.0068    0.0000 C   0  0  0  0  0  0  0  0  0
    1.3876    1.6432    0.0000 C   0  0  0  0  0  0  0  0  0
    0.6731    1.2307    0.0000 C   0  0  0  0  0  0  0  0  0
  1  2  2  0  0  0  0
  1  3  2  0  0  0  0
  1  4  1  0  0  0  0
  1  5  1  0  0  0  0
  5  6  4  0  0  0  0
  5 14  4  0  0  0  0
  6  7  4  0  0  0  0
  7  8  4  0  0  0  0
  7 12  1  0  0  0  0
  8  9  1  0  0  0  0
  8 13  4  0  0  0  0
  9 10  1  0  0  0  0
 10 11  1  0  0  0  0
 11 12  1  0  0  0  0
 13 14  4  0  0  0  0
M  END
>  <Name_Molregno>
35420

>  <Alpha-2A>
5.47

$$$$
42179
  Marvin  02231216192D 0   1.00000     0.00000     0

 31 34  0  0  0  0  0  0  0  0999 V2000
    0.8929    1.6421    0.0000 O   0  0  0  0  0  0  0  0  0
    1.6074    2.0546    0.0000 C   0  0  0  0  0  0  0  0  0
    0.8929    0.8171    0.0000 C   0  0  0  0  0  0  0  0  0
    1.6074    0.4046    0.0000 C   0  0  0  0  0  0  0  0  0
    1.6074   -0.4204    0.0000 C   0  0  0  0  0  0  0  0  0
    0.8929   -0.8329    0.0000 C   0  0  0  0  0  0  0  0  0
    0.1785   -0.4204    0.0000 C   0  0  0  0  0  0  0  0  0
    0.1785    0.4046    0.0000 C   0  0  0  0  0  0  0  0  0
   -0.5360    0.8171    0.0000 N   0  0  0  0  0  0  0  0  0
   -1.2505    0.4046    0.0000 C   0  0  0  0  0  0  0  0  0
   -1.9649    0.8171    0.0000 C   0  0  0  0  0  0  0  0  0
   -1.9649    1.6421    0.0000 N   0  0  0  0  0  0  0  0  0
   -1.2505    2.0546    0.0000 C   0  0  0  0  0  0  0  0  0
   -0.5360    1.6421    0.0000 C   0  0  0  0  0  0  0  0  0
   -2.6794    2.0546    0.0000 C   0  0  0  0  0  0  0  0  0
   -3.3939    1.6421    0.0000 C   0  0  0  0  0  0  0  0  0
   -4.1083    2.0546    0.0000 N   0  0  0  0  0  0  0  0  0
   -4.8228    1.6421    0.0000 C   0  0  0  0  0  0  0  0  0
   -4.8228    0.8171    0.0000 O   0  0  0  0  0  0  0  0  0
   -5.5373    2.0546    0.0000 C   0  0  0  0  0  0  0  0  0
   -6.2518    1.6421    0.0000 C   0  0  0  0  0  0  0  0  0
   -6.9662    2.0546    0.0000 C   0  0  0  0  0  0  0  0  0
   -6.9662    2.8796    0.0000 C   0  0  0  0  0  0  0  0  0
   -6.2518    3.2921    0.0000 C   0  0  0  0  0  0  0  0  0
   -5.5373    2.8796    0.0000 C   0  0  0  0  0  0  0  0  0
   -4.1083    2.8796    0.0000 C   0  0  0  0  0  0  0  0  0
   -4.8228    3.2921    0.0000 N   0  0  0  0  0  0  0  0  0
   -4.8228    4.1171    0.0000 C   0  0  0  0  0  0  0  0  0
   -4.1083    4.5296    0.0000 C   0  0  0  0  0  0  0  0  0
   -3.3939    4.1171    0.0000 C   0  0  0  0  0  0  0  0  0
   -3.3939    3.2921    0.0000 C   0  0  0  0  0  0  0  0  0
  1  2  1  0  0  0  0
  1  3  1  0  0  0  0
  3  4  4  0  0  0  0
  3  8  4  0  0  0  0
  4  5  4  0  0  0  0
  5  6  4  0  0  0  0
  6  7  4  0  0  0  0
  7  8  4  0  0  0  0
  8  9  1  0  0  0  0
  9 10  1  0  0  0  0
  9 14  1  0  0  0  0
 10 11  1  0  0  0  0
 11 12  1  0  0  0  0
 12 13  1  0  0  0  0
 12 15  1  0  0  0  0
 13 14  1  0  0  0  0
 15 16  1  0  0  0  0
 16 17  1  0  0  0  0
 17 18  1  0  0  0  0
 17 26  1  0  0  0  0
 18 19  2  0  0  0  0
 18 20  1  0  0  0  0
 20 21  1  0  0  0  0
 20 25  1  0  0  0  0
 21 22  1  0  0  0  0
 22 23  1  0  0  0  0
 23 24  1  0  0  0  0
 24 25  1  0  0  0  0
 26 27  4  0  0  0  0
 26 31  4  0  0  0  0
 27 28  4  0  0  0  0
 28 29  4  0  0  0  0
 29 30  4  0  0  0  0
 30 31  4  0  0  0  0
M  END
>  <Name_Molregno>
42179

>  <5-HT1A>
9.12

>  <5-HT1B>
5

>  <5-HT1D>
5

>  <5-HT1E>
5

>  <5-HT2A>
5.2

>  <5-HT5>
5

>  <5-HT6>
5

>  <5-HT7>
5

>  <Alpha-1A>
7.71

>  <Alpha-1B>
6.33

>  <Alpha-2A>
5

>  <Alpha-2B>
5

>  <Alpha-2C>
5.59

>  <DOPAMINE D1>
5

>  <DOPAMINE D2>
6.57

>  <DOPAMINE D3>
7.17

>  <DOPAMINE D4>
7.79

>  <DOPAMINE D5>
5

>  <HISTAMINE H1>
5

>  <HISTAMINE H2>
5

>  <HISTAMINE H4>
5

>  <Muscarinic acetylcholine receptor M2>
5

>  <Muscarinic acetylcholine receptor M5>
5

$$$$
44885
  Marvin  02231216192D 0   1.00000     0.00000     0

 14 16  0  0  0  0  0  0  0  0999 V2000
   -0.5297   -0.7719    0.0000 S   0  0  0  0  0  0  0  0  0
    0.2549   -0.5169    0.0000 C   0  0  0  0  0  0  0  0  0
    0.2549    0.3081    0.0000 C   0  0  0  0  0  0  0  0  0
    0.9694    0.7206    0.0000 C   0  0  0  0  0  0  0  0  0
    1.6839    0.3081    0.0000 C   0  0  0  0  0  0  0  0  0
    1.6839   -0.5169    0.0000 C   0  0  0  0  0  0  0  0  0
    0.9694   -0.9294    0.0000 C   0  0  0  0  0  0  0  0  0
    0.9694   -1.7544    0.0000 C   0  0  0  0  0  0  0  0  0
    1.6369   -2.2393    0.0000 N   0  0  0  0  0  0  0  0  0
    1.3819   -3.0240    0.0000 C   0  0  0  0  0  0  0  0  0
    0.5569   -3.0240    0.0000 N   0  0  0  0  0  0  0  0  0
    0.3020   -2.2393    0.0000 C   0  0  0  0  0  0  0  0  0
   -0.5297    0.5630    0.0000 C   0  0  0  0  0  0  0  0  0
   -1.0146   -0.1044    0.0000 C   0  0  0  0  0  0  0  0  0
  1  2  4  0  0  0  0
  1 14  4  0  0  0  0
  2  3  4  0  0  0  0
  2  7  1  0  0  0  0
  3  4  1  0  0  0  0
  3 13  4  0  0  0  0
  4  5  1  0  0  0  0
  5  6  1  0  0  0  0
  6  7  2  0  0  0  0
  7  8  1  0  0  0  0
  8  9  4  0  0  0  0
  8 12  4  0  0  0  0
  9 10  4  0  0  0  0
 10 11  4  0  0  0  0
 11 12  4  0  0  0  0
 13 14  4  0  0  0  0
M  STY  1   1 DAT
M  SAL   1  1  11
M  SDT   1 MRV_IMPLICIT_H                                        
M  SDD   1     0.0000    0.0000    DR    ALL  0       0  
M  SED   1 IMPL_H1
M  END
>  <Name_Molregno>
44885

>  <Alpha-2A>
6.65

$$$$
44906
  Marvin  02231216192D 0   1.00000     0.00000     0

 16 18  0  0  1  0  0  0  0  0999 V2000
   -0.2812    1.8039    0.0000 S   0  0  0  0  0  0  0  0  0
    0.2037    1.1364    0.0000 C   0  0  0  0  0  0  0  0  0
    0.9883    1.3914    0.0000 C   0  0  0  0  0  0  0  0  0
    0.9883    2.2164    0.0000 C   0  0  0  0  0  0  0  0  0
    1.7028    2.6289    0.0000 C   0  0  0  0  0  0  0  0  0
    2.4173    2.2164    0.0000 C   0  0  0  0  0  0  0  0  0
    2.4173    1.3914    0.0000 C   0  0  0  0  0  0  0  0  0
    1.7028    0.9789    0.0000 C   0  0  0  0  0  0  0  0  0
    1.7028    0.1539    0.0000 C   0  0  0  0  0  0  0  0  0
    2.3702   -0.3311    0.0000 N   0  0  0  0  0  0  0  0  0
    2.1153   -1.1157    0.0000 C   0  0  0  0  0  0  0  0  0
    1.2903   -1.1157    0.0000 N   0  0  0  0  0  0  0  0  0
    1.0353   -0.3311    0.0000 C   0  0  0  0  0  0  0  0  0
    0.2037    2.4713    0.0000 C   0  0  0  0  0  0  0  0  0
   -0.0512    3.2559    0.0000 C   0  0  0  0  0  0  0  0  0
   -0.0512    0.3518    0.0000 C   0  0  0  0  0  0  0  0  0
  1  2  4  0  0  0  0
  1 14  4  0  0  0  0
  2  3  4  0  0  0  0
  2 16  1  0  0  0  0
  3  4  4  0  0  0  0
  3  8  1  0  0  0  0
  4  5  1  0  0  0  0
  4 14  4  0  0  0  0
  5  6  1  0  0  0  0
  6  7  1  0  0  0  0
  7  8  1  0  0  0  0
  8  9  1  0  0  0  0
  9 10  4  0  0  0  0
  9 13  4  0  0  0  0
 10 11  4  0  0  0  0
 11 12  4  0  0  0  0
 12 13  4  0  0  0  0
 14 15  1  0  0  0  0
M  STY  1   1 DAT
M  SAL   1  1  12
M  SDT   1 MRV_IMPLICIT_H                                        
M  SDD   1     0.0000    0.0000    DR    ALL  0       0  
M  SED   1 IMPL_H1
M  END
>  <Name_Molregno>
44906

>  <Alpha-2A>
7.17

>  <Alpha-2B>
6.85

>  <Alpha-2C>
6.69

$$$$
44977
  Marvin  02231216192D 0   1.00000     0.00000     0

 14 16  0  0  0  0  0  0  0  0999 V2000
   -2.9123   -2.1773    0.0000 S   0  0  0  0  0  0  0  0  0
   -2.1276   -1.9224    0.0000 C   0  0  0  0  0  0  0  0  0
   -2.1276   -1.0974    0.0000 C   0  0  0  0  0  0  0  0  0
   -2.9123   -0.8425    0.0000 C   0  0  0  0  0  0  0  0  0
   -3.3972   -1.5099    0.0000 C   0  0  0  0  0  0  0  0  0
   -1.4132   -0.6849    0.0000 C   0  0  0  0  0  0  0  0  0
   -0.6987   -1.0974    0.0000 C   0  0  0  0  0  0  0  0  0
   -0.6987   -1.9224    0.0000 C   0  0  0  0  0  0  0  0  0
   -1.4132   -2.3349    0.0000 C   0  0  0  0  0  0  0  0  0
   -1.4132    0.1401    0.0000 C   0  0  0  0  0  0  0  0  0
   -2.0806    0.6250    0.0000 N   0  0  0  0  0  0  0  0  0
   -1.8257    1.4096    0.0000 C   0  0  0  0  0  0  0  0  0
   -1.0007    1.4096    0.0000 N   0  0  0  0  0  0  0  0  0
   -0.7457    0.6250    0.0000 C   0  0  0  0  0  0  0  0  0
  1  2  4  0  0  0  0
  1  5  4  0  0  0  0
  2  3  4  0  0  0  0
  2  9  4  0  0  0  0
  3  4  4  0  0  0  0
  3  6  4  0  0  0  0
  4  5  4  0  0  0  0
  6  7  4  0  0  0  0
  6 10  1  0  0  0  0
  7  8  4  0  0  0  0
  8  9  4  0  0  0  0
 10 11  4  0  0  0  0
 10 14  4  0  0  0  0
 11 12  4  0  0  0  0
 12 13  4  0  0  0  0
 13 14  4  0  0  0  0
M  STY  1   1 DAT
M  SAL   1  1  13
M  SDT   1 MRV_IMPLICIT_H                                        
M  SDD   1     0.0000    0.0000    DR    ALL  0       0  
M  SED   1 IMPL_H1
M  END
>  <Name_Molregno>
44977

>  <Alpha-2A>
6.56

>  <Alpha-2B>
6.18

$$$$
44978
  Marvin  02231216192D 0   1.00000     0.00000     0

 14 16  0  0  0  0  0  0  0  0999 V2000
   -2.8665   -2.1600    0.0000 S   0  0  0  0  0  0  0  0  0
   -2.0819   -1.9051    0.0000 C   0  0  0  0  0  0  0  0  0
   -2.0819   -1.0801    0.0000 C   0  0  0  0  0  0  0  0  0
   -2.8665   -0.8251    0.0000 C   0  0  0  0  0  0  0  0  0
   -3.3514   -1.4926    0.0000 C   0  0  0  0  0  0  0  0  0
   -1.3674   -0.6676    0.0000 C   0  0  0  0  0  0  0  0  0
   -0.6529   -1.0801    0.0000 C   0  0  0  0  0  0  0  0  0
   -0.6529   -1.9051    0.0000 C   0  0  0  0  0  0  0  0  0
   -1.3674   -2.3176    0.0000 C   0  0  0  0  0  0  0  0  0
   -1.3674    0.1574    0.0000 C   0  0  0  0  0  0  0  0  0
   -2.0348    0.6423    0.0000 N   0  0  0  0  0  0  0  0  0
   -1.7799    1.4270    0.0000 C   0  0  0  0  0  0  0  0  0
   -0.9549    1.4270    0.0000 N   0  0  0  0  0  0  0  0  0
   -0.7000    0.6423    0.0000 C   0  0  0  0  0  0  0  0  0
  1  2  4  0  0  0  0
  1  5  4  0  0  0  0
  2  3  4  0  0  0  0
  2  9  1  0  0  0  0
  3  4  4  0  0  0  0
  3  6  1  0  0  0  0
  4  5  4  0  0  0  0
  6  7  2  0  0  0  0
  6 10  1  0  0  0  0
  7  8  1  0  0  0  0
  8  9  1  0  0  0  0
 10 11  4  0  0  0  0
 10 14  4  0  0  0  0
 11 12  4  0  0  0  0
 12 13  4  0  0  0  0
 13 14  4  0  0  0  0
M  STY  1   1 DAT
M  SAL   1  1  13
M  SDT   1 MRV_IMPLICIT_H                                        
M  SDD   1     0.0000    0.0000    DR    ALL  0       0  
M  SED   1 IMPL_H1
M  END
>  <Name_Molregno>
44978

>  <Alpha-2A>
6.6

>  <Alpha-2B>
6.21

$$$$
44979
  Marvin  02231216192D 0   1.00000     0.00000     0

 14 16  0  0  1  0  0  0  0  0999 V2000
   -2.8665   -2.1600    0.0000 S   0  0  0  0  0  0  0  0  0
   -2.0819   -1.9051    0.0000 C   0  0  0  0  0  0  0  0  0
   -2.0819   -1.0801    0.0000 C   0  0  0  0  0  0  0  0  0
   -2.8665   -0.8251    0.0000 C   0  0  0  0  0  0  0  0  0
   -3.3514   -1.4926    0.0000 C   0  0  0  0  0  0  0  0  0
   -1.3674   -0.6676    0.0000 C   0  0  0  0  0  0  0  0  0
   -0.6529   -1.0801    0.0000 C   0  0  0  0  0  0  0  0  0
   -0.6529   -1.9051    0.0000 C   0  0  0  0  0  0  0  0  0
   -1.3674   -2.3176    0.0000 C   0  0  0  0  0  0  0  0  0
   -1.3674    0.1574    0.0000 C   0  0  0  0  0  0  0  0  0
   -2.0348    0.6423    0.0000 N   0  0  0  0  0  0  0  0  0
   -1.7799    1.4270    0.0000 C   0  0  0  0  0  0  0  0  0
   -0.9549    1.4270    0.0000 N   0  0  0  0  0  0  0  0  0
   -0.7000    0.6423    0.0000 C   0  0  0  0  0  0  0  0  0
  1  2  4  0  0  0  0
  1  5  4  0  0  0  0
  2  3  4  0  0  0  0
  2  9  1  0  0  0  0
  3  4  4  0  0  0  0
  3  6  1  0  0  0  0
  4  5  4  0  0  0  0
  6  7  1  0  0  0  0
  6 10  1  0  0  0  0
  7  8  1  0  0  0  0
  8  9  1  0  0  0  0
 10 11  4  0  0  0  0
 10 14  4  0  0  0  0
 11 12  4  0  0  0  0
 12 13  4  0  0  0  0
 13 14  4  0  0  0  0
M  STY  1   1 DAT
M  SAL   1  1  13
M  SDT   1 MRV_IMPLICIT_H                                        
M  SDD   1     0.0000    0.0000    DR    ALL  0       0  
M  SED   1 IMPL_H1
M  END
>  <Name_Molregno>
44979

>  <Alpha-2A>
7.57

>  <Alpha-2B>
7

>  <Alpha-2C>
6.76

$$$$
45217
  Marvin  02231216192D 0   1.00000     0.00000     0

 16 18  0  0  0  0  0  0  0  0999 V2000
   -0.2812    1.8039    0.0000 S   0  0  0  0  0  0  0  0  0
    0.2037    1.1364    0.0000 C   0  0  0  0  0  0  0  0  0
    0.9883    1.3914    0.0000 C   0  0  0  0  0  0  0  0  0
    0.9883    2.2164    0.0000 C   0  0  0  0  0  0  0  0  0
    1.7028    2.6289    0.0000 C   0  0  0  0  0  0  0  0  0
    2.4173    2.2164    0.0000 C   0  0  0  0  0  0  0  0  0
    2.4173    1.3914    0.0000 C   0  0  0  0  0  0  0  0  0
    1.7028    0.9789    0.0000 C   0  0  0  0  0  0  0  0  0
    1.7028    0.1539    0.0000 C   0  0  0  0  0  0  0  0  0
    2.3702   -0.3311    0.0000 N   0  0  0  0  0  0  0  0  0
    2.1153   -1.1157    0.0000 C   0  0  0  0  0  0  0  0  0
    1.2903   -1.1157    0.0000 N   0  0  0  0  0  0  0  0  0
    1.0353   -0.3311    0.0000 C   0  0  0  0  0  0  0  0  0
    0.2037    2.4713    0.0000 C   0  0  0  0  0  0  0  0  0
   -0.0512    3.2559    0.0000 C   0  0  0  0  0  0  0  0  0
   -0.0512    0.3518    0.0000 C   0  0  0  0  0  0  0  0  0
  1  2  4  0  0  0  0
  1 14  4  0  0  0  0
  2  3  4  0  0  0  0
  2 16  1  0  0  0  0
  3  4  4  0  0  0  0
  3  8  1  0  0  0  0
  4  5  1  0  0  0  0
  4 14  4  0  0  0  0
  5  6  1  0  0  0  0
  6  7  1  0  0  0  0
  7  8  2  0  0  0  0
  8  9  1  0  0  0  0
  9 10  4  0  0  0  0
  9 13  4  0  0  0  0
 10 11  4  0  0  0  0
 11 12  4  0  0  0  0
 12 13  4  0  0  0  0
 14 15  1  0  0  0  0
M  STY  1   1 DAT
M  SAL   1  1  12
M  SDT   1 MRV_IMPLICIT_H                                        
M  SDD   1     0.0000    0.0000    DR    ALL  0       0  
M  SED   1 IMPL_H1
M  END
>  <Name_Molregno>
45217

>  <Alpha-2A>
7.6

>  <Alpha-2B>
7

>  <Alpha-2C>
7.59

$$$$
60129
  Marvin  02231216192D 0   1.00000     0.00000     0

 12 13  0  0  0  0  0  0  0  0999 V2000
   -1.5858   -2.4246    0.0000 Cl  0  0  0  0  0  0  0  0  0
   -1.5858   -1.5996    0.0000 C   0  0  0  0  0  0  0  0  0
   -0.8713   -1.1871    0.0000 C   0  0  0  0  0  0  0  0  0
   -0.8713   -0.3621    0.0000 C   0  0  0  0  0  0  0  0  0
   -0.1568    0.0504    0.0000 C   0  0  0  0  0  0  0  0  0
    0.5576   -0.3621    0.0000 C   0  0  0  0  0  0  0  0  0
    0.5576   -1.1871    0.0000 N   0  0  0  0  0  0  0  0  0
   -0.1568   -1.5996    0.0000 C   0  0  0  0  0  0  0  0  0
   -1.5858    0.0504    0.0000 C   0  0  0  0  0  0  0  0  0
   -2.3002   -0.3621    0.0000 C   0  0  0  0  0  0  0  0  0
   -2.3002   -1.1871    0.0000 C   0  0  0  0  0  0  0  0  0
   -3.0147   -1.5996    0.0000 Cl  0  0  0  0  0  0  0  0  0
  1  2  1  0  0  0  0
  2  3  4  0  0  0  0
  2 11  4  0  0  0  0
  3  4  4  0  0  0  0
  3  8  1  0  0  0  0
  4  5  1  0  0  0  0
  4  9  4  0  0  0  0
  5  6  1  0  0  0  0
  6  7  1  0  0  0  0
  7  8  1  0  0  0  0
  9 10  4  0  0  0  0
 10 11  4  0  0  0  0
 11 12  1  0  0  0  0
M  END
>  <Name_Molregno>
60129

>  <Alpha-2A>
5.19

$$$$
66613
  Marvin  02231216192D 0   1.00000     0.00000     0

 14 15  0  0  1  0  0  0  0  0999 V2000
   -3.5937   -0.7341    0.0000 O   0  0  0  0  0  0  0  0  0
   -2.8091   -0.9890    0.0000 C   0  0  0  0  0  0  0  0  0
   -2.0946   -0.5765    0.0000 C   0  0  0  0  0  0  0  0  0
   -1.3801   -0.9890    0.0000 C   0  0  0  0  0  0  0  0  0
   -1.3801   -1.8140    0.0000 C   0  0  0  0  0  0  0  0  0
   -2.0946   -2.2265    0.0000 C   0  0  0  0  0  0  0  0  0
   -2.8091   -1.8140    0.0000 C   0  0  0  0  0  0  0  0  0
   -3.5937   -2.0690    0.0000 O   0  0  0  0  0  0  0  0  0
   -4.0786   -1.4015    0.0000 C   0  0  0  0  0  0  0  0  0
   -0.6657   -0.5765    0.0000 C   0  0  0  0  0  0  0  0  0
   -0.6657    0.2485    0.0000 C   0  0  0  0  0  0  0  0  0
    0.0488    0.6610    0.0000 N   0  0  0  0  0  0  0  0  0
    0.0488    1.4860    0.0000 C   0  0  0  0  0  0  0  0  0
   -1.3801    0.6610    0.0000 C   0  0  0  0  0  0  0  0  0
  1  2  1  0  0  0  0
  1  9  1  0  0  0  0
  2  3  4  0  0  0  0
  2  7  4  0  0  0  0
  3  4  4  0  0  0  0
  4  5  4  0  0  0  0
  4 10  1  0  0  0  0
  5  6  4  0  0  0  0
  6  7  4  0  0  0  0
  7  8  1  0  0  0  0
  8  9  1  0  0  0  0
 10 11  1  0  0  0  0
 11 12  1  0  0  0  0
 11 14  1  0  0  0  0
 12 13  1  0  0  0  0
M  END
>  <Name_Molregno>
66613

>  <5-HT1A>
5

>  <5-HT1B>
5

>  <5-HT1D>
5

>  <5-HT1E>
5

>  <5-HT2A>
5

>  <5-HT3>
5

>  <5-HT5>
5

>  <5-HT6>
5

>  <5-HT7>
5

>  <Alpha-1A>
5

>  <Alpha-1B>
5

>  <Alpha-2A>
5.6

>  <Alpha-2B>
5.75

>  <Alpha-2C>
5.95

>  <Beta-1>
5

>  <Beta-2>
5

>  <DOPAMINE D1>
5

>  <DOPAMINE D2>
5

>  <DOPAMINE D3>
5

>  <DOPAMINE D4>
5

>  <DOPAMINE D5>
5

>  <Dopamine transporter>
5

>  <HISTAMINE H1>
5.67

>  <HISTAMINE H2>
5

>  <Muscarinic acetylcholine receptor M1>
5

>  <Muscarinic acetylcholine receptor M2>
5

>  <Muscarinic acetylcholine receptor M3>
5.73

>  <Muscarinic acetylcholine receptor M4>
5.08

>  <Muscarinic acetylcholine receptor M5>
5.2

>  <Norepinephrine transporter>
5

>  <Serotonin transporter>
7.24

$$$$
70074
  Marvin  02231216192D 0   1.00000     0.00000     0

 15 16  0  0  1  0  0  0  0  0999 V2000
    2.7777   -2.4044    0.0000 O   0  0  0  0  0  0  0  0  0
    2.5228   -3.1890    0.0000 C   0  0  0  0  0  0  0  0  0
    1.6978   -3.1890    0.0000 C   0  0  0  0  0  0  0  0  0
    1.4429   -2.4044    0.0000 N   0  0  0  0  0  0  0  0  0
    2.1103   -1.9195    0.0000 C   0  0  0  0  0  0  0  0  0
    2.1103   -1.0945    0.0000 N   0  0  0  0  0  0  0  0  0
    1.3958   -0.6820    0.0000 C   0  0  0  0  0  0  0  0  0
    0.6813   -1.0945    0.0000 C   0  0  0  0  0  0  0  0  0
   -0.0331   -0.6820    0.0000 C   0  0  0  0  0  0  0  0  0
   -0.0331    0.1430    0.0000 C   0  0  0  0  0  0  0  0  0
    0.6813    0.5555    0.0000 C   0  0  0  0  0  0  0  0  0
    1.3958    0.1430    0.0000 C   0  0  0  0  0  0  0  0  0
    2.1103    0.5555    0.0000 C   0  0  0  0  0  0  0  0  0
    2.8248    0.1430    0.0000 C   0  0  0  0  0  0  0  0  0
    3.5392    0.5555    0.0000 C   0  0  0  0  0  0  0  0  0
  1  2  1  0  0  0  0
  1  5  1  0  0  0  0
  2  3  1  0  0  0  0
  3  4  1  0  0  0  0
  4  5  2  0  0  0  0
  5  6  1  0  0  0  0
  6  7  1  0  0  0  0
  7  8  1  0  0  0  0
  7 12  1  0  0  0  0
  8  9  1  0  0  0  0
  9 10  1  0  0  0  0
 10 11  1  0  0  0  0
 11 12  1  0  0  0  0
 12 13  1  0  0  0  0
 13 14  1  0  0  0  0
 14 15  1  0  0  0  0
M  END
>  <Name_Molregno>
70074

>  <Alpha-2A>
8.53

>  <Alpha-2B>
8.23

$$$$
70254
  Marvin  02231216192D 0   1.00000     0.00000     0

 22 25  0  0  1  0  0  0  0  0999 V2000
    3.3470   -3.1194    0.0000 O   0  0  0  0  0  0  0  0  0
    3.2878   -3.9423    0.0000 C   0  0  0  0  0  0  0  0  0
    2.4869   -4.1402    0.0000 C   0  0  0  0  0  0  0  0  0
    2.0512   -3.4397    0.0000 N   0  0  0  0  0  0  0  0  0
    2.5827   -2.8088    0.0000 C   0  0  0  0  0  0  0  0  0
    2.3848   -2.0079    0.0000 N   0  0  0  0  0  0  0  0  0
    2.9794   -1.4360    0.0000 C   0  0  0  0  0  0  0  0  0
    3.7549   -1.0457    0.0000 C   0  0  0  0  0  0  0  0  0
    3.8250    0.4901    0.0000 C   0  0  0  0  0  0  0  0  0
    3.9850   -0.3253    0.0000 C   0  0  0  0  0  0  0  0  0
    4.7805   -0.7906    0.0000 C   0  0  0  0  0  0  0  0  0
    4.4854   -1.4160    0.0000 C   0  0  0  0  0  0  0  0  0
    3.3447   -0.7755    0.0000 C   0  0  0  0  0  0  0  0  0
    2.7308   -0.2244    0.0000 C   0  0  0  0  0  0  0  0  0
    2.9011    0.5829    0.0000 C   0  0  0  0  0  0  0  0  0
    2.2872    1.1340    0.0000 C   0  0  0  0  0  0  0  0  0
    2.4576    1.9412    0.0000 C   0  0  0  0  0  0  0  0  0
    1.8437    2.4924    0.0000 C   0  0  0  0  0  0  0  0  0
    2.0141    3.2996    0.0000 C   0  0  0  0  0  0  0  0  0
    2.7983    3.5557    0.0000 C   0  0  0  0  0  0  0  0  0
    3.4122    3.0045    0.0000 C   0  0  0  0  0  0  0  0  0
    3.2418    2.1973    0.0000 C   0  0  0  0  0  0  0  0  0
  1  2  1  0  0  0  0
  1  5  1  0  0  0  0
  2  3  1  0  0  0  0
  3  4  1  0  0  0  0
  4  5  2  0  0  0  0
  5  6  1  0  0  0  0
  6  7  1  0  0  0  0
  7  8  1  0  0  0  0
  7 13  1  0  0  0  0
  8  9  1  0  0  0  0
  8 12  1  0  0  0  0
  9 10  1  0  0  0  0
 10 11  1  0  0  0  0
 10 13  1  0  0  0  0
 11 12  1  0  0  0  0
 13 14  1  0  0  0  0
 14 15  1  0  0  0  0
 15 16  1  0  0  0  0
 16 17  1  0  0  0  0
 17 18  4  0  0  0  0
 17 22  4  0  0  0  0
 18 19  4  0  0  0  0
 19 20  4  0  0  0  0
 20 21  4  0  0  0  0
 21 22  4  0  0  0  0
M  END
>  <Name_Molregno>
70254

>  <Alpha-2A>
7.51

>  <Alpha-2B>
6.85

$$$$
70255
  Marvin  02231216192D 0   1.00000     0.00000     0

 16 18  0  0  1  0  0  0  0  0999 V2000
    1.9247   -2.6869    0.0000 O   0  0  0  0  0  0  0  0  0
    1.8655   -3.5098    0.0000 C   0  0  0  0  0  0  0  0  0
    1.0646   -3.7078    0.0000 C   0  0  0  0  0  0  0  0  0
    0.6288   -3.0072    0.0000 N   0  0  0  0  0  0  0  0  0
    1.1604   -2.3763    0.0000 C   0  0  0  0  0  0  0  0  0
    0.9624   -1.5754    0.0000 N   0  0  0  0  0  0  0  0  0
    1.5570   -1.0035    0.0000 C   0  0  0  0  0  0  0  0  0
    2.3325   -0.6132    0.0000 C   0  0  0  0  0  0  0  0  0
    2.4026    0.9226    0.0000 C   0  0  0  0  0  0  0  0  0
    2.5626    0.1072    0.0000 C   0  0  0  0  0  0  0  0  0
    3.3581   -0.3581    0.0000 C   0  0  0  0  0  0  0  0  0
    3.0630   -0.9835    0.0000 C   0  0  0  0  0  0  0  0  0
    1.9223   -0.3430    0.0000 C   0  0  0  0  0  0  0  0  0
    1.3084    0.2081    0.0000 C   0  0  0  0  0  0  0  0  0
    1.4788    1.0153    0.0000 C   0  0  0  0  0  0  0  0  0
    0.8649    1.5665    0.0000 C   0  0  0  0  0  0  0  0  0
  1  2  1  0  0  0  0
  1  5  1  0  0  0  0
  2  3  1  0  0  0  0
  3  4  1  0  0  0  0
  4  5  2  0  0  0  0
  5  6  1  0  0  0  0
  6  7  1  0  0  0  0
  7  8  1  0  0  0  0
  7 13  1  0  0  0  0
  8  9  1  0  0  0  0
  8 12  1  0  0  0  0
  9 10  1  0  0  0  0
 10 11  1  0  0  0  0
 10 13  1  0  0  0  0
 11 12  1  0  0  0  0
 13 14  1  0  0  0  0
 14 15  1  0  0  0  0
 15 16  1  0  0  0  0
M  END
>  <Name_Molregno>
70255

>  <Alpha-2A>
7.55

>  <Alpha-2B>
7.04

$$$$
70256
  Marvin  02231216192D 0   1.00000     0.00000     0

 20 22  0  0  1  0  0  0  0  0999 V2000
    2.9998   -1.8059    0.0000 O   0  0  0  0  0  0  0  0  0
    2.7449   -2.5905    0.0000 C   0  0  0  0  0  0  0  0  0
    1.9199   -2.5905    0.0000 C   0  0  0  0  0  0  0  0  0
    1.6650   -1.8059    0.0000 N   0  0  0  0  0  0  0  0  0
    2.3324   -1.3210    0.0000 C   0  0  0  0  0  0  0  0  0
    2.3324   -0.4960    0.0000 N   0  0  0  0  0  0  0  0  0
    1.6179   -0.0835    0.0000 C   0  0  0  0  0  0  0  0  0
    0.9035   -0.4960    0.0000 C   0  0  0  0  0  0  0  0  0
    0.1890   -0.0835    0.0000 C   0  0  0  0  0  0  0  0  0
    0.1890    0.7415    0.0000 C   0  0  0  0  0  0  0  0  0
    0.9035    1.1540    0.0000 C   0  0  0  0  0  0  0  0  0
    1.6179    0.7415    0.0000 C   0  0  0  0  0  0  0  0  0
    2.3324    1.1540    0.0000 C   0  0  0  0  0  0  0  0  0
    2.3324    1.9790    0.0000 C   0  0  0  0  0  0  0  0  0
    3.0469    2.3915    0.0000 C   0  0  0  0  0  0  0  0  0
    3.0469    3.2165    0.0000 C   0  0  0  0  0  0  0  0  0
    3.7613    3.6290    0.0000 C   0  0  0  0  0  0  0  0  0
    4.4758    3.2165    0.0000 C   0  0  0  0  0  0  0  0  0
    4.4758    2.3915    0.0000 C   0  0  0  0  0  0  0  0  0
    3.7613    1.9790    0.0000 C   0  0  0  0  0  0  0  0  0
  1  2  1  0  0  0  0
  1  5  1  0  0  0  0
  2  3  1  0  0  0  0
  3  4  1  0  0  0  0
  4  5  2  0  0  0  0
  5  6  1  0  0  0  0
  6  7  1  0  0  0  0
  7  8  1  0  0  0  0
  7 12  1  0  0  0  0
  8  9  1  0  0  0  0
  9 10  1  0  0  0  0
 10 11  1  0  0  0  0
 11 12  1  0  0  0  0
 12 13  1  0  0  0  0
 13 14  1  0  0  0  0
 14 15  1  0  0  0  0
 15 16  4  0  0  0  0
 15 20  4  0  0  0  0
 16 17  4  0  0  0  0
 17 18  4  0  0  0  0
 18 19  4  0  0  0  0
 19 20  4  0  0  0  0
M  END
>  <Name_Molregno>
70256

>  <Alpha-2A>
8.84

>  <Alpha-2B>
8.16

$$$$
70614
  Marvin  02231216192D 0   1.00000     0.00000     0

 18 20  0  0  1  0  0  0  0  0999 V2000
    2.6713   -1.3019    0.0000 O   0  0  0  0  0  0  0  0  0
    2.4163   -2.0865    0.0000 C   0  0  0  0  0  0  0  0  0
    1.5913   -2.0865    0.0000 C   0  0  0  0  0  0  0  0  0
    1.3364   -1.3019    0.0000 N   0  0  0  0  0  0  0  0  0
    2.0038   -0.8169    0.0000 C   0  0  0  0  0  0  0  0  0
    2.0038    0.0081    0.0000 N   0  0  0  0  0  0  0  0  0
    1.2894    0.4206    0.0000 C   0  0  0  0  0  0  0  0  0
    0.5749    0.0081    0.0000 C   0  0  0  0  0  0  0  0  0
   -0.1396    0.4206    0.0000 C   0  0  0  0  0  0  0  0  0
   -0.1396    1.2456    0.0000 C   0  0  0  0  0  0  0  0  0
    0.5749    1.6581    0.0000 C   0  0  0  0  0  0  0  0  0
    1.2894    1.2456    0.0000 C   0  0  0  0  0  0  0  0  0
    2.0038    1.6581    0.0000 C   0  0  0  0  0  0  0  0  0
    2.0038    2.4831    0.0000 C   0  0  0  0  0  0  0  0  0
    2.7183    2.8956    0.0000 C   0  0  0  0  0  0  0  0  0
    3.4328    2.4831    0.0000 C   0  0  0  0  0  0  0  0  0
    3.4328    1.6581    0.0000 C   0  0  0  0  0  0  0  0  0
    2.7183    1.2456    0.0000 C   0  0  0  0  0  0  0  0  0
  1  2  1  0  0  0  0
  1  5  1  0  0  0  0
  2  3  1  0  0  0  0
  3  4  1  0  0  0  0
  4  5  2  0  0  0  0
  5  6  1  0  0  0  0
  6  7  1  0  0  0  0
  7  8  1  0  0  0  0
  7 12  1  0  0  0  0
  8  9  1  0  0  0  0
  9 10  1  0  0  0  0
 10 11  1  0  0  0  0
 11 12  1  0  0  0  0
 12 13  1  0  0  0  0
 13 14  4  0  0  0  0
 13 18  4  0  0  0  0
 14 15  4  0  0  0  0
 15 16  4  0  0  0  0
 16 17  4  0  0  0  0
 17 18  4  0  0  0  0
M  END
>  <Name_Molregno>
70614

>  <Alpha-2A>
7.74

>  <Alpha-2B>
7.65

$$$$
70622
  Marvin  02231216192D 0   1.00000     0.00000     0

 20 23  0  0  1  0  0  0  0  0999 V2000
    2.5398   -3.2917    0.0000 O   0  0  0  0  0  0  0  0  0
    2.4806   -4.1146    0.0000 C   0  0  0  0  0  0  0  0  0
    1.6797   -4.3126    0.0000 C   0  0  0  0  0  0  0  0  0
    1.2440   -3.6121    0.0000 N   0  0  0  0  0  0  0  0  0
    1.7755   -2.9811    0.0000 C   0  0  0  0  0  0  0  0  0
    1.5776   -2.1803    0.0000 N   0  0  0  0  0  0  0  0  0
    2.1722   -1.6084    0.0000 C   0  0  0  0  0  0  0  0  0
    2.9477   -1.2181    0.0000 C   0  0  0  0  0  0  0  0  0
    3.0178    0.3177    0.0000 C   0  0  0  0  0  0  0  0  0
    3.1778   -0.4977    0.0000 C   0  0  0  0  0  0  0  0  0
    3.9733   -0.9630    0.0000 C   0  0  0  0  0  0  0  0  0
    3.6782   -1.5884    0.0000 C   0  0  0  0  0  0  0  0  0
    2.5375   -0.9479    0.0000 C   0  0  0  0  0  0  0  0  0
    1.9236   -0.3967    0.0000 C   0  0  0  0  0  0  0  0  0
    2.0939    0.4105    0.0000 C   0  0  0  0  0  0  0  0  0
    1.4800    0.9617    0.0000 C   0  0  0  0  0  0  0  0  0
    1.6504    1.7689    0.0000 C   0  0  0  0  0  0  0  0  0
    2.4346    2.0249    0.0000 C   0  0  0  0  0  0  0  0  0
    3.0485    1.4738    0.0000 C   0  0  0  0  0  0  0  0  0
    2.8782    0.6666    0.0000 C   0  0  0  0  0  0  0  0  0
  1  2  1  0  0  0  0
  1  5  1  0  0  0  0
  2  3  1  0  0  0  0
  3  4  1  0  0  0  0
  4  5  2  0  0  0  0
  5  6  1  0  0  0  0
  6  7  1  0  0  0  0
  7  8  1  0  0  0  0
  7 13  1  0  0  0  0
  8  9  1  0  0  0  0
  8 12  1  0  0  0  0
  9 10  1  0  0  0  0
 10 11  1  0  0  0  0
 10 13  1  0  0  0  0
 11 12  1  0  0  0  0
 13 14  1  0  0  0  0
 14 15  1  0  0  0  0
 15 16  4  0  0  0  0
 15 20  4  0  0  0  0
 16 17  4  0  0  0  0
 17 18  4  0  0  0  0
 18 19  4  0  0  0  0
 19 20  4  0  0  0  0
M  END
>  <Name_Molregno>
70622

>  <Alpha-2A>
7.86

>  <Alpha-2B>
7.39

$$$$
70623
  Marvin  02231216192D 0   1.00000     0.00000     0

 22 25  0  0  1  0  0  0  0  0999 V2000
    3.3470   -3.1194    0.0000 O   0  0  0  0  0  0  0  0  0
    3.2878   -3.9423    0.0000 C   0  0  0  0  0  0  0  0  0
    2.4869   -4.1402    0.0000 C   0  0  0  0  0  0  0  0  0
    2.0512   -3.4397    0.0000 N   0  0  0  0  0  0  0  0  0
    2.5827   -2.8088    0.0000 C   0  0  0  0  0  0  0  0  0
    2.3848   -2.0079    0.0000 N   0  0  0  0  0  0  0  0  0
    2.9794   -1.4360    0.0000 C   0  0  0  0  0  0  0  0  0
    3.7549   -1.0457    0.0000 C   0  0  0  0  0  0  0  0  0
    3.8250    0.4901    0.0000 C   0  0  0  0  0  0  0  0  0
    3.9850   -0.3253    0.0000 C   0  0  0  0  0  0  0  0  0
    4.7805   -0.7906    0.0000 C   0  0  0  0  0  0  0  0  0
    4.4854   -1.4160    0.0000 C   0  0  0  0  0  0  0  0  0
    3.3447   -0.7755    0.0000 C   0  0  0  0  0  0  0  0  0
    2.7308   -0.2244    0.0000 C   0  0  0  0  0  0  0  0  0
    2.9011    0.5829    0.0000 C   0  0  0  0  0  0  0  0  0
    2.2872    1.1340    0.0000 C   0  0  0  0  0  0  0  0  0
    2.4576    1.9412    0.0000 C   0  0  0  0  0  0  0  0  0
    1.8437    2.4924    0.0000 C   0  0  0  0  0  0  0  0  0
    2.0141    3.2996    0.0000 C   0  0  0  0  0  0  0  0  0
    2.7983    3.5557    0.0000 C   0  0  0  0  0  0  0  0  0
    3.4122    3.0045    0.0000 C   0  0  0  0  0  0  0  0  0
    3.2418    2.1973    0.0000 C   0  0  0  0  0  0  0  0  0
  1  2  1  0  0  0  0
  1  5  1  0  0  0  0
  2  3  1  0  0  0  0
  3  4  1  0  0  0  0
  4  5  2  0  0  0  0
  5  6  1  0  0  0  0
  6  7  1  0  0  0  0
  7  8  1  0  0  0  0
  7 13  1  0  0  0  0
  8  9  1  0  0  0  0
  8 12  1  0  0  0  0
  9 10  1  0  0  0  0
 10 11  1  0  0  0  0
 10 13  1  0  0  0  0
 11 12  1  0  0  0  0
 13 14  1  0  0  0  0
 14 15  1  0  0  0  0
 15 16  2  0  0  0  0
 16 17  1  0  0  0  0
 17 18  4  0  0  0  0
 17 22  4  0  0  0  0
 18 19  4  0  0  0  0
 19 20  4  0  0  0  0
 20 21  4  0  0  0  0
 21 22  4  0  0  0  0
M  END
>  <Name_Molregno>
70623

>  <Alpha-2A>
7.8

>  <Alpha-2B>
6.99

$$$$
70656
  Marvin  02231216192D 0   1.00000     0.00000     0

 19 21  0  0  1  0  0  0  0  0999 V2000
    2.8780   -2.6602    0.0000 O   0  0  0  0  0  0  0  0  0
    2.6231   -3.4448    0.0000 C   0  0  0  0  0  0  0  0  0
    1.7981   -3.4448    0.0000 C   0  0  0  0  0  0  0  0  0
    1.5431   -2.6602    0.0000 N   0  0  0  0  0  0  0  0  0
    2.2106   -2.1753    0.0000 C   0  0  0  0  0  0  0  0  0
    2.2106   -1.3503    0.0000 N   0  0  0  0  0  0  0  0  0
    1.4961   -0.9378    0.0000 C   0  0  0  0  0  0  0  0  0
    0.7816   -1.3503    0.0000 C   0  0  0  0  0  0  0  0  0
    0.0672   -0.9378    0.0000 C   0  0  0  0  0  0  0  0  0
    0.0672   -0.1128    0.0000 C   0  0  0  0  0  0  0  0  0
    0.7816    0.2997    0.0000 C   0  0  0  0  0  0  0  0  0
    1.4961   -0.1128    0.0000 C   0  0  0  0  0  0  0  0  0
    2.2106    0.2997    0.0000 C   0  0  0  0  0  0  0  0  0
    2.9251   -0.1128    0.0000 C   0  0  0  0  0  0  0  0  0
    3.6395    0.2997    0.0000 C   0  0  0  0  0  0  0  0  0
    4.3540   -0.1128    0.0000 C   0  0  0  0  0  0  0  0  0
    4.3540   -0.9378    0.0000 C   0  0  0  0  0  0  0  0  0
    3.6395   -1.3503    0.0000 C   0  0  0  0  0  0  0  0  0
    2.9251   -0.9378    0.0000 C   0  0  0  0  0  0  0  0  0
  1  2  1  0  0  0  0
  1  5  1  0  0  0  0
  2  3  1  0  0  0  0
  3  4  1  0  0  0  0
  4  5  2  0  0  0  0
  5  6  1  0  0  0  0
  6  7  1  0  0  0  0
  7  8  1  0  0  0  0
  7 12  1  0  0  0  0
  8  9  1  0  0  0  0
  9 10  1  0  0  0  0
 10 11  1  0  0  0  0
 11 12  1  0  0  0  0
 12 13  1  0  0  0  0
 13 14  1  0  0  0  0
 14 15  4  0  0  0  0
 14 19  4  0  0  0  0
 15 16  4  0  0  0  0
 16 17  4  0  0  0  0
 17 18  4  0  0  0  0
 18 19  4  0  0  0  0
M  END
>  <Name_Molregno>
70656

>  <Alpha-2A>
7.68

>  <Alpha-2B>
7.39

$$$$
70657
  Marvin  02231216192D 0   1.00000     0.00000     0

 21 23  0  0  1  0  0  0  0  0999 V2000
    2.8901   -2.4709    0.0000 O   0  0  0  0  0  0  0  0  0
    2.6351   -3.2555    0.0000 C   0  0  0  0  0  0  0  0  0
    1.8101   -3.2555    0.0000 C   0  0  0  0  0  0  0  0  0
    1.5552   -2.4709    0.0000 N   0  0  0  0  0  0  0  0  0
    2.2226   -1.9860    0.0000 C   0  0  0  0  0  0  0  0  0
    2.2226   -1.1610    0.0000 N   0  0  0  0  0  0  0  0  0
    1.5082   -0.7485    0.0000 C   0  0  0  0  0  0  0  0  0
    0.7937   -1.1610    0.0000 C   0  0  0  0  0  0  0  0  0
    0.0792   -0.7485    0.0000 C   0  0  0  0  0  0  0  0  0
    0.0792    0.0765    0.0000 C   0  0  0  0  0  0  0  0  0
    0.7937    0.4890    0.0000 C   0  0  0  0  0  0  0  0  0
    1.5082    0.0765    0.0000 C   0  0  0  0  0  0  0  0  0
    2.2226    0.4890    0.0000 C   0  0  0  0  0  0  0  0  0
    2.9371    0.0765    0.0000 C   0  0  0  0  0  0  0  0  0
    3.6516    0.4890    0.0000 C   0  0  0  0  0  0  0  0  0
    4.3661    0.0765    0.0000 C   0  0  0  0  0  0  0  0  0
    5.0805    0.4890    0.0000 C   0  0  0  0  0  0  0  0  0
    5.7950    0.0765    0.0000 C   0  0  0  0  0  0  0  0  0
    5.7950   -0.7485    0.0000 C   0  0  0  0  0  0  0  0  0
    5.0805   -1.1610    0.0000 C   0  0  0  0  0  0  0  0  0
    4.3661   -0.7485    0.0000 C   0  0  0  0  0  0  0  0  0
  1  2  1  0  0  0  0
  1  5  1  0  0  0  0
  2  3  1  0  0  0  0
  3  4  1  0  0  0  0
  4  5  2  0  0  0  0
  5  6  1  0  0  0  0
  6  7  1  0  0  0  0
  7  8  1  0  0  0  0
  7 12  1  0  0  0  0
  8  9  1  0  0  0  0
  9 10  1  0  0  0  0
 10 11  1  0  0  0  0
 11 12  1  0  0  0  0
 12 13  1  0  0  0  0
 13 14  1  0  0  0  0
 14 15  1  0  0  0  0
 15 16  1  0  0  0  0
 16 17  4  0  0  0  0
 16 21  4  0  0  0  0
 17 18  4  0  0  0  0
 18 19  4  0  0  0  0
 19 20  4  0  0  0  0
 20 21  4  0  0  0  0
M  END
>  <Name_Molregno>
70657

>  <Alpha-2A>
7.82

>  <Alpha-2B>
7.49

$$$$
74566
  Marvin  02231216192D 0   1.00000     0.00000     0

 17 19  0  0  0  0  0  0  0  0999 V2000
   -0.2285    1.4943    0.0000 N   0  0  0  0  0  0  0  0  0
    0.4860    1.9068    0.0000 C   0  0  0  0  0  0  0  0  0
    0.4860    2.7318    0.0000 C   0  0  0  0  0  0  0  0  0
   -0.2285    3.1443    0.0000 N   0  0  0  0  0  0  0  0  0
   -0.9430    2.7318    0.0000 C   0  0  0  0  0  0  0  0  0
   -0.9430    1.9068    0.0000 C   0  0  0  0  0  0  0  0  0
    1.2005    3.1443    0.0000 C   0  0  0  0  0  0  0  0  0
    1.9149    2.7318    0.0000 C   0  0  0  0  0  0  0  0  0
    1.9149    1.9068    0.0000 C   0  0  0  0  0  0  0  0  0
    2.6294    1.4943    0.0000 N   0  0  0  0  0  0  0  0  0
    2.6294    0.6693    0.0000 C   0  0  0  0  0  0  0  0  0
    3.2968    0.1844    0.0000 N   0  0  0  0  0  0  0  0  0
    3.0419   -0.6002    0.0000 C   0  0  0  0  0  0  0  0  0
    2.2169   -0.6002    0.0000 C   0  0  0  0  0  0  0  0  0
    1.9620    0.1844    0.0000 N   0  0  0  0  0  0  0  0  0
    1.2005    1.4943    0.0000 C   0  0  0  0  0  0  0  0  0
    1.2005    0.6693    0.0000 C   0  0  0  0  0  0  0  0  0
  1  2  4  0  0  0  0
  1  6  4  0  0  0  0
  2  3  4  0  0  0  0
  2 16  4  0  0  0  0
  3  4  4  0  0  0  0
  3  7  4  0  0  0  0
  4  5  4  0  0  0  0
  5  6  4  0  0  0  0
  7  8  4  0  0  0  0
  8  9  4  0  0  0  0
  9 10  1  0  0  0  0
  9 16  4  0  0  0  0
 10 11  1  0  0  0  0
 11 12  1  0  0  0  0
 11 15  2  0  0  0  0
 12 13  1  0  0  0  0
 13 14  1  0  0  0  0
 14 15  1  0  0  0  0
 16 17  1  0  0  0  0
M  END
>  <Name_Molregno>
74566

>  <Alpha-1A>
5.84

>  <Alpha-1B>
5.73

>  <Alpha-2A>
8.42

>  <Alpha-2B>
8.05

>  <Alpha-2C>
7.56

$$$$
74871
  Marvin  02231216192D 0   1.00000     0.00000     0

 16 18  0  0  0  0  0  0  0  0999 V2000
   -3.8155    0.0268    0.0000 N   0  0  0  0  0  0  0  0  0
   -3.1011   -0.3857    0.0000 C   0  0  0  0  0  0  0  0  0
   -2.3866    0.0268    0.0000 C   0  0  0  0  0  0  0  0  0
   -1.6721   -0.3857    0.0000 C   0  0  0  0  0  0  0  0  0
   -0.9576    0.0268    0.0000 N   0  0  0  0  0  0  0  0  0
   -0.2432   -0.3857    0.0000 C   0  0  0  0  0  0  0  0  0
    0.5105   -0.0502    0.0000 N   0  0  0  0  0  0  0  0  0
    1.0625   -0.6633    0.0000 C   0  0  0  0  0  0  0  0  0
    0.6500   -1.3777    0.0000 C   0  0  0  0  0  0  0  0  0
   -0.1569   -1.2062    0.0000 N   0  0  0  0  0  0  0  0  0
   -1.6721   -1.2107    0.0000 C   0  0  0  0  0  0  0  0  0
   -2.3866   -1.6232    0.0000 C   0  0  0  0  0  0  0  0  0
   -3.1011   -1.2107    0.0000 C   0  0  0  0  0  0  0  0  0
   -3.8155   -1.6232    0.0000 N   0  0  0  0  0  0  0  0  0
   -4.5300   -1.2107    0.0000 C   0  0  0  0  0  0  0  0  0
   -4.5300   -0.3857    0.0000 C   0  0  0  0  0  0  0  0  0
  1  2  4  0  0  0  0
  1 16  4  0  0  0  0
  2  3  4  0  0  0  0
  2 13  4  0  0  0  0
  3  4  4  0  0  0  0
  4  5  1  0  0  0  0
  4 11  4  0  0  0  0
  5  6  1  0  0  0  0
  6  7  1  0  0  0  0
  6 10  2  0  0  0  0
  7  8  1  0  0  0  0
  8  9  1  0  0  0  0
  9 10  1  0  0  0  0
 11 12  4  0  0  0  0
 12 13  4  0  0  0  0
 13 14  4  0  0  0  0
 14 15  4  0  0  0  0
 15 16  4  0  0  0  0
M  END
>  <Name_Molregno>
74871

>  <Alpha-1A>
4.85

>  <Alpha-1B>
5.22

>  <Alpha-2A>
6.51

>  <Alpha-2B>
6.66

>  <Alpha-2C>
5.85

$$$$
82738
  Marvin  02231216192D 0   1.00000     0.00000     0

 23 26  0  0  1  0  0  0  0  0999 V2000
    0.0943   -0.2888    0.0000 O   0  0  0  0  0  0  0  0  0
   -0.7127   -0.4603    0.0000 C   0  0  0  0  0  0  0  0  0
   -0.9676   -1.2450    0.0000 C   0  0  0  0  0  0  0  0  0
   -1.7746   -1.4165    0.0000 O   0  0  0  0  0  0  0  0  0
   -0.4156   -1.8581    0.0000 N   0  0  0  0  0  0  0  0  0
   -0.6705   -2.6427    0.0000 C   0  0  0  0  0  0  0  0  0
   -0.1700   -3.3633    0.0000 C   0  0  0  0  0  0  0  0  0
   -0.3533   -4.1522    0.0000 C   0  0  0  0  0  0  0  0  0
   -1.0724   -4.4494    0.0000 C   0  0  0  0  0  0  0  0  0
   -0.8767   -3.6479    0.0000 N   0  0  0  0  0  0  0  0  0
   -1.3910   -2.8938    0.0000 C   0  0  0  0  0  0  0  0  0
    0.1693   -3.5844    0.0000 C   0  0  0  0  0  0  0  0  0
    0.7165   -3.2272    0.0000 C   0  0  0  0  0  0  0  0  0
   -1.2647    0.1528    0.0000 C   0  0  0  0  0  0  0  0  0
   -1.0932    0.9597    0.0000 C   0  0  0  0  0  0  0  0  0
   -1.8077    1.3722    0.0000 C   0  0  0  0  0  0  0  0  0
   -2.4207    0.8202    0.0000 N   0  0  0  0  0  0  0  0  0
   -2.0852    0.0665    0.0000 C   0  0  0  0  0  0  0  0  0
   -3.2277    0.9917    0.0000 C   0  0  0  0  0  0  0  0  0
   -1.8077    2.1972    0.0000 C   0  0  0  0  0  0  0  0  0
   -1.0932    2.6097    0.0000 C   0  0  0  0  0  0  0  0  0
   -0.3787    2.1972    0.0000 C   0  0  0  0  0  0  0  0  0
   -0.3787    1.3722    0.0000 C   0  0  0  0  0  0  0  0  0
  1  2  2  0  0  0  0
  2  3  1  0  0  0  0
  2 14  1  0  0  0  0
  3  4  2  0  0  0  0
  3  5  1  0  0  0  0
  5  6  1  0  0  0  0
  6  7  1  0  0  0  0
  6 11  1  0  0  0  0
  7  8  1  0  0  0  0
  7 13  1  0  0  0  0
  8  9  1  0  0  0  0
  9 10  1  0  0  0  0
 10 11  1  0  0  0  0
 10 12  1  0  0  0  0
 12 13  1  0  0  0  0
 14 15  4  0  0  0  0
 14 18  4  0  0  0  0
 15 16  4  0  0  0  0
 15 23  4  0  0  0  0
 16 17  4  0  0  0  0
 16 20  4  0  0  0  0
 17 18  4  0  0  0  0
 17 19  1  0  0  0  0
 20 21  4  0  0  0  0
 21 22  4  0  0  0  0
 22 23  4  0  0  0  0
M  END
>  <Name_Molregno>
82738

>  <5-HT1D>
4.2

>  <5-HT2A>
4.75

>  <5-HT2C>
4.85

>  <Alpha-1B>
4.9

>  <Alpha-2A>
4.8

>  <Alpha-2B>
5.05

>  <DOPAMINE D1>
4

>  <DOPAMINE D2>
4

>  <Muscarinic acetylcholine receptor M1>
4.8

>  <Muscarinic acetylcholine receptor M2>
4.3

>  <Muscarinic acetylcholine receptor M3>
4.4

>  <Muscarinic acetylcholine receptor M4>
4.6

$$$$
83018
  Marvin  02231216192D 0   1.00000     0.00000     0

 31 35  0  0  0  0  0  0  0  0999 V2000
   -6.9274   -1.6120    0.0000 O   0  0  0  0  0  0  0  0  0
   -7.1823   -2.3966    0.0000 C   0  0  0  0  0  0  0  0  0
   -7.4794   -0.9989    0.0000 C   0  0  0  0  0  0  0  0  0
   -8.2864   -1.1704    0.0000 C   0  0  0  0  0  0  0  0  0
   -8.8384   -0.5573    0.0000 C   0  0  0  0  0  0  0  0  0
   -8.5835    0.2273    0.0000 C   0  0  0  0  0  0  0  0  0
   -7.7765    0.3988    0.0000 C   0  0  0  0  0  0  0  0  0
   -7.2245   -0.2143    0.0000 C   0  0  0  0  0  0  0  0  0
   -6.4175   -0.0428    0.0000 N   0  0  0  0  0  0  0  0  0
   -6.1626    0.7419    0.0000 C   0  0  0  0  0  0  0  0  0
   -5.3556    0.9134    0.0000 C   0  0  0  0  0  0  0  0  0
   -4.8036    0.3003    0.0000 N   0  0  0  0  0  0  0  0  0
   -5.0585   -0.4843    0.0000 C   0  0  0  0  0  0  0  0  0
   -5.8655   -0.6559    0.0000 C   0  0  0  0  0  0  0  0  0
   -3.9966    0.4718    0.0000 C   0  0  0  0  0  0  0  0  0
   -3.4446   -0.1413    0.0000 C   0  0  0  0  0  0  0  0  0
   -2.6376    0.0303    0.0000 N   0  0  0  0  0  0  0  0  0
   -2.0856   -0.5828    0.0000 C   0  0  0  0  0  0  0  0  0
   -2.3405   -1.3675    0.0000 O   0  0  0  0  0  0  0  0  0
   -1.2786   -0.4113    0.0000 C   0  0  0  0  0  0  0  0  0
   -0.6112   -0.8962    0.0000 N   0  0  0  0  0  0  0  0  0
    0.0563   -0.4113    0.0000 C   0  0  0  0  0  0  0  0  0
   -0.1987    0.3733    0.0000 C   0  0  0  0  0  0  0  0  0
   -1.0237    0.3733    0.0000 C   0  0  0  0  0  0  0  0  0
   -1.5757    0.9864    0.0000 N   0  0  0  0  0  0  0  0  0
   -2.3827    0.8149    0.0000 C   0  0  0  0  0  0  0  0  0
   -2.9347    1.4280    0.0000 O   0  0  0  0  0  0  0  0  0
    0.3534    0.9864    0.0000 C   0  0  0  0  0  0  0  0  0
    1.1603    0.8149    0.0000 C   0  0  0  0  0  0  0  0  0
    1.4153    0.0303    0.0000 C   0  0  0  0  0  0  0  0  0
    0.8632   -0.5828    0.0000 C   0  0  0  0  0  0  0  0  0
  1  2  1  0  0  0  0
  1  3  1  0  0  0  0
  3  4  4  0  0  0  0
  3  8  4  0  0  0  0
  4  5  4  0  0  0  0
  5  6  4  0  0  0  0
  6  7  4  0  0  0  0
  7  8  4  0  0  0  0
  8  9  1  0  0  0  0
  9 10  1  0  0  0  0
  9 14  1  0  0  0  0
 10 11  1  0  0  0  0
 11 12  1  0  0  0  0
 12 13  1  0  0  0  0
 12 15  1  0  0  0  0
 13 14  1  0  0  0  0
 15 16  1  0  0  0  0
 16 17  1  0  0  0  0
 17 18  1  0  0  0  0
 17 26  1  0  0  0  0
 18 19  2  0  0  0  0
 18 20  1  0  0  0  0
 20 21  4  0  0  0  0
 20 24  4  0  0  0  0
 21 22  4  0  0  0  0
 22 23  4  0  0  0  0
 22 31  4  0  0  0  0
 23 24  4  0  0  0  0
 23 28  4  0  0  0  0
 24 25  1  0  0  0  0
 25 26  1  0  0  0  0
 26 27  2  0  0  0  0
 28 29  4  0  0  0  0
 29 30  4  0  0  0  0
 30 31  4  0  0  0  0
M  STY  1   1 DAT
M  SAL   1  1  21
M  SDT   1 MRV_IMPLICIT_H                                        
M  SDD   1     0.0000    0.0000    DR    ALL  0       0  
M  SED   1 IMPL_H1
M  END
>  <Name_Molregno>
83018

>  <Alpha-1A>
9.54

>  <Alpha-1B>
8.74

>  <Alpha-2A>
6

>  <Alpha-2B>
6

>  <Alpha-2C>
6

>  <Beta-2>
4

$$$$
83053
  Marvin  02231216192D 0   1.00000     0.00000     0

 31 35  0  0  0  0  0  0  0  0999 V2000
  -11.2830   -0.2101    0.0000 O   0  0  0  0  0  0  0  0  0
  -11.5380   -0.9948    0.0000 C   0  0  0  0  0  0  0  0  0
  -10.4760   -0.0386    0.0000 C   0  0  0  0  0  0  0  0  0
  -10.2211    0.7460    0.0000 C   0  0  0  0  0  0  0  0  0
   -9.4141    0.9175    0.0000 C   0  0  0  0  0  0  0  0  0
   -8.8621    0.3045    0.0000 C   0  0  0  0  0  0  0  0  0
   -8.0551    0.4760    0.0000 N   0  0  0  0  0  0  0  0  0
   -7.8002    1.2606    0.0000 C   0  0  0  0  0  0  0  0  0
   -6.9932    1.4321    0.0000 C   0  0  0  0  0  0  0  0  0
   -6.4412    0.8190    0.0000 N   0  0  0  0  0  0  0  0  0
   -6.6961    0.0344    0.0000 C   0  0  0  0  0  0  0  0  0
   -7.5031   -0.1371    0.0000 C   0  0  0  0  0  0  0  0  0
   -5.6342    0.9906    0.0000 C   0  0  0  0  0  0  0  0  0
   -5.0822    0.3775    0.0000 C   0  0  0  0  0  0  0  0  0
   -4.2752    0.5490    0.0000 N   0  0  0  0  0  0  0  0  0
   -3.7232   -0.0641    0.0000 C   0  0  0  0  0  0  0  0  0
   -3.9781   -0.8487    0.0000 O   0  0  0  0  0  0  0  0  0
   -2.9162    0.1074    0.0000 C   0  0  0  0  0  0  0  0  0
   -2.2488   -0.3775    0.0000 N   0  0  0  0  0  0  0  0  0
   -1.5813    0.1074    0.0000 C   0  0  0  0  0  0  0  0  0
   -1.8363    0.8920    0.0000 C   0  0  0  0  0  0  0  0  0
   -2.6613    0.8920    0.0000 C   0  0  0  0  0  0  0  0  0
   -3.2133    1.5051    0.0000 N   0  0  0  0  0  0  0  0  0
   -4.0203    1.3336    0.0000 C   0  0  0  0  0  0  0  0  0
   -4.5723    1.9467    0.0000 O   0  0  0  0  0  0  0  0  0
   -1.2842    1.5051    0.0000 C   0  0  0  0  0  0  0  0  0
   -0.4773    1.3336    0.0000 C   0  0  0  0  0  0  0  0  0
   -0.2223    0.5490    0.0000 C   0  0  0  0  0  0  0  0  0
   -0.7744   -0.0641    0.0000 C   0  0  0  0  0  0  0  0  0
   -9.1170   -0.4802    0.0000 C   0  0  0  0  0  0  0  0  0
   -9.9240   -0.6517    0.0000 C   0  0  0  0  0  0  0  0  0
  1  2  1  0  0  0  0
  1  3  1  0  0  0  0
  3  4  4  0  0  0  0
  3 31  4  0  0  0  0
  4  5  4  0  0  0  0
  5  6  4  0  0  0  0
  6  7  1  0  0  0  0
  6 30  4  0  0  0  0
  7  8  1  0  0  0  0
  7 12  1  0  0  0  0
  8  9  1  0  0  0  0
  9 10  1  0  0  0  0
 10 11  1  0  0  0  0
 10 13  1  0  0  0  0
 11 12  1  0  0  0  0
 13 14  1  0  0  0  0
 14 15  1  0  0  0  0
 15 16  1  0  0  0  0
 15 24  1  0  0  0  0
 16 17  2  0  0  0  0
 16 18  1  0  0  0  0
 18 19  4  0  0  0  0
 18 22  4  0  0  0  0
 19 20  4  0  0  0  0
 20 21  4  0  0  0  0
 20 29  4  0  0  0  0
 21 22  4  0  0  0  0
 21 26  4  0  0  0  0
 22 23  1  0  0  0  0
 23 24  1  0  0  0  0
 24 25  2  0  0  0  0
 26 27  4  0  0  0  0
 27 28  4  0  0  0  0
 28 29  4  0  0  0  0
 30 31  4  0  0  0  0
M  STY  1   1 DAT
M  SAL   1  1  19
M  SDT   1 MRV_IMPLICIT_H                                        
M  SDD   1     0.0000    0.0000    DR    ALL  0       0  
M  SED   1 IMPL_H1
M  END
>  <Name_Molregno>
83053

>  <Alpha-2A>
4

>  <Alpha-2B>
4

>  <Alpha-2C>
4

>  <Beta-2>
4

$$$$
83092
  Marvin  02231216192D 0   1.00000     0.00000     0

 29 33  0  0  0  0  0  0  0  0999 V2000
    0.4674   -0.1542    0.0000 O   0  0  0  0  0  0  0  0  0
    0.2125   -0.9388    0.0000 C   0  0  0  0  0  0  0  0  0
    0.7645   -1.5519    0.0000 N   0  0  0  0  0  0  0  0  0
    1.5715   -1.3803    0.0000 C   0  0  0  0  0  0  0  0  0
    1.8264   -0.5957    0.0000 C   0  0  0  0  0  0  0  0  0
    2.6334   -0.4242    0.0000 N   0  0  0  0  0  0  0  0  0
    2.8883    0.3604    0.0000 C   0  0  0  0  0  0  0  0  0
    3.6953    0.5320    0.0000 C   0  0  0  0  0  0  0  0  0
    4.2473   -0.0811    0.0000 N   0  0  0  0  0  0  0  0  0
    3.9924   -0.8658    0.0000 C   0  0  0  0  0  0  0  0  0
    3.1854   -1.0373    0.0000 C   0  0  0  0  0  0  0  0  0
    5.0543    0.0904    0.0000 C   0  0  0  0  0  0  0  0  0
    5.3093    0.8750    0.0000 C   0  0  0  0  0  0  0  0  0
    6.1162    1.0465    0.0000 C   0  0  0  0  0  0  0  0  0
    6.6683    0.4334    0.0000 C   0  0  0  0  0  0  0  0  0
    6.4133   -0.3512    0.0000 C   0  0  0  0  0  0  0  0  0
    5.6064   -0.5227    0.0000 C   0  0  0  0  0  0  0  0  0
    0.5096   -2.3365    0.0000 C   0  0  0  0  0  0  0  0  0
    1.0616   -2.9496    0.0000 O   0  0  0  0  0  0  0  0  0
   -0.2974   -2.5080    0.0000 N   0  0  0  0  0  0  0  0  0
   -0.8494   -1.8949    0.0000 C   0  0  0  0  0  0  0  0  0
   -0.5945   -1.1103    0.0000 C   0  0  0  0  0  0  0  0  0
   -1.2619   -0.6254    0.0000 N   0  0  0  0  0  0  0  0  0
   -1.9294   -1.1103    0.0000 C   0  0  0  0  0  0  0  0  0
   -1.6744   -1.8949    0.0000 C   0  0  0  0  0  0  0  0  0
   -2.2265   -2.5080    0.0000 C   0  0  0  0  0  0  0  0  0
   -3.0334   -2.3365    0.0000 C   0  0  0  0  0  0  0  0  0
   -3.2884   -1.5519    0.0000 C   0  0  0  0  0  0  0  0  0
   -2.7363   -0.9388    0.0000 C   0  0  0  0  0  0  0  0  0
  1  2  2  0  0  0  0
  2  3  1  0  0  0  0
  2 22  1  0  0  0  0
  3  4  1  0  0  0  0
  3 18  1  0  0  0  0
  4  5  1  0  0  0  0
  5  6  1  0  0  0  0
  6  7  1  0  0  0  0
  6 11  1  0  0  0  0
  7  8  1  0  0  0  0
  8  9  1  0  0  0  0
  9 10  1  0  0  0  0
  9 12  1  0  0  0  0
 10 11  1  0  0  0  0
 12 13  4  0  0  0  0
 12 17  4  0  0  0  0
 13 14  4  0  0  0  0
 14 15  4  0  0  0  0
 15 16  4  0  0  0  0
 16 17  4  0  0  0  0
 18 19  2  0  0  0  0
 18 20  1  0  0  0  0
 20 21  1  0  0  0  0
 21 22  4  0  0  0  0
 21 25  4  0  0  0  0
 22 23  4  0  0  0  0
 23 24  4  0  0  0  0
 24 25  4  0  0  0  0
 24 29  4  0  0  0  0
 25 26  4  0  0  0  0
 26 27  4  0  0  0  0
 27 28  4  0  0  0  0
 28 29  4  0  0  0  0
M  STY  1   1 DAT
M  SAL   1  1  23
M  SDT   1 MRV_IMPLICIT_H                                        
M  SDD   1     0.0000    0.0000    DR    ALL  0       0  
M  SED   1 IMPL_H1
M  END
>  <Name_Molregno>
83092

>  <Alpha-2A>
4

>  <Alpha-2B>
4

>  <Alpha-2C>
4

>  <Beta-2>
4

$$$$
83342
  Marvin  02231216192D 0   1.00000     0.00000     0

 30 34  0  0  0  0  0  0  0  0999 V2000
   -7.1889   -1.4284    0.0000 Cl  0  0  0  0  0  0  0  0  0
   -7.7409   -0.8153    0.0000 C   0  0  0  0  0  0  0  0  0
   -8.5479   -0.9869    0.0000 C   0  0  0  0  0  0  0  0  0
   -9.0999   -0.3738    0.0000 C   0  0  0  0  0  0  0  0  0
   -8.8450    0.4109    0.0000 C   0  0  0  0  0  0  0  0  0
   -8.0380    0.5824    0.0000 C   0  0  0  0  0  0  0  0  0
   -7.4860   -0.0307    0.0000 C   0  0  0  0  0  0  0  0  0
   -6.6790    0.1408    0.0000 N   0  0  0  0  0  0  0  0  0
   -6.4241    0.9254    0.0000 C   0  0  0  0  0  0  0  0  0
   -5.6171    1.0970    0.0000 C   0  0  0  0  0  0  0  0  0
   -5.0651    0.4839    0.0000 N   0  0  0  0  0  0  0  0  0
   -5.3200   -0.3008    0.0000 C   0  0  0  0  0  0  0  0  0
   -6.1270   -0.4723    0.0000 C   0  0  0  0  0  0  0  0  0
   -4.2581    0.6554    0.0000 C   0  0  0  0  0  0  0  0  0
   -3.7061    0.0423    0.0000 C   0  0  0  0  0  0  0  0  0
   -2.8991    0.2138    0.0000 N   0  0  0  0  0  0  0  0  0
   -2.3471   -0.3993    0.0000 C   0  0  0  0  0  0  0  0  0
   -2.6020   -1.1839    0.0000 O   0  0  0  0  0  0  0  0  0
   -1.5401   -0.2277    0.0000 C   0  0  0  0  0  0  0  0  0
   -0.8726   -0.7127    0.0000 N   0  0  0  0  0  0  0  0  0
   -0.2052   -0.2277    0.0000 C   0  0  0  0  0  0  0  0  0
   -0.4601    0.5569    0.0000 C   0  0  0  0  0  0  0  0  0
   -1.2851    0.5569    0.0000 C   0  0  0  0  0  0  0  0  0
   -1.8372    1.1700    0.0000 N   0  0  0  0  0  0  0  0  0
   -2.6441    0.9984    0.0000 C   0  0  0  0  0  0  0  0  0
   -3.1962    1.6115    0.0000 O   0  0  0  0  0  0  0  0  0
    0.0919    1.1700    0.0000 C   0  0  0  0  0  0  0  0  0
    0.8989    0.9984    0.0000 C   0  0  0  0  0  0  0  0  0
    1.1538    0.2138    0.0000 C   0  0  0  0  0  0  0  0  0
    0.6018   -0.3993    0.0000 C   0  0  0  0  0  0  0  0  0
  1  2  1  0  0  0  0
  2  3  4  0  0  0  0
  2  7  4  0  0  0  0
  3  4  4  0  0  0  0
  4  5  4  0  0  0  0
  5  6  4  0  0  0  0
  6  7  4  0  0  0  0
  7  8  1  0  0  0  0
  8  9  1  0  0  0  0
  8 13  1  0  0  0  0
  9 10  1  0  0  0  0
 10 11  1  0  0  0  0
 11 12  1  0  0  0  0
 11 14  1  0  0  0  0
 12 13  1  0  0  0  0
 14 15  1  0  0  0  0
 15 16  1  0  0  0  0
 16 17  1  0  0  0  0
 16 25  1  0  0  0  0
 17 18  2  0  0  0  0
 17 19  1  0  0  0  0
 19 20  4  0  0  0  0
 19 23  4  0  0  0  0
 20 21  4  0  0  0  0
 21 22  4  0  0  0  0
 21 30  4  0  0  0  0
 22 23  4  0  0  0  0
 22 27  4  0  0  0  0
 23 24  1  0  0  0  0
 24 25  1  0  0  0  0
 25 26  2  0  0  0  0
 27 28  4  0  0  0  0
 28 29  4  0  0  0  0
 29 30  4  0  0  0  0
M  STY  1   1 DAT
M  SAL   1  1  20
M  SDT   1 MRV_IMPLICIT_H                                        
M  SDD   1     0.0000    0.0000    DR    ALL  0       0  
M  SED   1 IMPL_H1
M  END
>  <Name_Molregno>
83342

>  <Alpha-2A>
4

>  <Alpha-2B>
4

>  <Alpha-2C>
4

>  <Beta-2>
4

$$$$
83473
  Marvin  02231216192D 0   1.00000     0.00000     0

 32 36  0  0  0  0  0  0  0  0999 V2000
   -8.3464    1.3126    0.0000 O   0  0  0  0  0  0  0  0  0
   -9.1534    1.1411    0.0000 C   0  0  0  0  0  0  0  0  0
   -8.0915    2.0972    0.0000 C   0  0  0  0  0  0  0  0  0
   -8.6435    2.7103    0.0000 C   0  0  0  0  0  0  0  0  0
   -8.3886    3.4950    0.0000 C   0  0  0  0  0  0  0  0  0
   -7.5816    3.6665    0.0000 C   0  0  0  0  0  0  0  0  0
   -7.0295    3.0534    0.0000 C   0  0  0  0  0  0  0  0  0
   -7.2845    2.2688    0.0000 C   0  0  0  0  0  0  0  0  0
   -6.7325    1.6557    0.0000 N   0  0  0  0  0  0  0  0  0
   -5.9255    1.8272    0.0000 C   0  0  0  0  0  0  0  0  0
   -5.3734    1.2141    0.0000 C   0  0  0  0  0  0  0  0  0
   -5.6284    0.4295    0.0000 N   0  0  0  0  0  0  0  0  0
   -6.4354    0.2580    0.0000 C   0  0  0  0  0  0  0  0  0
   -6.9874    0.8710    0.0000 C   0  0  0  0  0  0  0  0  0
   -5.0764   -0.1836    0.0000 C   0  0  0  0  0  0  0  0  0
   -4.2694   -0.0121    0.0000 C   0  0  0  0  0  0  0  0  0
   -3.7174   -0.6252    0.0000 C   0  0  0  0  0  0  0  0  0
   -2.9104   -0.4537    0.0000 N   0  0  0  0  0  0  0  0  0
   -2.3583   -1.0667    0.0000 C   0  0  0  0  0  0  0  0  0
   -2.6133   -1.8514    0.0000 O   0  0  0  0  0  0  0  0  0
   -1.5514   -0.8952    0.0000 C   0  0  0  0  0  0  0  0  0
   -0.8839   -1.3801    0.0000 N   0  0  0  0  0  0  0  0  0
   -0.2165   -0.8952    0.0000 C   0  0  0  0  0  0  0  0  0
   -0.4714   -0.1106    0.0000 C   0  0  0  0  0  0  0  0  0
   -1.2964   -0.1106    0.0000 C   0  0  0  0  0  0  0  0  0
   -1.8485    0.5025    0.0000 N   0  0  0  0  0  0  0  0  0
   -2.6554    0.3310    0.0000 C   0  0  0  0  0  0  0  0  0
   -3.2075    0.9441    0.0000 O   0  0  0  0  0  0  0  0  0
    0.0806    0.5025    0.0000 C   0  0  0  0  0  0  0  0  0
    0.8876    0.3310    0.0000 C   0  0  0  0  0  0  0  0  0
    1.1425   -0.4537    0.0000 C   0  0  0  0  0  0  0  0  0
    0.5905   -1.0667    0.0000 C   0  0  0  0  0  0  0  0  0
  1  2  1  0  0  0  0
  1  3  1  0  0  0  0
  3  4  4  0  0  0  0
  3  8  4  0  0  0  0
  4  5  4  0  0  0  0
  5  6  4  0  0  0  0
  6  7  4  0  0  0  0
  7  8  4  0  0  0  0
  8  9  1  0  0  0  0
  9 10  1  0  0  0  0
  9 14  1  0  0  0  0
 10 11  1  0  0  0  0
 11 12  1  0  0  0  0
 12 13  1  0  0  0  0
 12 15  1  0  0  0  0
 13 14  1  0  0  0  0
 15 16  1  0  0  0  0
 16 17  1  0  0  0  0
 17 18  1  0  0  0  0
 18 19  1  0  0  0  0
 18 27  1  0  0  0  0
 19 20  2  0  0  0  0
 19 21  1  0  0  0  0
 21 22  4  0  0  0  0
 21 25  4  0  0  0  0
 22 23  4  0  0  0  0
 23 24  4  0  0  0  0
 23 32  4  0  0  0  0
 24 25  4  0  0  0  0
 24 29  4  0  0  0  0
 25 26  1  0  0  0  0
 26 27  1  0  0  0  0
 27 28  2  0  0  0  0
 29 30  4  0  0  0  0
 30 31  4  0  0  0  0
 31 32  4  0  0  0  0
M  STY  1   1 DAT
M  SAL   1  1  22
M  SDT   1 MRV_IMPLICIT_H                                        
M  SDD   1     0.0000    0.0000    DR    ALL  0       0  
M  SED   1 IMPL_H1
M  END
>  <Name_Molregno>
83473

>  <Alpha-2A>
7.26

>  <Alpha-2B>
7.26

>  <Alpha-2C>
7.26

>  <Beta-2>
5.93

$$$$
83492
  Marvin  02231216192D 0   1.00000     0.00000     0

 33 37  0  0  0  0  0  0  0  0999 V2000
   -7.2572   -1.6890    0.0000 O   0  0  0  0  0  0  0  0  0
   -7.5121   -2.4737    0.0000 C   0  0  0  0  0  0  0  0  0
   -7.8092   -1.0759    0.0000 C   0  0  0  0  0  0  0  0  0
   -8.6162   -1.2475    0.0000 C   0  0  0  0  0  0  0  0  0
   -9.1682   -0.6344    0.0000 C   0  0  0  0  0  0  0  0  0
   -8.9133    0.1502    0.0000 C   0  0  0  0  0  0  0  0  0
   -8.1063    0.3218    0.0000 C   0  0  0  0  0  0  0  0  0
   -7.5543   -0.2913    0.0000 C   0  0  0  0  0  0  0  0  0
   -6.7473   -0.1198    0.0000 N   0  0  0  0  0  0  0  0  0
   -6.4924    0.6648    0.0000 C   0  0  0  0  0  0  0  0  0
   -5.6854    0.8364    0.0000 C   0  0  0  0  0  0  0  0  0
   -5.1334    0.2233    0.0000 N   0  0  0  0  0  0  0  0  0
   -5.3883   -0.5614    0.0000 C   0  0  0  0  0  0  0  0  0
   -6.1953   -0.7329    0.0000 C   0  0  0  0  0  0  0  0  0
   -4.3264    0.3948    0.0000 C   0  0  0  0  0  0  0  0  0
   -3.7744   -0.2183    0.0000 C   0  0  0  0  0  0  0  0  0
   -2.9674   -0.0468    0.0000 N   0  0  0  0  0  0  0  0  0
   -2.4154   -0.6599    0.0000 C   0  0  0  0  0  0  0  0  0
   -2.6703   -1.4445    0.0000 O   0  0  0  0  0  0  0  0  0
   -1.6084   -0.4883    0.0000 C   0  0  0  0  0  0  0  0  0
   -0.9409   -0.9733    0.0000 N   0  0  0  0  0  0  0  0  0
   -0.2735   -0.4883    0.0000 C   0  0  0  0  0  0  0  0  0
   -0.5284    0.2963    0.0000 C   0  0  0  0  0  0  0  0  0
   -1.3534    0.2963    0.0000 C   0  0  0  0  0  0  0  0  0
   -1.9055    0.9094    0.0000 N   0  0  0  0  0  0  0  0  0
   -1.6505    1.6940    0.0000 C   0  0  0  0  0  0  0  0  0
   -2.7125    0.7378    0.0000 C   0  0  0  0  0  0  0  0  0
   -3.2645    1.3509    0.0000 O   0  0  0  0  0  0  0  0  0
    0.0236    0.9094    0.0000 C   0  0  0  0  0  0  0  0  0
    0.8306    0.7378    0.0000 C   0  0  0  0  0  0  0  0  0
    1.0855   -0.0468    0.0000 C   0  0  0  0  0  0  0  0  0
    0.5335   -0.6599    0.0000 C   0  0  0  0  0  0  0  0  0
   -0.9409   -1.7983    0.0000 C   0  0  0  0  0  0  0  0  0
  1  2  1  0  0  0  0
  1  3  1  0  0  0  0
  3  4  4  0  0  0  0
  3  8  4  0  0  0  0
  4  5  4  0  0  0  0
  5  6  4  0  0  0  0
  6  7  4  0  0  0  0
  7  8  4  0  0  0  0
  8  9  1  0  0  0  0
  9 10  1  0  0  0  0
  9 14  1  0  0  0  0
 10 11  1  0  0  0  0
 11 12  1  0  0  0  0
 12 13  1  0  0  0  0
 12 15  1  0  0  0  0
 13 14  1  0  0  0  0
 15 16  1  0  0  0  0
 16 17  1  0  0  0  0
 17 18  1  0  0  0  0
 17 27  1  0  0  0  0
 18 19  2  0  0  0  0
 18 20  1  0  0  0  0
 20 21  4  0  0  0  0
 20 24  4  0  0  0  0
 21 22  4  0  0  0  0
 21 33  1  0  0  0  0
 22 23  4  0  0  0  0
 22 32  4  0  0  0  0
 23 24  4  0  0  0  0
 23 29  4  0  0  0  0
 24 25  1  0  0  0  0
 25 26  1  0  0  0  0
 25 27  1  0  0  0  0
 27 28  2  0  0  0  0
 29 30  4  0  0  0  0
 30 31  4  0  0  0  0
 31 32  4  0  0  0  0
M  END
>  <Name_Molregno>
83492

>  <Alpha-2A>
5.65

>  <Alpha-2B>
5.65

>  <Alpha-2C>
5.65

>  <Beta-2>
4

$$$$
83493
  Marvin  02231216192D 0   1.00000     0.00000     0

 30 34  0  0  0  0  0  0  0  0999 V2000
   -0.1347   -0.1949    0.0000 Cl  0  0  0  0  0  0  0  0  0
    0.6722   -0.0233    0.0000 C   0  0  0  0  0  0  0  0  0
    0.9272    0.7613    0.0000 C   0  0  0  0  0  0  0  0  0
    1.7341    0.9328    0.0000 C   0  0  0  0  0  0  0  0  0
    2.2862    0.3197    0.0000 C   0  0  0  0  0  0  0  0  0
    3.0931    0.4912    0.0000 N   0  0  0  0  0  0  0  0  0
    3.3481    1.2759    0.0000 C   0  0  0  0  0  0  0  0  0
    4.1551    1.4474    0.0000 C   0  0  0  0  0  0  0  0  0
    4.7071    0.8343    0.0000 N   0  0  0  0  0  0  0  0  0
    4.4521    0.0497    0.0000 C   0  0  0  0  0  0  0  0  0
    3.6452   -0.1219    0.0000 C   0  0  0  0  0  0  0  0  0
    5.5141    1.0058    0.0000 C   0  0  0  0  0  0  0  0  0
    6.0661    0.3927    0.0000 C   0  0  0  0  0  0  0  0  0
    6.8731    0.5642    0.0000 N   0  0  0  0  0  0  0  0  0
    7.4251   -0.0488    0.0000 C   0  0  0  0  0  0  0  0  0
    7.1702   -0.8335    0.0000 O   0  0  0  0  0  0  0  0  0
    8.2321    0.1227    0.0000 C   0  0  0  0  0  0  0  0  0
    8.8995   -0.3622    0.0000 N   0  0  0  0  0  0  0  0  0
    9.5669    0.1227    0.0000 C   0  0  0  0  0  0  0  0  0
    9.3120    0.9073    0.0000 C   0  0  0  0  0  0  0  0  0
    8.4870    0.9073    0.0000 C   0  0  0  0  0  0  0  0  0
    7.9350    1.5204    0.0000 N   0  0  0  0  0  0  0  0  0
    7.1280    1.3489    0.0000 C   0  0  0  0  0  0  0  0  0
    6.5760    1.9620    0.0000 O   0  0  0  0  0  0  0  0  0
    9.8640    1.5204    0.0000 C   0  0  0  0  0  0  0  0  0
   10.6710    1.3489    0.0000 C   0  0  0  0  0  0  0  0  0
   10.9260    0.5642    0.0000 C   0  0  0  0  0  0  0  0  0
   10.3739   -0.0488    0.0000 C   0  0  0  0  0  0  0  0  0
    2.0312   -0.4649    0.0000 C   0  0  0  0  0  0  0  0  0
    1.2243   -0.6364    0.0000 C   0  0  0  0  0  0  0  0  0
  1  2  1  0  0  0  0
  2  3  4  0  0  0  0
  2 30  4  0  0  0  0
  3  4  4  0  0  0  0
  4  5  4  0  0  0  0
  5  6  1  0  0  0  0
  5 29  4  0  0  0  0
  6  7  1  0  0  0  0
  6 11  1  0  0  0  0
  7  8  1  0  0  0  0
  8  9  1  0  0  0  0
  9 10  1  0  0  0  0
  9 12  1  0  0  0  0
 10 11  1  0  0  0  0
 12 13  1  0  0  0  0
 13 14  1  0  0  0  0
 14 15  1  0  0  0  0
 14 23  1  0  0  0  0
 15 16  2  0  0  0  0
 15 17  1  0  0  0  0
 17 18  4  0  0  0  0
 17 21  4  0  0  0  0
 18 19  4  0  0  0  0
 19 20  4  0  0  0  0
 19 28  4  0  0  0  0
 20 21  4  0  0  0  0
 20 25  4  0  0  0  0
 21 22  1  0  0  0  0
 22 23  1  0  0  0  0
 23 24  2  0  0  0  0
 25 26  4  0  0  0  0
 26 27  4  0  0  0  0
 27 28  4  0  0  0  0
 29 30  4  0  0  0  0
M  STY  1   1 DAT
M  SAL   1  1  18
M  SDT   1 MRV_IMPLICIT_H                                        
M  SDD   1     0.0000    0.0000    DR    ALL  0       0  
M  SED   1 IMPL_H1
M  END
>  <Name_Molregno>
83493

>  <Alpha-2A>
4

>  <Alpha-2B>
4

>  <Alpha-2C>
4

>  <Beta-2>
4

$$$$
88815
  Marvin  02231216192D 0   1.00000     0.00000     0

 14 15  0  0  1  0  0  0  0  0999 V2000
   -3.2072   -0.1654    0.0000 S   0  0  0  0  0  0  0  0  0
   -2.4226   -0.4204    0.0000 C   0  0  0  0  0  0  0  0  0
   -1.7081   -0.0079    0.0000 C   0  0  0  0  0  0  0  0  0
   -0.9937   -0.4204    0.0000 C   0  0  0  0  0  0  0  0  0
   -0.2792   -0.0079    0.0000 N   0  0  0  0  0  0  0  0  0
    0.4353   -0.4204    0.0000 C   0  0  0  0  0  0  0  0  0
    1.1498   -0.0079    0.0000 C   0  0  0  0  0  0  0  0  0
    1.8642   -0.4204    0.0000 C   0  0  0  0  0  0  0  0  0
   -0.9937   -1.2454    0.0000 C   0  0  0  0  0  0  0  0  0
   -1.7081   -1.6579    0.0000 C   0  0  0  0  0  0  0  0  0
   -2.4226   -1.2454    0.0000 C   0  0  0  0  0  0  0  0  0
   -3.2072   -1.5003    0.0000 N   0  0  0  0  0  0  0  0  0
   -3.6921   -0.8329    0.0000 C   0  0  0  0  0  0  0  0  0
   -4.5171   -0.8329    0.0000 N   0  0  0  0  0  0  0  0  0
  1  2  4  0  0  0  0
  1 13  4  0  0  0  0
  2  3  1  0  0  0  0
  2 11  4  0  0  0  0
  3  4  1  0  0  0  0
  4  5  1  0  0  0  0
  4  9  1  0  0  0  0
  5  6  1  0  0  0  0
  6  7  1  0  0  0  0
  7  8  1  0  0  0  0
  9 10  1  0  0  0  0
 10 11  1  0  0  0  0
 11 12  4  0  0  0  0
 12 13  4  0  0  0  0
 13 14  1  0  0  0  0
M  END
>  <Name_Molregno>
88815

>  <5-HT1A>
5.67

>  <5-HT1B>
5.26

>  <5-HT1D>
5.39

>  <5-HT1E>
5

>  <5-HT2A>
5

>  <5-HT2C>
5

>  <5-HT3>
5

>  <5-HT5>
5

>  <5-HT6>
5

>  <5-HT7>
5.93

>  <Alpha-1A>
5

>  <Alpha-1B>
5

>  <Alpha-2A>
6.44

>  <Alpha-2B>
6.68

>  <Alpha-2C>
6.14

>  <Beta-1>
5

>  <Beta-2>
5

>  <DOPAMINE D1>
5

>  <DOPAMINE D2>
6.55

>  <DOPAMINE D3>
8.51

>  <DOPAMINE D4>
7.4

>  <DOPAMINE D5>
5

>  <Dopamine transporter>
5

>  <HISTAMINE H1>
5

>  <HISTAMINE H2>
5.57

>  <HISTAMINE H4>
5

>  <Muscarinic acetylcholine receptor M1>
5

>  <Muscarinic acetylcholine receptor M2>
5

>  <Muscarinic acetylcholine receptor M3>
5

>  <Muscarinic acetylcholine receptor M4>
5

>  <Muscarinic acetylcholine receptor M5>
5

>  <Norepinephrine transporter>
5

>  <Serotonin transporter>
5

$$$$
93648
  Marvin  02231216192D 0   1.00000     0.00000     0

 14 15  0  0  1  0  0  0  0  0999 V2000
   -0.0661    0.0030    0.0000 O   0  5  0  0  0  0  0  0  0
    0.6484   -0.4095    0.0000 N   0  3  0  0  0  0  0  0  0
    0.6484   -1.2345    0.0000 O   0  5  0  0  0  0  0  0  0
    1.3629    0.0030    0.0000 C   0  0  0  0  0  0  0  0  0
    2.0774   -0.4095    0.0000 C   0  0  0  0  0  0  0  0  0
    2.7918    0.0030    0.0000 C   0  0  0  0  0  0  0  0  0
    2.7918    0.8280    0.0000 C   0  0  0  0  0  0  0  0  0
    3.5063    1.2405    0.0000 C   0  0  0  0  0  0  0  0  0
    4.2208    0.8280    0.0000 C   0  0  0  0  0  0  0  0  0
    4.2208    0.0030    0.0000 N   0  0  0  0  0  0  0  0  0
    3.5063   -0.4095    0.0000 C   0  0  0  0  0  0  0  0  0
    4.9352    1.2405    0.0000 C   0  0  0  0  0  0  0  0  0
    2.0774    1.2405    0.0000 C   0  0  0  0  0  0  0  0  0
    1.3629    0.8280    0.0000 C   0  0  0  0  0  0  0  0  0
  1  2  1  0  0  0  0
  2  3  1  0  0  0  0
  2  4  1  0  0  0  0
  4  5  4  0  0  0  0
  4 14  4  0  0  0  0
  5  6  4  0  0  0  0
  6  7  4  0  0  0  0
  6 11  1  0  0  0  0
  7  8  1  0  0  0  0
  7 13  4  0  0  0  0
  8  9  1  0  0  0  0
  9 10  1  0  0  0  0
  9 12  1  0  0  0  0
 10 11  1  0  0  0  0
 13 14  4  0  0  0  0
M  CHG  3   1  -1   2   1   3  -1
M  END
>  <Name_Molregno>
93648

>  <Alpha-2A>
5.32

$$$$
94435
  Marvin  02231216192D 0   1.00000     0.00000     0

 15 16  0  0  1  0  0  0  0  0999 V2000
    0.5882   -1.1650    0.0000 O   0  0  0  0  0  0  0  0  0
    0.5882   -0.3400    0.0000 C   0  0  0  0  0  0  0  0  0
    1.3026    0.0725    0.0000 C   0  0  0  0  0  0  0  0  0
    1.3026    0.8975    0.0000 N   0  0  0  0  0  0  0  0  0
    2.0171    1.3100    0.0000 C   0  0  0  0  0  0  0  0  0
    2.7316    0.8975    0.0000 C   0  0  0  0  0  0  0  0  0
    3.4461    1.3100    0.0000 C   0  0  0  0  0  0  0  0  0
    4.1605    0.8975    0.0000 C   0  0  0  0  0  0  0  0  0
    4.8750    1.3100    0.0000 N   0  3  0  0  0  0  0  0  0
    4.8750    2.1350    0.0000 O   0  5  0  0  0  0  0  0  0
    5.5895    0.8975    0.0000 O   0  5  0  0  0  0  0  0  0
    4.1605    0.0725    0.0000 C   0  0  0  0  0  0  0  0  0
    3.4461   -0.3400    0.0000 C   0  0  0  0  0  0  0  0  0
    2.7316    0.0725    0.0000 C   0  0  0  0  0  0  0  0  0
    2.0171   -0.3400    0.0000 C   0  0  0  0  0  0  0  0  0
  1  2  1  0  0  0  0
  2  3  1  0  0  0  0
  3  4  1  0  0  0  0
  3 15  1  0  0  0  0
  4  5  1  0  0  0  0
  5  6  1  0  0  0  0
  6  7  4  0  0  0  0
  6 14  4  0  0  0  0
  7  8  4  0  0  0  0
  8  9  1  0  0  0  0
  8 12  4  0  0  0  0
  9 10  1  0  0  0  0
  9 11  1  0  0  0  0
 12 13  4  0  0  0  0
 13 14  4  0  0  0  0
 14 15  1  0  0  0  0
M  CHG  3   9   1  10  -1  11  -1
M  END
>  <Name_Molregno>
94435

>  <Alpha-2A>
5.41

$$$$
114780
  Marvin  02231216192D 0   1.00000     0.00000     0

 21 24  0  0  1  0  0  0  0  0999 V2000
   -1.5970   -1.1544    0.0000 Br  0  0  0  0  0  0  0  0  0
   -2.4220   -1.1544    0.0000 C   0  0  0  0  0  0  0  0  0
   -2.8345   -1.8688    0.0000 C   0  0  0  0  0  0  0  0  0
   -2.4220   -2.5833    0.0000 N   0  0  0  0  0  0  0  0  0
   -2.8345   -3.2978    0.0000 C   0  0  0  0  0  0  0  0  0
   -3.6595   -3.2978    0.0000 C   0  0  0  0  0  0  0  0  0
   -4.0720   -2.5833    0.0000 N   0  0  0  0  0  0  0  0  0
   -3.6595   -1.8688    0.0000 C   0  0  0  0  0  0  0  0  0
   -4.0720   -1.1544    0.0000 C   0  0  0  0  0  0  0  0  0
   -3.6595   -0.4399    0.0000 C   0  0  0  0  0  0  0  0  0
   -2.8345   -0.4399    0.0000 C   0  0  0  0  0  0  0  0  0
   -2.4220    0.2746    0.0000 N   0  0  0  0  0  0  0  0  0
   -1.5970    0.2746    0.0000 C   0  0  0  0  0  0  0  0  0
   -1.1121   -0.3929    0.0000 N   0  0  0  0  0  0  0  0  0
   -0.3275   -0.1379    0.0000 C   0  0  0  0  0  0  0  0  0
   -0.3275    0.6871    0.0000 C   0  0  0  0  0  0  0  0  0
   -1.1121    0.9420    0.0000 N   0  0  0  0  0  0  0  0  0
    0.3870    1.0996    0.0000 C   0  0  0  0  0  0  0  0  0
    1.1014    0.6871    0.0000 C   0  0  0  0  0  0  0  0  0
    1.1014   -0.1379    0.0000 C   0  0  0  0  0  0  0  0  0
    0.3870   -0.5504    0.0000 C   0  0  0  0  0  0  0  0  0
  1  2  1  0  0  0  0
  2  3  4  0  0  0  0
  2 11  4  0  0  0  0
  3  4  4  0  0  0  0
  3  8  4  0  0  0  0
  4  5  4  0  0  0  0
  5  6  4  0  0  0  0
  6  7  4  0  0  0  0
  7  8  4  0  0  0  0
  8  9  4  0  0  0  0
  9 10  4  0  0  0  0
 10 11  4  0  0  0  0
 11 12  1  0  0  0  0
 12 13  1  0  0  0  0
 13 14  1  0  0  0  0
 13 17  2  0  0  0  0
 14 15  1  0  0  0  0
 15 16  1  0  0  0  0
 15 21  1  0  0  0  0
 16 17  1  0  0  0  0
 16 18  1  0  0  0  0
 18 19  1  0  0  0  0
 19 20  1  0  0  0  0
 20 21  1  0  0  0  0
M  END
>  <Name_Molregno>
114780

>  <Alpha-1A>
4.85

>  <Alpha-1B>
3.98

>  <Alpha-2A>
4.83

>  <Alpha-2B>
4.74

>  <Alpha-2C>
4.94

$$$$
114810
  Marvin  02231216192D 0   1.00000     0.00000     0

 18 19  0  0  0  0  0  0  0  0999 V2000
    1.8709   -1.9497    0.0000 N   0  0  0  0  0  0  0  0  0
    1.6160   -2.7344    0.0000 C   0  0  0  0  0  0  0  0  0
    0.7910   -2.7344    0.0000 C   0  0  0  0  0  0  0  0  0
    0.5360   -1.9497    0.0000 N   0  0  0  0  0  0  0  0  0
    1.2035   -1.4648    0.0000 C   0  0  0  0  0  0  0  0  0
    1.2035   -0.6398    0.0000 C   0  0  0  0  0  0  0  0  0
    1.9179   -0.2273    0.0000 C   0  0  0  0  0  0  0  0  0
    1.9179    0.5977    0.0000 C   0  0  0  0  0  0  0  0  0
    2.6324    1.0102    0.0000 C   0  0  0  0  0  0  0  0  0
    3.3469    0.5977    0.0000 C   0  0  0  0  0  0  0  0  0
    3.3469   -0.2273    0.0000 C   0  0  0  0  0  0  0  0  0
    2.6324   -0.6398    0.0000 C   0  0  0  0  0  0  0  0  0
    2.6324   -1.4648    0.0000 C   0  0  0  0  0  0  0  0  0
    4.0613    1.0102    0.0000 C   0  0  0  0  0  0  0  0  0
    4.7758    1.4227    0.0000 C   0  0  0  0  0  0  0  0  0
    4.4738    0.2957    0.0000 C   0  0  0  0  0  0  0  0  0
    3.6488    1.7246    0.0000 C   0  0  0  0  0  0  0  0  0
    1.2035    1.0102    0.0000 C   0  0  0  0  0  0  0  0  0
  1  2  1  0  0  0  0
  1  5  1  0  0  0  0
  2  3  1  0  0  0  0
  3  4  1  0  0  0  0
  4  5  2  0  0  0  0
  5  6  1  0  0  0  0
  6  7  1  0  0  0  0
  7  8  4  0  0  0  0
  7 12  4  0  0  0  0
  8  9  4  0  0  0  0
  8 18  1  0  0  0  0
  9 10  4  0  0  0  0
 10 11  4  0  0  0  0
 10 14  1  0  0  0  0
 11 12  4  0  0  0  0
 12 13  1  0  0  0  0
 14 15  1  0  0  0  0
 14 16  1  0  0  0  0
 14 17  1  0  0  0  0
M  END
>  <Name_Molregno>
114810

>  <5-HT1B>
7.89

>  <5-HT1D>
9.15

>  <Alpha-1A>
7.04

>  <Alpha-2A>
7.82

>  <Alpha-2B>
5.98

>  <Alpha-2C>
6.89

$$$$
114822
  Marvin  02231216192D 0   1.00000     0.00000     0

 18 20  0  0  0  0  0  0  0  0999 V2000
   -0.2200    0.1010    0.0000 Br  0  0  0  0  0  0  0  0  0
   -0.2200   -0.7240    0.0000 C   0  0  0  0  0  0  0  0  0
    0.4945   -1.1365    0.0000 C   0  0  0  0  0  0  0  0  0
    1.2089   -0.7240    0.0000 N   0  0  0  0  0  0  0  0  0
    1.9234   -1.1365    0.0000 C   0  0  0  0  0  0  0  0  0
    1.9234   -1.9615    0.0000 C   0  0  0  0  0  0  0  0  0
    1.2089   -2.3740    0.0000 N   0  0  0  0  0  0  0  0  0
    0.4945   -1.9615    0.0000 C   0  0  0  0  0  0  0  0  0
   -0.2200   -2.3740    0.0000 C   0  0  0  0  0  0  0  0  0
   -0.9345   -1.9615    0.0000 C   0  0  0  0  0  0  0  0  0
   -0.9345   -1.1365    0.0000 C   0  0  0  0  0  0  0  0  0
   -1.6490   -0.7240    0.0000 N   0  0  0  0  0  0  0  0  0
   -2.3634   -1.1365    0.0000 C   0  0  0  0  0  0  0  0  0
   -2.4497   -1.9570    0.0000 N   0  0  0  0  0  0  0  0  0
   -3.2566   -2.1285    0.0000 C   0  0  0  0  0  0  0  0  0
   -3.6691   -1.4140    0.0000 C   0  0  0  0  0  0  0  0  0
   -3.1171   -0.8009    0.0000 N   0  0  0  0  0  0  0  0  0
    2.6379   -2.3740    0.0000 C   0  0  0  0  0  0  0  0  0
  1  2  1  0  0  0  0
  2  3  4  0  0  0  0
  2 11  4  0  0  0  0
  3  4  4  0  0  0  0
  3  8  4  0  0  0  0
  4  5  4  0  0  0  0
  5  6  4  0  0  0  0
  6  7  4  0  0  0  0
  6 18  1  0  0  0  0
  7  8  4  0  0  0  0
  8  9  4  0  0  0  0
  9 10  4  0  0  0  0
 10 11  4  0  0  0  0
 11 12  1  0  0  0  0
 12 13  1  0  0  0  0
 13 14  1  0  0  0  0
 13 17  2  0  0  0  0
 14 15  1  0  0  0  0
 15 16  1  0  0  0  0
 16 17  1  0  0  0  0
M  END
>  <Name_Molregno>
114822

>  <Alpha-1A>
4

>  <Alpha-1B>
4

>  <Alpha-2A>
7.13

>  <Alpha-2B>
6.49

>  <Alpha-2C>
6.19

$$$$
115364
  Marvin  02231216192D 0   1.00000     0.00000     0

 17 19  0  0  0  0  0  0  0  0999 V2000
   -0.2386   -0.6719    0.0000 Br  0  0  0  0  0  0  0  0  0
   -0.2386   -1.4969    0.0000 C   0  0  0  0  0  0  0  0  0
    0.4759   -1.9094    0.0000 C   0  0  0  0  0  0  0  0  0
    1.1904   -1.4969    0.0000 N   0  0  0  0  0  0  0  0  0
    1.9048   -1.9094    0.0000 C   0  0  0  0  0  0  0  0  0
    1.9048   -2.7344    0.0000 C   0  0  0  0  0  0  0  0  0
    1.1904   -3.1469    0.0000 N   0  0  0  0  0  0  0  0  0
    0.4759   -2.7344    0.0000 C   0  0  0  0  0  0  0  0  0
   -0.2386   -3.1469    0.0000 C   0  0  0  0  0  0  0  0  0
   -0.9530   -2.7344    0.0000 C   0  0  0  0  0  0  0  0  0
   -0.9530   -1.9094    0.0000 C   0  0  0  0  0  0  0  0  0
   -1.6675   -1.4969    0.0000 N   0  0  0  0  0  0  0  0  0
   -1.6675   -0.6719    0.0000 C   0  0  0  0  0  0  0  0  0
   -2.3350   -0.1870    0.0000 N   0  0  0  0  0  0  0  0  0
   -2.0800    0.5976    0.0000 C   0  0  0  0  0  0  0  0  0
   -1.2550    0.5976    0.0000 C   0  0  0  0  0  0  0  0  0
   -1.0001   -0.1870    0.0000 N   0  0  0  0  0  0  0  0  0
  1  2  1  0  0  0  0
  2  3  4  0  0  0  0
  2 11  4  0  0  0  0
  3  4  4  0  0  0  0
  3  8  4  0  0  0  0
  4  5  4  0  0  0  0
  5  6  4  0  0  0  0
  6  7  4  0  0  0  0
  7  8  4  0  0  0  0
  8  9  4  0  0  0  0
  9 10  4  0  0  0  0
 10 11  4  0  0  0  0
 11 12  1  0  0  0  0
 12 13  1  0  0  0  0
 13 14  1  0  0  0  0
 13 17  2  0  0  0  0
 14 15  1  0  0  0  0
 15 16  1  0  0  0  0
 16 17  1  0  0  0  0
M  END
>  <Name_Molregno>
115364

>  <Alpha-1A>
5.74

>  <Alpha-1B>
5.52

>  <Alpha-2A>
7.9

>  <Alpha-2B>
6.93

>  <Alpha-2C>
6.71

$$$$
115365
  Marvin  02231216192D 0   1.00000     0.00000     0

 18 20  0  0  1  0  0  0  0  0999 V2000
    0.0660   -0.9243    0.0000 Br  0  0  0  0  0  0  0  0  0
    0.0660   -1.7493    0.0000 C   0  0  0  0  0  0  0  0  0
    0.7805   -2.1618    0.0000 C   0  0  0  0  0  0  0  0  0
    1.4950   -1.7493    0.0000 N   0  0  0  0  0  0  0  0  0
    2.2095   -2.1618    0.0000 C   0  0  0  0  0  0  0  0  0
    2.2095   -2.9868    0.0000 C   0  0  0  0  0  0  0  0  0
    1.4950   -3.3993    0.0000 N   0  0  0  0  0  0  0  0  0
    0.7805   -2.9868    0.0000 C   0  0  0  0  0  0  0  0  0
    0.0660   -3.3993    0.0000 C   0  0  0  0  0  0  0  0  0
   -0.6484   -2.9868    0.0000 C   0  0  0  0  0  0  0  0  0
   -0.6484   -2.1618    0.0000 C   0  0  0  0  0  0  0  0  0
   -1.3629   -1.7493    0.0000 N   0  0  0  0  0  0  0  0  0
   -1.3629   -0.9243    0.0000 C   0  0  0  0  0  0  0  0  0
   -2.0303   -0.4394    0.0000 N   0  0  0  0  0  0  0  0  0
   -1.7754    0.3452    0.0000 C   0  0  0  0  0  0  0  0  0
   -0.9504    0.3452    0.0000 C   0  0  0  0  0  0  0  0  0
   -0.6955   -0.4394    0.0000 N   0  0  0  0  0  0  0  0  0
   -2.2603    1.0126    0.0000 C   0  0  0  0  0  0  0  0  0
  1  2  1  0  0  0  0
  2  3  4  0  0  0  0
  2 11  4  0  0  0  0
  3  4  4  0  0  0  0
  3  8  4  0  0  0  0
  4  5  4  0  0  0  0
  5  6  4  0  0  0  0
  6  7  4  0  0  0  0
  7  8  4  0  0  0  0
  8  9  4  0  0  0  0
  9 10  4  0  0  0  0
 10 11  4  0  0  0  0
 11 12  1  0  0  0  0
 12 13  1  0  0  0  0
 13 14  1  0  0  0  0
 13 17  2  0  0  0  0
 14 15  1  0  0  0  0
 15 16  1  0  0  0  0
 15 18  1  0  0  0  0
 16 17  1  0  0  0  0
M  END
>  <Name_Molregno>
115365

>  <Alpha-1A>
4

>  <Alpha-1B>
4

>  <Alpha-2A>
5.42

>  <Alpha-2B>
5.49

>  <Alpha-2C>
6.19

$$$$
115370
  Marvin  02231216192D 0   1.00000     0.00000     0

 17 19  0  0  0  0  0  0  0  0999 V2000
   -0.2386   -0.6719    0.0000 Br  0  0  0  0  0  0  0  0  0
   -0.2386   -1.4969    0.0000 C   0  0  0  0  0  0  0  0  0
    0.4759   -1.9094    0.0000 C   0  0  0  0  0  0  0  0  0
    1.1904   -1.4969    0.0000 N   0  0  0  0  0  0  0  0  0
    1.9048   -1.9094    0.0000 C   0  0  0  0  0  0  0  0  0
    1.9048   -2.7344    0.0000 C   0  0  0  0  0  0  0  0  0
    1.1904   -3.1469    0.0000 N   0  0  0  0  0  0  0  0  0
    0.4759   -2.7344    0.0000 C   0  0  0  0  0  0  0  0  0
   -0.2386   -3.1469    0.0000 C   0  0  0  0  0  0  0  0  0
   -0.9530   -2.7344    0.0000 C   0  0  0  0  0  0  0  0  0
   -0.9530   -1.9094    0.0000 C   0  0  0  0  0  0  0  0  0
   -1.6675   -1.4969    0.0000 N   0  0  0  0  0  0  0  0  0
   -1.6675   -0.6719    0.0000 C   0  0  0  0  0  0  0  0  0
   -2.3350   -0.1870    0.0000 S   0  0  0  0  0  0  0  0  0
   -2.0800    0.5976    0.0000 C   0  0  0  0  0  0  0  0  0
   -1.2550    0.5976    0.0000 C   0  0  0  0  0  0  0  0  0
   -1.0001   -0.1870    0.0000 N   0  0  0  0  0  0  0  0  0
  1  2  1  0  0  0  0
  2  3  4  0  0  0  0
  2 11  4  0  0  0  0
  3  4  4  0  0  0  0
  3  8  4  0  0  0  0
  4  5  4  0  0  0  0
  5  6  4  0  0  0  0
  6  7  4  0  0  0  0
  7  8  4  0  0  0  0
  8  9  4  0  0  0  0
  9 10  4  0  0  0  0
 10 11  4  0  0  0  0
 11 12  1  0  0  0  0
 12 13  1  0  0  0  0
 13 14  1  0  0  0  0
 13 17  2  0  0  0  0
 14 15  1  0  0  0  0
 15 16  1  0  0  0  0
 16 17  1  0  0  0  0
M  END
>  <Name_Molregno>
115370

>  <Alpha-1A>
4.67

>  <Alpha-1B>
4.22

>  <Alpha-2A>
4.99

>  <Alpha-2B>
4.76

>  <Alpha-2C>
4.55

$$$$
115505
  Marvin  02231216192D 0   1.00000     0.00000     0

 17 19  0  0  0  0  0  0  0  0999 V2000
   -0.2386   -0.6719    0.0000 I   0  0  0  0  0  0  0  0  0
   -0.2386   -1.4969    0.0000 C   0  0  0  0  0  0  0  0  0
    0.4759   -1.9094    0.0000 C   0  0  0  0  0  0  0  0  0
    1.1904   -1.4969    0.0000 N   0  0  0  0  0  0  0  0  0
    1.9048   -1.9094    0.0000 C   0  0  0  0  0  0  0  0  0
    1.9048   -2.7344    0.0000 C   0  0  0  0  0  0  0  0  0
    1.1904   -3.1469    0.0000 N   0  0  0  0  0  0  0  0  0
    0.4759   -2.7344    0.0000 C   0  0  0  0  0  0  0  0  0
   -0.2386   -3.1469    0.0000 C   0  0  0  0  0  0  0  0  0
   -0.9530   -2.7344    0.0000 C   0  0  0  0  0  0  0  0  0
   -0.9530   -1.9094    0.0000 C   0  0  0  0  0  0  0  0  0
   -1.6675   -1.4969    0.0000 N   0  0  0  0  0  0  0  0  0
   -1.6675   -0.6719    0.0000 C   0  0  0  0  0  0  0  0  0
   -2.3350   -0.1870    0.0000 N   0  0  0  0  0  0  0  0  0
   -2.0800    0.5976    0.0000 C   0  0  0  0  0  0  0  0  0
   -1.2550    0.5976    0.0000 C   0  0  0  0  0  0  0  0  0
   -1.0001   -0.1870    0.0000 N   0  0  0  0  0  0  0  0  0
  1  2  1  0  0  0  0
  2  3  4  0  0  0  0
  2 11  4  0  0  0  0
  3  4  4  0  0  0  0
  3  8  4  0  0  0  0
  4  5  4  0  0  0  0
  5  6  4  0  0  0  0
  6  7  4  0  0  0  0
  7  8  4  0  0  0  0
  8  9  4  0  0  0  0
  9 10  4  0  0  0  0
 10 11  4  0  0  0  0
 11 12  1  0  0  0  0
 12 13  1  0  0  0  0
 13 14  1  0  0  0  0
 13 17  2  0  0  0  0
 14 15  1  0  0  0  0
 15 16  1  0  0  0  0
 16 17  1  0  0  0  0
M  END
>  <Name_Molregno>
115505

>  <Alpha-1A>
6.01

>  <Alpha-1B>
5.72

>  <Alpha-2A>
8.17

>  <Alpha-2B>
7.37

>  <Alpha-2C>
6.39

$$$$
115579
  Marvin  02231216192D 0   1.00000     0.00000     0

 17 19  0  0  0  0  0  0  0  0999 V2000
   -0.2386   -0.6719    0.0000 Cl  0  0  0  0  0  0  0  0  0
   -0.2386   -1.4969    0.0000 C   0  0  0  0  0  0  0  0  0
    0.4759   -1.9094    0.0000 C   0  0  0  0  0  0  0  0  0
    1.1904   -1.4969    0.0000 N   0  0  0  0  0  0  0  0  0
    1.9048   -1.9094    0.0000 C   0  0  0  0  0  0  0  0  0
    1.9048   -2.7344    0.0000 C   0  0  0  0  0  0  0  0  0
    1.1904   -3.1469    0.0000 N   0  0  0  0  0  0  0  0  0
    0.4759   -2.7344    0.0000 C   0  0  0  0  0  0  0  0  0
   -0.2386   -3.1469    0.0000 C   0  0  0  0  0  0  0  0  0
   -0.9530   -2.7344    0.0000 C   0  0  0  0  0  0  0  0  0
   -0.9530   -1.9094    0.0000 C   0  0  0  0  0  0  0  0  0
   -1.6675   -1.4969    0.0000 N   0  0  0  0  0  0  0  0  0
   -1.6675   -0.6719    0.0000 C   0  0  0  0  0  0  0  0  0
   -2.3350   -0.1870    0.0000 N   0  0  0  0  0  0  0  0  0
   -2.0800    0.5976    0.0000 C   0  0  0  0  0  0  0  0  0
   -1.2550    0.5976    0.0000 C   0  0  0  0  0  0  0  0  0
   -1.0001   -0.1870    0.0000 N   0  0  0  0  0  0  0  0  0
  1  2  1  0  0  0  0
  2  3  4  0  0  0  0
  2 11  4  0  0  0  0
  3  4  4  0  0  0  0
  3  8  4  0  0  0  0
  4  5  4  0  0  0  0
  5  6  4  0  0  0  0
  6  7  4  0  0  0  0
  7  8  4  0  0  0  0
  8  9  4  0  0  0  0
  9 10  4  0  0  0  0
 10 11  4  0  0  0  0
 11 12  1  0  0  0  0
 12 13  1  0  0  0  0
 13 14  1  0  0  0  0
 13 17  2  0  0  0  0
 14 15  1  0  0  0  0
 15 16  1  0  0  0  0
 16 17  1  0  0  0  0
M  END
>  <Name_Molregno>
115579

>  <Alpha-1A>
5.29

>  <Alpha-1B>
4.98

>  <Alpha-2A>
7.43

>  <Alpha-2B>
7.16

>  <Alpha-2C>
6.71

$$$$
115674
  Marvin  02231216192D 0   1.00000     0.00000     0

 17 19  0  0  0  0  0  0  0  0999 V2000
   -0.2386   -0.6719    0.0000 Br  0  0  0  0  0  0  0  0  0
   -0.2386   -1.4969    0.0000 C   0  0  0  0  0  0  0  0  0
    0.4759   -1.9094    0.0000 C   0  0  0  0  0  0  0  0  0
    1.1904   -1.4969    0.0000 N   0  0  0  0  0  0  0  0  0
    1.9048   -1.9094    0.0000 C   0  0  0  0  0  0  0  0  0
    1.9048   -2.7344    0.0000 C   0  0  0  0  0  0  0  0  0
    1.1904   -3.1469    0.0000 N   0  0  0  0  0  0  0  0  0
    0.4759   -2.7344    0.0000 C   0  0  0  0  0  0  0  0  0
   -0.2386   -3.1469    0.0000 C   0  0  0  0  0  0  0  0  0
   -0.9530   -2.7344    0.0000 C   0  0  0  0  0  0  0  0  0
   -0.9530   -1.9094    0.0000 C   0  0  0  0  0  0  0  0  0
   -1.6675   -1.4969    0.0000 N   0  0  0  0  0  0  0  0  0
   -1.6675   -0.6719    0.0000 C   0  0  0  0  0  0  0  0  0
   -2.3350   -0.1870    0.0000 O   0  0  0  0  0  0  0  0  0
   -2.0800    0.5976    0.0000 C   0  0  0  0  0  0  0  0  0
   -1.2550    0.5976    0.0000 C   0  0  0  0  0  0  0  0  0
   -1.0001   -0.1870    0.0000 N   0  0  0  0  0  0  0  0  0
  1  2  1  0  0  0  0
  2  3  4  0  0  0  0
  2 11  4  0  0  0  0
  3  4  4  0  0  0  0
  3  8  4  0  0  0  0
  4  5  4  0  0  0  0
  5  6  4  0  0  0  0
  6  7  4  0  0  0  0
  7  8  4  0  0  0  0
  8  9  4  0  0  0  0
  9 10  4  0  0  0  0
 10 11  4  0  0  0  0
 11 12  1  0  0  0  0
 12 13  1  0  0  0  0
 13 14  1  0  0  0  0
 13 17  2  0  0  0  0
 14 15  1  0  0  0  0
 15 16  1  0  0  0  0
 16 17  1  0  0  0  0
M  END
>  <Name_Molregno>
115674

>  <Alpha-1A>
4.04

>  <Alpha-1B>
3.85

>  <Alpha-2A>
4.58

>  <Alpha-2B>
4.07

>  <Alpha-2C>
4.31

$$$$
118306
  Marvin  02231216192D 0   1.00000     0.00000     0

 17 19  0  0  0  0  0  0  0  0999 V2000
    1.6725   -1.9116    0.0000 N   0  0  0  0  0  0  0  0  0
    1.4175   -2.6962    0.0000 C   0  0  0  0  0  0  0  0  0
    0.5925   -2.6962    0.0000 C   0  0  0  0  0  0  0  0  0
    0.3376   -1.9116    0.0000 N   0  0  0  0  0  0  0  0  0
    1.0050   -1.4267    0.0000 C   0  0  0  0  0  0  0  0  0
    1.0050   -0.6017    0.0000 N   0  0  0  0  0  0  0  0  0
    1.7195   -0.1892    0.0000 C   0  0  0  0  0  0  0  0  0
    1.7195    0.6358    0.0000 C   0  0  0  0  0  0  0  0  0
    2.4340    1.0483    0.0000 C   0  0  0  0  0  0  0  0  0
    3.1485    0.6358    0.0000 C   0  0  0  0  0  0  0  0  0
    3.8629    1.0483    0.0000 N   0  0  0  0  0  0  0  0  0
    4.5774    0.6358    0.0000 C   0  0  0  0  0  0  0  0  0
    4.5774   -0.1892    0.0000 C   0  0  0  0  0  0  0  0  0
    3.8629   -0.6017    0.0000 N   0  0  0  0  0  0  0  0  0
    3.1485   -0.1892    0.0000 C   0  0  0  0  0  0  0  0  0
    2.4340   -0.6017    0.0000 C   0  0  0  0  0  0  0  0  0
    2.4340   -1.4267    0.0000 C   0  0  0  0  0  0  0  0  0
  1  2  4  0  0  0  0
  1  5  4  0  0  0  0
  2  3  4  0  0  0  0
  3  4  4  0  0  0  0
  4  5  4  0  0  0  0
  5  6  1  0  0  0  0
  6  7  1  0  0  0  0
  7  8  4  0  0  0  0
  7 16  4  0  0  0  0
  8  9  4  0  0  0  0
  9 10  4  0  0  0  0
 10 11  4  0  0  0  0
 10 15  4  0  0  0  0
 11 12  4  0  0  0  0
 12 13  4  0  0  0  0
 13 14  4  0  0  0  0
 14 15  4  0  0  0  0
 15 16  4  0  0  0  0
 16 17  1  0  0  0  0
M  STY  1   1 DAT
M  SAL   1  1   1
M  SDT   1 MRV_IMPLICIT_H                                        
M  SDD   1     0.0000    0.0000    DR    ALL  0       0  
M  SED   1 IMPL_H1
M  END
>  <Name_Molregno>
118306

>  <Alpha-1A>
4.55

>  <Alpha-1B>
4.55

>  <Alpha-2A>
7.51

>  <Alpha-2C>
6.47

$$$$
118307
  Marvin  02231216192D 0   1.00000     0.00000     0

 15 17  0  0  0  0  0  0  0  0999 V2000
    3.1006    0.0054    0.0000 N   0  0  0  0  0  0  0  0  0
    3.9076    0.1769    0.0000 C   0  0  0  0  0  0  0  0  0
    4.3201   -0.5376    0.0000 C   0  0  0  0  0  0  0  0  0
    3.7681   -1.1507    0.0000 N   0  0  0  0  0  0  0  0  0
    3.0144   -0.8151    0.0000 C   0  0  0  0  0  0  0  0  0
    2.2999   -1.2276    0.0000 N   0  0  0  0  0  0  0  0  0
    1.5855   -0.8151    0.0000 C   0  0  0  0  0  0  0  0  0
    0.8710   -1.2276    0.0000 C   0  0  0  0  0  0  0  0  0
    0.1565   -0.8151    0.0000 C   0  0  0  0  0  0  0  0  0
   -0.6281   -1.0700    0.0000 N   0  0  0  0  0  0  0  0  0
   -1.1130   -0.4026    0.0000 C   0  0  0  0  0  0  0  0  0
   -0.6281    0.2648    0.0000 N   0  0  0  0  0  0  0  0  0
    0.1565    0.0099    0.0000 C   0  0  0  0  0  0  0  0  0
    0.8710    0.4224    0.0000 C   0  0  0  0  0  0  0  0  0
    1.5855    0.0099    0.0000 C   0  0  0  0  0  0  0  0  0
  1  2  4  0  0  0  0
  1  5  4  0  0  0  0
  2  3  4  0  0  0  0
  3  4  4  0  0  0  0
  4  5  4  0  0  0  0
  5  6  1  0  0  0  0
  6  7  1  0  0  0  0
  7  8  4  0  0  0  0
  7 15  4  0  0  0  0
  8  9  4  0  0  0  0
  9 10  4  0  0  0  0
  9 13  4  0  0  0  0
 10 11  4  0  0  0  0
 11 12  4  0  0  0  0
 12 13  4  0  0  0  0
 13 14  4  0  0  0  0
 14 15  4  0  0  0  0
M  STY  2   1 DAT   2 DAT
M  SAL   1  1   1
M  SDT   1 MRV_IMPLICIT_H                                        
M  SDD   1     0.0000    0.0000    DR    ALL  0       0  
M  SED   1 IMPL_H1
M  SAL   2  1  12
M  SDT   2 MRV_IMPLICIT_H                                        
M  SDD   2     0.0000    0.0000    DR    ALL  0       0  
M  SED   2 IMPL_H1
M  END
>  <Name_Molregno>
118307

>  <Alpha-1A>
4.62

>  <Alpha-1B>
4.62

>  <Alpha-2A>
7.12

>  <Alpha-2C>
6.4

$$$$
118382
  Marvin  02231216192D 0   1.00000     0.00000     0

 17 19  0  0  0  0  0  0  0  0999 V2000
   -0.2472   -0.7115    0.0000 Br  0  0  0  0  0  0  0  0  0
   -0.2472   -1.5365    0.0000 C   0  0  0  0  0  0  0  0  0
    0.4673   -1.9490    0.0000 C   0  0  0  0  0  0  0  0  0
    1.1818   -1.5365    0.0000 N   0  0  0  0  0  0  0  0  0
    1.8962   -1.9490    0.0000 C   0  0  0  0  0  0  0  0  0
    1.8962   -2.7740    0.0000 C   0  0  0  0  0  0  0  0  0
    1.1818   -3.1865    0.0000 N   0  0  0  0  0  0  0  0  0
    0.4673   -2.7740    0.0000 C   0  0  0  0  0  0  0  0  0
   -0.2472   -3.1865    0.0000 C   0  0  0  0  0  0  0  0  0
   -0.9616   -2.7740    0.0000 C   0  0  0  0  0  0  0  0  0
   -0.9616   -1.9490    0.0000 C   0  0  0  0  0  0  0  0  0
   -1.6761   -1.5365    0.0000 N   0  0  0  0  0  0  0  0  0
   -1.6761   -0.7115    0.0000 C   0  0  0  0  0  0  0  0  0
   -2.3436   -0.2266    0.0000 N   0  0  0  0  0  0  0  0  0
   -2.0886    0.5580    0.0000 C   0  0  0  0  0  0  0  0  0
   -1.2636    0.5580    0.0000 C   0  0  0  0  0  0  0  0  0
   -1.0087   -0.2266    0.0000 N   0  0  0  0  0  0  0  0  0
  1  2  1  0  0  0  0
  2  3  4  0  0  0  0
  2 11  4  0  0  0  0
  3  4  4  0  0  0  0
  3  8  4  0  0  0  0
  4  5  4  0  0  0  0
  5  6  4  0  0  0  0
  6  7  4  0  0  0  0
  7  8  4  0  0  0  0
  8  9  4  0  0  0  0
  9 10  4  0  0  0  0
 10 11  4  0  0  0  0
 11 12  1  0  0  0  0
 12 13  1  0  0  0  0
 13 14  4  0  0  0  0
 13 17  4  0  0  0  0
 14 15  4  0  0  0  0
 15 16  4  0  0  0  0
 16 17  4  0  0  0  0
M  STY  1   1 DAT
M  SAL   1  1  14
M  SDT   1 MRV_IMPLICIT_H                                        
M  SDD   1     0.0000    0.0000    DR    ALL  0       0  
M  SED   1 IMPL_H1
M  END
>  <Name_Molregno>
118382

>  <Alpha-1A>
4

>  <Alpha-1B>
4

>  <Alpha-2A>
6.29

>  <Alpha-2C>
5

$$$$
119095
  Marvin  02231216192D 0   1.00000     0.00000     0

 13 14  0  0  0  0  0  0  0  0999 V2000
   -2.3845   -1.2262    0.0000 Br  0  0  0  0  0  0  0  0  0
   -2.3845   -0.4012    0.0000 C   0  0  0  0  0  0  0  0  0
   -3.0990    0.0113    0.0000 C   0  0  0  0  0  0  0  0  0
   -3.0990    0.8363    0.0000 C   0  0  0  0  0  0  0  0  0
   -2.3845    1.2488    0.0000 C   0  0  0  0  0  0  0  0  0
   -1.6700    0.8363    0.0000 C   0  0  0  0  0  0  0  0  0
   -1.6700    0.0113    0.0000 C   0  0  0  0  0  0  0  0  0
   -0.9555   -0.4012    0.0000 N   0  0  0  0  0  0  0  0  0
   -0.9555   -1.2262    0.0000 C   0  0  0  0  0  0  0  0  0
   -0.2881   -1.7112    0.0000 N   0  0  0  0  0  0  0  0  0
   -0.5430   -2.4958    0.0000 C   0  0  0  0  0  0  0  0  0
   -1.3680   -2.4958    0.0000 C   0  0  0  0  0  0  0  0  0
   -1.6230   -1.7112    0.0000 N   0  0  0  0  0  0  0  0  0
  1  2  1  0  0  0  0
  2  3  4  0  0  0  0
  2  7  4  0  0  0  0
  3  4  4  0  0  0  0
  4  5  4  0  0  0  0
  5  6  4  0  0  0  0
  6  7  4  0  0  0  0
  7  8  1  0  0  0  0
  8  9  1  0  0  0  0
  9 10  4  0  0  0  0
  9 13  4  0  0  0  0
 10 11  4  0  0  0  0
 11 12  4  0  0  0  0
 12 13  4  0  0  0  0
M  STY  1   1 DAT
M  SAL   1  1  10
M  SDT   1 MRV_IMPLICIT_H                                        
M  SDD   1     0.0000    0.0000    DR    ALL  0       0  
M  SED   1 IMPL_H1
M  END
>  <Name_Molregno>
119095

>  <Alpha-1A>
4.96

>  <Alpha-1B>
4.96

>  <Alpha-2A>
6.68

>  <Alpha-2C>
5.62

$$$$
119223
  Marvin  02231216192D 0   1.00000     0.00000     0

 14 15  0  0  0  0  0  0  0  0999 V2000
   -2.4917   -1.4203    0.0000 Cl  0  0  0  0  0  0  0  0  0
   -2.4917   -0.5953    0.0000 C   0  0  0  0  0  0  0  0  0
   -3.2061   -0.1828    0.0000 C   0  0  0  0  0  0  0  0  0
   -3.2061    0.6422    0.0000 C   0  0  0  0  0  0  0  0  0
   -2.4917    1.0547    0.0000 C   0  0  0  0  0  0  0  0  0
   -1.7772    0.6422    0.0000 C   0  0  0  0  0  0  0  0  0
   -1.0627    1.0547    0.0000 Cl  0  0  0  0  0  0  0  0  0
   -1.7772   -0.1828    0.0000 C   0  0  0  0  0  0  0  0  0
   -1.0627   -0.5953    0.0000 N   0  0  0  0  0  0  0  0  0
   -1.0627   -1.4203    0.0000 C   0  0  0  0  0  0  0  0  0
   -0.3953   -1.9052    0.0000 N   0  0  0  0  0  0  0  0  0
   -0.6502   -2.6898    0.0000 C   0  0  0  0  0  0  0  0  0
   -1.4752   -2.6898    0.0000 C   0  0  0  0  0  0  0  0  0
   -1.7302   -1.9052    0.0000 N   0  0  0  0  0  0  0  0  0
  1  2  1  0  0  0  0
  2  3  4  0  0  0  0
  2  8  4  0  0  0  0
  3  4  4  0  0  0  0
  4  5  4  0  0  0  0
  5  6  4  0  0  0  0
  6  7  1  0  0  0  0
  6  8  4  0  0  0  0
  8  9  1  0  0  0  0
  9 10  1  0  0  0  0
 10 11  4  0  0  0  0
 10 14  4  0  0  0  0
 11 12  4  0  0  0  0
 12 13  4  0  0  0  0
 13 14  4  0  0  0  0
M  STY  1   1 DAT
M  SAL   1  1  11
M  SDT   1 MRV_IMPLICIT_H                                        
M  SDD   1     0.0000    0.0000    DR    ALL  0       0  
M  SED   1 IMPL_H1
M  END
>  <Name_Molregno>
119223

>  <Alpha-1A>
5.22

>  <Alpha-1B>
5.22

>  <Alpha-2A>
7.02

>  <Alpha-2C>
5.96

$$$$
119340
  Marvin  02231216192D 0   1.00000     0.00000     0

 17 19  0  0  0  0  0  0  0  0999 V2000
    0.5729    1.7513    0.0000 O   0  0  0  0  0  0  0  0  0
   -0.1415    1.3388    0.0000 C   0  0  0  0  0  0  0  0  0
   -0.1415    0.5138    0.0000 C   0  0  0  0  0  0  0  0  0
    0.5729    0.1013    0.0000 N   0  0  0  0  0  0  0  0  0
    1.2874    0.5138    0.0000 C   0  0  0  0  0  0  0  0  0
    1.2874    1.3388    0.0000 C   0  0  0  0  0  0  0  0  0
    2.0019    1.7513    0.0000 C   0  0  0  0  0  0  0  0  0
    2.7164    1.3388    0.0000 C   0  0  0  0  0  0  0  0  0
    2.7164    0.5138    0.0000 C   0  0  0  0  0  0  0  0  0
    3.4308    0.1013    0.0000 N   0  0  0  0  0  0  0  0  0
    3.4308   -0.7237    0.0000 C   0  0  0  0  0  0  0  0  0
    4.0983   -1.2086    0.0000 N   0  0  0  0  0  0  0  0  0
    3.8433   -1.9932    0.0000 C   0  0  0  0  0  0  0  0  0
    3.0183   -1.9932    0.0000 C   0  0  0  0  0  0  0  0  0
    2.7634   -1.2086    0.0000 N   0  0  0  0  0  0  0  0  0
    2.0019    0.1013    0.0000 C   0  0  0  0  0  0  0  0  0
    2.0019   -0.7237    0.0000 C   0  0  0  0  0  0  0  0  0
  1  2  1  0  0  0  0
  1  6  1  0  0  0  0
  2  3  1  0  0  0  0
  3  4  1  0  0  0  0
  4  5  1  0  0  0  0
  5  6  4  0  0  0  0
  5 16  4  0  0  0  0
  6  7  4  0  0  0  0
  7  8  4  0  0  0  0
  8  9  4  0  0  0  0
  9 10  1  0  0  0  0
  9 16  4  0  0  0  0
 10 11  1  0  0  0  0
 11 12  4  0  0  0  0
 11 15  4  0  0  0  0
 12 13  4  0  0  0  0
 13 14  4  0  0  0  0
 14 15  4  0  0  0  0
 16 17  1  0  0  0  0
M  STY  1   1 DAT
M  SAL   1  1  12
M  SDT   1 MRV_IMPLICIT_H                                        
M  SDD   1     0.0000    0.0000    DR    ALL  0       0  
M  SED   1 IMPL_H1
M  END
>  <Name_Molregno>
119340

>  <Alpha-1A>
4.8

>  <Alpha-1B>
4.8

>  <Alpha-2A>
8.22

>  <Alpha-2C>
6.64

$$$$
119342
  Marvin  02231216192D 0   1.00000     0.00000     0

 19 20  0  0  0  0  0  0  0  0999 V2000
    0.5235    2.1643    0.0000 O   0  0  0  0  0  0  0  0  0
   -0.1910    1.7518    0.0000 C   0  0  0  0  0  0  0  0  0
    1.2379    1.7518    0.0000 C   0  0  0  0  0  0  0  0  0
    1.9524    2.1643    0.0000 C   0  0  0  0  0  0  0  0  0
    2.6669    1.7518    0.0000 C   0  0  0  0  0  0  0  0  0
    3.3813    2.1643    0.0000 C   0  0  0  0  0  0  0  0  0
    2.6669    0.9268    0.0000 C   0  0  0  0  0  0  0  0  0
    3.3813    0.5143    0.0000 N   0  0  0  0  0  0  0  0  0
    3.3813   -0.3107    0.0000 C   0  0  0  0  0  0  0  0  0
    4.0488   -0.7956    0.0000 N   0  0  0  0  0  0  0  0  0
    3.7938   -1.5802    0.0000 C   0  0  0  0  0  0  0  0  0
    2.9688   -1.5802    0.0000 C   0  0  0  0  0  0  0  0  0
    2.7139   -0.7956    0.0000 N   0  0  0  0  0  0  0  0  0
    1.9524    0.5143    0.0000 C   0  0  0  0  0  0  0  0  0
    1.2379    0.9268    0.0000 C   0  0  0  0  0  0  0  0  0
    0.5235    0.5143    0.0000 C   0  0  0  0  0  0  0  0  0
   -0.1910    0.1018    0.0000 C   0  0  0  0  0  0  0  0  0
    0.9360   -0.2002    0.0000 C   0  0  0  0  0  0  0  0  0
    0.1110    1.2288    0.0000 C   0  0  0  0  0  0  0  0  0
  1  2  1  0  0  0  0
  1  3  1  0  0  0  0
  3  4  4  0  0  0  0
  3 15  4  0  0  0  0
  4  5  4  0  0  0  0
  5  6  1  0  0  0  0
  5  7  4  0  0  0  0
  7  8  1  0  0  0  0
  7 14  4  0  0  0  0
  8  9  1  0  0  0  0
  9 10  4  0  0  0  0
  9 13  4  0  0  0  0
 10 11  4  0  0  0  0
 11 12  4  0  0  0  0
 12 13  4  0  0  0  0
 14 15  4  0  0  0  0
 15 16  1  0  0  0  0
 16 17  1  0  0  0  0
 16 18  1  0  0  0  0
 16 19  1  0  0  0  0
M  STY  1   1 DAT
M  SAL   1  1  10
M  SDT   1 MRV_IMPLICIT_H                                        
M  SDD   1     0.0000    0.0000    DR    ALL  0       0  
M  SED   1 IMPL_H1
M  END
>  <Name_Molregno>
119342

>  <Alpha-1A>
4.8

>  <Alpha-1B>
4.8

>  <Alpha-2A>
7.41

>  <Alpha-2C>
6.54

$$$$
119343
  Marvin  02231216192D 0   1.00000     0.00000     0

 20 21  0  0  0  0  0  0  0  0999 V2000
    0.9350    3.4975    0.0000 O   0  0  0  0  0  0  0  0  0
    0.2205    3.9100    0.0000 C   0  0  0  0  0  0  0  0  0
    0.9350    2.6725    0.0000 C   0  0  0  0  0  0  0  0  0
    1.6495    2.2600    0.0000 C   0  0  0  0  0  0  0  0  0
    2.3639    2.6725    0.0000 C   0  0  0  0  0  0  0  0  0
    1.6495    1.4350    0.0000 C   0  0  0  0  0  0  0  0  0
    2.3639    1.0225    0.0000 N   0  0  0  0  0  0  0  0  0
    2.3639    0.1975    0.0000 C   0  0  0  0  0  0  0  0  0
    3.0314   -0.2875    0.0000 N   0  0  0  0  0  0  0  0  0
    2.7764   -1.0721    0.0000 C   0  0  0  0  0  0  0  0  0
    1.9514   -1.0721    0.0000 C   0  0  0  0  0  0  0  0  0
    1.6965   -0.2875    0.0000 N   0  0  0  0  0  0  0  0  0
    0.9350    1.0225    0.0000 C   0  0  0  0  0  0  0  0  0
    0.2205    1.4350    0.0000 C   0  0  0  0  0  0  0  0  0
    0.2205    2.2600    0.0000 C   0  0  0  0  0  0  0  0  0
   -0.4940    2.6725    0.0000 C   0  0  0  0  0  0  0  0  0
   -1.2084    3.0850    0.0000 C   0  0  0  0  0  0  0  0  0
   -0.0815    3.3869    0.0000 C   0  0  0  0  0  0  0  0  0
   -0.9065    1.9580    0.0000 C   0  0  0  0  0  0  0  0  0
    0.9350    0.1975    0.0000 C   0  0  0  0  0  0  0  0  0
  1  2  1  0  0  0  0
  1  3  1  0  0  0  0
  3  4  4  0  0  0  0
  3 15  4  0  0  0  0
  4  5  1  0  0  0  0
  4  6  4  0  0  0  0
  6  7  1  0  0  0  0
  6 13  4  0  0  0  0
  7  8  1  0  0  0  0
  8  9  4  0  0  0  0
  8 12  4  0  0  0  0
  9 10  4  0  0  0  0
 10 11  4  0  0  0  0
 11 12  4  0  0  0  0
 13 14  4  0  0  0  0
 13 20  1  0  0  0  0
 14 15  4  0  0  0  0
 15 16  1  0  0  0  0
 16 17  1  0  0  0  0
 16 18  1  0  0  0  0
 16 19  1  0  0  0  0
M  STY  1   1 DAT
M  SAL   1  1   9
M  SDT   1 MRV_IMPLICIT_H                                        
M  SDD   1     0.0000    0.0000    DR    ALL  0       0  
M  SED   1 IMPL_H1
M  END
>  <Name_Molregno>
119343

>  <Alpha-1A>
5.38

>  <Alpha-1B>
5.38

>  <Alpha-2A>
8.31

>  <Alpha-2C>
7.06

$$$$
119344
  Marvin  02231216192D 0   1.00000     0.00000     0

 17 19  0  0  0  0  0  0  0  0999 V2000
   -0.2285    1.4943    0.0000 O   0  0  0  0  0  0  0  0  0
    0.4860    1.9068    0.0000 C   0  0  0  0  0  0  0  0  0
    0.4860    2.7318    0.0000 C   0  0  0  0  0  0  0  0  0
   -0.2285    3.1443    0.0000 O   0  0  0  0  0  0  0  0  0
   -0.9430    2.7318    0.0000 C   0  0  0  0  0  0  0  0  0
   -0.9430    1.9068    0.0000 C   0  0  0  0  0  0  0  0  0
    1.2005    3.1443    0.0000 C   0  0  0  0  0  0  0  0  0
    1.9149    2.7318    0.0000 C   0  0  0  0  0  0  0  0  0
    1.9149    1.9068    0.0000 C   0  0  0  0  0  0  0  0  0
    2.6294    1.4943    0.0000 N   0  0  0  0  0  0  0  0  0
    2.6294    0.6693    0.0000 C   0  0  0  0  0  0  0  0  0
    3.2968    0.1844    0.0000 N   0  0  0  0  0  0  0  0  0
    3.0419   -0.6002    0.0000 C   0  0  0  0  0  0  0  0  0
    2.2169   -0.6002    0.0000 C   0  0  0  0  0  0  0  0  0
    1.9620    0.1844    0.0000 N   0  0  0  0  0  0  0  0  0
    1.2005    1.4943    0.0000 C   0  0  0  0  0  0  0  0  0
    1.2005    0.6693    0.0000 C   0  0  0  0  0  0  0  0  0
  1  2  1  0  0  0  0
  1  6  1  0  0  0  0
  2  3  4  0  0  0  0
  2 16  4  0  0  0  0
  3  4  1  0  0  0  0
  3  7  4  0  0  0  0
  4  5  1  0  0  0  0
  5  6  1  0  0  0  0
  7  8  4  0  0  0  0
  8  9  4  0  0  0  0
  9 10  1  0  0  0  0
  9 16  4  0  0  0  0
 10 11  1  0  0  0  0
 11 12  4  0  0  0  0
 11 15  4  0  0  0  0
 12 13  4  0  0  0  0
 13 14  4  0  0  0  0
 14 15  4  0  0  0  0
 16 17  1  0  0  0  0
M  STY  1   1 DAT
M  SAL   1  1  12
M  SDT   1 MRV_IMPLICIT_H                                        
M  SDD   1     0.0000    0.0000    DR    ALL  0       0  
M  SED   1 IMPL_H1
M  END
>  <Name_Molregno>
119344

>  <Alpha-1A>
5.68

>  <Alpha-1B>
5.68

>  <Alpha-2A>
8.77

>  <Alpha-2C>
7.72

$$$$
119851
  Marvin  02231216192D 0   1.00000     0.00000     0

 15 16  0  0  0  0  0  0  0  0999 V2000
   -4.1684    1.8130    0.0000 O   0  0  0  0  0  0  0  0  0
   -4.8829    1.4005    0.0000 C   0  0  0  0  0  0  0  0  0
   -3.4539    1.4005    0.0000 C   0  0  0  0  0  0  0  0  0
   -2.7395    1.8130    0.0000 C   0  0  0  0  0  0  0  0  0
   -2.0250    1.4005    0.0000 C   0  0  0  0  0  0  0  0  0
   -1.3105    1.8130    0.0000 C   0  0  0  0  0  0  0  0  0
   -2.0250    0.5755    0.0000 C   0  0  0  0  0  0  0  0  0
   -1.3105    0.1630    0.0000 N   0  0  0  0  0  0  0  0  0
   -1.3105   -0.6620    0.0000 C   0  0  0  0  0  0  0  0  0
   -0.6431   -1.1469    0.0000 N   0  0  0  0  0  0  0  0  0
   -0.8980   -1.9315    0.0000 C   0  0  0  0  0  0  0  0  0
   -1.7230   -1.9315    0.0000 C   0  0  0  0  0  0  0  0  0
   -1.9780   -1.1469    0.0000 N   0  0  0  0  0  0  0  0  0
   -2.7395    0.1630    0.0000 C   0  0  0  0  0  0  0  0  0
   -3.4539    0.5755    0.0000 C   0  0  0  0  0  0  0  0  0
  1  2  1  0  0  0  0
  1  3  1  0  0  0  0
  3  4  4  0  0  0  0
  3 15  4  0  0  0  0
  4  5  4  0  0  0  0
  5  6  1  0  0  0  0
  5  7  4  0  0  0  0
  7  8  1  0  0  0  0
  7 14  4  0  0  0  0
  8  9  1  0  0  0  0
  9 10  4  0  0  0  0
  9 13  4  0  0  0  0
 10 11  4  0  0  0  0
 11 12  4  0  0  0  0
 12 13  4  0  0  0  0
 14 15  4  0  0  0  0
M  STY  1   1 DAT
M  SAL   1  1  10
M  SDT   1 MRV_IMPLICIT_H                                        
M  SDD   1     0.0000    0.0000    DR    ALL  0       0  
M  SED   1 IMPL_H1
M  END
>  <Name_Molregno>
119851

>  <Alpha-1A>
5.08

>  <Alpha-1B>
5.08

>  <Alpha-2A>
8

>  <Alpha-2C>
6.29

$$$$
119882
  Marvin  02231216192D 0   1.00000     0.00000     0

 16 18  0  0  0  0  0  0  0  0999 V2000
    0.0018   -0.9509    0.0000 N   0  0  0  0  0  0  0  0  0
   -0.8052   -1.1224    0.0000 C   0  0  0  0  0  0  0  0  0
   -1.2177   -0.4080    0.0000 C   0  0  0  0  0  0  0  0  0
   -0.6656    0.2051    0.0000 N   0  0  0  0  0  0  0  0  0
    0.0880   -0.1304    0.0000 C   0  0  0  0  0  0  0  0  0
    0.8025    0.2821    0.0000 N   0  0  0  0  0  0  0  0  0
    1.5170   -0.1304    0.0000 C   0  0  0  0  0  0  0  0  0
    2.2315    0.2821    0.0000 C   0  0  0  0  0  0  0  0  0
    2.9459   -0.1304    0.0000 C   0  0  0  0  0  0  0  0  0
    3.6604    0.2821    0.0000 N   0  0  0  0  0  0  0  0  0
    4.3749   -0.1304    0.0000 C   0  0  0  0  0  0  0  0  0
    4.3749   -0.9554    0.0000 C   0  0  0  0  0  0  0  0  0
    3.6604   -1.3679    0.0000 N   0  0  0  0  0  0  0  0  0
    2.9459   -0.9554    0.0000 C   0  0  0  0  0  0  0  0  0
    2.2315   -1.3679    0.0000 C   0  0  0  0  0  0  0  0  0
    1.5170   -0.9554    0.0000 C   0  0  0  0  0  0  0  0  0
  1  2  4  0  0  0  0
  1  5  4  0  0  0  0
  2  3  4  0  0  0  0
  3  4  4  0  0  0  0
  4  5  4  0  0  0  0
  5  6  1  0  0  0  0
  6  7  1  0  0  0  0
  7  8  4  0  0  0  0
  7 16  4  0  0  0  0
  8  9  4  0  0  0  0
  9 10  4  0  0  0  0
  9 14  4  0  0  0  0
 10 11  4  0  0  0  0
 11 12  4  0  0  0  0
 12 13  4  0  0  0  0
 13 14  4  0  0  0  0
 14 15  4  0  0  0  0
 15 16  4  0  0  0  0
M  STY  1   1 DAT
M  SAL   1  1   1
M  SDT   1 MRV_IMPLICIT_H                                        
M  SDD   1     0.0000    0.0000    DR    ALL  0       0  
M  SED   1 IMPL_H1
M  END
>  <Name_Molregno>
119882

>  <Alpha-1A>
4

>  <Alpha-1B>
4

>  <Alpha-2A>
5.51

>  <Alpha-2C>
5.06

$$$$
119917
  Marvin  02231216192D 0   1.00000     0.00000     0

 17 18  0  0  0  0  0  0  0  0999 V2000
    1.0216    3.5714    0.0000 O   0  0  0  0  0  0  0  0  0
    0.3071    3.9839    0.0000 C   0  0  0  0  0  0  0  0  0
    1.0216    2.7464    0.0000 C   0  0  0  0  0  0  0  0  0
    1.7361    2.3339    0.0000 C   0  0  0  0  0  0  0  0  0
    2.4505    2.7464    0.0000 C   0  0  0  0  0  0  0  0  0
    1.7361    1.5089    0.0000 C   0  0  0  0  0  0  0  0  0
    2.4505    1.0964    0.0000 N   0  0  0  0  0  0  0  0  0
    2.4505    0.2714    0.0000 C   0  0  0  0  0  0  0  0  0
    3.1180   -0.2135    0.0000 N   0  0  0  0  0  0  0  0  0
    2.8630   -0.9981    0.0000 C   0  0  0  0  0  0  0  0  0
    2.0380   -0.9981    0.0000 C   0  0  0  0  0  0  0  0  0
    1.7831   -0.2135    0.0000 N   0  0  0  0  0  0  0  0  0
    1.0216    1.0964    0.0000 C   0  0  0  0  0  0  0  0  0
    0.3071    1.5089    0.0000 C   0  0  0  0  0  0  0  0  0
    0.3071    2.3339    0.0000 C   0  0  0  0  0  0  0  0  0
   -0.4073    2.7464    0.0000 O   0  0  0  0  0  0  0  0  0
   -1.1218    2.3339    0.0000 C   0  0  0  0  0  0  0  0  0
  1  2  1  0  0  0  0
  1  3  1  0  0  0  0
  3  4  4  0  0  0  0
  3 15  4  0  0  0  0
  4  5  1  0  0  0  0
  4  6  4  0  0  0  0
  6  7  1  0  0  0  0
  6 13  4  0  0  0  0
  7  8  1  0  0  0  0
  8  9  4  0  0  0  0
  8 12  4  0  0  0  0
  9 10  4  0  0  0  0
 10 11  4  0  0  0  0
 11 12  4  0  0  0  0
 13 14  4  0  0  0  0
 14 15  4  0  0  0  0
 15 16  1  0  0  0  0
 16 17  1  0  0  0  0
M  STY  1   1 DAT
M  SAL   1  1   9
M  SDT   1 MRV_IMPLICIT_H                                        
M  SDD   1     0.0000    0.0000    DR    ALL  0       0  
M  SED   1 IMPL_H1
M  END
>  <Name_Molregno>
119917

>  <Alpha-1A>
5.18

>  <Alpha-1B>
5.18

>  <Alpha-2A>
6.89

>  <Alpha-2C>
5.82

$$$$
120674
  Marvin  02231216192D 0   1.00000     0.00000     0

 27 29  0  0  1  0  0  0  0  0999 V2000
    4.4208    6.3587    0.0000 F   0  0  0  0  0  0  0  0  0
    4.4208    5.5337    0.0000 C   0  0  0  0  0  0  0  0  0
    5.1353    5.1212    0.0000 C   0  0  0  0  0  0  0  0  0
    5.1353    4.2962    0.0000 C   0  0  0  0  0  0  0  0  0
    4.4208    3.8837    0.0000 C   0  0  0  0  0  0  0  0  0
    3.7063    4.2962    0.0000 C   0  0  0  0  0  0  0  0  0
    3.7063    5.1212    0.0000 C   0  0  0  0  0  0  0  0  0
    4.4208    3.0587    0.0000 C   0  0  0  0  0  0  0  0  0
    5.1353    2.6462    0.0000 C   0  0  0  0  0  0  0  0  0
    5.1353    1.8212    0.0000 N   0  0  0  0  0  0  0  0  0
    5.8497    1.4087    0.0000 C   0  0  0  0  0  0  0  0  0
    5.8497    0.5837    0.0000 C   0  0  0  0  0  0  0  0  0
    5.1353    0.1712    0.0000 C   0  0  0  0  0  0  0  0  0
    4.4208    0.5837    0.0000 C   0  0  0  0  0  0  0  0  0
    4.4208    1.4087    0.0000 C   0  0  0  0  0  0  0  0  0
    5.1353   -0.6538    0.0000 C   0  0  0  0  0  0  0  0  0
    4.4208   -1.0663    0.0000 O   0  0  0  0  0  0  0  0  0
    5.8497   -1.0663    0.0000 C   0  0  0  0  0  0  0  0  0
    6.5642   -0.6538    0.0000 C   0  0  0  0  0  0  0  0  0
    7.2787   -1.0663    0.0000 C   0  0  0  0  0  0  0  0  0
    7.2787   -1.8913    0.0000 C   0  0  0  0  0  0  0  0  0
    6.5642   -2.3038    0.0000 C   0  0  0  0  0  0  0  0  0
    6.5642   -3.1288    0.0000 O   0  0  0  0  0  0  0  0  0
    7.2787   -3.5413    0.0000 C   0  0  0  0  0  0  0  0  0
    5.8497   -1.8913    0.0000 C   0  0  0  0  0  0  0  0  0
    5.1353   -2.3038    0.0000 O   0  0  0  0  0  0  0  0  0
    5.1353   -3.1288    0.0000 C   0  0  0  0  0  0  0  0  0
  1  2  1  0  0  0  0
  2  3  4  0  0  0  0
  2  7  4  0  0  0  0
  3  4  4  0  0  0  0
  4  5  4  0  0  0  0
  5  6  4  0  0  0  0
  5  8  1  0  0  0  0
  6  7  4  0  0  0  0
  8  9  1  0  0  0  0
  9 10  1  0  0  0  0
 10 11  1  0  0  0  0
 10 15  1  0  0  0  0
 11 12  1  0  0  0  0
 12 13  1  0  0  0  0
 13 14  1  0  0  0  0
 13 16  1  0  0  0  0
 14 15  1  0  0  0  0
 16 17  1  0  0  0  0
 16 18  1  0  0  0  0
 18 19  4  0  0  0  0
 18 25  4  0  0  0  0
 19 20  4  0  0  0  0
 20 21  4  0  0  0  0
 21 22  4  0  0  0  0
 22 23  1  0  0  0  0
 22 25  4  0  0  0  0
 23 24  1  0  0  0  0
 25 26  1  0  0  0  0
 26 27  1  0  0  0  0
M  END
>  <Name_Molregno>
120674

>  <5-HT1A>
5

>  <5-HT1E>
5

>  <5-HT2A>
9.16

>  <5-HT2C>
7.37

>  <5-HT3>
5

>  <5-HT5>
5

>  <5-HT6>
5.46

>  <Alpha-1A>
6.41

>  <Alpha-1B>
6.37

>  <Alpha-2A>
5.72

>  <Alpha-2B>
6.57

>  <Alpha-2C>
5.84

>  <Beta-1>
5

>  <Beta-2>
5

>  <DOPAMINE D1>
5.67

>  <DOPAMINE D2>
5.23

>  <DOPAMINE D4>
5.42

>  <DOPAMINE D5>
5

>  <Dopamine transporter>
5

>  <HISTAMINE H1>
7.18

>  <HISTAMINE H4>
5

>  <Muscarinic acetylcholine receptor M1>
5

>  <Muscarinic acetylcholine receptor M2>
5

>  <Muscarinic acetylcholine receptor M3>
5

>  <Muscarinic acetylcholine receptor M4>
5

>  <Muscarinic acetylcholine receptor M5>
5

>  <Norepinephrine transporter>
5

>  <Serotonin transporter>
5

$$$$
148955
  Marvin  02231216192D 0   1.00000     0.00000     0

 16 18  0  0  1  0  0  0  0  0999 V2000
    6.0007   -1.6378    0.0000 F   0  0  0  0  0  0  0  0  0
    5.2862   -1.2253    0.0000 C   0  0  0  0  0  0  0  0  0
    4.5717   -1.6378    0.0000 C   0  0  0  0  0  0  0  0  0
    3.8572   -1.2253    0.0000 C   0  0  0  0  0  0  0  0  0
    3.0726   -1.4803    0.0000 C   0  0  0  0  0  0  0  0  0
    2.5877   -0.8128    0.0000 C   0  0  0  0  0  0  0  0  0
    3.0726   -0.1454    0.0000 C   0  0  0  0  0  0  0  0  0
    3.8572   -0.4003    0.0000 C   0  0  0  0  0  0  0  0  0
    4.5717    0.0122    0.0000 C   0  0  0  0  0  0  0  0  0
    5.2862   -0.4003    0.0000 C   0  0  0  0  0  0  0  0  0
    1.7627   -0.8128    0.0000 C   0  0  0  0  0  0  0  0  0
    1.3502   -0.0984    0.0000 C   0  0  0  0  0  0  0  0  0
    0.5297   -0.0121    0.0000 N   0  0  0  0  0  0  0  0  0
    0.3582    0.7948    0.0000 C   0  0  0  0  0  0  0  0  0
    1.0727    1.2073    0.0000 N   0  0  0  0  0  0  0  0  0
    1.6858    0.6553    0.0000 C   0  0  0  0  0  0  0  0  0
  1  2  1  0  0  0  0
  2  3  4  0  0  0  0
  2 10  4  0  0  0  0
  3  4  4  0  0  0  0
  4  5  1  0  0  0  0
  4  8  4  0  0  0  0
  5  6  1  0  0  0  0
  6  7  1  0  0  0  0
  6 11  1  0  0  0  0
  7  8  1  0  0  0  0
  8  9  4  0  0  0  0
  9 10  4  0  0  0  0
 11 12  1  0  0  0  0
 12 13  1  0  0  0  0
 12 16  1  0  0  0  0
 13 14  1  0  0  0  0
 14 15  2  0  0  0  0
 15 16  1  0  0  0  0
M  END
>  <Name_Molregno>
148955

>  <5-HT1A>
6.11

>  <5-HT2A>
6

>  <5-HT2C>
6

>  <5-HT7>
6

>  <Alpha-2A>
8.23

>  <Alpha-2B>
7.64

>  <Alpha-2C>
7.72

>  <HISTAMINE H1>
6

>  <Serotonin transporter>
7.11

$$$$
157426
  Marvin  02231216192D 0   1.00000     0.00000     0

 15 16  0  0  1  0  0  0  0  0999 V2000
    0.5882   -1.1650    0.0000 F   0  0  0  0  0  0  0  0  0
    0.5882   -0.3400    0.0000 C   0  0  0  0  0  0  0  0  0
    1.3026    0.0725    0.0000 C   0  0  0  0  0  0  0  0  0
    1.3026    0.8975    0.0000 N   0  0  0  0  0  0  0  0  0
    2.0171    1.3100    0.0000 C   0  0  0  0  0  0  0  0  0
    2.7316    0.8975    0.0000 C   0  0  0  0  0  0  0  0  0
    3.4461    1.3100    0.0000 C   0  0  0  0  0  0  0  0  0
    4.1605    0.8975    0.0000 C   0  0  0  0  0  0  0  0  0
    4.8750    1.3100    0.0000 N   0  3  0  0  0  0  0  0  0
    4.8750    2.1350    0.0000 O   0  5  0  0  0  0  0  0  0
    5.5895    0.8975    0.0000 O   0  5  0  0  0  0  0  0  0
    4.1605    0.0725    0.0000 C   0  0  0  0  0  0  0  0  0
    3.4461   -0.3400    0.0000 C   0  0  0  0  0  0  0  0  0
    2.7316    0.0725    0.0000 C   0  0  0  0  0  0  0  0  0
    2.0171   -0.3400    0.0000 C   0  0  0  0  0  0  0  0  0
  1  2  1  0  0  0  0
  2  3  1  0  0  0  0
  3  4  1  0  0  0  0
  3 15  1  0  0  0  0
  4  5  1  0  0  0  0
  5  6  1  0  0  0  0
  6  7  4  0  0  0  0
  6 14  4  0  0  0  0
  7  8  4  0  0  0  0
  8  9  1  0  0  0  0
  8 12  4  0  0  0  0
  9 10  1  0  0  0  0
  9 11  1  0  0  0  0
 12 13  4  0  0  0  0
 13 14  4  0  0  0  0
 14 15  1  0  0  0  0
M  CHG  3   9   1  10  -1  11  -1
M  END
>  <Name_Molregno>
157426

>  <Alpha-2A>
5.49

$$$$
157596
  Marvin  02231216192D 0   1.00000     0.00000     0

 49 53  0  0  1  0  0  0  0  0999 V2000
   -2.1210   -1.2388    0.0000 O   0  0  0  0  0  0  0  0  0
   -1.4066   -0.8263    0.0000 C   0  0  0  0  0  0  0  0  0
   -1.4066   -0.0013    0.0000 N   0  0  0  0  0  0  0  0  0
   -2.1210    0.4112    0.0000 C   0  0  0  0  0  0  0  0  0
   -2.1210    1.2362    0.0000 C   0  0  0  0  0  0  0  0  0
   -2.8355    1.6487    0.0000 C   0  0  0  0  0  0  0  0  0
   -2.8355    2.4737    0.0000 N   0  0  0  0  0  0  0  0  0
   -3.5500    2.8862    0.0000 C   0  0  0  0  0  0  0  0  0
   -3.5500    3.7112    0.0000 C   0  0  0  0  0  0  0  0  0
   -2.8355    4.1237    0.0000 C   0  0  0  0  0  0  0  0  0
   -2.1210    3.7112    0.0000 C   0  0  0  0  0  0  0  0  0
   -2.1210    2.8862    0.0000 C   0  0  0  0  0  0  0  0  0
   -3.4290    4.6968    0.0000 C   0  0  0  0  0  0  0  0  0
   -4.2220    4.4694    0.0000 C   0  0  0  0  0  0  0  0  0
   -4.8155    5.0425    0.0000 C   0  0  0  0  0  0  0  0  0
   -4.6159    5.8430    0.0000 C   0  0  0  0  0  0  0  0  0
   -3.8228    6.0704    0.0000 C   0  0  0  0  0  0  0  0  0
   -3.2294    5.4973    0.0000 C   0  0  0  0  0  0  0  0  0
   -2.4482    4.8521    0.0000 C   0  0  0  0  0  0  0  0  0
   -2.8854    5.5518    0.0000 C   0  0  0  0  0  0  0  0  0
   -2.4981    6.2802    0.0000 C   0  0  0  0  0  0  0  0  0
   -1.6736    6.3090    0.0000 C   0  0  0  0  0  0  0  0  0
   -1.2364    5.6094    0.0000 C   0  0  0  0  0  0  0  0  0
   -1.6237    4.8809    0.0000 C   0  0  0  0  0  0  0  0  0
   -0.6921   -1.2388    0.0000 C   0  0  0  0  0  0  0  0  0
   -0.6921   -2.0638    0.0000 C   0  0  0  0  0  0  0  0  0
    0.0224   -2.4763    0.0000 C   0  0  0  0  0  0  0  0  0
    0.0224   -3.3013    0.0000 C   0  0  0  0  0  0  0  0  0
   -0.6921   -3.7138    0.0000 O   0  0  0  0  0  0  0  0  0
    0.7368   -3.7138    0.0000 N   0  0  0  0  0  0  0  0  0
    0.7368   -4.5388    0.0000 C   0  0  0  0  0  0  0  0  0
    1.4513   -4.9513    0.0000 C   0  0  0  0  0  0  0  0  0
    0.7368   -2.0638    0.0000 C   0  0  0  0  0  0  0  0  0
    0.7368   -1.2388    0.0000 N   0  0  0  0  0  0  0  0  0
    0.0224   -0.8263    0.0000 C   0  0  0  0  0  0  0  0  0
    0.0224   -0.0013    0.0000 C   0  0  0  0  0  0  0  0  0
    0.7368    0.4112    0.0000 C   0  0  0  0  0  0  0  0  0
    0.7368    1.2362    0.0000 C   0  0  0  0  0  0  0  0  0
    1.4513   -2.4763    0.0000 C   0  0  0  0  0  0  0  0  0
    2.1658   -2.0638    0.0000 C   0  0  0  0  0  0  0  0  0
   -1.4066   -2.4763    0.0000 C   0  0  0  0  0  0  0  0  0
   -1.4066   -3.3013    0.0000 C   0  0  0  0  0  0  0  0  0
   -2.1210   -3.7138    0.0000 C   0  0  0  0  0  0  0  0  0
   -2.8355   -3.3013    0.0000 C   0  0  0  0  0  0  0  0  0
   -3.5500   -3.7138    0.0000 N   0  3  0  0  0  0  0  0  0
   -4.2645   -3.3013    0.0000 O   0  5  0  0  0  0  0  0  0
   -3.5500   -4.5388    0.0000 O   0  5  0  0  0  0  0  0  0
   -2.8355   -2.4763    0.0000 C   0  0  0  0  0  0  0  0  0
   -2.1210   -2.0638    0.0000 C   0  0  0  0  0  0  0  0  0
  1  2  2  0  0  0  0
  2  3  1  0  0  0  0
  2 25  1  0  0  0  0
  3  4  1  0  0  0  0
  4  5  1  0  0  0  0
  5  6  1  0  0  0  0
  6  7  1  0  0  0  0
  7  8  1  0  0  0  0
  7 12  1  0  0  0  0
  8  9  1  0  0  0  0
  9 10  1  0  0  0  0
 10 11  1  0  0  0  0
 10 13  1  0  0  0  0
 10 19  1  0  0  0  0
 11 12  1  0  0  0  0
 13 14  4  0  0  0  0
 13 18  4  0  0  0  0
 14 15  4  0  0  0  0
 15 16  4  0  0  0  0
 16 17  4  0  0  0  0
 17 18  4  0  0  0  0
 19 20  4  0  0  0  0
 19 24  4  0  0  0  0
 20 21  4  0  0  0  0
 21 22  4  0  0  0  0
 22 23  4  0  0  0  0
 23 24  4  0  0  0  0
 25 26  1  0  0  0  0
 25 35  2  0  0  0  0
 26 27  1  0  0  0  0
 26 41  1  0  0  0  0
 27 28  1  0  0  0  0
 27 33  2  0  0  0  0
 28 29  2  0  0  0  0
 28 30  1  0  0  0  0
 30 31  1  0  0  0  0
 31 32  1  0  0  0  0
 33 34  1  0  0  0  0
 33 39  1  0  0  0  0
 34 35  1  0  0  0  0
 35 36  1  0  0  0  0
 36 37  1  0  0  0  0
 37 38  1  0  0  0  0
 39 40  1  0  0  0  0
 41 42  4  0  0  0  0
 41 49  4  0  0  0  0
 42 43  4  0  0  0  0
 43 44  4  0  0  0  0
 44 45  1  0  0  0  0
 44 48  4  0  0  0  0
 45 46  1  0  0  0  0
 45 47  1  0  0  0  0
 48 49  4  0  0  0  0
M  CHG  3  45   1  46  -1  47  -1
M  END
>  <Name_Molregno>
157596

>  <Alpha-2A>
6.02

>  <Alpha-2B>
6.29

>  <Alpha-2C>
6.35

$$$$
157989
  Marvin  02231216192D 0   1.00000     0.00000     0

 51 55  0  0  1  0  0  0  0  0999 V2000
    6.8791    0.1481    0.0000 O   0  0  0  0  0  0  0  0  0
    6.1646   -0.2644    0.0000 C   0  0  0  0  0  0  0  0  0
    6.1646   -1.0894    0.0000 C   0  0  0  0  0  0  0  0  0
    6.8791   -1.5019    0.0000 N   0  0  0  0  0  0  0  0  0
    6.8791   -2.3269    0.0000 C   0  0  0  0  0  0  0  0  0
    7.5936   -2.7394    0.0000 C   0  0  0  0  0  0  0  0  0
    8.3080   -2.3269    0.0000 C   0  0  0  0  0  0  0  0  0
    6.1646   -2.7394    0.0000 C   0  0  0  0  0  0  0  0  0
    6.1646   -3.5644    0.0000 C   0  0  0  0  0  0  0  0  0
    5.4502   -3.9769    0.0000 O   0  0  0  0  0  0  0  0  0
    6.8791   -3.9769    0.0000 N   0  0  0  0  0  0  0  0  0
    6.8791   -4.8019    0.0000 C   0  0  0  0  0  0  0  0  0
    7.5936   -5.2144    0.0000 C   0  0  0  0  0  0  0  0  0
    5.4502   -2.3269    0.0000 C   0  0  0  0  0  0  0  0  0
    5.4502   -1.5019    0.0000 C   0  0  0  0  0  0  0  0  0
    4.7357   -1.0894    0.0000 C   0  0  0  0  0  0  0  0  0
    4.7357   -0.2644    0.0000 O   0  0  0  0  0  0  0  0  0
    4.0212   -1.5019    0.0000 N   0  0  0  0  0  0  0  0  0
    3.3067   -1.0894    0.0000 C   0  0  0  0  0  0  0  0  0
    3.3067   -0.2644    0.0000 C   0  0  0  0  0  0  0  0  0
    2.5923    0.1481    0.0000 C   0  0  0  0  0  0  0  0  0
    2.5923    0.9731    0.0000 N   0  0  0  0  0  0  0  0  0
    1.8778    1.3856    0.0000 C   0  0  0  0  0  0  0  0  0
    1.8778    2.2106    0.0000 C   0  0  0  0  0  0  0  0  0
    2.5923    2.6231    0.0000 C   0  0  0  0  0  0  0  0  0
    3.3067    2.2106    0.0000 C   0  0  0  0  0  0  0  0  0
    3.3067    1.3856    0.0000 C   0  0  0  0  0  0  0  0  0
    1.9988    3.1962    0.0000 C   0  0  0  0  0  0  0  0  0
    1.2058    2.9688    0.0000 C   0  0  0  0  0  0  0  0  0
    0.6123    3.5419    0.0000 C   0  0  0  0  0  0  0  0  0
    0.8119    4.3424    0.0000 C   0  0  0  0  0  0  0  0  0
    1.6050    4.5698    0.0000 C   0  0  0  0  0  0  0  0  0
    2.1984    3.9967    0.0000 C   0  0  0  0  0  0  0  0  0
    2.9796    3.3516    0.0000 C   0  0  0  0  0  0  0  0  0
    2.5424    4.0512    0.0000 C   0  0  0  0  0  0  0  0  0
    2.9297    4.7796    0.0000 C   0  0  0  0  0  0  0  0  0
    3.7542    4.8084    0.0000 C   0  0  0  0  0  0  0  0  0
    4.1914    4.1088    0.0000 C   0  0  0  0  0  0  0  0  0
    3.8041    3.3804    0.0000 C   0  0  0  0  0  0  0  0  0
    4.7357   -2.7394    0.0000 C   0  0  0  0  0  0  0  0  0
    4.7357   -3.5644    0.0000 C   0  0  0  0  0  0  0  0  0
    4.0212   -3.9769    0.0000 C   0  0  0  0  0  0  0  0  0
    3.3067   -3.5644    0.0000 C   0  0  0  0  0  0  0  0  0
    2.5923   -3.9769    0.0000 N   0  3  0  0  0  0  0  0  0
    2.5923   -4.8019    0.0000 O   0  5  0  0  0  0  0  0  0
    1.8778   -3.5644    0.0000 O   0  5  0  0  0  0  0  0  0
    3.3067   -2.7394    0.0000 C   0  0  0  0  0  0  0  0  0
    4.0212   -2.3269    0.0000 C   0  0  0  0  0  0  0  0  0
    7.5936   -0.2644    0.0000 C   0  0  0  0  0  0  0  0  0
    8.3080    0.1481    0.0000 C   0  0  0  0  0  0  0  0  0
    8.3080    0.9731    0.0000 N   0  0  0  0  0  0  0  0  0
  1  2  1  0  0  0  0
  1 49  1  0  0  0  0
  2  3  1  0  0  0  0
  3  4  1  0  0  0  0
  3 15  2  0  0  0  0
  4  5  1  0  0  0  0
  5  6  1  0  0  0  0
  5  8  2  0  0  0  0
  6  7  1  0  0  0  0
  8  9  1  0  0  0  0
  8 14  1  0  0  0  0
  9 10  2  0  0  0  0
  9 11  1  0  0  0  0
 11 12  1  0  0  0  0
 12 13  1  0  0  0  0
 14 15  1  0  0  0  0
 14 40  1  0  0  0  0
 15 16  1  0  0  0  0
 16 17  2  0  0  0  0
 16 18  1  0  0  0  0
 18 19  1  0  0  0  0
 19 20  1  0  0  0  0
 20 21  1  0  0  0  0
 21 22  1  0  0  0  0
 22 23  1  0  0  0  0
 22 27  1  0  0  0  0
 23 24  1  0  0  0  0
 24 25  1  0  0  0  0
 25 26  1  0  0  0  0
 25 28  1  0  0  0  0
 25 34  1  0  0  0  0
 26 27  1  0  0  0  0
 28 29  4  0  0  0  0
 28 33  4  0  0  0  0
 29 30  4  0  0  0  0
 30 31  4  0  0  0  0
 31 32  4  0  0  0  0
 32 33  4  0  0  0  0
 34 35  4  0  0  0  0
 34 39  4  0  0  0  0
 35 36  4  0  0  0  0
 36 37  4  0  0  0  0
 37 38  4  0  0  0  0
 38 39  4  0  0  0  0
 40 41  4  0  0  0  0
 40 48  4  0  0  0  0
 41 42  4  0  0  0  0
 42 43  4  0  0  0  0
 43 44  1  0  0  0  0
 43 47  4  0  0  0  0
 44 45  1  0  0  0  0
 44 46  1  0  0  0  0
 47 48  4  0  0  0  0
 49 50  1  0  0  0  0
 50 51  1  0  0  0  0
M  CHG  3  44   1  45  -1  46  -1
M  END
>  <Name_Molregno>
157989

>  <Alpha-2A>
5.77

>  <Alpha-2B>
5.59

>  <Alpha-2C>
6.33

$$$$
157991
  Marvin  02231216192D 0   1.00000     0.00000     0

 49 53  0  0  1  0  0  0  0  0999 V2000
    2.3645    2.5534    0.0000 O   0  0  0  0  0  0  0  0  0
    1.6501    2.1409    0.0000 C   0  0  0  0  0  0  0  0  0
    1.6501    1.3159    0.0000 C   0  0  0  0  0  0  0  0  0
    2.3645    0.9034    0.0000 N   0  0  0  0  0  0  0  0  0
    2.3645    0.0784    0.0000 C   0  0  0  0  0  0  0  0  0
    3.0790   -0.3341    0.0000 C   0  0  0  0  0  0  0  0  0
    3.7935    0.0784    0.0000 C   0  0  0  0  0  0  0  0  0
    1.6501   -0.3341    0.0000 C   0  0  0  0  0  0  0  0  0
    1.6501   -1.1591    0.0000 C   0  0  0  0  0  0  0  0  0
    2.3645   -1.5716    0.0000 O   0  0  0  0  0  0  0  0  0
    0.9356   -1.5716    0.0000 N   0  0  0  0  0  0  0  0  0
    0.9356    0.0784    0.0000 C   0  0  0  0  0  0  0  0  0
    0.9356    0.9034    0.0000 C   0  0  0  0  0  0  0  0  0
    0.2211    1.3159    0.0000 C   0  0  0  0  0  0  0  0  0
    0.2211    2.1409    0.0000 O   0  0  0  0  0  0  0  0  0
   -0.4934    0.9034    0.0000 N   0  0  0  0  0  0  0  0  0
   -1.2078    1.3159    0.0000 C   0  0  0  0  0  0  0  0  0
   -1.2078    2.1409    0.0000 C   0  0  0  0  0  0  0  0  0
   -1.9223    2.5534    0.0000 C   0  0  0  0  0  0  0  0  0
   -1.9223    3.3784    0.0000 N   0  0  0  0  0  0  0  0  0
   -2.6368    3.7909    0.0000 C   0  0  0  0  0  0  0  0  0
   -2.6368    4.6159    0.0000 C   0  0  0  0  0  0  0  0  0
   -1.9223    5.0284    0.0000 C   0  0  0  0  0  0  0  0  0
   -1.2078    4.6159    0.0000 C   0  0  0  0  0  0  0  0  0
   -1.2078    3.7909    0.0000 C   0  0  0  0  0  0  0  0  0
   -2.5158    5.6015    0.0000 C   0  0  0  0  0  0  0  0  0
   -3.3088    5.3741    0.0000 C   0  0  0  0  0  0  0  0  0
   -3.9023    5.9472    0.0000 C   0  0  0  0  0  0  0  0  0
   -3.7027    6.7476    0.0000 C   0  0  0  0  0  0  0  0  0
   -2.9096    6.9750    0.0000 C   0  0  0  0  0  0  0  0  0
   -2.3162    6.4020    0.0000 C   0  0  0  0  0  0  0  0  0
   -1.5350    5.7568    0.0000 C   0  0  0  0  0  0  0  0  0
   -1.9722    6.4564    0.0000 C   0  0  0  0  0  0  0  0  0
   -1.5849    7.1849    0.0000 C   0  0  0  0  0  0  0  0  0
   -0.7604    7.2137    0.0000 C   0  0  0  0  0  0  0  0  0
   -0.3232    6.5140    0.0000 C   0  0  0  0  0  0  0  0  0
   -0.7105    5.7856    0.0000 C   0  0  0  0  0  0  0  0  0
    0.2211   -0.3341    0.0000 C   0  0  0  0  0  0  0  0  0
    0.2211   -1.1591    0.0000 C   0  0  0  0  0  0  0  0  0
   -0.4934   -1.5716    0.0000 C   0  0  0  0  0  0  0  0  0
   -1.2078   -1.1591    0.0000 C   0  0  0  0  0  0  0  0  0
   -1.9223   -1.5716    0.0000 N   0  3  0  0  0  0  0  0  0
   -1.9223   -2.3966    0.0000 O   0  5  0  0  0  0  0  0  0
   -2.6368   -1.1591    0.0000 O   0  5  0  0  0  0  0  0  0
   -1.2078   -0.3341    0.0000 C   0  0  0  0  0  0  0  0  0
   -0.4934    0.0784    0.0000 C   0  0  0  0  0  0  0  0  0
    3.0790    2.1409    0.0000 C   0  0  0  0  0  0  0  0  0
    3.7935    2.5534    0.0000 C   0  0  0  0  0  0  0  0  0
    3.7935    3.3784    0.0000 N   0  0  0  0  0  0  0  0  0
  1  2  1  0  0  0  0
  1 47  1  0  0  0  0
  2  3  1  0  0  0  0
  3  4  1  0  0  0  0
  3 13  2  0  0  0  0
  4  5  1  0  0  0  0
  5  6  1  0  0  0  0
  5  8  2  0  0  0  0
  6  7  1  0  0  0  0
  8  9  1  0  0  0  0
  8 12  1  0  0  0  0
  9 10  2  0  0  0  0
  9 11  1  0  0  0  0
 12 13  1  0  0  0  0
 12 38  1  0  0  0  0
 13 14  1  0  0  0  0
 14 15  2  0  0  0  0
 14 16  1  0  0  0  0
 16 17  1  0  0  0  0
 17 18  1  0  0  0  0
 18 19  1  0  0  0  0
 19 20  1  0  0  0  0
 20 21  1  0  0  0  0
 20 25  1  0  0  0  0
 21 22  1  0  0  0  0
 22 23  1  0  0  0  0
 23 24  1  0  0  0  0
 23 26  1  0  0  0  0
 23 32  1  0  0  0  0
 24 25  1  0  0  0  0
 26 27  4  0  0  0  0
 26 31  4  0  0  0  0
 27 28  4  0  0  0  0
 28 29  4  0  0  0  0
 29 30  4  0  0  0  0
 30 31  4  0  0  0  0
 32 33  4  0  0  0  0
 32 37  4  0  0  0  0
 33 34  4  0  0  0  0
 34 35  4  0  0  0  0
 35 36  4  0  0  0  0
 36 37  4  0  0  0  0
 38 39  4  0  0  0  0
 38 46  4  0  0  0  0
 39 40  4  0  0  0  0
 40 41  4  0  0  0  0
 41 42  1  0  0  0  0
 41 45  4  0  0  0  0
 42 43  1  0  0  0  0
 42 44  1  0  0  0  0
 45 46  4  0  0  0  0
 47 48  1  0  0  0  0
 48 49  1  0  0  0  0
M  CHG  3  42   1  43  -1  44  -1
M  END
>  <Name_Molregno>
157991

>  <Alpha-1A>
9.4

>  <Alpha-2A>
6.39

>  <Alpha-2B>
6.04

>  <Alpha-2C>
6.69

$$$$
157992
  Marvin  02231216192D 0   1.00000     0.00000     0

 50 54  0  0  1  0  0  0  0  0999 V2000
    6.9094    0.0445    0.0000 O   0  0  0  0  0  0  0  0  0
    6.1949   -0.3680    0.0000 C   0  0  0  0  0  0  0  0  0
    6.1949   -1.1930    0.0000 C   0  0  0  0  0  0  0  0  0
    6.9094   -1.6055    0.0000 N   0  0  0  0  0  0  0  0  0
    6.9094   -2.4305    0.0000 C   0  0  0  0  0  0  0  0  0
    7.6238   -2.8430    0.0000 C   0  0  0  0  0  0  0  0  0
    8.3383   -2.4305    0.0000 C   0  0  0  0  0  0  0  0  0
    6.1949   -2.8430    0.0000 C   0  0  0  0  0  0  0  0  0
    6.1949   -3.6680    0.0000 C   0  0  0  0  0  0  0  0  0
    6.9094   -4.0805    0.0000 O   0  0  0  0  0  0  0  0  0
    5.4804   -4.0805    0.0000 N   0  0  0  0  0  0  0  0  0
    5.4804   -2.4305    0.0000 C   0  0  0  0  0  0  0  0  0
    5.4804   -1.6055    0.0000 C   0  0  0  0  0  0  0  0  0
    4.7659   -1.1930    0.0000 C   0  0  0  0  0  0  0  0  0
    4.7659   -0.3680    0.0000 O   0  0  0  0  0  0  0  0  0
    4.0515   -1.6055    0.0000 N   0  0  0  0  0  0  0  0  0
    3.3370   -1.1930    0.0000 C   0  0  0  0  0  0  0  0  0
    3.3370   -0.3680    0.0000 C   0  0  0  0  0  0  0  0  0
    2.6225    0.0445    0.0000 C   0  0  0  0  0  0  0  0  0
    2.6225    0.8695    0.0000 N   0  0  0  0  0  0  0  0  0
    1.9081    1.2820    0.0000 C   0  0  0  0  0  0  0  0  0
    1.9081    2.1070    0.0000 C   0  0  0  0  0  0  0  0  0
    2.6225    2.5195    0.0000 C   0  0  0  0  0  0  0  0  0
    3.3370    2.1070    0.0000 C   0  0  0  0  0  0  0  0  0
    3.3370    1.2820    0.0000 C   0  0  0  0  0  0  0  0  0
    2.0291    3.0925    0.0000 C   0  0  0  0  0  0  0  0  0
    1.2360    2.8651    0.0000 C   0  0  0  0  0  0  0  0  0
    0.6426    3.4382    0.0000 C   0  0  0  0  0  0  0  0  0
    0.8422    4.2387    0.0000 C   0  0  0  0  0  0  0  0  0
    1.6352    4.4661    0.0000 C   0  0  0  0  0  0  0  0  0
    2.2287    3.8930    0.0000 C   0  0  0  0  0  0  0  0  0
    3.0098    3.2479    0.0000 C   0  0  0  0  0  0  0  0  0
    2.5727    3.9475    0.0000 C   0  0  0  0  0  0  0  0  0
    2.9600    4.6760    0.0000 C   0  0  0  0  0  0  0  0  0
    3.7845    4.7047    0.0000 C   0  0  0  0  0  0  0  0  0
    4.2217    4.0051    0.0000 C   0  0  0  0  0  0  0  0  0
    3.8343    3.2767    0.0000 C   0  0  0  0  0  0  0  0  0
    4.7659   -2.8430    0.0000 C   0  0  0  0  0  0  0  0  0
    4.7659   -3.6680    0.0000 C   0  0  0  0  0  0  0  0  0
    4.0515   -4.0805    0.0000 C   0  0  0  0  0  0  0  0  0
    3.3370   -3.6680    0.0000 C   0  0  0  0  0  0  0  0  0
    2.6225   -4.0805    0.0000 N   0  3  0  0  0  0  0  0  0
    2.6225   -4.9055    0.0000 O   0  5  0  0  0  0  0  0  0
    1.9081   -3.6680    0.0000 O   0  5  0  0  0  0  0  0  0
    3.3370   -2.8430    0.0000 C   0  0  0  0  0  0  0  0  0
    4.0515   -2.4305    0.0000 C   0  0  0  0  0  0  0  0  0
    6.9094    0.8695    0.0000 C   0  0  0  0  0  0  0  0  0
    7.6238    1.2820    0.0000 C   0  0  0  0  0  0  0  0  0
    7.6238    2.1070    0.0000 C   0  0  0  0  0  0  0  0  0
    8.3383    2.5195    0.0000 N   0  0  0  0  0  0  0  0  0
  1  2  1  0  0  0  0
  1 47  1  0  0  0  0
  2  3  1  0  0  0  0
  3  4  1  0  0  0  0
  3 13  2  0  0  0  0
  4  5  1  0  0  0  0
  5  6  1  0  0  0  0
  5  8  2  0  0  0  0
  6  7  1  0  0  0  0
  8  9  1  0  0  0  0
  8 12  1  0  0  0  0
  9 10  2  0  0  0  0
  9 11  1  0  0  0  0
 12 13  1  0  0  0  0
 12 38  1  0  0  0  0
 13 14  1  0  0  0  0
 14 15  2  0  0  0  0
 14 16  1  0  0  0  0
 16 17  1  0  0  0  0
 17 18  1  0  0  0  0
 18 19  1  0  0  0  0
 19 20  1  0  0  0  0
 20 21  1  0  0  0  0
 20 25  1  0  0  0  0
 21 22  1  0  0  0  0
 22 23  1  0  0  0  0
 23 24  1  0  0  0  0
 23 26  1  0  0  0  0
 23 32  1  0  0  0  0
 24 25  1  0  0  0  0
 26 27  4  0  0  0  0
 26 31  4  0  0  0  0
 27 28  4  0  0  0  0
 28 29  4  0  0  0  0
 29 30  4  0  0  0  0
 30 31  4  0  0  0  0
 32 33  4  0  0  0  0
 32 37  4  0  0  0  0
 33 34  4  0  0  0  0
 34 35  4  0  0  0  0
 35 36  4  0  0  0  0
 36 37  4  0  0  0  0
 38 39  4  0  0  0  0
 38 46  4  0  0  0  0
 39 40  4  0  0  0  0
 40 41  4  0  0  0  0
 41 42  1  0  0  0  0
 41 45  4  0  0  0  0
 42 43  1  0  0  0  0
 42 44  1  0  0  0  0
 45 46  4  0  0  0  0
 47 48  1  0  0  0  0
 48 49  1  0  0  0  0
 49 50  1  0  0  0  0
M  CHG  3  42   1  43  -1  44  -1
M  END
>  <Name_Molregno>
157992

>  <Alpha-2A>
6.09

>  <Alpha-2B>
5.95

>  <Alpha-2C>
6.54

$$$$
158226
  Marvin  02231216192D 0   1.00000     0.00000     0

 51 55  0  0  1  0  0  0  0  0999 V2000
   -2.7435    4.4921    0.0000 F   0  0  0  0  0  0  0  0  0
   -2.0290    4.0796    0.0000 C   0  0  0  0  0  0  0  0  0
   -2.4415    3.3651    0.0000 F   0  0  0  0  0  0  0  0  0
   -1.6165    4.7940    0.0000 F   0  0  0  0  0  0  0  0  0
   -1.3146    3.6671    0.0000 C   0  0  0  0  0  0  0  0  0
   -0.6001    4.0796    0.0000 O   0  0  0  0  0  0  0  0  0
    0.1144    3.6671    0.0000 C   0  0  0  0  0  0  0  0  0
    0.1144    2.8421    0.0000 C   0  0  0  0  0  0  0  0  0
   -0.6001    2.4296    0.0000 N   0  0  0  0  0  0  0  0  0
   -0.6001    1.6046    0.0000 C   0  0  0  0  0  0  0  0  0
   -1.3146    1.1921    0.0000 C   0  0  0  0  0  0  0  0  0
   -2.0290    1.6046    0.0000 C   0  0  0  0  0  0  0  0  0
    0.1144    1.1921    0.0000 C   0  0  0  0  0  0  0  0  0
    0.1144    0.3671    0.0000 C   0  0  0  0  0  0  0  0  0
   -0.6001   -0.0454    0.0000 O   0  0  0  0  0  0  0  0  0
    0.8289   -0.0454    0.0000 N   0  0  0  0  0  0  0  0  0
    0.8289    1.6046    0.0000 C   0  0  0  0  0  0  0  0  0
    0.8289    2.4296    0.0000 C   0  0  0  0  0  0  0  0  0
    1.5433    2.8421    0.0000 C   0  0  0  0  0  0  0  0  0
    1.5433    3.6671    0.0000 O   0  0  0  0  0  0  0  0  0
    2.2578    2.4296    0.0000 N   0  0  0  0  0  0  0  0  0
    2.9723    2.8421    0.0000 C   0  0  0  0  0  0  0  0  0
    2.9723    3.6671    0.0000 C   0  0  0  0  0  0  0  0  0
    3.6867    4.0796    0.0000 C   0  0  0  0  0  0  0  0  0
    3.6867    4.9046    0.0000 N   0  0  0  0  0  0  0  0  0
    2.9723    5.3171    0.0000 C   0  0  0  0  0  0  0  0  0
    2.9723    6.1421    0.0000 C   0  0  0  0  0  0  0  0  0
    3.6867    6.5546    0.0000 C   0  0  0  0  0  0  0  0  0
    4.4012    6.1421    0.0000 C   0  0  0  0  0  0  0  0  0
    4.4012    5.3171    0.0000 C   0  0  0  0  0  0  0  0  0
    3.0933    7.1277    0.0000 C   0  0  0  0  0  0  0  0  0
    2.3002    6.9002    0.0000 C   0  0  0  0  0  0  0  0  0
    1.7068    7.4733    0.0000 C   0  0  0  0  0  0  0  0  0
    1.9064    8.2738    0.0000 C   0  0  0  0  0  0  0  0  0
    2.6994    8.5012    0.0000 C   0  0  0  0  0  0  0  0  0
    3.2929    7.9281    0.0000 C   0  0  0  0  0  0  0  0  0
    4.0741    7.2830    0.0000 C   0  0  0  0  0  0  0  0  0
    3.6369    7.9826    0.0000 C   0  0  0  0  0  0  0  0  0
    4.0242    8.7111    0.0000 C   0  0  0  0  0  0  0  0  0
    4.8487    8.7399    0.0000 C   0  0  0  0  0  0  0  0  0
    5.2859    8.0402    0.0000 C   0  0  0  0  0  0  0  0  0
    4.8986    7.3118    0.0000 C   0  0  0  0  0  0  0  0  0
    1.5433    1.1921    0.0000 C   0  0  0  0  0  0  0  0  0
    2.2578    1.6046    0.0000 C   0  0  0  0  0  0  0  0  0
    2.9723    1.1921    0.0000 C   0  0  0  0  0  0  0  0  0
    2.9723    0.3671    0.0000 C   0  0  0  0  0  0  0  0  0
    3.6867   -0.0454    0.0000 N   0  3  0  0  0  0  0  0  0
    4.4012    0.3671    0.0000 O   0  5  0  0  0  0  0  0  0
    3.6867   -0.8704    0.0000 O   0  5  0  0  0  0  0  0  0
    2.2578   -0.0454    0.0000 C   0  0  0  0  0  0  0  0  0
    1.5433    0.3671    0.0000 C   0  0  0  0  0  0  0  0  0
  1  2  1  0  0  0  0
  2  3  1  0  0  0  0
  2  4  1  0  0  0  0
  2  5  1  0  0  0  0
  5  6  1  0  0  0  0
  6  7  1  0  0  0  0
  7  8  1  0  0  0  0
  8  9  1  0  0  0  0
  8 18  2  0  0  0  0
  9 10  1  0  0  0  0
 10 11  1  0  0  0  0
 10 13  2  0  0  0  0
 11 12  1  0  0  0  0
 13 14  1  0  0  0  0
 13 17  1  0  0  0  0
 14 15  2  0  0  0  0
 14 16  1  0  0  0  0
 17 18  1  0  0  0  0
 17 43  1  0  0  0  0
 18 19  1  0  0  0  0
 19 20  2  0  0  0  0
 19 21  1  0  0  0  0
 21 22  1  0  0  0  0
 22 23  1  0  0  0  0
 23 24  1  0  0  0  0
 24 25  1  0  0  0  0
 25 26  1  0  0  0  0
 25 30  1  0  0  0  0
 26 27  1  0  0  0  0
 27 28  1  0  0  0  0
 28 29  1  0  0  0  0
 28 31  1  0  0  0  0
 28 37  1  0  0  0  0
 29 30  1  0  0  0  0
 31 32  4  0  0  0  0
 31 36  4  0  0  0  0
 32 33  4  0  0  0  0
 33 34  4  0  0  0  0
 34 35  4  0  0  0  0
 35 36  4  0  0  0  0
 37 38  4  0  0  0  0
 37 42  4  0  0  0  0
 38 39  4  0  0  0  0
 39 40  4  0  0  0  0
 40 41  4  0  0  0  0
 41 42  4  0  0  0  0
 43 44  4  0  0  0  0
 43 51  4  0  0  0  0
 44 45  4  0  0  0  0
 45 46  4  0  0  0  0
 46 47  1  0  0  0  0
 46 50  4  0  0  0  0
 47 48  1  0  0  0  0
 47 49  1  0  0  0  0
 50 51  4  0  0  0  0
M  CHG  3  47   1  48  -1  49  -1
M  END
>  <Name_Molregno>
158226

>  <Alpha-2A>
5.64

>  <Alpha-2B>
6.12

>  <Alpha-2C>
6.05

$$$$
158481
  Marvin  02231216192D 0   1.00000     0.00000     0

 50 54  0  0  1  0  0  0  0  0999 V2000
    4.7203   -3.5017    0.0000 O   0  0  0  0  0  0  0  0  0
    4.0058   -3.0892    0.0000 C   0  0  0  0  0  0  0  0  0
    3.2913   -3.5017    0.0000 C   0  0  0  0  0  0  0  0  0
    2.5769   -3.0892    0.0000 C   0  0  0  0  0  0  0  0  0
    1.8624   -3.5017    0.0000 C   0  0  0  0  0  0  0  0  0
    1.8624   -4.3267    0.0000 C   0  0  0  0  0  0  0  0  0
    2.5769   -4.7392    0.0000 N   0  0  0  0  0  0  0  0  0
    2.5769   -5.5642    0.0000 C   0  0  0  0  0  0  0  0  0
    3.2913   -5.9767    0.0000 C   0  0  0  0  0  0  0  0  0
    4.0058   -5.5642    0.0000 C   0  0  0  0  0  0  0  0  0
    1.8624   -5.9767    0.0000 C   0  0  0  0  0  0  0  0  0
    1.8624   -6.8017    0.0000 C   0  0  0  0  0  0  0  0  0
    2.5769   -7.2142    0.0000 O   0  0  0  0  0  0  0  0  0
    1.1479   -7.2142    0.0000 N   0  0  0  0  0  0  0  0  0
    1.1479   -5.5642    0.0000 C   0  0  0  0  0  0  0  0  0
    1.1479   -4.7392    0.0000 C   0  0  0  0  0  0  0  0  0
    0.4335   -4.3267    0.0000 C   0  0  0  0  0  0  0  0  0
    0.4335   -3.5017    0.0000 O   0  0  0  0  0  0  0  0  0
   -0.2810   -4.7392    0.0000 N   0  0  0  0  0  0  0  0  0
   -0.9955   -4.3267    0.0000 C   0  0  0  0  0  0  0  0  0
   -0.9955   -3.5017    0.0000 C   0  0  0  0  0  0  0  0  0
   -1.7100   -3.0892    0.0000 C   0  0  0  0  0  0  0  0  0
   -1.7100   -2.2642    0.0000 N   0  0  0  0  0  0  0  0  0
   -2.4244   -1.8517    0.0000 C   0  0  0  0  0  0  0  0  0
   -2.4244   -1.0267    0.0000 C   0  0  0  0  0  0  0  0  0
   -1.7100   -0.6142    0.0000 C   0  0  0  0  0  0  0  0  0
   -0.9955   -1.0267    0.0000 C   0  0  0  0  0  0  0  0  0
   -0.9955   -1.8517    0.0000 C   0  0  0  0  0  0  0  0  0
   -2.3034   -0.0411    0.0000 C   0  0  0  0  0  0  0  0  0
   -3.0965   -0.2685    0.0000 C   0  0  0  0  0  0  0  0  0
   -3.6899    0.3046    0.0000 C   0  0  0  0  0  0  0  0  0
   -3.4903    1.1051    0.0000 C   0  0  0  0  0  0  0  0  0
   -2.6973    1.3325    0.0000 C   0  0  0  0  0  0  0  0  0
   -2.1038    0.7594    0.0000 C   0  0  0  0  0  0  0  0  0
   -1.3226    0.1142    0.0000 C   0  0  0  0  0  0  0  0  0
   -1.7598    0.8139    0.0000 C   0  0  0  0  0  0  0  0  0
   -1.3725    1.5423    0.0000 C   0  0  0  0  0  0  0  0  0
   -0.5480    1.5711    0.0000 C   0  0  0  0  0  0  0  0  0
   -0.1108    0.8714    0.0000 C   0  0  0  0  0  0  0  0  0
   -0.4981    0.1430    0.0000 C   0  0  0  0  0  0  0  0  0
    0.4335   -5.9767    0.0000 C   0  0  0  0  0  0  0  0  0
    0.4335   -6.8017    0.0000 C   0  0  0  0  0  0  0  0  0
   -0.2810   -7.2142    0.0000 C   0  0  0  0  0  0  0  0  0
   -0.9955   -6.8017    0.0000 C   0  0  0  0  0  0  0  0  0
   -1.7100   -7.2142    0.0000 N   0  3  0  0  0  0  0  0  0
   -1.7100   -8.0392    0.0000 O   0  5  0  0  0  0  0  0  0
   -2.4244   -6.8017    0.0000 O   0  5  0  0  0  0  0  0  0
   -0.9955   -5.9767    0.0000 C   0  0  0  0  0  0  0  0  0
   -0.2810   -5.5642    0.0000 C   0  0  0  0  0  0  0  0  0
    5.4348   -3.0892    0.0000 C   0  0  0  0  0  0  0  0  0
  1  2  1  0  0  0  0
  1 50  1  0  0  0  0
  2  3  1  0  0  0  0
  3  4  1  0  0  0  0
  4  5  1  0  0  0  0
  5  6  1  0  0  0  0
  6  7  1  0  0  0  0
  6 16  2  0  0  0  0
  7  8  1  0  0  0  0
  8  9  1  0  0  0  0
  8 11  2  0  0  0  0
  9 10  1  0  0  0  0
 11 12  1  0  0  0  0
 11 15  1  0  0  0  0
 12 13  2  0  0  0  0
 12 14  1  0  0  0  0
 15 16  1  0  0  0  0
 15 41  1  0  0  0  0
 16 17  1  0  0  0  0
 17 18  2  0  0  0  0
 17 19  1  0  0  0  0
 19 20  1  0  0  0  0
 20 21  1  0  0  0  0
 21 22  1  0  0  0  0
 22 23  1  0  0  0  0
 23 24  1  0  0  0  0
 23 28  1  0  0  0  0
 24 25  1  0  0  0  0
 25 26  1  0  0  0  0
 26 27  1  0  0  0  0
 26 29  1  0  0  0  0
 26 35  1  0  0  0  0
 27 28  1  0  0  0  0
 29 30  4  0  0  0  0
 29 34  4  0  0  0  0
 30 31  4  0  0  0  0
 31 32  4  0  0  0  0
 32 33  4  0  0  0  0
 33 34  4  0  0  0  0
 35 36  4  0  0  0  0
 35 40  4  0  0  0  0
 36 37  4  0  0  0  0
 37 38  4  0  0  0  0
 38 39  4  0  0  0  0
 39 40  4  0  0  0  0
 41 42  4  0  0  0  0
 41 49  4  0  0  0  0
 42 43  4  0  0  0  0
 43 44  4  0  0  0  0
 44 45  1  0  0  0  0
 44 48  4  0  0  0  0
 45 46  1  0  0  0  0
 45 47  1  0  0  0  0
 48 49  4  0  0  0  0
M  CHG  3  45   1  46  -1  47  -1
M  END
>  <Name_Molregno>
158481

>  <Alpha-2A>
7

>  <Alpha-2B>
6.63

>  <Alpha-2C>
6.45

$$$$
158482
  Marvin  02231216192D 0   1.00000     0.00000     0

 47 51  0  0  1  0  0  0  0  0999 V2000
    2.5741    2.7246    0.0000 O   0  0  0  0  0  0  0  0  0
    1.8596    2.3121    0.0000 C   0  0  0  0  0  0  0  0  0
    1.8596    1.4871    0.0000 C   0  0  0  0  0  0  0  0  0
    2.5741    1.0746    0.0000 N   0  0  0  0  0  0  0  0  0
    2.5741    0.2496    0.0000 C   0  0  0  0  0  0  0  0  0
    3.2886   -0.1629    0.0000 C   0  0  0  0  0  0  0  0  0
    4.0030    0.2496    0.0000 C   0  0  0  0  0  0  0  0  0
    1.8596   -0.1629    0.0000 C   0  0  0  0  0  0  0  0  0
    1.8596   -0.9879    0.0000 C   0  0  0  0  0  0  0  0  0
    2.5741   -1.4004    0.0000 O   0  0  0  0  0  0  0  0  0
    1.1452   -1.4004    0.0000 N   0  0  0  0  0  0  0  0  0
    1.1452    0.2496    0.0000 C   0  0  0  0  0  0  0  0  0
    1.1452    1.0746    0.0000 C   0  0  0  0  0  0  0  0  0
    0.4307    1.4871    0.0000 C   0  0  0  0  0  0  0  0  0
    0.4307    2.3121    0.0000 O   0  0  0  0  0  0  0  0  0
   -0.2838    1.0746    0.0000 N   0  0  0  0  0  0  0  0  0
   -0.9983    1.4871    0.0000 C   0  0  0  0  0  0  0  0  0
   -0.9983    2.3121    0.0000 C   0  0  0  0  0  0  0  0  0
   -1.7127    2.7246    0.0000 C   0  0  0  0  0  0  0  0  0
   -1.7127    3.5496    0.0000 N   0  0  0  0  0  0  0  0  0
   -2.4272    3.9621    0.0000 C   0  0  0  0  0  0  0  0  0
   -2.4272    4.7871    0.0000 C   0  0  0  0  0  0  0  0  0
   -1.7127    5.1996    0.0000 C   0  0  0  0  0  0  0  0  0
   -0.9983    4.7871    0.0000 C   0  0  0  0  0  0  0  0  0
   -0.9983    3.9621    0.0000 C   0  0  0  0  0  0  0  0  0
   -2.3062    5.7727    0.0000 C   0  0  0  0  0  0  0  0  0
   -3.0992    5.5453    0.0000 C   0  0  0  0  0  0  0  0  0
   -3.6927    6.1184    0.0000 C   0  0  0  0  0  0  0  0  0
   -3.4931    6.9189    0.0000 C   0  0  0  0  0  0  0  0  0
   -2.7000    7.1463    0.0000 C   0  0  0  0  0  0  0  0  0
   -2.1066    6.5732    0.0000 C   0  0  0  0  0  0  0  0  0
   -1.3254    5.9280    0.0000 C   0  0  0  0  0  0  0  0  0
   -1.7626    6.6277    0.0000 C   0  0  0  0  0  0  0  0  0
   -1.3753    7.3561    0.0000 C   0  0  0  0  0  0  0  0  0
   -0.5508    7.3849    0.0000 C   0  0  0  0  0  0  0  0  0
   -0.1136    6.6852    0.0000 C   0  0  0  0  0  0  0  0  0
   -0.5009    5.9568    0.0000 C   0  0  0  0  0  0  0  0  0
    0.4307   -0.1629    0.0000 C   0  0  0  0  0  0  0  0  0
    0.4307   -0.9879    0.0000 C   0  0  0  0  0  0  0  0  0
   -0.2838   -1.4004    0.0000 C   0  0  0  0  0  0  0  0  0
   -0.9983   -0.9879    0.0000 C   0  0  0  0  0  0  0  0  0
   -1.7127   -1.4004    0.0000 N   0  3  0  0  0  0  0  0  0
   -1.7127   -2.2254    0.0000 O   0  5  0  0  0  0  0  0  0
   -2.4272   -0.9879    0.0000 O   0  5  0  0  0  0  0  0  0
   -0.9983   -0.1629    0.0000 C   0  0  0  0  0  0  0  0  0
   -0.2838    0.2496    0.0000 C   0  0  0  0  0  0  0  0  0
    2.5741    3.5496    0.0000 C   0  0  0  0  0  0  0  0  0
  1  2  1  0  0  0  0
  1 47  1  0  0  0  0
  2  3  1  0  0  0  0
  3  4  1  0  0  0  0
  3 13  2  0  0  0  0
  4  5  1  0  0  0  0
  5  6  1  0  0  0  0
  5  8  2  0  0  0  0
  6  7  1  0  0  0  0
  8  9  1  0  0  0  0
  8 12  1  0  0  0  0
  9 10  2  0  0  0  0
  9 11  1  0  0  0  0
 12 13  1  0  0  0  0
 12 38  1  0  0  0  0
 13 14  1  0  0  0  0
 14 15  2  0  0  0  0
 14 16  1  0  0  0  0
 16 17  1  0  0  0  0
 17 18  1  0  0  0  0
 18 19  1  0  0  0  0
 19 20  1  0  0  0  0
 20 21  1  0  0  0  0
 20 25  1  0  0  0  0
 21 22  1  0  0  0  0
 22 23  1  0  0  0  0
 23 24  1  0  0  0  0
 23 26  1  0  0  0  0
 23 32  1  0  0  0  0
 24 25  1  0  0  0  0
 26 27  4  0  0  0  0
 26 31  4  0  0  0  0
 27 28  4  0  0  0  0
 28 29  4  0  0  0  0
 29 30  4  0  0  0  0
 30 31  4  0  0  0  0
 32 33  4  0  0  0  0
 32 37  4  0  0  0  0
 33 34  4  0  0  0  0
 34 35  4  0  0  0  0
 35 36  4  0  0  0  0
 36 37  4  0  0  0  0
 38 39  4  0  0  0  0
 38 46  4  0  0  0  0
 39 40  4  0  0  0  0
 40 41  4  0  0  0  0
 41 42  1  0  0  0  0
 41 45  4  0  0  0  0
 42 43  1  0  0  0  0
 42 44  1  0  0  0  0
 45 46  4  0  0  0  0
M  CHG  3  42   1  43  -1  44  -1
M  END
>  <Name_Molregno>
158482

>  <Alpha-2A>
6.24

>  <Alpha-2B>
6.54

>  <Alpha-2C>
6.29

$$$$
162216
  Marvin  02231216192D 0   1.00000     0.00000     0

 35 39  0  0  1  0  0  0  0  0999 V2000
   12.4150   -0.6719    0.0000 F   0  0  0  0  0  0  0  0  0
   11.7849   -0.1393    0.0000 C   0  0  0  0  0  0  0  0  0
   11.0087   -0.4186    0.0000 C   0  0  0  0  0  0  0  0  0
   10.3786    0.1140    0.0000 C   0  0  0  0  0  0  0  0  0
   10.5249    0.9260    0.0000 C   0  0  0  0  0  0  0  0  0
   11.3011    1.2053    0.0000 C   0  0  0  0  0  0  0  0  0
   11.9312    0.6727    0.0000 C   0  0  0  0  0  0  0  0  0
    9.8948    1.4586    0.0000 C   0  0  0  0  0  0  0  0  0
    9.1185    1.1793    0.0000 C   0  0  0  0  0  0  0  0  0
    8.9723    0.3673    0.0000 C   0  0  0  0  0  0  0  0  0
    8.1960    0.0880    0.0000 N   0  0  0  0  0  0  0  0  0
    8.0498   -0.7239    0.0000 C   0  0  0  0  0  0  0  0  0
    7.2735   -1.0032    0.0000 C   0  0  0  0  0  0  0  0  0
    6.6435   -0.4706    0.0000 N   0  0  0  0  0  0  0  0  0
    6.7897    0.3413    0.0000 C   0  0  0  0  0  0  0  0  0
    7.5660    0.6206    0.0000 C   0  0  0  0  0  0  0  0  0
    5.8672   -0.7499    0.0000 C   0  0  0  0  0  0  0  0  0
    5.2372   -0.2173    0.0000 C   0  0  0  0  0  0  0  0  0
    5.2977    0.6055    0.0000 O   0  0  0  0  0  0  0  0  0
    4.5339    0.9173    0.0000 N   0  0  0  0  0  0  0  0  0
    4.0013    0.2873    0.0000 C   0  0  0  0  0  0  0  0  0
    4.4359   -0.4140    0.0000 C   0  0  0  0  0  0  0  0  0
    4.0460   -1.1410    0.0000 C   0  0  0  0  0  0  0  0  0
    3.2214   -1.1667    0.0000 O   0  0  0  0  0  0  0  0  0
    2.7867   -0.4655    0.0000 C   0  0  0  0  0  0  0  0  0
    1.9621   -0.4912    0.0000 C   0  0  0  0  0  0  0  0  0
    1.5275    0.2100    0.0000 C   0  0  0  0  0  0  0  0  0
    0.7029    0.1842    0.0000 O   0  0  0  0  0  0  0  0  0
    0.3130   -0.5428    0.0000 C   0  0  0  0  0  0  0  0  0
    1.9175    0.9370    0.0000 C   0  0  0  0  0  0  0  0  0
    1.4829    1.6382    0.0000 O   0  0  0  0  0  0  0  0  0
    1.8729    2.3652    0.0000 C   0  0  0  0  0  0  0  0  0
    2.7421    0.9628    0.0000 C   0  0  0  0  0  0  0  0  0
    3.1767    0.2615    0.0000 C   0  0  0  0  0  0  0  0  0
    8.4885    1.7119    0.0000 C   0  0  0  0  0  0  0  0  0
  1  2  1  0  0  0  0
  2  3  4  0  0  0  0
  2  7  4  0  0  0  0
  3  4  4  0  0  0  0
  4  5  4  0  0  0  0
  5  6  4  0  0  0  0
  5  8  1  0  0  0  0
  6  7  4  0  0  0  0
  8  9  2  0  0  0  0
  9 10  1  0  0  0  0
  9 35  1  0  0  0  0
 10 11  1  0  0  0  0
 11 12  1  0  0  0  0
 11 16  1  0  0  0  0
 12 13  1  0  0  0  0
 13 14  1  0  0  0  0
 14 15  1  0  0  0  0
 14 17  1  0  0  0  0
 15 16  1  0  0  0  0
 17 18  1  0  0  0  0
 18 19  1  0  0  0  0
 18 22  1  0  0  0  0
 19 20  1  0  0  0  0
 20 21  2  0  0  0  0
 21 22  1  0  0  0  0
 21 34  1  0  0  0  0
 22 23  1  0  0  0  0
 23 24  1  0  0  0  0
 24 25  1  0  0  0  0
 25 26  4  0  0  0  0
 25 34  4  0  0  0  0
 26 27  4  0  0  0  0
 27 28  1  0  0  0  0
 27 30  4  0  0  0  0
 28 29  1  0  0  0  0
 30 31  1  0  0  0  0
 30 33  4  0  0  0  0
 31 32  1  0  0  0  0
 33 34  4  0  0  0  0
M  END
>  <Name_Molregno>
162216

>  <Alpha-1A>
6.9

>  <Alpha-2A>
8.18

>  <Alpha-2B>
8.19

>  <Alpha-2C>
8.91

>  <DOPAMINE D3>
6.43

>  <HISTAMINE H1>
7.13

>  <Serotonin transporter>
8.71

$$$$
162847
  Marvin  02231216192D 0   1.00000     0.00000     0

 17 18  0  0  0  0  0  0  0  0999 V2000
   -0.3269   -3.3071    0.0000 Cl  0  0  0  0  0  0  0  0  0
   -0.3269   -2.4821    0.0000 C   0  0  0  0  0  0  0  0  0
   -1.0414   -2.0696    0.0000 C   0  0  0  0  0  0  0  0  0
   -1.0414   -1.2446    0.0000 C   0  0  0  0  0  0  0  0  0
   -0.3269   -0.8321    0.0000 C   0  0  0  0  0  0  0  0  0
    0.3876   -1.2446    0.0000 C   0  0  0  0  0  0  0  0  0
    0.3876   -2.0696    0.0000 C   0  0  0  0  0  0  0  0  0
    1.1021   -2.4821    0.0000 N   0  0  0  0  0  0  0  0  0
    1.1021   -3.3071    0.0000 C   0  0  0  0  0  0  0  0  0
    1.7695   -3.7920    0.0000 N   0  0  0  0  0  0  0  0  0
    1.5146   -4.5767    0.0000 C   0  0  0  0  0  0  0  0  0
    0.6896   -4.5767    0.0000 C   0  0  0  0  0  0  0  0  0
    0.4346   -3.7920    0.0000 N   0  0  0  0  0  0  0  0  0
   -0.3269   -0.0071    0.0000 C   0  0  0  0  0  0  0  0  0
   -0.3269    0.8179    0.0000 F   0  0  0  0  0  0  0  0  0
    0.4981   -0.0071    0.0000 F   0  0  0  0  0  0  0  0  0
   -1.1519   -0.0071    0.0000 F   0  0  0  0  0  0  0  0  0
  1  2  1  0  0  0  0
  2  3  4  0  0  0  0
  2  7  4  0  0  0  0
  3  4  4  0  0  0  0
  4  5  4  0  0  0  0
  5  6  4  0  0  0  0
  5 14  1  0  0  0  0
  6  7  4  0  0  0  0
  7  8  1  0  0  0  0
  8  9  1  0  0  0  0
  9 10  1  0  0  0  0
  9 13  2  0  0  0  0
 10 11  1  0  0  0  0
 11 12  1  0  0  0  0
 12 13  1  0  0  0  0
 14 15  1  0  0  0  0
 14 16  1  0  0  0  0
 14 17  1  0  0  0  0
M  END
>  <Name_Molregno>
162847

>  <Alpha-2A>
5.81

$$$$
162990
  Marvin  02231216192D 0   1.00000     0.00000     0

 15 17  0  0  1  0  0  0  0  0999 V2000
    3.2681    1.1011    0.0000 N   0  0  0  0  0  0  0  0  0
    3.9640    0.6579    0.0000 C   0  0  0  0  0  0  0  0  0
    3.7575   -0.1408    0.0000 N   0  0  0  0  0  0  0  0  0
    2.9341   -0.1913    0.0000 C   0  0  0  0  0  0  0  0  0
    2.6316    0.5763    0.0000 C   0  0  0  0  0  0  0  0  0
    2.4110    1.3712    0.0000 C   0  0  0  0  0  0  0  0  0
    1.6122    1.5777    0.0000 C   0  0  0  0  0  0  0  0  0
    1.0341    0.9892    0.0000 C   0  0  0  0  0  0  0  0  0
    1.2547    0.1942    0.0000 C   0  0  0  0  0  0  0  0  0
    2.0534   -0.0123    0.0000 C   0  0  0  0  0  0  0  0  0
    0.6765   -0.3943    0.0000 C   0  0  0  0  0  0  0  0  0
   -0.1222   -0.1879    0.0000 C   0  0  0  0  0  0  0  0  0
   -0.3428    0.6071    0.0000 C   0  0  0  0  0  0  0  0  0
    0.2353    1.1956    0.0000 C   0  0  0  0  0  0  0  0  0
   -0.7004   -0.7764    0.0000 C   0  0  0  0  0  0  0  0  0
  1  2  1  0  0  0  0
  1  5  1  0  0  0  0
  2  3  2  0  0  0  0
  3  4  1  0  0  0  0
  4  5  1  0  0  0  0
  5  6  1  0  0  0  0
  5 10  1  0  0  0  0
  6  7  1  0  0  0  0
  7  8  1  0  0  0  0
  8  9  4  0  0  0  0
  8 14  4  0  0  0  0
  9 10  1  0  0  0  0
  9 11  4  0  0  0  0
 11 12  4  0  0  0  0
 12 13  4  0  0  0  0
 12 15  1  0  0  0  0
 13 14  4  0  0  0  0
M  END
>  <Name_Molregno>
162990

>  <Alpha-2A>
8.15

$$$$
175722
  Marvin  02231216192D 0   1.00000     0.00000     0

 28 32  0  0  0  0  0  0  0  0999 V2000
    1.3600   -2.4534    0.0000 N   0  0  0  0  0  0  0  0  0
    2.0745   -2.0409    0.0000 C   0  0  0  0  0  0  0  0  0
    2.0745   -1.2159    0.0000 C   0  0  0  0  0  0  0  0  0
    2.7890   -0.8034    0.0000 C   0  0  0  0  0  0  0  0  0
    3.5035   -1.2159    0.0000 C   0  0  0  0  0  0  0  0  0
    3.5035   -2.0409    0.0000 C   0  0  0  0  0  0  0  0  0
    2.7890   -2.4534    0.0000 C   0  0  0  0  0  0  0  0  0
    1.3600   -0.8034    0.0000 C   0  0  0  0  0  0  0  0  0
    1.3600    0.0216    0.0000 N   0  0  0  0  0  0  0  0  0
    2.0745    0.4341    0.0000 C   0  0  0  0  0  0  0  0  0
    2.0745    1.2591    0.0000 C   0  0  0  0  0  0  0  0  0
    2.7890    1.6716    0.0000 C   0  0  0  0  0  0  0  0  0
    3.5035    1.2591    0.0000 C   0  0  0  0  0  0  0  0  0
    4.2179    1.6716    0.0000 N   0  0  0  0  0  0  0  0  0
    4.2179    2.4966    0.0000 C   0  0  0  0  0  0  0  0  0
    4.9324    2.9091    0.0000 C   0  0  0  0  0  0  0  0  0
    5.6469    2.4966    0.0000 N   0  0  0  0  0  0  0  0  0
    5.6469    1.6716    0.0000 C   0  0  0  0  0  0  0  0  0
    4.9324    1.2591    0.0000 C   0  0  0  0  0  0  0  0  0
    6.3613    2.9091    0.0000 C   0  0  0  0  0  0  0  0  0
    3.5035    0.4341    0.0000 C   0  0  0  0  0  0  0  0  0
    2.7890    0.0216    0.0000 C   0  0  0  0  0  0  0  0  0
    0.6456   -1.2159    0.0000 C   0  0  0  0  0  0  0  0  0
    0.6456   -2.0409    0.0000 C   0  0  0  0  0  0  0  0  0
   -0.0689   -2.4534    0.0000 C   0  0  0  0  0  0  0  0  0
   -0.7834   -2.0409    0.0000 C   0  0  0  0  0  0  0  0  0
   -0.7834   -1.2159    0.0000 C   0  0  0  0  0  0  0  0  0
   -0.0689   -0.8034    0.0000 C   0  0  0  0  0  0  0  0  0
  1  2  4  0  0  0  0
  1 24  4  0  0  0  0
  2  3  4  0  0  0  0
  2  7  4  0  0  0  0
  3  4  4  0  0  0  0
  3  8  4  0  0  0  0
  4  5  4  0  0  0  0
  5  6  4  0  0  0  0
  6  7  4  0  0  0  0
  8  9  1  0  0  0  0
  8 23  4  0  0  0  0
  9 10  1  0  0  0  0
 10 11  4  0  0  0  0
 10 22  4  0  0  0  0
 11 12  4  0  0  0  0
 12 13  4  0  0  0  0
 13 14  1  0  0  0  0
 13 21  4  0  0  0  0
 14 15  1  0  0  0  0
 14 19  1  0  0  0  0
 15 16  1  0  0  0  0
 16 17  1  0  0  0  0
 17 18  1  0  0  0  0
 17 20  1  0  0  0  0
 18 19  1  0  0  0  0
 21 22  4  0  0  0  0
 23 24  4  0  0  0  0
 23 28  4  0  0  0  0
 24 25  4  0  0  0  0
 25 26  4  0  0  0  0
 26 27  4  0  0  0  0
 27 28  4  0  0  0  0
M  STY  1   1 DAT
M  SAL   1  1   1
M  SDT   1 MRV_IMPLICIT_H                                        
M  SDD   1     0.0000    0.0000    DR    ALL  0       0  
M  SED   1 IMPL_H1
M  END
>  <Name_Molregno>
175722

>  <Alpha-2A>
5.49

>  <Alpha-2B>
5.82

>  <Alpha-2C>
7.55

$$$$
184158
  Marvin  02231216192D 0   1.00000     0.00000     0

 17 18  0  0  1  0  0  0  0  0999 V2000
    0.1521   -1.5116    0.0000 F   0  0  0  0  0  0  0  0  0
    0.8665   -1.0991    0.0000 C   0  0  0  0  0  0  0  0  0
    1.2790   -1.8136    0.0000 F   0  0  0  0  0  0  0  0  0
    0.4540   -0.3847    0.0000 F   0  0  0  0  0  0  0  0  0
    1.5810   -0.6866    0.0000 C   0  0  0  0  0  0  0  0  0
    1.5810    0.1384    0.0000 N   0  0  0  0  0  0  0  0  0
    2.2955    0.5509    0.0000 C   0  0  0  0  0  0  0  0  0
    3.0100    0.1384    0.0000 C   0  0  0  0  0  0  0  0  0
    3.7244    0.5509    0.0000 C   0  0  0  0  0  0  0  0  0
    4.4389    0.1384    0.0000 C   0  0  0  0  0  0  0  0  0
    5.1534    0.5509    0.0000 N   0  3  0  0  0  0  0  0  0
    5.1534    1.3759    0.0000 O   0  5  0  0  0  0  0  0  0
    5.8678    0.1384    0.0000 O   0  5  0  0  0  0  0  0  0
    4.4389   -0.6866    0.0000 C   0  0  0  0  0  0  0  0  0
    3.7244   -1.0991    0.0000 C   0  0  0  0  0  0  0  0  0
    3.0100   -0.6866    0.0000 C   0  0  0  0  0  0  0  0  0
    2.2955   -1.0991    0.0000 C   0  0  0  0  0  0  0  0  0
  1  2  1  0  0  0  0
  2  3  1  0  0  0  0
  2  4  1  0  0  0  0
  2  5  1  0  0  0  0
  5  6  1  0  0  0  0
  5 17  1  0  0  0  0
  6  7  1  0  0  0  0
  7  8  1  0  0  0  0
  8  9  4  0  0  0  0
  8 16  4  0  0  0  0
  9 10  4  0  0  0  0
 10 11  1  0  0  0  0
 10 14  4  0  0  0  0
 11 12  1  0  0  0  0
 11 13  1  0  0  0  0
 14 15  4  0  0  0  0
 15 16  4  0  0  0  0
 16 17  1  0  0  0  0
M  CHG  3  11   1  12  -1  13  -1
M  END
>  <Name_Molregno>
184158

>  <Alpha-2A>
5.47

$$$$
184810
  Marvin  02231216192D 0   1.00000     0.00000     0

 15 16  0  0  1  0  0  0  0  0999 V2000
    0.0841   -1.4451    0.0000 Br  0  0  0  0  0  0  0  0  0
    0.7985   -1.0326    0.0000 C   0  0  0  0  0  0  0  0  0
    1.5130   -1.4451    0.0000 C   0  0  0  0  0  0  0  0  0
    2.2275   -1.0326    0.0000 C   0  0  0  0  0  0  0  0  0
    2.2275   -0.2076    0.0000 C   0  0  0  0  0  0  0  0  0
    2.9419    0.2049    0.0000 C   0  0  0  0  0  0  0  0  0
    3.6564   -0.2076    0.0000 C   0  0  0  0  0  0  0  0  0
    3.6564   -1.0326    0.0000 N   0  0  0  0  0  0  0  0  0
    2.9419   -1.4451    0.0000 C   0  0  0  0  0  0  0  0  0
    4.3709    0.2049    0.0000 C   0  0  0  0  0  0  0  0  0
    5.0854    0.6174    0.0000 F   0  0  0  0  0  0  0  0  0
    4.7834   -0.5096    0.0000 F   0  0  0  0  0  0  0  0  0
    3.9584    0.9194    0.0000 F   0  0  0  0  0  0  0  0  0
    1.5130    0.2049    0.0000 C   0  0  0  0  0  0  0  0  0
    0.7985   -0.2076    0.0000 C   0  0  0  0  0  0  0  0  0
  1  2  1  0  0  0  0
  2  3  4  0  0  0  0
  2 15  4  0  0  0  0
  3  4  4  0  0  0  0
  4  5  4  0  0  0  0
  4  9  1  0  0  0  0
  5  6  1  0  0  0  0
  5 14  4  0  0  0  0
  6  7  1  0  0  0  0
  7  8  1  0  0  0  0
  7 10  1  0  0  0  0
  8  9  1  0  0  0  0
 10 11  1  0  0  0  0
 10 12  1  0  0  0  0
 10 13  1  0  0  0  0
 14 15  4  0  0  0  0
M  END
>  <Name_Molregno>
184810

>  <Alpha-2A>
5.36

$$$$
190658
  Marvin  02231216192D 0   1.00000     0.00000     0

 19 20  0  0  0  0  0  0  0  0999 V2000
    0.5558   -4.6925    0.0000 Cl  0  0  0  0  0  0  0  0  0
    0.5558   -3.8675    0.0000 C   0  0  0  0  0  0  0  0  0
    1.2703   -3.4550    0.0000 C   0  0  0  0  0  0  0  0  0
    1.2703   -2.6300    0.0000 C   0  0  0  0  0  0  0  0  0
    1.9153   -2.1156    0.0000 C   0  0  0  0  0  0  0  0  0
    2.7196   -2.2992    0.0000 C   0  0  0  0  0  0  0  0  0
    3.0775   -3.0425    0.0000 N   0  0  0  0  0  0  0  0  0
    2.7196   -3.7858    0.0000 C   0  0  0  0  0  0  0  0  0
    1.9153   -3.9694    0.0000 C   0  0  0  0  0  0  0  0  0
    3.9025   -3.0425    0.0000 C   0  0  0  0  0  0  0  0  0
    0.5558   -2.2175    0.0000 C   0  0  0  0  0  0  0  0  0
    0.5558   -1.3925    0.0000 O   0  0  0  0  0  0  0  0  0
   -0.1587   -0.9800    0.0000 C   0  0  0  0  0  0  0  0  0
   -0.1587   -0.1550    0.0000 C   0  0  0  0  0  0  0  0  0
   -0.8732    0.2575    0.0000 C   0  0  0  0  0  0  0  0  0
   -1.5876   -0.1550    0.0000 C   0  0  0  0  0  0  0  0  0
   -0.8732    1.0825    0.0000 C   0  0  0  0  0  0  0  0  0
   -0.1587   -2.6300    0.0000 C   0  0  0  0  0  0  0  0  0
   -0.1587   -3.4550    0.0000 C   0  0  0  0  0  0  0  0  0
  1  2  1  0  0  0  0
  2  3  4  0  0  0  0
  2 19  4  0  0  0  0
  3  4  4  0  0  0  0
  3  9  1  0  0  0  0
  4  5  1  0  0  0  0
  4 11  4  0  0  0  0
  5  6  1  0  0  0  0
  6  7  1  0  0  0  0
  7  8  1  0  0  0  0
  7 10  1  0  0  0  0
  8  9  1  0  0  0  0
 11 12  1  0  0  0  0
 11 18  4  0  0  0  0
 12 13  1  0  0  0  0
 13 14  1  0  0  0  0
 14 15  2  0  0  0  0
 15 16  1  0  0  0  0
 15 17  1  0  0  0  0
 18 19  4  0  0  0  0
M  END
>  <Name_Molregno>
190658

>  <Alpha-1A>
7.48

>  <Alpha-1B>
7.06

>  <Alpha-2A>
7.23

>  <Alpha-2B>
6.85

>  <Alpha-2C>
7.19

$$$$
213870
  Marvin  02231216192D 0   1.00000     0.00000     0

 20 22  0  0  1  0  0  0  0  0999 V2000
    1.9702   -1.1809    0.0000 N   0  0  0  0  0  0  0  0  0
    1.7152   -1.9655    0.0000 C   0  0  0  0  0  0  0  0  0
    0.8902   -1.9655    0.0000 C   0  0  0  0  0  0  0  0  0
    0.6353   -1.1809    0.0000 N   0  0  0  0  0  0  0  0  0
    1.3027   -0.6960    0.0000 C   0  0  0  0  0  0  0  0  0
    1.3027    0.1290    0.0000 C   0  0  0  0  0  0  0  0  0
    2.0172    0.5415    0.0000 N   0  0  0  0  0  0  0  0  0
    2.0172    1.3665    0.0000 C   0  0  0  0  0  0  0  0  0
    1.3027    1.7790    0.0000 C   0  0  0  0  0  0  0  0  0
    1.3027    2.6040    0.0000 C   0  0  0  0  0  0  0  0  0
    2.0172    3.0165    0.0000 C   0  0  0  0  0  0  0  0  0
    2.7317    2.6040    0.0000 C   0  0  0  0  0  0  0  0  0
    2.7317    1.7790    0.0000 C   0  0  0  0  0  0  0  0  0
    3.4461    1.3665    0.0000 C   0  0  0  0  0  0  0  0  0
    4.1606    1.7790    0.0000 C   0  0  0  0  0  0  0  0  0
    4.8751    1.3665    0.0000 C   0  0  0  0  0  0  0  0  0
    4.8751    0.5415    0.0000 C   0  0  0  0  0  0  0  0  0
    4.1606    0.1290    0.0000 C   0  0  0  0  0  0  0  0  0
    3.4461    0.5415    0.0000 C   0  0  0  0  0  0  0  0  0
    0.5882    0.5415    0.0000 C   0  0  0  0  0  0  0  0  0
  1  2  1  0  0  0  0
  1  5  1  0  0  0  0
  2  3  1  0  0  0  0
  3  4  1  0  0  0  0
  4  5  2  0  0  0  0
  5  6  1  0  0  0  0
  6  7  1  0  0  0  0
  6 20  1  0  0  0  0
  7  8  1  0  0  0  0
  8  9  4  0  0  0  0
  8 13  4  0  0  0  0
  9 10  4  0  0  0  0
 10 11  4  0  0  0  0
 11 12  4  0  0  0  0
 12 13  4  0  0  0  0
 13 14  1  0  0  0  0
 14 15  4  0  0  0  0
 14 19  4  0  0  0  0
 15 16  4  0  0  0  0
 16 17  4  0  0  0  0
 17 18  4  0  0  0  0
 18 19  4  0  0  0  0
M  END
>  <Name_Molregno>
213870

>  <Alpha-2A>
7.04

>  <Alpha-2B>
5.94

>  <Alpha-2C>
6.15

$$$$
213988
  Marvin  02231216192D 0   1.00000     0.00000     0

 20 22  0  0  1  0  0  0  0  0999 V2000
   -0.6263    0.1335    0.0000 O   0  0  0  0  0  0  0  0  0
   -1.3408   -0.2790    0.0000 C   0  0  0  0  0  0  0  0  0
   -2.0552    0.1335    0.0000 C   0  0  0  0  0  0  0  0  0
   -1.3408   -1.1040    0.0000 C   0  0  0  0  0  0  0  0  0
   -0.6733   -1.5889    0.0000 N   0  0  0  0  0  0  0  0  0
   -0.9283   -2.3735    0.0000 C   0  0  0  0  0  0  0  0  0
   -1.7533   -2.3735    0.0000 C   0  0  0  0  0  0  0  0  0
   -2.0082   -1.5889    0.0000 N   0  0  0  0  0  0  0  0  0
   -0.6263    0.9585    0.0000 C   0  0  0  0  0  0  0  0  0
   -1.3408    1.3710    0.0000 C   0  0  0  0  0  0  0  0  0
   -1.3408    2.1960    0.0000 C   0  0  0  0  0  0  0  0  0
   -0.6263    2.6085    0.0000 C   0  0  0  0  0  0  0  0  0
    0.0882    2.1960    0.0000 C   0  0  0  0  0  0  0  0  0
    0.0882    1.3710    0.0000 C   0  0  0  0  0  0  0  0  0
    0.8026    0.9585    0.0000 C   0  0  0  0  0  0  0  0  0
    1.5171    1.3710    0.0000 C   0  0  0  0  0  0  0  0  0
    2.2316    0.9585    0.0000 C   0  0  0  0  0  0  0  0  0
    2.2316    0.1335    0.0000 C   0  0  0  0  0  0  0  0  0
    1.5171   -0.2790    0.0000 C   0  0  0  0  0  0  0  0  0
    0.8026    0.1335    0.0000 C   0  0  0  0  0  0  0  0  0
  1  2  1  0  0  0  0
  1  9  1  0  0  0  0
  2  3  1  0  0  0  0
  2  4  1  0  0  0  0
  4  5  1  0  0  0  0
  4  8  2  0  0  0  0
  5  6  1  0  0  0  0
  6  7  1  0  0  0  0
  7  8  1  0  0  0  0
  9 10  4  0  0  0  0
  9 14  4  0  0  0  0
 10 11  4  0  0  0  0
 11 12  4  0  0  0  0
 12 13  4  0  0  0  0
 13 14  4  0  0  0  0
 14 15  1  0  0  0  0
 15 16  4  0  0  0  0
 15 20  4  0  0  0  0
 16 17  4  0  0  0  0
 17 18  4  0  0  0  0
 18 19  4  0  0  0  0
 19 20  4  0  0  0  0
M  END
>  <Name_Molregno>
213988

>  <Alpha-2A>
7.15

>  <Alpha-2B>
6.21

>  <Alpha-2C>
6.53

$$$$
215972
  Marvin  02231216192D 0   1.00000     0.00000     0

 14 16  0  0  1  0  0  0  0  0999 V2000
    2.6357    1.5331    0.0000 N   0  0  0  0  0  0  0  0  0
    3.3315    1.0899    0.0000 C   0  0  0  0  0  0  0  0  0
    3.1251    0.2912    0.0000 N   0  0  0  0  0  0  0  0  0
    2.3016    0.2407    0.0000 C   0  0  0  0  0  0  0  0  0
    1.9992    1.0082    0.0000 C   0  0  0  0  0  0  0  0  0
    1.7786    1.8032    0.0000 C   0  0  0  0  0  0  0  0  0
    0.9798    2.0096    0.0000 C   0  0  0  0  0  0  0  0  0
    0.4017    1.4211    0.0000 C   0  0  0  0  0  0  0  0  0
    0.6222    0.6262    0.0000 C   0  0  0  0  0  0  0  0  0
    1.4210    0.4197    0.0000 C   0  0  0  0  0  0  0  0  0
    0.0441    0.0376    0.0000 C   0  0  0  0  0  0  0  0  0
   -0.7547    0.2441    0.0000 C   0  0  0  0  0  0  0  0  0
   -0.9753    1.0391    0.0000 C   0  0  0  0  0  0  0  0  0
   -0.3971    1.6276    0.0000 C   0  0  0  0  0  0  0  0  0
  1  2  1  0  0  0  0
  1  5  1  0  0  0  0
  2  3  2  0  0  0  0
  3  4  1  0  0  0  0
  4  5  1  0  0  0  0
  5  6  1  0  0  0  0
  5 10  1  0  0  0  0
  6  7  1  0  0  0  0
  7  8  1  0  0  0  0
  8  9  4  0  0  0  0
  8 14  4  0  0  0  0
  9 10  1  0  0  0  0
  9 11  4  0  0  0  0
 11 12  4  0  0  0  0
 12 13  4  0  0  0  0
 13 14  4  0  0  0  0
M  END
>  <Name_Molregno>
215972

>  <Alpha-2A>
7.47

$$$$
215992
  Marvin  02231216192D 0   1.00000     0.00000     0

 16 18  0  0  1  0  0  0  0  0999 V2000
   -1.5984   -0.1647    0.0000 Cl  0  0  0  0  0  0  0  0  0
   -1.8190   -0.9596    0.0000 C   0  0  0  0  0  0  0  0  0
   -1.2408   -1.5481    0.0000 C   0  0  0  0  0  0  0  0  0
   -0.4421   -1.3417    0.0000 C   0  0  0  0  0  0  0  0  0
    0.1361   -1.9302    0.0000 C   0  0  0  0  0  0  0  0  0
    0.4386   -1.1627    0.0000 N   0  0  0  0  0  0  0  0  0
    1.2620   -1.2131    0.0000 C   0  0  0  0  0  0  0  0  0
    1.4685   -2.0119    0.0000 O   0  0  0  0  0  0  0  0  0
    0.7726   -2.4551    0.0000 C   0  0  0  0  0  0  0  0  0
    1.7869   -0.5766    0.0000 N   0  0  0  0  0  0  0  0  0
   -0.0845   -2.7252    0.0000 C   0  0  0  0  0  0  0  0  0
   -0.8832   -2.9316    0.0000 C   0  0  0  0  0  0  0  0  0
   -1.4614   -2.3431    0.0000 C   0  0  0  0  0  0  0  0  0
   -2.2602   -2.5495    0.0000 C   0  0  0  0  0  0  0  0  0
   -2.8383   -1.9610    0.0000 C   0  0  0  0  0  0  0  0  0
   -2.6177   -1.1661    0.0000 C   0  0  0  0  0  0  0  0  0
  1  2  1  0  0  0  0
  2  3  4  0  0  0  0
  2 16  4  0  0  0  0
  3  4  1  0  0  0  0
  3 13  4  0  0  0  0
  4  5  1  0  0  0  0
  5  6  1  0  0  0  0
  5  9  1  0  0  0  0
  5 11  1  0  0  0  0
  6  7  2  0  0  0  0
  7  8  1  0  0  0  0
  7 10  1  0  0  0  0
  8  9  1  0  0  0  0
 11 12  1  0  0  0  0
 12 13  1  0  0  0  0
 13 14  4  0  0  0  0
 14 15  4  0  0  0  0
 15 16  4  0  0  0  0
M  END
>  <Name_Molregno>
215992

>  <Alpha-2A>
8.8

$$$$
216400
  Marvin  02231216192D 0   1.00000     0.00000     0

 15 17  0  0  1  0  0  0  0  0999 V2000
   -1.2692   -0.1210    0.0000 F   0  0  0  0  0  0  0  0  0
   -1.4898   -0.9160    0.0000 C   0  0  0  0  0  0  0  0  0
   -0.9116   -1.5045    0.0000 C   0  0  0  0  0  0  0  0  0
   -0.1129   -1.2980    0.0000 C   0  0  0  0  0  0  0  0  0
    0.4653   -1.8865    0.0000 C   0  0  0  0  0  0  0  0  0
    0.7678   -1.1190    0.0000 N   0  0  0  0  0  0  0  0  0
    1.5912   -1.1695    0.0000 C   0  0  0  0  0  0  0  0  0
    1.7977   -1.9682    0.0000 N   0  0  0  0  0  0  0  0  0
    1.1018   -2.4114    0.0000 C   0  0  0  0  0  0  0  0  0
    0.2447   -2.6815    0.0000 C   0  0  0  0  0  0  0  0  0
   -0.5540   -2.8879    0.0000 C   0  0  0  0  0  0  0  0  0
   -1.1322   -2.2994    0.0000 C   0  0  0  0  0  0  0  0  0
   -1.9310   -2.5059    0.0000 C   0  0  0  0  0  0  0  0  0
   -2.5091   -1.9174    0.0000 C   0  0  0  0  0  0  0  0  0
   -2.2885   -1.1224    0.0000 C   0  0  0  0  0  0  0  0  0
  1  2  1  0  0  0  0
  2  3  4  0  0  0  0
  2 15  4  0  0  0  0
  3  4  1  0  0  0  0
  3 12  4  0  0  0  0
  4  5  1  0  0  0  0
  5  6  1  0  0  0  0
  5  9  1  0  0  0  0
  5 10  1  0  0  0  0
  6  7  1  0  0  0  0
  7  8  2  0  0  0  0
  8  9  1  0  0  0  0
 10 11  1  0  0  0  0
 11 12  1  0  0  0  0
 12 13  4  0  0  0  0
 13 14  4  0  0  0  0
 14 15  4  0  0  0  0
M  END
>  <Name_Molregno>
216400

>  <Alpha-2A>
7.92

$$$$
216459
  Marvin  02231216192D 0   1.00000     0.00000     0

 16 18  0  0  1  0  0  0  0  0999 V2000
   -1.8620    0.2832    0.0000 O   0  0  0  0  0  0  0  0  0
   -2.4402    0.8718    0.0000 C   0  0  0  0  0  0  0  0  0
   -2.0826   -0.5117    0.0000 C   0  0  0  0  0  0  0  0  0
   -1.5044   -1.1002    0.0000 C   0  0  0  0  0  0  0  0  0
   -0.7057   -0.8938    0.0000 C   0  0  0  0  0  0  0  0  0
   -0.1275   -1.4823    0.0000 C   0  0  0  0  0  0  0  0  0
    0.1750   -0.7147    0.0000 N   0  0  0  0  0  0  0  0  0
    0.9984   -0.7652    0.0000 C   0  0  0  0  0  0  0  0  0
    1.2049   -1.5640    0.0000 N   0  0  0  0  0  0  0  0  0
    0.5090   -2.0072    0.0000 C   0  0  0  0  0  0  0  0  0
   -0.3481   -2.2773    0.0000 C   0  0  0  0  0  0  0  0  0
   -1.1469   -2.4837    0.0000 C   0  0  0  0  0  0  0  0  0
   -1.7250   -1.8952    0.0000 C   0  0  0  0  0  0  0  0  0
   -2.5238   -2.1016    0.0000 C   0  0  0  0  0  0  0  0  0
   -3.1019   -1.5131    0.0000 C   0  0  0  0  0  0  0  0  0
   -2.8814   -0.7182    0.0000 C   0  0  0  0  0  0  0  0  0
  1  2  1  0  0  0  0
  1  3  1  0  0  0  0
  3  4  4  0  0  0  0
  3 16  4  0  0  0  0
  4  5  1  0  0  0  0
  4 13  4  0  0  0  0
  5  6  1  0  0  0  0
  6  7  1  0  0  0  0
  6 10  1  0  0  0  0
  6 11  1  0  0  0  0
  7  8  1  0  0  0  0
  8  9  2  0  0  0  0
  9 10  1  0  0  0  0
 11 12  1  0  0  0  0
 12 13  1  0  0  0  0
 13 14  4  0  0  0  0
 14 15  4  0  0  0  0
 15 16  4  0  0  0  0
M  END
>  <Name_Molregno>
216459

>  <Alpha-2A>
7.29

$$$$
216872
  Marvin  02231216192D 0   1.00000     0.00000     0

 16 18  0  0  1  0  0  0  0  0999 V2000
    0.2706   -2.4473    0.0000 Cl  0  0  0  0  0  0  0  0  0
    0.4912   -1.6523    0.0000 C   0  0  0  0  0  0  0  0  0
   -0.0870   -1.0638    0.0000 C   0  0  0  0  0  0  0  0  0
    0.1336   -0.2688    0.0000 C   0  0  0  0  0  0  0  0  0
   -0.4446    0.3197    0.0000 Cl  0  0  0  0  0  0  0  0  0
    0.9324   -0.0624    0.0000 C   0  0  0  0  0  0  0  0  0
    1.5105   -0.6509    0.0000 C   0  0  0  0  0  0  0  0  0
    2.3093   -0.4444    0.0000 C   0  0  0  0  0  0  0  0  0
    2.8874   -1.0330    0.0000 C   0  0  0  0  0  0  0  0  0
    3.1899   -0.2654    0.0000 N   0  0  0  0  0  0  0  0  0
    4.0134   -0.3159    0.0000 C   0  0  0  0  0  0  0  0  0
    4.2198   -1.1146    0.0000 N   0  0  0  0  0  0  0  0  0
    3.5240   -1.5578    0.0000 C   0  0  0  0  0  0  0  0  0
    2.6669   -1.8279    0.0000 C   0  0  0  0  0  0  0  0  0
    1.8681   -2.0344    0.0000 C   0  0  0  0  0  0  0  0  0
    1.2899   -1.4459    0.0000 C   0  0  0  0  0  0  0  0  0
  1  2  1  0  0  0  0
  2  3  4  0  0  0  0
  2 16  4  0  0  0  0
  3  4  4  0  0  0  0
  4  5  1  0  0  0  0
  4  6  4  0  0  0  0
  6  7  4  0  0  0  0
  7  8  1  0  0  0  0
  7 16  4  0  0  0  0
  8  9  1  0  0  0  0
  9 10  1  0  0  0  0
  9 13  1  0  0  0  0
  9 14  1  0  0  0  0
 10 11  1  0  0  0  0
 11 12  2  0  0  0  0
 12 13  1  0  0  0  0
 14 15  1  0  0  0  0
 15 16  1  0  0  0  0
M  END
>  <Name_Molregno>
216872

>  <Alpha-2A>
8.52

$$$$
216954
  Marvin  02231216192D 0   1.00000     0.00000     0

 16 18  0  0  1  0  0  0  0  0999 V2000
   -3.2668    0.4444    0.0000 O   0  0  0  0  0  0  0  0  0
   -4.0655    0.6508    0.0000 C   0  0  0  0  0  0  0  0  0
   -3.0462   -0.3506    0.0000 C   0  0  0  0  0  0  0  0  0
   -2.2474   -0.5571    0.0000 C   0  0  0  0  0  0  0  0  0
   -1.6693    0.0315    0.0000 C   0  0  0  0  0  0  0  0  0
   -0.8705   -0.1750    0.0000 C   0  0  0  0  0  0  0  0  0
   -0.6499   -0.9699    0.0000 C   0  0  0  0  0  0  0  0  0
   -0.0134   -0.4451    0.0000 N   0  0  0  0  0  0  0  0  0
    0.6825   -0.8883    0.0000 C   0  0  0  0  0  0  0  0  0
    0.4760   -1.6870    0.0000 N   0  0  0  0  0  0  0  0  0
   -0.3474   -1.7375    0.0000 C   0  0  0  0  0  0  0  0  0
   -1.2281   -1.5585    0.0000 C   0  0  0  0  0  0  0  0  0
   -2.0268   -1.3520    0.0000 C   0  0  0  0  0  0  0  0  0
   -2.6050   -1.9405    0.0000 C   0  0  0  0  0  0  0  0  0
   -3.4038   -1.7341    0.0000 C   0  0  0  0  0  0  0  0  0
   -3.6243   -0.9391    0.0000 C   0  0  0  0  0  0  0  0  0
  1  2  1  0  0  0  0
  1  3  1  0  0  0  0
  3  4  4  0  0  0  0
  3 16  4  0  0  0  0
  4  5  1  0  0  0  0
  4 13  4  0  0  0  0
  5  6  1  0  0  0  0
  6  7  1  0  0  0  0
  7  8  1  0  0  0  0
  7 11  1  0  0  0  0
  7 12  1  0  0  0  0
  8  9  1  0  0  0  0
  9 10  2  0  0  0  0
 10 11  1  0  0  0  0
 12 13  1  0  0  0  0
 13 14  4  0  0  0  0
 14 15  4  0  0  0  0
 15 16  4  0  0  0  0
M  END
>  <Name_Molregno>
216954

>  <Alpha-2A>
7.92

$$$$
217001
  Marvin  02231216192D 0   1.00000     0.00000     0

 16 18  0  0  1  0  0  0  0  0999 V2000
   -5.0237    0.6278    0.0000 O   0  0  0  0  0  0  0  0  0
   -5.6019    0.0393    0.0000 C   0  0  0  0  0  0  0  0  0
   -4.2250    0.4213    0.0000 C   0  0  0  0  0  0  0  0  0
   -3.6468    1.0099    0.0000 C   0  0  0  0  0  0  0  0  0
   -2.8480    0.8034    0.0000 C   0  0  0  0  0  0  0  0  0
   -2.2699    1.3919    0.0000 C   0  0  0  0  0  0  0  0  0
   -1.4711    1.1855    0.0000 C   0  0  0  0  0  0  0  0  0
   -1.2505    0.3905    0.0000 C   0  0  0  0  0  0  0  0  0
   -0.6140    0.9154    0.0000 N   0  0  0  0  0  0  0  0  0
    0.0818    0.4722    0.0000 C   0  0  0  0  0  0  0  0  0
   -0.1246   -0.3266    0.0000 N   0  0  0  0  0  0  0  0  0
   -0.9481   -0.3770    0.0000 C   0  0  0  0  0  0  0  0  0
   -1.8287   -0.1980    0.0000 C   0  0  0  0  0  0  0  0  0
   -2.6275    0.0084    0.0000 C   0  0  0  0  0  0  0  0  0
   -3.2056   -0.5801    0.0000 C   0  0  0  0  0  0  0  0  0
   -4.0044   -0.3736    0.0000 C   0  0  0  0  0  0  0  0  0
  1  2  1  0  0  0  0
  1  3  1  0  0  0  0
  3  4  4  0  0  0  0
  3 16  4  0  0  0  0
  4  5  4  0  0  0  0
  5  6  1  0  0  0  0
  5 14  4  0  0  0  0
  6  7  1  0  0  0  0
  7  8  1  0  0  0  0
  8  9  1  0  0  0  0
  8 12  1  0  0  0  0
  8 13  1  0  0  0  0
  9 10  1  0  0  0  0
 10 11  2  0  0  0  0
 11 12  1  0  0  0  0
 13 14  1  0  0  0  0
 14 15  4  0  0  0  0
 15 16  4  0  0  0  0
M  END
>  <Name_Molregno>
217001

>  <Alpha-2A>
7.06

$$$$
217002
  Marvin  02231216192D 0   1.00000     0.00000     0

 16 18  0  0  1  0  0  0  0  0999 V2000
   -3.8945   -0.4611    0.0000 O   0  0  0  0  0  0  0  0  0
   -4.6933   -0.6675    0.0000 C   0  0  0  0  0  0  0  0  0
   -3.3164   -1.0496    0.0000 C   0  0  0  0  0  0  0  0  0
   -2.5176   -0.8431    0.0000 C   0  0  0  0  0  0  0  0  0
   -1.9394   -1.4317    0.0000 C   0  0  0  0  0  0  0  0  0
   -1.1407   -1.2252    0.0000 C   0  0  0  0  0  0  0  0  0
   -0.5625   -1.8137    0.0000 C   0  0  0  0  0  0  0  0  0
   -0.2601   -1.0462    0.0000 N   0  0  0  0  0  0  0  0  0
    0.5634   -1.0967    0.0000 C   0  0  0  0  0  0  0  0  0
    0.7698   -1.8954    0.0000 N   0  0  0  0  0  0  0  0  0
    0.0740   -2.3386    0.0000 C   0  0  0  0  0  0  0  0  0
   -0.7831   -2.6087    0.0000 C   0  0  0  0  0  0  0  0  0
   -1.5819   -2.8151    0.0000 C   0  0  0  0  0  0  0  0  0
   -2.1600   -2.2266    0.0000 C   0  0  0  0  0  0  0  0  0
   -2.9588   -2.4331    0.0000 C   0  0  0  0  0  0  0  0  0
   -3.5369   -1.8446    0.0000 C   0  0  0  0  0  0  0  0  0
  1  2  1  0  0  0  0
  1  3  1  0  0  0  0
  3  4  4  0  0  0  0
  3 16  4  0  0  0  0
  4  5  4  0  0  0  0
  5  6  1  0  0  0  0
  5 14  4  0  0  0  0
  6  7  1  0  0  0  0
  7  8  1  0  0  0  0
  7 11  1  0  0  0  0
  7 12  1  0  0  0  0
  8  9  1  0  0  0  0
  9 10  2  0  0  0  0
 10 11  1  0  0  0  0
 12 13  1  0  0  0  0
 13 14  1  0  0  0  0
 14 15  4  0  0  0  0
 15 16  4  0  0  0  0
M  END
>  <Name_Molregno>
217002

>  <Alpha-2A>
7.29

$$$$
230589
  Marvin  02231216192D 0   1.00000     0.00000     0

 21 23  0  0  1  0  0  0  0  0999 V2000
    1.8607    2.5785    0.0000 S   0  0  0  0  0  0  0  0  0
    2.1156    3.3632    0.0000 C   0  0  0  0  0  0  0  0  0
    2.9406    3.3632    0.0000 C   0  0  0  0  0  0  0  0  0
    3.1956    2.5785    0.0000 C   0  0  0  0  0  0  0  0  0
    2.5281    2.0936    0.0000 C   0  0  0  0  0  0  0  0  0
    2.5281    1.2686    0.0000 C   0  0  0  0  0  0  0  0  0
    1.8136    0.8561    0.0000 O   0  0  0  0  0  0  0  0  0
    1.8136    0.0311    0.0000 C   0  0  0  0  0  0  0  0  0
    1.0992   -0.3814    0.0000 C   0  0  0  0  0  0  0  0  0
    1.0992   -1.2064    0.0000 C   0  0  0  0  0  0  0  0  0
    1.8136   -1.6189    0.0000 C   0  0  0  0  0  0  0  0  0
    2.5281   -1.2064    0.0000 C   0  0  0  0  0  0  0  0  0
    2.5281   -0.3814    0.0000 C   0  0  0  0  0  0  0  0  0
    0.3847   -1.6189    0.0000 C   0  0  0  0  0  0  0  0  0
   -0.3298   -1.2064    0.0000 C   0  0  0  0  0  0  0  0  0
   -0.3298   -0.3814    0.0000 C   0  0  0  0  0  0  0  0  0
    0.3847    0.0311    0.0000 C   0  0  0  0  0  0  0  0  0
    3.2426    0.8561    0.0000 C   0  0  0  0  0  0  0  0  0
    3.9571    1.2686    0.0000 C   0  0  0  0  0  0  0  0  0
    4.6715    0.8561    0.0000 N   0  0  0  0  0  0  0  0  0
    4.6715    0.0311    0.0000 C   0  0  0  0  0  0  0  0  0
  1  2  4  0  0  0  0
  1  5  4  0  0  0  0
  2  3  4  0  0  0  0
  3  4  4  0  0  0  0
  4  5  4  0  0  0  0
  5  6  1  0  0  0  0
  6  7  1  0  0  0  0
  6 18  1  0  0  0  0
  7  8  1  0  0  0  0
  8  9  4  0  0  0  0
  8 13  4  0  0  0  0
  9 10  4  0  0  0  0
  9 17  4  0  0  0  0
 10 11  4  0  0  0  0
 10 14  4  0  0  0  0
 11 12  4  0  0  0  0
 12 13  4  0  0  0  0
 14 15  4  0  0  0  0
 15 16  4  0  0  0  0
 16 17  4  0  0  0  0
 18 19  1  0  0  0  0
 19 20  1  0  0  0  0
 20 21  1  0  0  0  0
M  END
>  <Name_Molregno>
230589

>  <5-HT1A>
5.3

>  <5-HT1B>
5.4

>  <5-HT1D>
5.52

>  <5-HT1E>
5.43

>  <5-HT2A>
6.3

>  <5-HT2C>
6.04

>  <5-HT6>
6.38

>  <5-HT7>
5.65

>  <Alpha-2A>
6

>  <DOPAMINE D2>
5

>  <Dopamine transporter>
6.24

>  <HISTAMINE H1>
5.64

>  <Muscarinic acetylcholine receptor M1>
6

>  <Muscarinic acetylcholine receptor M2>
6

>  <Norepinephrine transporter>
7.53

>  <Serotonin transporter>
8.48

$$$$
245433
  Marvin  02231216192D 0   1.00000     0.00000     0

 25 27  0  0  1  0  0  0  0  0999 V2000
    0.3559    2.6179    0.0000 Cl  0  0  0  0  0  0  0  0  0
    1.0234    2.1329    0.0000 C   0  0  0  0  0  0  0  0  0
    1.7770    2.4685    0.0000 C   0  0  0  0  0  0  0  0  0
    2.4445    1.9836    0.0000 C   0  0  0  0  0  0  0  0  0
    2.3582    1.1631    0.0000 C   0  0  0  0  0  0  0  0  0
    1.6046    0.8275    0.0000 C   0  0  0  0  0  0  0  0  0
    0.9371    1.3125    0.0000 C   0  0  0  0  0  0  0  0  0
    3.0257    0.6782    0.0000 C   0  0  0  0  0  0  0  0  0
    2.4736    0.0651    0.0000 O   0  0  0  0  0  0  0  0  0
    3.4382    1.3926    0.0000 C   0  0  0  0  0  0  0  0  0
    4.2451    1.2211    0.0000 C   0  0  0  0  0  0  0  0  0
    4.3314    0.4006    0.0000 N   0  0  0  0  0  0  0  0  0
    3.5777    0.0651    0.0000 C   0  0  0  0  0  0  0  0  0
    5.0459   -0.0119    0.0000 C   0  0  0  0  0  0  0  0  0
    5.7603    0.4006    0.0000 C   0  0  0  0  0  0  0  0  0
    6.4748   -0.0119    0.0000 C   0  0  0  0  0  0  0  0  0
    7.1893    0.4006    0.0000 C   0  0  0  0  0  0  0  0  0
    7.1893    1.2256    0.0000 O   0  0  0  0  0  0  0  0  0
    7.9037   -0.0119    0.0000 C   0  0  0  0  0  0  0  0  0
    8.6182    0.4006    0.0000 C   0  0  0  0  0  0  0  0  0
    9.3327   -0.0119    0.0000 C   0  0  0  0  0  0  0  0  0
    9.3327   -0.8369    0.0000 C   0  0  0  0  0  0  0  0  0
   10.0472   -1.2494    0.0000 F   0  0  0  0  0  0  0  0  0
    8.6182   -1.2494    0.0000 C   0  0  0  0  0  0  0  0  0
    7.9037   -0.8369    0.0000 C   0  0  0  0  0  0  0  0  0
  1  2  1  0  0  0  0
  2  3  4  0  0  0  0
  2  7  4  0  0  0  0
  3  4  4  0  0  0  0
  4  5  4  0  0  0  0
  5  6  4  0  0  0  0
  5  8  1  0  0  0  0
  6  7  4  0  0  0  0
  8  9  1  0  0  0  0
  8 10  1  0  0  0  0
  8 13  1  0  0  0  0
 10 11  1  0  0  0  0
 11 12  1  0  0  0  0
 12 13  1  0  0  0  0
 12 14  1  0  0  0  0
 14 15  1  0  0  0  0
 15 16  1  0  0  0  0
 16 17  1  0  0  0  0
 17 18  2  0  0  0  0
 17 19  1  0  0  0  0
 19 20  4  0  0  0  0
 19 25  4  0  0  0  0
 20 21  4  0  0  0  0
 21 22  4  0  0  0  0
 22 23  1  0  0  0  0
 22 24  4  0  0  0  0
 24 25  4  0  0  0  0
M  END
>  <Name_Molregno>
245433

>  <5-HT1A>
6.1

>  <5-HT2A>
6.87

>  <5-HT2C>
5.67

>  <Alpha-1A>
7.2

>  <Alpha-1B>
7.18

>  <Alpha-2A>
5.44

>  <Alpha-2B>
5.58

>  <Alpha-2C>
7.41

>  <DOPAMINE D2>
7.07

>  <DOPAMINE D3>
6.45

>  <DOPAMINE D4>
7.7

>  <HISTAMINE H1>
6.21

$$$$
259724
  Marvin  02231216192D 0   1.00000     0.00000     0

 18 20  0  0  1  0  0  0  0  0999 V2000
    0.3094   -0.9505    0.0000 N   0  0  0  0  0  0  0  0  0
    1.0239   -0.5380    0.0000 C   0  0  0  0  0  0  0  0  0
    1.7384   -0.9505    0.0000 C   0  0  0  0  0  0  0  0  0
    2.4528   -0.5380    0.0000 C   0  0  0  0  0  0  0  0  0
    2.4528    0.2870    0.0000 C   0  0  0  0  0  0  0  0  0
    3.1673    0.6995    0.0000 N   0  0  0  0  0  0  0  0  0
    3.8818    0.2870    0.0000 C   0  0  0  0  0  0  0  0  0
    3.8818   -0.5380    0.0000 C   0  0  0  0  0  0  0  0  0
    3.1673   -0.9505    0.0000 C   0  0  0  0  0  0  0  0  0
    3.1673    1.5245    0.0000 C   0  0  0  0  0  0  0  0  0
    3.8818    1.9370    0.0000 C   0  0  0  0  0  0  0  0  0
    3.8818    2.7620    0.0000 C   0  0  0  0  0  0  0  0  0
    1.7384    0.6995    0.0000 C   0  0  0  0  0  0  0  0  0
    1.0239    0.2870    0.0000 C   0  0  0  0  0  0  0  0  0
    0.3094    0.6995    0.0000 C   0  0  0  0  0  0  0  0  0
   -0.4050    0.2870    0.0000 N   0  0  0  0  0  0  0  0  0
   -0.4050   -0.5380    0.0000 C   0  0  0  0  0  0  0  0  0
   -1.1195   -0.9505    0.0000 N   0  0  0  0  0  0  0  0  0
  1  2  4  0  0  0  0
  1 17  4  0  0  0  0
  2  3  1  0  0  0  0
  2 14  4  0  0  0  0
  3  4  1  0  0  0  0
  4  5  1  0  0  0  0
  4  9  1  0  0  0  0
  5  6  1  0  0  0  0
  5 13  1  0  0  0  0
  6  7  1  0  0  0  0
  6 10  1  0  0  0  0
  7  8  1  0  0  0  0
  8  9  1  0  0  0  0
 10 11  1  0  0  0  0
 11 12  1  0  0  0  0
 13 14  1  0  0  0  0
 14 15  4  0  0  0  0
 15 16  4  0  0  0  0
 16 17  4  0  0  0  0
 17 18  1  0  0  0  0
M  END
>  <Name_Molregno>
259724

>  <5-HT1A>
5

>  <5-HT1B>
5

>  <5-HT1D>
5

>  <5-HT2A>
5

>  <5-HT2C>
5.58

>  <Alpha-1A>
5

>  <Alpha-1B>
5

>  <Alpha-2A>
5

>  <Alpha-2B>
5

>  <Alpha-2C>
5

>  <Beta-1>
5

>  <Beta-2>
5

>  <DOPAMINE D1>
5

>  <DOPAMINE D2>
6.33

>  <DOPAMINE D3>
8.65

>  <DOPAMINE D4>
7.72

>  <DOPAMINE D5>
5

$$$$
277586
  Marvin  02231216192D 0   1.00000     0.00000     0

 17 19  0  0  1  0  0  0  0  0999 V2000
   -0.0830    0.0150    0.0000 F   0  0  0  0  0  0  0  0  0
    0.6315   -0.3975    0.0000 C   0  0  0  0  0  0  0  0  0
    1.3459    0.0150    0.0000 C   0  0  0  0  0  0  0  0  0
    2.0604   -0.3975    0.0000 C   0  0  0  0  0  0  0  0  0
    2.7749    0.0150    0.0000 C   0  0  0  0  0  0  0  0  0
    3.4894   -0.3975    0.0000 C   0  0  0  0  0  0  0  0  0
    3.4894   -1.2225    0.0000 C   0  0  0  0  0  0  0  0  0
    2.7749   -1.6350    0.0000 C   0  0  0  0  0  0  0  0  0
    2.0604   -1.2225    0.0000 C   0  0  0  0  0  0  0  0  0
    1.3459   -1.6350    0.0000 C   0  0  0  0  0  0  0  0  0
    0.6315   -1.2225    0.0000 C   0  0  0  0  0  0  0  0  0
    4.2038    0.0150    0.0000 C   0  0  0  0  0  0  0  0  0
    4.9183   -0.3975    0.0000 C   0  0  0  0  0  0  0  0  0
    5.6720   -0.0619    0.0000 N   0  0  0  0  0  0  0  0  0
    6.2240   -0.6750    0.0000 C   0  0  0  0  0  0  0  0  0
    5.8115   -1.3895    0.0000 N   0  0  0  0  0  0  0  0  0
    5.0045   -1.2180    0.0000 C   0  0  0  0  0  0  0  0  0
  1  2  1  0  0  0  0
  2  3  4  0  0  0  0
  2 11  4  0  0  0  0
  3  4  4  0  0  0  0
  4  5  1  0  0  0  0
  4  9  4  0  0  0  0
  5  6  2  0  0  0  0
  6  7  1  0  0  0  0
  6 12  1  0  0  0  0
  7  8  1  0  0  0  0
  8  9  1  0  0  0  0
  9 10  4  0  0  0  0
 10 11  4  0  0  0  0
 12 13  1  0  0  0  0
 13 14  1  0  0  0  0
 13 17  1  0  0  0  0
 14 15  1  0  0  0  0
 15 16  2  0  0  0  0
 16 17  1  0  0  0  0
M  END
>  <Name_Molregno>
277586

>  <Alpha-2A>
6.8

$$$$
277592
  Marvin  02231216192D 0   1.00000     0.00000     0

 17 19  0  0  1  0  0  0  0  0999 V2000
   -4.0731    1.1056    0.0000 F   0  0  0  0  0  0  0  0  0
   -4.0731    0.2806    0.0000 C   0  0  0  0  0  0  0  0  0
   -3.3586   -0.1319    0.0000 C   0  0  0  0  0  0  0  0  0
   -2.6441    0.2806    0.0000 C   0  0  0  0  0  0  0  0  0
   -1.9297   -0.1319    0.0000 C   0  0  0  0  0  0  0  0  0
   -1.9297   -0.9569    0.0000 C   0  0  0  0  0  0  0  0  0
   -2.6441   -1.3694    0.0000 C   0  0  0  0  0  0  0  0  0
   -3.3586   -0.9569    0.0000 C   0  0  0  0  0  0  0  0  0
   -4.0731   -1.3694    0.0000 C   0  0  0  0  0  0  0  0  0
   -4.7875   -0.9569    0.0000 C   0  0  0  0  0  0  0  0  0
   -4.7875   -0.1319    0.0000 C   0  0  0  0  0  0  0  0  0
   -1.2152    0.2806    0.0000 C   0  0  0  0  0  0  0  0  0
   -0.5007   -0.1319    0.0000 C   0  0  0  0  0  0  0  0  0
    0.2530    0.2036    0.0000 N   0  0  0  0  0  0  0  0  0
    0.8050   -0.4094    0.0000 C   0  0  0  0  0  0  0  0  0
    0.3925   -1.1239    0.0000 N   0  0  0  0  0  0  0  0  0
   -0.4145   -0.9524    0.0000 C   0  0  0  0  0  0  0  0  0
  1  2  1  0  0  0  0
  2  3  4  0  0  0  0
  2 11  4  0  0  0  0
  3  4  1  0  0  0  0
  3  8  4  0  0  0  0
  4  5  2  0  0  0  0
  5  6  1  0  0  0  0
  5 12  1  0  0  0  0
  6  7  1  0  0  0  0
  7  8  1  0  0  0  0
  8  9  4  0  0  0  0
  9 10  4  0  0  0  0
 10 11  4  0  0  0  0
 12 13  1  0  0  0  0
 13 14  1  0  0  0  0
 13 17  1  0  0  0  0
 14 15  1  0  0  0  0
 15 16  2  0  0  0  0
 16 17  1  0  0  0  0
M  END
>  <Name_Molregno>
277592

>  <Alpha-2A>
7.4

$$$$
277649
  Marvin  02231216192D 0   1.00000     0.00000     0

 18 21  0  0  1  0  0  0  0  0999 V2000
    3.9848    1.7636    0.0000 N   0  0  0  0  0  0  0  0  0
    4.6380    1.2597    0.0000 C   0  0  0  0  0  0  0  0  0
    4.3606    0.4827    0.0000 N   0  0  0  0  0  0  0  0  0
    3.5359    0.5065    0.0000 C   0  0  0  0  0  0  0  0  0
    3.3037    1.2981    0.0000 C   0  0  0  0  0  0  0  0  0
    2.6749    0.7640    0.0000 C   0  0  0  0  0  0  0  0  0
    1.8980    1.0414    0.0000 C   0  0  0  0  0  0  0  0  0
    1.7498    1.8530    0.0000 C   0  0  0  0  0  0  0  0  0
    2.3785    2.3871    0.0000 C   0  0  0  0  0  0  0  0  0
    3.1555    2.1097    0.0000 C   0  0  0  0  0  0  0  0  0
    0.9728    2.1304    0.0000 C   0  0  0  0  0  0  0  0  0
    0.3441    1.5963    0.0000 C   0  0  0  0  0  0  0  0  0
    0.4923    0.7847    0.0000 C   0  0  0  0  0  0  0  0  0
    1.2692    0.5073    0.0000 C   0  0  0  0  0  0  0  0  0
   -0.1365    0.2506    0.0000 C   0  0  0  0  0  0  0  0  0
   -0.9134    0.5280    0.0000 C   0  0  0  0  0  0  0  0  0
   -1.0616    1.3396    0.0000 C   0  0  0  0  0  0  0  0  0
   -0.4329    1.8737    0.0000 C   0  0  0  0  0  0  0  0  0
  1  2  1  0  0  0  0
  1  5  1  0  0  0  0
  2  3  2  0  0  0  0
  3  4  1  0  0  0  0
  4  5  1  0  0  0  0
  5  6  1  0  0  0  0
  5 10  1  0  0  0  0
  6  7  1  0  0  0  0
  7  8  1  0  0  0  0
  7 14  1  0  0  0  0
  8  9  1  0  0  0  0
  8 11  1  0  0  0  0
  9 10  1  0  0  0  0
 11 12  1  0  0  0  0
 12 13  4  0  0  0  0
 12 18  4  0  0  0  0
 13 14  1  0  0  0  0
 13 15  4  0  0  0  0
 15 16  4  0  0  0  0
 16 17  4  0  0  0  0
 17 18  4  0  0  0  0
M  END
>  <Name_Molregno>
277649

>  <Alpha-2A>
8.9

$$$$
277761
  Marvin  02231216192D 0   1.00000     0.00000     0

 17 20  0  0  1  0  0  0  0  0999 V2000
    3.2093    0.4451    0.0000 N   0  0  0  0  0  0  0  0  0
    3.9490    0.8104    0.0000 C   0  0  0  0  0  0  0  0  0
    4.5250    0.2198    0.0000 N   0  0  0  0  0  0  0  0  0
    4.1413   -0.5106    0.0000 C   0  0  0  0  0  0  0  0  0
    3.3281   -0.3713    0.0000 C   0  0  0  0  0  0  0  0  0
    2.7375   -0.9473    0.0000 C   0  0  0  0  0  0  0  0  0
    2.5140   -1.7415    0.0000 C   0  0  0  0  0  0  0  0  0
    1.9380   -1.1508    0.0000 C   0  0  0  0  0  0  0  0  0
    1.7345   -0.3513    0.0000 C   0  0  0  0  0  0  0  0  0
    0.9403   -0.1278    0.0000 C   0  0  0  0  0  0  0  0  0
    0.3497   -0.7039    0.0000 C   0  0  0  0  0  0  0  0  0
    0.5532   -1.5034    0.0000 C   0  0  0  0  0  0  0  0  0
    1.3474   -1.7268    0.0000 C   0  0  0  0  0  0  0  0  0
   -0.0374   -2.0794    0.0000 C   0  0  0  0  0  0  0  0  0
   -0.8315   -1.8559    0.0000 C   0  0  0  0  0  0  0  0  0
   -1.0351   -1.0564    0.0000 C   0  0  0  0  0  0  0  0  0
   -0.4444   -0.4804    0.0000 C   0  0  0  0  0  0  0  0  0
  1  2  1  0  0  0  0
  1  5  1  0  0  0  0
  2  3  2  0  0  0  0
  3  4  1  0  0  0  0
  4  5  1  0  0  0  0
  5  6  1  0  0  0  0
  6  7  1  0  0  0  0
  6  8  1  0  0  0  0
  7  8  1  0  0  0  0
  8  9  1  0  0  0  0
  8 13  1  0  0  0  0
  9 10  1  0  0  0  0
 10 11  1  0  0  0  0
 11 12  4  0  0  0  0
 11 17  4  0  0  0  0
 12 13  1  0  0  0  0
 12 14  4  0  0  0  0
 14 15  4  0  0  0  0
 15 16  4  0  0  0  0
 16 17  4  0  0  0  0
M  END
>  <Name_Molregno>
277761

>  <Alpha-2A>
8.5

$$$$
278024
  Marvin  02231216192D 0   1.00000     0.00000     0

 15 17  0  0  1  0  0  0  0  0999 V2000
   -0.5052    0.6064    0.0000 O   0  0  0  0  0  0  0  0  0
    0.2794    0.8614    0.0000 C   0  0  0  0  0  0  0  0  0
    0.2794    1.6864    0.0000 C   0  0  0  0  0  0  0  0  0
   -0.5052    1.9413    0.0000 C   0  0  0  0  0  0  0  0  0
   -0.9902    1.2739    0.0000 C   0  0  0  0  0  0  0  0  0
   -1.8152    1.2739    0.0000 C   0  0  0  0  0  0  0  0  0
   -2.2277    0.5594    0.0000 C   0  0  0  0  0  0  0  0  0
   -1.8921   -0.1943    0.0000 N   0  0  0  0  0  0  0  0  0
   -2.5052   -0.7463    0.0000 C   0  0  0  0  0  0  0  0  0
   -3.2197   -0.3338    0.0000 N   0  0  0  0  0  0  0  0  0
   -3.0481    0.4732    0.0000 C   0  0  0  0  0  0  0  0  0
    0.9939    2.0989    0.0000 C   0  0  0  0  0  0  0  0  0
    1.7083    1.6864    0.0000 C   0  0  0  0  0  0  0  0  0
    1.7083    0.8614    0.0000 C   0  0  0  0  0  0  0  0  0
    0.9939    0.4489    0.0000 C   0  0  0  0  0  0  0  0  0
  1  2  4  0  0  0  0
  1  5  4  0  0  0  0
  2  3  4  0  0  0  0
  2 15  4  0  0  0  0
  3  4  4  0  0  0  0
  3 12  4  0  0  0  0
  4  5  4  0  0  0  0
  5  6  1  0  0  0  0
  6  7  1  0  0  0  0
  7  8  1  0  0  0  0
  7 11  1  0  0  0  0
  8  9  1  0  0  0  0
  9 10  2  0  0  0  0
 10 11  1  0  0  0  0
 12 13  4  0  0  0  0
 13 14  4  0  0  0  0
 14 15  4  0  0  0  0
M  END
>  <Name_Molregno>
278024

>  <Alpha-2A>
7.7

$$$$
278025
  Marvin  02231216192D 0   1.00000     0.00000     0

 15 17  0  0  1  0  0  0  0  0999 V2000
    0.3159   -1.3239    0.0000 N   0  0  0  0  0  0  0  0  0
   -0.2972   -1.8760    0.0000 C   0  0  0  0  0  0  0  0  0
   -1.0117   -1.4635    0.0000 N   0  0  0  0  0  0  0  0  0
   -0.8402   -0.6565    0.0000 C   0  0  0  0  0  0  0  0  0
   -0.0197   -0.5703    0.0000 C   0  0  0  0  0  0  0  0  0
    0.3928    0.1442    0.0000 C   0  0  0  0  0  0  0  0  0
    1.2178    0.1442    0.0000 C   0  0  0  0  0  0  0  0  0
    1.7027   -0.5232    0.0000 C   0  0  0  0  0  0  0  0  0
    2.4874   -0.2683    0.0000 C   0  0  0  0  0  0  0  0  0
    2.4874    0.5567    0.0000 C   0  0  0  0  0  0  0  0  0
    1.7027    0.8116    0.0000 C   0  0  0  0  0  0  0  0  0
    3.2018    0.9692    0.0000 C   0  0  0  0  0  0  0  0  0
    3.9163    0.5567    0.0000 C   0  0  0  0  0  0  0  0  0
    3.9163   -0.2683    0.0000 C   0  0  0  0  0  0  0  0  0
    3.2018   -0.6808    0.0000 C   0  0  0  0  0  0  0  0  0
  1  2  1  0  0  0  0
  1  5  1  0  0  0  0
  2  3  2  0  0  0  0
  3  4  1  0  0  0  0
  4  5  1  0  0  0  0
  5  6  1  0  0  0  0
  6  7  1  0  0  0  0
  7  8  1  0  0  0  0
  7 11  1  0  0  0  0
  8  9  1  0  0  0  0
  9 10  4  0  0  0  0
  9 15  4  0  0  0  0
 10 11  1  0  0  0  0
 10 12  4  0  0  0  0
 12 13  4  0  0  0  0
 13 14  4  0  0  0  0
 14 15  4  0  0  0  0
M  END
>  <Name_Molregno>
278025

>  <Alpha-2A>
8.4

$$$$
278166
  Marvin  02231216192D 0   1.00000     0.00000     0

 17 19  0  0  1  0  0  0  0  0999 V2000
   -4.0731    1.1056    0.0000 Cl  0  0  0  0  0  0  0  0  0
   -4.0731    0.2806    0.0000 C   0  0  0  0  0  0  0  0  0
   -3.3586   -0.1319    0.0000 C   0  0  0  0  0  0  0  0  0
   -2.6441    0.2806    0.0000 C   0  0  0  0  0  0  0  0  0
   -1.9297   -0.1319    0.0000 C   0  0  0  0  0  0  0  0  0
   -1.9297   -0.9569    0.0000 C   0  0  0  0  0  0  0  0  0
   -2.6441   -1.3694    0.0000 C   0  0  0  0  0  0  0  0  0
   -3.3586   -0.9569    0.0000 C   0  0  0  0  0  0  0  0  0
   -4.0731   -1.3694    0.0000 C   0  0  0  0  0  0  0  0  0
   -4.7875   -0.9569    0.0000 C   0  0  0  0  0  0  0  0  0
   -4.7875   -0.1319    0.0000 C   0  0  0  0  0  0  0  0  0
   -1.2152    0.2806    0.0000 C   0  0  0  0  0  0  0  0  0
   -0.5007   -0.1319    0.0000 C   0  0  0  0  0  0  0  0  0
    0.2530    0.2036    0.0000 N   0  0  0  0  0  0  0  0  0
    0.8050   -0.4094    0.0000 C   0  0  0  0  0  0  0  0  0
    0.3925   -1.1239    0.0000 N   0  0  0  0  0  0  0  0  0
   -0.4145   -0.9524    0.0000 C   0  0  0  0  0  0  0  0  0
  1  2  1  0  0  0  0
  2  3  4  0  0  0  0
  2 11  4  0  0  0  0
  3  4  4  0  0  0  0
  3  8  4  0  0  0  0
  4  5  4  0  0  0  0
  5  6  4  0  0  0  0
  5 12  1  0  0  0  0
  6  7  4  0  0  0  0
  7  8  4  0  0  0  0
  8  9  4  0  0  0  0
  9 10  4  0  0  0  0
 10 11  4  0  0  0  0
 12 13  1  0  0  0  0
 13 14  1  0  0  0  0
 13 17  1  0  0  0  0
 14 15  1  0  0  0  0
 15 16  2  0  0  0  0
 16 17  1  0  0  0  0
M  END
>  <Name_Molregno>
278166

>  <Alpha-2A>
7.6

$$$$
278393
  Marvin  02231216192D 0   1.00000     0.00000     0

 17 19  0  0  1  0  0  0  0  0999 V2000
   -4.0731    1.1056    0.0000 Cl  0  0  0  0  0  0  0  0  0
   -4.0731    0.2806    0.0000 C   0  0  0  0  0  0  0  0  0
   -3.3586   -0.1319    0.0000 C   0  0  0  0  0  0  0  0  0
   -2.6441    0.2806    0.0000 C   0  0  0  0  0  0  0  0  0
   -1.9297   -0.1319    0.0000 C   0  0  0  0  0  0  0  0  0
   -1.9297   -0.9569    0.0000 C   0  0  0  0  0  0  0  0  0
   -2.6441   -1.3694    0.0000 C   0  0  0  0  0  0  0  0  0
   -3.3586   -0.9569    0.0000 C   0  0  0  0  0  0  0  0  0
   -4.0731   -1.3694    0.0000 C   0  0  0  0  0  0  0  0  0
   -4.7875   -0.9569    0.0000 C   0  0  0  0  0  0  0  0  0
   -4.7875   -0.1319    0.0000 C   0  0  0  0  0  0  0  0  0
   -1.2152    0.2806    0.0000 C   0  0  0  0  0  0  0  0  0
   -0.5007   -0.1319    0.0000 C   0  0  0  0  0  0  0  0  0
    0.2530    0.2036    0.0000 N   0  0  0  0  0  0  0  0  0
    0.8050   -0.4094    0.0000 C   0  0  0  0  0  0  0  0  0
    0.3925   -1.1239    0.0000 N   0  0  0  0  0  0  0  0  0
   -0.4145   -0.9524    0.0000 C   0  0  0  0  0  0  0  0  0
  1  2  1  0  0  0  0
  2  3  4  0  0  0  0
  2 11  4  0  0  0  0
  3  4  1  0  0  0  0
  3  8  4  0  0  0  0
  4  5  2  0  0  0  0
  5  6  1  0  0  0  0
  5 12  1  0  0  0  0
  6  7  1  0  0  0  0
  7  8  1  0  0  0  0
  8  9  4  0  0  0  0
  9 10  4  0  0  0  0
 10 11  4  0  0  0  0
 12 13  1  0  0  0  0
 13 14  1  0  0  0  0
 13 17  1  0  0  0  0
 14 15  1  0  0  0  0
 15 16  2  0  0  0  0
 16 17  1  0  0  0  0
M  END
>  <Name_Molregno>
278393

>  <Alpha-2A>
7.5

$$$$
278421
  Marvin  02231216192D 0   1.00000     0.00000     0

 16 18  0  0  1  0  0  0  0  0999 V2000
   -0.0431   -0.9386    0.0000 N   0  0  0  0  0  0  0  0  0
   -0.8501   -1.1102    0.0000 C   0  0  0  0  0  0  0  0  0
   -1.2626   -0.3957    0.0000 N   0  0  0  0  0  0  0  0  0
   -0.7105    0.2174    0.0000 C   0  0  0  0  0  0  0  0  0
    0.0431   -0.1182    0.0000 C   0  0  0  0  0  0  0  0  0
    0.7576    0.2943    0.0000 C   0  0  0  0  0  0  0  0  0
    1.4721   -0.1182    0.0000 C   0  0  0  0  0  0  0  0  0
    1.4721   -0.9432    0.0000 C   0  0  0  0  0  0  0  0  0
    2.1866   -1.3557    0.0000 C   0  0  0  0  0  0  0  0  0
    2.9010   -0.9432    0.0000 C   0  0  0  0  0  0  0  0  0
    2.9010   -0.1182    0.0000 C   0  0  0  0  0  0  0  0  0
    2.1866    0.2943    0.0000 C   0  0  0  0  0  0  0  0  0
    3.6155    0.2943    0.0000 C   0  0  0  0  0  0  0  0  0
    4.3300   -0.1182    0.0000 C   0  0  0  0  0  0  0  0  0
    4.3300   -0.9432    0.0000 C   0  0  0  0  0  0  0  0  0
    3.6155   -1.3557    0.0000 C   0  0  0  0  0  0  0  0  0
  1  2  1  0  0  0  0
  1  5  1  0  0  0  0
  2  3  2  0  0  0  0
  3  4  1  0  0  0  0
  4  5  1  0  0  0  0
  5  6  1  0  0  0  0
  6  7  1  0  0  0  0
  7  8  1  0  0  0  0
  7 12  2  0  0  0  0
  8  9  1  0  0  0  0
  9 10  1  0  0  0  0
 10 11  4  0  0  0  0
 10 16  4  0  0  0  0
 11 12  1  0  0  0  0
 11 13  4  0  0  0  0
 13 14  4  0  0  0  0
 14 15  4  0  0  0  0
 15 16  4  0  0  0  0
M  END
>  <Name_Molregno>
278421

>  <Alpha-2A>
7

$$$$
278422
  Marvin  02231216192D 0   1.00000     0.00000     0

 16 18  0  0  0  0  0  0  0  0999 V2000
    0.6620    1.5344    0.0000 N   0  0  0  0  0  0  0  0  0
    1.4157    1.1988    0.0000 C   0  0  0  0  0  0  0  0  0
    1.3295    0.3784    0.0000 C   0  0  0  0  0  0  0  0  0
    0.5225    0.2068    0.0000 N   0  0  0  0  0  0  0  0  0
    0.1100    0.9213    0.0000 C   0  0  0  0  0  0  0  0  0
    1.9426   -0.1737    0.0000 C   0  0  0  0  0  0  0  0  0
    2.4275   -0.8411    0.0000 C   0  0  0  0  0  0  0  0  0
    3.2121   -0.5862    0.0000 C   0  0  0  0  0  0  0  0  0
    3.2121    0.2388    0.0000 C   0  0  0  0  0  0  0  0  0
    2.4275    0.4938    0.0000 C   0  0  0  0  0  0  0  0  0
    3.9266    0.6513    0.0000 C   0  0  0  0  0  0  0  0  0
    4.6411    0.2388    0.0000 C   0  0  0  0  0  0  0  0  0
    4.6411   -0.5862    0.0000 C   0  0  0  0  0  0  0  0  0
    3.9266   -0.9987    0.0000 C   0  0  0  0  0  0  0  0  0
    1.3295   -0.7257    0.0000 C   0  0  0  0  0  0  0  0  0
    1.5010   -1.5327    0.0000 C   0  0  0  0  0  0  0  0  0
  1  2  4  0  0  0  0
  1  5  4  0  0  0  0
  2  3  4  0  0  0  0
  3  4  4  0  0  0  0
  3  6  1  0  0  0  0
  4  5  4  0  0  0  0
  6  7  1  0  0  0  0
  6 10  1  0  0  0  0
  6 15  1  0  0  0  0
  7  8  1  0  0  0  0
  8  9  4  0  0  0  0
  8 14  4  0  0  0  0
  9 10  1  0  0  0  0
  9 11  4  0  0  0  0
 11 12  4  0  0  0  0
 12 13  4  0  0  0  0
 13 14  4  0  0  0  0
 15 16  1  0  0  0  0
M  STY  1   1 DAT
M  SAL   1  1   1
M  SDT   1 MRV_IMPLICIT_H                                        
M  SDD   1     0.0000    0.0000    DR    ALL  0       0  
M  SED   1 IMPL_H1
M  END
>  <Name_Molregno>
278422

>  <Alpha-2A>
8.5

$$$$
278453
  Marvin  02231216192D 0   1.00000     0.00000     0

 17 20  0  0  1  0  0  0  0  0999 V2000
    3.9985    0.2131    0.0000 N   0  0  0  0  0  0  0  0  0
    4.7804    0.4760    0.0000 C   0  0  0  0  0  0  0  0  0
    5.2722   -0.1864    0.0000 N   0  0  0  0  0  0  0  0  0
    4.7941   -0.8588    0.0000 C   0  0  0  0  0  0  0  0  0
    4.0069   -0.6119    0.0000 C   0  0  0  0  0  0  0  0  0
    3.3445   -1.1036    0.0000 C   0  0  0  0  0  0  0  0  0
    2.5874   -0.7758    0.0000 C   0  0  0  0  0  0  0  0  0
    2.0957   -0.1133    0.0000 C   0  0  0  0  0  0  0  0  0
    2.9152   -0.0187    0.0000 C   0  0  0  0  0  0  0  0  0
    1.2761   -0.2080    0.0000 C   0  0  0  0  0  0  0  0  0
    0.9483   -0.9651    0.0000 C   0  0  0  0  0  0  0  0  0
    1.4400   -1.6275    0.0000 C   0  0  0  0  0  0  0  0  0
    2.2596   -1.5329    0.0000 C   0  0  0  0  0  0  0  0  0
    0.1287   -1.0597    0.0000 C   0  0  0  0  0  0  0  0  0
   -0.3630   -0.3972    0.0000 C   0  0  0  0  0  0  0  0  0
   -0.0352    0.3598    0.0000 C   0  0  0  0  0  0  0  0  0
    0.7844    0.4545    0.0000 C   0  0  0  0  0  0  0  0  0
  1  2  1  0  0  0  0
  1  5  1  0  0  0  0
  2  3  2  0  0  0  0
  3  4  1  0  0  0  0
  4  5  1  0  0  0  0
  5  6  1  0  0  0  0
  6  7  1  0  0  0  0
  7  8  1  0  0  0  0
  7  9  1  0  0  0  0
  7 13  1  0  0  0  0
  8  9  1  0  0  0  0
  8 10  1  0  0  0  0
 10 11  4  0  0  0  0
 10 17  4  0  0  0  0
 11 12  1  0  0  0  0
 11 14  4  0  0  0  0
 12 13  1  0  0  0  0
 14 15  4  0  0  0  0
 15 16  4  0  0  0  0
 16 17  4  0  0  0  0
M  END
>  <Name_Molregno>
278453

>  <Alpha-2A>
7.2

$$$$
296747
  Marvin  02231216192D 0   1.00000     0.00000     0

 36 40  0  0  1  0  0  0  0  0999 V2000
    2.0923    2.6223    0.0000 O   0  0  0  0  0  0  0  0  0
    1.3285    2.9341    0.0000 N   0  0  0  0  0  0  0  0  0
    0.7959    2.3041    0.0000 C   0  0  0  0  0  0  0  0  0
    1.2305    1.6028    0.0000 C   0  0  0  0  0  0  0  0  0
    0.8405    0.8758    0.0000 C   0  0  0  0  0  0  0  0  0
    0.0159    0.8501    0.0000 O   0  0  0  0  0  0  0  0  0
   -0.4187    1.5513    0.0000 C   0  0  0  0  0  0  0  0  0
   -1.2433    1.5255    0.0000 C   0  0  0  0  0  0  0  0  0
   -1.6779    2.2268    0.0000 C   0  0  0  0  0  0  0  0  0
   -2.5025    2.2010    0.0000 O   0  0  0  0  0  0  0  0  0
   -2.9371    2.9023    0.0000 C   0  0  0  0  0  0  0  0  0
   -1.2879    2.9538    0.0000 C   0  0  0  0  0  0  0  0  0
   -1.7225    3.6550    0.0000 O   0  0  0  0  0  0  0  0  0
   -1.3326    4.3820    0.0000 C   0  0  0  0  0  0  0  0  0
   -0.4633    2.9796    0.0000 C   0  0  0  0  0  0  0  0  0
   -0.0287    2.2783    0.0000 C   0  0  0  0  0  0  0  0  0
    2.0317    1.7995    0.0000 C   0  0  0  0  0  0  0  0  0
    2.6617    1.2669    0.0000 C   0  0  0  0  0  0  0  0  0
    2.5155    0.4549    0.0000 N   0  0  0  0  0  0  0  0  0
    3.1455   -0.0777    0.0000 C   0  0  0  0  0  0  0  0  0
    2.9993   -0.8896    0.0000 C   0  0  0  0  0  0  0  0  0
    2.2230   -1.1689    0.0000 N   0  0  0  0  0  0  0  0  0
    1.5930   -0.6363    0.0000 C   0  0  0  0  0  0  0  0  0
    1.7392    0.1756    0.0000 C   0  0  0  0  0  0  0  0  0
    2.0768   -1.9809    0.0000 C   0  0  0  0  0  0  0  0  0
    2.7068   -2.5135    0.0000 C   0  0  0  0  0  0  0  0  0
    2.5606   -3.3254    0.0000 C   0  0  0  0  0  0  0  0  0
    3.1906   -3.8580    0.0000 C   0  0  0  0  0  0  0  0  0
    3.0443   -4.6700    0.0000 C   0  0  0  0  0  0  0  0  0
    2.2681   -4.9493    0.0000 C   0  0  0  0  0  0  0  0  0
    3.6744   -5.2026    0.0000 C   0  0  0  0  0  0  0  0  0
    4.4507   -4.9233    0.0000 C   0  0  0  0  0  0  0  0  0
    5.0807   -5.4559    0.0000 C   0  0  0  0  0  0  0  0  0
    4.9344   -6.2678    0.0000 C   0  0  0  0  0  0  0  0  0
    4.1582   -6.5472    0.0000 C   0  0  0  0  0  0  0  0  0
    3.5281   -6.0145    0.0000 C   0  0  0  0  0  0  0  0  0
  1  2  1  0  0  0  0
  1 17  1  0  0  0  0
  2  3  2  0  0  0  0
  3  4  1  0  0  0  0
  3 16  1  0  0  0  0
  4  5  1  0  0  0  0
  4 17  1  0  0  0  0
  5  6  1  0  0  0  0
  6  7  1  0  0  0  0
  7  8  4  0  0  0  0
  7 16  4  0  0  0  0
  8  9  4  0  0  0  0
  9 10  1  0  0  0  0
  9 12  4  0  0  0  0
 10 11  1  0  0  0  0
 12 13  1  0  0  0  0
 12 15  4  0  0  0  0
 13 14  1  0  0  0  0
 15 16  4  0  0  0  0
 17 18  1  0  0  0  0
 18 19  1  0  0  0  0
 19 20  1  0  0  0  0
 19 24  1  0  0  0  0
 20 21  1  0  0  0  0
 21 22  1  0  0  0  0
 22 23  1  0  0  0  0
 22 25  1  0  0  0  0
 23 24  1  0  0  0  0
 25 26  1  0  0  0  0
 26 27  1  0  0  0  0
 27 28  1  0  0  0  0
 28 29  2  0  0  0  0
 29 30  1  0  0  0  0
 29 31  1  0  0  0  0
 31 32  4  0  0  0  0
 31 36  4  0  0  0  0
 32 33  4  0  0  0  0
 33 34  4  0  0  0  0
 34 35  4  0  0  0  0
 35 36  4  0  0  0  0
M  END
>  <Name_Molregno>
296747

>  <5-HT1A>
6

>  <5-HT2A>
6

>  <5-HT2C>
6

>  <5-HT7>
6

>  <Alpha-2A>
9.19

>  <Alpha-2B>
7.85

>  <Alpha-2C>
9.46

>  <DOPAMINE D3>
6.21

>  <DOPAMINE D4>
6

>  <HISTAMINE H1>
6

>  <Serotonin transporter>
8.18

$$$$
296761
  Marvin  02231216192D 0   1.00000     0.00000     0

 36 40  0  0  1  0  0  0  0  0999 V2000
   12.6833    4.0256    0.0000 F   0  0  0  0  0  0  0  0  0
   12.5371    3.2136    0.0000 C   0  0  0  0  0  0  0  0  0
   13.1671    2.6810    0.0000 C   0  0  0  0  0  0  0  0  0
   13.0209    1.8691    0.0000 C   0  0  0  0  0  0  0  0  0
   12.2446    1.5897    0.0000 C   0  0  0  0  0  0  0  0  0
   12.0983    0.7778    0.0000 O   0  0  0  0  0  0  0  0  0
   11.3221    0.4985    0.0000 C   0  0  0  0  0  0  0  0  0
   11.1758   -0.3134    0.0000 C   0  0  0  0  0  0  0  0  0
   10.3995   -0.5928    0.0000 C   0  0  0  0  0  0  0  0  0
   10.2533   -1.4047    0.0000 C   0  0  0  0  0  0  0  0  0
    9.4770   -1.6840    0.0000 N   0  0  0  0  0  0  0  0  0
    9.3308   -2.4959    0.0000 C   0  0  0  0  0  0  0  0  0
    8.5545   -2.7753    0.0000 C   0  0  0  0  0  0  0  0  0
    7.9245   -2.2426    0.0000 N   0  0  0  0  0  0  0  0  0
    8.0707   -1.4307    0.0000 C   0  0  0  0  0  0  0  0  0
    8.8470   -1.1514    0.0000 C   0  0  0  0  0  0  0  0  0
    7.1482   -2.5220    0.0000 C   0  0  0  0  0  0  0  0  0
    6.5181   -1.9893    0.0000 C   0  0  0  0  0  0  0  0  0
    6.5787   -1.1666    0.0000 O   0  0  0  0  0  0  0  0  0
    5.8149   -0.8547    0.0000 N   0  0  0  0  0  0  0  0  0
    5.2823   -1.4847    0.0000 C   0  0  0  0  0  0  0  0  0
    5.7169   -2.1860    0.0000 C   0  0  0  0  0  0  0  0  0
    5.3269   -2.9130    0.0000 C   0  0  0  0  0  0  0  0  0
    4.5023   -2.9387    0.0000 N   0  0  0  0  0  0  0  0  0
    4.0677   -2.2375    0.0000 C   0  0  0  0  0  0  0  0  0
    3.2431   -2.2633    0.0000 C   0  0  0  0  0  0  0  0  0
    2.8085   -1.5620    0.0000 C   0  0  0  0  0  0  0  0  0
    1.9839   -1.5878    0.0000 O   0  0  0  0  0  0  0  0  0
    1.5939   -2.3148    0.0000 C   0  0  0  0  0  0  0  0  0
    3.1985   -0.8350    0.0000 C   0  0  0  0  0  0  0  0  0
    2.7639   -0.1338    0.0000 O   0  0  0  0  0  0  0  0  0
    3.1539    0.5932    0.0000 C   0  0  0  0  0  0  0  0  0
    4.0231   -0.8093    0.0000 C   0  0  0  0  0  0  0  0  0
    4.4577   -1.5105    0.0000 C   0  0  0  0  0  0  0  0  0
   11.6145    2.1224    0.0000 C   0  0  0  0  0  0  0  0  0
   11.7608    2.9343    0.0000 C   0  0  0  0  0  0  0  0  0
  1  2  1  0  0  0  0
  2  3  4  0  0  0  0
  2 36  4  0  0  0  0
  3  4  4  0  0  0  0
  4  5  4  0  0  0  0
  5  6  1  0  0  0  0
  5 35  4  0  0  0  0
  6  7  1  0  0  0  0
  7  8  1  0  0  0  0
  8  9  1  0  0  0  0
  9 10  1  0  0  0  0
 10 11  1  0  0  0  0
 11 12  1  0  0  0  0
 11 16  1  0  0  0  0
 12 13  1  0  0  0  0
 13 14  1  0  0  0  0
 14 15  1  0  0  0  0
 14 17  1  0  0  0  0
 15 16  1  0  0  0  0
 17 18  1  0  0  0  0
 18 19  1  0  0  0  0
 18 22  1  0  0  0  0
 19 20  1  0  0  0  0
 20 21  2  0  0  0  0
 21 22  1  0  0  0  0
 21 34  1  0  0  0  0
 22 23  1  0  0  0  0
 23 24  1  0  0  0  0
 24 25  1  0  0  0  0
 25 26  4  0  0  0  0
 25 34  4  0  0  0  0
 26 27  4  0  0  0  0
 27 28  1  0  0  0  0
 27 30  4  0  0  0  0
 28 29  1  0  0  0  0
 30 31  1  0  0  0  0
 30 33  4  0  0  0  0
 31 32  1  0  0  0  0
 33 34  4  0  0  0  0
 35 36  4  0  0  0  0
M  END
>  <Name_Molregno>
296761

>  <Alpha-2A>
8.04

>  <Alpha-2C>
8.8

>  <Serotonin transporter>
6.81

$$$$
296873
  Marvin  02231216192D 0   1.00000     0.00000     0

 36 40  0  0  1  0  0  0  0  0999 V2000
   -0.0134    0.4103    0.0000 O   0  0  0  0  0  0  0  0  0
   -0.7772    0.7221    0.0000 N   0  0  0  0  0  0  0  0  0
   -1.3098    0.0921    0.0000 C   0  0  0  0  0  0  0  0  0
   -0.8752   -0.6092    0.0000 C   0  0  0  0  0  0  0  0  0
   -1.2652   -1.3362    0.0000 C   0  0  0  0  0  0  0  0  0
   -2.0898   -1.3619    0.0000 O   0  0  0  0  0  0  0  0  0
   -2.5244   -0.6607    0.0000 C   0  0  0  0  0  0  0  0  0
   -3.3490   -0.6864    0.0000 C   0  0  0  0  0  0  0  0  0
   -3.7836    0.0148    0.0000 C   0  0  0  0  0  0  0  0  0
   -4.6082   -0.0110    0.0000 O   0  0  0  0  0  0  0  0  0
   -5.0428    0.6903    0.0000 C   0  0  0  0  0  0  0  0  0
   -5.8674    0.6645    0.0000 C   0  0  0  0  0  0  0  0  0
   -6.3020    1.3658    0.0000 N   0  0  0  0  0  0  0  0  0
   -7.1266    1.3400    0.0000 C   0  0  0  0  0  0  0  0  0
   -5.9120    2.0928    0.0000 C   0  0  0  0  0  0  0  0  0
   -3.3936    0.7418    0.0000 C   0  0  0  0  0  0  0  0  0
   -2.5690    0.7676    0.0000 C   0  0  0  0  0  0  0  0  0
   -2.1344    0.0663    0.0000 C   0  0  0  0  0  0  0  0  0
   -0.0740   -0.4125    0.0000 C   0  0  0  0  0  0  0  0  0
    0.5561   -0.9451    0.0000 C   0  0  0  0  0  0  0  0  0
    1.3323   -0.6658    0.0000 N   0  0  0  0  0  0  0  0  0
    1.4786    0.1461    0.0000 C   0  0  0  0  0  0  0  0  0
    2.2549    0.4254    0.0000 C   0  0  0  0  0  0  0  0  0
    2.8849   -0.1072    0.0000 N   0  0  0  0  0  0  0  0  0
    2.7386   -0.9191    0.0000 C   0  0  0  0  0  0  0  0  0
    1.9624   -1.1984    0.0000 C   0  0  0  0  0  0  0  0  0
    3.6612    0.1721    0.0000 C   0  0  0  0  0  0  0  0  0
    3.8074    0.9841    0.0000 C   0  0  0  0  0  0  0  0  0
    4.5837    1.2634    0.0000 C   0  0  0  0  0  0  0  0  0
    5.2137    0.7308    0.0000 C   0  0  0  0  0  0  0  0  0
    5.9900    1.0101    0.0000 C   0  0  0  0  0  0  0  0  0
    6.6200    0.4775    0.0000 C   0  0  0  0  0  0  0  0  0
    6.4738   -0.3345    0.0000 C   0  0  0  0  0  0  0  0  0
    5.6975   -0.6138    0.0000 C   0  0  0  0  0  0  0  0  0
    5.0675   -0.0812    0.0000 C   0  0  0  0  0  0  0  0  0
    3.1774    1.5167    0.0000 C   0  0  0  0  0  0  0  0  0
  1  2  1  0  0  0  0
  1 19  1  0  0  0  0
  2  3  2  0  0  0  0
  3  4  1  0  0  0  0
  3 18  1  0  0  0  0
  4  5  1  0  0  0  0
  4 19  1  0  0  0  0
  5  6  1  0  0  0  0
  6  7  1  0  0  0  0
  7  8  4  0  0  0  0
  7 18  4  0  0  0  0
  8  9  4  0  0  0  0
  9 10  1  0  0  0  0
  9 16  4  0  0  0  0
 10 11  1  0  0  0  0
 11 12  1  0  0  0  0
 12 13  1  0  0  0  0
 13 14  1  0  0  0  0
 13 15  1  0  0  0  0
 16 17  4  0  0  0  0
 17 18  4  0  0  0  0
 19 20  1  0  0  0  0
 20 21  1  0  0  0  0
 21 22  1  0  0  0  0
 21 26  1  0  0  0  0
 22 23  1  0  0  0  0
 23 24  1  0  0  0  0
 24 25  1  0  0  0  0
 24 27  1  0  0  0  0
 25 26  1  0  0  0  0
 27 28  1  0  0  0  0
 28 29  2  0  0  0  0
 28 36  1  0  0  0  0
 29 30  1  0  0  0  0
 30 31  4  0  0  0  0
 30 35  4  0  0  0  0
 31 32  4  0  0  0  0
 32 33  4  0  0  0  0
 33 34  4  0  0  0  0
 34 35  4  0  0  0  0
M  END
>  <Name_Molregno>
296873

>  <Alpha-2A>
10

>  <Alpha-2C>
10

>  <Serotonin transporter>
8.46

$$$$
296883
  Marvin  02231216192D 0   1.00000     0.00000     0

 32 36  0  0  1  0  0  0  0  0999 V2000
   -3.2998   -0.2699    0.0000 O   0  0  0  0  0  0  0  0  0
   -4.0636   -0.5818    0.0000 N   0  0  0  0  0  0  0  0  0
   -4.5962    0.0482    0.0000 C   0  0  0  0  0  0  0  0  0
   -4.1616    0.7495    0.0000 C   0  0  0  0  0  0  0  0  0
   -4.5516    1.4765    0.0000 C   0  0  0  0  0  0  0  0  0
   -5.3762    1.5022    0.0000 N   0  0  0  0  0  0  0  0  0
   -5.8108    0.8010    0.0000 C   0  0  0  0  0  0  0  0  0
   -5.4208    0.0740    0.0000 C   0  0  0  0  0  0  0  0  0
   -5.8554   -0.6272    0.0000 C   0  0  0  0  0  0  0  0  0
   -6.6800   -0.6015    0.0000 C   0  0  0  0  0  0  0  0  0
   -7.0700    0.1255    0.0000 C   0  0  0  0  0  0  0  0  0
   -6.6354    0.8268    0.0000 C   0  0  0  0  0  0  0  0  0
   -5.7662    2.2293    0.0000 C   0  0  0  0  0  0  0  0  0
   -3.3604    0.5528    0.0000 C   0  0  0  0  0  0  0  0  0
   -2.7304    1.0855    0.0000 C   0  0  0  0  0  0  0  0  0
   -1.9541    0.8061    0.0000 N   0  0  0  0  0  0  0  0  0
   -1.3241    1.3388    0.0000 C   0  0  0  0  0  0  0  0  0
   -0.5478    1.0594    0.0000 C   0  0  0  0  0  0  0  0  0
   -0.4015    0.2475    0.0000 N   0  0  0  0  0  0  0  0  0
   -1.0316   -0.2851    0.0000 C   0  0  0  0  0  0  0  0  0
   -1.8078   -0.0058    0.0000 C   0  0  0  0  0  0  0  0  0
    0.3747   -0.0318    0.0000 C   0  0  0  0  0  0  0  0  0
    0.5210   -0.8437    0.0000 C   0  0  0  0  0  0  0  0  0
    1.2973   -1.1231    0.0000 C   0  0  0  0  0  0  0  0  0
    1.4435   -1.9350    0.0000 C   0  0  0  0  0  0  0  0  0
    2.2198   -2.2143    0.0000 C   0  0  0  0  0  0  0  0  0
    2.3660   -3.0262    0.0000 C   0  0  0  0  0  0  0  0  0
    3.1423   -3.3056    0.0000 C   0  0  0  0  0  0  0  0  0
    3.2886   -4.1175    0.0000 C   0  0  0  0  0  0  0  0  0
    2.6585   -4.6501    0.0000 C   0  0  0  0  0  0  0  0  0
    1.8822   -4.3708    0.0000 C   0  0  0  0  0  0  0  0  0
    1.7360   -3.5589    0.0000 C   0  0  0  0  0  0  0  0  0
  1  2  1  0  0  0  0
  1 14  1  0  0  0  0
  2  3  2  0  0  0  0
  3  4  1  0  0  0  0
  3  8  1  0  0  0  0
  4  5  1  0  0  0  0
  4 14  1  0  0  0  0
  5  6  1  0  0  0  0
  6  7  1  0  0  0  0
  6 13  1  0  0  0  0
  7  8  4  0  0  0  0
  7 12  4  0  0  0  0
  8  9  4  0  0  0  0
  9 10  4  0  0  0  0
 10 11  4  0  0  0  0
 11 12  4  0  0  0  0
 14 15  1  0  0  0  0
 15 16  1  0  0  0  0
 16 17  1  0  0  0  0
 16 21  1  0  0  0  0
 17 18  1  0  0  0  0
 18 19  1  0  0  0  0
 19 20  1  0  0  0  0
 19 22  1  0  0  0  0
 20 21  1  0  0  0  0
 22 23  1  0  0  0  0
 23 24  1  0  0  0  0
 24 25  1  0  0  0  0
 25 26  2  0  0  0  0
 26 27  1  0  0  0  0
 27 28  4  0  0  0  0
 27 32  4  0  0  0  0
 28 29  4  0  0  0  0
 29 30  4  0  0  0  0
 30 31  4  0  0  0  0
 31 32  4  0  0  0  0
M  END
>  <Name_Molregno>
296883

>  <Alpha-2A>
8.8

>  <Alpha-2C>
8.35

>  <Serotonin transporter>
7.8

$$$$
296884
  Marvin  02231216192D 0   1.00000     0.00000     0

 36 40  0  0  1  0  0  0  0  0999 V2000
    2.0923    2.6223    0.0000 O   0  0  0  0  0  0  0  0  0
    1.3285    2.9341    0.0000 N   0  0  0  0  0  0  0  0  0
    0.7959    2.3041    0.0000 C   0  0  0  0  0  0  0  0  0
    1.2305    1.6028    0.0000 C   0  0  0  0  0  0  0  0  0
    0.8405    0.8758    0.0000 C   0  0  0  0  0  0  0  0  0
    0.0159    0.8501    0.0000 N   0  0  0  0  0  0  0  0  0
   -0.4187    1.5513    0.0000 C   0  0  0  0  0  0  0  0  0
   -1.2433    1.5255    0.0000 C   0  0  0  0  0  0  0  0  0
   -1.6779    2.2268    0.0000 C   0  0  0  0  0  0  0  0  0
   -2.5025    2.2010    0.0000 O   0  0  0  0  0  0  0  0  0
   -2.9371    2.9023    0.0000 C   0  0  0  0  0  0  0  0  0
   -1.2879    2.9538    0.0000 C   0  0  0  0  0  0  0  0  0
   -1.7225    3.6550    0.0000 O   0  0  0  0  0  0  0  0  0
   -1.3326    4.3820    0.0000 C   0  0  0  0  0  0  0  0  0
   -0.4633    2.9796    0.0000 C   0  0  0  0  0  0  0  0  0
   -0.0287    2.2783    0.0000 C   0  0  0  0  0  0  0  0  0
    2.0317    1.7995    0.0000 C   0  0  0  0  0  0  0  0  0
    2.6617    1.2669    0.0000 C   0  0  0  0  0  0  0  0  0
    2.5155    0.4549    0.0000 N   0  0  0  0  0  0  0  0  0
    3.1455   -0.0777    0.0000 C   0  0  0  0  0  0  0  0  0
    2.9993   -0.8896    0.0000 C   0  0  0  0  0  0  0  0  0
    2.2230   -1.1689    0.0000 N   0  0  0  0  0  0  0  0  0
    1.5930   -0.6363    0.0000 C   0  0  0  0  0  0  0  0  0
    1.7392    0.1756    0.0000 C   0  0  0  0  0  0  0  0  0
    2.0768   -1.9809    0.0000 C   0  0  0  0  0  0  0  0  0
    2.7068   -2.5135    0.0000 C   0  0  0  0  0  0  0  0  0
    2.5606   -3.3254    0.0000 C   0  0  0  0  0  0  0  0  0
    3.1906   -3.8580    0.0000 C   0  0  0  0  0  0  0  0  0
    3.0443   -4.6700    0.0000 C   0  0  0  0  0  0  0  0  0
    2.2681   -4.9493    0.0000 C   0  0  0  0  0  0  0  0  0
    3.6744   -5.2026    0.0000 C   0  0  0  0  0  0  0  0  0
    4.4507   -4.9233    0.0000 C   0  0  0  0  0  0  0  0  0
    5.0807   -5.4559    0.0000 C   0  0  0  0  0  0  0  0  0
    4.9344   -6.2678    0.0000 C   0  0  0  0  0  0  0  0  0
    4.1582   -6.5472    0.0000 C   0  0  0  0  0  0  0  0  0
    3.5281   -6.0145    0.0000 C   0  0  0  0  0  0  0  0  0
  1  2  1  0  0  0  0
  1 17  1  0  0  0  0
  2  3  2  0  0  0  0
  3  4  1  0  0  0  0
  3 16  1  0  0  0  0
  4  5  1  0  0  0  0
  4 17  1  0  0  0  0
  5  6  1  0  0  0  0
  6  7  1  0  0  0  0
  7  8  4  0  0  0  0
  7 16  4  0  0  0  0
  8  9  4  0  0  0  0
  9 10  1  0  0  0  0
  9 12  4  0  0  0  0
 10 11  1  0  0  0  0
 12 13  1  0  0  0  0
 12 15  4  0  0  0  0
 13 14  1  0  0  0  0
 15 16  4  0  0  0  0
 17 18  1  0  0  0  0
 18 19  1  0  0  0  0
 19 20  1  0  0  0  0
 19 24  1  0  0  0  0
 20 21  1  0  0  0  0
 21 22  1  0  0  0  0
 22 23  1  0  0  0  0
 22 25  1  0  0  0  0
 23 24  1  0  0  0  0
 25 26  1  0  0  0  0
 26 27  1  0  0  0  0
 27 28  1  0  0  0  0
 28 29  2  0  0  0  0
 29 30  1  0  0  0  0
 29 31  1  0  0  0  0
 31 32  4  0  0  0  0
 31 36  4  0  0  0  0
 32 33  4  0  0  0  0
 33 34  4  0  0  0  0
 34 35  4  0  0  0  0
 35 36  4  0  0  0  0
M  END
>  <Name_Molregno>
296884

>  <Alpha-2A>
8.19

>  <Alpha-2C>
8.44

>  <Serotonin transporter>
7.82

$$$$
296889
  Marvin  02231216192D 0   1.00000     0.00000     0

 35 40  0  0  1  0  0  0  0  0999 V2000
   -1.2177    2.0023    0.0000 O   0  0  0  0  0  0  0  0  0
   -1.7697    1.3892    0.0000 N   0  0  0  0  0  0  0  0  0
   -1.3572    0.6747    0.0000 C   0  0  0  0  0  0  0  0  0
   -0.5502    0.8463    0.0000 C   0  0  0  0  0  0  0  0  0
    0.0018    0.2332    0.0000 C   0  0  0  0  0  0  0  0  0
   -0.2531   -0.5514    0.0000 C   0  0  0  0  0  0  0  0  0
   -1.0601   -0.7230    0.0000 C   0  0  0  0  0  0  0  0  0
   -1.3150   -1.5076    0.0000 C   0  0  0  0  0  0  0  0  0
   -2.1220   -1.6791    0.0000 C   0  0  0  0  0  0  0  0  0
   -2.3770   -2.4637    0.0000 O   0  0  0  0  0  0  0  0  0
   -3.1839   -2.6353    0.0000 C   0  0  0  0  0  0  0  0  0
   -2.6740   -1.0660    0.0000 C   0  0  0  0  0  0  0  0  0
   -2.4191   -0.2814    0.0000 C   0  0  0  0  0  0  0  0  0
   -1.6121   -0.1099    0.0000 C   0  0  0  0  0  0  0  0  0
   -0.4640    1.6668    0.0000 C   0  0  0  0  0  0  0  0  0
    0.2505    2.0793    0.0000 C   0  0  0  0  0  0  0  0  0
    0.9650    1.6668    0.0000 N   0  0  0  0  0  0  0  0  0
    1.6794    2.0793    0.0000 C   0  0  0  0  0  0  0  0  0
    2.3939    1.6668    0.0000 C   0  0  0  0  0  0  0  0  0
    2.3939    0.8418    0.0000 N   0  0  0  0  0  0  0  0  0
    1.6794    0.4293    0.0000 C   0  0  0  0  0  0  0  0  0
    0.9650    0.8418    0.0000 C   0  0  0  0  0  0  0  0  0
    3.1084    0.4293    0.0000 C   0  0  0  0  0  0  0  0  0
    3.8228    0.8418    0.0000 C   0  0  0  0  0  0  0  0  0
    4.5373    0.4293    0.0000 C   0  0  0  0  0  0  0  0  0
    5.2518    0.8418    0.0000 C   0  0  0  0  0  0  0  0  0
    5.9662    0.4293    0.0000 C   0  0  0  0  0  0  0  0  0
    6.6807    0.8418    0.0000 C   0  0  0  0  0  0  0  0  0
    6.6807    1.6668    0.0000 C   0  0  0  0  0  0  0  0  0
    5.9662    2.0793    0.0000 C   0  0  0  0  0  0  0  0  0
    5.2518    1.6668    0.0000 C   0  0  0  0  0  0  0  0  0
    7.3952    2.0793    0.0000 C   0  0  0  0  0  0  0  0  0
    8.1097    1.6668    0.0000 C   0  0  0  0  0  0  0  0  0
    8.1097    0.8418    0.0000 C   0  0  0  0  0  0  0  0  0
    7.3952    0.4293    0.0000 C   0  0  0  0  0  0  0  0  0
  1  2  1  0  0  0  0
  1 15  1  0  0  0  0
  2  3  2  0  0  0  0
  3  4  1  0  0  0  0
  3 14  1  0  0  0  0
  4  5  1  0  0  0  0
  4 15  1  0  0  0  0
  5  6  2  0  0  0  0
  6  7  1  0  0  0  0
  7  8  4  0  0  0  0
  7 14  4  0  0  0  0
  8  9  4  0  0  0  0
  9 10  1  0  0  0  0
  9 12  4  0  0  0  0
 10 11  1  0  0  0  0
 12 13  4  0  0  0  0
 13 14  4  0  0  0  0
 15 16  1  0  0  0  0
 16 17  1  0  0  0  0
 17 18  1  0  0  0  0
 17 22  1  0  0  0  0
 18 19  1  0  0  0  0
 19 20  1  0  0  0  0
 20 21  1  0  0  0  0
 20 23  1  0  0  0  0
 21 22  1  0  0  0  0
 23 24  1  0  0  0  0
 24 25  1  0  0  0  0
 25 26  1  0  0  0  0
 26 27  4  0  0  0  0
 26 31  4  0  0  0  0
 27 28  4  0  0  0  0
 28 29  4  0  0  0  0
 28 35  4  0  0  0  0
 29 30  4  0  0  0  0
 29 32  4  0  0  0  0
 30 31  4  0  0  0  0
 32 33  4  0  0  0  0
 33 34  4  0  0  0  0
 34 35  4  0  0  0  0
M  END
>  <Name_Molregno>
296889

>  <Alpha-2A>
8.74

>  <Alpha-2C>
8.2

>  <Serotonin transporter>
8.85

$$$$
296890
  Marvin  02231216192D 0   1.00000     0.00000     0

 34 38  0  0  1  0  0  0  0  0999 V2000
    1.9224    2.3548    0.0000 O   0  0  0  0  0  0  0  0  0
    1.1586    2.6667    0.0000 N   0  0  0  0  0  0  0  0  0
    0.6260    2.0366    0.0000 C   0  0  0  0  0  0  0  0  0
    1.0606    1.3354    0.0000 C   0  0  0  0  0  0  0  0  0
    0.6706    0.6084    0.0000 C   0  0  0  0  0  0  0  0  0
   -0.1540    0.5826    0.0000 O   0  0  0  0  0  0  0  0  0
   -0.5886    1.2839    0.0000 C   0  0  0  0  0  0  0  0  0
   -1.4132    1.2581    0.0000 C   0  0  0  0  0  0  0  0  0
   -1.8478    1.9593    0.0000 C   0  0  0  0  0  0  0  0  0
   -2.6724    1.9336    0.0000 O   0  0  0  0  0  0  0  0  0
   -3.1070    2.6348    0.0000 C   0  0  0  0  0  0  0  0  0
   -3.9316    2.6090    0.0000 O   0  0  0  0  0  0  0  0  0
   -2.7170    3.3618    0.0000 C   0  0  0  0  0  0  0  0  0
   -1.4578    2.6863    0.0000 C   0  0  0  0  0  0  0  0  0
   -0.6332    2.7121    0.0000 C   0  0  0  0  0  0  0  0  0
   -0.1986    2.0109    0.0000 C   0  0  0  0  0  0  0  0  0
    1.8618    1.5320    0.0000 C   0  0  0  0  0  0  0  0  0
    2.4919    0.9994    0.0000 C   0  0  0  0  0  0  0  0  0
    2.3456    0.1875    0.0000 N   0  0  0  0  0  0  0  0  0
    2.9757   -0.3451    0.0000 C   0  0  0  0  0  0  0  0  0
    2.8294   -1.1571    0.0000 C   0  0  0  0  0  0  0  0  0
    2.0531   -1.4364    0.0000 N   0  0  0  0  0  0  0  0  0
    1.4231   -0.9038    0.0000 C   0  0  0  0  0  0  0  0  0
    1.5694   -0.0918    0.0000 C   0  0  0  0  0  0  0  0  0
    1.9069   -2.2483    0.0000 C   0  0  0  0  0  0  0  0  0
    2.5369   -2.7810    0.0000 C   0  0  0  0  0  0  0  0  0
    2.3907   -3.5929    0.0000 C   0  0  0  0  0  0  0  0  0
    1.6144   -3.8722    0.0000 C   0  0  0  0  0  0  0  0  0
    1.4682   -4.6841    0.0000 C   0  0  0  0  0  0  0  0  0
    0.6919   -4.9635    0.0000 C   0  0  0  0  0  0  0  0  0
    0.0619   -4.4308    0.0000 C   0  0  0  0  0  0  0  0  0
    0.2081   -3.6189    0.0000 C   0  0  0  0  0  0  0  0  0
    0.9844   -3.3396    0.0000 C   0  0  0  0  0  0  0  0  0
    3.3132   -2.5016    0.0000 C   0  0  0  0  0  0  0  0  0
  1  2  1  0  0  0  0
  1 17  1  0  0  0  0
  2  3  2  0  0  0  0
  3  4  1  0  0  0  0
  3 16  1  0  0  0  0
  4  5  1  0  0  0  0
  4 17  1  0  0  0  0
  5  6  1  0  0  0  0
  6  7  1  0  0  0  0
  7  8  4  0  0  0  0
  7 16  4  0  0  0  0
  8  9  4  0  0  0  0
  9 10  1  0  0  0  0
  9 14  4  0  0  0  0
 10 11  1  0  0  0  0
 11 12  2  0  0  0  0
 11 13  1  0  0  0  0
 14 15  4  0  0  0  0
 15 16  4  0  0  0  0
 17 18  1  0  0  0  0
 18 19  1  0  0  0  0
 19 20  1  0  0  0  0
 19 24  1  0  0  0  0
 20 21  1  0  0  0  0
 21 22  1  0  0  0  0
 22 23  1  0  0  0  0
 22 25  1  0  0  0  0
 23 24  1  0  0  0  0
 25 26  1  0  0  0  0
 26 27  2  0  0  0  0
 26 34  1  0  0  0  0
 27 28  1  0  0  0  0
 28 29  4  0  0  0  0
 28 33  4  0  0  0  0
 29 30  4  0  0  0  0
 30 31  4  0  0  0  0
 31 32  4  0  0  0  0
 32 33  4  0  0  0  0
M  END
>  <Name_Molregno>
296890

>  <Alpha-2A>
9.4

>  <Alpha-2C>
9.7

>  <Serotonin transporter>
8.77

$$$$
296899
  Marvin  02231216192D 0   1.00000     0.00000     0

 35 39  0  0  1  0  0  0  0  0999 V2000
    2.1989    2.1726    0.0000 O   0  0  0  0  0  0  0  0  0
    1.4352    2.4844    0.0000 N   0  0  0  0  0  0  0  0  0
    0.9025    1.8544    0.0000 C   0  0  0  0  0  0  0  0  0
    1.3371    1.1531    0.0000 C   0  0  0  0  0  0  0  0  0
    0.9472    0.4261    0.0000 C   0  0  0  0  0  0  0  0  0
    0.1226    0.4004    0.0000 O   0  0  0  0  0  0  0  0  0
   -0.3120    1.1016    0.0000 C   0  0  0  0  0  0  0  0  0
   -1.1366    1.0759    0.0000 C   0  0  0  0  0  0  0  0  0
   -1.5713    1.7771    0.0000 C   0  0  0  0  0  0  0  0  0
   -2.3959    1.7513    0.0000 O   0  0  0  0  0  0  0  0  0
   -2.8305    2.4526    0.0000 C   0  0  0  0  0  0  0  0  0
   -1.1813    2.5041    0.0000 C   0  0  0  0  0  0  0  0  0
   -1.6159    3.2053    0.0000 O   0  0  0  0  0  0  0  0  0
   -1.2259    3.9323    0.0000 C   0  0  0  0  0  0  0  0  0
   -0.3567    2.5299    0.0000 C   0  0  0  0  0  0  0  0  0
    0.0779    1.8286    0.0000 C   0  0  0  0  0  0  0  0  0
    2.1384    1.3498    0.0000 C   0  0  0  0  0  0  0  0  0
    2.7684    0.8172    0.0000 C   0  0  0  0  0  0  0  0  0
    2.6222    0.0052    0.0000 N   0  0  0  0  0  0  0  0  0
    3.2522   -0.5274    0.0000 C   0  0  0  0  0  0  0  0  0
    3.1059   -1.3393    0.0000 C   0  0  0  0  0  0  0  0  0
    2.3297   -1.6186    0.0000 N   0  0  0  0  0  0  0  0  0
    1.6996   -1.0860    0.0000 C   0  0  0  0  0  0  0  0  0
    1.8459   -0.2741    0.0000 C   0  0  0  0  0  0  0  0  0
    2.1834   -2.4306    0.0000 C   0  0  0  0  0  0  0  0  0
    1.4071   -2.7099    0.0000 C   0  0  0  0  0  0  0  0  0
    1.2609   -3.5218    0.0000 C   0  0  0  0  0  0  0  0  0
    1.8909   -4.0544    0.0000 C   0  0  0  0  0  0  0  0  0
    2.6672   -3.7751    0.0000 C   0  0  0  0  0  0  0  0  0
    3.2973   -4.3077    0.0000 C   0  0  0  0  0  0  0  0  0
    4.0735   -4.0284    0.0000 C   0  0  0  0  0  0  0  0  0
    4.7036   -4.5610    0.0000 C   0  0  0  0  0  0  0  0  0
    4.5573   -5.3730    0.0000 C   0  0  0  0  0  0  0  0  0
    3.7810   -5.6523    0.0000 C   0  0  0  0  0  0  0  0  0
    3.1510   -5.1197    0.0000 C   0  0  0  0  0  0  0  0  0
  1  2  1  0  0  0  0
  1 17  1  0  0  0  0
  2  3  2  0  0  0  0
  3  4  1  0  0  0  0
  3 16  1  0  0  0  0
  4  5  1  0  0  0  0
  4 17  1  0  0  0  0
  5  6  1  0  0  0  0
  6  7  1  0  0  0  0
  7  8  4  0  0  0  0
  7 16  4  0  0  0  0
  8  9  4  0  0  0  0
  9 10  1  0  0  0  0
  9 12  4  0  0  0  0
 10 11  1  0  0  0  0
 12 13  1  0  0  0  0
 12 15  4  0  0  0  0
 13 14  1  0  0  0  0
 15 16  4  0  0  0  0
 17 18  1  0  0  0  0
 18 19  1  0  0  0  0
 19 20  1  0  0  0  0
 19 24  1  0  0  0  0
 20 21  1  0  0  0  0
 21 22  1  0  0  0  0
 22 23  1  0  0  0  0
 22 25  1  0  0  0  0
 23 24  1  0  0  0  0
 25 26  1  0  0  0  0
 26 27  1  0  0  0  0
 27 28  1  0  0  0  0
 28 29  2  0  0  0  0
 29 30  1  0  0  0  0
 30 31  4  0  0  0  0
 30 35  4  0  0  0  0
 31 32  4  0  0  0  0
 32 33  4  0  0  0  0
 33 34  4  0  0  0  0
 34 35  4  0  0  0  0
M  END
>  <Name_Molregno>
296899

>  <5-HT1A>
6

>  <5-HT2A>
6

>  <5-HT2C>
6

>  <5-HT7>
6

>  <Alpha-2A>
8.59

>  <Alpha-2B>
7.85

>  <Alpha-2C>
8.52

>  <DOPAMINE D3>
6.57

>  <DOPAMINE D4>
6

>  <HISTAMINE H1>
6

>  <Serotonin transporter>
8.5

$$$$
296905
  Marvin  02231216192D 0   1.00000     0.00000     0

 36 40  0  0  1  0  0  0  0  0999 V2000
   -2.3583   -1.0267    0.0000 O   0  0  0  0  0  0  0  0  0
   -3.1220   -1.3385    0.0000 N   0  0  0  0  0  0  0  0  0
   -3.6547   -0.7085    0.0000 C   0  0  0  0  0  0  0  0  0
   -3.2200   -0.0073    0.0000 C   0  0  0  0  0  0  0  0  0
   -3.6100    0.7198    0.0000 C   0  0  0  0  0  0  0  0  0
   -4.4346    0.7455    0.0000 N   0  0  0  0  0  0  0  0  0
   -4.8692    0.0443    0.0000 C   0  0  0  0  0  0  0  0  0
   -4.4793   -0.6827    0.0000 C   0  0  0  0  0  0  0  0  0
   -4.9139   -1.3840    0.0000 C   0  0  0  0  0  0  0  0  0
   -5.7385   -1.3582    0.0000 C   0  0  0  0  0  0  0  0  0
   -6.1284   -0.6312    0.0000 C   0  0  0  0  0  0  0  0  0
   -5.6938    0.0700    0.0000 C   0  0  0  0  0  0  0  0  0
   -4.8246    1.4725    0.0000 C   0  0  0  0  0  0  0  0  0
   -4.3900    2.1738    0.0000 O   0  0  0  0  0  0  0  0  0
   -5.6492    1.4983    0.0000 N   0  0  0  0  0  0  0  0  0
   -6.0392    2.2253    0.0000 C   0  0  0  0  0  0  0  0  0
   -6.8638    2.2510    0.0000 C   0  0  0  0  0  0  0  0  0
   -2.4188   -0.2039    0.0000 C   0  0  0  0  0  0  0  0  0
   -1.7888    0.3287    0.0000 C   0  0  0  0  0  0  0  0  0
   -1.0125    0.0494    0.0000 N   0  0  0  0  0  0  0  0  0
   -0.3825    0.5820    0.0000 C   0  0  0  0  0  0  0  0  0
    0.3938    0.3027    0.0000 C   0  0  0  0  0  0  0  0  0
    0.5400   -0.5092    0.0000 N   0  0  0  0  0  0  0  0  0
   -0.0900   -1.0418    0.0000 C   0  0  0  0  0  0  0  0  0
   -0.8663   -0.7625    0.0000 C   0  0  0  0  0  0  0  0  0
    1.3163   -0.7885    0.0000 C   0  0  0  0  0  0  0  0  0
    1.4626   -1.6005    0.0000 C   0  0  0  0  0  0  0  0  0
    2.2388   -1.8798    0.0000 C   0  0  0  0  0  0  0  0  0
    2.3851   -2.6917    0.0000 C   0  0  0  0  0  0  0  0  0
    3.1614   -2.9710    0.0000 C   0  0  0  0  0  0  0  0  0
    3.3076   -3.7830    0.0000 C   0  0  0  0  0  0  0  0  0
    4.0839   -4.0623    0.0000 C   0  0  0  0  0  0  0  0  0
    4.2301   -4.8742    0.0000 C   0  0  0  0  0  0  0  0  0
    3.6001   -5.4069    0.0000 C   0  0  0  0  0  0  0  0  0
    2.8238   -5.1275    0.0000 C   0  0  0  0  0  0  0  0  0
    2.6776   -4.3156    0.0000 C   0  0  0  0  0  0  0  0  0
  1  2  1  0  0  0  0
  1 18  1  0  0  0  0
  2  3  2  0  0  0  0
  3  4  1  0  0  0  0
  3  8  1  0  0  0  0
  4  5  1  0  0  0  0
  4 18  1  0  0  0  0
  5  6  1  0  0  0  0
  6  7  1  0  0  0  0
  6 13  1  0  0  0  0
  7  8  4  0  0  0  0
  7 12  4  0  0  0  0
  8  9  4  0  0  0  0
  9 10  4  0  0  0  0
 10 11  4  0  0  0  0
 11 12  4  0  0  0  0
 13 14  2  0  0  0  0
 13 15  1  0  0  0  0
 15 16  1  0  0  0  0
 16 17  1  0  0  0  0
 18 19  1  0  0  0  0
 19 20  1  0  0  0  0
 20 21  1  0  0  0  0
 20 25  1  0  0  0  0
 21 22  1  0  0  0  0
 22 23  1  0  0  0  0
 23 24  1  0  0  0  0
 23 26  1  0  0  0  0
 24 25  1  0  0  0  0
 26 27  1  0  0  0  0
 27 28  1  0  0  0  0
 28 29  1  0  0  0  0
 29 30  2  0  0  0  0
 30 31  1  0  0  0  0
 31 32  4  0  0  0  0
 31 36  4  0  0  0  0
 32 33  4  0  0  0  0
 33 34  4  0  0  0  0
 34 35  4  0  0  0  0
 35 36  4  0  0  0  0
M  END
>  <Name_Molregno>
296905

>  <Alpha-2A>
7.7

>  <Alpha-2C>
8.57

>  <Serotonin transporter>
7.64

$$$$
296906
  Marvin  02231216192D 0   1.00000     0.00000     0

 32 36  0  0  1  0  0  0  0  0999 V2000
    2.0345    2.8548    0.0000 O   0  0  0  0  0  0  0  0  0
    1.2707    3.1667    0.0000 N   0  0  0  0  0  0  0  0  0
    0.7381    2.5367    0.0000 C   0  0  0  0  0  0  0  0  0
    1.1727    1.8354    0.0000 C   0  0  0  0  0  0  0  0  0
    0.7827    1.1084    0.0000 C   0  0  0  0  0  0  0  0  0
   -0.0419    1.0826    0.0000 O   0  0  0  0  0  0  0  0  0
   -0.4765    1.7839    0.0000 C   0  0  0  0  0  0  0  0  0
   -1.3011    1.7581    0.0000 C   0  0  0  0  0  0  0  0  0
   -1.7357    2.4594    0.0000 C   0  0  0  0  0  0  0  0  0
   -2.5603    2.4336    0.0000 O   0  0  0  0  0  0  0  0  0
   -2.9949    3.1348    0.0000 C   0  0  0  0  0  0  0  0  0
   -1.3457    3.1864    0.0000 C   0  0  0  0  0  0  0  0  0
   -0.5211    3.2121    0.0000 C   0  0  0  0  0  0  0  0  0
   -0.0865    2.5109    0.0000 C   0  0  0  0  0  0  0  0  0
    1.9739    2.0321    0.0000 C   0  0  0  0  0  0  0  0  0
    2.6039    1.4994    0.0000 C   0  0  0  0  0  0  0  0  0
    2.4577    0.6875    0.0000 N   0  0  0  0  0  0  0  0  0
    3.0877    0.1549    0.0000 C   0  0  0  0  0  0  0  0  0
    2.9415   -0.6571    0.0000 C   0  0  0  0  0  0  0  0  0
    2.1652   -0.9364    0.0000 N   0  0  0  0  0  0  0  0  0
    1.5352   -0.4038    0.0000 C   0  0  0  0  0  0  0  0  0
    1.6814    0.4082    0.0000 C   0  0  0  0  0  0  0  0  0
    2.0190   -1.7483    0.0000 C   0  0  0  0  0  0  0  0  0
    2.6490   -2.2809    0.0000 C   0  0  0  0  0  0  0  0  0
    2.5028   -3.0929    0.0000 C   0  0  0  0  0  0  0  0  0
    1.7265   -3.3722    0.0000 C   0  0  0  0  0  0  0  0  0
    1.5802   -4.1841    0.0000 C   0  0  0  0  0  0  0  0  0
    0.8040   -4.4634    0.0000 C   0  0  0  0  0  0  0  0  0
    0.1739   -3.9308    0.0000 C   0  0  0  0  0  0  0  0  0
    0.3202   -3.1189    0.0000 C   0  0  0  0  0  0  0  0  0
    1.0964   -2.8396    0.0000 C   0  0  0  0  0  0  0  0  0
    3.4253   -2.0016    0.0000 C   0  0  0  0  0  0  0  0  0
  1  2  1  0  0  0  0
  1 15  1  0  0  0  0
  2  3  2  0  0  0  0
  3  4  1  0  0  0  0
  3 14  1  0  0  0  0
  4  5  1  0  0  0  0
  4 15  1  0  0  0  0
  5  6  1  0  0  0  0
  6  7  1  0  0  0  0
  7  8  4  0  0  0  0
  7 14  4  0  0  0  0
  8  9  4  0  0  0  0
  9 10  1  0  0  0  0
  9 12  4  0  0  0  0
 10 11  1  0  0  0  0
 12 13  4  0  0  0  0
 13 14  4  0  0  0  0
 15 16  1  0  0  0  0
 16 17  1  0  0  0  0
 17 18  1  0  0  0  0
 17 22  1  0  0  0  0
 18 19  1  0  0  0  0
 19 20  1  0  0  0  0
 20 21  1  0  0  0  0
 20 23  1  0  0  0  0
 21 22  1  0  0  0  0
 23 24  1  0  0  0  0
 24 25  2  0  0  0  0
 24 32  1  0  0  0  0
 25 26  1  0  0  0  0
 26 27  4  0  0  0  0
 26 31  4  0  0  0  0
 27 28  4  0  0  0  0
 28 29  4  0  0  0  0
 29 30  4  0  0  0  0
 30 31  4  0  0  0  0
M  END
>  <Name_Molregno>
296906

>  <Alpha-2A>
9.3

>  <Alpha-2C>
9.7

$$$$
296907
  Marvin  02231216192D 0   1.00000     0.00000     0

 34 38  0  0  1  0  0  0  0  0999 V2000
   11.3496    3.2728    0.0000 Cl  0  0  0  0  0  0  0  0  0
   11.2034    2.4609    0.0000 C   0  0  0  0  0  0  0  0  0
   11.8334    1.9283    0.0000 C   0  0  0  0  0  0  0  0  0
   11.6872    1.1163    0.0000 C   0  0  0  0  0  0  0  0  0
   10.9109    0.8370    0.0000 C   0  0  0  0  0  0  0  0  0
   10.2809    1.3696    0.0000 C   0  0  0  0  0  0  0  0  0
   10.4271    2.1816    0.0000 C   0  0  0  0  0  0  0  0  0
   10.7647    0.0251    0.0000 C   0  0  0  0  0  0  0  0  0
    9.9884   -0.2542    0.0000 C   0  0  0  0  0  0  0  0  0
    9.8421   -1.0662    0.0000 C   0  0  0  0  0  0  0  0  0
    9.0659   -1.3455    0.0000 N   0  0  0  0  0  0  0  0  0
    8.9196   -2.1574    0.0000 C   0  0  0  0  0  0  0  0  0
    8.1433   -2.4367    0.0000 C   0  0  0  0  0  0  0  0  0
    7.5133   -1.9041    0.0000 N   0  0  0  0  0  0  0  0  0
    7.6595   -1.0922    0.0000 C   0  0  0  0  0  0  0  0  0
    8.4358   -0.8129    0.0000 C   0  0  0  0  0  0  0  0  0
    6.7370   -2.1834    0.0000 C   0  0  0  0  0  0  0  0  0
    6.1070   -1.6508    0.0000 C   0  0  0  0  0  0  0  0  0
    6.1676   -0.8280    0.0000 O   0  0  0  0  0  0  0  0  0
    5.4038   -0.5162    0.0000 N   0  0  0  0  0  0  0  0  0
    4.8712   -1.1462    0.0000 C   0  0  0  0  0  0  0  0  0
    5.3058   -1.8475    0.0000 C   0  0  0  0  0  0  0  0  0
    4.9158   -2.5745    0.0000 C   0  0  0  0  0  0  0  0  0
    4.0912   -2.6002    0.0000 N   0  0  0  0  0  0  0  0  0
    3.6566   -1.8990    0.0000 C   0  0  0  0  0  0  0  0  0
    2.8320   -1.9248    0.0000 C   0  0  0  0  0  0  0  0  0
    2.3974   -1.2235    0.0000 C   0  0  0  0  0  0  0  0  0
    1.5728   -1.2493    0.0000 O   0  0  0  0  0  0  0  0  0
    1.1828   -1.9763    0.0000 C   0  0  0  0  0  0  0  0  0
    2.7874   -0.4965    0.0000 C   0  0  0  0  0  0  0  0  0
    2.3527    0.2047    0.0000 O   0  0  0  0  0  0  0  0  0
    2.7427    0.9317    0.0000 C   0  0  0  0  0  0  0  0  0
    3.6120   -0.4707    0.0000 C   0  0  0  0  0  0  0  0  0
    4.0466   -1.1720    0.0000 C   0  0  0  0  0  0  0  0  0
  1  2  1  0  0  0  0
  2  3  4  0  0  0  0
  2  7  4  0  0  0  0
  3  4  4  0  0  0  0
  4  5  4  0  0  0  0
  5  6  4  0  0  0  0
  5  8  1  0  0  0  0
  6  7  4  0  0  0  0
  8  9  1  0  0  0  0
  9 10  1  0  0  0  0
 10 11  1  0  0  0  0
 11 12  1  0  0  0  0
 11 16  1  0  0  0  0
 12 13  1  0  0  0  0
 13 14  1  0  0  0  0
 14 15  1  0  0  0  0
 14 17  1  0  0  0  0
 15 16  1  0  0  0  0
 17 18  1  0  0  0  0
 18 19  1  0  0  0  0
 18 22  1  0  0  0  0
 19 20  1  0  0  0  0
 20 21  2  0  0  0  0
 21 22  1  0  0  0  0
 21 34  1  0  0  0  0
 22 23  1  0  0  0  0
 23 24  1  0  0  0  0
 24 25  1  0  0  0  0
 25 26  4  0  0  0  0
 25 34  4  0  0  0  0
 26 27  4  0  0  0  0
 27 28  1  0  0  0  0
 27 30  4  0  0  0  0
 28 29  1  0  0  0  0
 30 31  1  0  0  0  0
 30 33  4  0  0  0  0
 31 32  1  0  0  0  0
 33 34  4  0  0  0  0
M  END
>  <Name_Molregno>
296907

>  <Alpha-2A>
6

>  <Alpha-2C>
7.64

>  <Serotonin transporter>
6.82

$$$$
296908
  Marvin  02231216192D 0   1.00000     0.00000     0

 36 40  0  0  1  0  0  0  0  0999 V2000
    0.0001    0.4312    0.0000 O   0  0  0  0  0  0  0  0  0
   -0.7637    0.7430    0.0000 N   0  0  0  0  0  0  0  0  0
   -1.2963    0.1130    0.0000 C   0  0  0  0  0  0  0  0  0
   -0.8617   -0.5883    0.0000 C   0  0  0  0  0  0  0  0  0
   -1.2517   -1.3153    0.0000 C   0  0  0  0  0  0  0  0  0
   -2.0763   -1.3410    0.0000 O   0  0  0  0  0  0  0  0  0
   -2.5109   -0.6398    0.0000 C   0  0  0  0  0  0  0  0  0
   -3.3355   -0.6656    0.0000 C   0  0  0  0  0  0  0  0  0
   -3.7701    0.0357    0.0000 C   0  0  0  0  0  0  0  0  0
   -4.5947    0.0099    0.0000 O   0  0  0  0  0  0  0  0  0
   -5.0293    0.7112    0.0000 C   0  0  0  0  0  0  0  0  0
   -4.6393    1.4382    0.0000 O   0  0  0  0  0  0  0  0  0
   -5.8539    0.6854    0.0000 C   0  0  0  0  0  0  0  0  0
   -6.2885    1.3866    0.0000 O   0  0  0  0  0  0  0  0  0
   -7.1131    1.3609    0.0000 C   0  0  0  0  0  0  0  0  0
   -3.3801    0.7627    0.0000 C   0  0  0  0  0  0  0  0  0
   -2.5555    0.7885    0.0000 C   0  0  0  0  0  0  0  0  0
   -2.1209    0.0872    0.0000 C   0  0  0  0  0  0  0  0  0
   -0.0605   -0.3916    0.0000 C   0  0  0  0  0  0  0  0  0
    0.5696   -0.9242    0.0000 C   0  0  0  0  0  0  0  0  0
    1.3459   -0.6449    0.0000 N   0  0  0  0  0  0  0  0  0
    1.4921    0.1670    0.0000 C   0  0  0  0  0  0  0  0  0
    2.2684    0.4463    0.0000 C   0  0  0  0  0  0  0  0  0
    2.8984   -0.0863    0.0000 N   0  0  0  0  0  0  0  0  0
    2.7522   -0.8982    0.0000 C   0  0  0  0  0  0  0  0  0
    1.9759   -1.1775    0.0000 C   0  0  0  0  0  0  0  0  0
    3.6747    0.1930    0.0000 C   0  0  0  0  0  0  0  0  0
    3.8209    1.0050    0.0000 C   0  0  0  0  0  0  0  0  0
    4.5972    1.2843    0.0000 C   0  0  0  0  0  0  0  0  0
    5.2272    0.7517    0.0000 C   0  0  0  0  0  0  0  0  0
    6.0035    1.0310    0.0000 C   0  0  0  0  0  0  0  0  0
    6.6336    0.4984    0.0000 C   0  0  0  0  0  0  0  0  0
    6.4873   -0.3136    0.0000 C   0  0  0  0  0  0  0  0  0
    5.7110   -0.5929    0.0000 C   0  0  0  0  0  0  0  0  0
    5.0810   -0.0603    0.0000 C   0  0  0  0  0  0  0  0  0
    3.1909    1.5376    0.0000 C   0  0  0  0  0  0  0  0  0
  1  2  1  0  0  0  0
  1 19  1  0  0  0  0
  2  3  2  0  0  0  0
  3  4  1  0  0  0  0
  3 18  1  0  0  0  0
  4  5  1  0  0  0  0
  4 19  1  0  0  0  0
  5  6  1  0  0  0  0
  6  7  1  0  0  0  0
  7  8  4  0  0  0  0
  7 18  4  0  0  0  0
  8  9  4  0  0  0  0
  9 10  1  0  0  0  0
  9 16  4  0  0  0  0
 10 11  1  0  0  0  0
 11 12  2  0  0  0  0
 11 13  1  0  0  0  0
 13 14  1  0  0  0  0
 14 15  1  0  0  0  0
 16 17  4  0  0  0  0
 17 18  4  0  0  0  0
 19 20  1  0  0  0  0
 20 21  1  0  0  0  0
 21 22  1  0  0  0  0
 21 26  1  0  0  0  0
 22 23  1  0  0  0  0
 23 24  1  0  0  0  0
 24 25  1  0  0  0  0
 24 27  1  0  0  0  0
 25 26  1  0  0  0  0
 27 28  1  0  0  0  0
 28 29  2  0  0  0  0
 28 36  1  0  0  0  0
 29 30  1  0  0  0  0
 30 31  4  0  0  0  0
 30 35  4  0  0  0  0
 31 32  4  0  0  0  0
 32 33  4  0  0  0  0
 33 34  4  0  0  0  0
 34 35  4  0  0  0  0
M  END
>  <Name_Molregno>
296908

>  <Alpha-2A>
9.15

>  <Alpha-2C>
9.7

>  <Serotonin transporter>
8.11

$$$$
296920
  Marvin  02231216192D 0   1.00000     0.00000     0

 37 42  0  0  1  0  0  0  0  0999 V2000
   -1.2093    0.9861    0.0000 O   0  0  0  0  0  0  0  0  0
   -1.7613    0.3730    0.0000 N   0  0  0  0  0  0  0  0  0
   -1.3488   -0.3415    0.0000 C   0  0  0  0  0  0  0  0  0
   -0.5418   -0.1700    0.0000 C   0  0  0  0  0  0  0  0  0
    0.0102   -0.7830    0.0000 C   0  0  0  0  0  0  0  0  0
   -0.2447   -1.5677    0.0000 O   0  0  0  0  0  0  0  0  0
   -1.0517   -1.7392    0.0000 C   0  0  0  0  0  0  0  0  0
   -1.3066   -2.5238    0.0000 C   0  0  0  0  0  0  0  0  0
   -2.1136   -2.6953    0.0000 C   0  0  0  0  0  0  0  0  0
   -2.3686   -3.4800    0.0000 O   0  0  0  0  0  0  0  0  0
   -3.1755   -3.6515    0.0000 C   0  0  0  0  0  0  0  0  0
   -2.6656   -2.0823    0.0000 C   0  0  0  0  0  0  0  0  0
   -3.4726   -2.2538    0.0000 O   0  0  0  0  0  0  0  0  0
   -4.0247   -1.6407    0.0000 C   0  0  0  0  0  0  0  0  0
   -2.4107   -1.2976    0.0000 C   0  0  0  0  0  0  0  0  0
   -1.6037   -1.1261    0.0000 C   0  0  0  0  0  0  0  0  0
   -0.4556    0.6505    0.0000 C   0  0  0  0  0  0  0  0  0
    0.2589    1.0630    0.0000 C   0  0  0  0  0  0  0  0  0
    0.9734    0.6505    0.0000 N   0  0  0  0  0  0  0  0  0
    1.6878    1.0630    0.0000 C   0  0  0  0  0  0  0  0  0
    2.4023    0.6505    0.0000 C   0  0  0  0  0  0  0  0  0
    2.4023   -0.1745    0.0000 N   0  0  0  0  0  0  0  0  0
    1.6878   -0.5870    0.0000 C   0  0  0  0  0  0  0  0  0
    0.9734   -0.1745    0.0000 C   0  0  0  0  0  0  0  0  0
    3.1168   -0.5870    0.0000 C   0  0  0  0  0  0  0  0  0
    3.8312   -0.1745    0.0000 C   0  0  0  0  0  0  0  0  0
    4.5457   -0.5870    0.0000 C   0  0  0  0  0  0  0  0  0
    5.2602   -0.1745    0.0000 C   0  0  0  0  0  0  0  0  0
    5.9747   -0.5870    0.0000 C   0  0  0  0  0  0  0  0  0
    6.6891   -0.1745    0.0000 C   0  0  0  0  0  0  0  0  0
    6.6891    0.6505    0.0000 C   0  0  0  0  0  0  0  0  0
    5.9747    1.0630    0.0000 C   0  0  0  0  0  0  0  0  0
    5.2602    0.6505    0.0000 C   0  0  0  0  0  0  0  0  0
    7.4036    1.0630    0.0000 C   0  0  0  0  0  0  0  0  0
    8.1181    0.6505    0.0000 C   0  0  0  0  0  0  0  0  0
    8.1181   -0.1745    0.0000 C   0  0  0  0  0  0  0  0  0
    7.4036   -0.5870    0.0000 C   0  0  0  0  0  0  0  0  0
  1  2  1  0  0  0  0
  1 17  1  0  0  0  0
  2  3  2  0  0  0  0
  3  4  1  0  0  0  0
  3 16  1  0  0  0  0
  4  5  1  0  0  0  0
  4 17  1  0  0  0  0
  5  6  1  0  0  0  0
  6  7  1  0  0  0  0
  7  8  4  0  0  0  0
  7 16  4  0  0  0  0
  8  9  4  0  0  0  0
  9 10  1  0  0  0  0
  9 12  4  0  0  0  0
 10 11  1  0  0  0  0
 12 13  1  0  0  0  0
 12 15  4  0  0  0  0
 13 14  1  0  0  0  0
 15 16  4  0  0  0  0
 17 18  1  0  0  0  0
 18 19  1  0  0  0  0
 19 20  1  0  0  0  0
 19 24  1  0  0  0  0
 20 21  1  0  0  0  0
 21 22  1  0  0  0  0
 22 23  1  0  0  0  0
 22 25  1  0  0  0  0
 23 24  1  0  0  0  0
 25 26  1  0  0  0  0
 26 27  1  0  0  0  0
 27 28  1  0  0  0  0
 28 29  4  0  0  0  0
 28 33  4  0  0  0  0
 29 30  4  0  0  0  0
 30 31  4  0  0  0  0
 30 37  4  0  0  0  0
 31 32  4  0  0  0  0
 31 34  4  0  0  0  0
 32 33  4  0  0  0  0
 34 35  4  0  0  0  0
 35 36  4  0  0  0  0
 36 37  4  0  0  0  0
M  END
>  <Name_Molregno>
296920

>  <5-HT1A>
6

>  <5-HT2A>
6

>  <5-HT2C>
6

>  <5-HT7>
6

>  <Alpha-2A>
8.6

>  <Alpha-2B>
7.85

>  <Alpha-2C>
8.81

>  <DOPAMINE D3>
6.97

>  <DOPAMINE D4>
6

>  <HISTAMINE H1>
6.34

>  <Serotonin transporter>
8.77

$$$$
296921
  Marvin  02231216192D 0   1.00000     0.00000     0

 36 40  0  0  1  0  0  0  0  0999 V2000
   -2.3583   -1.0267    0.0000 O   0  0  0  0  0  0  0  0  0
   -3.1220   -1.3385    0.0000 N   0  0  0  0  0  0  0  0  0
   -3.6547   -0.7085    0.0000 C   0  0  0  0  0  0  0  0  0
   -3.2200   -0.0073    0.0000 C   0  0  0  0  0  0  0  0  0
   -3.6100    0.7198    0.0000 C   0  0  0  0  0  0  0  0  0
   -4.4346    0.7455    0.0000 N   0  0  0  0  0  0  0  0  0
   -4.8692    0.0443    0.0000 C   0  0  0  0  0  0  0  0  0
   -4.4793   -0.6827    0.0000 C   0  0  0  0  0  0  0  0  0
   -4.9139   -1.3840    0.0000 C   0  0  0  0  0  0  0  0  0
   -5.7385   -1.3582    0.0000 C   0  0  0  0  0  0  0  0  0
   -6.1284   -0.6312    0.0000 C   0  0  0  0  0  0  0  0  0
   -5.6938    0.0700    0.0000 C   0  0  0  0  0  0  0  0  0
   -4.8246    1.4725    0.0000 C   0  0  0  0  0  0  0  0  0
   -5.6492    1.4983    0.0000 O   0  0  0  0  0  0  0  0  0
   -6.0392    2.2253    0.0000 C   0  0  0  0  0  0  0  0  0
   -6.8638    2.2510    0.0000 C   0  0  0  0  0  0  0  0  0
   -4.3900    2.1738    0.0000 O   0  0  0  0  0  0  0  0  0
   -2.4188   -0.2039    0.0000 C   0  0  0  0  0  0  0  0  0
   -1.7888    0.3287    0.0000 C   0  0  0  0  0  0  0  0  0
   -1.0125    0.0494    0.0000 N   0  0  0  0  0  0  0  0  0
   -0.3825    0.5820    0.0000 C   0  0  0  0  0  0  0  0  0
    0.3938    0.3027    0.0000 C   0  0  0  0  0  0  0  0  0
    0.5400   -0.5092    0.0000 N   0  0  0  0  0  0  0  0  0
   -0.0900   -1.0418    0.0000 C   0  0  0  0  0  0  0  0  0
   -0.8663   -0.7625    0.0000 C   0  0  0  0  0  0  0  0  0
    1.3163   -0.7885    0.0000 C   0  0  0  0  0  0  0  0  0
    1.4626   -1.6005    0.0000 C   0  0  0  0  0  0  0  0  0
    2.2388   -1.8798    0.0000 C   0  0  0  0  0  0  0  0  0
    2.3851   -2.6917    0.0000 C   0  0  0  0  0  0  0  0  0
    3.1614   -2.9710    0.0000 C   0  0  0  0  0  0  0  0  0
    3.3076   -3.7830    0.0000 C   0  0  0  0  0  0  0  0  0
    4.0839   -4.0623    0.0000 C   0  0  0  0  0  0  0  0  0
    4.2301   -4.8742    0.0000 C   0  0  0  0  0  0  0  0  0
    3.6001   -5.4069    0.0000 C   0  0  0  0  0  0  0  0  0
    2.8238   -5.1275    0.0000 C   0  0  0  0  0  0  0  0  0
    2.6776   -4.3156    0.0000 C   0  0  0  0  0  0  0  0  0
  1  2  1  0  0  0  0
  1 18  1  0  0  0  0
  2  3  2  0  0  0  0
  3  4  1  0  0  0  0
  3  8  1  0  0  0  0
  4  5  1  0  0  0  0
  4 18  1  0  0  0  0
  5  6  1  0  0  0  0
  6  7  1  0  0  0  0
  6 13  1  0  0  0  0
  7  8  4  0  0  0  0
  7 12  4  0  0  0  0
  8  9  4  0  0  0  0
  9 10  4  0  0  0  0
 10 11  4  0  0  0  0
 11 12  4  0  0  0  0
 13 14  1  0  0  0  0
 13 17  2  0  0  0  0
 14 15  1  0  0  0  0
 15 16  1  0  0  0  0
 18 19  1  0  0  0  0
 19 20  1  0  0  0  0
 20 21  1  0  0  0  0
 20 25  1  0  0  0  0
 21 22  1  0  0  0  0
 22 23  1  0  0  0  0
 23 24  1  0  0  0  0
 23 26  1  0  0  0  0
 24 25  1  0  0  0  0
 26 27  1  0  0  0  0
 27 28  1  0  0  0  0
 28 29  1  0  0  0  0
 29 30  2  0  0  0  0
 30 31  1  0  0  0  0
 31 32  4  0  0  0  0
 31 36  4  0  0  0  0
 32 33  4  0  0  0  0
 33 34  4  0  0  0  0
 34 35  4  0  0  0  0
 35 36  4  0  0  0  0
M  END
>  <Name_Molregno>
296921

>  <Alpha-2A>
7.48

>  <Alpha-2C>
8.01

>  <Serotonin transporter>
8.59

$$$$
296922
  Marvin  02231216192D 0   1.00000     0.00000     0

 31 35  0  0  1  0  0  0  0  0999 V2000
    2.0814    2.5795    0.0000 O   0  0  0  0  0  0  0  0  0
    1.3176    2.8913    0.0000 N   0  0  0  0  0  0  0  0  0
    0.7850    2.2613    0.0000 C   0  0  0  0  0  0  0  0  0
    1.2196    1.5600    0.0000 C   0  0  0  0  0  0  0  0  0
    0.8296    0.8330    0.0000 C   0  0  0  0  0  0  0  0  0
    0.0050    0.8073    0.0000 O   0  0  0  0  0  0  0  0  0
   -0.4296    1.5085    0.0000 C   0  0  0  0  0  0  0  0  0
   -1.2542    1.4828    0.0000 C   0  0  0  0  0  0  0  0  0
   -1.6888    2.1840    0.0000 C   0  0  0  0  0  0  0  0  0
   -2.5134    2.1582    0.0000 O   0  0  0  0  0  0  0  0  0
   -1.2989    2.9110    0.0000 C   0  0  0  0  0  0  0  0  0
   -0.4743    2.9368    0.0000 C   0  0  0  0  0  0  0  0  0
   -0.0396    2.2355    0.0000 C   0  0  0  0  0  0  0  0  0
    2.0208    1.7567    0.0000 C   0  0  0  0  0  0  0  0  0
    2.6508    1.2241    0.0000 C   0  0  0  0  0  0  0  0  0
    2.5046    0.4121    0.0000 N   0  0  0  0  0  0  0  0  0
    3.1346   -0.1205    0.0000 C   0  0  0  0  0  0  0  0  0
    2.9884   -0.9324    0.0000 C   0  0  0  0  0  0  0  0  0
    2.2121   -1.2117    0.0000 N   0  0  0  0  0  0  0  0  0
    1.5821   -0.6791    0.0000 C   0  0  0  0  0  0  0  0  0
    1.7283    0.1328    0.0000 C   0  0  0  0  0  0  0  0  0
    2.0658   -2.0237    0.0000 C   0  0  0  0  0  0  0  0  0
    2.6959   -2.5563    0.0000 C   0  0  0  0  0  0  0  0  0
    2.5496   -3.3682    0.0000 C   0  0  0  0  0  0  0  0  0
    1.7734   -3.6475    0.0000 C   0  0  0  0  0  0  0  0  0
    1.6271   -4.4595    0.0000 C   0  0  0  0  0  0  0  0  0
    0.8508   -4.7388    0.0000 C   0  0  0  0  0  0  0  0  0
    0.2208   -4.2062    0.0000 C   0  0  0  0  0  0  0  0  0
    0.3670   -3.3942    0.0000 C   0  0  0  0  0  0  0  0  0
    1.1433   -3.1149    0.0000 C   0  0  0  0  0  0  0  0  0
    3.4722   -2.2770    0.0000 C   0  0  0  0  0  0  0  0  0
  1  2  1  0  0  0  0
  1 14  1  0  0  0  0
  2  3  2  0  0  0  0
  3  4  1  0  0  0  0
  3 13  1  0  0  0  0
  4  5  1  0  0  0  0
  4 14  1  0  0  0  0
  5  6  1  0  0  0  0
  6  7  1  0  0  0  0
  7  8  4  0  0  0  0
  7 13  4  0  0  0  0
  8  9  4  0  0  0  0
  9 10  1  0  0  0  0
  9 11  4  0  0  0  0
 11 12  4  0  0  0  0
 12 13  4  0  0  0  0
 14 15  1  0  0  0  0
 15 16  1  0  0  0  0
 16 17  1  0  0  0  0
 16 21  1  0  0  0  0
 17 18  1  0  0  0  0
 18 19  1  0  0  0  0
 19 20  1  0  0  0  0
 19 22  1  0  0  0  0
 20 21  1  0  0  0  0
 22 23  1  0  0  0  0
 23 24  2  0  0  0  0
 23 31  1  0  0  0  0
 24 25  1  0  0  0  0
 25 26  4  0  0  0  0
 25 30  4  0  0  0  0
 26 27  4  0  0  0  0
 27 28  4  0  0  0  0
 28 29  4  0  0  0  0
 29 30  4  0  0  0  0
M  END
>  <Name_Molregno>
296922

>  <Alpha-2A>
9.7

>  <Alpha-2C>
10

>  <Serotonin transporter>
8.44

$$$$
296923
  Marvin  02231216192D 0   1.00000     0.00000     0

 37 42  0  0  1  0  0  0  0  0999 V2000
   -1.2093    0.9861    0.0000 O   0  0  0  0  0  0  0  0  0
   -1.7613    0.3730    0.0000 N   0  0  0  0  0  0  0  0  0
   -1.3488   -0.3415    0.0000 C   0  0  0  0  0  0  0  0  0
   -0.5418   -0.1700    0.0000 C   0  0  0  0  0  0  0  0  0
    0.0102   -0.7830    0.0000 C   0  0  0  0  0  0  0  0  0
   -0.2447   -1.5677    0.0000 N   0  0  0  0  0  0  0  0  0
   -1.0517   -1.7392    0.0000 C   0  0  0  0  0  0  0  0  0
   -1.3066   -2.5238    0.0000 C   0  0  0  0  0  0  0  0  0
   -2.1136   -2.6953    0.0000 C   0  0  0  0  0  0  0  0  0
   -2.3686   -3.4800    0.0000 O   0  0  0  0  0  0  0  0  0
   -3.1755   -3.6515    0.0000 C   0  0  0  0  0  0  0  0  0
   -2.6656   -2.0823    0.0000 C   0  0  0  0  0  0  0  0  0
   -3.4726   -2.2538    0.0000 O   0  0  0  0  0  0  0  0  0
   -4.0247   -1.6407    0.0000 C   0  0  0  0  0  0  0  0  0
   -2.4107   -1.2976    0.0000 C   0  0  0  0  0  0  0  0  0
   -1.6037   -1.1261    0.0000 C   0  0  0  0  0  0  0  0  0
   -0.4556    0.6505    0.0000 C   0  0  0  0  0  0  0  0  0
    0.2589    1.0630    0.0000 C   0  0  0  0  0  0  0  0  0
    0.9734    0.6505    0.0000 N   0  0  0  0  0  0  0  0  0
    1.6878    1.0630    0.0000 C   0  0  0  0  0  0  0  0  0
    2.4023    0.6505    0.0000 C   0  0  0  0  0  0  0  0  0
    2.4023   -0.1745    0.0000 N   0  0  0  0  0  0  0  0  0
    1.6878   -0.5870    0.0000 C   0  0  0  0  0  0  0  0  0
    0.9734   -0.1745    0.0000 C   0  0  0  0  0  0  0  0  0
    3.1168   -0.5870    0.0000 C   0  0  0  0  0  0  0  0  0
    3.8312   -0.1745    0.0000 C   0  0  0  0  0  0  0  0  0
    4.5457   -0.5870    0.0000 C   0  0  0  0  0  0  0  0  0
    5.2602   -0.1745    0.0000 C   0  0  0  0  0  0  0  0  0
    5.9747   -0.5870    0.0000 C   0  0  0  0  0  0  0  0  0
    6.6891   -0.1745    0.0000 C   0  0  0  0  0  0  0  0  0
    6.6891    0.6505    0.0000 C   0  0  0  0  0  0  0  0  0
    5.9747    1.0630    0.0000 C   0  0  0  0  0  0  0  0  0
    5.2602    0.6505    0.0000 C   0  0  0  0  0  0  0  0  0
    7.4036    1.0630    0.0000 C   0  0  0  0  0  0  0  0  0
    8.1181    0.6505    0.0000 C   0  0  0  0  0  0  0  0  0
    8.1181   -0.1745    0.0000 C   0  0  0  0  0  0  0  0  0
    7.4036   -0.5870    0.0000 C   0  0  0  0  0  0  0  0  0
  1  2  1  0  0  0  0
  1 17  1  0  0  0  0
  2  3  2  0  0  0  0
  3  4  1  0  0  0  0
  3 16  1  0  0  0  0
  4  5  1  0  0  0  0
  4 17  1  0  0  0  0
  5  6  1  0  0  0  0
  6  7  1  0  0  0  0
  7  8  4  0  0  0  0
  7 16  4  0  0  0  0
  8  9  4  0  0  0  0
  9 10  1  0  0  0  0
  9 12  4  0  0  0  0
 10 11  1  0  0  0  0
 12 13  1  0  0  0  0
 12 15  4  0  0  0  0
 13 14  1  0  0  0  0
 15 16  4  0  0  0  0
 17 18  1  0  0  0  0
 18 19  1  0  0  0  0
 19 20  1  0  0  0  0
 19 24  1  0  0  0  0
 20 21  1  0  0  0  0
 21 22  1  0  0  0  0
 22 23  1  0  0  0  0
 22 25  1  0  0  0  0
 23 24  1  0  0  0  0
 25 26  1  0  0  0  0
 26 27  1  0  0  0  0
 27 28  1  0  0  0  0
 28 29  4  0  0  0  0
 28 33  4  0  0  0  0
 29 30  4  0  0  0  0
 30 31  4  0  0  0  0
 30 37  4  0  0  0  0
 31 32  4  0  0  0  0
 31 34  4  0  0  0  0
 32 33  4  0  0  0  0
 34 35  4  0  0  0  0
 35 36  4  0  0  0  0
 36 37  4  0  0  0  0
M  END
>  <Name_Molregno>
296923

>  <Alpha-2A>
7.13

>  <Alpha-2C>
7.92

>  <Serotonin transporter>
8.82

$$$$
296925
  Marvin  02231216192D 0   1.00000     0.00000     0

 37 41  0  0  1  0  0  0  0  0999 V2000
    1.3481    2.7644    0.0000 O   0  0  0  0  0  0  0  0  0
    0.5843    3.0763    0.0000 N   0  0  0  0  0  0  0  0  0
    0.0517    2.4463    0.0000 C   0  0  0  0  0  0  0  0  0
    0.4863    1.7450    0.0000 C   0  0  0  0  0  0  0  0  0
    0.0963    1.0180    0.0000 C   0  0  0  0  0  0  0  0  0
   -0.7283    0.9922    0.0000 N   0  0  0  0  0  0  0  0  0
   -1.1629    1.6935    0.0000 C   0  0  0  0  0  0  0  0  0
   -1.9875    1.6677    0.0000 C   0  0  0  0  0  0  0  0  0
   -2.4221    2.3690    0.0000 C   0  0  0  0  0  0  0  0  0
   -3.2467    2.3432    0.0000 O   0  0  0  0  0  0  0  0  0
   -3.6813    3.0444    0.0000 C   0  0  0  0  0  0  0  0  0
   -2.0321    3.0960    0.0000 C   0  0  0  0  0  0  0  0  0
   -2.4667    3.7972    0.0000 O   0  0  0  0  0  0  0  0  0
   -2.0767    4.5242    0.0000 C   0  0  0  0  0  0  0  0  0
   -1.2075    3.1217    0.0000 C   0  0  0  0  0  0  0  0  0
   -0.7729    2.4205    0.0000 C   0  0  0  0  0  0  0  0  0
   -1.1182    0.2652    0.0000 C   0  0  0  0  0  0  0  0  0
    1.2875    1.9417    0.0000 C   0  0  0  0  0  0  0  0  0
    1.9176    1.4090    0.0000 C   0  0  0  0  0  0  0  0  0
    1.7713    0.5971    0.0000 N   0  0  0  0  0  0  0  0  0
    2.4014    0.0645    0.0000 C   0  0  0  0  0  0  0  0  0
    2.2551   -0.7474    0.0000 C   0  0  0  0  0  0  0  0  0
    1.4789   -1.0268    0.0000 N   0  0  0  0  0  0  0  0  0
    0.8488   -0.4941    0.0000 C   0  0  0  0  0  0  0  0  0
    0.9951    0.3178    0.0000 C   0  0  0  0  0  0  0  0  0
    1.3326   -1.8387    0.0000 C   0  0  0  0  0  0  0  0  0
    1.9626   -2.3713    0.0000 C   0  0  0  0  0  0  0  0  0
    2.7389   -2.0920    0.0000 C   0  0  0  0  0  0  0  0  0
    3.3690   -2.6246    0.0000 C   0  0  0  0  0  0  0  0  0
    4.1452   -2.3453    0.0000 C   0  0  0  0  0  0  0  0  0
    4.2915   -1.5334    0.0000 C   0  0  0  0  0  0  0  0  0
    3.6614   -1.0007    0.0000 C   0  0  0  0  0  0  0  0  0
    3.8077   -0.1888    0.0000 C   0  0  0  0  0  0  0  0  0
    4.5840    0.0905    0.0000 C   0  0  0  0  0  0  0  0  0
    5.2140   -0.4421    0.0000 C   0  0  0  0  0  0  0  0  0
    5.0678   -1.2540    0.0000 C   0  0  0  0  0  0  0  0  0
    3.2227   -3.4366    0.0000 C   0  0  0  0  0  0  0  0  0
  1  2  1  0  0  0  0
  1 18  1  0  0  0  0
  2  3  2  0  0  0  0
  3  4  1  0  0  0  0
  3 16  1  0  0  0  0
  4  5  1  0  0  0  0
  4 18  1  0  0  0  0
  5  6  1  0  0  0  0
  6  7  1  0  0  0  0
  6 17  1  0  0  0  0
  7  8  4  0  0  0  0
  7 16  4  0  0  0  0
  8  9  4  0  0  0  0
  9 10  1  0  0  0  0
  9 12  4  0  0  0  0
 10 11  1  0  0  0  0
 12 13  1  0  0  0  0
 12 15  4  0  0  0  0
 13 14  1  0  0  0  0
 15 16  4  0  0  0  0
 18 19  1  0  0  0  0
 19 20  1  0  0  0  0
 20 21  1  0  0  0  0
 20 25  1  0  0  0  0
 21 22  1  0  0  0  0
 22 23  1  0  0  0  0
 23 24  1  0  0  0  0
 23 26  1  0  0  0  0
 24 25  1  0  0  0  0
 26 27  1  0  0  0  0
 27 28  1  0  0  0  0
 28 29  1  0  0  0  0
 29 30  2  0  0  0  0
 29 37  1  0  0  0  0
 30 31  1  0  0  0  0
 31 32  4  0  0  0  0
 31 36  4  0  0  0  0
 32 33  4  0  0  0  0
 33 34  4  0  0  0  0
 34 35  4  0  0  0  0
 35 36  4  0  0  0  0
M  END
>  <Name_Molregno>
296925

>  <Alpha-2A>
7.96

>  <Alpha-2C>
8.4

>  <Serotonin transporter>
6.98

$$$$
296928
  Marvin  02231216192D 0   1.00000     0.00000     0

 36 41  0  0  1  0  0  0  0  0999 V2000
    1.8124    2.5674    0.0000 O   0  0  0  0  0  0  0  0  0
    1.0486    2.8792    0.0000 N   0  0  0  0  0  0  0  0  0
    0.5160    2.2492    0.0000 C   0  0  0  0  0  0  0  0  0
    0.9506    1.5479    0.0000 C   0  0  0  0  0  0  0  0  0
    0.5606    0.8209    0.0000 C   0  0  0  0  0  0  0  0  0
   -0.2640    0.7952    0.0000 O   0  0  0  0  0  0  0  0  0
   -0.6986    1.4964    0.0000 C   0  0  0  0  0  0  0  0  0
   -1.5232    1.4706    0.0000 C   0  0  0  0  0  0  0  0  0
   -1.9578    2.1719    0.0000 C   0  0  0  0  0  0  0  0  0
   -2.7824    2.1461    0.0000 O   0  0  0  0  0  0  0  0  0
   -3.2170    2.8474    0.0000 C   0  0  0  0  0  0  0  0  0
   -2.8270    3.5744    0.0000 O   0  0  0  0  0  0  0  0  0
   -4.0416    2.8216    0.0000 C   0  0  0  0  0  0  0  0  0
   -4.7429    2.3870    0.0000 C   0  0  0  0  0  0  0  0  0
   -4.7686    3.2116    0.0000 C   0  0  0  0  0  0  0  0  0
   -1.5678    2.8989    0.0000 C   0  0  0  0  0  0  0  0  0
   -0.7432    2.9247    0.0000 C   0  0  0  0  0  0  0  0  0
   -0.3086    2.2234    0.0000 C   0  0  0  0  0  0  0  0  0
    1.7518    1.7446    0.0000 C   0  0  0  0  0  0  0  0  0
    2.3818    1.2120    0.0000 C   0  0  0  0  0  0  0  0  0
    2.2356    0.4000    0.0000 N   0  0  0  0  0  0  0  0  0
    2.8656   -0.1326    0.0000 C   0  0  0  0  0  0  0  0  0
    2.7194   -0.9445    0.0000 C   0  0  0  0  0  0  0  0  0
    1.9431   -1.2238    0.0000 N   0  0  0  0  0  0  0  0  0
    1.3131   -0.6912    0.0000 C   0  0  0  0  0  0  0  0  0
    1.4593    0.1207    0.0000 C   0  0  0  0  0  0  0  0  0
    1.7969   -2.0358    0.0000 C   0  0  0  0  0  0  0  0  0
    2.4269   -2.5684    0.0000 C   0  0  0  0  0  0  0  0  0
    2.2807   -3.3803    0.0000 C   0  0  0  0  0  0  0  0  0
    1.5044   -3.6596    0.0000 C   0  0  0  0  0  0  0  0  0
    1.3581   -4.4716    0.0000 C   0  0  0  0  0  0  0  0  0
    0.5819   -4.7509    0.0000 C   0  0  0  0  0  0  0  0  0
   -0.0482   -4.2183    0.0000 C   0  0  0  0  0  0  0  0  0
    0.0981   -3.4063    0.0000 C   0  0  0  0  0  0  0  0  0
    0.8743   -3.1270    0.0000 C   0  0  0  0  0  0  0  0  0
    3.2032   -2.2891    0.0000 C   0  0  0  0  0  0  0  0  0
  1  2  1  0  0  0  0
  1 19  1  0  0  0  0
  2  3  2  0  0  0  0
  3  4  1  0  0  0  0
  3 18  1  0  0  0  0
  4  5  1  0  0  0  0
  4 19  1  0  0  0  0
  5  6  1  0  0  0  0
  6  7  1  0  0  0  0
  7  8  4  0  0  0  0
  7 18  4  0  0  0  0
  8  9  4  0  0  0  0
  9 10  1  0  0  0  0
  9 16  4  0  0  0  0
 10 11  1  0  0  0  0
 11 12  2  0  0  0  0
 11 13  1  0  0  0  0
 13 14  1  0  0  0  0
 13 15  1  0  0  0  0
 14 15  1  0  0  0  0
 16 17  4  0  0  0  0
 17 18  4  0  0  0  0
 19 20  1  0  0  0  0
 20 21  1  0  0  0  0
 21 22  1  0  0  0  0
 21 26  1  0  0  0  0
 22 23  1  0  0  0  0
 23 24  1  0  0  0  0
 24 25  1  0  0  0  0
 24 27  1  0  0  0  0
 25 26  1  0  0  0  0
 27 28  1  0  0  0  0
 28 29  2  0  0  0  0
 28 36  1  0  0  0  0
 29 30  1  0  0  0  0
 30 31  4  0  0  0  0
 30 35  4  0  0  0  0
 31 32  4  0  0  0  0
 32 33  4  0  0  0  0
 33 34  4  0  0  0  0
 34 35  4  0  0  0  0
M  END
>  <Name_Molregno>
296928

>  <Alpha-2A>
9.05

>  <Alpha-2C>
9.52

>  <Serotonin transporter>
7.59

$$$$
296931
  Marvin  02231216192D 0   1.00000     0.00000     0

 35 39  0  0  1  0  0  0  0  0999 V2000
   -0.0041    0.1448    0.0000 O   0  0  0  0  0  0  0  0  0
   -0.7679    0.4566    0.0000 N   0  0  0  0  0  0  0  0  0
   -1.3005   -0.1734    0.0000 C   0  0  0  0  0  0  0  0  0
   -0.8659   -0.8747    0.0000 C   0  0  0  0  0  0  0  0  0
   -1.2559   -1.6017    0.0000 C   0  0  0  0  0  0  0  0  0
   -2.0805   -1.6274    0.0000 O   0  0  0  0  0  0  0  0  0
   -2.5151   -0.9262    0.0000 C   0  0  0  0  0  0  0  0  0
   -3.3397   -0.9519    0.0000 C   0  0  0  0  0  0  0  0  0
   -3.7743   -0.2507    0.0000 C   0  0  0  0  0  0  0  0  0
   -4.5989   -0.2765    0.0000 O   0  0  0  0  0  0  0  0  0
   -5.0335    0.4248    0.0000 C   0  0  0  0  0  0  0  0  0
   -4.6436    1.1518    0.0000 O   0  0  0  0  0  0  0  0  0
   -5.8581    0.3990    0.0000 C   0  0  0  0  0  0  0  0  0
   -6.2927    1.1003    0.0000 C   0  0  0  0  0  0  0  0  0
   -3.3843    0.4763    0.0000 C   0  0  0  0  0  0  0  0  0
   -2.5597    0.5021    0.0000 C   0  0  0  0  0  0  0  0  0
   -2.1251   -0.1992    0.0000 C   0  0  0  0  0  0  0  0  0
   -0.0647   -0.6780    0.0000 C   0  0  0  0  0  0  0  0  0
    0.5653   -1.2106    0.0000 C   0  0  0  0  0  0  0  0  0
    1.3416   -0.9313    0.0000 N   0  0  0  0  0  0  0  0  0
    1.4878   -0.1194    0.0000 C   0  0  0  0  0  0  0  0  0
    2.2641    0.1599    0.0000 C   0  0  0  0  0  0  0  0  0
    2.8942   -0.3727    0.0000 N   0  0  0  0  0  0  0  0  0
    2.7479   -1.1846    0.0000 C   0  0  0  0  0  0  0  0  0
    1.9716   -1.4639    0.0000 C   0  0  0  0  0  0  0  0  0
    3.6704   -0.0934    0.0000 C   0  0  0  0  0  0  0  0  0
    3.8167    0.7186    0.0000 C   0  0  0  0  0  0  0  0  0
    4.5930    0.9979    0.0000 C   0  0  0  0  0  0  0  0  0
    5.2230    0.4653    0.0000 C   0  0  0  0  0  0  0  0  0
    5.9993    0.7446    0.0000 C   0  0  0  0  0  0  0  0  0
    6.6293    0.2120    0.0000 C   0  0  0  0  0  0  0  0  0
    6.4831   -0.6000    0.0000 C   0  0  0  0  0  0  0  0  0
    5.7068   -0.8793    0.0000 C   0  0  0  0  0  0  0  0  0
    5.0767   -0.3467    0.0000 C   0  0  0  0  0  0  0  0  0
    3.1866    1.2512    0.0000 C   0  0  0  0  0  0  0  0  0
  1  2  1  0  0  0  0
  1 18  1  0  0  0  0
  2  3  2  0  0  0  0
  3  4  1  0  0  0  0
  3 17  1  0  0  0  0
  4  5  1  0  0  0  0
  4 18  1  0  0  0  0
  5  6  1  0  0  0  0
  6  7  1  0  0  0  0
  7  8  4  0  0  0  0
  7 17  4  0  0  0  0
  8  9  4  0  0  0  0
  9 10  1  0  0  0  0
  9 15  4  0  0  0  0
 10 11  1  0  0  0  0
 11 12  2  0  0  0  0
 11 13  1  0  0  0  0
 13 14  2  0  0  0  0
 15 16  4  0  0  0  0
 16 17  4  0  0  0  0
 18 19  1  0  0  0  0
 19 20  1  0  0  0  0
 20 21  1  0  0  0  0
 20 25  1  0  0  0  0
 21 22  1  0  0  0  0
 22 23  1  0  0  0  0
 23 24  1  0  0  0  0
 23 26  1  0  0  0  0
 24 25  1  0  0  0  0
 26 27  1  0  0  0  0
 27 28  2  0  0  0  0
 27 35  1  0  0  0  0
 28 29  1  0  0  0  0
 29 30  4  0  0  0  0
 29 34  4  0  0  0  0
 30 31  4  0  0  0  0
 31 32  4  0  0  0  0
 32 33  4  0  0  0  0
 33 34  4  0  0  0  0
M  END
>  <Name_Molregno>
296931

>  <Alpha-2A>
9.05

>  <Alpha-2C>
9.3

>  <Serotonin transporter>
7.39

$$$$
296932
  Marvin  02231216192D 0   1.00000     0.00000     0

 34 38  0  0  1  0  0  0  0  0999 V2000
   -2.8283   -0.6138    0.0000 O   0  0  0  0  0  0  0  0  0
   -3.5921   -0.9257    0.0000 N   0  0  0  0  0  0  0  0  0
   -4.1247   -0.2956    0.0000 C   0  0  0  0  0  0  0  0  0
   -3.6901    0.4056    0.0000 C   0  0  0  0  0  0  0  0  0
   -4.0801    1.1326    0.0000 C   0  0  0  0  0  0  0  0  0
   -4.9047    1.1584    0.0000 N   0  0  0  0  0  0  0  0  0
   -5.3393    0.4571    0.0000 C   0  0  0  0  0  0  0  0  0
   -4.9493   -0.2699    0.0000 C   0  0  0  0  0  0  0  0  0
   -5.3839   -0.9711    0.0000 C   0  0  0  0  0  0  0  0  0
   -6.2085   -0.9454    0.0000 C   0  0  0  0  0  0  0  0  0
   -6.5985   -0.2184    0.0000 C   0  0  0  0  0  0  0  0  0
   -6.1639    0.4829    0.0000 C   0  0  0  0  0  0  0  0  0
   -5.2947    1.8854    0.0000 C   0  0  0  0  0  0  0  0  0
   -6.1193    1.9111    0.0000 O   0  0  0  0  0  0  0  0  0
   -4.8600    2.5866    0.0000 C   0  0  0  0  0  0  0  0  0
   -2.8889    0.2089    0.0000 C   0  0  0  0  0  0  0  0  0
   -2.2588    0.7416    0.0000 C   0  0  0  0  0  0  0  0  0
   -1.4825    0.4622    0.0000 N   0  0  0  0  0  0  0  0  0
   -0.8525    0.9949    0.0000 C   0  0  0  0  0  0  0  0  0
   -0.0762    0.7156    0.0000 C   0  0  0  0  0  0  0  0  0
    0.0700   -0.0964    0.0000 N   0  0  0  0  0  0  0  0  0
   -0.5600   -0.6290    0.0000 C   0  0  0  0  0  0  0  0  0
   -1.3363   -0.3497    0.0000 C   0  0  0  0  0  0  0  0  0
    0.8463   -0.3757    0.0000 C   0  0  0  0  0  0  0  0  0
    0.9925   -1.1876    0.0000 C   0  0  0  0  0  0  0  0  0
    1.7688   -1.4670    0.0000 C   0  0  0  0  0  0  0  0  0
    1.9151   -2.2789    0.0000 C   0  0  0  0  0  0  0  0  0
    2.6913   -2.5582    0.0000 C   0  0  0  0  0  0  0  0  0
    2.8376   -3.3701    0.0000 C   0  0  0  0  0  0  0  0  0
    3.6139   -3.6495    0.0000 C   0  0  0  0  0  0  0  0  0
    3.7601   -4.4614    0.0000 C   0  0  0  0  0  0  0  0  0
    3.1301   -4.9940    0.0000 C   0  0  0  0  0  0  0  0  0
    2.3538   -4.7147    0.0000 C   0  0  0  0  0  0  0  0  0
    2.2075   -3.9028    0.0000 C   0  0  0  0  0  0  0  0  0
  1  2  1  0  0  0  0
  1 16  1  0  0  0  0
  2  3  2  0  0  0  0
  3  4  1  0  0  0  0
  3  8  1  0  0  0  0
  4  5  1  0  0  0  0
  4 16  1  0  0  0  0
  5  6  1  0  0  0  0
  6  7  1  0  0  0  0
  6 13  1  0  0  0  0
  7  8  4  0  0  0  0
  7 12  4  0  0  0  0
  8  9  4  0  0  0  0
  9 10  4  0  0  0  0
 10 11  4  0  0  0  0
 11 12  4  0  0  0  0
 13 14  2  0  0  0  0
 13 15  1  0  0  0  0
 16 17  1  0  0  0  0
 17 18  1  0  0  0  0
 18 19  1  0  0  0  0
 18 23  1  0  0  0  0
 19 20  1  0  0  0  0
 20 21  1  0  0  0  0
 21 22  1  0  0  0  0
 21 24  1  0  0  0  0
 22 23  1  0  0  0  0
 24 25  1  0  0  0  0
 25 26  1  0  0  0  0
 26 27  1  0  0  0  0
 27 28  2  0  0  0  0
 28 29  1  0  0  0  0
 29 30  4  0  0  0  0
 29 34  4  0  0  0  0
 30 31  4  0  0  0  0
 31 32  4  0  0  0  0
 32 33  4  0  0  0  0
 33 34  4  0  0  0  0
M  END
>  <Name_Molregno>
296932

>  <Alpha-2A>
7.33

>  <Alpha-2C>
7.96

>  <Serotonin transporter>
7.21

$$$$
296933
  Marvin  02231216192D 0   1.00000     0.00000     0

 35 39  0  0  1  0  0  0  0  0999 V2000
    0.0003    0.4761    0.0000 O   0  0  0  0  0  0  0  0  0
   -0.7635    0.7879    0.0000 N   0  0  0  0  0  0  0  0  0
   -1.2961    0.1579    0.0000 C   0  0  0  0  0  0  0  0  0
   -0.8615   -0.5434    0.0000 C   0  0  0  0  0  0  0  0  0
   -1.2515   -1.2704    0.0000 C   0  0  0  0  0  0  0  0  0
   -2.0761   -1.2961    0.0000 O   0  0  0  0  0  0  0  0  0
   -2.5107   -0.5949    0.0000 C   0  0  0  0  0  0  0  0  0
   -3.3353   -0.6207    0.0000 C   0  0  0  0  0  0  0  0  0
   -3.7699    0.0806    0.0000 C   0  0  0  0  0  0  0  0  0
   -4.5945    0.0548    0.0000 O   0  0  0  0  0  0  0  0  0
   -5.0291    0.7561    0.0000 C   0  0  0  0  0  0  0  0  0
   -5.8537    0.7303    0.0000 C   0  0  0  0  0  0  0  0  0
   -6.2883    1.4315    0.0000 O   0  0  0  0  0  0  0  0  0
   -7.1129    1.4058    0.0000 C   0  0  0  0  0  0  0  0  0
   -3.3799    0.8076    0.0000 C   0  0  0  0  0  0  0  0  0
   -2.5553    0.8334    0.0000 C   0  0  0  0  0  0  0  0  0
   -2.1207    0.1321    0.0000 C   0  0  0  0  0  0  0  0  0
   -0.0603   -0.3467    0.0000 C   0  0  0  0  0  0  0  0  0
    0.5698   -0.8793    0.0000 C   0  0  0  0  0  0  0  0  0
    1.3461   -0.6000    0.0000 N   0  0  0  0  0  0  0  0  0
    1.4923    0.2119    0.0000 C   0  0  0  0  0  0  0  0  0
    2.2686    0.4912    0.0000 C   0  0  0  0  0  0  0  0  0
    2.8986   -0.0414    0.0000 N   0  0  0  0  0  0  0  0  0
    2.7524   -0.8533    0.0000 C   0  0  0  0  0  0  0  0  0
    1.9761   -1.1326    0.0000 C   0  0  0  0  0  0  0  0  0
    3.6749    0.2379    0.0000 C   0  0  0  0  0  0  0  0  0
    3.8211    1.0499    0.0000 C   0  0  0  0  0  0  0  0  0
    4.5974    1.3292    0.0000 C   0  0  0  0  0  0  0  0  0
    5.2274    0.7966    0.0000 C   0  0  0  0  0  0  0  0  0
    6.0037    1.0759    0.0000 C   0  0  0  0  0  0  0  0  0
    6.6338    0.5433    0.0000 C   0  0  0  0  0  0  0  0  0
    6.4875   -0.2687    0.0000 C   0  0  0  0  0  0  0  0  0
    5.7112   -0.5480    0.0000 C   0  0  0  0  0  0  0  0  0
    5.0812   -0.0154    0.0000 C   0  0  0  0  0  0  0  0  0
    3.1911    1.5825    0.0000 C   0  0  0  0  0  0  0  0  0
  1  2  1  0  0  0  0
  1 18  1  0  0  0  0
  2  3  2  0  0  0  0
  3  4  1  0  0  0  0
  3 17  1  0  0  0  0
  4  5  1  0  0  0  0
  4 18  1  0  0  0  0
  5  6  1  0  0  0  0
  6  7  1  0  0  0  0
  7  8  4  0  0  0  0
  7 17  4  0  0  0  0
  8  9  4  0  0  0  0
  9 10  1  0  0  0  0
  9 15  4  0  0  0  0
 10 11  1  0  0  0  0
 11 12  1  0  0  0  0
 12 13  1  0  0  0  0
 13 14  1  0  0  0  0
 15 16  4  0  0  0  0
 16 17  4  0  0  0  0
 18 19  1  0  0  0  0
 19 20  1  0  0  0  0
 20 21  1  0  0  0  0
 20 25  1  0  0  0  0
 21 22  1  0  0  0  0
 22 23  1  0  0  0  0
 23 24  1  0  0  0  0
 23 26  1  0  0  0  0
 24 25  1  0  0  0  0
 26 27  1  0  0  0  0
 27 28  2  0  0  0  0
 27 35  1  0  0  0  0
 28 29  1  0  0  0  0
 29 30  4  0  0  0  0
 29 34  4  0  0  0  0
 30 31  4  0  0  0  0
 31 32  4  0  0  0  0
 32 33  4  0  0  0  0
 33 34  4  0  0  0  0
M  END
>  <Name_Molregno>
296933

>  <Alpha-2A>
10

>  <Alpha-2C>
10.52

>  <Serotonin transporter>
8.35

$$$$
296936
  Marvin  02231216192D 0   1.00000     0.00000     0

 31 35  0  0  1  0  0  0  0  0999 V2000
   -3.5478   -0.1061    0.0000 O   0  0  0  0  0  0  0  0  0
   -4.3115   -0.4180    0.0000 N   0  0  0  0  0  0  0  0  0
   -4.8442    0.2121    0.0000 C   0  0  0  0  0  0  0  0  0
   -4.4095    0.9133    0.0000 C   0  0  0  0  0  0  0  0  0
   -4.7995    1.6403    0.0000 C   0  0  0  0  0  0  0  0  0
   -5.6241    1.6661    0.0000 O   0  0  0  0  0  0  0  0  0
   -6.0587    0.9648    0.0000 C   0  0  0  0  0  0  0  0  0
   -5.6688    0.2378    0.0000 C   0  0  0  0  0  0  0  0  0
   -6.1034   -0.4634    0.0000 C   0  0  0  0  0  0  0  0  0
   -6.9280   -0.4377    0.0000 C   0  0  0  0  0  0  0  0  0
   -7.3179    0.2893    0.0000 C   0  0  0  0  0  0  0  0  0
   -6.8833    0.9906    0.0000 C   0  0  0  0  0  0  0  0  0
   -3.6083    0.7167    0.0000 C   0  0  0  0  0  0  0  0  0
   -2.9783    1.2493    0.0000 C   0  0  0  0  0  0  0  0  0
   -2.2020    0.9700    0.0000 N   0  0  0  0  0  0  0  0  0
   -1.5720    1.5026    0.0000 C   0  0  0  0  0  0  0  0  0
   -0.7957    1.2233    0.0000 C   0  0  0  0  0  0  0  0  0
   -0.6495    0.4113    0.0000 N   0  0  0  0  0  0  0  0  0
   -1.2795   -0.1213    0.0000 C   0  0  0  0  0  0  0  0  0
   -2.0558    0.1580    0.0000 C   0  0  0  0  0  0  0  0  0
    0.1268    0.1320    0.0000 C   0  0  0  0  0  0  0  0  0
    0.2731   -0.6799    0.0000 C   0  0  0  0  0  0  0  0  0
    1.0493   -0.9592    0.0000 C   0  0  0  0  0  0  0  0  0
    1.1956   -1.7712    0.0000 C   0  0  0  0  0  0  0  0  0
    1.9719   -2.0505    0.0000 C   0  0  0  0  0  0  0  0  0
    2.1181   -2.8624    0.0000 C   0  0  0  0  0  0  0  0  0
    2.8944   -3.1418    0.0000 C   0  0  0  0  0  0  0  0  0
    3.0406   -3.9537    0.0000 C   0  0  0  0  0  0  0  0  0
    2.4106   -4.4863    0.0000 C   0  0  0  0  0  0  0  0  0
    1.6343   -4.2070    0.0000 C   0  0  0  0  0  0  0  0  0
    1.4881   -3.3951    0.0000 C   0  0  0  0  0  0  0  0  0
  1  2  1  0  0  0  0
  1 13  1  0  0  0  0
  2  3  2  0  0  0  0
  3  4  1  0  0  0  0
  3  8  1  0  0  0  0
  4  5  1  0  0  0  0
  4 13  1  0  0  0  0
  5  6  1  0  0  0  0
  6  7  1  0  0  0  0
  7  8  4  0  0  0  0
  7 12  4  0  0  0  0
  8  9  4  0  0  0  0
  9 10  4  0  0  0  0
 10 11  4  0  0  0  0
 11 12  4  0  0  0  0
 13 14  1  0  0  0  0
 14 15  1  0  0  0  0
 15 16  1  0  0  0  0
 15 20  1  0  0  0  0
 16 17  1  0  0  0  0
 17 18  1  0  0  0  0
 18 19  1  0  0  0  0
 18 21  1  0  0  0  0
 19 20  1  0  0  0  0
 21 22  1  0  0  0  0
 22 23  1  0  0  0  0
 23 24  1  0  0  0  0
 24 25  2  0  0  0  0
 25 26  1  0  0  0  0
 26 27  4  0  0  0  0
 26 31  4  0  0  0  0
 27 28  4  0  0  0  0
 28 29  4  0  0  0  0
 29 30  4  0  0  0  0
 30 31  4  0  0  0  0
M  END
>  <Name_Molregno>
296936

>  <Alpha-2A>
9.05

>  <Alpha-2C>
8.77

>  <Serotonin transporter>
7.8

$$$$
296939
  Marvin  02231216192D 0   1.00000     0.00000     0

 36 40  0  0  1  0  0  0  0  0999 V2000
    1.5477    2.2344    0.0000 O   0  0  0  0  0  0  0  0  0
    0.7839    2.5463    0.0000 N   0  0  0  0  0  0  0  0  0
    0.2513    1.9162    0.0000 C   0  0  0  0  0  0  0  0  0
    0.6859    1.2150    0.0000 C   0  0  0  0  0  0  0  0  0
    0.2959    0.4880    0.0000 C   0  0  0  0  0  0  0  0  0
   -0.5287    0.4622    0.0000 O   0  0  0  0  0  0  0  0  0
   -0.9633    1.1635    0.0000 C   0  0  0  0  0  0  0  0  0
   -1.7879    1.1377    0.0000 C   0  0  0  0  0  0  0  0  0
   -2.2225    1.8389    0.0000 C   0  0  0  0  0  0  0  0  0
   -3.0471    1.8132    0.0000 O   0  0  0  0  0  0  0  0  0
   -3.4817    2.5144    0.0000 C   0  0  0  0  0  0  0  0  0
   -1.8325    2.5659    0.0000 C   0  0  0  0  0  0  0  0  0
   -2.2672    3.2672    0.0000 O   0  0  0  0  0  0  0  0  0
   -1.8772    3.9942    0.0000 C   0  0  0  0  0  0  0  0  0
   -1.0079    2.5917    0.0000 C   0  0  0  0  0  0  0  0  0
   -0.5733    1.8905    0.0000 C   0  0  0  0  0  0  0  0  0
    1.4871    1.4116    0.0000 C   0  0  0  0  0  0  0  0  0
    2.1171    0.8790    0.0000 C   0  0  0  0  0  0  0  0  0
    1.9709    0.0671    0.0000 N   0  0  0  0  0  0  0  0  0
    2.6009   -0.4655    0.0000 C   0  0  0  0  0  0  0  0  0
    2.4547   -1.2775    0.0000 C   0  0  0  0  0  0  0  0  0
    1.6784   -1.5568    0.0000 N   0  0  0  0  0  0  0  0  0
    1.0484   -1.0242    0.0000 C   0  0  0  0  0  0  0  0  0
    1.1946   -0.2122    0.0000 C   0  0  0  0  0  0  0  0  0
    1.5322   -2.3687    0.0000 C   0  0  0  0  0  0  0  0  0
    2.1622   -2.9013    0.0000 C   0  0  0  0  0  0  0  0  0
    2.9385   -2.6220    0.0000 C   0  0  0  0  0  0  0  0  0
    3.5685   -3.1546    0.0000 C   0  0  0  0  0  0  0  0  0
    4.3448   -2.8753    0.0000 C   0  0  0  0  0  0  0  0  0
    4.4910   -2.0634    0.0000 C   0  0  0  0  0  0  0  0  0
    3.8610   -1.5308    0.0000 C   0  0  0  0  0  0  0  0  0
    4.0072   -0.7188    0.0000 C   0  0  0  0  0  0  0  0  0
    4.7835   -0.4395    0.0000 C   0  0  0  0  0  0  0  0  0
    5.4135   -0.9721    0.0000 C   0  0  0  0  0  0  0  0  0
    5.2673   -1.7841    0.0000 C   0  0  0  0  0  0  0  0  0
    3.4223   -3.9666    0.0000 C   0  0  0  0  0  0  0  0  0
  1  2  1  0  0  0  0
  1 17  1  0  0  0  0
  2  3  2  0  0  0  0
  3  4  1  0  0  0  0
  3 16  1  0  0  0  0
  4  5  1  0  0  0  0
  4 17  1  0  0  0  0
  5  6  1  0  0  0  0
  6  7  1  0  0  0  0
  7  8  4  0  0  0  0
  7 16  4  0  0  0  0
  8  9  4  0  0  0  0
  9 10  1  0  0  0  0
  9 12  4  0  0  0  0
 10 11  1  0  0  0  0
 12 13  1  0  0  0  0
 12 15  4  0  0  0  0
 13 14  1  0  0  0  0
 15 16  4  0  0  0  0
 17 18  1  0  0  0  0
 18 19  1  0  0  0  0
 19 20  1  0  0  0  0
 19 24  1  0  0  0  0
 20 21  1  0  0  0  0
 21 22  1  0  0  0  0
 22 23  1  0  0  0  0
 22 25  1  0  0  0  0
 23 24  1  0  0  0  0
 25 26  1  0  0  0  0
 26 27  1  0  0  0  0
 27 28  1  0  0  0  0
 28 29  2  0  0  0  0
 28 36  1  0  0  0  0
 29 30  1  0  0  0  0
 30 31  4  0  0  0  0
 30 35  4  0  0  0  0
 31 32  4  0  0  0  0
 32 33  4  0  0  0  0
 33 34  4  0  0  0  0
 34 35  4  0  0  0  0
M  END
>  <Name_Molregno>
296939

>  <5-HT1A>
6.32

>  <5-HT2A>
6

>  <5-HT2C>
6

>  <5-HT7>
6

>  <Alpha-2A>
9.31

>  <Alpha-2B>
8.52

>  <Alpha-2C>
9.85

>  <DOPAMINE D3>
6.36

>  <DOPAMINE D4>
6

>  <HISTAMINE H1>
6.95

>  <Serotonin transporter>
8.46

$$$$
296942
  Marvin  02231216192D 0   1.00000     0.00000     0

 31 35  0  0  1  0  0  0  0  0999 V2000
   -3.5478   -0.1061    0.0000 O   0  0  0  0  0  0  0  0  0
   -4.3115   -0.4180    0.0000 N   0  0  0  0  0  0  0  0  0
   -4.8442    0.2121    0.0000 C   0  0  0  0  0  0  0  0  0
   -4.4095    0.9133    0.0000 C   0  0  0  0  0  0  0  0  0
   -4.7995    1.6403    0.0000 C   0  0  0  0  0  0  0  0  0
   -5.6241    1.6661    0.0000 C   0  0  0  0  0  0  0  0  0
   -6.0587    0.9648    0.0000 C   0  0  0  0  0  0  0  0  0
   -5.6688    0.2378    0.0000 C   0  0  0  0  0  0  0  0  0
   -6.1034   -0.4634    0.0000 C   0  0  0  0  0  0  0  0  0
   -6.9280   -0.4377    0.0000 C   0  0  0  0  0  0  0  0  0
   -7.3179    0.2893    0.0000 C   0  0  0  0  0  0  0  0  0
   -6.8833    0.9906    0.0000 C   0  0  0  0  0  0  0  0  0
   -3.6083    0.7167    0.0000 C   0  0  0  0  0  0  0  0  0
   -2.9783    1.2493    0.0000 C   0  0  0  0  0  0  0  0  0
   -2.2020    0.9700    0.0000 N   0  0  0  0  0  0  0  0  0
   -1.5720    1.5026    0.0000 C   0  0  0  0  0  0  0  0  0
   -0.7957    1.2233    0.0000 C   0  0  0  0  0  0  0  0  0
   -0.6495    0.4113    0.0000 N   0  0  0  0  0  0  0  0  0
   -1.2795   -0.1213    0.0000 C   0  0  0  0  0  0  0  0  0
   -2.0558    0.1580    0.0000 C   0  0  0  0  0  0  0  0  0
    0.1268    0.1320    0.0000 C   0  0  0  0  0  0  0  0  0
    0.2731   -0.6799    0.0000 C   0  0  0  0  0  0  0  0  0
    1.0493   -0.9592    0.0000 C   0  0  0  0  0  0  0  0  0
    1.1956   -1.7712    0.0000 C   0  0  0  0  0  0  0  0  0
    1.9719   -2.0505    0.0000 C   0  0  0  0  0  0  0  0  0
    2.1181   -2.8624    0.0000 C   0  0  0  0  0  0  0  0  0
    2.8944   -3.1418    0.0000 C   0  0  0  0  0  0  0  0  0
    3.0406   -3.9537    0.0000 C   0  0  0  0  0  0  0  0  0
    2.4106   -4.4863    0.0000 C   0  0  0  0  0  0  0  0  0
    1.6343   -4.2070    0.0000 C   0  0  0  0  0  0  0  0  0
    1.4881   -3.3951    0.0000 C   0  0  0  0  0  0  0  0  0
  1  2  1  0  0  0  0
  1 13  1  0  0  0  0
  2  3  2  0  0  0  0
  3  4  1  0  0  0  0
  3  8  1  0  0  0  0
  4  5  1  0  0  0  0
  4 13  1  0  0  0  0
  5  6  2  0  0  0  0
  6  7  1  0  0  0  0
  7  8  4  0  0  0  0
  7 12  4  0  0  0  0
  8  9  4  0  0  0  0
  9 10  4  0  0  0  0
 10 11  4  0  0  0  0
 11 12  4  0  0  0  0
 13 14  1  0  0  0  0
 14 15  1  0  0  0  0
 15 16  1  0  0  0  0
 15 20  1  0  0  0  0
 16 17  1  0  0  0  0
 17 18  1  0  0  0  0
 18 19  1  0  0  0  0
 18 21  1  0  0  0  0
 19 20  1  0  0  0  0
 21 22  1  0  0  0  0
 22 23  1  0  0  0  0
 23 24  1  0  0  0  0
 24 25  2  0  0  0  0
 25 26  1  0  0  0  0
 26 27  4  0  0  0  0
 26 31  4  0  0  0  0
 27 28  4  0  0  0  0
 28 29  4  0  0  0  0
 29 30  4  0  0  0  0
 30 31  4  0  0  0  0
M  END
>  <Name_Molregno>
296942

>  <Alpha-2A>
7.37

>  <Alpha-2C>
6.95

>  <Serotonin transporter>
6.97

$$$$
296943
  Marvin  02231216192D 0   1.00000     0.00000     0

 37 41  0  0  1  0  0  0  0  0999 V2000
    1.7833    2.0750    0.0000 O   0  0  0  0  0  0  0  0  0
    1.0196    2.3869    0.0000 N   0  0  0  0  0  0  0  0  0
    0.4869    1.7568    0.0000 C   0  0  0  0  0  0  0  0  0
    0.9216    1.0556    0.0000 C   0  0  0  0  0  0  0  0  0
    0.5316    0.3286    0.0000 C   0  0  0  0  0  0  0  0  0
   -0.2930    0.3028    0.0000 O   0  0  0  0  0  0  0  0  0
   -0.7276    1.0041    0.0000 C   0  0  0  0  0  0  0  0  0
   -1.5522    0.9783    0.0000 C   0  0  0  0  0  0  0  0  0
   -1.9869    1.6795    0.0000 C   0  0  0  0  0  0  0  0  0
   -2.8115    1.6538    0.0000 O   0  0  0  0  0  0  0  0  0
   -3.2461    2.3550    0.0000 C   0  0  0  0  0  0  0  0  0
   -2.8561    3.0820    0.0000 O   0  0  0  0  0  0  0  0  0
   -4.0707    2.3292    0.0000 C   0  0  0  0  0  0  0  0  0
   -4.8953    2.3035    0.0000 C   0  0  0  0  0  0  0  0  0
   -4.0449    1.5047    0.0000 C   0  0  0  0  0  0  0  0  0
   -4.0964    3.1538    0.0000 C   0  0  0  0  0  0  0  0  0
   -1.5969    2.4065    0.0000 C   0  0  0  0  0  0  0  0  0
   -0.7723    2.4323    0.0000 C   0  0  0  0  0  0  0  0  0
   -0.3377    1.7311    0.0000 C   0  0  0  0  0  0  0  0  0
    1.7228    1.2522    0.0000 C   0  0  0  0  0  0  0  0  0
    2.3528    0.7196    0.0000 C   0  0  0  0  0  0  0  0  0
    2.2066   -0.0923    0.0000 N   0  0  0  0  0  0  0  0  0
    2.8366   -0.6249    0.0000 C   0  0  0  0  0  0  0  0  0
    2.6904   -1.4369    0.0000 C   0  0  0  0  0  0  0  0  0
    1.9141   -1.7162    0.0000 N   0  0  0  0  0  0  0  0  0
    1.2840   -1.1836    0.0000 C   0  0  0  0  0  0  0  0  0
    1.4303   -0.3716    0.0000 C   0  0  0  0  0  0  0  0  0
    1.7678   -2.5281    0.0000 C   0  0  0  0  0  0  0  0  0
    2.3979   -3.0607    0.0000 C   0  0  0  0  0  0  0  0  0
    2.2516   -3.8727    0.0000 C   0  0  0  0  0  0  0  0  0
    1.4753   -4.1520    0.0000 C   0  0  0  0  0  0  0  0  0
    1.3291   -4.9639    0.0000 C   0  0  0  0  0  0  0  0  0
    0.5528   -5.2433    0.0000 C   0  0  0  0  0  0  0  0  0
   -0.0772   -4.7106    0.0000 C   0  0  0  0  0  0  0  0  0
    0.0690   -3.8987    0.0000 C   0  0  0  0  0  0  0  0  0
    0.8453   -3.6194    0.0000 C   0  0  0  0  0  0  0  0  0
    3.1741   -2.7814    0.0000 C   0  0  0  0  0  0  0  0  0
  1  2  1  0  0  0  0
  1 20  1  0  0  0  0
  2  3  2  0  0  0  0
  3  4  1  0  0  0  0
  3 19  1  0  0  0  0
  4  5  1  0  0  0  0
  4 20  1  0  0  0  0
  5  6  1  0  0  0  0
  6  7  1  0  0  0  0
  7  8  4  0  0  0  0
  7 19  4  0  0  0  0
  8  9  4  0  0  0  0
  9 10  1  0  0  0  0
  9 17  4  0  0  0  0
 10 11  1  0  0  0  0
 11 12  2  0  0  0  0
 11 13  1  0  0  0  0
 13 14  1  0  0  0  0
 13 15  1  0  0  0  0
 13 16  1  0  0  0  0
 17 18  4  0  0  0  0
 18 19  4  0  0  0  0
 20 21  1  0  0  0  0
 21 22  1  0  0  0  0
 22 23  1  0  0  0  0
 22 27  1  0  0  0  0
 23 24  1  0  0  0  0
 24 25  1  0  0  0  0
 25 26  1  0  0  0  0
 25 28  1  0  0  0  0
 26 27  1  0  0  0  0
 28 29  1  0  0  0  0
 29 30  2  0  0  0  0
 29 37  1  0  0  0  0
 30 31  1  0  0  0  0
 31 32  4  0  0  0  0
 31 36  4  0  0  0  0
 32 33  4  0  0  0  0
 33 34  4  0  0  0  0
 34 35  4  0  0  0  0
 35 36  4  0  0  0  0
M  END
>  <Name_Molregno>
296943

>  <Alpha-2A>
8.33

>  <Alpha-2C>
8.8

>  <Serotonin transporter>
7.92

$$$$
296946
  Marvin  02231216192D 0   1.00000     0.00000     0

 37 42  0  0  1  0  0  0  0  0999 V2000
   -1.2093    0.9861    0.0000 O   0  0  0  0  0  0  0  0  0
   -1.7613    0.3730    0.0000 N   0  0  0  0  0  0  0  0  0
   -1.3488   -0.3415    0.0000 C   0  0  0  0  0  0  0  0  0
   -0.5418   -0.1700    0.0000 C   0  0  0  0  0  0  0  0  0
    0.0102   -0.7830    0.0000 C   0  0  0  0  0  0  0  0  0
   -0.2447   -1.5677    0.0000 N   0  0  0  0  0  0  0  0  0
   -1.0517   -1.7392    0.0000 C   0  0  0  0  0  0  0  0  0
   -1.3066   -2.5238    0.0000 C   0  0  0  0  0  0  0  0  0
   -2.1136   -2.6953    0.0000 C   0  0  0  0  0  0  0  0  0
   -2.3686   -3.4800    0.0000 O   0  0  0  0  0  0  0  0  0
   -3.1755   -3.6515    0.0000 C   0  0  0  0  0  0  0  0  0
   -2.6656   -2.0823    0.0000 C   0  0  0  0  0  0  0  0  0
   -3.4726   -2.2538    0.0000 O   0  0  0  0  0  0  0  0  0
   -4.0247   -1.6407    0.0000 C   0  0  0  0  0  0  0  0  0
   -2.4107   -1.2976    0.0000 C   0  0  0  0  0  0  0  0  0
   -1.6037   -1.1261    0.0000 C   0  0  0  0  0  0  0  0  0
   -0.4556    0.6505    0.0000 C   0  0  0  0  0  0  0  0  0
    0.2589    1.0630    0.0000 C   0  0  0  0  0  0  0  0  0
    0.9734    0.6505    0.0000 N   0  0  0  0  0  0  0  0  0
    1.6878    1.0630    0.0000 C   0  0  0  0  0  0  0  0  0
    2.4023    0.6505    0.0000 C   0  0  0  0  0  0  0  0  0
    2.4023   -0.1745    0.0000 N   0  0  0  0  0  0  0  0  0
    1.6878   -0.5870    0.0000 C   0  0  0  0  0  0  0  0  0
    0.9734   -0.1745    0.0000 C   0  0  0  0  0  0  0  0  0
    3.1168   -0.5870    0.0000 C   0  0  0  0  0  0  0  0  0
    3.8312   -0.1745    0.0000 C   0  0  0  0  0  0  0  0  0
    4.5457   -0.5870    0.0000 C   0  0  0  0  0  0  0  0  0
    5.2602   -0.1745    0.0000 C   0  0  0  0  0  0  0  0  0
    5.9747   -0.5870    0.0000 C   0  0  0  0  0  0  0  0  0
    6.6891   -0.1745    0.0000 C   0  0  0  0  0  0  0  0  0
    6.6891    0.6505    0.0000 C   0  0  0  0  0  0  0  0  0
    7.4036    1.0630    0.0000 N   0  0  0  0  0  0  0  0  0
    8.1181    0.6505    0.0000 C   0  0  0  0  0  0  0  0  0
    8.1181   -0.1745    0.0000 C   0  0  0  0  0  0  0  0  0
    7.4036   -0.5870    0.0000 C   0  0  0  0  0  0  0  0  0
    5.9747    1.0630    0.0000 C   0  0  0  0  0  0  0  0  0
    5.2602    0.6505    0.0000 C   0  0  0  0  0  0  0  0  0
  1  2  1  0  0  0  0
  1 17  1  0  0  0  0
  2  3  2  0  0  0  0
  3  4  1  0  0  0  0
  3 16  1  0  0  0  0
  4  5  1  0  0  0  0
  4 17  1  0  0  0  0
  5  6  1  0  0  0  0
  6  7  1  0  0  0  0
  7  8  4  0  0  0  0
  7 16  4  0  0  0  0
  8  9  4  0  0  0  0
  9 10  1  0  0  0  0
  9 12  4  0  0  0  0
 10 11  1  0  0  0  0
 12 13  1  0  0  0  0
 12 15  4  0  0  0  0
 13 14  1  0  0  0  0
 15 16  4  0  0  0  0
 17 18  1  0  0  0  0
 18 19  1  0  0  0  0
 19 20  1  0  0  0  0
 19 24  1  0  0  0  0
 20 21  1  0  0  0  0
 21 22  1  0  0  0  0
 22 23  1  0  0  0  0
 22 25  1  0  0  0  0
 23 24  1  0  0  0  0
 25 26  1  0  0  0  0
 26 27  1  0  0  0  0
 27 28  1  0  0  0  0
 28 29  4  0  0  0  0
 28 37  4  0  0  0  0
 29 30  4  0  0  0  0
 30 31  4  0  0  0  0
 30 35  4  0  0  0  0
 31 32  4  0  0  0  0
 31 36  4  0  0  0  0
 32 33  4  0  0  0  0
 33 34  4  0  0  0  0
 34 35  4  0  0  0  0
 36 37  4  0  0  0  0
M  END
>  <Name_Molregno>
296946

>  <Alpha-2A>
6

>  <Alpha-2C>
6

>  <Serotonin transporter>
7.66

$$$$
296951
  Marvin  02231216192D 0   1.00000     0.00000     0

 31 35  0  0  1  0  0  0  0  0999 V2000
   -3.5478   -0.1061    0.0000 O   0  0  0  0  0  0  0  0  0
   -4.3115   -0.4180    0.0000 N   0  0  0  0  0  0  0  0  0
   -4.8442    0.2121    0.0000 C   0  0  0  0  0  0  0  0  0
   -4.4095    0.9133    0.0000 C   0  0  0  0  0  0  0  0  0
   -4.7995    1.6403    0.0000 C   0  0  0  0  0  0  0  0  0
   -5.6241    1.6661    0.0000 N   0  0  0  0  0  0  0  0  0
   -6.0587    0.9648    0.0000 C   0  0  0  0  0  0  0  0  0
   -5.6688    0.2378    0.0000 C   0  0  0  0  0  0  0  0  0
   -6.1034   -0.4634    0.0000 C   0  0  0  0  0  0  0  0  0
   -6.9280   -0.4377    0.0000 C   0  0  0  0  0  0  0  0  0
   -7.3179    0.2893    0.0000 C   0  0  0  0  0  0  0  0  0
   -6.8833    0.9906    0.0000 C   0  0  0  0  0  0  0  0  0
   -3.6083    0.7167    0.0000 C   0  0  0  0  0  0  0  0  0
   -2.9783    1.2493    0.0000 C   0  0  0  0  0  0  0  0  0
   -2.2020    0.9700    0.0000 N   0  0  0  0  0  0  0  0  0
   -1.5720    1.5026    0.0000 C   0  0  0  0  0  0  0  0  0
   -0.7957    1.2233    0.0000 C   0  0  0  0  0  0  0  0  0
   -0.6495    0.4113    0.0000 N   0  0  0  0  0  0  0  0  0
   -1.2795   -0.1213    0.0000 C   0  0  0  0  0  0  0  0  0
   -2.0558    0.1580    0.0000 C   0  0  0  0  0  0  0  0  0
    0.1268    0.1320    0.0000 C   0  0  0  0  0  0  0  0  0
    0.2731   -0.6799    0.0000 C   0  0  0  0  0  0  0  0  0
    1.0493   -0.9592    0.0000 C   0  0  0  0  0  0  0  0  0
    1.1956   -1.7712    0.0000 C   0  0  0  0  0  0  0  0  0
    1.9719   -2.0505    0.0000 C   0  0  0  0  0  0  0  0  0
    2.1181   -2.8624    0.0000 C   0  0  0  0  0  0  0  0  0
    2.8944   -3.1418    0.0000 C   0  0  0  0  0  0  0  0  0
    3.0406   -3.9537    0.0000 C   0  0  0  0  0  0  0  0  0
    2.4106   -4.4863    0.0000 C   0  0  0  0  0  0  0  0  0
    1.6343   -4.2070    0.0000 C   0  0  0  0  0  0  0  0  0
    1.4881   -3.3951    0.0000 C   0  0  0  0  0  0  0  0  0
  1  2  1  0  0  0  0
  1 13  1  0  0  0  0
  2  3  2  0  0  0  0
  3  4  1  0  0  0  0
  3  8  1  0  0  0  0
  4  5  1  0  0  0  0
  4 13  1  0  0  0  0
  5  6  1  0  0  0  0
  6  7  1  0  0  0  0
  7  8  4  0  0  0  0
  7 12  4  0  0  0  0
  8  9  4  0  0  0  0
  9 10  4  0  0  0  0
 10 11  4  0  0  0  0
 11 12  4  0  0  0  0
 13 14  1  0  0  0  0
 14 15  1  0  0  0  0
 15 16  1  0  0  0  0
 15 20  1  0  0  0  0
 16 17  1  0  0  0  0
 17 18  1  0  0  0  0
 18 19  1  0  0  0  0
 18 21  1  0  0  0  0
 19 20  1  0  0  0  0
 21 22  1  0  0  0  0
 22 23  1  0  0  0  0
 23 24  1  0  0  0  0
 24 25  2  0  0  0  0
 25 26  1  0  0  0  0
 26 27  4  0  0  0  0
 26 31  4  0  0  0  0
 27 28  4  0  0  0  0
 28 29  4  0  0  0  0
 29 30  4  0  0  0  0
 30 31  4  0  0  0  0
M  END
>  <Name_Molregno>
296951

>  <Alpha-2A>
7.7

>  <Alpha-2C>
7.82

>  <Serotonin transporter>
7.08

$$$$
296952
  Marvin  02231216192D 0   1.00000     0.00000     0

 39 43  0  0  1  0  0  0  0  0999 V2000
   -1.0964   -0.2364    0.0000 O   0  0  0  0  0  0  0  0  0
   -0.2759   -0.1501    0.0000 N   0  0  0  0  0  0  0  0  0
   -0.1044    0.6568    0.0000 C   0  0  0  0  0  0  0  0  0
   -0.8189    1.0693    0.0000 C   0  0  0  0  0  0  0  0  0
   -0.8189    1.8943    0.0000 C   0  0  0  0  0  0  0  0  0
   -0.1044    2.3068    0.0000 O   0  0  0  0  0  0  0  0  0
    0.6101    1.8943    0.0000 C   0  0  0  0  0  0  0  0  0
    1.3245    2.3068    0.0000 C   0  0  0  0  0  0  0  0  0
    2.0390    1.8943    0.0000 C   0  0  0  0  0  0  0  0  0
    2.7535    2.3068    0.0000 O   0  0  0  0  0  0  0  0  0
    3.4680    1.8943    0.0000 C   0  0  0  0  0  0  0  0  0
    4.1824    2.3068    0.0000 C   0  0  0  0  0  0  0  0  0
    4.8969    1.8943    0.0000 O   0  0  0  0  0  0  0  0  0
    5.6114    2.3068    0.0000 C   0  0  0  0  0  0  0  0  0
    6.3258    1.8943    0.0000 C   0  0  0  0  0  0  0  0  0
    7.0403    2.3068    0.0000 O   0  0  0  0  0  0  0  0  0
    7.7548    1.8943    0.0000 C   0  0  0  0  0  0  0  0  0
    8.4692    2.3068    0.0000 C   0  0  0  0  0  0  0  0  0
    2.0390    1.0693    0.0000 C   0  0  0  0  0  0  0  0  0
    1.3245    0.6568    0.0000 C   0  0  0  0  0  0  0  0  0
    0.6101    1.0693    0.0000 C   0  0  0  0  0  0  0  0  0
   -1.4320    0.5173    0.0000 C   0  0  0  0  0  0  0  0  0
   -2.2389    0.6888    0.0000 C   0  0  0  0  0  0  0  0  0
   -2.7910    0.0757    0.0000 N   0  0  0  0  0  0  0  0  0
   -2.5360   -0.7089    0.0000 C   0  0  0  0  0  0  0  0  0
   -3.0881   -1.3220    0.0000 C   0  0  0  0  0  0  0  0  0
   -3.8950   -1.1504    0.0000 N   0  0  0  0  0  0  0  0  0
   -4.1500   -0.3658    0.0000 C   0  0  0  0  0  0  0  0  0
   -3.5979    0.2473    0.0000 C   0  0  0  0  0  0  0  0  0
   -4.4471   -1.7635    0.0000 C   0  0  0  0  0  0  0  0  0
   -4.1921   -2.5482    0.0000 C   0  0  0  0  0  0  0  0  0
   -4.7442   -3.1613    0.0000 C   0  0  0  0  0  0  0  0  0
   -5.5511   -2.9897    0.0000 C   0  0  0  0  0  0  0  0  0
   -6.1032   -3.6028    0.0000 C   0  0  0  0  0  0  0  0  0
   -6.9101   -3.4313    0.0000 C   0  0  0  0  0  0  0  0  0
   -7.1651   -2.6467    0.0000 C   0  0  0  0  0  0  0  0  0
   -6.6130   -2.0336    0.0000 C   0  0  0  0  0  0  0  0  0
   -5.8061   -2.2051    0.0000 C   0  0  0  0  0  0  0  0  0
   -3.3852   -2.7197    0.0000 C   0  0  0  0  0  0  0  0  0
  1  2  1  0  0  0  0
  1 22  1  0  0  0  0
  2  3  2  0  0  0  0
  3  4  1  0  0  0  0
  3 21  1  0  0  0  0
  4  5  1  0  0  0  0
  4 22  1  0  0  0  0
  5  6  1  0  0  0  0
  6  7  1  0  0  0  0
  7  8  4  0  0  0  0
  7 21  4  0  0  0  0
  8  9  4  0  0  0  0
  9 10  1  0  0  0  0
  9 19  4  0  0  0  0
 10 11  1  0  0  0  0
 11 12  1  0  0  0  0
 12 13  1  0  0  0  0
 13 14  1  0  0  0  0
 14 15  1  0  0  0  0
 15 16  1  0  0  0  0
 16 17  1  0  0  0  0
 17 18  1  0  0  0  0
 19 20  4  0  0  0  0
 20 21  4  0  0  0  0
 22 23  1  0  0  0  0
 23 24  1  0  0  0  0
 24 25  1  0  0  0  0
 24 29  1  0  0  0  0
 25 26  1  0  0  0  0
 26 27  1  0  0  0  0
 27 28  1  0  0  0  0
 27 30  1  0  0  0  0
 28 29  1  0  0  0  0
 30 31  1  0  0  0  0
 31 32  2  0  0  0  0
 31 39  1  0  0  0  0
 32 33  1  0  0  0  0
 33 34  4  0  0  0  0
 33 38  4  0  0  0  0
 34 35  4  0  0  0  0
 35 36  4  0  0  0  0
 36 37  4  0  0  0  0
 37 38  4  0  0  0  0
M  END
>  <Name_Molregno>
296952

>  <Alpha-2A>
8.89

>  <Alpha-2C>
9.7

>  <Serotonin transporter>
7.77

$$$$
296959
  Marvin  02231216192D 0   1.00000     0.00000     0

 33 37  0  0  1  0  0  0  0  0999 V2000
    2.3212    2.3650    0.0000 O   0  0  0  0  0  0  0  0  0
    1.5574    2.6769    0.0000 N   0  0  0  0  0  0  0  0  0
    1.0248    2.0469    0.0000 C   0  0  0  0  0  0  0  0  0
    1.4594    1.3456    0.0000 C   0  0  0  0  0  0  0  0  0
    1.0694    0.6186    0.0000 C   0  0  0  0  0  0  0  0  0
    0.2448    0.5929    0.0000 C   0  0  0  0  0  0  0  0  0
   -0.1898    1.2941    0.0000 C   0  0  0  0  0  0  0  0  0
   -1.0144    1.2683    0.0000 C   0  0  0  0  0  0  0  0  0
   -1.4490    1.9696    0.0000 C   0  0  0  0  0  0  0  0  0
   -2.2736    1.9438    0.0000 O   0  0  0  0  0  0  0  0  0
   -2.7082    2.6451    0.0000 C   0  0  0  0  0  0  0  0  0
   -1.0590    2.6966    0.0000 C   0  0  0  0  0  0  0  0  0
   -0.2344    2.7223    0.0000 C   0  0  0  0  0  0  0  0  0
    0.2002    2.0211    0.0000 C   0  0  0  0  0  0  0  0  0
    2.2606    1.5423    0.0000 C   0  0  0  0  0  0  0  0  0
    2.8906    1.0096    0.0000 C   0  0  0  0  0  0  0  0  0
    2.7444    0.1977    0.0000 N   0  0  0  0  0  0  0  0  0
    3.3744   -0.3349    0.0000 C   0  0  0  0  0  0  0  0  0
    3.2282   -1.1468    0.0000 C   0  0  0  0  0  0  0  0  0
    2.4519   -1.4262    0.0000 N   0  0  0  0  0  0  0  0  0
    1.8219   -0.8935    0.0000 C   0  0  0  0  0  0  0  0  0
    1.9681   -0.0816    0.0000 C   0  0  0  0  0  0  0  0  0
    2.3057   -2.2381    0.0000 C   0  0  0  0  0  0  0  0  0
    1.5294   -2.5174    0.0000 C   0  0  0  0  0  0  0  0  0
    1.3831   -3.3293    0.0000 C   0  0  0  0  0  0  0  0  0
    2.0132   -3.8620    0.0000 C   0  0  0  0  0  0  0  0  0
    2.7894   -3.5826    0.0000 C   0  0  0  0  0  0  0  0  0
    3.4195   -4.1153    0.0000 C   0  0  0  0  0  0  0  0  0
    4.1958   -3.8359    0.0000 C   0  0  0  0  0  0  0  0  0
    4.8258   -4.3686    0.0000 C   0  0  0  0  0  0  0  0  0
    4.6796   -5.1805    0.0000 C   0  0  0  0  0  0  0  0  0
    3.9033   -5.4598    0.0000 C   0  0  0  0  0  0  0  0  0
    3.2732   -4.9272    0.0000 C   0  0  0  0  0  0  0  0  0
  1  2  1  0  0  0  0
  1 15  1  0  0  0  0
  2  3  2  0  0  0  0
  3  4  1  0  0  0  0
  3 14  1  0  0  0  0
  4  5  1  0  0  0  0
  4 15  1  0  0  0  0
  5  6  2  0  0  0  0
  6  7  1  0  0  0  0
  7  8  4  0  0  0  0
  7 14  4  0  0  0  0
  8  9  4  0  0  0  0
  9 10  1  0  0  0  0
  9 12  4  0  0  0  0
 10 11  1  0  0  0  0
 12 13  4  0  0  0  0
 13 14  4  0  0  0  0
 15 16  1  0  0  0  0
 16 17  1  0  0  0  0
 17 18  1  0  0  0  0
 17 22  1  0  0  0  0
 18 19  1  0  0  0  0
 19 20  1  0  0  0  0
 20 21  1  0  0  0  0
 20 23  1  0  0  0  0
 21 22  1  0  0  0  0
 23 24  1  0  0  0  0
 24 25  1  0  0  0  0
 25 26  1  0  0  0  0
 26 27  2  0  0  0  0
 27 28  1  0  0  0  0
 28 29  4  0  0  0  0
 28 33  4  0  0  0  0
 29 30  4  0  0  0  0
 30 31  4  0  0  0  0
 31 32  4  0  0  0  0
 32 33  4  0  0  0  0
M  END
>  <Name_Molregno>
296959

>  <Alpha-2A>
8.74

>  <Alpha-2C>
8.41

>  <Serotonin transporter>
8.14

$$$$
296961
  Marvin  02231216192D 0   1.00000     0.00000     0

 35 39  0  0  1  0  0  0  0  0999 V2000
    2.1989    2.1726    0.0000 O   0  0  0  0  0  0  0  0  0
    1.4352    2.4844    0.0000 N   0  0  0  0  0  0  0  0  0
    0.9025    1.8544    0.0000 C   0  0  0  0  0  0  0  0  0
    1.3371    1.1531    0.0000 C   0  0  0  0  0  0  0  0  0
    0.9472    0.4261    0.0000 C   0  0  0  0  0  0  0  0  0
    0.1226    0.4004    0.0000 N   0  0  0  0  0  0  0  0  0
   -0.3120    1.1016    0.0000 C   0  0  0  0  0  0  0  0  0
   -1.1366    1.0759    0.0000 C   0  0  0  0  0  0  0  0  0
   -1.5713    1.7771    0.0000 C   0  0  0  0  0  0  0  0  0
   -2.3959    1.7513    0.0000 O   0  0  0  0  0  0  0  0  0
   -2.8305    2.4526    0.0000 C   0  0  0  0  0  0  0  0  0
   -1.1813    2.5041    0.0000 C   0  0  0  0  0  0  0  0  0
   -1.6159    3.2053    0.0000 O   0  0  0  0  0  0  0  0  0
   -1.2259    3.9323    0.0000 C   0  0  0  0  0  0  0  0  0
   -0.3567    2.5299    0.0000 C   0  0  0  0  0  0  0  0  0
    0.0779    1.8286    0.0000 C   0  0  0  0  0  0  0  0  0
    2.1384    1.3498    0.0000 C   0  0  0  0  0  0  0  0  0
    2.7684    0.8172    0.0000 C   0  0  0  0  0  0  0  0  0
    2.6222    0.0052    0.0000 N   0  0  0  0  0  0  0  0  0
    3.2522   -0.5274    0.0000 C   0  0  0  0  0  0  0  0  0
    3.1059   -1.3393    0.0000 C   0  0  0  0  0  0  0  0  0
    2.3297   -1.6186    0.0000 N   0  0  0  0  0  0  0  0  0
    1.6996   -1.0860    0.0000 C   0  0  0  0  0  0  0  0  0
    1.8459   -0.2741    0.0000 C   0  0  0  0  0  0  0  0  0
    2.1834   -2.4306    0.0000 C   0  0  0  0  0  0  0  0  0
    1.4071   -2.7099    0.0000 C   0  0  0  0  0  0  0  0  0
    1.2609   -3.5218    0.0000 C   0  0  0  0  0  0  0  0  0
    1.8909   -4.0544    0.0000 C   0  0  0  0  0  0  0  0  0
    2.6672   -3.7751    0.0000 C   0  0  0  0  0  0  0  0  0
    3.2973   -4.3077    0.0000 C   0  0  0  0  0  0  0  0  0
    4.0735   -4.0284    0.0000 C   0  0  0  0  0  0  0  0  0
    4.7036   -4.5610    0.0000 C   0  0  0  0  0  0  0  0  0
    4.5573   -5.3730    0.0000 C   0  0  0  0  0  0  0  0  0
    3.7810   -5.6523    0.0000 C   0  0  0  0  0  0  0  0  0
    3.1510   -5.1197    0.0000 C   0  0  0  0  0  0  0  0  0
  1  2  1  0  0  0  0
  1 17  1  0  0  0  0
  2  3  2  0  0  0  0
  3  4  1  0  0  0  0
  3 16  1  0  0  0  0
  4  5  1  0  0  0  0
  4 17  1  0  0  0  0
  5  6  1  0  0  0  0
  6  7  1  0  0  0  0
  7  8  4  0  0  0  0
  7 16  4  0  0  0  0
  8  9  4  0  0  0  0
  9 10  1  0  0  0  0
  9 12  4  0  0  0  0
 10 11  1  0  0  0  0
 12 13  1  0  0  0  0
 12 15  4  0  0  0  0
 13 14  1  0  0  0  0
 15 16  4  0  0  0  0
 17 18  1  0  0  0  0
 18 19  1  0  0  0  0
 19 20  1  0  0  0  0
 19 24  1  0  0  0  0
 20 21  1  0  0  0  0
 21 22  1  0  0  0  0
 22 23  1  0  0  0  0
 22 25  1  0  0  0  0
 23 24  1  0  0  0  0
 25 26  1  0  0  0  0
 26 27  1  0  0  0  0
 27 28  1  0  0  0  0
 28 29  2  0  0  0  0
 29 30  1  0  0  0  0
 30 31  4  0  0  0  0
 30 35  4  0  0  0  0
 31 32  4  0  0  0  0
 32 33  4  0  0  0  0
 33 34  4  0  0  0  0
 34 35  4  0  0  0  0
M  END
>  <Name_Molregno>
296961

>  <Alpha-2A>
8.1

>  <Alpha-2C>
8.27

>  <Serotonin transporter>
8.01

$$$$
296966
  Marvin  02231216192D 0   1.00000     0.00000     0

 39 44  0  0  1  0  0  0  0  0999 V2000
    1.7065    1.8984    0.0000 O   0  0  0  0  0  0  0  0  0
    0.9427    2.2102    0.0000 N   0  0  0  0  0  0  0  0  0
    0.4101    1.5802    0.0000 C   0  0  0  0  0  0  0  0  0
    0.8447    0.8789    0.0000 C   0  0  0  0  0  0  0  0  0
    0.4547    0.1519    0.0000 C   0  0  0  0  0  0  0  0  0
   -0.3699    0.1262    0.0000 O   0  0  0  0  0  0  0  0  0
   -0.8045    0.8274    0.0000 C   0  0  0  0  0  0  0  0  0
   -1.6291    0.8017    0.0000 C   0  0  0  0  0  0  0  0  0
   -2.0637    1.5029    0.0000 C   0  0  0  0  0  0  0  0  0
   -2.8883    1.4771    0.0000 O   0  0  0  0  0  0  0  0  0
   -3.3229    2.1784    0.0000 C   0  0  0  0  0  0  0  0  0
   -2.9329    2.9054    0.0000 O   0  0  0  0  0  0  0  0  0
   -4.1475    2.1526    0.0000 C   0  0  0  0  0  0  0  0  0
   -4.5375    1.4256    0.0000 C   0  0  0  0  0  0  0  0  0
   -5.3621    1.3998    0.0000 C   0  0  0  0  0  0  0  0  0
   -5.7967    2.1011    0.0000 N   0  0  0  0  0  0  0  0  0
   -5.4067    2.8281    0.0000 C   0  0  0  0  0  0  0  0  0
   -4.5821    2.8539    0.0000 C   0  0  0  0  0  0  0  0  0
   -1.6737    2.2299    0.0000 C   0  0  0  0  0  0  0  0  0
   -0.8491    2.2557    0.0000 C   0  0  0  0  0  0  0  0  0
   -0.4145    1.5544    0.0000 C   0  0  0  0  0  0  0  0  0
    1.6459    1.0756    0.0000 C   0  0  0  0  0  0  0  0  0
    2.2760    0.5430    0.0000 C   0  0  0  0  0  0  0  0  0
    2.1297   -0.2690    0.0000 N   0  0  0  0  0  0  0  0  0
    2.7598   -0.8016    0.0000 C   0  0  0  0  0  0  0  0  0
    2.6135   -1.6135    0.0000 C   0  0  0  0  0  0  0  0  0
    1.8372   -1.8928    0.0000 N   0  0  0  0  0  0  0  0  0
    1.2072   -1.3602    0.0000 C   0  0  0  0  0  0  0  0  0
    1.3534   -0.5483    0.0000 C   0  0  0  0  0  0  0  0  0
    1.6910   -2.7048    0.0000 C   0  0  0  0  0  0  0  0  0
    2.3210   -3.2374    0.0000 C   0  0  0  0  0  0  0  0  0
    2.1748   -4.0493    0.0000 C   0  0  0  0  0  0  0  0  0
    1.3985   -4.3286    0.0000 C   0  0  0  0  0  0  0  0  0
    1.2523   -5.1406    0.0000 C   0  0  0  0  0  0  0  0  0
    0.4760   -5.4199    0.0000 C   0  0  0  0  0  0  0  0  0
   -0.1540   -4.8873    0.0000 C   0  0  0  0  0  0  0  0  0
   -0.0078   -4.0753    0.0000 C   0  0  0  0  0  0  0  0  0
    0.7685   -3.7960    0.0000 C   0  0  0  0  0  0  0  0  0
    3.0973   -2.9581    0.0000 C   0  0  0  0  0  0  0  0  0
  1  2  1  0  0  0  0
  1 22  1  0  0  0  0
  2  3  2  0  0  0  0
  3  4  1  0  0  0  0
  3 21  1  0  0  0  0
  4  5  1  0  0  0  0
  4 22  1  0  0  0  0
  5  6  1  0  0  0  0
  6  7  1  0  0  0  0
  7  8  4  0  0  0  0
  7 21  4  0  0  0  0
  8  9  4  0  0  0  0
  9 10  1  0  0  0  0
  9 19  4  0  0  0  0
 10 11  1  0  0  0  0
 11 12  2  0  0  0  0
 11 13  1  0  0  0  0
 13 14  4  0  0  0  0
 13 18  4  0  0  0  0
 14 15  4  0  0  0  0
 15 16  4  0  0  0  0
 16 17  4  0  0  0  0
 17 18  4  0  0  0  0
 19 20  4  0  0  0  0
 20 21  4  0  0  0  0
 22 23  1  0  0  0  0
 23 24  1  0  0  0  0
 24 25  1  0  0  0  0
 24 29  1  0  0  0  0
 25 26  1  0  0  0  0
 26 27  1  0  0  0  0
 27 28  1  0  0  0  0
 27 30  1  0  0  0  0
 28 29  1  0  0  0  0
 30 31  1  0  0  0  0
 31 32  2  0  0  0  0
 31 39  1  0  0  0  0
 32 33  1  0  0  0  0
 33 34  4  0  0  0  0
 33 38  4  0  0  0  0
 34 35  4  0  0  0  0
 35 36  4  0  0  0  0
 36 37  4  0  0  0  0
 37 38  4  0  0  0  0
M  END
>  <Name_Molregno>
296966

>  <Alpha-2A>
9

>  <Alpha-2C>
9.52

>  <Serotonin transporter>
7.89

$$$$
296967
  Marvin  02231216192D 0   1.00000     0.00000     0

 36 41  0  0  1  0  0  0  0  0999 V2000
    1.8149    2.1639    0.0000 O   0  0  0  0  0  0  0  0  0
    1.0511    2.4757    0.0000 N   0  0  0  0  0  0  0  0  0
    0.5185    1.8457    0.0000 C   0  0  0  0  0  0  0  0  0
    0.9531    1.1445    0.0000 C   0  0  0  0  0  0  0  0  0
    0.5631    0.4175    0.0000 C   0  0  0  0  0  0  0  0  0
   -0.2615    0.3917    0.0000 O   0  0  0  0  0  0  0  0  0
   -0.6961    1.0929    0.0000 C   0  0  0  0  0  0  0  0  0
   -1.5207    1.0672    0.0000 C   0  0  0  0  0  0  0  0  0
   -1.9553    1.7684    0.0000 C   0  0  0  0  0  0  0  0  0
   -2.7799    1.7427    0.0000 O   0  0  0  0  0  0  0  0  0
   -3.2145    2.4439    0.0000 C   0  0  0  0  0  0  0  0  0
   -4.0373    2.5045    0.0000 C   0  0  0  0  0  0  0  0  0
   -4.2340    3.3057    0.0000 C   0  0  0  0  0  0  0  0  0
   -3.5327    3.7403    0.0000 C   0  0  0  0  0  0  0  0  0
   -2.9027    3.2077    0.0000 C   0  0  0  0  0  0  0  0  0
   -1.5653    2.4954    0.0000 C   0  0  0  0  0  0  0  0  0
   -0.7408    2.5212    0.0000 C   0  0  0  0  0  0  0  0  0
   -0.3061    1.8199    0.0000 C   0  0  0  0  0  0  0  0  0
    1.7543    1.3411    0.0000 C   0  0  0  0  0  0  0  0  0
    2.3843    0.8085    0.0000 C   0  0  0  0  0  0  0  0  0
    2.2381   -0.0034    0.0000 N   0  0  0  0  0  0  0  0  0
    2.8681   -0.5361    0.0000 C   0  0  0  0  0  0  0  0  0
    2.7219   -1.3480    0.0000 C   0  0  0  0  0  0  0  0  0
    1.9456   -1.6273    0.0000 N   0  0  0  0  0  0  0  0  0
    1.3156   -1.0947    0.0000 C   0  0  0  0  0  0  0  0  0
    1.4618   -0.2828    0.0000 C   0  0  0  0  0  0  0  0  0
    1.7993   -2.4392    0.0000 C   0  0  0  0  0  0  0  0  0
    2.4294   -2.9719    0.0000 C   0  0  0  0  0  0  0  0  0
    2.2831   -3.7838    0.0000 C   0  0  0  0  0  0  0  0  0
    1.5069   -4.0631    0.0000 C   0  0  0  0  0  0  0  0  0
    1.3606   -4.8750    0.0000 C   0  0  0  0  0  0  0  0  0
    0.5843   -5.1544    0.0000 C   0  0  0  0  0  0  0  0  0
   -0.0457   -4.6217    0.0000 C   0  0  0  0  0  0  0  0  0
    0.1005   -3.8098    0.0000 C   0  0  0  0  0  0  0  0  0
    0.8768   -3.5305    0.0000 C   0  0  0  0  0  0  0  0  0
    3.2057   -2.6925    0.0000 C   0  0  0  0  0  0  0  0  0
  1  2  1  0  0  0  0
  1 19  1  0  0  0  0
  2  3  2  0  0  0  0
  3  4  1  0  0  0  0
  3 18  1  0  0  0  0
  4  5  1  0  0  0  0
  4 19  1  0  0  0  0
  5  6  1  0  0  0  0
  6  7  1  0  0  0  0
  7  8  4  0  0  0  0
  7 18  4  0  0  0  0
  8  9  4  0  0  0  0
  9 10  1  0  0  0  0
  9 16  4  0  0  0  0
 10 11  1  0  0  0  0
 11 12  1  0  0  0  0
 11 15  1  0  0  0  0
 12 13  1  0  0  0  0
 13 14  1  0  0  0  0
 14 15  1  0  0  0  0
 16 17  4  0  0  0  0
 17 18  4  0  0  0  0
 19 20  1  0  0  0  0
 20 21  1  0  0  0  0
 21 22  1  0  0  0  0
 21 26  1  0  0  0  0
 22 23  1  0  0  0  0
 23 24  1  0  0  0  0
 24 25  1  0  0  0  0
 24 27  1  0  0  0  0
 25 26  1  0  0  0  0
 27 28  1  0  0  0  0
 28 29  2  0  0  0  0
 28 36  1  0  0  0  0
 29 30  1  0  0  0  0
 30 31  4  0  0  0  0
 30 35  4  0  0  0  0
 31 32  4  0  0  0  0
 32 33  4  0  0  0  0
 33 34  4  0  0  0  0
 34 35  4  0  0  0  0
M  END
>  <Name_Molregno>
296967

>  <Alpha-2A>
8.89

>  <Alpha-2C>
9.3

>  <Serotonin transporter>
7.25

$$$$
296980
  Marvin  02231216192D 0   1.00000     0.00000     0

 33 38  0  0  1  0  0  0  0  0999 V2000
   -4.6277   -1.1116    0.0000 O   0  0  0  0  0  0  0  0  0
   -5.4346   -1.2831    0.0000 N   0  0  0  0  0  0  0  0  0
   -5.8471   -0.5687    0.0000 C   0  0  0  0  0  0  0  0  0
   -5.2951    0.0444    0.0000 C   0  0  0  0  0  0  0  0  0
   -5.5500    0.8291    0.0000 C   0  0  0  0  0  0  0  0  0
   -6.3570    1.0006    0.0000 N   0  0  0  0  0  0  0  0  0
   -6.9090    0.3875    0.0000 C   0  0  0  0  0  0  0  0  0
   -6.6541   -0.3971    0.0000 C   0  0  0  0  0  0  0  0  0
   -7.2061   -1.0102    0.0000 C   0  0  0  0  0  0  0  0  0
   -8.0131   -0.8387    0.0000 C   0  0  0  0  0  0  0  0  0
   -8.2680   -0.0541    0.0000 C   0  0  0  0  0  0  0  0  0
   -7.7160    0.5590    0.0000 C   0  0  0  0  0  0  0  0  0
   -4.5414   -0.2911    0.0000 C   0  0  0  0  0  0  0  0  0
   -3.8270    0.1214    0.0000 C   0  0  0  0  0  0  0  0  0
   -3.1125   -0.2911    0.0000 N   0  0  0  0  0  0  0  0  0
   -2.3980    0.1214    0.0000 C   0  0  0  0  0  0  0  0  0
   -1.6835   -0.2911    0.0000 C   0  0  0  0  0  0  0  0  0
   -1.6835   -1.1161    0.0000 N   0  0  0  0  0  0  0  0  0
   -2.3980   -1.5286    0.0000 C   0  0  0  0  0  0  0  0  0
   -3.1125   -1.1161    0.0000 C   0  0  0  0  0  0  0  0  0
   -0.9691   -1.5286    0.0000 C   0  0  0  0  0  0  0  0  0
   -0.2546   -1.1161    0.0000 C   0  0  0  0  0  0  0  0  0
    0.4599   -1.5286    0.0000 C   0  0  0  0  0  0  0  0  0
    1.1743   -1.1161    0.0000 C   0  0  0  0  0  0  0  0  0
    1.8888   -1.5286    0.0000 C   0  0  0  0  0  0  0  0  0
    2.6033   -1.1161    0.0000 C   0  0  0  0  0  0  0  0  0
    2.6033   -0.2911    0.0000 C   0  0  0  0  0  0  0  0  0
    1.8888    0.1214    0.0000 C   0  0  0  0  0  0  0  0  0
    1.1743   -0.2911    0.0000 C   0  0  0  0  0  0  0  0  0
    3.3178    0.1214    0.0000 C   0  0  0  0  0  0  0  0  0
    4.0322   -0.2911    0.0000 C   0  0  0  0  0  0  0  0  0
    4.0322   -1.1161    0.0000 C   0  0  0  0  0  0  0  0  0
    3.3178   -1.5286    0.0000 C   0  0  0  0  0  0  0  0  0
  1  2  1  0  0  0  0
  1 13  1  0  0  0  0
  2  3  2  0  0  0  0
  3  4  1  0  0  0  0
  3  8  1  0  0  0  0
  4  5  1  0  0  0  0
  4 13  1  0  0  0  0
  5  6  1  0  0  0  0
  6  7  1  0  0  0  0
  7  8  4  0  0  0  0
  7 12  4  0  0  0  0
  8  9  4  0  0  0  0
  9 10  4  0  0  0  0
 10 11  4  0  0  0  0
 11 12  4  0  0  0  0
 13 14  1  0  0  0  0
 14 15  1  0  0  0  0
 15 16  1  0  0  0  0
 15 20  1  0  0  0  0
 16 17  1  0  0  0  0
 17 18  1  0  0  0  0
 18 19  1  0  0  0  0
 18 21  1  0  0  0  0
 19 20  1  0  0  0  0
 21 22  1  0  0  0  0
 22 23  1  0  0  0  0
 23 24  1  0  0  0  0
 24 25  4  0  0  0  0
 24 29  4  0  0  0  0
 25 26  4  0  0  0  0
 26 27  4  0  0  0  0
 26 33  4  0  0  0  0
 27 28  4  0  0  0  0
 27 30  4  0  0  0  0
 28 29  4  0  0  0  0
 30 31  4  0  0  0  0
 31 32  4  0  0  0  0
 32 33  4  0  0  0  0
M  END
>  <Name_Molregno>
296980

>  <Alpha-2A>
8.4

>  <Alpha-2C>
8.02

>  <Serotonin transporter>
9.3

$$$$
296982
  Marvin  02231216192D 0   1.00000     0.00000     0

 36 40  0  0  1  0  0  0  0  0999 V2000
    1.5477    2.2344    0.0000 O   0  0  0  0  0  0  0  0  0
    0.7839    2.5463    0.0000 N   0  0  0  0  0  0  0  0  0
    0.2513    1.9162    0.0000 C   0  0  0  0  0  0  0  0  0
    0.6859    1.2150    0.0000 C   0  0  0  0  0  0  0  0  0
    0.2959    0.4880    0.0000 C   0  0  0  0  0  0  0  0  0
   -0.5287    0.4622    0.0000 N   0  0  0  0  0  0  0  0  0
   -0.9633    1.1635    0.0000 C   0  0  0  0  0  0  0  0  0
   -1.7879    1.1377    0.0000 C   0  0  0  0  0  0  0  0  0
   -2.2225    1.8389    0.0000 C   0  0  0  0  0  0  0  0  0
   -3.0471    1.8132    0.0000 O   0  0  0  0  0  0  0  0  0
   -3.4817    2.5144    0.0000 C   0  0  0  0  0  0  0  0  0
   -1.8325    2.5659    0.0000 C   0  0  0  0  0  0  0  0  0
   -2.2672    3.2672    0.0000 O   0  0  0  0  0  0  0  0  0
   -1.8772    3.9942    0.0000 C   0  0  0  0  0  0  0  0  0
   -1.0079    2.5917    0.0000 C   0  0  0  0  0  0  0  0  0
   -0.5733    1.8905    0.0000 C   0  0  0  0  0  0  0  0  0
    1.4871    1.4116    0.0000 C   0  0  0  0  0  0  0  0  0
    2.1171    0.8790    0.0000 C   0  0  0  0  0  0  0  0  0
    1.9709    0.0671    0.0000 N   0  0  0  0  0  0  0  0  0
    2.6009   -0.4655    0.0000 C   0  0  0  0  0  0  0  0  0
    2.4547   -1.2775    0.0000 C   0  0  0  0  0  0  0  0  0
    1.6784   -1.5568    0.0000 N   0  0  0  0  0  0  0  0  0
    1.0484   -1.0242    0.0000 C   0  0  0  0  0  0  0  0  0
    1.1946   -0.2122    0.0000 C   0  0  0  0  0  0  0  0  0
    1.5322   -2.3687    0.0000 C   0  0  0  0  0  0  0  0  0
    2.1622   -2.9013    0.0000 C   0  0  0  0  0  0  0  0  0
    2.9385   -2.6220    0.0000 C   0  0  0  0  0  0  0  0  0
    3.5685   -3.1546    0.0000 C   0  0  0  0  0  0  0  0  0
    4.3448   -2.8753    0.0000 C   0  0  0  0  0  0  0  0  0
    4.4910   -2.0634    0.0000 C   0  0  0  0  0  0  0  0  0
    3.8610   -1.5308    0.0000 C   0  0  0  0  0  0  0  0  0
    4.0072   -0.7188    0.0000 C   0  0  0  0  0  0  0  0  0
    4.7835   -0.4395    0.0000 C   0  0  0  0  0  0  0  0  0
    5.4135   -0.9721    0.0000 C   0  0  0  0  0  0  0  0  0
    5.2673   -1.7841    0.0000 C   0  0  0  0  0  0  0  0  0
    3.4223   -3.9666    0.0000 C   0  0  0  0  0  0  0  0  0
  1  2  1  0  0  0  0
  1 17  1  0  0  0  0
  2  3  2  0  0  0  0
  3  4  1  0  0  0  0
  3 16  1  0  0  0  0
  4  5  1  0  0  0  0
  4 17  1  0  0  0  0
  5  6  1  0  0  0  0
  6  7  1  0  0  0  0
  7  8  4  0  0  0  0
  7 16  4  0  0  0  0
  8  9  4  0  0  0  0
  9 10  1  0  0  0  0
  9 12  4  0  0  0  0
 10 11  1  0  0  0  0
 12 13  1  0  0  0  0
 12 15  4  0  0  0  0
 13 14  1  0  0  0  0
 15 16  4  0  0  0  0
 17 18  1  0  0  0  0
 18 19  1  0  0  0  0
 19 20  1  0  0  0  0
 19 24  1  0  0  0  0
 20 21  1  0  0  0  0
 21 22  1  0  0  0  0
 22 23  1  0  0  0  0
 22 25  1  0  0  0  0
 23 24  1  0  0  0  0
 25 26  1  0  0  0  0
 26 27  1  0  0  0  0
 27 28  1  0  0  0  0
 28 29  2  0  0  0  0
 28 36  1  0  0  0  0
 29 30  1  0  0  0  0
 30 31  4  0  0  0  0
 30 35  4  0  0  0  0
 31 32  4  0  0  0  0
 32 33  4  0  0  0  0
 33 34  4  0  0  0  0
 34 35  4  0  0  0  0
M  END
>  <Name_Molregno>
296982

>  <Alpha-2A>
8.62

>  <Alpha-2C>
10

>  <Serotonin transporter>
8.05

$$$$
299436
  Marvin  02231216192D 0   1.00000     0.00000     0

 24 27  0  0  1  0  0  0  0  0999 V2000
   -0.3060   -0.5898    0.0000 O   0  0  0  0  0  0  0  0  0
   -1.0205   -1.0023    0.0000 C   0  0  0  0  0  0  0  0  0
   -1.0205   -1.8273    0.0000 C   0  0  0  0  0  0  0  0  0
   -0.3060   -2.2398    0.0000 C   0  0  0  0  0  0  0  0  0
    0.4084   -1.8273    0.0000 C   0  0  0  0  0  0  0  0  0
    0.4084   -1.0023    0.0000 C   0  0  0  0  0  0  0  0  0
    1.1229   -0.5898    0.0000 C   0  0  0  0  0  0  0  0  0
    1.8374   -1.0023    0.0000 C   0  0  0  0  0  0  0  0  0
    1.8374   -1.8273    0.0000 C   0  0  0  0  0  0  0  0  0
    1.1229   -2.2398    0.0000 C   0  0  0  0  0  0  0  0  0
   -1.7350   -2.2398    0.0000 C   0  0  0  0  0  0  0  0  0
   -2.4495   -1.8273    0.0000 N   0  0  0  0  0  0  0  0  0
   -3.1639   -2.2398    0.0000 C   0  0  0  0  0  0  0  0  0
   -3.8784   -1.8273    0.0000 C   0  0  0  0  0  0  0  0  0
   -3.8784   -1.0023    0.0000 N   0  0  0  0  0  0  0  0  0
   -3.1639   -0.5898    0.0000 C   0  0  0  0  0  0  0  0  0
   -2.4495   -1.0023    0.0000 C   0  0  0  0  0  0  0  0  0
   -4.5929   -0.5898    0.0000 C   0  0  0  0  0  0  0  0  0
   -4.5929    0.2352    0.0000 C   0  0  0  0  0  0  0  0  0
   -5.3073    0.6477    0.0000 C   0  0  0  0  0  0  0  0  0
   -5.3073    1.4727    0.0000 C   0  0  0  0  0  0  0  0  0
   -4.5929    1.8852    0.0000 C   0  0  0  0  0  0  0  0  0
   -3.8784    1.4727    0.0000 C   0  0  0  0  0  0  0  0  0
   -3.8784    0.6477    0.0000 C   0  0  0  0  0  0  0  0  0
  1  2  1  0  0  0  0
  1  6  1  0  0  0  0
  2  3  1  0  0  0  0
  3  4  1  0  0  0  0
  3 11  1  0  0  0  0
  4  5  1  0  0  0  0
  5  6  4  0  0  0  0
  5 10  4  0  0  0  0
  6  7  4  0  0  0  0
  7  8  4  0  0  0  0
  8  9  4  0  0  0  0
  9 10  4  0  0  0  0
 11 12  1  0  0  0  0
 12 13  1  0  0  0  0
 12 17  1  0  0  0  0
 13 14  1  0  0  0  0
 14 15  1  0  0  0  0
 15 16  1  0  0  0  0
 15 18  1  0  0  0  0
 16 17  1  0  0  0  0
 18 19  1  0  0  0  0
 19 20  4  0  0  0  0
 19 24  4  0  0  0  0
 20 21  4  0  0  0  0
 21 22  4  0  0  0  0
 22 23  4  0  0  0  0
 23 24  4  0  0  0  0
M  END
>  <Name_Molregno>
299436

>  <5-HT1A>
6

>  <Alpha-2A>
6.3

>  <Alpha-2B>
6.3

>  <Alpha-2C>
6.3

$$$$
299467
  Marvin  02231216192D 0   1.00000     0.00000     0

 24 27  0  0  1  0  0  0  0  0999 V2000
   -0.3001   -0.6327    0.0000 O   0  0  0  0  0  0  0  0  0
    0.4144   -0.2202    0.0000 C   0  0  0  0  0  0  0  0  0
    0.4144    0.6048    0.0000 C   0  0  0  0  0  0  0  0  0
   -0.3001    1.0173    0.0000 C   0  0  0  0  0  0  0  0  0
   -1.0146    0.6048    0.0000 C   0  0  0  0  0  0  0  0  0
   -1.0146   -0.2202    0.0000 C   0  0  0  0  0  0  0  0  0
   -1.7290   -0.6327    0.0000 C   0  0  0  0  0  0  0  0  0
   -2.4435   -0.2202    0.0000 N   0  0  0  0  0  0  0  0  0
   -3.1580   -0.6327    0.0000 C   0  0  0  0  0  0  0  0  0
   -3.8725   -0.2202    0.0000 C   0  0  0  0  0  0  0  0  0
   -3.8725    0.6048    0.0000 N   0  0  0  0  0  0  0  0  0
   -3.1580    1.0173    0.0000 C   0  0  0  0  0  0  0  0  0
   -2.4435    0.6048    0.0000 C   0  0  0  0  0  0  0  0  0
   -4.5869    1.0173    0.0000 C   0  0  0  0  0  0  0  0  0
   -4.5869    1.8423    0.0000 C   0  0  0  0  0  0  0  0  0
   -5.3014    2.2548    0.0000 C   0  0  0  0  0  0  0  0  0
   -5.3014    3.0798    0.0000 C   0  0  0  0  0  0  0  0  0
   -4.5869    3.4923    0.0000 C   0  0  0  0  0  0  0  0  0
   -3.8725    3.0798    0.0000 C   0  0  0  0  0  0  0  0  0
   -3.8725    2.2548    0.0000 C   0  0  0  0  0  0  0  0  0
    1.1288    1.0173    0.0000 C   0  0  0  0  0  0  0  0  0
    1.8433    0.6048    0.0000 C   0  0  0  0  0  0  0  0  0
    1.8433   -0.2202    0.0000 C   0  0  0  0  0  0  0  0  0
    1.1288   -0.6327    0.0000 C   0  0  0  0  0  0  0  0  0
  1  2  1  0  0  0  0
  1  6  1  0  0  0  0
  2  3  4  0  0  0  0
  2 24  4  0  0  0  0
  3  4  1  0  0  0  0
  3 21  4  0  0  0  0
  4  5  1  0  0  0  0
  5  6  1  0  0  0  0
  6  7  1  0  0  0  0
  7  8  1  0  0  0  0
  8  9  1  0  0  0  0
  8 13  1  0  0  0  0
  9 10  1  0  0  0  0
 10 11  1  0  0  0  0
 11 12  1  0  0  0  0
 11 14  1  0  0  0  0
 12 13  1  0  0  0  0
 14 15  1  0  0  0  0
 15 16  4  0  0  0  0
 15 20  4  0  0  0  0
 16 17  4  0  0  0  0
 17 18  4  0  0  0  0
 18 19  4  0  0  0  0
 19 20  4  0  0  0  0
 21 22  4  0  0  0  0
 22 23  4  0  0  0  0
 23 24  4  0  0  0  0
M  END
>  <Name_Molregno>
299467

>  <5-HT1A>
7.68

>  <Alpha-2A>
6.81

>  <Alpha-2B>
6.94

>  <Alpha-2C>
7.69

$$$$
305946
  Marvin  02231216192D 0   1.00000     0.00000     0

 16 17  0  0  1  0  0  0  0  0999 V2000
   -4.9247   -1.2315    0.0000 F   0  0  0  0  0  0  0  0  0
   -4.9247   -0.4065    0.0000 C   0  0  0  0  0  0  0  0  0
   -5.6392    0.0060    0.0000 F   0  0  0  0  0  0  0  0  0
   -4.2102    0.0060    0.0000 C   0  0  0  0  0  0  0  0  0
   -4.2102    0.8310    0.0000 N   0  0  0  0  0  0  0  0  0
   -3.4958    1.2435    0.0000 C   0  0  0  0  0  0  0  0  0
   -2.7813    0.8310    0.0000 C   0  0  0  0  0  0  0  0  0
   -2.0668    1.2435    0.0000 C   0  0  0  0  0  0  0  0  0
   -1.3524    0.8310    0.0000 C   0  0  0  0  0  0  0  0  0
   -0.6379    1.2435    0.0000 N   0  3  0  0  0  0  0  0  0
   -0.6379    2.0685    0.0000 O   0  5  0  0  0  0  0  0  0
    0.0766    0.8310    0.0000 O   0  5  0  0  0  0  0  0  0
   -1.3524    0.0060    0.0000 C   0  0  0  0  0  0  0  0  0
   -2.0668   -0.4065    0.0000 C   0  0  0  0  0  0  0  0  0
   -2.7813    0.0060    0.0000 C   0  0  0  0  0  0  0  0  0
   -3.4958   -0.4065    0.0000 C   0  0  0  0  0  0  0  0  0
  1  2  1  0  0  0  0
  2  3  1  0  0  0  0
  2  4  1  0  0  0  0
  4  5  1  0  0  0  0
  4 16  1  0  0  0  0
  5  6  1  0  0  0  0
  6  7  1  0  0  0  0
  7  8  4  0  0  0  0
  7 15  4  0  0  0  0
  8  9  4  0  0  0  0
  9 10  1  0  0  0  0
  9 13  4  0  0  0  0
 10 11  1  0  0  0  0
 10 12  1  0  0  0  0
 13 14  4  0  0  0  0
 14 15  4  0  0  0  0
 15 16  1  0  0  0  0
M  CHG  3  10   1  11  -1  12  -1
M  END
>  <Name_Molregno>
305946

>  <Alpha-2A>
5.44

$$$$
320346
  Marvin  02231216192D 0   1.00000     0.00000     0

 25 28  0  0  1  0  0  0  0  0999 V2000
   -0.3965   -3.1617    0.0000 O   0  0  0  0  0  0  0  0  0
    0.3175   -3.5751    0.0000 C   0  0  0  0  0  0  0  0  0
    1.0325   -3.1634    0.0000 N   0  0  0  0  0  0  0  0  0
    1.0334   -2.3384    0.0000 C   0  0  0  0  0  0  0  0  0
    1.7484   -1.9268    0.0000 C   0  0  0  0  0  0  0  0  0
    1.7494   -1.1018    0.0000 C   0  0  0  0  0  0  0  0  0
    1.0354   -0.6884    0.0000 C   0  0  0  0  0  0  0  0  0
    0.3205   -1.1001    0.0000 N   0  0  0  0  0  0  0  0  0
    0.3195   -1.9251    0.0000 C   0  0  0  0  0  0  0  0  0
   -0.3935   -0.6867    0.0000 C   0  0  0  0  0  0  0  0  0
    1.0369    0.1357    0.0000 C   0  0  0  0  0  0  0  0  0
    1.7494    0.5482    0.0000 C   0  0  0  0  0  0  0  0  0
    2.4619    0.1357    0.0000 C   0  0  0  0  0  0  0  0  0
    2.4619   -0.6893    0.0000 C   0  0  0  0  0  0  0  0  0
    3.1798   -1.1018    0.0000 C   0  0  0  0  0  0  0  0  0
    3.8923   -0.6893    0.0000 C   0  0  0  0  0  0  0  0  0
    3.8923    0.1357    0.0000 C   0  0  0  0  0  0  0  0  0
    3.1798    0.5482    0.0000 C   0  0  0  0  0  0  0  0  0
    2.8744    1.4054    0.0000 N   0  0  0  0  0  0  0  0  0
    2.0494    1.4054    0.0000 C   0  0  0  0  0  0  0  0  0
    0.3165   -4.4001    0.0000 N   0  0  0  0  0  0  0  0  0
   -0.3985   -4.8117    0.0000 C   0  0  0  0  0  0  0  0  0
   -0.3994   -5.6367    0.0000 C   0  0  0  0  0  0  0  0  0
    1.0305   -4.8134    0.0000 C   0  0  0  0  0  0  0  0  0
    1.0295   -5.6384    0.0000 C   0  0  0  0  0  0  0  0  0
  1  2  2  0  0  0  0
  2  3  1  0  0  0  0
  2 21  1  0  0  0  0
  3  4  1  0  0  0  0
  4  5  1  0  0  0  0
  4  9  1  0  0  0  0
  5  6  2  0  0  0  0
  6  7  1  0  0  0  0
  6 14  1  0  0  0  0
  7  8  1  0  0  0  0
  7 11  1  0  0  0  0
  8  9  1  0  0  0  0
  8 10  1  0  0  0  0
 11 12  1  0  0  0  0
 12 13  4  0  0  0  0
 12 20  4  0  0  0  0
 13 14  4  0  0  0  0
 13 18  4  0  0  0  0
 14 15  4  0  0  0  0
 15 16  4  0  0  0  0
 16 17  4  0  0  0  0
 17 18  4  0  0  0  0
 18 19  4  0  0  0  0
 19 20  4  0  0  0  0
 21 22  1  0  0  0  0
 21 24  1  0  0  0  0
 22 23  1  0  0  0  0
 24 25  1  0  0  0  0
M  STY  1   1 DAT
M  SAL   1  1  19
M  SDT   1 MRV_IMPLICIT_H                                        
M  SDD   1     0.0000    0.0000    DR    ALL  0       0  
M  SED   1 IMPL_H1
M  END
>  <Name_Molregno>
320346

>  <5-HT1A>
9.06

>  <5-HT1B>
7.73

>  <5-HT1D>
9.01

>  <5-HT2A>
8.71

>  <5-HT2C>
8.2

>  <Alpha-1A>
8.26

>  <Alpha-1B>
7.78

>  <Alpha-2A>
10.26

>  <Alpha-2B>
9.87

>  <Beta-1>
7.17

>  <Beta-2>
8.1

>  <DOPAMINE D1>
7.19

>  <DOPAMINE D2>
9.31

>  <DOPAMINE D3>
9.14

>  <DOPAMINE D4>
8.33

>  <DOPAMINE D5>
8.45

$$$$
323303
  Marvin  02231216192D 0   1.00000     0.00000     0

 26 30  0  0  1  0  0  0  0  0999 V2000
    6.6579   -0.3987    0.0000 N   0  0  0  0  0  0  0  0  0
    6.9801   -1.1582    0.0000 C   0  0  0  0  0  0  0  0  0
    7.1544    0.2601    0.0000 C   0  0  0  0  0  0  0  0  0
    5.8390   -0.2981    0.0000 C   0  0  0  0  0  0  0  0  0
    5.5167    0.4614    0.0000 C   0  0  0  0  0  0  0  0  0
    4.6979    0.5620    0.0000 C   0  0  0  0  0  0  0  0  0
    4.3756    1.3214    0.0000 C   0  0  0  0  0  0  0  0  0
    3.5568    1.4220    0.0000 C   0  0  0  0  0  0  0  0  0
    3.0602    0.7632    0.0000 C   0  0  0  0  0  0  0  0  0
    3.3825    0.0038    0.0000 C   0  0  0  0  0  0  0  0  0
    2.8859   -0.6551    0.0000 C   0  0  0  0  0  0  0  0  0
    2.0671   -0.5544    0.0000 C   0  0  0  0  0  0  0  0  0
    1.7448    0.2050    0.0000 C   0  0  0  0  0  0  0  0  0
    0.9648    0.4737    0.0000 C   0  0  0  0  0  0  0  0  0
    0.9793    1.2985    0.0000 C   0  0  0  0  0  0  0  0  0
    1.7682    1.5397    0.0000 C   0  0  0  0  0  0  0  0  0
    2.2414    0.8638    0.0000 C   0  0  0  0  0  0  0  0  0
    0.4682   -0.1852    0.0000 C   0  0  0  0  0  0  0  0  0
    0.9414   -0.8610    0.0000 N   0  0  0  0  0  0  0  0  0
    1.7303   -0.6199    0.0000 C   0  0  0  0  0  0  0  0  0
    0.6727   -1.6410    0.0000 C   0  0  0  0  0  0  0  0  0
   -0.3566   -0.1707    0.0000 C   0  0  0  0  0  0  0  0  0
    4.2013   -0.0968    0.0000 C   0  0  0  0  0  0  0  0  0
    4.5236   -0.8563    0.0000 C   0  0  0  0  0  0  0  0  0
    5.3425   -0.9569    0.0000 C   0  0  0  0  0  0  0  0  0
    3.7048   -0.7557    0.0000 C   0  0  0  0  0  0  0  0  0
  1  2  1  0  0  0  0
  1  3  1  0  0  0  0
  1  4  1  0  0  0  0
  4  5  1  0  0  0  0
  4 25  1  0  0  0  0
  5  6  1  0  0  0  0
  6  7  2  0  0  0  0
  6 23  1  0  0  0  0
  7  8  1  0  0  0  0
  8  9  1  0  0  0  0
  9 10  1  0  0  0  0
  9 17  1  0  0  0  0
 10 11  1  0  0  0  0
 10 23  1  0  0  0  0
 11 12  1  0  0  0  0
 12 13  1  0  0  0  0
 13 14  1  0  0  0  0
 13 17  1  0  0  0  0
 13 20  1  0  0  0  0
 14 15  1  0  0  0  0
 14 18  1  0  0  0  0
 15 16  1  0  0  0  0
 16 17  1  0  0  0  0
 18 19  1  0  0  0  0
 18 22  1  0  0  0  0
 19 20  1  0  0  0  0
 19 21  1  0  0  0  0
 23 24  1  0  0  0  0
 23 26  1  0  0  0  0
 24 25  1  0  0  0  0
M  END
>  <Name_Molregno>
323303

>  <Alpha-2A>
6.18

>  <Alpha-2C>
7.97

>  <HISTAMINE H1>
5

>  <HISTAMINE H2>
5

>  <HISTAMINE H3>
8.31

>  <HISTAMINE H4>
5

$$$$
323877
  Marvin  02231216192D 0   1.00000     0.00000     0

 23 26  0  0  1  0  0  0  0  0999 V2000
   -0.7165   -2.4653    0.0000 F   0  0  0  0  0  0  0  0  0
    0.0718   -2.7084    0.0000 C   0  0  0  0  0  0  0  0  0
    0.6766   -2.1473    0.0000 C   0  0  0  0  0  0  0  0  0
    1.4649   -2.3905    0.0000 C   0  0  0  0  0  0  0  0  0
    1.9793   -1.7455    0.0000 C   0  0  0  0  0  0  0  0  0
    1.7244   -0.9608    0.0000 O   0  0  0  0  0  0  0  0  0
    2.3918   -0.4759    0.0000 C   0  0  0  0  0  0  0  0  0
    3.0593   -0.9608    0.0000 C   0  0  0  0  0  0  0  0  0
    2.8043   -1.7455    0.0000 C   0  0  0  0  0  0  0  0  0
    3.3187   -2.3905    0.0000 C   0  0  0  0  0  0  0  0  0
    3.1351   -3.1948    0.0000 C   0  0  0  0  0  0  0  0  0
    2.3918   -3.5527    0.0000 O   0  0  0  0  0  0  0  0  0
    1.6485   -3.1948    0.0000 C   0  0  0  0  0  0  0  0  0
    1.0437   -3.7559    0.0000 C   0  0  0  0  0  0  0  0  0
    0.2554   -3.5128    0.0000 C   0  0  0  0  0  0  0  0  0
    3.7399   -3.7559    0.0000 C   0  0  0  0  0  0  0  0  0
    4.5282   -3.5128    0.0000 C   0  0  0  0  0  0  0  0  0
    4.7118   -2.7084    0.0000 C   0  0  0  0  0  0  0  0  0
    4.1070   -2.1473    0.0000 C   0  0  0  0  0  0  0  0  0
    2.3918    0.3491    0.0000 C   0  0  0  0  0  0  0  0  0
    3.1063    0.7616    0.0000 N   0  0  0  0  0  0  0  0  0
    3.1063    1.5866    0.0000 C   0  0  0  0  0  0  0  0  0
    3.8208    0.3491    0.0000 C   0  0  0  0  0  0  0  0  0
  1  2  1  0  0  0  0
  2  3  4  0  0  0  0
  2 15  4  0  0  0  0
  3  4  4  0  0  0  0
  4  5  1  0  0  0  0
  4 13  4  0  0  0  0
  5  6  1  0  0  0  0
  5  9  1  0  0  0  0
  6  7  1  0  0  0  0
  7  8  1  0  0  0  0
  7 20  1  0  0  0  0
  8  9  1  0  0  0  0
  9 10  1  0  0  0  0
 10 11  4  0  0  0  0
 10 19  4  0  0  0  0
 11 12  1  0  0  0  0
 11 16  4  0  0  0  0
 12 13  1  0  0  0  0
 13 14  4  0  0  0  0
 14 15  4  0  0  0  0
 16 17  4  0  0  0  0
 17 18  4  0  0  0  0
 18 19  4  0  0  0  0
 20 21  1  0  0  0  0
 21 22  1  0  0  0  0
 21 23  1  0  0  0  0
M  END
>  <Name_Molregno>
323877

>  <5-HT2A>
5.97

>  <5-HT2C>
7.77

>  <5-HT7>
7.17

>  <Alpha-2A>
6.59

>  <Alpha-2C>
6.68

>  <DOPAMINE D2>
7.1

>  <DOPAMINE D3>
7.02

>  <HISTAMINE H1>
7.8

$$$$
323878
  Marvin  02231216192D 0   1.00000     0.00000     0

 23 26  0  0  1  0  0  0  0  0999 V2000
   -0.7165   -2.4653    0.0000 Cl  0  0  0  0  0  0  0  0  0
    0.0718   -2.7084    0.0000 C   0  0  0  0  0  0  0  0  0
    0.6766   -2.1473    0.0000 C   0  0  0  0  0  0  0  0  0
    1.4649   -2.3905    0.0000 C   0  0  0  0  0  0  0  0  0
    1.9793   -1.7455    0.0000 C   0  0  0  0  0  0  0  0  0
    1.7244   -0.9608    0.0000 O   0  0  0  0  0  0  0  0  0
    2.3918   -0.4759    0.0000 C   0  0  0  0  0  0  0  0  0
    3.0593   -0.9608    0.0000 C   0  0  0  0  0  0  0  0  0
    2.8043   -1.7455    0.0000 C   0  0  0  0  0  0  0  0  0
    3.3187   -2.3905    0.0000 C   0  0  0  0  0  0  0  0  0
    3.1351   -3.1948    0.0000 C   0  0  0  0  0  0  0  0  0
    2.3918   -3.5527    0.0000 O   0  0  0  0  0  0  0  0  0
    1.6485   -3.1948    0.0000 C   0  0  0  0  0  0  0  0  0
    1.0437   -3.7559    0.0000 C   0  0  0  0  0  0  0  0  0
    0.2554   -3.5128    0.0000 C   0  0  0  0  0  0  0  0  0
    3.7399   -3.7559    0.0000 C   0  0  0  0  0  0  0  0  0
    4.5282   -3.5128    0.0000 C   0  0  0  0  0  0  0  0  0
    4.7118   -2.7084    0.0000 C   0  0  0  0  0  0  0  0  0
    4.1070   -2.1473    0.0000 C   0  0  0  0  0  0  0  0  0
    2.3918    0.3491    0.0000 C   0  0  0  0  0  0  0  0  0
    3.1063    0.7616    0.0000 N   0  0  0  0  0  0  0  0  0
    3.1063    1.5866    0.0000 C   0  0  0  0  0  0  0  0  0
    3.8208    0.3491    0.0000 C   0  0  0  0  0  0  0  0  0
  1  2  1  0  0  0  0
  2  3  4  0  0  0  0
  2 15  4  0  0  0  0
  3  4  4  0  0  0  0
  4  5  1  0  0  0  0
  4 13  4  0  0  0  0
  5  6  1  0  0  0  0
  5  9  1  0  0  0  0
  6  7  1  0  0  0  0
  7  8  1  0  0  0  0
  7 20  1  0  0  0  0
  8  9  1  0  0  0  0
  9 10  1  0  0  0  0
 10 11  4  0  0  0  0
 10 19  4  0  0  0  0
 11 12  1  0  0  0  0
 11 16  4  0  0  0  0
 12 13  1  0  0  0  0
 13 14  4  0  0  0  0
 14 15  4  0  0  0  0
 16 17  4  0  0  0  0
 17 18  4  0  0  0  0
 18 19  4  0  0  0  0
 20 21  1  0  0  0  0
 21 22  1  0  0  0  0
 21 23  1  0  0  0  0
M  END
>  <Name_Molregno>
323878

>  <5-HT2A>
8.04

>  <5-HT2C>
8.16

>  <5-HT7>
6.82

>  <Alpha-2A>
7.26

>  <Alpha-2C>
6.88

>  <DOPAMINE D1>
6.84

>  <DOPAMINE D2>
7.7

>  <DOPAMINE D3>
6.97

>  <HISTAMINE H1>
8.11

$$$$
323985
  Marvin  02231216192D 0   1.00000     0.00000     0

 23 26  0  0  1  0  0  0  0  0999 V2000
   -0.7165   -2.4653    0.0000 Br  0  0  0  0  0  0  0  0  0
    0.0718   -2.7084    0.0000 C   0  0  0  0  0  0  0  0  0
    0.6766   -2.1473    0.0000 C   0  0  0  0  0  0  0  0  0
    1.4649   -2.3905    0.0000 C   0  0  0  0  0  0  0  0  0
    1.9793   -1.7455    0.0000 C   0  0  0  0  0  0  0  0  0
    1.7244   -0.9608    0.0000 O   0  0  0  0  0  0  0  0  0
    2.3918   -0.4759    0.0000 C   0  0  0  0  0  0  0  0  0
    3.0593   -0.9608    0.0000 C   0  0  0  0  0  0  0  0  0
    2.8043   -1.7455    0.0000 C   0  0  0  0  0  0  0  0  0
    3.3187   -2.3905    0.0000 C   0  0  0  0  0  0  0  0  0
    3.1351   -3.1948    0.0000 C   0  0  0  0  0  0  0  0  0
    2.3918   -3.5527    0.0000 O   0  0  0  0  0  0  0  0  0
    1.6485   -3.1948    0.0000 C   0  0  0  0  0  0  0  0  0
    1.0437   -3.7559    0.0000 C   0  0  0  0  0  0  0  0  0
    0.2554   -3.5128    0.0000 C   0  0  0  0  0  0  0  0  0
    3.7399   -3.7559    0.0000 C   0  0  0  0  0  0  0  0  0
    4.5282   -3.5128    0.0000 C   0  0  0  0  0  0  0  0  0
    4.7118   -2.7084    0.0000 C   0  0  0  0  0  0  0  0  0
    4.1070   -2.1473    0.0000 C   0  0  0  0  0  0  0  0  0
    2.3918    0.3491    0.0000 C   0  0  0  0  0  0  0  0  0
    3.1063    0.7616    0.0000 N   0  0  0  0  0  0  0  0  0
    3.1063    1.5866    0.0000 C   0  0  0  0  0  0  0  0  0
    3.8208    0.3491    0.0000 C   0  0  0  0  0  0  0  0  0
  1  2  1  0  0  0  0
  2  3  4  0  0  0  0
  2 15  4  0  0  0  0
  3  4  4  0  0  0  0
  4  5  1  0  0  0  0
  4 13  4  0  0  0  0
  5  6  1  0  0  0  0
  5  9  1  0  0  0  0
  6  7  1  0  0  0  0
  7  8  1  0  0  0  0
  7 20  1  0  0  0  0
  8  9  1  0  0  0  0
  9 10  1  0  0  0  0
 10 11  4  0  0  0  0
 10 19  4  0  0  0  0
 11 12  1  0  0  0  0
 11 16  4  0  0  0  0
 12 13  1  0  0  0  0
 13 14  4  0  0  0  0
 14 15  4  0  0  0  0
 16 17  4  0  0  0  0
 17 18  4  0  0  0  0
 18 19  4  0  0  0  0
 20 21  1  0  0  0  0
 21 22  1  0  0  0  0
 21 23  1  0  0  0  0
M  END
>  <Name_Molregno>
323985

>  <5-HT2A>
7.74

>  <5-HT2C>
7.78

>  <5-HT7>
7.46

>  <Alpha-2A>
6.39

>  <Alpha-2C>
6.13

>  <DOPAMINE D1>
6.81

>  <DOPAMINE D2>
6.8

>  <DOPAMINE D3>
7.02

>  <HISTAMINE H1>
7.38

$$$$
323986
  Marvin  02231216192D 0   1.00000     0.00000     0

 23 26  0  0  1  0  0  0  0  0999 V2000
    1.2300    2.6153    0.0000 S   0  0  0  0  0  0  0  0  0
    1.9733    2.2574    0.0000 C   0  0  0  0  0  0  0  0  0
    2.1569    1.4530    0.0000 C   0  0  0  0  0  0  0  0  0
    2.9453    1.2099    0.0000 C   0  0  0  0  0  0  0  0  0
    3.5500    1.7710    0.0000 C   0  0  0  0  0  0  0  0  0
    4.3384    1.5278    0.0000 F   0  0  0  0  0  0  0  0  0
    3.3664    2.5753    0.0000 C   0  0  0  0  0  0  0  0  0
    2.5781    2.8185    0.0000 C   0  0  0  0  0  0  0  0  0
    1.6425    0.8080    0.0000 C   0  0  0  0  0  0  0  0  0
    1.8975    0.0234    0.0000 O   0  0  0  0  0  0  0  0  0
    1.2300   -0.4615    0.0000 C   0  0  0  0  0  0  0  0  0
    0.5626    0.0234    0.0000 C   0  0  0  0  0  0  0  0  0
    0.8175    0.8080    0.0000 C   0  0  0  0  0  0  0  0  0
    0.3032    1.4530    0.0000 C   0  0  0  0  0  0  0  0  0
    0.4867    2.2574    0.0000 C   0  0  0  0  0  0  0  0  0
   -0.1180    2.8185    0.0000 C   0  0  0  0  0  0  0  0  0
   -0.9064    2.5753    0.0000 C   0  0  0  0  0  0  0  0  0
   -1.0900    1.7710    0.0000 C   0  0  0  0  0  0  0  0  0
   -0.4852    1.2099    0.0000 C   0  0  0  0  0  0  0  0  0
    1.2300   -1.2865    0.0000 C   0  0  0  0  0  0  0  0  0
    0.5156   -1.6990    0.0000 N   0  0  0  0  0  0  0  0  0
    0.5156   -2.5240    0.0000 C   0  0  0  0  0  0  0  0  0
   -0.1989   -1.2865    0.0000 C   0  0  0  0  0  0  0  0  0
  1  2  1  0  0  0  0
  1 15  1  0  0  0  0
  2  3  4  0  0  0  0
  2  8  4  0  0  0  0
  3  4  4  0  0  0  0
  3  9  1  0  0  0  0
  4  5  4  0  0  0  0
  5  6  1  0  0  0  0
  5  7  4  0  0  0  0
  7  8  4  0  0  0  0
  9 10  1  0  0  0  0
  9 13  1  0  0  0  0
 10 11  1  0  0  0  0
 11 12  1  0  0  0  0
 11 20  1  0  0  0  0
 12 13  1  0  0  0  0
 13 14  1  0  0  0  0
 14 15  4  0  0  0  0
 14 19  4  0  0  0  0
 15 16  4  0  0  0  0
 16 17  4  0  0  0  0
 17 18  4  0  0  0  0
 18 19  4  0  0  0  0
 20 21  1  0  0  0  0
 21 22  1  0  0  0  0
 21 23  1  0  0  0  0
M  END
>  <Name_Molregno>
323986

>  <5-HT2A>
8.89

>  <5-HT2C>
9.27

>  <5-HT7>
8.01

>  <Alpha-2A>
7.06

>  <Alpha-2C>
7.13

>  <DOPAMINE D1>
8.04

>  <DOPAMINE D2>
8.31

>  <DOPAMINE D3>
8.14

>  <HISTAMINE H1>
9.07

$$$$
324778
  Marvin  02231216192D 0   1.00000     0.00000     0

 22 25  0  0  1  0  0  0  0  0999 V2000
    0.2576    0.9399    0.0000 O   0  0  0  0  0  0  0  0  0
    0.5126    0.1553    0.0000 C   0  0  0  0  0  0  0  0  0
    1.3376    0.1553    0.0000 C   0  0  0  0  0  0  0  0  0
    1.5925    0.9399    0.0000 C   0  0  0  0  0  0  0  0  0
    0.9251    1.4248    0.0000 C   0  0  0  0  0  0  0  0  0
    0.9251    2.2498    0.0000 C   0  0  0  0  0  0  0  0  0
    1.6395    2.6623    0.0000 N   0  0  0  0  0  0  0  0  0
    1.6395    3.4873    0.0000 C   0  0  0  0  0  0  0  0  0
    2.3540    2.2498    0.0000 C   0  0  0  0  0  0  0  0  0
    1.8519   -0.4897    0.0000 C   0  0  0  0  0  0  0  0  0
    1.6684   -1.2940    0.0000 C   0  0  0  0  0  0  0  0  0
    0.9251   -1.6520    0.0000 C   0  0  0  0  0  0  0  0  0
    0.1818   -1.2940    0.0000 C   0  0  0  0  0  0  0  0  0
   -0.0018   -0.4897    0.0000 C   0  0  0  0  0  0  0  0  0
   -0.7902   -0.2466    0.0000 C   0  0  0  0  0  0  0  0  0
   -1.3949   -0.8077    0.0000 C   0  0  0  0  0  0  0  0  0
   -1.2114   -1.6120    0.0000 C   0  0  0  0  0  0  0  0  0
   -0.4230   -1.8552    0.0000 C   0  0  0  0  0  0  0  0  0
    2.2731   -1.8552    0.0000 C   0  0  0  0  0  0  0  0  0
    3.0615   -1.6120    0.0000 C   0  0  0  0  0  0  0  0  0
    3.2451   -0.8077    0.0000 C   0  0  0  0  0  0  0  0  0
    2.6403   -0.2466    0.0000 C   0  0  0  0  0  0  0  0  0
  1  2  1  0  0  0  0
  1  5  1  0  0  0  0
  2  3  1  0  0  0  0
  2 14  1  0  0  0  0
  3  4  1  0  0  0  0
  3 10  1  0  0  0  0
  4  5  1  0  0  0  0
  5  6  1  0  0  0  0
  6  7  1  0  0  0  0
  7  8  1  0  0  0  0
  7  9  1  0  0  0  0
 10 11  4  0  0  0  0
 10 22  4  0  0  0  0
 11 12  1  0  0  0  0
 11 19  4  0  0  0  0
 12 13  1  0  0  0  0
 13 14  4  0  0  0  0
 13 18  4  0  0  0  0
 14 15  4  0  0  0  0
 15 16  4  0  0  0  0
 16 17  4  0  0  0  0
 17 18  4  0  0  0  0
 19 20  4  0  0  0  0
 20 21  4  0  0  0  0
 21 22  4  0  0  0  0
M  END
>  <Name_Molregno>
324778

>  <5-HT2A>
8.6

>  <5-HT2C>
9.03

>  <5-HT7>
7.89

>  <Alpha-2A>
6.9

>  <Alpha-2C>
7.16

>  <DOPAMINE D1>
7.2

>  <DOPAMINE D2>
7.21

>  <DOPAMINE D3>
7.08

>  <HISTAMINE H1>
9.37

$$$$
325911
  Marvin  02231216192D 0   1.00000     0.00000     0

 38 43  0  0  1  0  0  0  0  0999 V2000
   -2.3111    0.0309    0.0000 O   0  0  0  0  0  0  0  0  0
   -2.3111    0.8559    0.0000 C   0  0  0  0  0  0  0  0  0
   -3.0256    1.2684    0.0000 C   0  0  0  0  0  0  0  0  0
   -3.0256    2.0934    0.0000 C   0  0  0  0  0  0  0  0  0
   -2.3111    2.5059    0.0000 C   0  0  0  0  0  0  0  0  0
   -1.5966    2.0934    0.0000 C   0  0  0  0  0  0  0  0  0
   -0.8821    2.5059    0.0000 C   0  0  0  0  0  0  0  0  0
   -0.8821    3.3309    0.0000 C   0  0  0  0  0  0  0  0  0
   -1.5966    3.7434    0.0000 N   0  0  0  0  0  0  0  0  0
   -2.3111    3.3309    0.0000 C   0  0  0  0  0  0  0  0  0
   -1.5966    4.5684    0.0000 C   0  0  0  0  0  0  0  0  0
   -0.8821    4.9809    0.0000 C   0  0  0  0  0  0  0  0  0
   -0.1677    4.5684    0.0000 C   0  0  0  0  0  0  0  0  0
   -0.1677    3.7434    0.0000 C   0  0  0  0  0  0  0  0  0
    0.6169    3.4885    0.0000 N   0  0  0  0  0  0  0  0  0
    1.1019    4.1559    0.0000 C   0  0  0  0  0  0  0  0  0
    0.6169    4.8234    0.0000 C   0  0  0  0  0  0  0  0  0
    0.9525    5.5770    0.0000 C   0  0  0  0  0  0  0  0  0
    1.7730    5.6633    0.0000 C   0  0  0  0  0  0  0  0  0
    2.2579    4.9958    0.0000 C   0  0  0  0  0  0  0  0  0
    1.9223    4.2421    0.0000 C   0  0  0  0  0  0  0  0  0
   -1.5966    1.2684    0.0000 C   0  0  0  0  0  0  0  0  0
   -0.8821    0.8559    0.0000 C   0  0  0  0  0  0  0  0  0
   -0.8821    0.0309    0.0000 O   0  0  0  0  0  0  0  0  0
   -0.1677    1.2684    0.0000 N   0  0  0  0  0  0  0  0  0
    0.5468    0.8559    0.0000 C   0  0  0  0  0  0  0  0  0
    1.2613    1.2684    0.0000 C   0  0  0  0  0  0  0  0  0
    1.9757    0.8559    0.0000 C   0  0  0  0  0  0  0  0  0
    2.6902    1.2684    0.0000 C   0  0  0  0  0  0  0  0  0
    3.4047    0.8559    0.0000 O   0  0  0  0  0  0  0  0  0
    4.1191    1.2684    0.0000 C   0  0  0  0  0  0  0  0  0
    4.8336    0.8559    0.0000 C   0  0  0  0  0  0  0  0  0
    5.5481    1.2684    0.0000 C   0  0  0  0  0  0  0  0  0
    6.2626    0.8559    0.0000 C   0  0  0  0  0  0  0  0  0
    6.2626    0.0309    0.0000 C   0  0  0  0  0  0  0  0  0
    5.5481   -0.3816    0.0000 C   0  0  0  0  0  0  0  0  0
    4.8336    0.0309    0.0000 C   0  0  0  0  0  0  0  0  0
    2.6902    2.0934    0.0000 O   0  0  0  0  0  0  0  0  0
  1  2  1  0  0  0  0
  2  3  1  0  0  0  0
  2 22  1  0  0  0  0
  3  4  1  0  0  0  0
  4  5  1  0  0  0  0
  5  6  1  0  0  0  0
  5 10  1  0  0  0  0
  6  7  1  0  0  0  0
  6 22  1  0  0  0  0
  7  8  1  0  0  0  0
  8  9  1  0  0  0  0
  8 14  1  0  0  0  0
  9 10  1  0  0  0  0
  9 11  1  0  0  0  0
 11 12  1  0  0  0  0
 12 13  1  0  0  0  0
 13 14  4  0  0  0  0
 13 17  4  0  0  0  0
 14 15  4  0  0  0  0
 15 16  4  0  0  0  0
 16 17  4  0  0  0  0
 16 21  4  0  0  0  0
 17 18  4  0  0  0  0
 18 19  4  0  0  0  0
 19 20  4  0  0  0  0
 20 21  4  0  0  0  0
 22 23  1  0  0  0  0
 23 24  2  0  0  0  0
 23 25  1  0  0  0  0
 25 26  1  0  0  0  0
 26 27  1  0  0  0  0
 27 28  1  0  0  0  0
 28 29  1  0  0  0  0
 29 30  1  0  0  0  0
 29 38  2  0  0  0  0
 30 31  1  0  0  0  0
 31 32  1  0  0  0  0
 32 33  4  0  0  0  0
 32 37  4  0  0  0  0
 33 34  4  0  0  0  0
 34 35  4  0  0  0  0
 35 36  4  0  0  0  0
 36 37  4  0  0  0  0
M  STY  1   1 DAT
M  SAL   1  1  15
M  SDT   1 MRV_IMPLICIT_H                                        
M  SDD   1     0.0000    0.0000    DR    ALL  0       0  
M  SED   1 IMPL_H1
M  END
>  <Name_Molregno>
325911

>  <Alpha-2A>
7.54

>  <Alpha-2B>
5.89

>  <Alpha-2C>
9.19

$$$$
326088
  Marvin  02231216192D 0   1.00000     0.00000     0

 53 62  0  0  1  0  0  0  0  0999 V2000
   -2.4963    1.9142    0.0000 O   0  0  0  0  0  0  0  0  0
   -1.6858    1.7604    0.0000 C   0  0  0  0  0  0  0  0  0
   -1.1474    2.3855    0.0000 C   0  0  0  0  0  0  0  0  0
   -0.3368    2.2318    0.0000 C   0  0  0  0  0  0  0  0  0
   -0.0647    1.4530    0.0000 C   0  0  0  0  0  0  0  0  0
   -0.6031    0.8279    0.0000 C   0  0  0  0  0  0  0  0  0
   -0.3309    0.0491    0.0000 C   0  0  0  0  0  0  0  0  0
    0.4796   -0.1047    0.0000 C   0  0  0  0  0  0  0  0  0
    1.0180    0.5204    0.0000 N   0  0  0  0  0  0  0  0  0
    0.7459    1.2993    0.0000 C   0  0  0  0  0  0  0  0  0
    1.8286    0.3667    0.0000 C   0  0  0  0  0  0  0  0  0
    2.1007   -0.4121    0.0000 C   0  0  0  0  0  0  0  0  0
    1.5623   -1.0372    0.0000 C   0  0  0  0  0  0  0  0  0
    0.7518   -0.8835    0.0000 C   0  0  0  0  0  0  0  0  0
    0.3551   -1.6069    0.0000 N   0  0  0  0  0  0  0  0  0
    0.9205   -2.2077    0.0000 C   0  0  0  0  0  0  0  0  0
    1.6666   -1.8556    0.0000 C   0  0  0  0  0  0  0  0  0
    2.3445   -2.3257    0.0000 C   0  0  0  0  0  0  0  0  0
    2.2764   -3.1479    0.0000 C   0  0  0  0  0  0  0  0  0
    1.5303   -3.5000    0.0000 C   0  0  0  0  0  0  0  0  0
    0.8523   -3.0298    0.0000 C   0  0  0  0  0  0  0  0  0
   -1.4136    0.9816    0.0000 C   0  0  0  0  0  0  0  0  0
   -1.9520    0.3565    0.0000 C   0  0  0  0  0  0  0  0  0
   -2.7626    0.5102    0.0000 O   0  0  0  0  0  0  0  0  0
   -1.6799   -0.4223    0.0000 N   0  0  0  0  0  0  0  0  0
   -2.2183   -1.0474    0.0000 C   0  0  0  0  0  0  0  0  0
   -1.9462   -1.8262    0.0000 C   0  0  0  0  0  0  0  0  0
   -2.4846   -2.4513    0.0000 C   0  0  0  0  0  0  0  0  0
   -2.2124   -3.2301    0.0000 N   0  0  0  0  0  0  0  0  0
   -2.7508   -3.8552    0.0000 C   0  0  0  0  0  0  0  0  0
   -3.5614   -3.7015    0.0000 O   0  0  0  0  0  0  0  0  0
   -2.4787   -4.6341    0.0000 C   0  0  0  0  0  0  0  0  0
   -3.0171   -5.2591    0.0000 C   0  0  0  0  0  0  0  0  0
   -2.7449   -6.0380    0.0000 C   0  0  0  0  0  0  0  0  0
   -1.9344   -6.1917    0.0000 C   0  0  0  0  0  0  0  0  0
   -1.3960   -5.5666    0.0000 C   0  0  0  0  0  0  0  0  0
   -1.6681   -4.7878    0.0000 C   0  0  0  0  0  0  0  0  0
   -1.1297   -4.1627    0.0000 O   0  0  0  0  0  0  0  0  0
   -3.2834   -6.6631    0.0000 C   0  0  0  0  0  0  0  0  0
   -4.0939   -6.5093    0.0000 N   0  0  0  0  0  0  0  0  0
   -4.3660   -5.7305    0.0000 C   0  0  0  0  0  0  0  0  0
   -3.8276   -5.1054    0.0000 C   0  0  0  0  0  0  0  0  0
   -5.1766   -5.5768    0.0000 C   0  0  0  0  0  0  0  0  0
   -5.6047   -4.8716    0.0000 N   0  0  0  0  0  0  0  0  0
   -6.4077   -5.0608    0.0000 C   0  0  0  0  0  0  0  0  0
   -6.4759   -5.8830    0.0000 C   0  0  0  0  0  0  0  0  0
   -5.7150   -6.2019    0.0000 C   0  0  0  0  0  0  0  0  0
   -5.4429   -6.9807    0.0000 C   0  0  0  0  0  0  0  0  0
   -4.6323   -7.1344    0.0000 C   0  0  0  0  0  0  0  0  0
   -7.2220   -6.2351    0.0000 C   0  0  0  0  0  0  0  0  0
   -7.8999   -5.7649    0.0000 C   0  0  0  0  0  0  0  0  0
   -7.8318   -4.9428    0.0000 C   0  0  0  0  0  0  0  0  0
   -7.0857   -4.5907    0.0000 C   0  0  0  0  0  0  0  0  0
  1  2  1  0  0  0  0
  2  3  1  0  0  0  0
  2 22  1  0  0  0  0
  3  4  1  0  0  0  0
  4  5  1  0  0  0  0
  5  6  1  0  0  0  0
  5 10  1  0  0  0  0
  6  7  1  0  0  0  0
  6 22  1  0  0  0  0
  7  8  1  0  0  0  0
  8  9  1  0  0  0  0
  8 14  1  0  0  0  0
  9 10  1  0  0  0  0
  9 11  1  0  0  0  0
 11 12  1  0  0  0  0
 12 13  1  0  0  0  0
 13 14  4  0  0  0  0
 13 17  4  0  0  0  0
 14 15  4  0  0  0  0
 15 16  4  0  0  0  0
 16 17  4  0  0  0  0
 16 21  4  0  0  0  0
 17 18  4  0  0  0  0
 18 19  4  0  0  0  0
 19 20  4  0  0  0  0
 20 21  4  0  0  0  0
 22 23  1  0  0  0  0
 23 24  2  0  0  0  0
 23 25  1  0  0  0  0
 25 26  1  0  0  0  0
 26 27  1  0  0  0  0
 27 28  1  0  0  0  0
 28 29  1  0  0  0  0
 29 30  1  0  0  0  0
 30 31  2  0  0  0  0
 30 32  1  0  0  0  0
 32 33  1  0  0  0  0
 32 37  1  0  0  0  0
 33 34  1  0  0  0  0
 33 42  1  0  0  0  0
 34 35  1  0  0  0  0
 34 39  1  0  0  0  0
 35 36  1  0  0  0  0
 36 37  1  0  0  0  0
 37 38  1  0  0  0  0
 39 40  1  0  0  0  0
 40 41  1  0  0  0  0
 40 49  1  0  0  0  0
 41 42  1  0  0  0  0
 41 43  1  0  0  0  0
 43 44  4  0  0  0  0
 43 47  4  0  0  0  0
 44 45  4  0  0  0  0
 45 46  4  0  0  0  0
 45 53  4  0  0  0  0
 46 47  4  0  0  0  0
 46 50  4  0  0  0  0
 47 48  1  0  0  0  0
 48 49  1  0  0  0  0
 50 51  4  0  0  0  0
 51 52  4  0  0  0  0
 52 53  4  0  0  0  0
M  STY  2   1 DAT   2 DAT
M  SAL   1  1  15
M  SDT   1 MRV_IMPLICIT_H                                        
M  SDD   1     0.0000    0.0000    DR    ALL  0       0  
M  SED   1 IMPL_H1
M  SAL   2  1  44
M  SDT   2 MRV_IMPLICIT_H                                        
M  SDD   2     0.0000    0.0000    DR    ALL  0       0  
M  SED   2 IMPL_H1
M  END
>  <Name_Molregno>
326088

>  <Alpha-2A>
7.28

>  <Alpha-2B>
6

>  <Alpha-2C>
8.07

$$$$
330174
  Marvin  02231216192D 0   1.00000     0.00000     0

 22 24  0  0  0  0  0  0  0  0999 V2000
    2.4452   -3.8321    0.0000 O   0  0  0  0  0  0  0  0  0
    2.1903   -4.6167    0.0000 C   0  0  0  0  0  0  0  0  0
    1.3653   -4.6167    0.0000 C   0  0  0  0  0  0  0  0  0
    1.1104   -3.8321    0.0000 N   0  0  0  0  0  0  0  0  0
    1.7778   -3.3472    0.0000 C   0  0  0  0  0  0  0  0  0
    1.7778   -2.5222    0.0000 N   0  0  0  0  0  0  0  0  0
    1.0633   -2.1097    0.0000 N   0  0  0  0  0  0  0  0  0
    1.0633   -1.2847    0.0000 C   0  0  0  0  0  0  0  0  0
    0.3489   -0.8722    0.0000 C   0  0  0  0  0  0  0  0  0
    0.3489   -0.0472    0.0000 C   0  0  0  0  0  0  0  0  0
   -0.3656    0.3653    0.0000 O   0  0  0  0  0  0  0  0  0
   -0.3656    1.1903    0.0000 C   0  0  0  0  0  0  0  0  0
    1.0633    0.3653    0.0000 C   0  0  0  0  0  0  0  0  0
    1.7778   -0.0472    0.0000 C   0  0  0  0  0  0  0  0  0
    1.7778   -0.8722    0.0000 C   0  0  0  0  0  0  0  0  0
    0.3489   -2.5222    0.0000 C   0  0  0  0  0  0  0  0  0
    0.3489   -3.3472    0.0000 C   0  0  0  0  0  0  0  0  0
   -0.3656   -3.7597    0.0000 C   0  0  0  0  0  0  0  0  0
   -1.0801   -3.3472    0.0000 C   0  0  0  0  0  0  0  0  0
   -1.0801   -2.5222    0.0000 C   0  0  0  0  0  0  0  0  0
   -0.3656   -2.1097    0.0000 C   0  0  0  0  0  0  0  0  0
   -1.7946   -3.7597    0.0000 C   0  0  0  0  0  0  0  0  0
  1  2  1  0  0  0  0
  1  5  1  0  0  0  0
  2  3  1  0  0  0  0
  3  4  1  0  0  0  0
  4  5  2  0  0  0  0
  5  6  1  0  0  0  0
  6  7  1  0  0  0  0
  7  8  1  0  0  0  0
  7 16  1  0  0  0  0
  8  9  4  0  0  0  0
  8 15  4  0  0  0  0
  9 10  4  0  0  0  0
 10 11  1  0  0  0  0
 10 13  4  0  0  0  0
 11 12  1  0  0  0  0
 13 14  4  0  0  0  0
 14 15  4  0  0  0  0
 16 17  4  0  0  0  0
 16 21  4  0  0  0  0
 17 18  4  0  0  0  0
 18 19  4  0  0  0  0
 19 20  4  0  0  0  0
 19 22  1  0  0  0  0
 20 21  4  0  0  0  0
M  END
>  <Name_Molregno>
330174

>  <Alpha-1A>
8.28

>  <Alpha-2A>
8.38

$$$$
330181
  Marvin  02231216192D 0   1.00000     0.00000     0

 21 23  0  0  0  0  0  0  0  0999 V2000
    2.0781   -3.6600    0.0000 O   0  0  0  0  0  0  0  0  0
    1.8232   -4.4446    0.0000 C   0  0  0  0  0  0  0  0  0
    0.9982   -4.4446    0.0000 C   0  0  0  0  0  0  0  0  0
    0.7433   -3.6600    0.0000 N   0  0  0  0  0  0  0  0  0
    1.4107   -3.1751    0.0000 C   0  0  0  0  0  0  0  0  0
    1.4107   -2.3501    0.0000 N   0  0  0  0  0  0  0  0  0
    0.6962   -1.9376    0.0000 N   0  0  0  0  0  0  0  0  0
   -0.0182   -2.3501    0.0000 C   0  0  0  0  0  0  0  0  0
   -0.0182   -3.1751    0.0000 C   0  0  0  0  0  0  0  0  0
   -0.7327   -3.5876    0.0000 C   0  0  0  0  0  0  0  0  0
   -0.7327   -4.4126    0.0000 O   0  0  0  0  0  0  0  0  0
   -1.4472   -3.1751    0.0000 C   0  0  0  0  0  0  0  0  0
   -1.4472   -2.3501    0.0000 C   0  0  0  0  0  0  0  0  0
   -0.7327   -1.9376    0.0000 C   0  0  0  0  0  0  0  0  0
    0.6962   -1.1126    0.0000 C   0  0  0  0  0  0  0  0  0
   -0.0182   -0.7001    0.0000 C   0  0  0  0  0  0  0  0  0
   -0.0182    0.1249    0.0000 C   0  0  0  0  0  0  0  0  0
    0.6962    0.5374    0.0000 C   0  0  0  0  0  0  0  0  0
    1.4107    0.1249    0.0000 C   0  0  0  0  0  0  0  0  0
    1.4107   -0.7001    0.0000 C   0  0  0  0  0  0  0  0  0
    0.6962    1.3624    0.0000 C   0  0  0  0  0  0  0  0  0
  1  2  1  0  0  0  0
  1  5  1  0  0  0  0
  2  3  1  0  0  0  0
  3  4  1  0  0  0  0
  4  5  2  0  0  0  0
  5  6  1  0  0  0  0
  6  7  1  0  0  0  0
  7  8  1  0  0  0  0
  7 15  1  0  0  0  0
  8  9  4  0  0  0  0
  8 14  4  0  0  0  0
  9 10  4  0  0  0  0
 10 11  1  0  0  0  0
 10 12  4  0  0  0  0
 12 13  4  0  0  0  0
 13 14  4  0  0  0  0
 15 16  4  0  0  0  0
 15 20  4  0  0  0  0
 16 17  4  0  0  0  0
 17 18  4  0  0  0  0
 18 19  4  0  0  0  0
 18 21  1  0  0  0  0
 19 20  4  0  0  0  0
M  END
>  <Name_Molregno>
330181

>  <Alpha-1A>
8.28

>  <Alpha-2A>
8.33

$$$$
330188
  Marvin  02231216192D 0   1.00000     0.00000     0

 22 24  0  0  0  0  0  0  0  0999 V2000
   -1.2943    2.3793    0.0000 O   0  0  0  0  0  0  0  0  0
   -1.2943    3.2043    0.0000 C   0  0  0  0  0  0  0  0  0
   -2.0088    1.9668    0.0000 C   0  0  0  0  0  0  0  0  0
   -2.0088    1.1418    0.0000 C   0  0  0  0  0  0  0  0  0
   -2.7233    0.7293    0.0000 C   0  0  0  0  0  0  0  0  0
   -2.7233   -0.0957    0.0000 N   0  0  0  0  0  0  0  0  0
   -2.0088   -0.5082    0.0000 N   0  0  0  0  0  0  0  0  0
   -2.0088   -1.3332    0.0000 C   0  0  0  0  0  0  0  0  0
   -1.3414   -1.8181    0.0000 N   0  0  0  0  0  0  0  0  0
   -1.5963   -2.6028    0.0000 C   0  0  0  0  0  0  0  0  0
   -2.4213   -2.6028    0.0000 C   0  0  0  0  0  0  0  0  0
   -2.6762   -1.8181    0.0000 N   0  0  0  0  0  0  0  0  0
   -3.4377   -0.5082    0.0000 C   0  0  0  0  0  0  0  0  0
   -3.4377   -1.3332    0.0000 C   0  0  0  0  0  0  0  0  0
   -4.1522   -1.7457    0.0000 C   0  0  0  0  0  0  0  0  0
   -4.8667   -1.3332    0.0000 C   0  0  0  0  0  0  0  0  0
   -4.8667   -0.5082    0.0000 C   0  0  0  0  0  0  0  0  0
   -4.1522   -0.0957    0.0000 C   0  0  0  0  0  0  0  0  0
   -5.5812   -1.7457    0.0000 C   0  0  0  0  0  0  0  0  0
   -3.4377    1.1418    0.0000 C   0  0  0  0  0  0  0  0  0
   -3.4377    1.9668    0.0000 C   0  0  0  0  0  0  0  0  0
   -2.7233    2.3793    0.0000 C   0  0  0  0  0  0  0  0  0
  1  2  1  0  0  0  0
  1  3  1  0  0  0  0
  3  4  4  0  0  0  0
  3 22  4  0  0  0  0
  4  5  4  0  0  0  0
  5  6  1  0  0  0  0
  5 20  4  0  0  0  0
  6  7  1  0  0  0  0
  6 13  1  0  0  0  0
  7  8  1  0  0  0  0
  8  9  1  0  0  0  0
  8 12  2  0  0  0  0
  9 10  1  0  0  0  0
 10 11  1  0  0  0  0
 11 12  1  0  0  0  0
 13 14  4  0  0  0  0
 13 18  4  0  0  0  0
 14 15  4  0  0  0  0
 15 16  4  0  0  0  0
 16 17  4  0  0  0  0
 16 19  1  0  0  0  0
 17 18  4  0  0  0  0
 20 21  4  0  0  0  0
 21 22  4  0  0  0  0
M  END
>  <Name_Molregno>
330188

>  <Alpha-1A>
7.7

>  <Alpha-1B>
6.99

>  <Alpha-2A>
8.2

>  <Alpha-2B>
8.14

>  <Alpha-2C>
8.42

$$$$
330189
  Marvin  02231216192D 0   1.00000     0.00000     0

 21 23  0  0  0  0  0  0  0  0999 V2000
    4.7921    2.7933    0.0000 O   0  0  0  0  0  0  0  0  0
    4.0777    2.3808    0.0000 C   0  0  0  0  0  0  0  0  0
    4.0777    1.5558    0.0000 C   0  0  0  0  0  0  0  0  0
    3.3632    1.1433    0.0000 C   0  0  0  0  0  0  0  0  0
    3.3632    0.3183    0.0000 N   0  0  0  0  0  0  0  0  0
    4.0777   -0.0942    0.0000 N   0  0  0  0  0  0  0  0  0
    4.0777   -0.9192    0.0000 C   0  0  0  0  0  0  0  0  0
    4.7451   -1.4042    0.0000 N   0  0  0  0  0  0  0  0  0
    4.4902   -2.1888    0.0000 C   0  0  0  0  0  0  0  0  0
    3.6652   -2.1888    0.0000 C   0  0  0  0  0  0  0  0  0
    3.4102   -1.4042    0.0000 N   0  0  0  0  0  0  0  0  0
    2.6487   -0.0942    0.0000 C   0  0  0  0  0  0  0  0  0
    2.6487   -0.9192    0.0000 C   0  0  0  0  0  0  0  0  0
    1.9343   -1.3317    0.0000 C   0  0  0  0  0  0  0  0  0
    1.2198   -0.9192    0.0000 C   0  0  0  0  0  0  0  0  0
    1.2198   -0.0942    0.0000 C   0  0  0  0  0  0  0  0  0
    1.9343    0.3183    0.0000 C   0  0  0  0  0  0  0  0  0
    0.5053   -1.3317    0.0000 C   0  0  0  0  0  0  0  0  0
    2.6487    1.5558    0.0000 C   0  0  0  0  0  0  0  0  0
    2.6487    2.3808    0.0000 C   0  0  0  0  0  0  0  0  0
    3.3632    2.7933    0.0000 C   0  0  0  0  0  0  0  0  0
  1  2  1  0  0  0  0
  2  3  4  0  0  0  0
  2 21  4  0  0  0  0
  3  4  4  0  0  0  0
  4  5  1  0  0  0  0
  4 19  4  0  0  0  0
  5  6  1  0  0  0  0
  5 12  1  0  0  0  0
  6  7  1  0  0  0  0
  7  8  1  0  0  0  0
  7 11  2  0  0  0  0
  8  9  1  0  0  0  0
  9 10  1  0  0  0  0
 10 11  1  0  0  0  0
 12 13  4  0  0  0  0
 12 17  4  0  0  0  0
 13 14  4  0  0  0  0
 14 15  4  0  0  0  0
 15 16  4  0  0  0  0
 15 18  1  0  0  0  0
 16 17  4  0  0  0  0
 19 20  4  0  0  0  0
 20 21  4  0  0  0  0
M  END
>  <Name_Molregno>
330189

>  <Alpha-1A>
7.57

>  <Alpha-1B>
6.07

>  <Alpha-2A>
7.62

>  <Alpha-2B>
7.74

>  <Alpha-2C>
7.89

$$$$
335202
  Marvin  02231216192D 0   1.00000     0.00000     0

 31 34  0  0  0  0  0  0  0  0999 V2000
   -5.3316    5.4643    0.0000 O   0  0  0  0  0  0  0  0  0
   -6.0461    5.8768    0.0000 C   0  0  0  0  0  0  0  0  0
   -4.6172    5.8768    0.0000 C   0  0  0  0  0  0  0  0  0
   -3.9027    5.4643    0.0000 C   0  0  0  0  0  0  0  0  0
   -3.1882    5.8768    0.0000 C   0  0  0  0  0  0  0  0  0
   -3.1882    6.7018    0.0000 C   0  0  0  0  0  0  0  0  0
   -3.9027    7.1143    0.0000 C   0  0  0  0  0  0  0  0  0
   -4.6172    6.7018    0.0000 C   0  0  0  0  0  0  0  0  0
   -2.4737    7.1143    0.0000 C   0  0  0  0  0  0  0  0  0
   -1.7593    6.7018    0.0000 C   0  0  0  0  0  0  0  0  0
   -1.7593    5.8768    0.0000 C   0  0  0  0  0  0  0  0  0
   -2.4737    5.4643    0.0000 C   0  0  0  0  0  0  0  0  0
   -2.4737    4.6393    0.0000 N   0  0  0  0  0  0  0  0  0
   -1.7593    4.2268    0.0000 C   0  0  0  0  0  0  0  0  0
   -1.7593    3.4018    0.0000 C   0  0  0  0  0  0  0  0  0
   -2.4737    2.9893    0.0000 N   0  0  0  0  0  0  0  0  0
   -3.1882    3.4018    0.0000 C   0  0  0  0  0  0  0  0  0
   -3.1882    4.2268    0.0000 C   0  0  0  0  0  0  0  0  0
   -2.4737    2.1643    0.0000 C   0  0  0  0  0  0  0  0  0
   -1.7593    1.7518    0.0000 C   0  0  0  0  0  0  0  0  0
   -1.7593    0.9268    0.0000 C   0  0  0  0  0  0  0  0  0
   -1.0448    0.5143    0.0000 C   0  0  0  0  0  0  0  0  0
   -1.0448   -0.3107    0.0000 N   0  0  0  0  0  0  0  0  0
   -0.3303   -0.7232    0.0000 N   0  0  0  0  0  0  0  0  0
   -0.3303   -1.5482    0.0000 C   0  0  0  0  0  0  0  0  0
   -1.0448   -1.9607    0.0000 C   0  0  0  0  0  0  0  0  0
   -1.0448   -2.7857    0.0000 O   0  0  0  0  0  0  0  0  0
   -1.7593   -1.5482    0.0000 N   0  0  0  0  0  0  0  0  0
   -2.4737   -1.9607    0.0000 C   0  0  0  0  0  0  0  0  0
   -1.7593   -0.7232    0.0000 C   0  0  0  0  0  0  0  0  0
   -2.4737   -0.3107    0.0000 O   0  0  0  0  0  0  0  0  0
  1  2  1  0  0  0  0
  1  3  1  0  0  0  0
  3  4  4  0  0  0  0
  3  8  4  0  0  0  0
  4  5  4  0  0  0  0
  5  6  4  0  0  0  0
  5 12  4  0  0  0  0
  6  7  4  0  0  0  0
  6  9  4  0  0  0  0
  7  8  4  0  0  0  0
  9 10  4  0  0  0  0
 10 11  4  0  0  0  0
 11 12  4  0  0  0  0
 12 13  1  0  0  0  0
 13 14  1  0  0  0  0
 13 18  1  0  0  0  0
 14 15  1  0  0  0  0
 15 16  1  0  0  0  0
 16 17  1  0  0  0  0
 16 19  1  0  0  0  0
 17 18  1  0  0  0  0
 19 20  1  0  0  0  0
 20 21  1  0  0  0  0
 21 22  1  0  0  0  0
 22 23  1  0  0  0  0
 23 24  1  0  0  0  0
 23 30  1  0  0  0  0
 24 25  2  0  0  0  0
 25 26  1  0  0  0  0
 26 27  2  0  0  0  0
 26 28  1  0  0  0  0
 28 29  1  0  0  0  0
 28 30  1  0  0  0  0
 30 31  2  0  0  0  0
M  END
>  <Name_Molregno>
335202

>  <5-HT1A>
8.87

>  <5-HT2A>
7.38

>  <5-HT2C>
7

>  <5-HT3>
5

>  <5-HT5>
6.64

>  <5-HT6>
6.92

>  <5-HT7>
8.04

>  <Alpha-2A>
5.99

>  <Alpha-2B>
6.5

>  <Alpha-2C>
7.63

>  <Beta-1>
6.32

>  <Beta-2>
7.22

>  <DOPAMINE D1>
5.13

>  <DOPAMINE D2>
7.66

>  <DOPAMINE D3>
7.2

>  <DOPAMINE D4>
8.07

>  <DOPAMINE D5>
5

>  <Dopamine transporter>
6.39

>  <HISTAMINE H1>
6.82

>  <HISTAMINE H2>
6.52

>  <HISTAMINE H3>
5

>  <HISTAMINE H4>
5

>  <Norepinephrine transporter>
5.16

>  <Serotonin transporter>
5.21

$$$$
335730
  Marvin  02231216192D 0   1.00000     0.00000     0

 14 15  0  0  1  0  0  0  0  0999 V2000
    0.1624   -1.0405    0.0000 O   0  0  0  0  0  0  0  0  0
   -0.5521   -0.6280    0.0000 C   0  0  0  0  0  0  0  0  0
   -1.2666   -1.0405    0.0000 C   0  0  0  0  0  0  0  0  0
   -1.9811   -0.6280    0.0000 C   0  0  0  0  0  0  0  0  0
   -2.7657   -0.8829    0.0000 N   0  0  0  0  0  0  0  0  0
   -3.2506   -0.2155    0.0000 N   0  0  0  0  0  0  0  0  0
   -2.7657    0.4520    0.0000 C   0  0  0  0  0  0  0  0  0
   -1.9811    0.1970    0.0000 C   0  0  0  0  0  0  0  0  0
   -1.2666    0.6095    0.0000 C   0  0  0  0  0  0  0  0  0
   -0.5521    0.1970    0.0000 C   0  0  0  0  0  0  0  0  0
   -3.0206   -1.6675    0.0000 C   0  0  0  0  0  0  0  0  0
   -3.8276   -1.8391    0.0000 C   0  0  0  0  0  0  0  0  0
   -4.0825   -2.6237    0.0000 N   0  0  0  0  0  0  0  0  0
   -4.3796   -1.2260    0.0000 C   0  0  0  0  0  0  0  0  0
  1  2  1  0  0  0  0
  2  3  4  0  0  0  0
  2 10  4  0  0  0  0
  3  4  4  0  0  0  0
  4  5  4  0  0  0  0
  4  8  4  0  0  0  0
  5  6  4  0  0  0  0
  5 11  1  0  0  0  0
  6  7  4  0  0  0  0
  7  8  4  0  0  0  0
  8  9  4  0  0  0  0
  9 10  4  0  0  0  0
 11 12  1  0  0  0  0
 12 13  1  0  0  0  0
 12 14  1  0  0  0  0
M  END
>  <Name_Molregno>
335730

>  <5-HT1A>
6.85

>  <5-HT1B>
5

>  <5-HT1D>
5.1

>  <5-HT2A>
7.45

>  <5-HT2C>
8

>  <5-HT3>
5

>  <5-HT5>
5

>  <5-HT6>
5

>  <Alpha-1A>
4.52

>  <Alpha-1B>
4.52

>  <Alpha-2A>
5.64

>  <Alpha-2C>
5.33

>  <Norepinephrine transporter>
5

>  <Serotonin transporter>
5

$$$$
344371
  Marvin  02231216192D 0   1.00000     0.00000     0

 27 29  0  0  0  0  0  0  0  0999 V2000
   -8.3424    3.5017    0.0000 O   0  0  0  0  0  0  0  0  0
   -9.0569    3.9142    0.0000 C   0  0  0  0  0  0  0  0  0
   -8.3424    2.6767    0.0000 C   0  0  0  0  0  0  0  0  0
   -7.6279    2.2642    0.0000 C   0  0  0  0  0  0  0  0  0
   -7.6279    1.4392    0.0000 C   0  0  0  0  0  0  0  0  0
   -6.9134    1.0267    0.0000 N   0  0  0  0  0  0  0  0  0
   -6.1990    1.4392    0.0000 C   0  0  0  0  0  0  0  0  0
   -5.4845    1.0267    0.0000 C   0  0  0  0  0  0  0  0  0
   -5.4845    0.2017    0.0000 N   0  0  0  0  0  0  0  0  0
   -6.1990   -0.2108    0.0000 C   0  0  0  0  0  0  0  0  0
   -6.9134    0.2017    0.0000 C   0  0  0  0  0  0  0  0  0
   -4.7700   -0.2108    0.0000 C   0  0  0  0  0  0  0  0  0
   -4.0556    0.2017    0.0000 C   0  0  0  0  0  0  0  0  0
   -3.3411   -0.2108    0.0000 C   0  0  0  0  0  0  0  0  0
   -2.6266    0.2017    0.0000 C   0  0  0  0  0  0  0  0  0
   -1.9121   -0.2108    0.0000 N   0  0  0  0  0  0  0  0  0
   -1.1977    0.2017    0.0000 N   0  0  0  0  0  0  0  0  0
   -0.4832   -0.2108    0.0000 C   0  0  0  0  0  0  0  0  0
   -0.4832   -1.0358    0.0000 C   0  0  0  0  0  0  0  0  0
    0.2313   -1.4483    0.0000 O   0  0  0  0  0  0  0  0  0
   -1.1977   -1.4483    0.0000 N   0  0  0  0  0  0  0  0  0
   -1.1977   -2.2733    0.0000 C   0  0  0  0  0  0  0  0  0
   -1.9121   -1.0358    0.0000 C   0  0  0  0  0  0  0  0  0
   -2.6266   -1.4483    0.0000 O   0  0  0  0  0  0  0  0  0
   -8.3424    1.0267    0.0000 C   0  0  0  0  0  0  0  0  0
   -9.0569    1.4392    0.0000 C   0  0  0  0  0  0  0  0  0
   -9.0569    2.2642    0.0000 C   0  0  0  0  0  0  0  0  0
  1  2  1  0  0  0  0
  1  3  1  0  0  0  0
  3  4  4  0  0  0  0
  3 27  4  0  0  0  0
  4  5  4  0  0  0  0
  5  6  1  0  0  0  0
  5 25  4  0  0  0  0
  6  7  1  0  0  0  0
  6 11  1  0  0  0  0
  7  8  1  0  0  0  0
  8  9  1  0  0  0  0
  9 10  1  0  0  0  0
  9 12  1  0  0  0  0
 10 11  1  0  0  0  0
 12 13  1  0  0  0  0
 13 14  1  0  0  0  0
 14 15  1  0  0  0  0
 15 16  1  0  0  0  0
 16 17  1  0  0  0  0
 16 23  1  0  0  0  0
 17 18  2  0  0  0  0
 18 19  1  0  0  0  0
 19 20  2  0  0  0  0
 19 21  1  0  0  0  0
 21 22  1  0  0  0  0
 21 23  1  0  0  0  0
 23 24  2  0  0  0  0
 25 26  4  0  0  0  0
 26 27  4  0  0  0  0
M  END
>  <Name_Molregno>
344371

>  <5-HT1A>
8.96

>  <5-HT1B>
6.64

>  <5-HT1E>
5

>  <5-HT2A>
5.68

>  <5-HT3>
5

>  <5-HT5>
5

>  <5-HT6>
5

>  <5-HT7>
6.48

>  <Alpha-1A>
6.38

>  <Alpha-1B>
6.42

>  <Alpha-2A>
6.6

>  <Alpha-2C>
6.96

>  <DOPAMINE D2>
5.59

>  <DOPAMINE D3>
5

>  <DOPAMINE D4>
5

>  <DOPAMINE D5>
5

>  <Dopamine transporter>
5

>  <HISTAMINE H1>
6.08

>  <HISTAMINE H2>
5.67

>  <HISTAMINE H3>
5

>  <HISTAMINE H4>
5

>  <Norepinephrine transporter>
5

>  <Serotonin transporter>
5

$$$$
348204
  Marvin  02231216192D 0   1.00000     0.00000     0

 28 31  0  0  1  0  0  0  0  0999 V2000
   10.2950   -1.6307    0.0000 Cl  0  0  0  0  0  0  0  0  0
    9.4759   -1.5325    0.0000 C   0  0  0  0  0  0  0  0  0
    8.9812   -2.1928    0.0000 C   0  0  0  0  0  0  0  0  0
    8.1621   -2.0945    0.0000 C   0  0  0  0  0  0  0  0  0
    7.8376   -1.3360    0.0000 C   0  0  0  0  0  0  0  0  0
    8.3323   -0.6758    0.0000 C   0  0  0  0  0  0  0  0  0
    9.1514   -0.7740    0.0000 C   0  0  0  0  0  0  0  0  0
    7.0185   -1.2378    0.0000 C   0  0  0  0  0  0  0  0  0
    6.6925   -1.9956    0.0000 O   0  0  0  0  0  0  0  0  0
    6.8803   -0.4204    0.0000 C   0  0  0  0  0  0  0  0  0
    5.9515   -0.4359    0.0000 C   0  0  0  0  0  0  0  0  0
    5.3909    0.0040    0.0000 N   0  0  0  0  0  0  0  0  0
    5.5306   -0.8091    0.0000 C   0  0  0  0  0  0  0  0  0
    6.5023   -0.8091    0.0000 C   0  0  0  0  0  0  0  0  0
    5.0107   -1.5214    0.0000 C   0  0  0  0  0  0  0  0  0
    5.6310   -1.1445    0.0000 C   0  0  0  0  0  0  0  0  0
    4.9683    0.7126    0.0000 C   0  0  0  0  0  0  0  0  0
    4.1434    0.7008    0.0000 C   0  0  0  0  0  0  0  0  0
    3.7208    1.4094    0.0000 C   0  0  0  0  0  0  0  0  0
    2.8958    1.3977    0.0000 C   0  0  0  0  0  0  0  0  0
    2.4935    0.6774    0.0000 O   0  0  0  0  0  0  0  0  0
    2.4732    2.1062    0.0000 C   0  0  0  0  0  0  0  0  0
    1.6483    2.0945    0.0000 C   0  0  0  0  0  0  0  0  0
    1.2257    2.8030    0.0000 C   0  0  0  0  0  0  0  0  0
    1.6280    3.5233    0.0000 C   0  0  0  0  0  0  0  0  0
    1.2054    4.2318    0.0000 F   0  0  0  0  0  0  0  0  0
    2.4529    3.5350    0.0000 C   0  0  0  0  0  0  0  0  0
    2.8755    2.8265    0.0000 C   0  0  0  0  0  0  0  0  0
  1  2  1  0  0  0  0
  2  3  4  0  0  0  0
  2  7  4  0  0  0  0
  3  4  4  0  0  0  0
  4  5  4  0  0  0  0
  5  6  4  0  0  0  0
  5  8  1  0  0  0  0
  6  7  4  0  0  0  0
  8  9  1  0  0  0  0
  8 10  1  0  0  0  0
  8 14  1  0  0  0  0
 10 11  1  0  0  0  0
 11 12  1  0  0  0  0
 11 16  1  0  0  0  0
 12 13  1  0  0  0  0
 12 17  1  0  0  0  0
 13 14  1  0  0  0  0
 13 15  1  0  0  0  0
 15 16  1  0  0  0  0
 17 18  1  0  0  0  0
 18 19  1  0  0  0  0
 19 20  1  0  0  0  0
 20 21  2  0  0  0  0
 20 22  1  0  0  0  0
 22 23  4  0  0  0  0
 22 28  4  0  0  0  0
 23 24  4  0  0  0  0
 24 25  4  0  0  0  0
 25 26  1  0  0  0  0
 25 27  4  0  0  0  0
 27 28  4  0  0  0  0
M  END
>  <Name_Molregno>
348204

>  <5-HT1A>
7.56

>  <5-HT2A>
7.51

>  <5-HT2C>
6.06

>  <Alpha-1A>
7.41

>  <Alpha-1B>
7.37

>  <Alpha-2A>
5.55

>  <Alpha-2B>
6.29

>  <Alpha-2C>
6.85

>  <DOPAMINE D2>
8.8

>  <DOPAMINE D3>
8.29

>  <DOPAMINE D4>
8.28

>  <HISTAMINE H1>
5.06

$$$$
357194
  Marvin  02231216192D 0   1.00000     0.00000     0

 36 40  0  0  0  0  0  0  0  0999 V2000
   -4.3023   -2.5888    0.0000 Cl  0  0  0  0  0  0  0  0  0
   -3.5139   -2.8320    0.0000 C   0  0  0  0  0  0  0  0  0
   -2.9092   -2.2708    0.0000 C   0  0  0  0  0  0  0  0  0
   -2.1208   -2.5140    0.0000 C   0  0  0  0  0  0  0  0  0
   -1.6064   -1.8690    0.0000 N   0  0  0  0  0  0  0  0  0
   -0.7814   -1.8690    0.0000 C   0  0  0  0  0  0  0  0  0
   -0.4235   -1.1257    0.0000 N   0  0  0  0  0  0  0  0  0
   -0.8882   -0.4440    0.0000 C   0  0  0  0  0  0  0  0  0
   -0.5303    0.2993    0.0000 C   0  0  0  0  0  0  0  0  0
    0.2924    0.3609    0.0000 N   0  0  0  0  0  0  0  0  0
    0.7572   -0.3207    0.0000 C   0  0  0  0  0  0  0  0  0
    0.3992   -1.0640    0.0000 C   0  0  0  0  0  0  0  0  0
    0.6504    1.1042    0.0000 C   0  0  0  0  0  0  0  0  0
   -0.2670   -2.5140    0.0000 C   0  0  0  0  0  0  0  0  0
   -0.4506   -3.3183    0.0000 C   0  0  0  0  0  0  0  0  0
   -1.1939   -3.6763    0.0000 N   0  0  0  0  0  0  0  0  0
   -1.1939   -4.5013    0.0000 N   0  0  0  0  0  0  0  0  0
   -0.4795   -4.9138    0.0000 C   0  0  0  0  0  0  0  0  0
    0.2350   -4.5013    0.0000 O   0  0  0  0  0  0  0  0  0
   -0.4795   -5.7388    0.0000 C   0  0  0  0  0  0  0  0  0
    0.2350   -6.1513    0.0000 C   0  0  0  0  0  0  0  0  0
    0.9495   -5.7388    0.0000 O   0  0  0  0  0  0  0  0  0
    0.9495   -4.9138    0.0000 C   0  0  0  0  0  0  0  0  0
    0.2350   -6.9763    0.0000 C   0  0  0  0  0  0  0  0  0
   -0.4795   -7.3888    0.0000 C   0  0  0  0  0  0  0  0  0
   -1.1939   -6.9763    0.0000 C   0  0  0  0  0  0  0  0  0
   -1.1939   -6.1513    0.0000 C   0  0  0  0  0  0  0  0  0
   -1.9084   -5.7388    0.0000 O   0  0  0  0  0  0  0  0  0
   -2.6229   -6.1513    0.0000 C   0  0  0  0  0  0  0  0  0
   -1.9372   -3.3183    0.0000 C   0  0  0  0  0  0  0  0  0
   -2.5420   -3.8795    0.0000 C   0  0  0  0  0  0  0  0  0
   -3.3303   -3.6363    0.0000 C   0  0  0  0  0  0  0  0  0
    0.1541   -3.8795    0.0000 C   0  0  0  0  0  0  0  0  0
    0.9425   -3.6363    0.0000 C   0  0  0  0  0  0  0  0  0
    1.1261   -2.8320    0.0000 C   0  0  0  0  0  0  0  0  0
    0.5213   -2.2708    0.0000 C   0  0  0  0  0  0  0  0  0
  1  2  1  0  0  0  0
  2  3  4  0  0  0  0
  2 32  4  0  0  0  0
  3  4  4  0  0  0  0
  4  5  1  0  0  0  0
  4 30  4  0  0  0  0
  5  6  2  0  0  0  0
  6  7  1  0  0  0  0
  6 14  1  0  0  0  0
  7  8  1  0  0  0  0
  7 12  1  0  0  0  0
  8  9  1  0  0  0  0
  9 10  1  0  0  0  0
 10 11  1  0  0  0  0
 10 13  1  0  0  0  0
 11 12  1  0  0  0  0
 14 15  4  0  0  0  0
 14 36  4  0  0  0  0
 15 16  1  0  0  0  0
 15 33  4  0  0  0  0
 16 17  1  0  0  0  0
 16 30  1  0  0  0  0
 17 18  1  0  0  0  0
 18 19  2  0  0  0  0
 18 20  1  0  0  0  0
 20 21  4  0  0  0  0
 20 27  4  0  0  0  0
 21 22  1  0  0  0  0
 21 24  4  0  0  0  0
 22 23  1  0  0  0  0
 24 25  4  0  0  0  0
 25 26  4  0  0  0  0
 26 27  4  0  0  0  0
 27 28  1  0  0  0  0
 28 29  1  0  0  0  0
 30 31  4  0  0  0  0
 31 32  4  0  0  0  0
 33 34  4  0  0  0  0
 34 35  4  0  0  0  0
 35 36  4  0  0  0  0
M  END
>  <Name_Molregno>
357194

>  <5-HT2A>
7.86

>  <Alpha-2A>
6.77

>  <DOPAMINE D1>
8.8

>  <DOPAMINE D2>
6.47

>  <DOPAMINE D4>
5.74

>  <DOPAMINE D5>
7.42

$$$$
357219
  Marvin  02231216192D 0   1.00000     0.00000     0

 33 37  0  0  0  0  0  0  0  0999 V2000
    0.3873    0.8347    0.0000 Cl  0  0  0  0  0  0  0  0  0
    1.1017    1.2472    0.0000 C   0  0  0  0  0  0  0  0  0
    1.1017    2.0722    0.0000 C   0  0  0  0  0  0  0  0  0
    1.8162    2.4847    0.0000 C   0  0  0  0  0  0  0  0  0
    2.5307    2.0722    0.0000 C   0  0  0  0  0  0  0  0  0
    2.5307    1.2472    0.0000 C   0  0  0  0  0  0  0  0  0
    1.8162    0.8347    0.0000 C   0  0  0  0  0  0  0  0  0
    1.8162    0.0097    0.0000 C   0  0  0  0  0  0  0  0  0
    1.1017   -0.4028    0.0000 O   0  0  0  0  0  0  0  0  0
    2.5307   -0.4028    0.0000 N   0  0  0  0  0  0  0  0  0
    2.5307   -1.2278    0.0000 N   0  0  0  0  0  0  0  0  0
    3.2740   -1.5858    0.0000 C   0  0  0  0  0  0  0  0  0
    3.4576   -2.3901    0.0000 C   0  0  0  0  0  0  0  0  0
    4.2459   -2.6333    0.0000 C   0  0  0  0  0  0  0  0  0
    4.8507   -2.0721    0.0000 C   0  0  0  0  0  0  0  0  0
    4.6671   -1.2678    0.0000 C   0  0  0  0  0  0  0  0  0
    3.8787   -1.0246    0.0000 C   0  0  0  0  0  0  0  0  0
    2.9432   -3.0351    0.0000 C   0  0  0  0  0  0  0  0  0
    2.1182   -3.0351    0.0000 N   0  0  0  0  0  0  0  0  0
    1.6038   -2.3901    0.0000 C   0  0  0  0  0  0  0  0  0
    0.8154   -2.6333    0.0000 C   0  0  0  0  0  0  0  0  0
    0.2107   -2.0721    0.0000 C   0  0  0  0  0  0  0  0  0
   -0.5777   -2.3153    0.0000 Cl  0  0  0  0  0  0  0  0  0
    0.3943   -1.2678    0.0000 C   0  0  0  0  0  0  0  0  0
    1.1826   -1.0246    0.0000 C   0  0  0  0  0  0  0  0  0
    1.7874   -1.5858    0.0000 C   0  0  0  0  0  0  0  0  0
    3.3011   -3.7784    0.0000 N   0  0  0  0  0  0  0  0  0
    4.1238   -3.8401    0.0000 C   0  0  0  0  0  0  0  0  0
    4.4818   -4.5833    0.0000 C   0  0  0  0  0  0  0  0  0
    4.0170   -5.2650    0.0000 N   0  0  0  0  0  0  0  0  0
    3.1943   -5.2033    0.0000 C   0  0  0  0  0  0  0  0  0
    2.8364   -4.4600    0.0000 C   0  0  0  0  0  0  0  0  0
    4.3750   -6.0083    0.0000 C   0  0  0  0  0  0  0  0  0
  1  2  1  0  0  0  0
  2  3  4  0  0  0  0
  2  7  4  0  0  0  0
  3  4  4  0  0  0  0
  4  5  4  0  0  0  0
  5  6  4  0  0  0  0
  6  7  4  0  0  0  0
  7  8  1  0  0  0  0
  8  9  2  0  0  0  0
  8 10  1  0  0  0  0
 10 11  1  0  0  0  0
 11 12  1  0  0  0  0
 11 26  1  0  0  0  0
 12 13  4  0  0  0  0
 12 17  4  0  0  0  0
 13 14  4  0  0  0  0
 13 18  1  0  0  0  0
 14 15  4  0  0  0  0
 15 16  4  0  0  0  0
 16 17  4  0  0  0  0
 18 19  2  0  0  0  0
 18 27  1  0  0  0  0
 19 20  1  0  0  0  0
 20 21  4  0  0  0  0
 20 26  4  0  0  0  0
 21 22  4  0  0  0  0
 22 23  1  0  0  0  0
 22 24  4  0  0  0  0
 24 25  4  0  0  0  0
 25 26  4  0  0  0  0
 27 28  1  0  0  0  0
 27 32  1  0  0  0  0
 28 29  1  0  0  0  0
 29 30  1  0  0  0  0
 30 31  1  0  0  0  0
 30 33  1  0  0  0  0
 31 32  1  0  0  0  0
M  END
>  <Name_Molregno>
357219

>  <5-HT2A>
9

>  <Alpha-2A>
6.34

>  <DOPAMINE D1>
8.39

>  <DOPAMINE D2>
6.74

>  <DOPAMINE D4>
6.06

>  <DOPAMINE D5>
7.14

$$$$
357242
  Marvin  02231216192D 0   1.00000     0.00000     0

 36 41  0  0  0  0  0  0  0  0999 V2000
   -4.2025   -2.5109    0.0000 Cl  0  0  0  0  0  0  0  0  0
   -3.4142   -2.7541    0.0000 C   0  0  0  0  0  0  0  0  0
   -2.8094   -2.1929    0.0000 C   0  0  0  0  0  0  0  0  0
   -2.0211   -2.4361    0.0000 C   0  0  0  0  0  0  0  0  0
   -1.5067   -1.7911    0.0000 N   0  0  0  0  0  0  0  0  0
   -0.6817   -1.7911    0.0000 C   0  0  0  0  0  0  0  0  0
   -0.3237   -1.0478    0.0000 N   0  0  0  0  0  0  0  0  0
   -0.7885   -0.3661    0.0000 C   0  0  0  0  0  0  0  0  0
   -0.4305    0.3772    0.0000 C   0  0  0  0  0  0  0  0  0
    0.3922    0.4388    0.0000 N   0  0  0  0  0  0  0  0  0
    0.8569   -0.2428    0.0000 C   0  0  0  0  0  0  0  0  0
    0.4990   -0.9861    0.0000 C   0  0  0  0  0  0  0  0  0
    0.7501    1.1821    0.0000 C   0  0  0  0  0  0  0  0  0
   -0.1673   -2.4361    0.0000 C   0  0  0  0  0  0  0  0  0
   -0.3509   -3.2404    0.0000 C   0  0  0  0  0  0  0  0  0
   -1.0942   -3.5984    0.0000 N   0  0  0  0  0  0  0  0  0
   -1.0942   -4.4234    0.0000 N   0  0  0  0  0  0  0  0  0
   -1.8087   -4.8359    0.0000 C   0  0  0  0  0  0  0  0  0
   -2.5231   -4.4234    0.0000 O   0  0  0  0  0  0  0  0  0
   -1.8087   -5.6609    0.0000 C   0  0  0  0  0  0  0  0  0
   -2.5231   -6.0734    0.0000 C   0  0  0  0  0  0  0  0  0
   -2.5231   -6.8984    0.0000 C   0  0  0  0  0  0  0  0  0
   -1.8087   -7.3109    0.0000 C   0  0  0  0  0  0  0  0  0
   -1.0942   -6.8984    0.0000 C   0  0  0  0  0  0  0  0  0
   -1.0942   -6.0734    0.0000 C   0  0  0  0  0  0  0  0  0
   -3.2376   -7.3109    0.0000 C   0  0  0  0  0  0  0  0  0
   -3.9521   -6.8984    0.0000 C   0  0  0  0  0  0  0  0  0
   -3.9521   -6.0734    0.0000 C   0  0  0  0  0  0  0  0  0
   -3.2376   -5.6609    0.0000 C   0  0  0  0  0  0  0  0  0
   -1.8375   -3.2404    0.0000 C   0  0  0  0  0  0  0  0  0
   -2.4422   -3.8016    0.0000 C   0  0  0  0  0  0  0  0  0
   -3.2306   -3.5584    0.0000 C   0  0  0  0  0  0  0  0  0
    0.2539   -3.8016    0.0000 C   0  0  0  0  0  0  0  0  0
    1.0422   -3.5584    0.0000 C   0  0  0  0  0  0  0  0  0
    1.2258   -2.7541    0.0000 C   0  0  0  0  0  0  0  0  0
    0.6210   -2.1929    0.0000 C   0  0  0  0  0  0  0  0  0
  1  2  1  0  0  0  0
  2  3  4  0  0  0  0
  2 32  4  0  0  0  0
  3  4  4  0  0  0  0
  4  5  1  0  0  0  0
  4 30  4  0  0  0  0
  5  6  2  0  0  0  0
  6  7  1  0  0  0  0
  6 14  1  0  0  0  0
  7  8  1  0  0  0  0
  7 12  1  0  0  0  0
  8  9  1  0  0  0  0
  9 10  1  0  0  0  0
 10 11  1  0  0  0  0
 10 13  1  0  0  0  0
 11 12  1  0  0  0  0
 14 15  4  0  0  0  0
 14 36  4  0  0  0  0
 15 16  1  0  0  0  0
 15 33  4  0  0  0  0
 16 17  1  0  0  0  0
 16 30  1  0  0  0  0
 17 18  1  0  0  0  0
 18 19  2  0  0  0  0
 18 20  1  0  0  0  0
 20 21  4  0  0  0  0
 20 25  4  0  0  0  0
 21 22  4  0  0  0  0
 21 29  4  0  0  0  0
 22 23  4  0  0  0  0
 22 26  4  0  0  0  0
 23 24  4  0  0  0  0
 24 25  4  0  0  0  0
 26 27  4  0  0  0  0
 27 28  4  0  0  0  0
 28 29  4  0  0  0  0
 30 31  4  0  0  0  0
 31 32  4  0  0  0  0
 33 34  4  0  0  0  0
 34 35  4  0  0  0  0
 35 36  4  0  0  0  0
M  END
>  <Name_Molregno>
357242

>  <5-HT2A>
9

>  <Alpha-2A>
6.05

>  <DOPAMINE D1>
8.42

>  <DOPAMINE D2>
6.34

>  <DOPAMINE D4>
6.01

>  <DOPAMINE D5>
6.98

$$$$
357390
  Marvin  02231216192D 0   1.00000     0.00000     0

 37 41  0  0  0  0  0  0  0  0999 V2000
   -4.7351   -2.6013    0.0000 Cl  0  0  0  0  0  0  0  0  0
   -3.9468   -2.8445    0.0000 C   0  0  0  0  0  0  0  0  0
   -3.3420   -2.2833    0.0000 C   0  0  0  0  0  0  0  0  0
   -2.5537   -2.5265    0.0000 C   0  0  0  0  0  0  0  0  0
   -2.0393   -1.8815    0.0000 N   0  0  0  0  0  0  0  0  0
   -1.2143   -1.8815    0.0000 C   0  0  0  0  0  0  0  0  0
   -0.8563   -1.1382    0.0000 N   0  0  0  0  0  0  0  0  0
   -1.3211   -0.4565    0.0000 C   0  0  0  0  0  0  0  0  0
   -0.9631    0.2868    0.0000 C   0  0  0  0  0  0  0  0  0
   -0.1404    0.3484    0.0000 N   0  0  0  0  0  0  0  0  0
    0.3243   -0.3332    0.0000 C   0  0  0  0  0  0  0  0  0
   -0.0336   -1.0765    0.0000 C   0  0  0  0  0  0  0  0  0
    0.2175    1.0917    0.0000 C   0  0  0  0  0  0  0  0  0
   -0.6999   -2.5265    0.0000 C   0  0  0  0  0  0  0  0  0
   -0.8835   -3.3308    0.0000 C   0  0  0  0  0  0  0  0  0
   -1.6268   -3.6888    0.0000 N   0  0  0  0  0  0  0  0  0
   -1.6268   -4.5138    0.0000 N   0  0  0  0  0  0  0  0  0
   -0.9123   -4.9263    0.0000 C   0  0  0  0  0  0  0  0  0
   -0.1978   -4.5138    0.0000 O   0  0  0  0  0  0  0  0  0
   -0.9123   -5.7513    0.0000 C   0  0  0  0  0  0  0  0  0
   -0.1978   -6.1638    0.0000 C   0  0  0  0  0  0  0  0  0
   -0.1978   -6.9888    0.0000 C   0  0  0  0  0  0  0  0  0
   -0.9123   -7.4013    0.0000 C   0  0  0  0  0  0  0  0  0
   -1.6268   -6.9888    0.0000 C   0  0  0  0  0  0  0  0  0
   -1.6268   -6.1638    0.0000 C   0  0  0  0  0  0  0  0  0
   -2.3412   -5.7513    0.0000 F   0  0  0  0  0  0  0  0  0
    0.5166   -5.7513    0.0000 C   0  0  0  0  0  0  0  0  0
    1.2311   -5.3388    0.0000 F   0  0  0  0  0  0  0  0  0
    0.9291   -6.4657    0.0000 F   0  0  0  0  0  0  0  0  0
    0.1041   -5.0368    0.0000 F   0  0  0  0  0  0  0  0  0
   -2.3701   -3.3308    0.0000 C   0  0  0  0  0  0  0  0  0
   -2.9748   -3.8919    0.0000 C   0  0  0  0  0  0  0  0  0
   -3.7632   -3.6488    0.0000 C   0  0  0  0  0  0  0  0  0
   -0.2787   -3.8919    0.0000 C   0  0  0  0  0  0  0  0  0
    0.5096   -3.6488    0.0000 C   0  0  0  0  0  0  0  0  0
    0.6932   -2.8445    0.0000 C   0  0  0  0  0  0  0  0  0
    0.0885   -2.2833    0.0000 C   0  0  0  0  0  0  0  0  0
  1  2  1  0  0  0  0
  2  3  4  0  0  0  0
  2 33  4  0  0  0  0
  3  4  4  0  0  0  0
  4  5  1  0  0  0  0
  4 31  4  0  0  0  0
  5  6  2  0  0  0  0
  6  7  1  0  0  0  0
  6 14  1  0  0  0  0
  7  8  1  0  0  0  0
  7 12  1  0  0  0  0
  8  9  1  0  0  0  0
  9 10  1  0  0  0  0
 10 11  1  0  0  0  0
 10 13  1  0  0  0  0
 11 12  1  0  0  0  0
 14 15  4  0  0  0  0
 14 37  4  0  0  0  0
 15 16  1  0  0  0  0
 15 34  4  0  0  0  0
 16 17  1  0  0  0  0
 16 31  1  0  0  0  0
 17 18  1  0  0  0  0
 18 19  2  0  0  0  0
 18 20  1  0  0  0  0
 20 21  4  0  0  0  0
 20 25  4  0  0  0  0
 21 22  4  0  0  0  0
 21 27  1  0  0  0  0
 22 23  4  0  0  0  0
 23 24  4  0  0  0  0
 24 25  4  0  0  0  0
 25 26  1  0  0  0  0
 27 28  1  0  0  0  0
 27 29  1  0  0  0  0
 27 30  1  0  0  0  0
 31 32  4  0  0  0  0
 32 33  4  0  0  0  0
 34 35  4  0  0  0  0
 35 36  4  0  0  0  0
 36 37  4  0  0  0  0
M  END
>  <Name_Molregno>
357390

>  <5-HT2A>
8.92

>  <Alpha-2A>
5.7

>  <DOPAMINE D1>
8.6

>  <DOPAMINE D2>
6.42

>  <DOPAMINE D4>
5.7

>  <DOPAMINE D5>
8.15

$$$$
357418
  Marvin  02231216192D 0   1.00000     0.00000     0

 34 38  0  0  0  0  0  0  0  0999 V2000
    0.2845    1.3449    0.0000 Cl  0  0  0  0  0  0  0  0  0
    0.9990    1.7574    0.0000 C   0  0  0  0  0  0  0  0  0
    0.9990    2.5824    0.0000 C   0  0  0  0  0  0  0  0  0
    1.7135    2.9949    0.0000 C   0  0  0  0  0  0  0  0  0
    2.4279    2.5824    0.0000 C   0  0  0  0  0  0  0  0  0
    2.4279    1.7574    0.0000 C   0  0  0  0  0  0  0  0  0
    3.1424    1.3449    0.0000 N   0  0  0  0  0  0  0  0  0
    1.7135    1.3449    0.0000 C   0  0  0  0  0  0  0  0  0
    1.7135    0.5199    0.0000 C   0  0  0  0  0  0  0  0  0
    0.9990    0.1074    0.0000 O   0  0  0  0  0  0  0  0  0
    2.4279    0.1074    0.0000 N   0  0  0  0  0  0  0  0  0
    2.4279   -0.7176    0.0000 N   0  0  0  0  0  0  0  0  0
    3.1712   -1.0755    0.0000 C   0  0  0  0  0  0  0  0  0
    3.3548   -1.8798    0.0000 C   0  0  0  0  0  0  0  0  0
    4.1432   -2.1230    0.0000 C   0  0  0  0  0  0  0  0  0
    4.7479   -1.5619    0.0000 C   0  0  0  0  0  0  0  0  0
    4.5644   -0.7576    0.0000 C   0  0  0  0  0  0  0  0  0
    3.7760   -0.5144    0.0000 C   0  0  0  0  0  0  0  0  0
    2.8404   -2.5248    0.0000 C   0  0  0  0  0  0  0  0  0
    2.0154   -2.5248    0.0000 N   0  0  0  0  0  0  0  0  0
    1.5011   -1.8798    0.0000 C   0  0  0  0  0  0  0  0  0
    0.7127   -2.1230    0.0000 C   0  0  0  0  0  0  0  0  0
    0.1080   -1.5619    0.0000 C   0  0  0  0  0  0  0  0  0
   -0.6804   -1.8050    0.0000 Cl  0  0  0  0  0  0  0  0  0
    0.2915   -0.7576    0.0000 C   0  0  0  0  0  0  0  0  0
    1.0799   -0.5144    0.0000 C   0  0  0  0  0  0  0  0  0
    1.6846   -1.0755    0.0000 C   0  0  0  0  0  0  0  0  0
    3.1984   -3.2681    0.0000 N   0  0  0  0  0  0  0  0  0
    4.0211   -3.3298    0.0000 C   0  0  0  0  0  0  0  0  0
    4.3791   -4.0731    0.0000 C   0  0  0  0  0  0  0  0  0
    3.9143   -4.7547    0.0000 N   0  0  0  0  0  0  0  0  0
    3.0916   -4.6931    0.0000 C   0  0  0  0  0  0  0  0  0
    2.7337   -3.9498    0.0000 C   0  0  0  0  0  0  0  0  0
    4.2723   -5.4980    0.0000 C   0  0  0  0  0  0  0  0  0
  1  2  1  0  0  0  0
  2  3  4  0  0  0  0
  2  8  4  0  0  0  0
  3  4  4  0  0  0  0
  4  5  4  0  0  0  0
  5  6  4  0  0  0  0
  6  7  1  0  0  0  0
  6  8  4  0  0  0  0
  8  9  1  0  0  0  0
  9 10  2  0  0  0  0
  9 11  1  0  0  0  0
 11 12  1  0  0  0  0
 12 13  1  0  0  0  0
 12 27  1  0  0  0  0
 13 14  4  0  0  0  0
 13 18  4  0  0  0  0
 14 15  4  0  0  0  0
 14 19  1  0  0  0  0
 15 16  4  0  0  0  0
 16 17  4  0  0  0  0
 17 18  4  0  0  0  0
 19 20  2  0  0  0  0
 19 28  1  0  0  0  0
 20 21  1  0  0  0  0
 21 22  4  0  0  0  0
 21 27  4  0  0  0  0
 22 23  4  0  0  0  0
 23 24  1  0  0  0  0
 23 25  4  0  0  0  0
 25 26  4  0  0  0  0
 26 27  4  0  0  0  0
 28 29  1  0  0  0  0
 28 33  1  0  0  0  0
 29 30  1  0  0  0  0
 30 31  1  0  0  0  0
 31 32  1  0  0  0  0
 31 34  1  0  0  0  0
 32 33  1  0  0  0  0
M  END
>  <Name_Molregno>
357418

>  <5-HT2A>
9.05

>  <Alpha-2A>
6.49

>  <DOPAMINE D1>
8.59

>  <DOPAMINE D2>
6.3

>  <DOPAMINE D4>
6.09

>  <DOPAMINE D5>
7.28

$$$$
357419
  Marvin  02231216192D 0   1.00000     0.00000     0

 34 38  0  0  0  0  0  0  0  0999 V2000
   -4.1474   -2.6924    0.0000 Cl  0  0  0  0  0  0  0  0  0
   -3.3590   -2.9355    0.0000 C   0  0  0  0  0  0  0  0  0
   -2.7543   -2.3744    0.0000 C   0  0  0  0  0  0  0  0  0
   -1.9659   -2.6176    0.0000 C   0  0  0  0  0  0  0  0  0
   -1.4515   -1.9726    0.0000 N   0  0  0  0  0  0  0  0  0
   -0.6265   -1.9726    0.0000 C   0  0  0  0  0  0  0  0  0
   -0.2686   -1.2293    0.0000 N   0  0  0  0  0  0  0  0  0
   -0.7333   -0.5476    0.0000 C   0  0  0  0  0  0  0  0  0
   -0.3754    0.1957    0.0000 C   0  0  0  0  0  0  0  0  0
    0.4473    0.2573    0.0000 N   0  0  0  0  0  0  0  0  0
    0.9121   -0.4243    0.0000 C   0  0  0  0  0  0  0  0  0
    0.5541   -1.1676    0.0000 C   0  0  0  0  0  0  0  0  0
    0.8053    1.0006    0.0000 C   0  0  0  0  0  0  0  0  0
   -0.1122   -2.6176    0.0000 C   0  0  0  0  0  0  0  0  0
   -0.2957   -3.4219    0.0000 C   0  0  0  0  0  0  0  0  0
   -1.0390   -3.7798    0.0000 N   0  0  0  0  0  0  0  0  0
   -1.0390   -4.6048    0.0000 N   0  0  0  0  0  0  0  0  0
   -0.3246   -5.0173    0.0000 C   0  0  0  0  0  0  0  0  0
    0.3899   -4.6048    0.0000 O   0  0  0  0  0  0  0  0  0
   -0.3246   -5.8423    0.0000 C   0  0  0  0  0  0  0  0  0
    0.3899   -6.2548    0.0000 C   0  0  0  0  0  0  0  0  0
    0.3899   -7.0798    0.0000 C   0  0  0  0  0  0  0  0  0
   -0.3246   -7.4923    0.0000 C   0  0  0  0  0  0  0  0  0
   -1.0390   -7.0798    0.0000 C   0  0  0  0  0  0  0  0  0
   -1.0390   -6.2548    0.0000 C   0  0  0  0  0  0  0  0  0
   -1.7535   -5.8423    0.0000 C   0  0  0  0  0  0  0  0  0
    1.1044   -5.8423    0.0000 C   0  0  0  0  0  0  0  0  0
   -1.7823   -3.4219    0.0000 C   0  0  0  0  0  0  0  0  0
   -2.3871   -3.9830    0.0000 C   0  0  0  0  0  0  0  0  0
   -3.1755   -3.7398    0.0000 C   0  0  0  0  0  0  0  0  0
    0.3090   -3.9830    0.0000 C   0  0  0  0  0  0  0  0  0
    1.0974   -3.7398    0.0000 C   0  0  0  0  0  0  0  0  0
    1.2810   -2.9355    0.0000 C   0  0  0  0  0  0  0  0  0
    0.6762   -2.3744    0.0000 C   0  0  0  0  0  0  0  0  0
  1  2  1  0  0  0  0
  2  3  4  0  0  0  0
  2 30  4  0  0  0  0
  3  4  4  0  0  0  0
  4  5  1  0  0  0  0
  4 28  4  0  0  0  0
  5  6  2  0  0  0  0
  6  7  1  0  0  0  0
  6 14  1  0  0  0  0
  7  8  1  0  0  0  0
  7 12  1  0  0  0  0
  8  9  1  0  0  0  0
  9 10  1  0  0  0  0
 10 11  1  0  0  0  0
 10 13  1  0  0  0  0
 11 12  1  0  0  0  0
 14 15  4  0  0  0  0
 14 34  4  0  0  0  0
 15 16  1  0  0  0  0
 15 31  4  0  0  0  0
 16 17  1  0  0  0  0
 16 28  1  0  0  0  0
 17 18  1  0  0  0  0
 18 19  2  0  0  0  0
 18 20  1  0  0  0  0
 20 21  4  0  0  0  0
 20 25  4  0  0  0  0
 21 22  4  0  0  0  0
 21 27  1  0  0  0  0
 22 23  4  0  0  0  0
 23 24  4  0  0  0  0
 24 25  4  0  0  0  0
 25 26  1  0  0  0  0
 28 29  4  0  0  0  0
 29 30  4  0  0  0  0
 31 32  4  0  0  0  0
 32 33  4  0  0  0  0
 33 34  4  0  0  0  0
M  END
>  <Name_Molregno>
357419

>  <5-HT2A>
8.66

>  <Alpha-2A>
6.1

>  <DOPAMINE D1>
8.52

>  <DOPAMINE D2>
6.54

>  <DOPAMINE D4>
5.73

>  <DOPAMINE D5>
7.51

$$$$
357447
  Marvin  02231216192D 0   1.00000     0.00000     0

 34 38  0  0  0  0  0  0  0  0999 V2000
   -4.1474   -2.6924    0.0000 Cl  0  0  0  0  0  0  0  0  0
   -3.3590   -2.9355    0.0000 C   0  0  0  0  0  0  0  0  0
   -2.7543   -2.3744    0.0000 C   0  0  0  0  0  0  0  0  0
   -1.9659   -2.6176    0.0000 C   0  0  0  0  0  0  0  0  0
   -1.4515   -1.9726    0.0000 N   0  0  0  0  0  0  0  0  0
   -0.6265   -1.9726    0.0000 C   0  0  0  0  0  0  0  0  0
   -0.2686   -1.2293    0.0000 N   0  0  0  0  0  0  0  0  0
   -0.7333   -0.5476    0.0000 C   0  0  0  0  0  0  0  0  0
   -0.3754    0.1957    0.0000 C   0  0  0  0  0  0  0  0  0
    0.4473    0.2573    0.0000 N   0  0  0  0  0  0  0  0  0
    0.9121   -0.4243    0.0000 C   0  0  0  0  0  0  0  0  0
    0.5541   -1.1676    0.0000 C   0  0  0  0  0  0  0  0  0
    0.8053    1.0006    0.0000 C   0  0  0  0  0  0  0  0  0
   -0.1122   -2.6176    0.0000 C   0  0  0  0  0  0  0  0  0
   -0.2957   -3.4219    0.0000 C   0  0  0  0  0  0  0  0  0
   -1.0390   -3.7798    0.0000 N   0  0  0  0  0  0  0  0  0
   -1.0390   -4.6048    0.0000 N   0  0  0  0  0  0  0  0  0
   -0.3246   -5.0173    0.0000 C   0  0  0  0  0  0  0  0  0
    0.3899   -4.6048    0.0000 O   0  0  0  0  0  0  0  0  0
   -0.3246   -5.8423    0.0000 C   0  0  0  0  0  0  0  0  0
    0.3899   -6.2548    0.0000 C   0  0  0  0  0  0  0  0  0
    0.3899   -7.0798    0.0000 C   0  0  0  0  0  0  0  0  0
   -0.3246   -7.4923    0.0000 C   0  0  0  0  0  0  0  0  0
   -1.0390   -7.0798    0.0000 C   0  0  0  0  0  0  0  0  0
   -1.0390   -6.2548    0.0000 C   0  0  0  0  0  0  0  0  0
   -1.7535   -5.8423    0.0000 N   0  0  0  0  0  0  0  0  0
    1.1044   -5.8423    0.0000 C   0  0  0  0  0  0  0  0  0
   -1.7823   -3.4219    0.0000 C   0  0  0  0  0  0  0  0  0
   -2.3871   -3.9830    0.0000 C   0  0  0  0  0  0  0  0  0
   -3.1755   -3.7398    0.0000 C   0  0  0  0  0  0  0  0  0
    0.3090   -3.9830    0.0000 C   0  0  0  0  0  0  0  0  0
    1.0974   -3.7398    0.0000 C   0  0  0  0  0  0  0  0  0
    1.2810   -2.9355    0.0000 C   0  0  0  0  0  0  0  0  0
    0.6762   -2.3744    0.0000 C   0  0  0  0  0  0  0  0  0
  1  2  1  0  0  0  0
  2  3  4  0  0  0  0
  2 30  4  0  0  0  0
  3  4  4  0  0  0  0
  4  5  1  0  0  0  0
  4 28  4  0  0  0  0
  5  6  2  0  0  0  0
  6  7  1  0  0  0  0
  6 14  1  0  0  0  0
  7  8  1  0  0  0  0
  7 12  1  0  0  0  0
  8  9  1  0  0  0  0
  9 10  1  0  0  0  0
 10 11  1  0  0  0  0
 10 13  1  0  0  0  0
 11 12  1  0  0  0  0
 14 15  4  0  0  0  0
 14 34  4  0  0  0  0
 15 16  1  0  0  0  0
 15 31  4  0  0  0  0
 16 17  1  0  0  0  0
 16 28  1  0  0  0  0
 17 18  1  0  0  0  0
 18 19  2  0  0  0  0
 18 20  1  0  0  0  0
 20 21  4  0  0  0  0
 20 25  4  0  0  0  0
 21 22  4  0  0  0  0
 21 27  1  0  0  0  0
 22 23  4  0  0  0  0
 23 24  4  0  0  0  0
 24 25  4  0  0  0  0
 25 26  1  0  0  0  0
 28 29  4  0  0  0  0
 29 30  4  0  0  0  0
 31 32  4  0  0  0  0
 32 33  4  0  0  0  0
 33 34  4  0  0  0  0
M  END
>  <Name_Molregno>
357447

>  <5-HT2A>
8.54

>  <Alpha-2A>
6.34

>  <DOPAMINE D1>
8.49

>  <DOPAMINE D2>
5.99

>  <DOPAMINE D4>
5.31

>  <DOPAMINE D5>
7.24

$$$$
360587
  Marvin  02231216192D 0   1.00000     0.00000     0

 27 30  0  0  0  0  0  0  0  0999 V2000
   -4.0305   -2.2753    0.0000 N   0  0  0  0  0  0  0  0  0
   -3.3160   -1.8628    0.0000 C   0  0  0  0  0  0  0  0  0
   -3.3160   -1.0378    0.0000 C   0  0  0  0  0  0  0  0  0
   -2.6015   -0.6253    0.0000 C   0  0  0  0  0  0  0  0  0
   -1.8870   -1.0378    0.0000 C   0  0  0  0  0  0  0  0  0
   -1.8870   -1.8628    0.0000 C   0  0  0  0  0  0  0  0  0
   -2.6015   -2.2753    0.0000 C   0  0  0  0  0  0  0  0  0
   -4.0305   -0.6253    0.0000 C   0  0  0  0  0  0  0  0  0
   -4.0305    0.1997    0.0000 N   0  0  0  0  0  0  0  0  0
   -3.3160    0.6122    0.0000 C   0  0  0  0  0  0  0  0  0
   -3.3160    1.4372    0.0000 C   0  0  0  0  0  0  0  0  0
   -2.6015    1.8497    0.0000 C   0  0  0  0  0  0  0  0  0
   -1.8870    1.4372    0.0000 C   0  0  0  0  0  0  0  0  0
   -1.1726    1.8497    0.0000 N   0  0  0  0  0  0  0  0  0
   -1.1726    2.6747    0.0000 C   0  0  0  0  0  0  0  0  0
   -0.4581    3.0872    0.0000 C   0  0  0  0  0  0  0  0  0
    0.2564    2.6747    0.0000 N   0  0  0  0  0  0  0  0  0
    0.2564    1.8497    0.0000 C   0  0  0  0  0  0  0  0  0
   -0.4581    1.4372    0.0000 C   0  0  0  0  0  0  0  0  0
    0.9708    3.0872    0.0000 C   0  0  0  0  0  0  0  0  0
   -1.8870    0.6122    0.0000 C   0  0  0  0  0  0  0  0  0
   -2.6015    0.1997    0.0000 C   0  0  0  0  0  0  0  0  0
   -4.7449   -1.0378    0.0000 C   0  0  0  0  0  0  0  0  0
   -5.4594   -0.6253    0.0000 C   0  0  0  0  0  0  0  0  0
   -6.1739   -1.0378    0.0000 C   0  0  0  0  0  0  0  0  0
   -4.7449   -1.8628    0.0000 C   0  0  0  0  0  0  0  0  0
   -5.4594   -2.2753    0.0000 C   0  0  0  0  0  0  0  0  0
  1  2  4  0  0  0  0
  1 26  4  0  0  0  0
  2  3  4  0  0  0  0
  2  7  4  0  0  0  0
  3  4  4  0  0  0  0
  3  8  4  0  0  0  0
  4  5  4  0  0  0  0
  5  6  4  0  0  0  0
  6  7  4  0  0  0  0
  8  9  1  0  0  0  0
  8 23  4  0  0  0  0
  9 10  1  0  0  0  0
 10 11  4  0  0  0  0
 10 22  4  0  0  0  0
 11 12  4  0  0  0  0
 12 13  4  0  0  0  0
 13 14  1  0  0  0  0
 13 21  4  0  0  0  0
 14 15  1  0  0  0  0
 14 19  1  0  0  0  0
 15 16  1  0  0  0  0
 16 17  1  0  0  0  0
 17 18  1  0  0  0  0
 17 20  1  0  0  0  0
 18 19  1  0  0  0  0
 21 22  4  0  0  0  0
 23 24  1  0  0  0  0
 23 26  4  0  0  0  0
 24 25  1  0  0  0  0
 26 27  1  0  0  0  0
M  STY  1   1 DAT
M  SAL   1  1   1
M  SDT   1 MRV_IMPLICIT_H                                        
M  SDD   1     0.0000    0.0000    DR    ALL  0       0  
M  SED   1 IMPL_H1
M  END
>  <Name_Molregno>
360587

>  <Alpha-2A>
5.96

>  <Alpha-2B>
5

>  <Alpha-2C>
7.6

$$$$
360599
  Marvin  02231216192D 0   1.00000     0.00000     0

 28 31  0  0  0  0  0  0  0  0999 V2000
    1.4086   -2.3356    0.0000 N   0  0  0  0  0  0  0  0  0
    2.1231   -1.9231    0.0000 C   0  0  0  0  0  0  0  0  0
    2.1231   -1.0981    0.0000 C   0  0  0  0  0  0  0  0  0
    2.8375   -0.6856    0.0000 C   0  0  0  0  0  0  0  0  0
    3.5520   -1.0981    0.0000 C   0  0  0  0  0  0  0  0  0
    3.5520   -1.9231    0.0000 C   0  0  0  0  0  0  0  0  0
    2.8375   -2.3356    0.0000 C   0  0  0  0  0  0  0  0  0
    1.4086   -0.6856    0.0000 C   0  0  0  0  0  0  0  0  0
    1.4086    0.1394    0.0000 N   0  0  0  0  0  0  0  0  0
    2.1231    0.5519    0.0000 C   0  0  0  0  0  0  0  0  0
    2.1231    1.3769    0.0000 C   0  0  0  0  0  0  0  0  0
    2.8375    1.7894    0.0000 C   0  0  0  0  0  0  0  0  0
    3.5520    1.3769    0.0000 C   0  0  0  0  0  0  0  0  0
    4.2665    1.7894    0.0000 N   0  0  0  0  0  0  0  0  0
    4.2665    2.6144    0.0000 C   0  0  0  0  0  0  0  0  0
    4.9810    3.0269    0.0000 C   0  0  0  0  0  0  0  0  0
    5.6954    2.6144    0.0000 N   0  0  0  0  0  0  0  0  0
    5.6954    1.7894    0.0000 C   0  0  0  0  0  0  0  0  0
    4.9810    1.3769    0.0000 C   0  0  0  0  0  0  0  0  0
    6.4099    3.0269    0.0000 C   0  0  0  0  0  0  0  0  0
    3.5520    0.5519    0.0000 C   0  0  0  0  0  0  0  0  0
    2.8375    0.1394    0.0000 C   0  0  0  0  0  0  0  0  0
    0.6941   -1.0981    0.0000 C   0  0  0  0  0  0  0  0  0
   -0.0203   -0.6856    0.0000 C   0  0  0  0  0  0  0  0  0
   -0.7348   -1.0981    0.0000 C   0  0  0  0  0  0  0  0  0
   -0.0203    0.1394    0.0000 C   0  0  0  0  0  0  0  0  0
    0.6941   -1.9231    0.0000 C   0  0  0  0  0  0  0  0  0
   -0.0203   -2.3356    0.0000 C   0  0  0  0  0  0  0  0  0
  1  2  4  0  0  0  0
  1 27  4  0  0  0  0
  2  3  4  0  0  0  0
  2  7  4  0  0  0  0
  3  4  4  0  0  0  0
  3  8  4  0  0  0  0
  4  5  4  0  0  0  0
  5  6  4  0  0  0  0
  6  7  4  0  0  0  0
  8  9  1  0  0  0  0
  8 23  4  0  0  0  0
  9 10  1  0  0  0  0
 10 11  4  0  0  0  0
 10 22  4  0  0  0  0
 11 12  4  0  0  0  0
 12 13  4  0  0  0  0
 13 14  1  0  0  0  0
 13 21  4  0  0  0  0
 14 15  1  0  0  0  0
 14 19  1  0  0  0  0
 15 16  1  0  0  0  0
 16 17  1  0  0  0  0
 17 18  1  0  0  0  0
 17 20  1  0  0  0  0
 18 19  1  0  0  0  0
 21 22  4  0  0  0  0
 23 24  1  0  0  0  0
 23 27  4  0  0  0  0
 24 25  1  0  0  0  0
 24 26  1  0  0  0  0
 27 28  1  0  0  0  0
M  STY  1   1 DAT
M  SAL   1  1   1
M  SDT   1 MRV_IMPLICIT_H                                        
M  SDD   1     0.0000    0.0000    DR    ALL  0       0  
M  SED   1 IMPL_H1
M  END
>  <Name_Molregno>
360599

>  <Alpha-2A>
5.77

>  <Alpha-2B>
5.41

>  <Alpha-2C>
7.28

$$$$
360695
  Marvin  02231216192D 0   1.00000     0.00000     0

 29 33  0  0  0  0  0  0  0  0999 V2000
    1.4041   -2.5546    0.0000 N   0  0  0  0  0  0  0  0  0
    2.1185   -2.1421    0.0000 C   0  0  0  0  0  0  0  0  0
    2.1185   -1.3171    0.0000 C   0  0  0  0  0  0  0  0  0
    2.8330   -0.9046    0.0000 C   0  0  0  0  0  0  0  0  0
    3.5475   -1.3171    0.0000 C   0  0  0  0  0  0  0  0  0
    3.5475   -2.1421    0.0000 C   0  0  0  0  0  0  0  0  0
    2.8330   -2.5546    0.0000 C   0  0  0  0  0  0  0  0  0
    1.4041   -0.9046    0.0000 C   0  0  0  0  0  0  0  0  0
    1.4041   -0.0796    0.0000 N   0  0  0  0  0  0  0  0  0
    2.1185    0.3329    0.0000 C   0  0  0  0  0  0  0  0  0
    2.1185    1.1579    0.0000 C   0  0  0  0  0  0  0  0  0
    2.8330    1.5704    0.0000 C   0  0  0  0  0  0  0  0  0
    3.5475    1.1579    0.0000 C   0  0  0  0  0  0  0  0  0
    4.2620    1.5704    0.0000 N   0  0  0  0  0  0  0  0  0
    4.2620    2.3954    0.0000 C   0  0  0  0  0  0  0  0  0
    4.9764    2.8079    0.0000 C   0  0  0  0  0  0  0  0  0
    5.6909    2.3954    0.0000 N   0  0  0  0  0  0  0  0  0
    5.6909    1.5704    0.0000 C   0  0  0  0  0  0  0  0  0
    4.9764    1.1579    0.0000 C   0  0  0  0  0  0  0  0  0
    6.4054    2.8079    0.0000 C   0  0  0  0  0  0  0  0  0
    6.4054    3.6329    0.0000 C   0  0  0  0  0  0  0  0  0
    3.5475    0.3329    0.0000 C   0  0  0  0  0  0  0  0  0
    2.8330   -0.0796    0.0000 C   0  0  0  0  0  0  0  0  0
    0.6896   -1.3171    0.0000 C   0  0  0  0  0  0  0  0  0
    0.6896   -2.1421    0.0000 C   0  0  0  0  0  0  0  0  0
   -0.0249   -2.5546    0.0000 C   0  0  0  0  0  0  0  0  0
   -0.7393   -2.1421    0.0000 C   0  0  0  0  0  0  0  0  0
   -0.7393   -1.3171    0.0000 C   0  0  0  0  0  0  0  0  0
   -0.0249   -0.9046    0.0000 C   0  0  0  0  0  0  0  0  0
  1  2  4  0  0  0  0
  1 25  4  0  0  0  0
  2  3  4  0  0  0  0
  2  7  4  0  0  0  0
  3  4  4  0  0  0  0
  3  8  4  0  0  0  0
  4  5  4  0  0  0  0
  5  6  4  0  0  0  0
  6  7  4  0  0  0  0
  8  9  1  0  0  0  0
  8 24  4  0  0  0  0
  9 10  1  0  0  0  0
 10 11  4  0  0  0  0
 10 23  4  0  0  0  0
 11 12  4  0  0  0  0
 12 13  4  0  0  0  0
 13 14  1  0  0  0  0
 13 22  4  0  0  0  0
 14 15  1  0  0  0  0
 14 19  1  0  0  0  0
 15 16  1  0  0  0  0
 16 17  1  0  0  0  0
 17 18  1  0  0  0  0
 17 20  1  0  0  0  0
 18 19  1  0  0  0  0
 20 21  1  0  0  0  0
 22 23  4  0  0  0  0
 24 25  4  0  0  0  0
 24 29  4  0  0  0  0
 25 26  4  0  0  0  0
 26 27  4  0  0  0  0
 27 28  4  0  0  0  0
 28 29  4  0  0  0  0
M  STY  1   1 DAT
M  SAL   1  1   1
M  SDT   1 MRV_IMPLICIT_H                                        
M  SDD   1     0.0000    0.0000    DR    ALL  0       0  
M  SED   1 IMPL_H1
M  END
>  <Name_Molregno>
360695

>  <Alpha-2A>
5.44

>  <Alpha-2B>
5.92

>  <Alpha-2C>
7.43

$$$$
360703
  Marvin  02231216192D 0   1.00000     0.00000     0

 24 27  0  0  0  0  0  0  0  0999 V2000
   -4.5426   -2.3526    0.0000 N   0  0  0  0  0  0  0  0  0
   -3.8281   -1.9401    0.0000 C   0  0  0  0  0  0  0  0  0
   -3.8281   -1.1151    0.0000 C   0  0  0  0  0  0  0  0  0
   -3.1136   -0.7026    0.0000 C   0  0  0  0  0  0  0  0  0
   -2.3992   -1.1151    0.0000 C   0  0  0  0  0  0  0  0  0
   -2.3992   -1.9401    0.0000 C   0  0  0  0  0  0  0  0  0
   -3.1136   -2.3526    0.0000 C   0  0  0  0  0  0  0  0  0
   -4.5426   -0.7026    0.0000 C   0  0  0  0  0  0  0  0  0
   -4.5426    0.1224    0.0000 N   0  0  0  0  0  0  0  0  0
   -3.8281    0.5349    0.0000 C   0  0  0  0  0  0  0  0  0
   -3.8281    1.3599    0.0000 C   0  0  0  0  0  0  0  0  0
   -3.1136    1.7724    0.0000 C   0  0  0  0  0  0  0  0  0
   -2.3992    1.3599    0.0000 C   0  0  0  0  0  0  0  0  0
   -1.6847    1.7724    0.0000 N   0  0  0  0  0  0  0  0  0
   -1.6847    2.5974    0.0000 C   0  0  0  0  0  0  0  0  0
   -0.9702    3.0099    0.0000 C   0  0  0  0  0  0  0  0  0
   -0.2558    2.5974    0.0000 N   0  0  0  0  0  0  0  0  0
   -0.2558    1.7724    0.0000 C   0  0  0  0  0  0  0  0  0
   -0.9702    1.3599    0.0000 C   0  0  0  0  0  0  0  0  0
    0.4587    3.0099    0.0000 C   0  0  0  0  0  0  0  0  0
   -2.3992    0.5349    0.0000 C   0  0  0  0  0  0  0  0  0
   -3.1136    0.1224    0.0000 C   0  0  0  0  0  0  0  0  0
   -5.2571   -1.1151    0.0000 C   0  0  0  0  0  0  0  0  0
   -5.2571   -1.9401    0.0000 C   0  0  0  0  0  0  0  0  0
  1  2  4  0  0  0  0
  1 24  4  0  0  0  0
  2  3  4  0  0  0  0
  2  7  4  0  0  0  0
  3  4  4  0  0  0  0
  3  8  4  0  0  0  0
  4  5  4  0  0  0  0
  5  6  4  0  0  0  0
  6  7  4  0  0  0  0
  8  9  1  0  0  0  0
  8 23  4  0  0  0  0
  9 10  1  0  0  0  0
 10 11  4  0  0  0  0
 10 22  4  0  0  0  0
 11 12  4  0  0  0  0
 12 13  4  0  0  0  0
 13 14  1  0  0  0  0
 13 21  4  0  0  0  0
 14 15  1  0  0  0  0
 14 19  1  0  0  0  0
 15 16  1  0  0  0  0
 16 17  1  0  0  0  0
 17 18  1  0  0  0  0
 17 20  1  0  0  0  0
 18 19  1  0  0  0  0
 21 22  4  0  0  0  0
 23 24  4  0  0  0  0
M  STY  1   1 DAT
M  SAL   1  1   1
M  SDT   1 MRV_IMPLICIT_H                                        
M  SDD   1     0.0000    0.0000    DR    ALL  0       0  
M  SED   1 IMPL_H1
M  END
>  <Name_Molregno>
360703

>  <Alpha-2A>
6.14

>  <Alpha-2B>
5.42

>  <Alpha-2C>
5.77

$$$$
360721
  Marvin  02231216192D 0   1.00000     0.00000     0

 26 29  0  0  0  0  0  0  0  0999 V2000
   -4.1873   -2.2664    0.0000 N   0  0  0  0  0  0  0  0  0
   -3.4728   -1.8539    0.0000 C   0  0  0  0  0  0  0  0  0
   -3.4728   -1.0289    0.0000 C   0  0  0  0  0  0  0  0  0
   -2.7583   -0.6164    0.0000 C   0  0  0  0  0  0  0  0  0
   -2.0438   -1.0289    0.0000 C   0  0  0  0  0  0  0  0  0
   -2.0438   -1.8539    0.0000 C   0  0  0  0  0  0  0  0  0
   -2.7583   -2.2664    0.0000 C   0  0  0  0  0  0  0  0  0
   -4.1873   -0.6164    0.0000 C   0  0  0  0  0  0  0  0  0
   -4.1873    0.2086    0.0000 N   0  0  0  0  0  0  0  0  0
   -3.4728    0.6211    0.0000 C   0  0  0  0  0  0  0  0  0
   -3.4728    1.4461    0.0000 C   0  0  0  0  0  0  0  0  0
   -2.7583    1.8586    0.0000 C   0  0  0  0  0  0  0  0  0
   -2.0438    1.4461    0.0000 C   0  0  0  0  0  0  0  0  0
   -1.3294    1.8586    0.0000 N   0  0  0  0  0  0  0  0  0
   -1.3294    2.6836    0.0000 C   0  0  0  0  0  0  0  0  0
   -0.6149    3.0961    0.0000 C   0  0  0  0  0  0  0  0  0
    0.0996    2.6836    0.0000 N   0  0  0  0  0  0  0  0  0
    0.0996    1.8586    0.0000 C   0  0  0  0  0  0  0  0  0
   -0.6149    1.4461    0.0000 C   0  0  0  0  0  0  0  0  0
    0.8140    3.0961    0.0000 C   0  0  0  0  0  0  0  0  0
   -2.0438    0.6211    0.0000 C   0  0  0  0  0  0  0  0  0
   -2.7583    0.2086    0.0000 C   0  0  0  0  0  0  0  0  0
   -4.9017   -1.0289    0.0000 C   0  0  0  0  0  0  0  0  0
   -5.6162   -0.6164    0.0000 C   0  0  0  0  0  0  0  0  0
   -4.9017   -1.8539    0.0000 C   0  0  0  0  0  0  0  0  0
   -5.6162   -2.2664    0.0000 C   0  0  0  0  0  0  0  0  0
  1  2  4  0  0  0  0
  1 25  4  0  0  0  0
  2  3  4  0  0  0  0
  2  7  4  0  0  0  0
  3  4  4  0  0  0  0
  3  8  4  0  0  0  0
  4  5  4  0  0  0  0
  5  6  4  0  0  0  0
  6  7  4  0  0  0  0
  8  9  1  0  0  0  0
  8 23  4  0  0  0  0
  9 10  1  0  0  0  0
 10 11  4  0  0  0  0
 10 22  4  0  0  0  0
 11 12  4  0  0  0  0
 12 13  4  0  0  0  0
 13 14  1  0  0  0  0
 13 21  4  0  0  0  0
 14 15  1  0  0  0  0
 14 19  1  0  0  0  0
 15 16  1  0  0  0  0
 16 17  1  0  0  0  0
 17 18  1  0  0  0  0
 17 20  1  0  0  0  0
 18 19  1  0  0  0  0
 21 22  4  0  0  0  0
 23 24  1  0  0  0  0
 23 25  4  0  0  0  0
 25 26  1  0  0  0  0
M  STY  1   1 DAT
M  SAL   1  1   1
M  SDT   1 MRV_IMPLICIT_H                                        
M  SDD   1     0.0000    0.0000    DR    ALL  0       0  
M  SED   1 IMPL_H1
M  END
>  <Name_Molregno>
360721

>  <Alpha-2A>
5.66

>  <Alpha-2B>
5.3

>  <Alpha-2C>
7.46

$$$$
360747
  Marvin  02231216192D 0   1.00000     0.00000     0

 26 29  0  0  1  0  0  0  0  0999 V2000
    4.1832    2.4850    0.0000 N   0  0  0  0  0  0  0  0  0
    3.4687    2.0725    0.0000 C   0  0  0  0  0  0  0  0  0
    3.4687    1.2475    0.0000 C   0  0  0  0  0  0  0  0  0
    2.7543    0.8350    0.0000 C   0  0  0  0  0  0  0  0  0
    4.1832    0.8350    0.0000 C   0  0  0  0  0  0  0  0  0
    4.1832    0.0100    0.0000 N   0  0  0  0  0  0  0  0  0
    3.4687   -0.4025    0.0000 C   0  0  0  0  0  0  0  0  0
    3.4687   -1.2275    0.0000 C   0  0  0  0  0  0  0  0  0
    2.7543   -1.6400    0.0000 C   0  0  0  0  0  0  0  0  0
    2.0398   -1.2275    0.0000 C   0  0  0  0  0  0  0  0  0
    1.3253   -1.6400    0.0000 N   0  0  0  0  0  0  0  0  0
    1.3253   -2.4650    0.0000 C   0  0  0  0  0  0  0  0  0
    0.6109   -2.8775    0.0000 C   0  0  0  0  0  0  0  0  0
   -0.1036   -2.4650    0.0000 N   0  0  0  0  0  0  0  0  0
   -0.1036   -1.6400    0.0000 C   0  0  0  0  0  0  0  0  0
    0.6109   -1.2275    0.0000 C   0  0  0  0  0  0  0  0  0
   -0.8181   -2.8775    0.0000 C   0  0  0  0  0  0  0  0  0
    0.6109   -3.7025    0.0000 C   0  0  0  0  0  0  0  0  0
    2.0398   -0.4025    0.0000 C   0  0  0  0  0  0  0  0  0
    2.7543    0.0100    0.0000 C   0  0  0  0  0  0  0  0  0
    4.8977    1.2475    0.0000 C   0  0  0  0  0  0  0  0  0
    4.8977    2.0725    0.0000 C   0  0  0  0  0  0  0  0  0
    5.6122    2.4850    0.0000 C   0  0  0  0  0  0  0  0  0
    6.3266    2.0725    0.0000 C   0  0  0  0  0  0  0  0  0
    6.3266    1.2475    0.0000 C   0  0  0  0  0  0  0  0  0
    5.6122    0.8350    0.0000 C   0  0  0  0  0  0  0  0  0
  1  2  4  0  0  0  0
  1 22  4  0  0  0  0
  2  3  4  0  0  0  0
  3  4  1  0  0  0  0
  3  5  4  0  0  0  0
  5  6  1  0  0  0  0
  5 21  4  0  0  0  0
  6  7  1  0  0  0  0
  7  8  4  0  0  0  0
  7 20  4  0  0  0  0
  8  9  4  0  0  0  0
  9 10  4  0  0  0  0
 10 11  1  0  0  0  0
 10 19  4  0  0  0  0
 11 12  1  0  0  0  0
 11 16  1  0  0  0  0
 12 13  1  0  0  0  0
 13 14  1  0  0  0  0
 13 18  1  0  0  0  0
 14 15  1  0  0  0  0
 14 17  1  0  0  0  0
 15 16  1  0  0  0  0
 19 20  4  0  0  0  0
 21 22  4  0  0  0  0
 21 26  4  0  0  0  0
 22 23  4  0  0  0  0
 23 24  4  0  0  0  0
 24 25  4  0  0  0  0
 25 26  4  0  0  0  0
M  STY  1   1 DAT
M  SAL   1  1   1
M  SDT   1 MRV_IMPLICIT_H                                        
M  SDD   1     0.0000    0.0000    DR    ALL  0       0  
M  SED   1 IMPL_H1
M  END
>  <Name_Molregno>
360747

>  <Alpha-2A>
5.85

>  <Alpha-2B>
5.46

>  <Alpha-2C>
8.07

$$$$
360748
  Marvin  02231216192D 0   1.00000     0.00000     0

 29 32  0  0  1  0  0  0  0  0999 V2000
   -4.1713   -2.1272    0.0000 N   0  0  0  0  0  0  0  0  0
   -3.4569   -1.7147    0.0000 C   0  0  0  0  0  0  0  0  0
   -3.4569   -0.8897    0.0000 C   0  0  0  0  0  0  0  0  0
   -2.7424   -0.4772    0.0000 C   0  0  0  0  0  0  0  0  0
   -2.0279   -0.8897    0.0000 C   0  0  0  0  0  0  0  0  0
   -2.0279   -1.7147    0.0000 C   0  0  0  0  0  0  0  0  0
   -1.3134   -2.1272    0.0000 C   0  0  0  0  0  0  0  0  0
   -2.7424   -2.1272    0.0000 C   0  0  0  0  0  0  0  0  0
   -2.7424   -2.9522    0.0000 C   0  0  0  0  0  0  0  0  0
   -4.1713   -0.4772    0.0000 C   0  0  0  0  0  0  0  0  0
   -4.1713    0.3478    0.0000 N   0  0  0  0  0  0  0  0  0
   -3.4569    0.7603    0.0000 C   0  0  0  0  0  0  0  0  0
   -3.4569    1.5853    0.0000 C   0  0  0  0  0  0  0  0  0
   -2.7424    1.9978    0.0000 C   0  0  0  0  0  0  0  0  0
   -2.0279    1.5853    0.0000 C   0  0  0  0  0  0  0  0  0
   -1.3134    1.9978    0.0000 N   0  0  0  0  0  0  0  0  0
   -1.3134    2.8228    0.0000 C   0  0  0  0  0  0  0  0  0
   -0.5990    3.2353    0.0000 C   0  0  0  0  0  0  0  0  0
    0.1155    2.8228    0.0000 N   0  0  0  0  0  0  0  0  0
    0.1155    1.9978    0.0000 C   0  0  0  0  0  0  0  0  0
   -0.5990    1.5853    0.0000 C   0  0  0  0  0  0  0  0  0
    0.8300    3.2353    0.0000 C   0  0  0  0  0  0  0  0  0
   -0.5990    4.0603    0.0000 C   0  0  0  0  0  0  0  0  0
   -2.0279    0.7603    0.0000 C   0  0  0  0  0  0  0  0  0
   -2.7424    0.3478    0.0000 C   0  0  0  0  0  0  0  0  0
   -4.8858   -0.8897    0.0000 C   0  0  0  0  0  0  0  0  0
   -5.6003   -0.4772    0.0000 C   0  0  0  0  0  0  0  0  0
   -4.8858   -1.7147    0.0000 C   0  0  0  0  0  0  0  0  0
   -5.6003   -2.1272    0.0000 C   0  0  0  0  0  0  0  0  0
  1  2  4  0  0  0  0
  1 28  4  0  0  0  0
  2  3  4  0  0  0  0
  2  8  4  0  0  0  0
  3  4  4  0  0  0  0
  3 10  4  0  0  0  0
  4  5  4  0  0  0  0
  5  6  4  0  0  0  0
  6  7  1  0  0  0  0
  6  8  4  0  0  0  0
  8  9  1  0  0  0  0
 10 11  1  0  0  0  0
 10 26  4  0  0  0  0
 11 12  1  0  0  0  0
 12 13  4  0  0  0  0
 12 25  4  0  0  0  0
 13 14  4  0  0  0  0
 14 15  4  0  0  0  0
 15 16  1  0  0  0  0
 15 24  4  0  0  0  0
 16 17  1  0  0  0  0
 16 21  1  0  0  0  0
 17 18  1  0  0  0  0
 18 19  1  0  0  0  0
 18 23  1  0  0  0  0
 19 20  1  0  0  0  0
 19 22  1  0  0  0  0
 20 21  1  0  0  0  0
 24 25  4  0  0  0  0
 26 27  1  0  0  0  0
 26 28  4  0  0  0  0
 28 29  1  0  0  0  0
M  STY  1   1 DAT
M  SAL   1  1   1
M  SDT   1 MRV_IMPLICIT_H                                        
M  SDD   1     0.0000    0.0000    DR    ALL  0       0  
M  SED   1 IMPL_H1
M  END
>  <Name_Molregno>
360748

>  <Alpha-2A>
5.97

>  <Alpha-2B>
6.11

>  <Alpha-2C>
7.83

$$$$
360749
  Marvin  02231216192D 0   1.00000     0.00000     0

 29 32  0  0  1  0  0  0  0  0999 V2000
    3.7702   -2.0909    0.0000 N   0  0  0  0  0  0  0  0  0
    4.4847   -1.6784    0.0000 C   0  0  0  0  0  0  0  0  0
    4.4847   -0.8534    0.0000 C   0  0  0  0  0  0  0  0  0
    3.7702   -0.4409    0.0000 C   0  0  0  0  0  0  0  0  0
    3.7702    0.3841    0.0000 N   0  0  0  0  0  0  0  0  0
    3.0558    0.7966    0.0000 C   0  0  0  0  0  0  0  0  0
    2.3413    0.3841    0.0000 C   0  0  0  0  0  0  0  0  0
    1.6268    0.7966    0.0000 C   0  0  0  0  0  0  0  0  0
    1.6268    1.6216    0.0000 C   0  0  0  0  0  0  0  0  0
    0.9123    2.0341    0.0000 N   0  0  0  0  0  0  0  0  0
    0.1979    1.6216    0.0000 C   0  0  0  0  0  0  0  0  0
   -0.5166    2.0341    0.0000 C   0  0  0  0  0  0  0  0  0
   -0.5166    2.8591    0.0000 N   0  0  0  0  0  0  0  0  0
    0.1979    3.2716    0.0000 C   0  0  0  0  0  0  0  0  0
    0.9123    2.8591    0.0000 C   0  0  0  0  0  0  0  0  0
   -1.2311    3.2716    0.0000 C   0  0  0  0  0  0  0  0  0
   -1.2311    1.6216    0.0000 C   0  0  0  0  0  0  0  0  0
    2.3413    2.0341    0.0000 C   0  0  0  0  0  0  0  0  0
    3.0558    1.6216    0.0000 C   0  0  0  0  0  0  0  0  0
    3.0558   -0.8534    0.0000 C   0  0  0  0  0  0  0  0  0
    2.3413   -0.4409    0.0000 C   0  0  0  0  0  0  0  0  0
    3.0558   -1.6784    0.0000 C   0  0  0  0  0  0  0  0  0
    2.3413   -2.0909    0.0000 C   0  0  0  0  0  0  0  0  0
    5.1992   -0.4409    0.0000 C   0  0  0  0  0  0  0  0  0
    5.9136   -0.8534    0.0000 C   0  0  0  0  0  0  0  0  0
    5.9136   -1.6784    0.0000 C   0  0  0  0  0  0  0  0  0
    5.1992   -2.0909    0.0000 C   0  0  0  0  0  0  0  0  0
    5.1992   -2.9159    0.0000 C   0  0  0  0  0  0  0  0  0
    5.1992    0.3841    0.0000 C   0  0  0  0  0  0  0  0  0
  1  2  4  0  0  0  0
  1 22  4  0  0  0  0
  2  3  4  0  0  0  0
  2 27  4  0  0  0  0
  3  4  4  0  0  0  0
  3 24  4  0  0  0  0
  4  5  1  0  0  0  0
  4 20  4  0  0  0  0
  5  6  1  0  0  0  0
  6  7  4  0  0  0  0
  6 19  4  0  0  0  0
  7  8  4  0  0  0  0
  8  9  4  0  0  0  0
  9 10  1  0  0  0  0
  9 18  4  0  0  0  0
 10 11  1  0  0  0  0
 10 15  1  0  0  0  0
 11 12  1  0  0  0  0
 12 13  1  0  0  0  0
 12 17  1  0  0  0  0
 13 14  1  0  0  0  0
 13 16  1  0  0  0  0
 14 15  1  0  0  0  0
 18 19  4  0  0  0  0
 20 21  1  0  0  0  0
 20 22  4  0  0  0  0
 22 23  1  0  0  0  0
 24 25  4  0  0  0  0
 24 29  1  0  0  0  0
 25 26  4  0  0  0  0
 26 27  4  0  0  0  0
 27 28  1  0  0  0  0
M  STY  1   1 DAT
M  SAL   1  1   1
M  SDT   1 MRV_IMPLICIT_H                                        
M  SDD   1     0.0000    0.0000    DR    ALL  0       0  
M  SED   1 IMPL_H1
M  END
>  <Name_Molregno>
360749

>  <Alpha-2A>
5.64

>  <Alpha-2B>
5.44

>  <Alpha-2C>
6.41

$$$$
360750
  Marvin  02231216192D 0   1.00000     0.00000     0

 29 32  0  0  1  0  0  0  0  0999 V2000
    0.5764    2.6550    0.0000 Cl  0  0  0  0  0  0  0  0  0
    1.2909    2.2425    0.0000 C   0  0  0  0  0  0  0  0  0
    1.2909    1.4175    0.0000 C   0  0  0  0  0  0  0  0  0
    2.0053    1.0050    0.0000 C   0  0  0  0  0  0  0  0  0
    2.7198    1.4175    0.0000 C   0  0  0  0  0  0  0  0  0
    2.7198    2.2425    0.0000 C   0  0  0  0  0  0  0  0  0
    3.4343    2.6550    0.0000 N   0  0  0  0  0  0  0  0  0
    4.1487    2.2425    0.0000 C   0  0  0  0  0  0  0  0  0
    4.8632    2.6550    0.0000 C   0  0  0  0  0  0  0  0  0
    4.1487    1.4175    0.0000 C   0  0  0  0  0  0  0  0  0
    4.8632    1.0050    0.0000 C   0  0  0  0  0  0  0  0  0
    3.4343    1.0050    0.0000 C   0  0  0  0  0  0  0  0  0
    3.4343    0.1800    0.0000 N   0  0  0  0  0  0  0  0  0
    4.1487   -0.2325    0.0000 C   0  0  0  0  0  0  0  0  0
    4.8632    0.1800    0.0000 C   0  0  0  0  0  0  0  0  0
    5.5777   -0.2325    0.0000 C   0  0  0  0  0  0  0  0  0
    5.5777   -1.0575    0.0000 C   0  0  0  0  0  0  0  0  0
    6.2921   -1.4700    0.0000 N   0  0  0  0  0  0  0  0  0
    7.0066   -1.0575    0.0000 C   0  0  0  0  0  0  0  0  0
    7.7211   -1.4700    0.0000 C   0  0  0  0  0  0  0  0  0
    7.7211   -2.2950    0.0000 N   0  0  0  0  0  0  0  0  0
    7.0066   -2.7075    0.0000 C   0  0  0  0  0  0  0  0  0
    6.2921   -2.2950    0.0000 C   0  0  0  0  0  0  0  0  0
    8.4356   -2.7075    0.0000 C   0  0  0  0  0  0  0  0  0
    8.4356   -1.0575    0.0000 C   0  0  0  0  0  0  0  0  0
    4.8632   -1.4700    0.0000 C   0  0  0  0  0  0  0  0  0
    4.1487   -1.0575    0.0000 C   0  0  0  0  0  0  0  0  0
    2.0053    2.6550    0.0000 C   0  0  0  0  0  0  0  0  0
    2.0053    0.1800    0.0000 C   0  0  0  0  0  0  0  0  0
  1  2  1  0  0  0  0
  2  3  4  0  0  0  0
  2 28  4  0  0  0  0
  3  4  4  0  0  0  0
  4  5  4  0  0  0  0
  4 29  1  0  0  0  0
  5  6  4  0  0  0  0
  5 12  4  0  0  0  0
  6  7  4  0  0  0  0
  6 28  4  0  0  0  0
  7  8  4  0  0  0  0
  8  9  1  0  0  0  0
  8 10  4  0  0  0  0
 10 11  1  0  0  0  0
 10 12  4  0  0  0  0
 12 13  1  0  0  0  0
 13 14  1  0  0  0  0
 14 15  4  0  0  0  0
 14 27  4  0  0  0  0
 15 16  4  0  0  0  0
 16 17  4  0  0  0  0
 17 18  1  0  0  0  0
 17 26  4  0  0  0  0
 18 19  1  0  0  0  0
 18 23  1  0  0  0  0
 19 20  1  0  0  0  0
 20 21  1  0  0  0  0
 20 25  1  0  0  0  0
 21 22  1  0  0  0  0
 21 24  1  0  0  0  0
 22 23  1  0  0  0  0
 26 27  4  0  0  0  0
M  STY  1   1 DAT
M  SAL   1  1   7
M  SDT   1 MRV_IMPLICIT_H                                        
M  SDD   1     0.0000    0.0000    DR    ALL  0       0  
M  SED   1 IMPL_H1
M  END
>  <Name_Molregno>
360750

>  <Alpha-2A>
5.84

>  <Alpha-2B>
6.06

>  <Alpha-2C>
8.08

$$$$
360751
  Marvin  02231216192D 0   1.00000     0.00000     0

 29 32  0  0  1  0  0  0  0  0999 V2000
    0.8157    0.4922    0.0000 O   0  0  0  0  0  0  0  0  0
    0.8157   -0.3328    0.0000 C   0  0  0  0  0  0  0  0  0
    0.1013   -0.7453    0.0000 C   0  0  0  0  0  0  0  0  0
    1.5302   -0.7453    0.0000 C   0  0  0  0  0  0  0  0  0
    1.5302   -1.5703    0.0000 C   0  0  0  0  0  0  0  0  0
    2.2447   -1.9828    0.0000 N   0  0  0  0  0  0  0  0  0
    2.9591   -1.5703    0.0000 C   0  0  0  0  0  0  0  0  0
    2.9591   -0.7453    0.0000 C   0  0  0  0  0  0  0  0  0
    3.6736   -0.3328    0.0000 C   0  0  0  0  0  0  0  0  0
    4.3881   -0.7453    0.0000 C   0  0  0  0  0  0  0  0  0
    4.3881   -1.5703    0.0000 C   0  0  0  0  0  0  0  0  0
    3.6736   -1.9828    0.0000 C   0  0  0  0  0  0  0  0  0
    2.2447   -0.3328    0.0000 C   0  0  0  0  0  0  0  0  0
    2.2447    0.4922    0.0000 N   0  0  0  0  0  0  0  0  0
    2.9591    0.9047    0.0000 C   0  0  0  0  0  0  0  0  0
    2.9591    1.7297    0.0000 C   0  0  0  0  0  0  0  0  0
    3.6736    2.1422    0.0000 C   0  0  0  0  0  0  0  0  0
    4.3881    1.7297    0.0000 C   0  0  0  0  0  0  0  0  0
    5.1026    2.1422    0.0000 N   0  0  0  0  0  0  0  0  0
    5.1026    2.9672    0.0000 C   0  0  0  0  0  0  0  0  0
    5.8170    3.3797    0.0000 C   0  0  0  0  0  0  0  0  0
    6.5315    2.9672    0.0000 N   0  0  0  0  0  0  0  0  0
    6.5315    2.1422    0.0000 C   0  0  0  0  0  0  0  0  0
    5.8170    1.7297    0.0000 C   0  0  0  0  0  0  0  0  0
    7.2460    3.3797    0.0000 C   0  0  0  0  0  0  0  0  0
    5.8170    4.2047    0.0000 C   0  0  0  0  0  0  0  0  0
    4.3881    0.9047    0.0000 C   0  0  0  0  0  0  0  0  0
    3.6736    0.4922    0.0000 C   0  0  0  0  0  0  0  0  0
    0.8157   -1.9828    0.0000 C   0  0  0  0  0  0  0  0  0
  1  2  1  0  0  0  0
  2  3  1  0  0  0  0
  2  4  1  0  0  0  0
  4  5  4  0  0  0  0
  4 13  4  0  0  0  0
  5  6  4  0  0  0  0
  5 29  1  0  0  0  0
  6  7  4  0  0  0  0
  7  8  4  0  0  0  0
  7 12  4  0  0  0  0
  8  9  4  0  0  0  0
  8 13  4  0  0  0  0
  9 10  4  0  0  0  0
 10 11  4  0  0  0  0
 11 12  4  0  0  0  0
 13 14  1  0  0  0  0
 14 15  1  0  0  0  0
 15 16  4  0  0  0  0
 15 28  4  0  0  0  0
 16 17  4  0  0  0  0
 17 18  4  0  0  0  0
 18 19  1  0  0  0  0
 18 27  4  0  0  0  0
 19 20  1  0  0  0  0
 19 24  1  0  0  0  0
 20 21  1  0  0  0  0
 21 22  1  0  0  0  0
 21 26  1  0  0  0  0
 22 23  1  0  0  0  0
 22 25  1  0  0  0  0
 23 24  1  0  0  0  0
 27 28  4  0  0  0  0
M  STY  1   1 DAT
M  SAL   1  1   6
M  SDT   1 MRV_IMPLICIT_H                                        
M  SDD   1     0.0000    0.0000    DR    ALL  0       0  
M  SED   1 IMPL_H1
M  END
>  <Name_Molregno>
360751

>  <Alpha-2A>
5.51

>  <Alpha-2B>
5.29

>  <Alpha-2C>
8.31

$$$$
360752
  Marvin  02231216192D 0   1.00000     0.00000     0

 28 31  0  0  1  0  0  0  0  0999 V2000
   -1.4353   -6.2222    0.0000 O   0  0  0  0  0  0  0  0  0
   -1.4353   -5.3972    0.0000 C   0  0  0  0  0  0  0  0  0
   -0.7208   -4.9847    0.0000 C   0  0  0  0  0  0  0  0  0
   -0.0064   -5.3972    0.0000 N   0  0  0  0  0  0  0  0  0
    0.7081   -4.9847    0.0000 C   0  0  0  0  0  0  0  0  0
    0.7081   -4.1597    0.0000 C   0  0  0  0  0  0  0  0  0
    1.4226   -3.7472    0.0000 C   0  0  0  0  0  0  0  0  0
    2.1370   -4.1597    0.0000 C   0  0  0  0  0  0  0  0  0
    2.1370   -4.9847    0.0000 C   0  0  0  0  0  0  0  0  0
    1.4226   -5.3972    0.0000 C   0  0  0  0  0  0  0  0  0
   -0.0064   -3.7472    0.0000 C   0  0  0  0  0  0  0  0  0
   -0.0064   -2.9222    0.0000 N   0  0  0  0  0  0  0  0  0
    0.7081   -2.5097    0.0000 C   0  0  0  0  0  0  0  0  0
    0.7081   -1.6847    0.0000 C   0  0  0  0  0  0  0  0  0
    1.4226   -1.2722    0.0000 C   0  0  0  0  0  0  0  0  0
    2.1370   -1.6847    0.0000 C   0  0  0  0  0  0  0  0  0
    2.8515   -1.2722    0.0000 N   0  0  0  0  0  0  0  0  0
    2.8515   -0.4472    0.0000 C   0  0  0  0  0  0  0  0  0
    3.5660   -0.0347    0.0000 C   0  0  0  0  0  0  0  0  0
    4.2804   -0.4472    0.0000 N   0  0  0  0  0  0  0  0  0
    4.2804   -1.2722    0.0000 C   0  0  0  0  0  0  0  0  0
    3.5660   -1.6847    0.0000 C   0  0  0  0  0  0  0  0  0
    4.9949   -0.0347    0.0000 C   0  0  0  0  0  0  0  0  0
    3.5660    0.7903    0.0000 C   0  0  0  0  0  0  0  0  0
    2.1370   -2.5097    0.0000 C   0  0  0  0  0  0  0  0  0
    1.4226   -2.9222    0.0000 C   0  0  0  0  0  0  0  0  0
   -0.7208   -4.1597    0.0000 C   0  0  0  0  0  0  0  0  0
   -1.4353   -3.7472    0.0000 C   0  0  0  0  0  0  0  0  0
  1  2  1  0  0  0  0
  2  3  1  0  0  0  0
  3  4  4  0  0  0  0
  3 27  4  0  0  0  0
  4  5  4  0  0  0  0
  5  6  4  0  0  0  0
  5 10  4  0  0  0  0
  6  7  4  0  0  0  0
  6 11  4  0  0  0  0
  7  8  4  0  0  0  0
  8  9  4  0  0  0  0
  9 10  4  0  0  0  0
 11 12  1  0  0  0  0
 11 27  4  0  0  0  0
 12 13  1  0  0  0  0
 13 14  4  0  0  0  0
 13 26  4  0  0  0  0
 14 15  4  0  0  0  0
 15 16  4  0  0  0  0
 16 17  1  0  0  0  0
 16 25  4  0  0  0  0
 17 18  1  0  0  0  0
 17 22  1  0  0  0  0
 18 19  1  0  0  0  0
 19 20  1  0  0  0  0
 19 24  1  0  0  0  0
 20 21  1  0  0  0  0
 20 23  1  0  0  0  0
 21 22  1  0  0  0  0
 25 26  4  0  0  0  0
 27 28  1  0  0  0  0
M  STY  1   1 DAT
M  SAL   1  1   4
M  SDT   1 MRV_IMPLICIT_H                                        
M  SDD   1     0.0000    0.0000    DR    ALL  0       0  
M  SED   1 IMPL_H1
M  END
>  <Name_Molregno>
360752

>  <Alpha-2A>
5.73

>  <Alpha-2B>
5.74

>  <Alpha-2C>
8.05

$$$$
360774
  Marvin  02231216192D 0   1.00000     0.00000     0

 31 35  0  0  0  0  0  0  0  0999 V2000
    1.5918   -2.0008    0.0000 N   0  0  0  0  0  0  0  0  0
    2.3062   -1.5883    0.0000 C   0  0  0  0  0  0  0  0  0
    2.3062   -0.7633    0.0000 C   0  0  0  0  0  0  0  0  0
    3.0207   -0.3508    0.0000 C   0  0  0  0  0  0  0  0  0
    3.7352   -0.7633    0.0000 C   0  0  0  0  0  0  0  0  0
    3.7352   -1.5883    0.0000 C   0  0  0  0  0  0  0  0  0
    3.0207   -2.0008    0.0000 C   0  0  0  0  0  0  0  0  0
    1.5918   -0.3508    0.0000 C   0  0  0  0  0  0  0  0  0
    1.5918    0.4742    0.0000 N   0  0  0  0  0  0  0  0  0
    2.3062    0.8867    0.0000 C   0  0  0  0  0  0  0  0  0
    2.3062    1.7117    0.0000 C   0  0  0  0  0  0  0  0  0
    3.0207    2.1242    0.0000 C   0  0  0  0  0  0  0  0  0
    3.7352    1.7117    0.0000 C   0  0  0  0  0  0  0  0  0
    4.4496    2.1242    0.0000 N   0  0  0  0  0  0  0  0  0
    4.4496    2.9492    0.0000 C   0  0  0  0  0  0  0  0  0
    5.1641    3.3617    0.0000 C   0  0  0  0  0  0  0  0  0
    5.8786    2.9492    0.0000 N   0  0  0  0  0  0  0  0  0
    5.8786    2.1242    0.0000 C   0  0  0  0  0  0  0  0  0
    5.1641    1.7117    0.0000 C   0  0  0  0  0  0  0  0  0
    6.5931    3.3617    0.0000 C   0  0  0  0  0  0  0  0  0
    3.7352    0.8867    0.0000 C   0  0  0  0  0  0  0  0  0
    3.0207    0.4742    0.0000 C   0  0  0  0  0  0  0  0  0
    0.8773   -0.7633    0.0000 C   0  0  0  0  0  0  0  0  0
    0.1628   -0.3508    0.0000 C   0  0  0  0  0  0  0  0  0
   -0.5517   -0.7633    0.0000 C   0  0  0  0  0  0  0  0  0
   -1.2661   -0.3508    0.0000 C   0  0  0  0  0  0  0  0  0
   -1.2661    0.4742    0.0000 C   0  0  0  0  0  0  0  0  0
   -0.5517    0.8867    0.0000 C   0  0  0  0  0  0  0  0  0
    0.1628    0.4742    0.0000 C   0  0  0  0  0  0  0  0  0
    0.8773   -1.5883    0.0000 C   0  0  0  0  0  0  0  0  0
    0.1628   -2.0008    0.0000 C   0  0  0  0  0  0  0  0  0
  1  2  4  0  0  0  0
  1 30  4  0  0  0  0
  2  3  4  0  0  0  0
  2  7  4  0  0  0  0
  3  4  4  0  0  0  0
  3  8  4  0  0  0  0
  4  5  4  0  0  0  0
  5  6  4  0  0  0  0
  6  7  4  0  0  0  0
  8  9  1  0  0  0  0
  8 23  4  0  0  0  0
  9 10  1  0  0  0  0
 10 11  4  0  0  0  0
 10 22  4  0  0  0  0
 11 12  4  0  0  0  0
 12 13  4  0  0  0  0
 13 14  1  0  0  0  0
 13 21  4  0  0  0  0
 14 15  1  0  0  0  0
 14 19  1  0  0  0  0
 15 16  1  0  0  0  0
 16 17  1  0  0  0  0
 17 18  1  0  0  0  0
 17 20  1  0  0  0  0
 18 19  1  0  0  0  0
 21 22  4  0  0  0  0
 23 24  1  0  0  0  0
 23 30  4  0  0  0  0
 24 25  4  0  0  0  0
 24 29  4  0  0  0  0
 25 26  4  0  0  0  0
 26 27  4  0  0  0  0
 27 28  4  0  0  0  0
 28 29  4  0  0  0  0
 30 31  1  0  0  0  0
M  STY  1   1 DAT
M  SAL   1  1   1
M  SDT   1 MRV_IMPLICIT_H                                        
M  SDD   1     0.0000    0.0000    DR    ALL  0       0  
M  SED   1 IMPL_H1
M  END
>  <Name_Molregno>
360774

>  <Alpha-2A>
5.77

>  <Alpha-2B>
5

>  <Alpha-2C>
7.46

$$$$
360776
  Marvin  02231216192D 0   1.00000     0.00000     0

 28 31  0  0  1  0  0  0  0  0999 V2000
   -4.9130   -1.0998    0.0000 Cl  0  0  0  0  0  0  0  0  0
   -4.9130   -0.2748    0.0000 C   0  0  0  0  0  0  0  0  0
   -4.1986    0.1377    0.0000 C   0  0  0  0  0  0  0  0  0
   -4.1986    0.9627    0.0000 C   0  0  0  0  0  0  0  0  0
   -3.4841    1.3752    0.0000 N   0  0  0  0  0  0  0  0  0
   -2.7696    0.9627    0.0000 C   0  0  0  0  0  0  0  0  0
   -2.0552    1.3752    0.0000 C   0  0  0  0  0  0  0  0  0
   -2.7696    0.1377    0.0000 C   0  0  0  0  0  0  0  0  0
   -2.0552   -0.2748    0.0000 C   0  0  0  0  0  0  0  0  0
   -3.4841   -0.2748    0.0000 C   0  0  0  0  0  0  0  0  0
   -3.4841   -1.0998    0.0000 N   0  0  0  0  0  0  0  0  0
   -2.7696   -1.5123    0.0000 C   0  0  0  0  0  0  0  0  0
   -2.0552   -1.0998    0.0000 C   0  0  0  0  0  0  0  0  0
   -1.3407   -1.5123    0.0000 C   0  0  0  0  0  0  0  0  0
   -1.3407   -2.3373    0.0000 C   0  0  0  0  0  0  0  0  0
   -0.6262   -2.7498    0.0000 N   0  0  0  0  0  0  0  0  0
    0.0882   -2.3373    0.0000 C   0  0  0  0  0  0  0  0  0
    0.8027   -2.7498    0.0000 C   0  0  0  0  0  0  0  0  0
    0.8027   -3.5748    0.0000 N   0  0  0  0  0  0  0  0  0
    0.0882   -3.9873    0.0000 C   0  0  0  0  0  0  0  0  0
   -0.6262   -3.5748    0.0000 C   0  0  0  0  0  0  0  0  0
    1.5172   -3.9873    0.0000 C   0  0  0  0  0  0  0  0  0
    1.5172   -2.3373    0.0000 C   0  0  0  0  0  0  0  0  0
   -2.0552   -2.7498    0.0000 C   0  0  0  0  0  0  0  0  0
   -2.7696   -2.3373    0.0000 C   0  0  0  0  0  0  0  0  0
   -4.9130    1.3752    0.0000 C   0  0  0  0  0  0  0  0  0
   -5.6275    0.9627    0.0000 C   0  0  0  0  0  0  0  0  0
   -5.6275    0.1377    0.0000 C   0  0  0  0  0  0  0  0  0
  1  2  1  0  0  0  0
  2  3  4  0  0  0  0
  2 28  4  0  0  0  0
  3  4  4  0  0  0  0
  3 10  4  0  0  0  0
  4  5  4  0  0  0  0
  4 26  4  0  0  0  0
  5  6  4  0  0  0  0
  6  7  1  0  0  0  0
  6  8  4  0  0  0  0
  8  9  1  0  0  0  0
  8 10  4  0  0  0  0
 10 11  1  0  0  0  0
 11 12  1  0  0  0  0
 12 13  4  0  0  0  0
 12 25  4  0  0  0  0
 13 14  4  0  0  0  0
 14 15  4  0  0  0  0
 15 16  1  0  0  0  0
 15 24  4  0  0  0  0
 16 17  1  0  0  0  0
 16 21  1  0  0  0  0
 17 18  1  0  0  0  0
 18 19  1  0  0  0  0
 18 23  1  0  0  0  0
 19 20  1  0  0  0  0
 19 22  1  0  0  0  0
 20 21  1  0  0  0  0
 24 25  4  0  0  0  0
 26 27  4  0  0  0  0
 27 28  4  0  0  0  0
M  STY  1   1 DAT
M  SAL   1  1   5
M  SDT   1 MRV_IMPLICIT_H                                        
M  SDD   1     0.0000    0.0000    DR    ALL  0       0  
M  SED   1 IMPL_H1
M  END
>  <Name_Molregno>
360776

>  <Alpha-2A>
6.11

>  <Alpha-2B>
5.95

>  <Alpha-2C>
6.87

$$$$
360777
  Marvin  02231216192D 0   1.00000     0.00000     0

 28 31  0  0  0  0  0  0  0  0999 V2000
   -2.1579   -1.7692    0.0000 O   0  0  0  0  0  0  0  0  0
   -2.1579   -2.5942    0.0000 C   0  0  0  0  0  0  0  0  0
   -1.4434   -3.0067    0.0000 C   0  0  0  0  0  0  0  0  0
   -1.4434   -3.8317    0.0000 C   0  0  0  0  0  0  0  0  0
   -0.7290   -4.2442    0.0000 N   0  0  0  0  0  0  0  0  0
   -0.0145   -3.8317    0.0000 C   0  0  0  0  0  0  0  0  0
   -0.0145   -3.0067    0.0000 C   0  0  0  0  0  0  0  0  0
    0.7000   -2.5942    0.0000 C   0  0  0  0  0  0  0  0  0
    1.4144   -3.0067    0.0000 C   0  0  0  0  0  0  0  0  0
    1.4144   -3.8317    0.0000 C   0  0  0  0  0  0  0  0  0
    0.7000   -4.2442    0.0000 C   0  0  0  0  0  0  0  0  0
   -0.7290   -2.5942    0.0000 C   0  0  0  0  0  0  0  0  0
   -0.7290   -1.7692    0.0000 N   0  0  0  0  0  0  0  0  0
   -0.0145   -1.3567    0.0000 C   0  0  0  0  0  0  0  0  0
   -0.0145   -0.5317    0.0000 C   0  0  0  0  0  0  0  0  0
    0.7000   -0.1192    0.0000 C   0  0  0  0  0  0  0  0  0
    1.4144   -0.5317    0.0000 C   0  0  0  0  0  0  0  0  0
    2.1289   -0.1192    0.0000 N   0  0  0  0  0  0  0  0  0
    2.1289    0.7058    0.0000 C   0  0  0  0  0  0  0  0  0
    2.8434    1.1183    0.0000 C   0  0  0  0  0  0  0  0  0
    3.5578    0.7058    0.0000 N   0  0  0  0  0  0  0  0  0
    3.5578   -0.1192    0.0000 C   0  0  0  0  0  0  0  0  0
    2.8434   -0.5317    0.0000 C   0  0  0  0  0  0  0  0  0
    4.2723    1.1183    0.0000 C   0  0  0  0  0  0  0  0  0
    2.4561    1.8468    0.0000 C   0  0  0  0  0  0  0  0  0
    3.2307    1.8468    0.0000 C   0  0  0  0  0  0  0  0  0
    1.4144   -1.3567    0.0000 C   0  0  0  0  0  0  0  0  0
    0.7000   -1.7692    0.0000 C   0  0  0  0  0  0  0  0  0
  1  2  1  0  0  0  0
  2  3  1  0  0  0  0
  3  4  4  0  0  0  0
  3 12  4  0  0  0  0
  4  5  4  0  0  0  0
  5  6  4  0  0  0  0
  6  7  4  0  0  0  0
  6 11  4  0  0  0  0
  7  8  4  0  0  0  0
  7 12  4  0  0  0  0
  8  9  4  0  0  0  0
  9 10  4  0  0  0  0
 10 11  4  0  0  0  0
 12 13  1  0  0  0  0
 13 14  1  0  0  0  0
 14 15  4  0  0  0  0
 14 28  4  0  0  0  0
 15 16  4  0  0  0  0
 16 17  4  0  0  0  0
 17 18  1  0  0  0  0
 17 27  4  0  0  0  0
 18 19  1  0  0  0  0
 18 23  1  0  0  0  0
 19 20  1  0  0  0  0
 20 21  1  0  0  0  0
 20 25  1  0  0  0  0
 20 26  1  0  0  0  0
 21 22  1  0  0  0  0
 21 24  1  0  0  0  0
 22 23  1  0  0  0  0
 27 28  4  0  0  0  0
M  STY  1   1 DAT
M  SAL   1  1   5
M  SDT   1 MRV_IMPLICIT_H                                        
M  SDD   1     0.0000    0.0000    DR    ALL  0       0  
M  SED   1 IMPL_H1
M  END
>  <Name_Molregno>
360777

>  <Alpha-2A>
5.73

>  <Alpha-2B>
5.72

>  <Alpha-2C>
8.19

$$$$
360791
  Marvin  02231216192D 0   1.00000     0.00000     0

 28 31  0  0  1  0  0  0  0  0999 V2000
    2.5895   -0.2092    0.0000 F   0  0  0  0  0  0  0  0  0
    3.3040    0.2033    0.0000 C   0  0  0  0  0  0  0  0  0
    4.0185   -0.2092    0.0000 C   0  0  0  0  0  0  0  0  0
    4.7329    0.2033    0.0000 C   0  0  0  0  0  0  0  0  0
    4.7329    1.0283    0.0000 C   0  0  0  0  0  0  0  0  0
    5.4474    1.4408    0.0000 N   0  0  0  0  0  0  0  0  0
    6.1619    1.0283    0.0000 C   0  0  0  0  0  0  0  0  0
    6.8763    1.4408    0.0000 C   0  0  0  0  0  0  0  0  0
    6.1619    0.2033    0.0000 C   0  0  0  0  0  0  0  0  0
    6.8763   -0.2092    0.0000 C   0  0  0  0  0  0  0  0  0
    5.4474   -0.2092    0.0000 C   0  0  0  0  0  0  0  0  0
    5.4474   -1.0342    0.0000 N   0  0  0  0  0  0  0  0  0
    4.7329   -1.4467    0.0000 C   0  0  0  0  0  0  0  0  0
    4.7329   -2.2717    0.0000 C   0  0  0  0  0  0  0  0  0
    4.0185   -2.6842    0.0000 C   0  0  0  0  0  0  0  0  0
    3.3040   -2.2717    0.0000 C   0  0  0  0  0  0  0  0  0
    2.5895   -2.6842    0.0000 N   0  0  0  0  0  0  0  0  0
    2.5895   -3.5092    0.0000 C   0  0  0  0  0  0  0  0  0
    1.8750   -3.9217    0.0000 C   0  0  0  0  0  0  0  0  0
    1.1606   -3.5092    0.0000 N   0  0  0  0  0  0  0  0  0
    1.1606   -2.6842    0.0000 C   0  0  0  0  0  0  0  0  0
    1.8750   -2.2717    0.0000 C   0  0  0  0  0  0  0  0  0
    0.4461   -3.9217    0.0000 C   0  0  0  0  0  0  0  0  0
    1.8750   -4.7467    0.0000 C   0  0  0  0  0  0  0  0  0
    3.3040   -1.4467    0.0000 C   0  0  0  0  0  0  0  0  0
    4.0185   -1.0342    0.0000 C   0  0  0  0  0  0  0  0  0
    4.0185    1.4408    0.0000 C   0  0  0  0  0  0  0  0  0
    3.3040    1.0283    0.0000 C   0  0  0  0  0  0  0  0  0
  1  2  1  0  0  0  0
  2  3  4  0  0  0  0
  2 28  4  0  0  0  0
  3  4  4  0  0  0  0
  4  5  4  0  0  0  0
  4 11  4  0  0  0  0
  5  6  4  0  0  0  0
  5 27  4  0  0  0  0
  6  7  4  0  0  0  0
  7  8  1  0  0  0  0
  7  9  4  0  0  0  0
  9 10  1  0  0  0  0
  9 11  4  0  0  0  0
 11 12  1  0  0  0  0
 12 13  1  0  0  0  0
 13 14  4  0  0  0  0
 13 26  4  0  0  0  0
 14 15  4  0  0  0  0
 15 16  4  0  0  0  0
 16 17  1  0  0  0  0
 16 25  4  0  0  0  0
 17 18  1  0  0  0  0
 17 22  1  0  0  0  0
 18 19  1  0  0  0  0
 19 20  1  0  0  0  0
 19 24  1  0  0  0  0
 20 21  1  0  0  0  0
 20 23  1  0  0  0  0
 21 22  1  0  0  0  0
 25 26  4  0  0  0  0
 27 28  4  0  0  0  0
M  STY  1   1 DAT
M  SAL   1  1   6
M  SDT   1 MRV_IMPLICIT_H                                        
M  SDD   1     0.0000    0.0000    DR    ALL  0       0  
M  SED   1 IMPL_H1
M  END
>  <Name_Molregno>
360791

>  <Alpha-2A>
5.91

>  <Alpha-2B>
5.46

>  <Alpha-2C>
7.8

$$$$
360792
  Marvin  02231216192D 0   1.00000     0.00000     0

 27 30  0  0  1  0  0  0  0  0999 V2000
   -2.2286   -1.6643    0.0000 O   0  0  0  0  0  0  0  0  0
   -2.2286   -2.4893    0.0000 C   0  0  0  0  0  0  0  0  0
   -1.5141   -2.9018    0.0000 C   0  0  0  0  0  0  0  0  0
   -1.5141   -3.7268    0.0000 C   0  0  0  0  0  0  0  0  0
   -0.7996   -4.1393    0.0000 N   0  0  0  0  0  0  0  0  0
   -0.0852   -3.7268    0.0000 C   0  0  0  0  0  0  0  0  0
   -0.0852   -2.9018    0.0000 C   0  0  0  0  0  0  0  0  0
    0.6293   -2.4893    0.0000 C   0  0  0  0  0  0  0  0  0
    1.3438   -2.9018    0.0000 C   0  0  0  0  0  0  0  0  0
    1.3438   -3.7268    0.0000 C   0  0  0  0  0  0  0  0  0
    0.6293   -4.1393    0.0000 C   0  0  0  0  0  0  0  0  0
   -0.7996   -2.4893    0.0000 C   0  0  0  0  0  0  0  0  0
   -0.7996   -1.6643    0.0000 N   0  0  0  0  0  0  0  0  0
   -0.0852   -1.2518    0.0000 C   0  0  0  0  0  0  0  0  0
   -0.0852   -0.4268    0.0000 C   0  0  0  0  0  0  0  0  0
    0.6293   -0.0143    0.0000 C   0  0  0  0  0  0  0  0  0
    1.3438   -0.4268    0.0000 C   0  0  0  0  0  0  0  0  0
    2.0582   -0.0143    0.0000 N   0  0  0  0  0  0  0  0  0
    2.0582    0.8107    0.0000 C   0  0  0  0  0  0  0  0  0
    2.7727    1.2232    0.0000 C   0  0  0  0  0  0  0  0  0
    3.4872    0.8107    0.0000 N   0  0  0  0  0  0  0  0  0
    3.4872   -0.0143    0.0000 C   0  0  0  0  0  0  0  0  0
    2.7727   -0.4268    0.0000 C   0  0  0  0  0  0  0  0  0
    4.2017    1.2232    0.0000 C   0  0  0  0  0  0  0  0  0
    2.7727    2.0482    0.0000 C   0  0  0  0  0  0  0  0  0
    1.3438   -1.2518    0.0000 C   0  0  0  0  0  0  0  0  0
    0.6293   -1.6643    0.0000 C   0  0  0  0  0  0  0  0  0
  1  2  1  0  0  0  0
  2  3  1  0  0  0  0
  3  4  4  0  0  0  0
  3 12  4  0  0  0  0
  4  5  4  0  0  0  0
  5  6  4  0  0  0  0
  6  7  4  0  0  0  0
  6 11  4  0  0  0  0
  7  8  4  0  0  0  0
  7 12  4  0  0  0  0
  8  9  4  0  0  0  0
  9 10  4  0  0  0  0
 10 11  4  0  0  0  0
 12 13  1  0  0  0  0
 13 14  1  0  0  0  0
 14 15  4  0  0  0  0
 14 27  4  0  0  0  0
 15 16  4  0  0  0  0
 16 17  4  0  0  0  0
 17 18  1  0  0  0  0
 17 26  4  0  0  0  0
 18 19  1  0  0  0  0
 18 23  1  0  0  0  0
 19 20  1  0  0  0  0
 20 21  1  0  0  0  0
 20 25  1  0  0  0  0
 21 22  1  0  0  0  0
 21 24  1  0  0  0  0
 22 23  1  0  0  0  0
 26 27  4  0  0  0  0
M  STY  1   1 DAT
M  SAL   1  1   5
M  SDT   1 MRV_IMPLICIT_H                                        
M  SDD   1     0.0000    0.0000    DR    ALL  0       0  
M  SED   1 IMPL_H1
M  END
>  <Name_Molregno>
360792

>  <Alpha-2A>
5.66

>  <Alpha-2B>
5.59

>  <Alpha-2C>
8.04

$$$$
360805
  Marvin  02231216192D 0   1.00000     0.00000     0

 32 36  0  0  0  0  0  0  0  0999 V2000
    1.2124   -2.1550    0.0000 N   0  0  0  0  0  0  0  0  0
    1.9268   -1.7425    0.0000 C   0  0  0  0  0  0  0  0  0
    1.9268   -0.9175    0.0000 C   0  0  0  0  0  0  0  0  0
    2.6413   -0.5050    0.0000 C   0  0  0  0  0  0  0  0  0
    3.3558   -0.9175    0.0000 C   0  0  0  0  0  0  0  0  0
    3.3558   -1.7425    0.0000 C   0  0  0  0  0  0  0  0  0
    2.6413   -2.1550    0.0000 C   0  0  0  0  0  0  0  0  0
    1.2124   -0.5050    0.0000 C   0  0  0  0  0  0  0  0  0
    1.2124    0.3200    0.0000 N   0  0  0  0  0  0  0  0  0
    1.9268    0.7325    0.0000 C   0  0  0  0  0  0  0  0  0
    1.9268    1.5575    0.0000 C   0  0  0  0  0  0  0  0  0
    2.6413    1.9700    0.0000 C   0  0  0  0  0  0  0  0  0
    3.3558    1.5575    0.0000 C   0  0  0  0  0  0  0  0  0
    4.0702    1.9700    0.0000 N   0  0  0  0  0  0  0  0  0
    4.0702    2.7950    0.0000 C   0  0  0  0  0  0  0  0  0
    4.7847    3.2075    0.0000 C   0  0  0  0  0  0  0  0  0
    5.4992    2.7950    0.0000 N   0  0  0  0  0  0  0  0  0
    5.4992    1.9700    0.0000 C   0  0  0  0  0  0  0  0  0
    4.7847    1.5575    0.0000 C   0  0  0  0  0  0  0  0  0
    6.2136    3.2075    0.0000 C   0  0  0  0  0  0  0  0  0
    3.3558    0.7325    0.0000 C   0  0  0  0  0  0  0  0  0
    2.6413    0.3200    0.0000 C   0  0  0  0  0  0  0  0  0
    0.4979   -0.9175    0.0000 C   0  0  0  0  0  0  0  0  0
   -0.2166   -0.5050    0.0000 C   0  0  0  0  0  0  0  0  0
   -0.2166    0.3200    0.0000 C   0  0  0  0  0  0  0  0  0
   -0.9311    0.7325    0.0000 C   0  0  0  0  0  0  0  0  0
   -0.9311    1.5575    0.0000 C   0  0  0  0  0  0  0  0  0
   -0.2166    1.9700    0.0000 C   0  0  0  0  0  0  0  0  0
    0.4979    1.5575    0.0000 C   0  0  0  0  0  0  0  0  0
    0.4979    0.7325    0.0000 C   0  0  0  0  0  0  0  0  0
    0.4979   -1.7425    0.0000 C   0  0  0  0  0  0  0  0  0
   -0.2166   -2.1550    0.0000 C   0  0  0  0  0  0  0  0  0
  1  2  4  0  0  0  0
  1 31  4  0  0  0  0
  2  3  4  0  0  0  0
  2  7  4  0  0  0  0
  3  4  4  0  0  0  0
  3  8  4  0  0  0  0
  4  5  4  0  0  0  0
  5  6  4  0  0  0  0
  6  7  4  0  0  0  0
  8  9  1  0  0  0  0
  8 23  4  0  0  0  0
  9 10  1  0  0  0  0
 10 11  4  0  0  0  0
 10 22  4  0  0  0  0
 11 12  4  0  0  0  0
 12 13  4  0  0  0  0
 13 14  1  0  0  0  0
 13 21  4  0  0  0  0
 14 15  1  0  0  0  0
 14 19  1  0  0  0  0
 15 16  1  0  0  0  0
 16 17  1  0  0  0  0
 17 18  1  0  0  0  0
 17 20  1  0  0  0  0
 18 19  1  0  0  0  0
 21 22  4  0  0  0  0
 23 24  1  0  0  0  0
 23 31  4  0  0  0  0
 24 25  1  0  0  0  0
 25 26  4  0  0  0  0
 25 30  4  0  0  0  0
 26 27  4  0  0  0  0
 27 28  4  0  0  0  0
 28 29  4  0  0  0  0
 29 30  4  0  0  0  0
 31 32  1  0  0  0  0
M  STY  1   1 DAT
M  SAL   1  1   1
M  SDT   1 MRV_IMPLICIT_H                                        
M  SDD   1     0.0000    0.0000    DR    ALL  0       0  
M  SED   1 IMPL_H1
M  END
>  <Name_Molregno>
360805

>  <Alpha-2A>
6.24

>  <Alpha-2B>
7.02

>  <Alpha-2C>
7.46

$$$$
360815
  Marvin  02231216192D 0   1.00000     0.00000     0

 25 28  0  0  0  0  0  0  0  0999 V2000
   -4.3279   -2.2697    0.0000 N   0  0  0  0  0  0  0  0  0
   -3.6134   -1.8572    0.0000 C   0  0  0  0  0  0  0  0  0
   -3.6134   -1.0322    0.0000 C   0  0  0  0  0  0  0  0  0
   -2.8989   -0.6197    0.0000 C   0  0  0  0  0  0  0  0  0
   -2.1845   -1.0322    0.0000 C   0  0  0  0  0  0  0  0  0
   -2.1845   -1.8572    0.0000 C   0  0  0  0  0  0  0  0  0
   -2.8989   -2.2697    0.0000 C   0  0  0  0  0  0  0  0  0
   -4.3279   -0.6197    0.0000 C   0  0  0  0  0  0  0  0  0
   -4.3279    0.2053    0.0000 N   0  0  0  0  0  0  0  0  0
   -3.6134    0.6178    0.0000 C   0  0  0  0  0  0  0  0  0
   -3.6134    1.4428    0.0000 C   0  0  0  0  0  0  0  0  0
   -2.8989    1.8553    0.0000 C   0  0  0  0  0  0  0  0  0
   -2.1845    1.4428    0.0000 C   0  0  0  0  0  0  0  0  0
   -1.4700    1.8553    0.0000 N   0  0  0  0  0  0  0  0  0
   -1.4700    2.6803    0.0000 C   0  0  0  0  0  0  0  0  0
   -0.7555    3.0928    0.0000 C   0  0  0  0  0  0  0  0  0
   -0.0411    2.6803    0.0000 N   0  0  0  0  0  0  0  0  0
   -0.0411    1.8553    0.0000 C   0  0  0  0  0  0  0  0  0
   -0.7555    1.4428    0.0000 C   0  0  0  0  0  0  0  0  0
    0.6734    3.0928    0.0000 C   0  0  0  0  0  0  0  0  0
   -2.1845    0.6178    0.0000 C   0  0  0  0  0  0  0  0  0
   -2.8989    0.2053    0.0000 C   0  0  0  0  0  0  0  0  0
   -5.0424   -1.0322    0.0000 C   0  0  0  0  0  0  0  0  0
   -5.0424   -1.8572    0.0000 C   0  0  0  0  0  0  0  0  0
   -5.7568   -2.2697    0.0000 C   0  0  0  0  0  0  0  0  0
  1  2  4  0  0  0  0
  1 24  4  0  0  0  0
  2  3  4  0  0  0  0
  2  7  4  0  0  0  0
  3  4  4  0  0  0  0
  3  8  4  0  0  0  0
  4  5  4  0  0  0  0
  5  6  4  0  0  0  0
  6  7  4  0  0  0  0
  8  9  1  0  0  0  0
  8 23  4  0  0  0  0
  9 10  1  0  0  0  0
 10 11  4  0  0  0  0
 10 22  4  0  0  0  0
 11 12  4  0  0  0  0
 12 13  4  0  0  0  0
 13 14  1  0  0  0  0
 13 21  4  0  0  0  0
 14 15  1  0  0  0  0
 14 19  1  0  0  0  0
 15 16  1  0  0  0  0
 16 17  1  0  0  0  0
 17 18  1  0  0  0  0
 17 20  1  0  0  0  0
 18 19  1  0  0  0  0
 21 22  4  0  0  0  0
 23 24  4  0  0  0  0
 24 25  1  0  0  0  0
M  STY  1   1 DAT
M  SAL   1  1   1
M  SDT   1 MRV_IMPLICIT_H                                        
M  SDD   1     0.0000    0.0000    DR    ALL  0       0  
M  SED   1 IMPL_H1
M  END
>  <Name_Molregno>
360815

>  <Alpha-2A>
6.3

>  <Alpha-2B>
5.43

>  <Alpha-2C>
6.16

$$$$
360816
  Marvin  02231216192D 0   1.00000     0.00000     0

 28 31  0  0  1  0  0  0  0  0999 V2000
   -4.3189   -2.2637    0.0000 N   0  0  0  0  0  0  0  0  0
   -3.6045   -1.8512    0.0000 C   0  0  0  0  0  0  0  0  0
   -3.6045   -1.0262    0.0000 C   0  0  0  0  0  0  0  0  0
   -2.8900   -0.6137    0.0000 C   0  0  0  0  0  0  0  0  0
   -2.1755   -1.0262    0.0000 C   0  0  0  0  0  0  0  0  0
   -2.1755   -1.8512    0.0000 C   0  0  0  0  0  0  0  0  0
   -2.8900   -2.2637    0.0000 C   0  0  0  0  0  0  0  0  0
   -1.4611   -2.2637    0.0000 C   0  0  0  0  0  0  0  0  0
   -4.3189   -0.6137    0.0000 C   0  0  0  0  0  0  0  0  0
   -4.3189    0.2113    0.0000 N   0  0  0  0  0  0  0  0  0
   -3.6045    0.6238    0.0000 C   0  0  0  0  0  0  0  0  0
   -3.6045    1.4488    0.0000 C   0  0  0  0  0  0  0  0  0
   -2.8900    1.8613    0.0000 C   0  0  0  0  0  0  0  0  0
   -2.1755    1.4488    0.0000 C   0  0  0  0  0  0  0  0  0
   -1.4611    1.8613    0.0000 N   0  0  0  0  0  0  0  0  0
   -1.4611    2.6863    0.0000 C   0  0  0  0  0  0  0  0  0
   -0.7466    3.0988    0.0000 C   0  0  0  0  0  0  0  0  0
   -0.0321    2.6863    0.0000 N   0  0  0  0  0  0  0  0  0
   -0.0321    1.8613    0.0000 C   0  0  0  0  0  0  0  0  0
   -0.7466    1.4488    0.0000 C   0  0  0  0  0  0  0  0  0
    0.6824    3.0988    0.0000 C   0  0  0  0  0  0  0  0  0
   -0.7466    3.9238    0.0000 C   0  0  0  0  0  0  0  0  0
   -2.1755    0.6238    0.0000 C   0  0  0  0  0  0  0  0  0
   -2.8900    0.2113    0.0000 C   0  0  0  0  0  0  0  0  0
   -5.0334   -1.0262    0.0000 C   0  0  0  0  0  0  0  0  0
   -5.7479   -0.6137    0.0000 C   0  0  0  0  0  0  0  0  0
   -5.0334   -1.8512    0.0000 C   0  0  0  0  0  0  0  0  0
   -5.7479   -2.2637    0.0000 C   0  0  0  0  0  0  0  0  0
  1  2  4  0  0  0  0
  1 27  4  0  0  0  0
  2  3  4  0  0  0  0
  2  7  4  0  0  0  0
  3  4  4  0  0  0  0
  3  9  4  0  0  0  0
  4  5  4  0  0  0  0
  5  6  4  0  0  0  0
  6  7  4  0  0  0  0
  6  8  1  0  0  0  0
  9 10  1  0  0  0  0
  9 25  4  0  0  0  0
 10 11  1  0  0  0  0
 11 12  4  0  0  0  0
 11 24  4  0  0  0  0
 12 13  4  0  0  0  0
 13 14  4  0  0  0  0
 14 15  1  0  0  0  0
 14 23  4  0  0  0  0
 15 16  1  0  0  0  0
 15 20  1  0  0  0  0
 16 17  1  0  0  0  0
 17 18  1  0  0  0  0
 17 22  1  0  0  0  0
 18 19  1  0  0  0  0
 18 21  1  0  0  0  0
 19 20  1  0  0  0  0
 23 24  4  0  0  0  0
 25 26  1  0  0  0  0
 25 27  4  0  0  0  0
 27 28  1  0  0  0  0
M  STY  1   1 DAT
M  SAL   1  1   1
M  SDT   1 MRV_IMPLICIT_H                                        
M  SDD   1     0.0000    0.0000    DR    ALL  0       0  
M  SED   1 IMPL_H1
M  END
>  <Name_Molregno>
360816

>  <Alpha-2A>
6.03

>  <Alpha-2B>
5.81

>  <Alpha-2C>
7.67

$$$$
360817
  Marvin  02231216192D 0   1.00000     0.00000     0

 27 30  0  0  0  0  0  0  0  0999 V2000
   -4.0320   -1.9903    0.0000 N   0  0  0  0  0  0  0  0  0
   -3.3175   -1.5778    0.0000 C   0  0  0  0  0  0  0  0  0
   -3.3175   -0.7528    0.0000 C   0  0  0  0  0  0  0  0  0
   -2.6031   -0.3403    0.0000 C   0  0  0  0  0  0  0  0  0
   -1.8886   -0.7528    0.0000 C   0  0  0  0  0  0  0  0  0
   -1.8886   -1.5778    0.0000 C   0  0  0  0  0  0  0  0  0
   -2.6031   -1.9903    0.0000 C   0  0  0  0  0  0  0  0  0
   -2.6031   -2.8153    0.0000 C   0  0  0  0  0  0  0  0  0
   -4.0320   -0.3403    0.0000 C   0  0  0  0  0  0  0  0  0
   -4.0320    0.4847    0.0000 N   0  0  0  0  0  0  0  0  0
   -3.3175    0.8972    0.0000 C   0  0  0  0  0  0  0  0  0
   -3.3175    1.7222    0.0000 C   0  0  0  0  0  0  0  0  0
   -2.6031    2.1347    0.0000 C   0  0  0  0  0  0  0  0  0
   -1.8886    1.7222    0.0000 C   0  0  0  0  0  0  0  0  0
   -1.1741    2.1347    0.0000 N   0  0  0  0  0  0  0  0  0
   -1.1741    2.9597    0.0000 C   0  0  0  0  0  0  0  0  0
   -0.4596    3.3722    0.0000 C   0  0  0  0  0  0  0  0  0
    0.2548    2.9597    0.0000 C   0  0  0  0  0  0  0  0  0
    0.2548    2.1347    0.0000 N   0  0  0  0  0  0  0  0  0
   -0.4596    1.7222    0.0000 C   0  0  0  0  0  0  0  0  0
    0.9693    1.7222    0.0000 C   0  0  0  0  0  0  0  0  0
   -1.8886    0.8972    0.0000 C   0  0  0  0  0  0  0  0  0
   -2.6031    0.4847    0.0000 C   0  0  0  0  0  0  0  0  0
   -4.7465   -0.7528    0.0000 C   0  0  0  0  0  0  0  0  0
   -5.4609   -0.3403    0.0000 C   0  0  0  0  0  0  0  0  0
   -4.7465   -1.5778    0.0000 C   0  0  0  0  0  0  0  0  0
   -5.4609   -1.9903    0.0000 C   0  0  0  0  0  0  0  0  0
  1  2  4  0  0  0  0
  1 26  4  0  0  0  0
  2  3  4  0  0  0  0
  2  7  4  0  0  0  0
  3  4  4  0  0  0  0
  3  9  4  0  0  0  0
  4  5  4  0  0  0  0
  5  6  4  0  0  0  0
  6  7  4  0  0  0  0
  7  8  1  0  0  0  0
  9 10  1  0  0  0  0
  9 24  4  0  0  0  0
 10 11  1  0  0  0  0
 11 12  4  0  0  0  0
 11 23  4  0  0  0  0
 12 13  4  0  0  0  0
 13 14  4  0  0  0  0
 14 15  1  0  0  0  0
 14 22  4  0  0  0  0
 15 16  1  0  0  0  0
 15 20  1  0  0  0  0
 16 17  1  0  0  0  0
 17 18  1  0  0  0  0
 18 19  1  0  0  0  0
 19 20  1  0  0  0  0
 19 21  1  0  0  0  0
 22 23  4  0  0  0  0
 24 25  1  0  0  0  0
 24 26  4  0  0  0  0
 26 27  1  0  0  0  0
M  STY  1   1 DAT
M  SAL   1  1   1
M  SDT   1 MRV_IMPLICIT_H                                        
M  SDD   1     0.0000    0.0000    DR    ALL  0       0  
M  SED   1 IMPL_H1
M  END
>  <Name_Molregno>
360817

>  <Alpha-2A>
5

>  <Alpha-2B>
5.6

>  <Alpha-2C>
6.11

$$$$
360818
  Marvin  02231216192D 0   1.00000     0.00000     0

 26 29  0  0  1  0  0  0  0  0999 V2000
   -2.2320   -1.6215    0.0000 O   0  0  0  0  0  0  0  0  0
   -2.2320   -2.4465    0.0000 C   0  0  0  0  0  0  0  0  0
   -1.5175   -2.8590    0.0000 C   0  0  0  0  0  0  0  0  0
   -1.5175   -3.6840    0.0000 C   0  0  0  0  0  0  0  0  0
   -0.8031   -4.0965    0.0000 N   0  0  0  0  0  0  0  0  0
   -0.0886   -3.6840    0.0000 C   0  0  0  0  0  0  0  0  0
   -0.0886   -2.8590    0.0000 C   0  0  0  0  0  0  0  0  0
    0.6259   -2.4465    0.0000 C   0  0  0  0  0  0  0  0  0
    1.3403   -2.8590    0.0000 C   0  0  0  0  0  0  0  0  0
    1.3403   -3.6840    0.0000 C   0  0  0  0  0  0  0  0  0
    0.6259   -4.0965    0.0000 C   0  0  0  0  0  0  0  0  0
   -0.8031   -2.4465    0.0000 C   0  0  0  0  0  0  0  0  0
   -0.8031   -1.6215    0.0000 N   0  0  0  0  0  0  0  0  0
   -0.0886   -1.2090    0.0000 C   0  0  0  0  0  0  0  0  0
   -0.0886   -0.3840    0.0000 C   0  0  0  0  0  0  0  0  0
    0.6259    0.0285    0.0000 C   0  0  0  0  0  0  0  0  0
    1.3403   -0.3840    0.0000 C   0  0  0  0  0  0  0  0  0
    2.0548    0.0285    0.0000 N   0  0  0  0  0  0  0  0  0
    2.0548    0.8535    0.0000 C   0  0  0  0  0  0  0  0  0
    2.7693    1.2660    0.0000 C   0  0  0  0  0  0  0  0  0
    3.4837    0.8535    0.0000 N   0  0  0  0  0  0  0  0  0
    3.4837    0.0285    0.0000 C   0  0  0  0  0  0  0  0  0
    2.7693   -0.3840    0.0000 C   0  0  0  0  0  0  0  0  0
    2.7693    2.0910    0.0000 C   0  0  0  0  0  0  0  0  0
    1.3403   -1.2090    0.0000 C   0  0  0  0  0  0  0  0  0
    0.6259   -1.6215    0.0000 C   0  0  0  0  0  0  0  0  0
  1  2  1  0  0  0  0
  2  3  1  0  0  0  0
  3  4  4  0  0  0  0
  3 12  4  0  0  0  0
  4  5  4  0  0  0  0
  5  6  4  0  0  0  0
  6  7  4  0  0  0  0
  6 11  4  0  0  0  0
  7  8  4  0  0  0  0
  7 12  4  0  0  0  0
  8  9  4  0  0  0  0
  9 10  4  0  0  0  0
 10 11  4  0  0  0  0
 12 13  1  0  0  0  0
 13 14  1  0  0  0  0
 14 15  4  0  0  0  0
 14 26  4  0  0  0  0
 15 16  4  0  0  0  0
 16 17  4  0  0  0  0
 17 18  1  0  0  0  0
 17 25  4  0  0  0  0
 18 19  1  0  0  0  0
 18 23  1  0  0  0  0
 19 20  1  0  0  0  0
 20 21  1  0  0  0  0
 20 24  1  0  0  0  0
 21 22  1  0  0  0  0
 22 23  1  0  0  0  0
 25 26  4  0  0  0  0
M  STY  1   1 DAT
M  SAL   1  1   5
M  SDT   1 MRV_IMPLICIT_H                                        
M  SDD   1     0.0000    0.0000    DR    ALL  0       0  
M  SED   1 IMPL_H1
M  END
>  <Name_Molregno>
360818

>  <Alpha-2A>
5.02

>  <Alpha-2B>
4.75

>  <Alpha-2C>
6.69

$$$$
360829
  Marvin  02231216192D 0   1.00000     0.00000     0

 29 31  0  0  0  0  0  0  0  0999 V2000
   -5.6822    0.9706    0.0000 N   0  0  0  0  0  0  0  0  0
   -5.2697    0.2561    0.0000 C   0  0  0  0  0  0  0  0  0
   -4.4447    0.2561    0.0000 C   0  0  0  0  0  0  0  0  0
   -4.0322   -0.4584    0.0000 C   0  0  0  0  0  0  0  0  0
   -4.4447   -1.1728    0.0000 C   0  0  0  0  0  0  0  0  0
   -5.2697   -1.1728    0.0000 C   0  0  0  0  0  0  0  0  0
   -5.6822   -0.4584    0.0000 C   0  0  0  0  0  0  0  0  0
   -6.5072   -0.4584    0.0000 C   0  0  0  0  0  0  0  0  0
   -4.0322    0.9706    0.0000 C   0  0  0  0  0  0  0  0  0
   -3.2072    0.9706    0.0000 N   0  0  0  0  0  0  0  0  0
   -2.7947    0.2561    0.0000 C   0  0  0  0  0  0  0  0  0
   -1.9697    0.2561    0.0000 C   0  0  0  0  0  0  0  0  0
   -1.5572   -0.4584    0.0000 C   0  0  0  0  0  0  0  0  0
   -1.9697   -1.1728    0.0000 C   0  0  0  0  0  0  0  0  0
   -1.5572   -1.8873    0.0000 N   0  0  0  0  0  0  0  0  0
   -0.7322   -1.8873    0.0000 C   0  0  0  0  0  0  0  0  0
   -0.3197   -2.6018    0.0000 C   0  0  0  0  0  0  0  0  0
    0.5053   -2.6018    0.0000 N   0  0  0  0  0  0  0  0  0
    0.9178   -3.3163    0.0000 C   0  0  0  0  0  0  0  0  0
    1.7428   -3.3163    0.0000 C   0  0  0  0  0  0  0  0  0
    0.9178   -1.8873    0.0000 C   0  0  0  0  0  0  0  0  0
    1.7428   -1.8873    0.0000 C   0  0  0  0  0  0  0  0  0
   -2.7947   -1.1728    0.0000 C   0  0  0  0  0  0  0  0  0
   -3.2072   -0.4584    0.0000 C   0  0  0  0  0  0  0  0  0
   -4.4447    1.6850    0.0000 C   0  0  0  0  0  0  0  0  0
   -4.0322    2.3995    0.0000 C   0  0  0  0  0  0  0  0  0
   -4.4447    3.1140    0.0000 C   0  0  0  0  0  0  0  0  0
   -5.2697    1.6850    0.0000 C   0  0  0  0  0  0  0  0  0
   -5.6822    2.3995    0.0000 C   0  0  0  0  0  0  0  0  0
  1  2  4  0  0  0  0
  1 28  4  0  0  0  0
  2  3  4  0  0  0  0
  2  7  4  0  0  0  0
  3  4  4  0  0  0  0
  3  9  4  0  0  0  0
  4  5  4  0  0  0  0
  5  6  4  0  0  0  0
  6  7  4  0  0  0  0
  7  8  1  0  0  0  0
  9 10  1  0  0  0  0
  9 25  4  0  0  0  0
 10 11  1  0  0  0  0
 11 12  4  0  0  0  0
 11 24  4  0  0  0  0
 12 13  4  0  0  0  0
 13 14  4  0  0  0  0
 14 15  1  0  0  0  0
 14 23  4  0  0  0  0
 15 16  1  0  0  0  0
 16 17  1  0  0  0  0
 17 18  1  0  0  0  0
 18 19  1  0  0  0  0
 18 21  1  0  0  0  0
 19 20  1  0  0  0  0
 21 22  1  0  0  0  0
 23 24  4  0  0  0  0
 25 26  1  0  0  0  0
 25 28  4  0  0  0  0
 26 27  1  0  0  0  0
 28 29  1  0  0  0  0
M  STY  1   1 DAT
M  SAL   1  1   1
M  SDT   1 MRV_IMPLICIT_H                                        
M  SDD   1     0.0000    0.0000    DR    ALL  0       0  
M  SED   1 IMPL_H1
M  END
>  <Name_Molregno>
360829

>  <Alpha-2A>
6.05

>  <Alpha-2B>
5.54

>  <Alpha-2C>
7.09

$$$$
360830
  Marvin  02231216192D 0   1.00000     0.00000     0

 29 32  0  0  0  0  0  0  0  0999 V2000
    3.6019    3.0592    0.0000 Cl  0  0  0  0  0  0  0  0  0
    4.3164    2.6467    0.0000 C   0  0  0  0  0  0  0  0  0
    5.0308    3.0592    0.0000 C   0  0  0  0  0  0  0  0  0
    5.7453    2.6467    0.0000 C   0  0  0  0  0  0  0  0  0
    6.4598    3.0592    0.0000 N   0  0  0  0  0  0  0  0  0
    7.1742    2.6467    0.0000 C   0  0  0  0  0  0  0  0  0
    7.1742    1.8217    0.0000 C   0  0  0  0  0  0  0  0  0
    7.8887    1.4092    0.0000 C   0  0  0  0  0  0  0  0  0
    7.8887    0.5842    0.0000 O   0  0  0  0  0  0  0  0  0
    6.4598    1.4092    0.0000 C   0  0  0  0  0  0  0  0  0
    6.4598    0.5842    0.0000 N   0  0  0  0  0  0  0  0  0
    5.7453    0.1717    0.0000 C   0  0  0  0  0  0  0  0  0
    5.7453   -0.6533    0.0000 C   0  0  0  0  0  0  0  0  0
    5.0308   -1.0658    0.0000 C   0  0  0  0  0  0  0  0  0
    4.3164   -0.6533    0.0000 C   0  0  0  0  0  0  0  0  0
    3.6019   -1.0658    0.0000 N   0  0  0  0  0  0  0  0  0
    3.6019   -1.8908    0.0000 C   0  0  0  0  0  0  0  0  0
    2.8874   -2.3033    0.0000 C   0  0  0  0  0  0  0  0  0
    2.1729   -1.8908    0.0000 N   0  0  0  0  0  0  0  0  0
    2.1729   -1.0658    0.0000 C   0  0  0  0  0  0  0  0  0
    2.8874   -0.6533    0.0000 C   0  0  0  0  0  0  0  0  0
    1.4585   -2.3033    0.0000 C   0  0  0  0  0  0  0  0  0
    3.2747   -3.0317    0.0000 C   0  0  0  0  0  0  0  0  0
    2.5001   -3.0317    0.0000 C   0  0  0  0  0  0  0  0  0
    4.3164    0.1717    0.0000 C   0  0  0  0  0  0  0  0  0
    5.0308    0.5842    0.0000 C   0  0  0  0  0  0  0  0  0
    5.7453    1.8217    0.0000 C   0  0  0  0  0  0  0  0  0
    5.0308    1.4092    0.0000 C   0  0  0  0  0  0  0  0  0
    4.3164    1.8217    0.0000 C   0  0  0  0  0  0  0  0  0
  1  2  1  0  0  0  0
  2  3  4  0  0  0  0
  2 29  4  0  0  0  0
  3  4  4  0  0  0  0
  4  5  4  0  0  0  0
  4 27  4  0  0  0  0
  5  6  4  0  0  0  0
  6  7  4  0  0  0  0
  7  8  1  0  0  0  0
  7 10  4  0  0  0  0
  8  9  1  0  0  0  0
 10 11  1  0  0  0  0
 10 27  4  0  0  0  0
 11 12  1  0  0  0  0
 12 13  4  0  0  0  0
 12 26  4  0  0  0  0
 13 14  4  0  0  0  0
 14 15  4  0  0  0  0
 15 16  1  0  0  0  0
 15 25  4  0  0  0  0
 16 17  1  0  0  0  0
 16 21  1  0  0  0  0
 17 18  1  0  0  0  0
 18 19  1  0  0  0  0
 18 23  1  0  0  0  0
 18 24  1  0  0  0  0
 19 20  1  0  0  0  0
 19 22  1  0  0  0  0
 20 21  1  0  0  0  0
 25 26  4  0  0  0  0
 27 28  4  0  0  0  0
 28 29  4  0  0  0  0
M  STY  1   1 DAT
M  SAL   1  1   5
M  SDT   1 MRV_IMPLICIT_H                                        
M  SDD   1     0.0000    0.0000    DR    ALL  0       0  
M  SED   1 IMPL_H1
M  END
>  <Name_Molregno>
360830

>  <Alpha-2A>
6.02

>  <Alpha-2B>
6.38

>  <Alpha-2C>
8.23

$$$$
360839
  Marvin  02231216192D 0   1.00000     0.00000     0

 22 24  0  0  0  0  0  0  0  0999 V2000
   -1.5064   -2.8530    0.0000 N   0  0  0  0  0  0  0  0  0
   -2.2208   -3.2655    0.0000 C   0  0  0  0  0  0  0  0  0
   -2.9353   -2.8530    0.0000 C   0  0  0  0  0  0  0  0  0
   -3.6498   -3.2655    0.0000 C   0  0  0  0  0  0  0  0  0
   -2.9353   -2.0280    0.0000 C   0  0  0  0  0  0  0  0  0
   -3.6498   -1.6155    0.0000 N   0  0  0  0  0  0  0  0  0
   -3.6498   -0.7905    0.0000 C   0  0  0  0  0  0  0  0  0
   -4.3643   -0.3780    0.0000 C   0  0  0  0  0  0  0  0  0
   -4.3643    0.4470    0.0000 C   0  0  0  0  0  0  0  0  0
   -3.6498    0.8595    0.0000 C   0  0  0  0  0  0  0  0  0
   -3.6498    1.6845    0.0000 N   0  0  0  0  0  0  0  0  0
   -4.3643    2.0970    0.0000 C   0  0  0  0  0  0  0  0  0
   -4.3643    2.9220    0.0000 C   0  0  0  0  0  0  0  0  0
   -3.6498    3.3345    0.0000 N   0  0  0  0  0  0  0  0  0
   -2.9353    2.9220    0.0000 C   0  0  0  0  0  0  0  0  0
   -2.9353    2.0970    0.0000 C   0  0  0  0  0  0  0  0  0
   -3.6498    4.1595    0.0000 C   0  0  0  0  0  0  0  0  0
   -2.9353    0.4470    0.0000 C   0  0  0  0  0  0  0  0  0
   -2.9353   -0.3780    0.0000 C   0  0  0  0  0  0  0  0  0
   -2.2208   -1.6155    0.0000 C   0  0  0  0  0  0  0  0  0
   -1.5064   -2.0280    0.0000 C   0  0  0  0  0  0  0  0  0
   -2.2208   -0.7905    0.0000 C   0  0  0  0  0  0  0  0  0
  1  2  4  0  0  0  0
  1 21  4  0  0  0  0
  2  3  4  0  0  0  0
  3  4  1  0  0  0  0
  3  5  4  0  0  0  0
  5  6  1  0  0  0  0
  5 20  4  0  0  0  0
  6  7  1  0  0  0  0
  7  8  4  0  0  0  0
  7 19  4  0  0  0  0
  8  9  4  0  0  0  0
  9 10  4  0  0  0  0
 10 11  1  0  0  0  0
 10 18  4  0  0  0  0
 11 12  1  0  0  0  0
 11 16  1  0  0  0  0
 12 13  1  0  0  0  0
 13 14  1  0  0  0  0
 14 15  1  0  0  0  0
 14 17  1  0  0  0  0
 15 16  1  0  0  0  0
 18 19  4  0  0  0  0
 20 21  4  0  0  0  0
 20 22  1  0  0  0  0
M  STY  1   1 DAT
M  SAL   1  1   1
M  SDT   1 MRV_IMPLICIT_H                                        
M  SDD   1     0.0000    0.0000    DR    ALL  0       0  
M  SED   1 IMPL_H1
M  END
>  <Name_Molregno>
360839

>  <Alpha-2A>
5.44

>  <Alpha-2B>
4.52

>  <Alpha-2C>
5.3

$$$$
360849
  Marvin  02231216192D 0   1.00000     0.00000     0

 28 31  0  0  1  0  0  0  0  0999 V2000
   -4.2623   -2.4090    0.0000 N   0  0  0  0  0  0  0  0  0
   -3.5478   -1.9965    0.0000 C   0  0  0  0  0  0  0  0  0
   -3.5478   -1.1715    0.0000 C   0  0  0  0  0  0  0  0  0
   -2.8333   -0.7590    0.0000 C   0  0  0  0  0  0  0  0  0
   -2.1188   -1.1715    0.0000 C   0  0  0  0  0  0  0  0  0
   -2.1188   -1.9965    0.0000 C   0  0  0  0  0  0  0  0  0
   -2.8333   -2.4090    0.0000 C   0  0  0  0  0  0  0  0  0
   -4.2623   -0.7590    0.0000 C   0  0  0  0  0  0  0  0  0
   -4.2623    0.0660    0.0000 N   0  0  0  0  0  0  0  0  0
   -3.5478    0.4785    0.0000 C   0  0  0  0  0  0  0  0  0
   -3.5478    1.3035    0.0000 C   0  0  0  0  0  0  0  0  0
   -2.8333    1.7160    0.0000 C   0  0  0  0  0  0  0  0  0
   -2.1188    1.3035    0.0000 C   0  0  0  0  0  0  0  0  0
   -1.4044    1.7160    0.0000 N   0  0  0  0  0  0  0  0  0
   -1.4044    2.5410    0.0000 C   0  0  0  0  0  0  0  0  0
   -0.6899    2.9535    0.0000 C   0  0  0  0  0  0  0  0  0
    0.0246    2.5410    0.0000 N   0  0  0  0  0  0  0  0  0
    0.0246    1.7160    0.0000 C   0  0  0  0  0  0  0  0  0
   -0.6899    1.3035    0.0000 C   0  0  0  0  0  0  0  0  0
    0.7390    2.9535    0.0000 C   0  0  0  0  0  0  0  0  0
   -0.6899    3.7785    0.0000 C   0  0  0  0  0  0  0  0  0
   -2.1188    0.4785    0.0000 C   0  0  0  0  0  0  0  0  0
   -2.8333    0.0660    0.0000 C   0  0  0  0  0  0  0  0  0
   -4.9767   -1.1715    0.0000 C   0  0  0  0  0  0  0  0  0
   -5.6912   -0.7590    0.0000 C   0  0  0  0  0  0  0  0  0
   -6.4057   -1.1715    0.0000 C   0  0  0  0  0  0  0  0  0
   -4.9767   -1.9965    0.0000 C   0  0  0  0  0  0  0  0  0
   -5.6912   -2.4090    0.0000 C   0  0  0  0  0  0  0  0  0
  1  2  4  0  0  0  0
  1 27  4  0  0  0  0
  2  3  4  0  0  0  0
  2  7  1  0  0  0  0
  3  4  1  0  0  0  0
  3  8  4  0  0  0  0
  4  5  1  0  0  0  0
  5  6  1  0  0  0  0
  6  7  1  0  0  0  0
  8  9  1  0  0  0  0
  8 24  4  0  0  0  0
  9 10  1  0  0  0  0
 10 11  4  0  0  0  0
 10 23  4  0  0  0  0
 11 12  4  0  0  0  0
 12 13  4  0  0  0  0
 13 14  1  0  0  0  0
 13 22  4  0  0  0  0
 14 15  1  0  0  0  0
 14 19  1  0  0  0  0
 15 16  1  0  0  0  0
 16 17  1  0  0  0  0
 16 21  1  0  0  0  0
 17 18  1  0  0  0  0
 17 20  1  0  0  0  0
 18 19  1  0  0  0  0
 22 23  4  0  0  0  0
 24 25  1  0  0  0  0
 24 27  4  0  0  0  0
 25 26  1  0  0  0  0
 27 28  1  0  0  0  0
M  STY  1   1 DAT
M  SAL   1  1   1
M  SDT   1 MRV_IMPLICIT_H                                        
M  SDD   1     0.0000    0.0000    DR    ALL  0       0  
M  SED   1 IMPL_H1
M  END
>  <Name_Molregno>
360849

>  <Alpha-2A>
6.2

>  <Alpha-2B>
5.53

>  <Alpha-2C>
6.96

$$$$
360851
  Marvin  02231216192D 0   1.00000     0.00000     0

 27 30  0  0  0  0  0  0  0  0999 V2000
   -5.0080   -1.7558    0.0000 N   0  0  0  0  0  0  0  0  0
   -4.2936   -1.3433    0.0000 C   0  0  0  0  0  0  0  0  0
   -4.2936   -0.5183    0.0000 C   0  0  0  0  0  0  0  0  0
   -3.5791   -0.1058    0.0000 C   0  0  0  0  0  0  0  0  0
   -2.8646   -0.5183    0.0000 C   0  0  0  0  0  0  0  0  0
   -2.8646   -1.3433    0.0000 C   0  0  0  0  0  0  0  0  0
   -3.5791   -1.7558    0.0000 C   0  0  0  0  0  0  0  0  0
   -5.0080   -0.1058    0.0000 C   0  0  0  0  0  0  0  0  0
   -5.0080    0.7192    0.0000 N   0  0  0  0  0  0  0  0  0
   -4.2936    1.1317    0.0000 C   0  0  0  0  0  0  0  0  0
   -4.2936    1.9567    0.0000 C   0  0  0  0  0  0  0  0  0
   -3.5791    2.3692    0.0000 C   0  0  0  0  0  0  0  0  0
   -2.8646    1.9567    0.0000 C   0  0  0  0  0  0  0  0  0
   -2.1502    2.3692    0.0000 N   0  0  0  0  0  0  0  0  0
   -1.4357    1.9567    0.0000 C   0  0  0  0  0  0  0  0  0
   -0.7212    2.3692    0.0000 C   0  0  0  0  0  0  0  0  0
   -0.0068    1.9567    0.0000 N   0  0  0  0  0  0  0  0  0
    0.7469    2.2922    0.0000 C   0  0  0  0  0  0  0  0  0
    1.2990    1.6791    0.0000 C   0  0  0  0  0  0  0  0  0
    0.8865    0.9647    0.0000 C   0  0  0  0  0  0  0  0  0
    0.0795    1.1362    0.0000 C   0  0  0  0  0  0  0  0  0
   -2.8646    1.1317    0.0000 C   0  0  0  0  0  0  0  0  0
   -3.5791    0.7192    0.0000 C   0  0  0  0  0  0  0  0  0
   -5.7225   -0.5183    0.0000 C   0  0  0  0  0  0  0  0  0
   -6.4370   -0.1058    0.0000 C   0  0  0  0  0  0  0  0  0
   -5.7225   -1.3433    0.0000 C   0  0  0  0  0  0  0  0  0
   -6.4370   -1.7558    0.0000 C   0  0  0  0  0  0  0  0  0
  1  2  4  0  0  0  0
  1 26  4  0  0  0  0
  2  3  4  0  0  0  0
  2  7  4  0  0  0  0
  3  4  4  0  0  0  0
  3  8  4  0  0  0  0
  4  5  4  0  0  0  0
  5  6  4  0  0  0  0
  6  7  4  0  0  0  0
  8  9  1  0  0  0  0
  8 24  4  0  0  0  0
  9 10  1  0  0  0  0
 10 11  4  0  0  0  0
 10 23  4  0  0  0  0
 11 12  4  0  0  0  0
 12 13  4  0  0  0  0
 13 14  1  0  0  0  0
 13 22  4  0  0  0  0
 14 15  1  0  0  0  0
 15 16  1  0  0  0  0
 16 17  1  0  0  0  0
 17 18  1  0  0  0  0
 17 21  1  0  0  0  0
 18 19  1  0  0  0  0
 19 20  1  0  0  0  0
 20 21  1  0  0  0  0
 22 23  4  0  0  0  0
 24 25  1  0  0  0  0
 24 26  4  0  0  0  0
 26 27  1  0  0  0  0
M  STY  1   1 DAT
M  SAL   1  1   1
M  SDT   1 MRV_IMPLICIT_H                                        
M  SDD   1     0.0000    0.0000    DR    ALL  0       0  
M  SED   1 IMPL_H1
M  END
>  <Name_Molregno>
360851

>  <Alpha-2A>
6

>  <Alpha-2B>
5.77

>  <Alpha-2C>
7

$$$$
360852
  Marvin  02231216192D 0   1.00000     0.00000     0

 28 31  0  0  1  0  0  0  0  0999 V2000
   -5.0822   -0.0960    0.0000 F   0  0  0  0  0  0  0  0  0
   -4.3678    0.3165    0.0000 C   0  0  0  0  0  0  0  0  0
   -3.6533   -0.0960    0.0000 C   0  0  0  0  0  0  0  0  0
   -2.9388    0.3165    0.0000 C   0  0  0  0  0  0  0  0  0
   -2.9388    1.1415    0.0000 C   0  0  0  0  0  0  0  0  0
   -2.2244    1.5540    0.0000 N   0  0  0  0  0  0  0  0  0
   -1.5099    1.1415    0.0000 C   0  0  0  0  0  0  0  0  0
   -1.5099    0.3165    0.0000 C   0  0  0  0  0  0  0  0  0
   -0.7954   -0.0960    0.0000 C   0  0  0  0  0  0  0  0  0
   -0.7954   -0.9210    0.0000 O   0  0  0  0  0  0  0  0  0
   -2.2244   -0.0960    0.0000 C   0  0  0  0  0  0  0  0  0
   -2.2244   -0.9210    0.0000 N   0  0  0  0  0  0  0  0  0
   -2.9388   -1.3335    0.0000 C   0  0  0  0  0  0  0  0  0
   -2.9388   -2.1585    0.0000 C   0  0  0  0  0  0  0  0  0
   -3.6533   -2.5710    0.0000 C   0  0  0  0  0  0  0  0  0
   -4.3678   -2.1585    0.0000 C   0  0  0  0  0  0  0  0  0
   -5.0822   -2.5710    0.0000 N   0  0  0  0  0  0  0  0  0
   -5.0822   -3.3960    0.0000 C   0  0  0  0  0  0  0  0  0
   -5.7967   -3.8085    0.0000 C   0  0  0  0  0  0  0  0  0
   -6.5112   -3.3960    0.0000 N   0  0  0  0  0  0  0  0  0
   -6.5112   -2.5710    0.0000 C   0  0  0  0  0  0  0  0  0
   -5.7967   -2.1585    0.0000 C   0  0  0  0  0  0  0  0  0
   -7.2257   -3.8085    0.0000 C   0  0  0  0  0  0  0  0  0
   -5.7967   -4.6335    0.0000 C   0  0  0  0  0  0  0  0  0
   -4.3678   -1.3335    0.0000 C   0  0  0  0  0  0  0  0  0
   -3.6533   -0.9210    0.0000 C   0  0  0  0  0  0  0  0  0
   -3.6533    1.5540    0.0000 C   0  0  0  0  0  0  0  0  0
   -4.3678    1.1415    0.0000 C   0  0  0  0  0  0  0  0  0
  1  2  1  0  0  0  0
  2  3  4  0  0  0  0
  2 28  4  0  0  0  0
  3  4  4  0  0  0  0
  4  5  4  0  0  0  0
  4 11  4  0  0  0  0
  5  6  4  0  0  0  0
  5 27  4  0  0  0  0
  6  7  4  0  0  0  0
  7  8  4  0  0  0  0
  8  9  1  0  0  0  0
  8 11  4  0  0  0  0
  9 10  1  0  0  0  0
 11 12  1  0  0  0  0
 12 13  1  0  0  0  0
 13 14  4  0  0  0  0
 13 26  4  0  0  0  0
 14 15  4  0  0  0  0
 15 16  4  0  0  0  0
 16 17  1  0  0  0  0
 16 25  4  0  0  0  0
 17 18  1  0  0  0  0
 17 22  1  0  0  0  0
 18 19  1  0  0  0  0
 19 20  1  0  0  0  0
 19 24  1  0  0  0  0
 20 21  1  0  0  0  0
 20 23  1  0  0  0  0
 21 22  1  0  0  0  0
 25 26  4  0  0  0  0
 27 28  4  0  0  0  0
M  STY  1   1 DAT
M  SAL   1  1   6
M  SDT   1 MRV_IMPLICIT_H                                        
M  SDD   1     0.0000    0.0000    DR    ALL  0       0  
M  SED   1 IMPL_H1
M  END
>  <Name_Molregno>
360852

>  <Alpha-2A>
5.94

>  <Alpha-2B>
5.25

>  <Alpha-2C>
7.4

$$$$
360862
  Marvin  02231216192D 0   1.00000     0.00000     0

 32 36  0  0  1  0  0  0  0  0999 V2000
    1.6522   -2.1586    0.0000 N   0  0  0  0  0  0  0  0  0
    2.3666   -1.7461    0.0000 C   0  0  0  0  0  0  0  0  0
    2.3666   -0.9211    0.0000 C   0  0  0  0  0  0  0  0  0
    3.0811   -0.5086    0.0000 C   0  0  0  0  0  0  0  0  0
    3.7956   -0.9211    0.0000 C   0  0  0  0  0  0  0  0  0
    3.7956   -1.7461    0.0000 C   0  0  0  0  0  0  0  0  0
    3.0811   -2.1586    0.0000 C   0  0  0  0  0  0  0  0  0
    1.6522   -0.5086    0.0000 C   0  0  0  0  0  0  0  0  0
    1.6522    0.3164    0.0000 N   0  0  0  0  0  0  0  0  0
    2.3666    0.7289    0.0000 C   0  0  0  0  0  0  0  0  0
    2.3666    1.5539    0.0000 C   0  0  0  0  0  0  0  0  0
    3.0811    1.9664    0.0000 C   0  0  0  0  0  0  0  0  0
    3.7956    1.5539    0.0000 C   0  0  0  0  0  0  0  0  0
    4.5100    1.9664    0.0000 N   0  0  0  0  0  0  0  0  0
    4.5100    2.7914    0.0000 C   0  0  0  0  0  0  0  0  0
    5.2245    3.2039    0.0000 C   0  0  0  0  0  0  0  0  0
    5.9390    2.7914    0.0000 N   0  0  0  0  0  0  0  0  0
    5.9390    1.9664    0.0000 C   0  0  0  0  0  0  0  0  0
    5.2245    1.5539    0.0000 C   0  0  0  0  0  0  0  0  0
    6.6535    3.2039    0.0000 C   0  0  0  0  0  0  0  0  0
    5.2245    4.0289    0.0000 C   0  0  0  0  0  0  0  0  0
    3.7956    0.7289    0.0000 C   0  0  0  0  0  0  0  0  0
    3.0811    0.3164    0.0000 C   0  0  0  0  0  0  0  0  0
    0.9377   -0.9211    0.0000 C   0  0  0  0  0  0  0  0  0
    0.2232   -0.5086    0.0000 C   0  0  0  0  0  0  0  0  0
   -0.4913   -0.9211    0.0000 C   0  0  0  0  0  0  0  0  0
   -1.2057   -0.5086    0.0000 C   0  0  0  0  0  0  0  0  0
   -1.2057    0.3164    0.0000 C   0  0  0  0  0  0  0  0  0
   -0.4913    0.7289    0.0000 C   0  0  0  0  0  0  0  0  0
    0.2232    0.3164    0.0000 C   0  0  0  0  0  0  0  0  0
    0.9377   -1.7461    0.0000 C   0  0  0  0  0  0  0  0  0
    0.2232   -2.1586    0.0000 C   0  0  0  0  0  0  0  0  0
  1  2  4  0  0  0  0
  1 31  4  0  0  0  0
  2  3  4  0  0  0  0
  2  7  4  0  0  0  0
  3  4  4  0  0  0  0
  3  8  4  0  0  0  0
  4  5  4  0  0  0  0
  5  6  4  0  0  0  0
  6  7  4  0  0  0  0
  8  9  1  0  0  0  0
  8 24  4  0  0  0  0
  9 10  1  0  0  0  0
 10 11  4  0  0  0  0
 10 23  4  0  0  0  0
 11 12  4  0  0  0  0
 12 13  4  0  0  0  0
 13 14  1  0  0  0  0
 13 22  4  0  0  0  0
 14 15  1  0  0  0  0
 14 19  1  0  0  0  0
 15 16  1  0  0  0  0
 16 17  1  0  0  0  0
 16 21  1  0  0  0  0
 17 18  1  0  0  0  0
 17 20  1  0  0  0  0
 18 19  1  0  0  0  0
 22 23  4  0  0  0  0
 24 25  1  0  0  0  0
 24 31  4  0  0  0  0
 25 26  4  0  0  0  0
 25 30  4  0  0  0  0
 26 27  4  0  0  0  0
 27 28  4  0  0  0  0
 28 29  4  0  0  0  0
 29 30  4  0  0  0  0
 31 32  1  0  0  0  0
M  STY  1   1 DAT
M  SAL   1  1   1
M  SDT   1 MRV_IMPLICIT_H                                        
M  SDD   1     0.0000    0.0000    DR    ALL  0       0  
M  SED   1 IMPL_H1
M  END
>  <Name_Molregno>
360862

>  <Alpha-2A>
5.85

>  <Alpha-2B>
5.77

>  <Alpha-2C>
8.3

$$$$
360863
  Marvin  02231216192D 0   1.00000     0.00000     0

 28 31  0  0  1  0  0  0  0  0999 V2000
   -4.2644   -2.2538    0.0000 N   0  0  0  0  0  0  0  0  0
   -3.5499   -1.8413    0.0000 C   0  0  0  0  0  0  0  0  0
   -3.5499   -1.0163    0.0000 C   0  0  0  0  0  0  0  0  0
   -2.8354   -0.6038    0.0000 C   0  0  0  0  0  0  0  0  0
   -2.1210   -1.0163    0.0000 C   0  0  0  0  0  0  0  0  0
   -2.1210   -1.8413    0.0000 C   0  0  0  0  0  0  0  0  0
   -2.8354   -2.2538    0.0000 C   0  0  0  0  0  0  0  0  0
   -2.8354   -3.0788    0.0000 C   0  0  0  0  0  0  0  0  0
   -4.2644   -0.6038    0.0000 C   0  0  0  0  0  0  0  0  0
   -4.2644    0.2212    0.0000 N   0  0  0  0  0  0  0  0  0
   -3.5499    0.6337    0.0000 C   0  0  0  0  0  0  0  0  0
   -3.5499    1.4587    0.0000 C   0  0  0  0  0  0  0  0  0
   -2.8354    1.8712    0.0000 C   0  0  0  0  0  0  0  0  0
   -2.1210    1.4587    0.0000 C   0  0  0  0  0  0  0  0  0
   -1.4065    1.8712    0.0000 N   0  0  0  0  0  0  0  0  0
   -1.4065    2.6962    0.0000 C   0  0  0  0  0  0  0  0  0
   -0.6920    3.1087    0.0000 C   0  0  0  0  0  0  0  0  0
    0.0224    2.6962    0.0000 N   0  0  0  0  0  0  0  0  0
    0.0224    1.8712    0.0000 C   0  0  0  0  0  0  0  0  0
   -0.6920    1.4587    0.0000 C   0  0  0  0  0  0  0  0  0
    0.7369    3.1087    0.0000 C   0  0  0  0  0  0  0  0  0
   -0.6920    3.9337    0.0000 C   0  0  0  0  0  0  0  0  0
   -2.1210    0.6337    0.0000 C   0  0  0  0  0  0  0  0  0
   -2.8354    0.2212    0.0000 C   0  0  0  0  0  0  0  0  0
   -4.9789   -1.0163    0.0000 C   0  0  0  0  0  0  0  0  0
   -5.6933   -0.6038    0.0000 C   0  0  0  0  0  0  0  0  0
   -4.9789   -1.8413    0.0000 C   0  0  0  0  0  0  0  0  0
   -5.6933   -2.2538    0.0000 C   0  0  0  0  0  0  0  0  0
  1  2  4  0  0  0  0
  1 27  4  0  0  0  0
  2  3  4  0  0  0  0
  2  7  4  0  0  0  0
  3  4  4  0  0  0  0
  3  9  4  0  0  0  0
  4  5  4  0  0  0  0
  5  6  4  0  0  0  0
  6  7  4  0  0  0  0
  7  8  1  0  0  0  0
  9 10  1  0  0  0  0
  9 25  4  0  0  0  0
 10 11  1  0  0  0  0
 11 12  4  0  0  0  0
 11 24  4  0  0  0  0
 12 13  4  0  0  0  0
 13 14  4  0  0  0  0
 14 15  1  0  0  0  0
 14 23  4  0  0  0  0
 15 16  1  0  0  0  0
 15 20  1  0  0  0  0
 16 17  1  0  0  0  0
 17 18  1  0  0  0  0
 17 22  1  0  0  0  0
 18 19  1  0  0  0  0
 18 21  1  0  0  0  0
 19 20  1  0  0  0  0
 23 24  4  0  0  0  0
 25 26  1  0  0  0  0
 25 27  4  0  0  0  0
 27 28  1  0  0  0  0
M  STY  1   1 DAT
M  SAL   1  1   1
M  SDT   1 MRV_IMPLICIT_H                                        
M  SDD   1     0.0000    0.0000    DR    ALL  0       0  
M  SED   1 IMPL_H1
M  END
>  <Name_Molregno>
360863

>  <Alpha-2A>
5.72

>  <Alpha-2B>
5.96

>  <Alpha-2C>
8.16

$$$$
360864
  Marvin  02231216192D 0   1.00000     0.00000     0

 29 32  0  0  0  0  0  0  0  0999 V2000
   -3.7146   -0.9286    0.0000 N   0  0  0  0  0  0  0  0  0
   -3.0001   -0.5161    0.0000 C   0  0  0  0  0  0  0  0  0
   -3.0001    0.3089    0.0000 C   0  0  0  0  0  0  0  0  0
   -2.2856    0.7214    0.0000 C   0  0  0  0  0  0  0  0  0
   -1.5712    0.3089    0.0000 C   0  0  0  0  0  0  0  0  0
   -1.5712   -0.5161    0.0000 C   0  0  0  0  0  0  0  0  0
   -2.2856   -0.9286    0.0000 C   0  0  0  0  0  0  0  0  0
   -2.2856   -1.7536    0.0000 C   0  0  0  0  0  0  0  0  0
   -3.7146    0.7214    0.0000 C   0  0  0  0  0  0  0  0  0
   -3.7146    1.5464    0.0000 N   0  0  0  0  0  0  0  0  0
   -3.0001    1.9589    0.0000 C   0  0  0  0  0  0  0  0  0
   -3.0001    2.7839    0.0000 C   0  0  0  0  0  0  0  0  0
   -2.2856    3.1964    0.0000 C   0  0  0  0  0  0  0  0  0
   -1.5712    2.7839    0.0000 C   0  0  0  0  0  0  0  0  0
   -0.8567    3.1964    0.0000 N   0  0  0  0  0  0  0  0  0
   -0.9183    4.0191    0.0000 C   0  0  0  0  0  0  0  0  0
   -0.3136    4.5803    0.0000 C   0  0  0  0  0  0  0  0  0
    0.5022    4.4573    0.0000 C   0  0  0  0  0  0  0  0  0
    0.9147    3.7428    0.0000 N   0  0  0  0  0  0  0  0  0
    0.6133    2.9748    0.0000 C   0  0  0  0  0  0  0  0  0
   -0.1750    2.7317    0.0000 C   0  0  0  0  0  0  0  0  0
    1.7374    3.8045    0.0000 C   0  0  0  0  0  0  0  0  0
   -1.5712    1.9589    0.0000 C   0  0  0  0  0  0  0  0  0
   -2.2856    1.5464    0.0000 C   0  0  0  0  0  0  0  0  0
   -4.4290    0.3089    0.0000 C   0  0  0  0  0  0  0  0  0
   -5.1435    0.7214    0.0000 C   0  0  0  0  0  0  0  0  0
   -5.8580    0.3089    0.0000 C   0  0  0  0  0  0  0  0  0
   -4.4290   -0.5161    0.0000 C   0  0  0  0  0  0  0  0  0
   -5.1435   -0.9286    0.0000 C   0  0  0  0  0  0  0  0  0
  1  2  4  0  0  0  0
  1 28  4  0  0  0  0
  2  3  4  0  0  0  0
  2  7  4  0  0  0  0
  3  4  4  0  0  0  0
  3  9  4  0  0  0  0
  4  5  4  0  0  0  0
  5  6  4  0  0  0  0
  6  7  4  0  0  0  0
  7  8  1  0  0  0  0
  9 10  1  0  0  0  0
  9 25  4  0  0  0  0
 10 11  1  0  0  0  0
 11 12  4  0  0  0  0
 11 24  4  0  0  0  0
 12 13  4  0  0  0  0
 13 14  4  0  0  0  0
 14 15  1  0  0  0  0
 14 23  4  0  0  0  0
 15 16  1  0  0  0  0
 15 21  1  0  0  0  0
 16 17  1  0  0  0  0
 17 18  1  0  0  0  0
 18 19  1  0  0  0  0
 19 20  1  0  0  0  0
 19 22  1  0  0  0  0
 20 21  1  0  0  0  0
 23 24  4  0  0  0  0
 25 26  1  0  0  0  0
 25 28  4  0  0  0  0
 26 27  1  0  0  0  0
 28 29  1  0  0  0  0
M  STY  1   1 DAT
M  SAL   1  1   1
M  SDT   1 MRV_IMPLICIT_H                                        
M  SDD   1     0.0000    0.0000    DR    ALL  0       0  
M  SED   1 IMPL_H1
M  END
>  <Name_Molregno>
360864

>  <Alpha-2A>
5.1

>  <Alpha-2B>
5.59

>  <Alpha-2C>
8.07

$$$$
360865
  Marvin  02231216192D 0   1.00000     0.00000     0

 29 32  0  0  0  0  0  0  0  0999 V2000
   -5.1383    0.0608    0.0000 F   0  0  0  0  0  0  0  0  0
   -4.4239    0.4733    0.0000 C   0  0  0  0  0  0  0  0  0
   -3.7094    0.0608    0.0000 C   0  0  0  0  0  0  0  0  0
   -2.9949    0.4733    0.0000 C   0  0  0  0  0  0  0  0  0
   -2.9949    1.2983    0.0000 C   0  0  0  0  0  0  0  0  0
   -2.2805    1.7108    0.0000 N   0  0  0  0  0  0  0  0  0
   -1.5660    1.2983    0.0000 C   0  0  0  0  0  0  0  0  0
   -1.5660    0.4733    0.0000 C   0  0  0  0  0  0  0  0  0
   -0.8515    0.0608    0.0000 C   0  0  0  0  0  0  0  0  0
   -0.8515   -0.7642    0.0000 O   0  0  0  0  0  0  0  0  0
   -2.2805    0.0608    0.0000 C   0  0  0  0  0  0  0  0  0
   -2.2805   -0.7642    0.0000 N   0  0  0  0  0  0  0  0  0
   -2.9949   -1.1767    0.0000 C   0  0  0  0  0  0  0  0  0
   -2.9949   -2.0017    0.0000 C   0  0  0  0  0  0  0  0  0
   -3.7094   -2.4142    0.0000 C   0  0  0  0  0  0  0  0  0
   -4.4239   -2.0017    0.0000 C   0  0  0  0  0  0  0  0  0
   -5.1383   -2.4142    0.0000 N   0  0  0  0  0  0  0  0  0
   -5.1383   -3.2392    0.0000 C   0  0  0  0  0  0  0  0  0
   -5.8528   -3.6517    0.0000 C   0  0  0  0  0  0  0  0  0
   -6.5673   -3.2392    0.0000 N   0  0  0  0  0  0  0  0  0
   -6.5673   -2.4142    0.0000 C   0  0  0  0  0  0  0  0  0
   -5.8528   -2.0017    0.0000 C   0  0  0  0  0  0  0  0  0
   -7.2818   -3.6517    0.0000 C   0  0  0  0  0  0  0  0  0
   -5.4655   -4.3801    0.0000 C   0  0  0  0  0  0  0  0  0
   -6.2401   -4.3801    0.0000 C   0  0  0  0  0  0  0  0  0
   -4.4239   -1.1767    0.0000 C   0  0  0  0  0  0  0  0  0
   -3.7094   -0.7642    0.0000 C   0  0  0  0  0  0  0  0  0
   -3.7094    1.7108    0.0000 C   0  0  0  0  0  0  0  0  0
   -4.4239    1.2983    0.0000 C   0  0  0  0  0  0  0  0  0
  1  2  1  0  0  0  0
  2  3  4  0  0  0  0
  2 29  4  0  0  0  0
  3  4  4  0  0  0  0
  4  5  4  0  0  0  0
  4 11  4  0  0  0  0
  5  6  4  0  0  0  0
  5 28  4  0  0  0  0
  6  7  4  0  0  0  0
  7  8  4  0  0  0  0
  8  9  1  0  0  0  0
  8 11  4  0  0  0  0
  9 10  1  0  0  0  0
 11 12  1  0  0  0  0
 12 13  1  0  0  0  0
 13 14  4  0  0  0  0
 13 27  4  0  0  0  0
 14 15  4  0  0  0  0
 15 16  4  0  0  0  0
 16 17  1  0  0  0  0
 16 26  4  0  0  0  0
 17 18  1  0  0  0  0
 17 22  1  0  0  0  0
 18 19  1  0  0  0  0
 19 20  1  0  0  0  0
 19 24  1  0  0  0  0
 19 25  1  0  0  0  0
 20 21  1  0  0  0  0
 20 23  1  0  0  0  0
 21 22  1  0  0  0  0
 26 27  4  0  0  0  0
 28 29  4  0  0  0  0
M  STY  1   1 DAT
M  SAL   1  1   6
M  SDT   1 MRV_IMPLICIT_H                                        
M  SDD   1     0.0000    0.0000    DR    ALL  0       0  
M  SED   1 IMPL_H1
M  END
>  <Name_Molregno>
360865

>  <Alpha-2A>
5.88

>  <Alpha-2B>
5.76

>  <Alpha-2C>
7.3

$$$$
360883
  Marvin  02231216192D 0   1.00000     0.00000     0

 29 33  0  0  1  0  0  0  0  0999 V2000
   -5.0889   -2.5262    0.0000 N   0  0  0  0  0  0  0  0  0
   -4.3744   -2.1137    0.0000 C   0  0  0  0  0  0  0  0  0
   -4.3744   -1.2887    0.0000 C   0  0  0  0  0  0  0  0  0
   -3.6599   -0.8762    0.0000 C   0  0  0  0  0  0  0  0  0
   -2.9454   -1.2887    0.0000 C   0  0  0  0  0  0  0  0  0
   -2.9454   -2.1137    0.0000 C   0  0  0  0  0  0  0  0  0
   -3.6599   -2.5262    0.0000 C   0  0  0  0  0  0  0  0  0
   -5.0889   -0.8762    0.0000 C   0  0  0  0  0  0  0  0  0
   -5.0889   -0.0512    0.0000 N   0  0  0  0  0  0  0  0  0
   -4.3744    0.3613    0.0000 C   0  0  0  0  0  0  0  0  0
   -4.3744    1.1863    0.0000 C   0  0  0  0  0  0  0  0  0
   -3.6599    1.5988    0.0000 C   0  0  0  0  0  0  0  0  0
   -2.9454    1.1863    0.0000 C   0  0  0  0  0  0  0  0  0
   -2.2310    1.5988    0.0000 N   0  0  0  0  0  0  0  0  0
   -1.5165    1.1863    0.0000 C   0  0  0  0  0  0  0  0  0
   -0.8020    1.5988    0.0000 C   0  0  0  0  0  0  0  0  0
   -0.8020    2.4238    0.0000 N   0  0  0  0  0  0  0  0  0
   -0.0876    2.8363    0.0000 C   0  0  0  0  0  0  0  0  0
    0.6269    2.4238    0.0000 C   0  0  0  0  0  0  0  0  0
    0.6269    1.5988    0.0000 C   0  0  0  0  0  0  0  0  0
   -0.0876    1.1863    0.0000 C   0  0  0  0  0  0  0  0  0
   -1.5165    2.8363    0.0000 C   0  0  0  0  0  0  0  0  0
   -2.2310    2.4238    0.0000 C   0  0  0  0  0  0  0  0  0
   -2.9454    0.3613    0.0000 C   0  0  0  0  0  0  0  0  0
   -3.6599   -0.0512    0.0000 C   0  0  0  0  0  0  0  0  0
   -5.8033   -1.2887    0.0000 C   0  0  0  0  0  0  0  0  0
   -6.5178   -0.8762    0.0000 C   0  0  0  0  0  0  0  0  0
   -5.8033   -2.1137    0.0000 C   0  0  0  0  0  0  0  0  0
   -6.5178   -2.5262    0.0000 C   0  0  0  0  0  0  0  0  0
  1  2  4  0  0  0  0
  1 28  4  0  0  0  0
  2  3  4  0  0  0  0
  2  7  4  0  0  0  0
  3  4  4  0  0  0  0
  3  8  4  0  0  0  0
  4  5  4  0  0  0  0
  5  6  4  0  0  0  0
  6  7  4  0  0  0  0
  8  9  1  0  0  0  0
  8 26  4  0  0  0  0
  9 10  1  0  0  0  0
 10 11  4  0  0  0  0
 10 25  4  0  0  0  0
 11 12  4  0  0  0  0
 12 13  4  0  0  0  0
 13 14  1  0  0  0  0
 13 24  4  0  0  0  0
 14 15  1  0  0  0  0
 14 23  1  0  0  0  0
 15 16  1  0  0  0  0
 16 17  1  0  0  0  0
 16 21  1  0  0  0  0
 17 18  1  0  0  0  0
 17 22  1  0  0  0  0
 18 19  1  0  0  0  0
 19 20  1  0  0  0  0
 20 21  1  0  0  0  0
 22 23  1  0  0  0  0
 24 25  4  0  0  0  0
 26 27  1  0  0  0  0
 26 28  4  0  0  0  0
 28 29  1  0  0  0  0
M  STY  1   1 DAT
M  SAL   1  1   1
M  SDT   1 MRV_IMPLICIT_H                                        
M  SDD   1     0.0000    0.0000    DR    ALL  0       0  
M  SED   1 IMPL_H1
M  END
>  <Name_Molregno>
360883

>  <Alpha-2A>
6.15

>  <Alpha-2B>
5.88

>  <Alpha-2C>
8.64

$$$$
360884
  Marvin  02231216192D 0   1.00000     0.00000     0

 28 31  0  0  1  0  0  0  0  0999 V2000
    4.0104   -2.2660    0.0000 N   0  0  0  0  0  0  0  0  0
    4.7248   -1.8535    0.0000 C   0  0  0  0  0  0  0  0  0
    4.7248   -1.0285    0.0000 C   0  0  0  0  0  0  0  0  0
    4.0104   -0.6160    0.0000 C   0  0  0  0  0  0  0  0  0
    4.0104    0.2090    0.0000 N   0  0  0  0  0  0  0  0  0
    3.2959    0.6215    0.0000 C   0  0  0  0  0  0  0  0  0
    2.5814    0.2090    0.0000 C   0  0  0  0  0  0  0  0  0
    1.8670    0.6215    0.0000 C   0  0  0  0  0  0  0  0  0
    1.8670    1.4465    0.0000 C   0  0  0  0  0  0  0  0  0
    1.1525    1.8590    0.0000 N   0  0  0  0  0  0  0  0  0
    0.4380    1.4465    0.0000 C   0  0  0  0  0  0  0  0  0
   -0.2765    1.8590    0.0000 C   0  0  0  0  0  0  0  0  0
   -0.2765    2.6840    0.0000 N   0  0  0  0  0  0  0  0  0
    0.4380    3.0965    0.0000 C   0  0  0  0  0  0  0  0  0
    1.1525    2.6840    0.0000 C   0  0  0  0  0  0  0  0  0
   -0.9909    3.0965    0.0000 C   0  0  0  0  0  0  0  0  0
   -0.9909    1.4465    0.0000 C   0  0  0  0  0  0  0  0  0
    2.5814    1.8590    0.0000 C   0  0  0  0  0  0  0  0  0
    3.2959    1.4465    0.0000 C   0  0  0  0  0  0  0  0  0
    3.2959   -1.0285    0.0000 C   0  0  0  0  0  0  0  0  0
    2.5814   -0.6160    0.0000 C   0  0  0  0  0  0  0  0  0
    3.2959   -1.8535    0.0000 C   0  0  0  0  0  0  0  0  0
    2.5814   -2.2660    0.0000 C   0  0  0  0  0  0  0  0  0
    5.4393   -0.6160    0.0000 C   0  0  0  0  0  0  0  0  0
    6.1538   -1.0285    0.0000 C   0  0  0  0  0  0  0  0  0
    6.1538   -1.8535    0.0000 C   0  0  0  0  0  0  0  0  0
    5.4393   -2.2660    0.0000 C   0  0  0  0  0  0  0  0  0
    5.4393    0.2090    0.0000 C   0  0  0  0  0  0  0  0  0
  1  2  4  0  0  0  0
  1 22  4  0  0  0  0
  2  3  4  0  0  0  0
  2 27  4  0  0  0  0
  3  4  4  0  0  0  0
  3 24  4  0  0  0  0
  4  5  1  0  0  0  0
  4 20  4  0  0  0  0
  5  6  1  0  0  0  0
  6  7  4  0  0  0  0
  6 19  4  0  0  0  0
  7  8  4  0  0  0  0
  8  9  4  0  0  0  0
  9 10  1  0  0  0  0
  9 18  4  0  0  0  0
 10 11  1  0  0  0  0
 10 15  1  0  0  0  0
 11 12  1  0  0  0  0
 12 13  1  0  0  0  0
 12 17  1  0  0  0  0
 13 14  1  0  0  0  0
 13 16  1  0  0  0  0
 14 15  1  0  0  0  0
 18 19  4  0  0  0  0
 20 21  1  0  0  0  0
 20 22  4  0  0  0  0
 22 23  1  0  0  0  0
 24 25  4  0  0  0  0
 24 28  1  0  0  0  0
 25 26  4  0  0  0  0
 26 27  4  0  0  0  0
M  STY  1   1 DAT
M  SAL   1  1   1
M  SDT   1 MRV_IMPLICIT_H                                        
M  SDD   1     0.0000    0.0000    DR    ALL  0       0  
M  SED   1 IMPL_H1
M  END
>  <Name_Molregno>
360884

>  <Alpha-2A>
6.17

>  <Alpha-2B>
5.69

>  <Alpha-2C>
7.06

$$$$
360885
  Marvin  02231216192D 0   1.00000     0.00000     0

 28 31  0  0  1  0  0  0  0  0999 V2000
   -2.1936   -1.5134    0.0000 O   0  0  0  0  0  0  0  0  0
   -2.1936   -2.3384    0.0000 C   0  0  0  0  0  0  0  0  0
   -1.4792   -2.7509    0.0000 C   0  0  0  0  0  0  0  0  0
   -1.4792   -3.5759    0.0000 C   0  0  0  0  0  0  0  0  0
   -0.7647   -3.9884    0.0000 N   0  0  0  0  0  0  0  0  0
   -0.0502   -3.5759    0.0000 C   0  0  0  0  0  0  0  0  0
   -0.0502   -2.7509    0.0000 C   0  0  0  0  0  0  0  0  0
    0.6643   -2.3384    0.0000 C   0  0  0  0  0  0  0  0  0
    1.3787   -2.7509    0.0000 C   0  0  0  0  0  0  0  0  0
    1.3787   -3.5759    0.0000 C   0  0  0  0  0  0  0  0  0
    0.6643   -3.9884    0.0000 C   0  0  0  0  0  0  0  0  0
   -0.7647   -2.3384    0.0000 C   0  0  0  0  0  0  0  0  0
   -0.7647   -1.5134    0.0000 N   0  0  0  0  0  0  0  0  0
   -0.0502   -1.1009    0.0000 C   0  0  0  0  0  0  0  0  0
   -0.0502   -0.2759    0.0000 C   0  0  0  0  0  0  0  0  0
    0.6643    0.1366    0.0000 C   0  0  0  0  0  0  0  0  0
    1.3787   -0.2759    0.0000 C   0  0  0  0  0  0  0  0  0
    2.0932    0.1366    0.0000 N   0  0  0  0  0  0  0  0  0
    2.0932    0.9616    0.0000 C   0  0  0  0  0  0  0  0  0
    2.8077    1.3741    0.0000 C   0  0  0  0  0  0  0  0  0
    3.5221    0.9616    0.0000 N   0  0  0  0  0  0  0  0  0
    3.5221    0.1366    0.0000 C   0  0  0  0  0  0  0  0  0
    2.8077   -0.2759    0.0000 C   0  0  0  0  0  0  0  0  0
    4.2366    1.3741    0.0000 C   0  0  0  0  0  0  0  0  0
    2.8077    2.1991    0.0000 C   0  0  0  0  0  0  0  0  0
    1.3787   -1.1009    0.0000 C   0  0  0  0  0  0  0  0  0
    0.6643   -1.5134    0.0000 C   0  0  0  0  0  0  0  0  0
   -2.1936   -3.9884    0.0000 C   0  0  0  0  0  0  0  0  0
  1  2  1  0  0  0  0
  2  3  1  0  0  0  0
  3  4  4  0  0  0  0
  3 12  4  0  0  0  0
  4  5  4  0  0  0  0
  4 28  1  0  0  0  0
  5  6  4  0  0  0  0
  6  7  4  0  0  0  0
  6 11  4  0  0  0  0
  7  8  4  0  0  0  0
  7 12  4  0  0  0  0
  8  9  4  0  0  0  0
  9 10  4  0  0  0  0
 10 11  4  0  0  0  0
 12 13  1  0  0  0  0
 13 14  1  0  0  0  0
 14 15  4  0  0  0  0
 14 27  4  0  0  0  0
 15 16  4  0  0  0  0
 16 17  4  0  0  0  0
 17 18  1  0  0  0  0
 17 26  4  0  0  0  0
 18 19  1  0  0  0  0
 18 23  1  0  0  0  0
 19 20  1  0  0  0  0
 20 21  1  0  0  0  0
 20 25  1  0  0  0  0
 21 22  1  0  0  0  0
 21 24  1  0  0  0  0
 22 23  1  0  0  0  0
 26 27  4  0  0  0  0
M  STY  1   1 DAT
M  SAL   1  1   5
M  SDT   1 MRV_IMPLICIT_H                                        
M  SDD   1     0.0000    0.0000    DR    ALL  0       0  
M  SED   1 IMPL_H1
M  END
>  <Name_Molregno>
360885

>  <Alpha-2A>
5.51

>  <Alpha-2B>
5

>  <Alpha-2C>
8.12

$$$$
360895
  Marvin  02231216192D 0   1.00000     0.00000     0

 27 30  0  0  0  0  0  0  0  0999 V2000
   -1.7123    2.6220    0.0000 N   0  0  0  0  0  0  0  0  0
   -2.4268    2.2095    0.0000 C   0  0  0  0  0  0  0  0  0
   -2.4268    1.3845    0.0000 C   0  0  0  0  0  0  0  0  0
   -3.1413    0.9720    0.0000 C   0  0  0  0  0  0  0  0  0
   -1.7123    0.9720    0.0000 C   0  0  0  0  0  0  0  0  0
   -1.7123    0.1470    0.0000 N   0  0  0  0  0  0  0  0  0
   -2.4268   -0.2655    0.0000 C   0  0  0  0  0  0  0  0  0
   -2.4268   -1.0905    0.0000 C   0  0  0  0  0  0  0  0  0
   -3.1413   -1.5030    0.0000 C   0  0  0  0  0  0  0  0  0
   -3.8558   -1.0905    0.0000 C   0  0  0  0  0  0  0  0  0
   -4.5702   -1.5030    0.0000 N   0  0  0  0  0  0  0  0  0
   -4.5702   -2.3280    0.0000 C   0  0  0  0  0  0  0  0  0
   -5.2847   -2.7405    0.0000 C   0  0  0  0  0  0  0  0  0
   -5.9992   -2.3280    0.0000 N   0  0  0  0  0  0  0  0  0
   -5.9992   -1.5030    0.0000 C   0  0  0  0  0  0  0  0  0
   -5.2847   -1.0905    0.0000 C   0  0  0  0  0  0  0  0  0
   -6.7136   -2.7405    0.0000 C   0  0  0  0  0  0  0  0  0
   -4.8974   -3.4689    0.0000 C   0  0  0  0  0  0  0  0  0
   -5.6720   -3.4689    0.0000 C   0  0  0  0  0  0  0  0  0
   -3.8558   -0.2655    0.0000 C   0  0  0  0  0  0  0  0  0
   -3.1413    0.1470    0.0000 C   0  0  0  0  0  0  0  0  0
   -0.9979    1.3845    0.0000 C   0  0  0  0  0  0  0  0  0
   -0.9979    2.2095    0.0000 C   0  0  0  0  0  0  0  0  0
   -0.2834    2.6220    0.0000 C   0  0  0  0  0  0  0  0  0
    0.4311    2.2095    0.0000 C   0  0  0  0  0  0  0  0  0
    0.4311    1.3845    0.0000 C   0  0  0  0  0  0  0  0  0
   -0.2834    0.9720    0.0000 C   0  0  0  0  0  0  0  0  0
  1  2  4  0  0  0  0
  1 23  4  0  0  0  0
  2  3  4  0  0  0  0
  3  4  1  0  0  0  0
  3  5  4  0  0  0  0
  5  6  1  0  0  0  0
  5 22  4  0  0  0  0
  6  7  1  0  0  0  0
  7  8  4  0  0  0  0
  7 21  4  0  0  0  0
  8  9  4  0  0  0  0
  9 10  4  0  0  0  0
 10 11  1  0  0  0  0
 10 20  4  0  0  0  0
 11 12  1  0  0  0  0
 11 16  1  0  0  0  0
 12 13  1  0  0  0  0
 13 14  1  0  0  0  0
 13 18  1  0  0  0  0
 13 19  1  0  0  0  0
 14 15  1  0  0  0  0
 14 17  1  0  0  0  0
 15 16  1  0  0  0  0
 20 21  4  0  0  0  0
 22 23  4  0  0  0  0
 22 27  4  0  0  0  0
 23 24  4  0  0  0  0
 24 25  4  0  0  0  0
 25 26  4  0  0  0  0
 26 27  4  0  0  0  0
M  STY  1   1 DAT
M  SAL   1  1   1
M  SDT   1 MRV_IMPLICIT_H                                        
M  SDD   1     0.0000    0.0000    DR    ALL  0       0  
M  SED   1 IMPL_H1
M  END
>  <Name_Molregno>
360895

>  <Alpha-2A>
6.05

>  <Alpha-2B>
5.9

>  <Alpha-2C>
8.27

$$$$
360896
  Marvin  02231216192D 0   1.00000     0.00000     0

 29 32  0  0  1  0  0  0  0  0999 V2000
    3.7261   -2.1046    0.0000 N   0  0  0  0  0  0  0  0  0
    4.4406   -1.6921    0.0000 C   0  0  0  0  0  0  0  0  0
    4.4406   -0.8671    0.0000 C   0  0  0  0  0  0  0  0  0
    3.7261   -0.4546    0.0000 C   0  0  0  0  0  0  0  0  0
    3.7261    0.3704    0.0000 N   0  0  0  0  0  0  0  0  0
    3.0116    0.7829    0.0000 C   0  0  0  0  0  0  0  0  0
    2.2972    0.3704    0.0000 C   0  0  0  0  0  0  0  0  0
    1.5827    0.7829    0.0000 C   0  0  0  0  0  0  0  0  0
    1.5827    1.6079    0.0000 C   0  0  0  0  0  0  0  0  0
    0.8682    2.0204    0.0000 N   0  0  0  0  0  0  0  0  0
    0.1537    1.6079    0.0000 C   0  0  0  0  0  0  0  0  0
   -0.5607    2.0204    0.0000 C   0  0  0  0  0  0  0  0  0
   -0.5607    2.8454    0.0000 N   0  0  0  0  0  0  0  0  0
    0.1537    3.2579    0.0000 C   0  0  0  0  0  0  0  0  0
    0.8682    2.8454    0.0000 C   0  0  0  0  0  0  0  0  0
   -1.2752    3.2579    0.0000 C   0  0  0  0  0  0  0  0  0
   -1.2752    1.6079    0.0000 C   0  0  0  0  0  0  0  0  0
    2.2972    2.0204    0.0000 C   0  0  0  0  0  0  0  0  0
    3.0116    1.6079    0.0000 C   0  0  0  0  0  0  0  0  0
    3.0116   -0.8671    0.0000 C   0  0  0  0  0  0  0  0  0
    2.2972   -0.4546    0.0000 C   0  0  0  0  0  0  0  0  0
    3.0116   -1.6921    0.0000 C   0  0  0  0  0  0  0  0  0
    2.2972   -2.1046    0.0000 C   0  0  0  0  0  0  0  0  0
    5.1550   -0.4546    0.0000 C   0  0  0  0  0  0  0  0  0
    5.8695   -0.8671    0.0000 C   0  0  0  0  0  0  0  0  0
    5.8695   -1.6921    0.0000 C   0  0  0  0  0  0  0  0  0
    5.1550   -2.1046    0.0000 C   0  0  0  0  0  0  0  0  0
    6.5840   -2.1046    0.0000 C   0  0  0  0  0  0  0  0  0
    5.1550    0.3704    0.0000 C   0  0  0  0  0  0  0  0  0
  1  2  4  0  0  0  0
  1 22  4  0  0  0  0
  2  3  4  0  0  0  0
  2 27  4  0  0  0  0
  3  4  4  0  0  0  0
  3 24  4  0  0  0  0
  4  5  1  0  0  0  0
  4 20  4  0  0  0  0
  5  6  1  0  0  0  0
  6  7  4  0  0  0  0
  6 19  4  0  0  0  0
  7  8  4  0  0  0  0
  8  9  4  0  0  0  0
  9 10  1  0  0  0  0
  9 18  4  0  0  0  0
 10 11  1  0  0  0  0
 10 15  1  0  0  0  0
 11 12  1  0  0  0  0
 12 13  1  0  0  0  0
 12 17  1  0  0  0  0
 13 14  1  0  0  0  0
 13 16  1  0  0  0  0
 14 15  1  0  0  0  0
 18 19  4  0  0  0  0
 20 21  1  0  0  0  0
 20 22  4  0  0  0  0
 22 23  1  0  0  0  0
 24 25  4  0  0  0  0
 24 29  1  0  0  0  0
 25 26  4  0  0  0  0
 26 27  4  0  0  0  0
 26 28  1  0  0  0  0
M  STY  1   1 DAT
M  SAL   1  1   1
M  SDT   1 MRV_IMPLICIT_H                                        
M  SDD   1     0.0000    0.0000    DR    ALL  0       0  
M  SED   1 IMPL_H1
M  END
>  <Name_Molregno>
360896

>  <Alpha-2A>
6.19

>  <Alpha-2B>
6.04

>  <Alpha-2C>
6.88

$$$$
360897
  Marvin  02231216192D 0   1.00000     0.00000     0

 29 32  0  0  0  0  0  0  0  0999 V2000
   -2.1260   -1.6191    0.0000 O   0  0  0  0  0  0  0  0  0
   -2.1260   -2.4441    0.0000 C   0  0  0  0  0  0  0  0  0
   -1.4116   -2.8566    0.0000 C   0  0  0  0  0  0  0  0  0
   -1.4116   -3.6816    0.0000 C   0  0  0  0  0  0  0  0  0
   -0.6971   -4.0941    0.0000 N   0  0  0  0  0  0  0  0  0
    0.0174   -3.6816    0.0000 C   0  0  0  0  0  0  0  0  0
    0.0174   -2.8566    0.0000 C   0  0  0  0  0  0  0  0  0
    0.7319   -2.4441    0.0000 C   0  0  0  0  0  0  0  0  0
    1.4463   -2.8566    0.0000 C   0  0  0  0  0  0  0  0  0
    1.4463   -3.6816    0.0000 C   0  0  0  0  0  0  0  0  0
    0.7319   -4.0941    0.0000 C   0  0  0  0  0  0  0  0  0
   -0.6971   -2.4441    0.0000 C   0  0  0  0  0  0  0  0  0
   -0.6971   -1.6191    0.0000 N   0  0  0  0  0  0  0  0  0
    0.0174   -1.2066    0.0000 C   0  0  0  0  0  0  0  0  0
    0.0174   -0.3816    0.0000 C   0  0  0  0  0  0  0  0  0
    0.7319    0.0309    0.0000 C   0  0  0  0  0  0  0  0  0
    1.4463   -0.3816    0.0000 C   0  0  0  0  0  0  0  0  0
    2.1608    0.0309    0.0000 N   0  0  0  0  0  0  0  0  0
    2.1608    0.8559    0.0000 C   0  0  0  0  0  0  0  0  0
    2.8753    1.2684    0.0000 C   0  0  0  0  0  0  0  0  0
    3.5897    0.8559    0.0000 N   0  0  0  0  0  0  0  0  0
    3.5897    0.0309    0.0000 C   0  0  0  0  0  0  0  0  0
    2.8753   -0.3816    0.0000 C   0  0  0  0  0  0  0  0  0
    4.3042    1.2684    0.0000 C   0  0  0  0  0  0  0  0  0
    2.4880    1.9968    0.0000 C   0  0  0  0  0  0  0  0  0
    3.2626    1.9968    0.0000 C   0  0  0  0  0  0  0  0  0
    1.4463   -1.2066    0.0000 C   0  0  0  0  0  0  0  0  0
    0.7319   -1.6191    0.0000 C   0  0  0  0  0  0  0  0  0
   -2.1260   -4.0941    0.0000 C   0  0  0  0  0  0  0  0  0
  1  2  1  0  0  0  0
  2  3  1  0  0  0  0
  3  4  4  0  0  0  0
  3 12  4  0  0  0  0
  4  5  4  0  0  0  0
  4 29  1  0  0  0  0
  5  6  4  0  0  0  0
  6  7  4  0  0  0  0
  6 11  4  0  0  0  0
  7  8  4  0  0  0  0
  7 12  4  0  0  0  0
  8  9  4  0  0  0  0
  9 10  4  0  0  0  0
 10 11  4  0  0  0  0
 12 13  1  0  0  0  0
 13 14  1  0  0  0  0
 14 15  4  0  0  0  0
 14 28  4  0  0  0  0
 15 16  4  0  0  0  0
 16 17  4  0  0  0  0
 17 18  1  0  0  0  0
 17 27  4  0  0  0  0
 18 19  1  0  0  0  0
 18 23  1  0  0  0  0
 19 20  1  0  0  0  0
 20 21  1  0  0  0  0
 20 25  1  0  0  0  0
 20 26  1  0  0  0  0
 21 22  1  0  0  0  0
 21 24  1  0  0  0  0
 22 23  1  0  0  0  0
 27 28  4  0  0  0  0
M  STY  1   1 DAT
M  SAL   1  1   5
M  SDT   1 MRV_IMPLICIT_H                                        
M  SDD   1     0.0000    0.0000    DR    ALL  0       0  
M  SED   1 IMPL_H1
M  END
>  <Name_Molregno>
360897

>  <Alpha-2A>
5.93

>  <Alpha-2B>
5.83

>  <Alpha-2C>
8.42

$$$$
361616
  Marvin  02231216192D 0   1.00000     0.00000     0

 20 23  0  0  1  0  0  0  0  0999 V2000
   -0.8000    2.9458    0.0000 O   0  0  0  0  0  0  0  0  0
   -0.0855    3.3583    0.0000 C   0  0  0  0  0  0  0  0  0
    0.6290    2.9458    0.0000 C   0  0  0  0  0  0  0  0  0
    1.3435    3.3583    0.0000 N   0  0  0  0  0  0  0  0  0
    2.0579    2.9458    0.0000 C   0  0  0  0  0  0  0  0  0
    2.0579    2.1208    0.0000 C   0  0  0  0  0  0  0  0  0
    1.3435    1.7083    0.0000 C   0  0  0  0  0  0  0  0  0
    0.6290    2.1208    0.0000 C   0  0  0  0  0  0  0  0  0
   -0.0855    1.7083    0.0000 C   0  0  0  0  0  0  0  0  0
   -0.0855    0.8833    0.0000 C   0  0  0  0  0  0  0  0  0
   -0.8000    0.4708    0.0000 C   0  0  0  0  0  0  0  0  0
   -0.8000   -0.3542    0.0000 O   0  0  0  0  0  0  0  0  0
   -1.5144    0.8833    0.0000 C   0  0  0  0  0  0  0  0  0
   -2.2289    0.4708    0.0000 O   0  0  0  0  0  0  0  0  0
   -1.5144    1.7083    0.0000 C   0  0  0  0  0  0  0  0  0
   -0.8000    2.1208    0.0000 C   0  0  0  0  0  0  0  0  0
    1.3435    0.8833    0.0000 C   0  0  0  0  0  0  0  0  0
    2.0579    0.4708    0.0000 C   0  0  0  0  0  0  0  0  0
    2.7724    0.8833    0.0000 C   0  0  0  0  0  0  0  0  0
    2.7724    1.7083    0.0000 C   0  0  0  0  0  0  0  0  0
  1  2  1  0  0  0  0
  1 16  1  0  0  0  0
  2  3  1  0  0  0  0
  3  4  1  0  0  0  0
  3  8  1  0  0  0  0
  4  5  1  0  0  0  0
  5  6  1  0  0  0  0
  6  7  4  0  0  0  0
  6 20  4  0  0  0  0
  7  8  1  0  0  0  0
  7 17  4  0  0  0  0
  8  9  1  0  0  0  0
  9 10  4  0  0  0  0
  9 16  4  0  0  0  0
 10 11  4  0  0  0  0
 11 12  1  0  0  0  0
 11 13  4  0  0  0  0
 13 14  1  0  0  0  0
 13 15  4  0  0  0  0
 15 16  4  0  0  0  0
 17 18  4  0  0  0  0
 18 19  4  0  0  0  0
 19 20  4  0  0  0  0
M  END
>  <Name_Molregno>
361616

>  <Alpha-2A>
6.74

>  <Alpha-2B>
8

>  <Alpha-2C>
8.7

>  <DOPAMINE D1>
7.01

>  <DOPAMINE D2>
5.72

>  <DOPAMINE D3>
6.41

>  <DOPAMINE D4>
7.05

>  <DOPAMINE D5>
8.15

$$$$
372877
  Marvin  02231216192D 0   1.00000     0.00000     0

 19 21  0  0  1  0  0  0  0  0999 V2000
   -1.0740   -2.2974    0.0000 S   0  0  0  0  0  0  0  0  0
   -1.3289   -3.0820    0.0000 C   0  0  0  0  0  0  0  0  0
   -2.1539   -3.0820    0.0000 C   0  0  0  0  0  0  0  0  0
   -2.4089   -2.2974    0.0000 C   0  0  0  0  0  0  0  0  0
   -1.7414   -1.8125    0.0000 C   0  0  0  0  0  0  0  0  0
   -1.7414   -0.9875    0.0000 C   0  0  0  0  0  0  0  0  0
   -2.4559   -0.5750    0.0000 C   0  0  0  0  0  0  0  0  0
   -2.4559    0.2500    0.0000 C   0  0  0  0  0  0  0  0  0
   -1.7414    0.6625    0.0000 C   0  0  0  0  0  0  0  0  0
   -1.0270    0.2500    0.0000 C   0  0  0  0  0  0  0  0  0
   -1.0270   -0.5750    0.0000 C   0  0  0  0  0  0  0  0  0
   -0.3125   -0.9875    0.0000 O   0  0  0  0  0  0  0  0  0
    0.4020   -0.5750    0.0000 C   0  0  0  0  0  0  0  0  0
    0.4020    0.2500    0.0000 C   0  0  0  0  0  0  0  0  0
    1.1165   -0.9875    0.0000 C   0  0  0  0  0  0  0  0  0
    1.8701   -0.6519    0.0000 N   0  0  0  0  0  0  0  0  0
    2.4222   -1.2650    0.0000 C   0  0  0  0  0  0  0  0  0
    2.0097   -1.9795    0.0000 C   0  0  0  0  0  0  0  0  0
    1.2027   -1.8079    0.0000 N   0  0  0  0  0  0  0  0  0
  1  2  4  0  0  0  0
  1  5  4  0  0  0  0
  2  3  4  0  0  0  0
  3  4  4  0  0  0  0
  4  5  4  0  0  0  0
  5  6  1  0  0  0  0
  6  7  4  0  0  0  0
  6 11  4  0  0  0  0
  7  8  4  0  0  0  0
  8  9  4  0  0  0  0
  9 10  4  0  0  0  0
 10 11  4  0  0  0  0
 11 12  1  0  0  0  0
 12 13  1  0  0  0  0
 13 14  1  0  0  0  0
 13 15  1  0  0  0  0
 15 16  1  0  0  0  0
 15 19  2  0  0  0  0
 16 17  1  0  0  0  0
 17 18  1  0  0  0  0
 18 19  1  0  0  0  0
M  END
>  <Name_Molregno>
372877

>  <Alpha-2A>
7.77

>  <Alpha-2B>
6.67

>  <Alpha-2C>
7.14

$$$$
372878
  Marvin  02231216192D 0   1.00000     0.00000     0

 19 21  0  0  1  0  0  0  0  0999 V2000
   -1.7400    0.1001    0.0000 S   0  0  0  0  0  0  0  0  0
   -1.9949    0.8847    0.0000 C   0  0  0  0  0  0  0  0  0
   -1.3275    1.3697    0.0000 C   0  0  0  0  0  0  0  0  0
   -0.6600    0.8847    0.0000 C   0  0  0  0  0  0  0  0  0
   -0.9150    0.1001    0.0000 C   0  0  0  0  0  0  0  0  0
   -1.3275    2.1947    0.0000 C   0  0  0  0  0  0  0  0  0
   -2.0420    2.6072    0.0000 C   0  0  0  0  0  0  0  0  0
   -2.0420    3.4322    0.0000 C   0  0  0  0  0  0  0  0  0
   -1.3275    3.8447    0.0000 C   0  0  0  0  0  0  0  0  0
   -0.6130    3.4322    0.0000 C   0  0  0  0  0  0  0  0  0
   -0.6130    2.6072    0.0000 C   0  0  0  0  0  0  0  0  0
    0.1015    2.1947    0.0000 O   0  0  0  0  0  0  0  0  0
    0.8159    2.6072    0.0000 C   0  0  0  0  0  0  0  0  0
    0.8159    3.4322    0.0000 C   0  0  0  0  0  0  0  0  0
    1.5304    2.1947    0.0000 C   0  0  0  0  0  0  0  0  0
    2.2841    2.5302    0.0000 N   0  0  0  0  0  0  0  0  0
    2.8361    1.9171    0.0000 C   0  0  0  0  0  0  0  0  0
    2.4236    1.2026    0.0000 C   0  0  0  0  0  0  0  0  0
    1.6166    1.3742    0.0000 N   0  0  0  0  0  0  0  0  0
  1  2  4  0  0  0  0
  1  5  4  0  0  0  0
  2  3  4  0  0  0  0
  3  4  4  0  0  0  0
  3  6  1  0  0  0  0
  4  5  4  0  0  0  0
  6  7  4  0  0  0  0
  6 11  4  0  0  0  0
  7  8  4  0  0  0  0
  8  9  4  0  0  0  0
  9 10  4  0  0  0  0
 10 11  4  0  0  0  0
 11 12  1  0  0  0  0
 12 13  1  0  0  0  0
 13 14  1  0  0  0  0
 13 15  1  0  0  0  0
 15 16  1  0  0  0  0
 15 19  2  0  0  0  0
 16 17  1  0  0  0  0
 17 18  1  0  0  0  0
 18 19  1  0  0  0  0
M  END
>  <Name_Molregno>
372878

>  <Alpha-2A>
7.34

>  <Alpha-2B>
6.38

>  <Alpha-2C>
6.88

$$$$
372879
  Marvin  02231216192D 0   1.00000     0.00000     0

 21 23  0  0  1  0  0  0  0  0999 V2000
   -0.7629    0.1853    0.0000 O   0  0  0  0  0  0  0  0  0
   -1.4774   -0.2272    0.0000 C   0  0  0  0  0  0  0  0  0
   -2.1919    0.1853    0.0000 C   0  0  0  0  0  0  0  0  0
   -1.4774   -1.0522    0.0000 C   0  0  0  0  0  0  0  0  0
   -0.8100   -1.5371    0.0000 N   0  0  0  0  0  0  0  0  0
   -1.0649   -2.3217    0.0000 C   0  0  0  0  0  0  0  0  0
   -1.8899   -2.3217    0.0000 C   0  0  0  0  0  0  0  0  0
   -2.1448   -1.5371    0.0000 N   0  0  0  0  0  0  0  0  0
   -0.7629    1.0103    0.0000 C   0  0  0  0  0  0  0  0  0
   -1.4774    1.4228    0.0000 C   0  0  0  0  0  0  0  0  0
   -1.4774    2.2478    0.0000 C   0  0  0  0  0  0  0  0  0
   -0.7629    2.6603    0.0000 C   0  0  0  0  0  0  0  0  0
   -0.0484    2.2478    0.0000 C   0  0  0  0  0  0  0  0  0
   -0.0484    1.4228    0.0000 C   0  0  0  0  0  0  0  0  0
    0.6660    1.0103    0.0000 C   0  0  0  0  0  0  0  0  0
    1.3805    1.4228    0.0000 C   0  0  0  0  0  0  0  0  0
    2.0950    1.0103    0.0000 C   0  0  0  0  0  0  0  0  0
    2.0950    0.1853    0.0000 C   0  0  0  0  0  0  0  0  0
    1.3805   -0.2272    0.0000 C   0  0  0  0  0  0  0  0  0
    0.6660    0.1853    0.0000 C   0  0  0  0  0  0  0  0  0
   -0.0484   -0.2272    0.0000 C   0  0  0  0  0  0  0  0  0
  1  2  1  0  0  0  0
  1  9  1  0  0  0  0
  2  3  1  0  0  0  0
  2  4  1  0  0  0  0
  4  5  1  0  0  0  0
  4  8  2  0  0  0  0
  5  6  1  0  0  0  0
  6  7  1  0  0  0  0
  7  8  1  0  0  0  0
  9 10  4  0  0  0  0
  9 14  4  0  0  0  0
 10 11  4  0  0  0  0
 11 12  4  0  0  0  0
 12 13  4  0  0  0  0
 13 14  4  0  0  0  0
 14 15  1  0  0  0  0
 15 16  4  0  0  0  0
 15 20  4  0  0  0  0
 16 17  4  0  0  0  0
 17 18  4  0  0  0  0
 18 19  4  0  0  0  0
 19 20  4  0  0  0  0
 20 21  1  0  0  0  0
M  END
>  <Name_Molregno>
372879

>  <Alpha-2A>
7.33

>  <Alpha-2B>
6.08

>  <Alpha-2C>
6.63

$$$$
372886
  Marvin  02231216192D 0   1.00000     0.00000     0

 21 23  0  0  1  0  0  0  0  0999 V2000
   -0.8967   -0.5192    0.0000 O   0  0  0  0  0  0  0  0  0
   -1.6112   -0.9317    0.0000 C   0  0  0  0  0  0  0  0  0
   -2.3257   -0.5192    0.0000 C   0  0  0  0  0  0  0  0  0
   -1.6112   -1.7567    0.0000 C   0  0  0  0  0  0  0  0  0
   -0.9437   -2.2417    0.0000 N   0  0  0  0  0  0  0  0  0
   -1.1987   -3.0263    0.0000 C   0  0  0  0  0  0  0  0  0
   -2.0237   -3.0263    0.0000 C   0  0  0  0  0  0  0  0  0
   -2.2786   -2.2417    0.0000 N   0  0  0  0  0  0  0  0  0
   -0.8967    0.3058    0.0000 C   0  0  0  0  0  0  0  0  0
   -1.6112    0.7183    0.0000 C   0  0  0  0  0  0  0  0  0
   -1.6112    1.5433    0.0000 C   0  0  0  0  0  0  0  0  0
   -0.8967    1.9558    0.0000 C   0  0  0  0  0  0  0  0  0
   -0.1822    1.5433    0.0000 C   0  0  0  0  0  0  0  0  0
   -0.1822    0.7183    0.0000 C   0  0  0  0  0  0  0  0  0
    0.5322    0.3058    0.0000 C   0  0  0  0  0  0  0  0  0
    1.2467    0.7183    0.0000 C   0  0  0  0  0  0  0  0  0
    1.9612    0.3058    0.0000 C   0  0  0  0  0  0  0  0  0
    1.9612   -0.5192    0.0000 C   0  0  0  0  0  0  0  0  0
    1.2467   -0.9317    0.0000 C   0  0  0  0  0  0  0  0  0
    0.5322   -0.5192    0.0000 C   0  0  0  0  0  0  0  0  0
    2.6756    0.7183    0.0000 C   0  0  0  0  0  0  0  0  0
  1  2  1  0  0  0  0
  1  9  1  0  0  0  0
  2  3  1  0  0  0  0
  2  4  1  0  0  0  0
  4  5  1  0  0  0  0
  4  8  2  0  0  0  0
  5  6  1  0  0  0  0
  6  7  1  0  0  0  0
  7  8  1  0  0  0  0
  9 10  4  0  0  0  0
  9 14  4  0  0  0  0
 10 11  4  0  0  0  0
 11 12  4  0  0  0  0
 12 13  4  0  0  0  0
 13 14  4  0  0  0  0
 14 15  1  0  0  0  0
 15 16  4  0  0  0  0
 15 20  4  0  0  0  0
 16 17  4  0  0  0  0
 17 18  4  0  0  0  0
 17 21  1  0  0  0  0
 18 19  4  0  0  0  0
 19 20  4  0  0  0  0
M  END
>  <Name_Molregno>
372886

>  <Alpha-2A>
7.29

>  <Alpha-2B>
6.27

>  <Alpha-2C>
6.61

$$$$
372887
  Marvin  02231216192D 0   1.00000     0.00000     0

 21 23  0  0  1  0  0  0  0  0999 V2000
   -0.8340    0.2987    0.0000 O   0  0  0  0  0  0  0  0  0
   -1.5484   -0.1138    0.0000 C   0  0  0  0  0  0  0  0  0
   -2.2629    0.2987    0.0000 C   0  0  0  0  0  0  0  0  0
   -1.5484   -0.9388    0.0000 C   0  0  0  0  0  0  0  0  0
   -0.8810   -1.4237    0.0000 N   0  0  0  0  0  0  0  0  0
   -1.1359   -2.2083    0.0000 C   0  0  0  0  0  0  0  0  0
   -1.9609   -2.2083    0.0000 C   0  0  0  0  0  0  0  0  0
   -2.2159   -1.4237    0.0000 N   0  0  0  0  0  0  0  0  0
   -0.8340    1.1237    0.0000 C   0  0  0  0  0  0  0  0  0
   -1.5484    1.5362    0.0000 C   0  0  0  0  0  0  0  0  0
   -1.5484    2.3612    0.0000 C   0  0  0  0  0  0  0  0  0
   -0.8340    2.7737    0.0000 C   0  0  0  0  0  0  0  0  0
   -0.1195    2.3612    0.0000 C   0  0  0  0  0  0  0  0  0
   -0.1195    1.5362    0.0000 C   0  0  0  0  0  0  0  0  0
    0.5950    1.1237    0.0000 C   0  0  0  0  0  0  0  0  0
    1.3095    1.5362    0.0000 C   0  0  0  0  0  0  0  0  0
    2.0239    1.1237    0.0000 C   0  0  0  0  0  0  0  0  0
    2.0239    0.2987    0.0000 C   0  0  0  0  0  0  0  0  0
    1.3095   -0.1138    0.0000 C   0  0  0  0  0  0  0  0  0
    0.5950    0.2987    0.0000 C   0  0  0  0  0  0  0  0  0
    2.7384   -0.1138    0.0000 C   0  0  0  0  0  0  0  0  0
  1  2  1  0  0  0  0
  1  9  1  0  0  0  0
  2  3  1  0  0  0  0
  2  4  1  0  0  0  0
  4  5  1  0  0  0  0
  4  8  2  0  0  0  0
  5  6  1  0  0  0  0
  6  7  1  0  0  0  0
  7  8  1  0  0  0  0
  9 10  4  0  0  0  0
  9 14  4  0  0  0  0
 10 11  4  0  0  0  0
 11 12  4  0  0  0  0
 12 13  4  0  0  0  0
 13 14  4  0  0  0  0
 14 15  1  0  0  0  0
 15 16  4  0  0  0  0
 15 20  4  0  0  0  0
 16 17  4  0  0  0  0
 17 18  4  0  0  0  0
 18 19  4  0  0  0  0
 18 21  1  0  0  0  0
 19 20  4  0  0  0  0
M  END
>  <Name_Molregno>
372887

>  <Alpha-2A>
7.38

>  <Alpha-2B>
6.4

>  <Alpha-2C>
6.6

$$$$
372888
  Marvin  02231216192D 0   1.00000     0.00000     0

 21 23  0  0  1  0  0  0  0  0999 V2000
   -0.7629    0.1853    0.0000 O   0  0  0  0  0  0  0  0  0
   -1.4774   -0.2272    0.0000 C   0  0  0  0  0  0  0  0  0
   -2.1919    0.1853    0.0000 C   0  0  0  0  0  0  0  0  0
   -1.4774   -1.0522    0.0000 C   0  0  0  0  0  0  0  0  0
   -0.8100   -1.5371    0.0000 N   0  0  0  0  0  0  0  0  0
   -1.0649   -2.3217    0.0000 C   0  0  0  0  0  0  0  0  0
   -1.8899   -2.3217    0.0000 C   0  0  0  0  0  0  0  0  0
   -2.1448   -1.5371    0.0000 N   0  0  0  0  0  0  0  0  0
   -0.7629    1.0103    0.0000 C   0  0  0  0  0  0  0  0  0
   -1.4774    1.4228    0.0000 C   0  0  0  0  0  0  0  0  0
   -1.4774    2.2478    0.0000 C   0  0  0  0  0  0  0  0  0
   -0.7629    2.6603    0.0000 C   0  0  0  0  0  0  0  0  0
   -0.0484    2.2478    0.0000 C   0  0  0  0  0  0  0  0  0
   -0.0484    1.4228    0.0000 C   0  0  0  0  0  0  0  0  0
    0.6660    1.0103    0.0000 C   0  0  0  0  0  0  0  0  0
    1.3805    1.4228    0.0000 C   0  0  0  0  0  0  0  0  0
    2.0950    1.0103    0.0000 C   0  0  0  0  0  0  0  0  0
    2.0950    0.1853    0.0000 C   0  0  0  0  0  0  0  0  0
    1.3805   -0.2272    0.0000 C   0  0  0  0  0  0  0  0  0
    0.6660    0.1853    0.0000 C   0  0  0  0  0  0  0  0  0
   -0.0484   -0.2272    0.0000 O   0  0  0  0  0  0  0  0  0
  1  2  1  0  0  0  0
  1  9  1  0  0  0  0
  2  3  1  0  0  0  0
  2  4  1  0  0  0  0
  4  5  1  0  0  0  0
  4  8  2  0  0  0  0
  5  6  1  0  0  0  0
  6  7  1  0  0  0  0
  7  8  1  0  0  0  0
  9 10  4  0  0  0  0
  9 14  4  0  0  0  0
 10 11  4  0  0  0  0
 11 12  4  0  0  0  0
 12 13  4  0  0  0  0
 13 14  4  0  0  0  0
 14 15  1  0  0  0  0
 15 16  4  0  0  0  0
 15 20  4  0  0  0  0
 16 17  4  0  0  0  0
 17 18  4  0  0  0  0
 18 19  4  0  0  0  0
 19 20  4  0  0  0  0
 20 21  1  0  0  0  0
M  END
>  <Name_Molregno>
372888

>  <Alpha-2A>
6.51

>  <Alpha-2B>
6

>  <Alpha-2C>
5.79

$$$$
372894
  Marvin  02231216192D 0   1.00000     0.00000     0

 21 23  0  0  1  0  0  0  0  0999 V2000
   -0.8967   -0.5192    0.0000 O   0  0  0  0  0  0  0  0  0
   -1.6112   -0.9317    0.0000 C   0  0  0  0  0  0  0  0  0
   -2.3257   -0.5192    0.0000 C   0  0  0  0  0  0  0  0  0
   -1.6112   -1.7567    0.0000 C   0  0  0  0  0  0  0  0  0
   -0.9437   -2.2417    0.0000 N   0  0  0  0  0  0  0  0  0
   -1.1987   -3.0263    0.0000 C   0  0  0  0  0  0  0  0  0
   -2.0237   -3.0263    0.0000 C   0  0  0  0  0  0  0  0  0
   -2.2786   -2.2417    0.0000 N   0  0  0  0  0  0  0  0  0
   -0.8967    0.3058    0.0000 C   0  0  0  0  0  0  0  0  0
   -1.6112    0.7183    0.0000 C   0  0  0  0  0  0  0  0  0
   -1.6112    1.5433    0.0000 C   0  0  0  0  0  0  0  0  0
   -0.8967    1.9558    0.0000 C   0  0  0  0  0  0  0  0  0
   -0.1822    1.5433    0.0000 C   0  0  0  0  0  0  0  0  0
   -0.1822    0.7183    0.0000 C   0  0  0  0  0  0  0  0  0
    0.5322    0.3058    0.0000 C   0  0  0  0  0  0  0  0  0
    1.2467    0.7183    0.0000 C   0  0  0  0  0  0  0  0  0
    1.9612    0.3058    0.0000 C   0  0  0  0  0  0  0  0  0
    2.6756    0.7183    0.0000 O   0  0  0  0  0  0  0  0  0
    1.9612   -0.5192    0.0000 C   0  0  0  0  0  0  0  0  0
    1.2467   -0.9317    0.0000 C   0  0  0  0  0  0  0  0  0
    0.5322   -0.5192    0.0000 C   0  0  0  0  0  0  0  0  0
  1  2  1  0  0  0  0
  1  9  1  0  0  0  0
  2  3  1  0  0  0  0
  2  4  1  0  0  0  0
  4  5  1  0  0  0  0
  4  8  2  0  0  0  0
  5  6  1  0  0  0  0
  6  7  1  0  0  0  0
  7  8  1  0  0  0  0
  9 10  4  0  0  0  0
  9 14  4  0  0  0  0
 10 11  4  0  0  0  0
 11 12  4  0  0  0  0
 12 13  4  0  0  0  0
 13 14  4  0  0  0  0
 14 15  1  0  0  0  0
 15 16  4  0  0  0  0
 15 21  4  0  0  0  0
 16 17  4  0  0  0  0
 17 18  1  0  0  0  0
 17 19  4  0  0  0  0
 19 20  4  0  0  0  0
 20 21  4  0  0  0  0
M  END
>  <Name_Molregno>
372894

>  <Alpha-2A>
7.56

>  <Alpha-2B>
6.45

>  <Alpha-2C>
7.75

$$$$
372895
  Marvin  02231216192D 0   1.00000     0.00000     0

 21 23  0  0  1  0  0  0  0  0999 V2000
   -0.8340    0.2987    0.0000 O   0  0  0  0  0  0  0  0  0
   -1.5484   -0.1138    0.0000 C   0  0  0  0  0  0  0  0  0
   -2.2629    0.2987    0.0000 C   0  0  0  0  0  0  0  0  0
   -1.5484   -0.9388    0.0000 C   0  0  0  0  0  0  0  0  0
   -0.8810   -1.4237    0.0000 N   0  0  0  0  0  0  0  0  0
   -1.1359   -2.2083    0.0000 C   0  0  0  0  0  0  0  0  0
   -1.9609   -2.2083    0.0000 C   0  0  0  0  0  0  0  0  0
   -2.2159   -1.4237    0.0000 N   0  0  0  0  0  0  0  0  0
   -0.8340    1.1237    0.0000 C   0  0  0  0  0  0  0  0  0
   -1.5484    1.5362    0.0000 C   0  0  0  0  0  0  0  0  0
   -1.5484    2.3612    0.0000 C   0  0  0  0  0  0  0  0  0
   -0.8340    2.7737    0.0000 C   0  0  0  0  0  0  0  0  0
   -0.1195    2.3612    0.0000 C   0  0  0  0  0  0  0  0  0
   -0.1195    1.5362    0.0000 C   0  0  0  0  0  0  0  0  0
    0.5950    1.1237    0.0000 C   0  0  0  0  0  0  0  0  0
    1.3095    1.5362    0.0000 C   0  0  0  0  0  0  0  0  0
    2.0239    1.1237    0.0000 C   0  0  0  0  0  0  0  0  0
    2.0239    0.2987    0.0000 C   0  0  0  0  0  0  0  0  0
    2.7384   -0.1138    0.0000 O   0  0  0  0  0  0  0  0  0
    1.3095   -0.1138    0.0000 C   0  0  0  0  0  0  0  0  0
    0.5950    0.2987    0.0000 C   0  0  0  0  0  0  0  0  0
  1  2  1  0  0  0  0
  1  9  1  0  0  0  0
  2  3  1  0  0  0  0
  2  4  1  0  0  0  0
  4  5  1  0  0  0  0
  4  8  2  0  0  0  0
  5  6  1  0  0  0  0
  6  7  1  0  0  0  0
  7  8  1  0  0  0  0
  9 10  4  0  0  0  0
  9 14  4  0  0  0  0
 10 11  4  0  0  0  0
 11 12  4  0  0  0  0
 12 13  4  0  0  0  0
 13 14  4  0  0  0  0
 14 15  1  0  0  0  0
 15 16  4  0  0  0  0
 15 21  4  0  0  0  0
 16 17  4  0  0  0  0
 17 18  4  0  0  0  0
 18 19  1  0  0  0  0
 18 20  4  0  0  0  0
 20 21  4  0  0  0  0
M  END
>  <Name_Molregno>
372895

>  <Alpha-2A>
7.47

>  <Alpha-2B>
6.09

>  <Alpha-2C>
6.48

$$$$
372896
  Marvin  02231216192D 0   1.00000     0.00000     0

 23 25  0  0  1  0  0  0  0  0999 V2000
   -0.0367   -0.7065    0.0000 O   0  0  0  0  0  0  0  0  0
    0.6778   -1.1190    0.0000 C   0  0  0  0  0  0  0  0  0
    1.3923   -0.7065    0.0000 C   0  0  0  0  0  0  0  0  0
    0.6778   -1.9440    0.0000 C   0  0  0  0  0  0  0  0  0
    1.3452   -2.4289    0.0000 N   0  0  0  0  0  0  0  0  0
    1.0903   -3.2135    0.0000 C   0  0  0  0  0  0  0  0  0
    0.2653   -3.2135    0.0000 C   0  0  0  0  0  0  0  0  0
    0.0103   -2.4289    0.0000 N   0  0  0  0  0  0  0  0  0
   -0.0367    0.1185    0.0000 C   0  0  0  0  0  0  0  0  0
    0.6778    0.5310    0.0000 C   0  0  0  0  0  0  0  0  0
    0.6778    1.3560    0.0000 C   0  0  0  0  0  0  0  0  0
   -0.0367    1.7685    0.0000 C   0  0  0  0  0  0  0  0  0
   -0.7512    1.3560    0.0000 C   0  0  0  0  0  0  0  0  0
   -0.7512    0.5310    0.0000 C   0  0  0  0  0  0  0  0  0
   -1.4656    0.1185    0.0000 C   0  0  0  0  0  0  0  0  0
   -1.4656   -0.7065    0.0000 C   0  0  0  0  0  0  0  0  0
   -2.1801   -1.1190    0.0000 C   0  0  0  0  0  0  0  0  0
   -2.8946   -0.7065    0.0000 C   0  0  0  0  0  0  0  0  0
   -2.8946    0.1185    0.0000 C   0  0  0  0  0  0  0  0  0
   -2.1801    0.5310    0.0000 C   0  0  0  0  0  0  0  0  0
   -2.1801    1.3560    0.0000 N   0  3  0  0  0  0  0  0  0
   -2.8946    1.7685    0.0000 O   0  5  0  0  0  0  0  0  0
   -1.4656    1.7685    0.0000 O   0  5  0  0  0  0  0  0  0
  1  2  1  0  0  0  0
  1  9  1  0  0  0  0
  2  3  1  0  0  0  0
  2  4  1  0  0  0  0
  4  5  1  0  0  0  0
  4  8  2  0  0  0  0
  5  6  1  0  0  0  0
  6  7  1  0  0  0  0
  7  8  1  0  0  0  0
  9 10  4  0  0  0  0
  9 14  4  0  0  0  0
 10 11  4  0  0  0  0
 11 12  4  0  0  0  0
 12 13  4  0  0  0  0
 13 14  4  0  0  0  0
 14 15  1  0  0  0  0
 15 16  4  0  0  0  0
 15 20  4  0  0  0  0
 16 17  4  0  0  0  0
 17 18  4  0  0  0  0
 18 19  4  0  0  0  0
 19 20  4  0  0  0  0
 20 21  1  0  0  0  0
 21 22  1  0  0  0  0
 21 23  1  0  0  0  0
M  CHG  3  21   1  22  -1  23  -1
M  END
>  <Name_Molregno>
372896

>  <Alpha-2A>
6.76

>  <Alpha-2B>
5.81

>  <Alpha-2C>
5.91

$$$$
372903
  Marvin  02231216192D 0   1.00000     0.00000     0

 23 25  0  0  1  0  0  0  0  0999 V2000
   -1.6248   -0.1214    0.0000 O   0  0  0  0  0  0  0  0  0
   -2.3393   -0.5339    0.0000 C   0  0  0  0  0  0  0  0  0
   -3.0537   -0.1214    0.0000 C   0  0  0  0  0  0  0  0  0
   -2.3393   -1.3589    0.0000 C   0  0  0  0  0  0  0  0  0
   -1.6718   -1.8438    0.0000 N   0  0  0  0  0  0  0  0  0
   -1.9268   -2.6284    0.0000 C   0  0  0  0  0  0  0  0  0
   -2.7518   -2.6284    0.0000 C   0  0  0  0  0  0  0  0  0
   -3.0067   -1.8438    0.0000 N   0  0  0  0  0  0  0  0  0
   -1.6248    0.7036    0.0000 C   0  0  0  0  0  0  0  0  0
   -2.3393    1.1161    0.0000 C   0  0  0  0  0  0  0  0  0
   -2.3393    1.9411    0.0000 C   0  0  0  0  0  0  0  0  0
   -1.6248    2.3536    0.0000 C   0  0  0  0  0  0  0  0  0
   -0.9103    1.9411    0.0000 C   0  0  0  0  0  0  0  0  0
   -0.9103    1.1161    0.0000 C   0  0  0  0  0  0  0  0  0
   -0.1958    0.7036    0.0000 C   0  0  0  0  0  0  0  0  0
    0.5186    1.1161    0.0000 C   0  0  0  0  0  0  0  0  0
    1.2331    0.7036    0.0000 C   0  0  0  0  0  0  0  0  0
    1.9476    1.1161    0.0000 N   0  3  0  0  0  0  0  0  0
    1.9476    1.9411    0.0000 O   0  5  0  0  0  0  0  0  0
    2.6620    0.7036    0.0000 O   0  5  0  0  0  0  0  0  0
    1.2331   -0.1214    0.0000 C   0  0  0  0  0  0  0  0  0
    0.5186   -0.5339    0.0000 C   0  0  0  0  0  0  0  0  0
   -0.1958   -0.1214    0.0000 C   0  0  0  0  0  0  0  0  0
  1  2  1  0  0  0  0
  1  9  1  0  0  0  0
  2  3  1  0  0  0  0
  2  4  1  0  0  0  0
  4  5  1  0  0  0  0
  4  8  2  0  0  0  0
  5  6  1  0  0  0  0
  6  7  1  0  0  0  0
  7  8  1  0  0  0  0
  9 10  4  0  0  0  0
  9 14  4  0  0  0  0
 10 11  4  0  0  0  0
 11 12  4  0  0  0  0
 12 13  4  0  0  0  0
 13 14  4  0  0  0  0
 14 15  1  0  0  0  0
 15 16  4  0  0  0  0
 15 23  4  0  0  0  0
 16 17  4  0  0  0  0
 17 18  1  0  0  0  0
 17 21  4  0  0  0  0
 18 19  1  0  0  0  0
 18 20  1  0  0  0  0
 21 22  4  0  0  0  0
 22 23  4  0  0  0  0
M  CHG  3  18   1  19  -1  20  -1
M  END
>  <Name_Molregno>
372903

>  <Alpha-2A>
7.17

>  <Alpha-2B>
6.07

>  <Alpha-2C>
6.51

$$$$
372904
  Marvin  02231216192D 0   1.00000     0.00000     0

 23 25  0  0  1  0  0  0  0  0999 V2000
   -1.5943    0.0026    0.0000 O   0  0  0  0  0  0  0  0  0
   -2.3087   -0.4099    0.0000 C   0  0  0  0  0  0  0  0  0
   -3.0232    0.0026    0.0000 C   0  0  0  0  0  0  0  0  0
   -2.3087   -1.2349    0.0000 C   0  0  0  0  0  0  0  0  0
   -1.6413   -1.7198    0.0000 N   0  0  0  0  0  0  0  0  0
   -1.8962   -2.5044    0.0000 C   0  0  0  0  0  0  0  0  0
   -2.7212   -2.5044    0.0000 C   0  0  0  0  0  0  0  0  0
   -2.9762   -1.7198    0.0000 N   0  0  0  0  0  0  0  0  0
   -1.5943    0.8276    0.0000 C   0  0  0  0  0  0  0  0  0
   -2.3087    1.2401    0.0000 C   0  0  0  0  0  0  0  0  0
   -2.3087    2.0651    0.0000 C   0  0  0  0  0  0  0  0  0
   -1.5943    2.4776    0.0000 C   0  0  0  0  0  0  0  0  0
   -0.8798    2.0651    0.0000 C   0  0  0  0  0  0  0  0  0
   -0.8798    1.2401    0.0000 C   0  0  0  0  0  0  0  0  0
   -0.1653    0.8276    0.0000 C   0  0  0  0  0  0  0  0  0
    0.5492    1.2401    0.0000 C   0  0  0  0  0  0  0  0  0
    1.2636    0.8276    0.0000 C   0  0  0  0  0  0  0  0  0
    1.2636    0.0026    0.0000 C   0  0  0  0  0  0  0  0  0
    1.9781   -0.4099    0.0000 N   0  3  0  0  0  0  0  0  0
    2.6926    0.0026    0.0000 O   0  5  0  0  0  0  0  0  0
    1.9781   -1.2349    0.0000 O   0  5  0  0  0  0  0  0  0
    0.5492   -0.4099    0.0000 C   0  0  0  0  0  0  0  0  0
   -0.1653    0.0026    0.0000 C   0  0  0  0  0  0  0  0  0
  1  2  1  0  0  0  0
  1  9  1  0  0  0  0
  2  3  1  0  0  0  0
  2  4  1  0  0  0  0
  4  5  1  0  0  0  0
  4  8  2  0  0  0  0
  5  6  1  0  0  0  0
  6  7  1  0  0  0  0
  7  8  1  0  0  0  0
  9 10  4  0  0  0  0
  9 14  4  0  0  0  0
 10 11  4  0  0  0  0
 11 12  4  0  0  0  0
 12 13  4  0  0  0  0
 13 14  4  0  0  0  0
 14 15  1  0  0  0  0
 15 16  4  0  0  0  0
 15 23  4  0  0  0  0
 16 17  4  0  0  0  0
 17 18  4  0  0  0  0
 18 19  1  0  0  0  0
 18 22  4  0  0  0  0
 19 20  1  0  0  0  0
 19 21  1  0  0  0  0
 22 23  4  0  0  0  0
M  CHG  3  19   1  20  -1  21  -1
M  END
>  <Name_Molregno>
372904

>  <Alpha-2A>
6.91

>  <Alpha-2B>
6.3

>  <Alpha-2C>
6.52

$$$$
372905
  Marvin  02231216192D 0   1.00000     0.00000     0

 21 23  0  0  1  0  0  0  0  0999 V2000
   -0.8967   -0.5192    0.0000 O   0  0  0  0  0  0  0  0  0
   -1.6112   -0.9317    0.0000 C   0  0  0  0  0  0  0  0  0
   -2.3257   -0.5192    0.0000 C   0  0  0  0  0  0  0  0  0
   -1.6112   -1.7567    0.0000 C   0  0  0  0  0  0  0  0  0
   -0.9437   -2.2417    0.0000 N   0  0  0  0  0  0  0  0  0
   -1.1987   -3.0263    0.0000 C   0  0  0  0  0  0  0  0  0
   -2.0237   -3.0263    0.0000 C   0  0  0  0  0  0  0  0  0
   -2.2786   -2.2417    0.0000 N   0  0  0  0  0  0  0  0  0
   -0.8967    0.3058    0.0000 C   0  0  0  0  0  0  0  0  0
   -1.6112    0.7183    0.0000 C   0  0  0  0  0  0  0  0  0
   -1.6112    1.5433    0.0000 C   0  0  0  0  0  0  0  0  0
   -0.8967    1.9558    0.0000 C   0  0  0  0  0  0  0  0  0
   -0.1822    1.5433    0.0000 C   0  0  0  0  0  0  0  0  0
   -0.1822    0.7183    0.0000 C   0  0  0  0  0  0  0  0  0
    0.5322    0.3058    0.0000 C   0  0  0  0  0  0  0  0  0
    1.2467    0.7183    0.0000 C   0  0  0  0  0  0  0  0  0
    1.9612    0.3058    0.0000 C   0  0  0  0  0  0  0  0  0
    2.6756    0.7183    0.0000 N   0  0  0  0  0  0  0  0  0
    1.9612   -0.5192    0.0000 C   0  0  0  0  0  0  0  0  0
    1.2467   -0.9317    0.0000 C   0  0  0  0  0  0  0  0  0
    0.5322   -0.5192    0.0000 C   0  0  0  0  0  0  0  0  0
  1  2  1  0  0  0  0
  1  9  1  0  0  0  0
  2  3  1  0  0  0  0
  2  4  1  0  0  0  0
  4  5  1  0  0  0  0
  4  8  2  0  0  0  0
  5  6  1  0  0  0  0
  6  7  1  0  0  0  0
  7  8  1  0  0  0  0
  9 10  4  0  0  0  0
  9 14  4  0  0  0  0
 10 11  4  0  0  0  0
 11 12  4  0  0  0  0
 12 13  4  0  0  0  0
 13 14  4  0  0  0  0
 14 15  1  0  0  0  0
 15 16  4  0  0  0  0
 15 21  4  0  0  0  0
 16 17  4  0  0  0  0
 17 18  1  0  0  0  0
 17 19  4  0  0  0  0
 19 20  4  0  0  0  0
 20 21  4  0  0  0  0
M  END
>  <Name_Molregno>
372905

>  <Alpha-2A>
7.43

>  <Alpha-2B>
6.32

>  <Alpha-2C>
6.51

$$$$
372911
  Marvin  02231216192D 0   1.00000     0.00000     0

 21 23  0  0  1  0  0  0  0  0999 V2000
    0.0374    0.4571    0.0000 F   0  0  0  0  0  0  0  0  0
    0.7519    0.0446    0.0000 C   0  0  0  0  0  0  0  0  0
    1.4664    0.4571    0.0000 C   0  0  0  0  0  0  0  0  0
    2.1809    0.0446    0.0000 C   0  0  0  0  0  0  0  0  0
    2.1809   -0.7804    0.0000 C   0  0  0  0  0  0  0  0  0
    1.4664   -1.1929    0.0000 C   0  0  0  0  0  0  0  0  0
    0.7519   -0.7804    0.0000 C   0  0  0  0  0  0  0  0  0
    2.8953    0.4571    0.0000 C   0  0  0  0  0  0  0  0  0
    2.8953    1.2821    0.0000 C   0  0  0  0  0  0  0  0  0
    3.6098    1.6946    0.0000 C   0  0  0  0  0  0  0  0  0
    4.3243    1.2821    0.0000 C   0  0  0  0  0  0  0  0  0
    4.3243    0.4571    0.0000 C   0  0  0  0  0  0  0  0  0
    3.6098    0.0446    0.0000 C   0  0  0  0  0  0  0  0  0
    3.6098   -0.7804    0.0000 O   0  0  0  0  0  0  0  0  0
    4.3243   -1.1929    0.0000 C   0  0  0  0  0  0  0  0  0
    5.0387   -0.7804    0.0000 C   0  0  0  0  0  0  0  0  0
    4.3243   -2.0179    0.0000 C   0  0  0  0  0  0  0  0  0
    4.9917   -2.5028    0.0000 N   0  0  0  0  0  0  0  0  0
    4.7368   -3.2874    0.0000 C   0  0  0  0  0  0  0  0  0
    3.9118   -3.2874    0.0000 C   0  0  0  0  0  0  0  0  0
    3.6568   -2.5028    0.0000 N   0  0  0  0  0  0  0  0  0
  1  2  1  0  0  0  0
  2  3  4  0  0  0  0
  2  7  4  0  0  0  0
  3  4  4  0  0  0  0
  4  5  4  0  0  0  0
  4  8  1  0  0  0  0
  5  6  4  0  0  0  0
  6  7  4  0  0  0  0
  8  9  4  0  0  0  0
  8 13  4  0  0  0  0
  9 10  4  0  0  0  0
 10 11  4  0  0  0  0
 11 12  4  0  0  0  0
 12 13  4  0  0  0  0
 13 14  1  0  0  0  0
 14 15  1  0  0  0  0
 15 16  1  0  0  0  0
 15 17  1  0  0  0  0
 17 18  1  0  0  0  0
 17 21  2  0  0  0  0
 18 19  1  0  0  0  0
 19 20  1  0  0  0  0
 20 21  1  0  0  0  0
M  END
>  <Name_Molregno>
372911

>  <Alpha-2A>
7.83

>  <Alpha-2B>
6.57

>  <Alpha-2C>
7.77

$$$$
372918
  Marvin  02231216192D 0   1.00000     0.00000     0

 20 22  0  0  1  0  0  0  0  0999 V2000
   -0.6263    0.1335    0.0000 S   0  0  0  0  0  0  0  0  0
   -1.3408   -0.2790    0.0000 C   0  0  0  0  0  0  0  0  0
   -2.0552    0.1335    0.0000 C   0  0  0  0  0  0  0  0  0
   -1.3408   -1.1040    0.0000 C   0  0  0  0  0  0  0  0  0
   -0.6733   -1.5889    0.0000 N   0  0  0  0  0  0  0  0  0
   -0.9283   -2.3735    0.0000 C   0  0  0  0  0  0  0  0  0
   -1.7533   -2.3735    0.0000 C   0  0  0  0  0  0  0  0  0
   -2.0082   -1.5889    0.0000 N   0  0  0  0  0  0  0  0  0
   -0.6263    0.9585    0.0000 C   0  0  0  0  0  0  0  0  0
   -1.3408    1.3710    0.0000 C   0  0  0  0  0  0  0  0  0
   -1.3408    2.1960    0.0000 C   0  0  0  0  0  0  0  0  0
   -0.6263    2.6085    0.0000 C   0  0  0  0  0  0  0  0  0
    0.0882    2.1960    0.0000 C   0  0  0  0  0  0  0  0  0
    0.0882    1.3710    0.0000 C   0  0  0  0  0  0  0  0  0
    0.8026    0.9585    0.0000 C   0  0  0  0  0  0  0  0  0
    1.5171    1.3710    0.0000 C   0  0  0  0  0  0  0  0  0
    2.2316    0.9585    0.0000 C   0  0  0  0  0  0  0  0  0
    2.2316    0.1335    0.0000 C   0  0  0  0  0  0  0  0  0
    1.5171   -0.2790    0.0000 C   0  0  0  0  0  0  0  0  0
    0.8026    0.1335    0.0000 C   0  0  0  0  0  0  0  0  0
  1  2  1  0  0  0  0
  1  9  1  0  0  0  0
  2  3  1  0  0  0  0
  2  4  1  0  0  0  0
  4  5  1  0  0  0  0
  4  8  2  0  0  0  0
  5  6  1  0  0  0  0
  6  7  1  0  0  0  0
  7  8  1  0  0  0  0
  9 10  4  0  0  0  0
  9 14  4  0  0  0  0
 10 11  4  0  0  0  0
 11 12  4  0  0  0  0
 12 13  4  0  0  0  0
 13 14  4  0  0  0  0
 14 15  1  0  0  0  0
 15 16  4  0  0  0  0
 15 20  4  0  0  0  0
 16 17  4  0  0  0  0
 17 18  4  0  0  0  0
 18 19  4  0  0  0  0
 19 20  4  0  0  0  0
M  END
>  <Name_Molregno>
372918

>  <Alpha-2A>
6.47

>  <Alpha-2B>
5.45

>  <Alpha-2C>
6.15

$$$$
372919
  Marvin  02231216192D 0   1.00000     0.00000     0

 20 23  0  0  1  0  0  0  0  0999 V2000
    0.8589   -1.4443    0.0000 O   0  0  0  0  0  0  0  0  0
    0.0339   -1.4443    0.0000 C   0  0  0  0  0  0  0  0  0
    0.4464   -0.7299    0.0000 C   0  0  0  0  0  0  0  0  0
    0.4464    0.0951    0.0000 C   0  0  0  0  0  0  0  0  0
   -0.2210    0.5801    0.0000 N   0  0  0  0  0  0  0  0  0
    0.0339    1.3647    0.0000 C   0  0  0  0  0  0  0  0  0
    0.8589    1.3647    0.0000 C   0  0  0  0  0  0  0  0  0
    1.1139    0.5801    0.0000 N   0  0  0  0  0  0  0  0  0
   -0.6806   -1.8568    0.0000 C   0  0  0  0  0  0  0  0  0
   -0.6806   -2.6818    0.0000 C   0  0  0  0  0  0  0  0  0
   -1.3950   -3.0943    0.0000 C   0  0  0  0  0  0  0  0  0
   -2.1095   -2.6818    0.0000 C   0  0  0  0  0  0  0  0  0
   -2.1095   -1.8568    0.0000 C   0  0  0  0  0  0  0  0  0
   -1.3950   -1.4443    0.0000 C   0  0  0  0  0  0  0  0  0
   -1.3950   -0.6193    0.0000 C   0  0  0  0  0  0  0  0  0
   -2.1095   -0.2068    0.0000 C   0  0  0  0  0  0  0  0  0
   -2.1095    0.6182    0.0000 C   0  0  0  0  0  0  0  0  0
   -1.3950    1.0307    0.0000 C   0  0  0  0  0  0  0  0  0
   -0.6806    0.6182    0.0000 C   0  0  0  0  0  0  0  0  0
   -0.6806   -0.2068    0.0000 C   0  0  0  0  0  0  0  0  0
  1  2  1  0  0  0  0
  1  3  1  0  0  0  0
  2  3  1  0  0  0  0
  2  9  1  0  0  0  0
  3  4  1  0  0  0  0
  4  5  1  0  0  0  0
  4  8  2  0  0  0  0
  5  6  1  0  0  0  0
  6  7  1  0  0  0  0
  7  8  1  0  0  0  0
  9 10  4  0  0  0  0
  9 14  4  0  0  0  0
 10 11  4  0  0  0  0
 11 12  4  0  0  0  0
 12 13  4  0  0  0  0
 13 14  4  0  0  0  0
 14 15  1  0  0  0  0
 15 16  4  0  0  0  0
 15 20  4  0  0  0  0
 16 17  4  0  0  0  0
 17 18  4  0  0  0  0
 18 19  4  0  0  0  0
 19 20  4  0  0  0  0
M  END
>  <Name_Molregno>
372919

>  <Alpha-2A>
5.87

>  <Alpha-2B>
5.3

>  <Alpha-2C>
5.28

$$$$
372925
  Marvin  02231216192D 0   1.00000     0.00000     0

 20 22  0  0  1  0  0  0  0  0999 V2000
    1.9702   -1.1809    0.0000 O   0  0  0  0  0  0  0  0  0
    1.7152   -1.9655    0.0000 C   0  0  0  0  0  0  0  0  0
    0.8902   -1.9655    0.0000 C   0  0  0  0  0  0  0  0  0
    0.6353   -1.1809    0.0000 N   0  0  0  0  0  0  0  0  0
    1.3027   -0.6960    0.0000 C   0  0  0  0  0  0  0  0  0
    1.3027    0.1290    0.0000 C   0  0  0  0  0  0  0  0  0
    2.0172    0.5415    0.0000 O   0  0  0  0  0  0  0  0  0
    2.0172    1.3665    0.0000 C   0  0  0  0  0  0  0  0  0
    1.3027    1.7790    0.0000 C   0  0  0  0  0  0  0  0  0
    1.3027    2.6040    0.0000 C   0  0  0  0  0  0  0  0  0
    2.0172    3.0165    0.0000 C   0  0  0  0  0  0  0  0  0
    2.7317    2.6040    0.0000 C   0  0  0  0  0  0  0  0  0
    2.7317    1.7790    0.0000 C   0  0  0  0  0  0  0  0  0
    3.4461    1.3665    0.0000 C   0  0  0  0  0  0  0  0  0
    4.1606    1.7790    0.0000 C   0  0  0  0  0  0  0  0  0
    4.8751    1.3665    0.0000 C   0  0  0  0  0  0  0  0  0
    4.8751    0.5415    0.0000 C   0  0  0  0  0  0  0  0  0
    4.1606    0.1290    0.0000 C   0  0  0  0  0  0  0  0  0
    3.4461    0.5415    0.0000 C   0  0  0  0  0  0  0  0  0
    0.5882    0.5415    0.0000 C   0  0  0  0  0  0  0  0  0
  1  2  1  0  0  0  0
  1  5  1  0  0  0  0
  2  3  1  0  0  0  0
  3  4  1  0  0  0  0
  4  5  2  0  0  0  0
  5  6  1  0  0  0  0
  6  7  1  0  0  0  0
  6 20  1  0  0  0  0
  7  8  1  0  0  0  0
  8  9  4  0  0  0  0
  8 13  4  0  0  0  0
  9 10  4  0  0  0  0
 10 11  4  0  0  0  0
 11 12  4  0  0  0  0
 12 13  4  0  0  0  0
 13 14  1  0  0  0  0
 14 15  4  0  0  0  0
 14 19  4  0  0  0  0
 15 16  4  0  0  0  0
 16 17  4  0  0  0  0
 17 18  4  0  0  0  0
 18 19  4  0  0  0  0
M  END
>  <Name_Molregno>
372925

>  <Alpha-2A>
5.09

>  <Alpha-2B>
5

>  <Alpha-2C>
5.23

$$$$
372926
  Marvin  02231216192D 0   1.00000     0.00000     0

 20 22  0  0  1  0  0  0  0  0999 V2000
    1.9702   -1.1809    0.0000 S   0  0  0  0  0  0  0  0  0
    1.7152   -1.9655    0.0000 C   0  0  0  0  0  0  0  0  0
    0.8902   -1.9655    0.0000 C   0  0  0  0  0  0  0  0  0
    0.6353   -1.1809    0.0000 N   0  0  0  0  0  0  0  0  0
    1.3027   -0.6960    0.0000 C   0  0  0  0  0  0  0  0  0
    1.3027    0.1290    0.0000 C   0  0  0  0  0  0  0  0  0
    2.0172    0.5415    0.0000 O   0  0  0  0  0  0  0  0  0
    2.0172    1.3665    0.0000 C   0  0  0  0  0  0  0  0  0
    1.3027    1.7790    0.0000 C   0  0  0  0  0  0  0  0  0
    1.3027    2.6040    0.0000 C   0  0  0  0  0  0  0  0  0
    2.0172    3.0165    0.0000 C   0  0  0  0  0  0  0  0  0
    2.7317    2.6040    0.0000 C   0  0  0  0  0  0  0  0  0
    2.7317    1.7790    0.0000 C   0  0  0  0  0  0  0  0  0
    3.4461    1.3665    0.0000 C   0  0  0  0  0  0  0  0  0
    4.1606    1.7790    0.0000 C   0  0  0  0  0  0  0  0  0
    4.8751    1.3665    0.0000 C   0  0  0  0  0  0  0  0  0
    4.8751    0.5415    0.0000 C   0  0  0  0  0  0  0  0  0
    4.1606    0.1290    0.0000 C   0  0  0  0  0  0  0  0  0
    3.4461    0.5415    0.0000 C   0  0  0  0  0  0  0  0  0
    0.5882    0.5415    0.0000 C   0  0  0  0  0  0  0  0  0
  1  2  1  0  0  0  0
  1  5  1  0  0  0  0
  2  3  1  0  0  0  0
  3  4  1  0  0  0  0
  4  5  2  0  0  0  0
  5  6  1  0  0  0  0
  6  7  1  0  0  0  0
  6 20  1  0  0  0  0
  7  8  1  0  0  0  0
  8  9  4  0  0  0  0
  8 13  4  0  0  0  0
  9 10  4  0  0  0  0
 10 11  4  0  0  0  0
 11 12  4  0  0  0  0
 12 13  4  0  0  0  0
 13 14  1  0  0  0  0
 14 15  4  0  0  0  0
 14 19  4  0  0  0  0
 15 16  4  0  0  0  0
 16 17  4  0  0  0  0
 17 18  4  0  0  0  0
 18 19  4  0  0  0  0
M  END
>  <Name_Molregno>
372926

>  <Alpha-2A>
5

>  <Alpha-2B>
5

>  <Alpha-2C>
5

$$$$
372927
  Marvin  02231216192D 0   1.00000     0.00000     0

 20 22  0  0  1  0  0  0  0  0999 V2000
   -0.6263    0.1335    0.0000 O   0  0  0  0  0  0  0  0  0
   -1.3408   -0.2790    0.0000 C   0  0  0  0  0  0  0  0  0
   -2.0552    0.1335    0.0000 C   0  0  0  0  0  0  0  0  0
   -1.3408   -1.1040    0.0000 C   0  0  0  0  0  0  0  0  0
   -0.6733   -1.5889    0.0000 N   0  0  0  0  0  0  0  0  0
   -0.9283   -2.3735    0.0000 C   0  0  0  0  0  0  0  0  0
   -1.7533   -2.3735    0.0000 C   0  0  0  0  0  0  0  0  0
   -2.0082   -1.5889    0.0000 C   0  0  0  0  0  0  0  0  0
   -0.6263    0.9585    0.0000 C   0  0  0  0  0  0  0  0  0
   -1.3408    1.3710    0.0000 C   0  0  0  0  0  0  0  0  0
   -1.3408    2.1960    0.0000 C   0  0  0  0  0  0  0  0  0
   -0.6263    2.6085    0.0000 C   0  0  0  0  0  0  0  0  0
    0.0882    2.1960    0.0000 C   0  0  0  0  0  0  0  0  0
    0.0882    1.3710    0.0000 C   0  0  0  0  0  0  0  0  0
    0.8026    0.9585    0.0000 C   0  0  0  0  0  0  0  0  0
    1.5171    1.3710    0.0000 C   0  0  0  0  0  0  0  0  0
    2.2316    0.9585    0.0000 C   0  0  0  0  0  0  0  0  0
    2.2316    0.1335    0.0000 C   0  0  0  0  0  0  0  0  0
    1.5171   -0.2790    0.0000 C   0  0  0  0  0  0  0  0  0
    0.8026    0.1335    0.0000 C   0  0  0  0  0  0  0  0  0
  1  2  1  0  0  0  0
  1  9  1  0  0  0  0
  2  3  1  0  0  0  0
  2  4  1  0  0  0  0
  4  5  2  0  0  0  0
  4  8  1  0  0  0  0
  5  6  1  0  0  0  0
  6  7  1  0  0  0  0
  7  8  1  0  0  0  0
  9 10  4  0  0  0  0
  9 14  4  0  0  0  0
 10 11  4  0  0  0  0
 11 12  4  0  0  0  0
 12 13  4  0  0  0  0
 13 14  4  0  0  0  0
 14 15  1  0  0  0  0
 15 16  4  0  0  0  0
 15 20  4  0  0  0  0
 16 17  4  0  0  0  0
 17 18  4  0  0  0  0
 18 19  4  0  0  0  0
 19 20  4  0  0  0  0
M  END
>  <Name_Molregno>
372927

>  <Alpha-2A>
5.09

>  <Alpha-2B>
5

>  <Alpha-2C>
5.23

$$$$
372984
  Marvin  02231216192D 0   1.00000     0.00000     0

 20 22  0  0  1  0  0  0  0  0999 V2000
   -0.6263    0.1335    0.0000 O   0  0  0  0  0  0  0  0  0
   -1.3408   -0.2790    0.0000 C   0  0  0  0  0  0  0  0  0
   -2.0552    0.1335    0.0000 C   0  0  0  0  0  0  0  0  0
   -1.3408   -1.1040    0.0000 C   0  0  0  0  0  0  0  0  0
   -0.6733   -1.5889    0.0000 N   0  0  0  0  0  0  0  0  0
   -0.9283   -2.3735    0.0000 C   0  0  0  0  0  0  0  0  0
   -1.7533   -2.3735    0.0000 C   0  0  0  0  0  0  0  0  0
   -2.0082   -1.5889    0.0000 N   0  0  0  0  0  0  0  0  0
   -0.6263    0.9585    0.0000 C   0  0  0  0  0  0  0  0  0
   -1.3408    1.3710    0.0000 C   0  0  0  0  0  0  0  0  0
   -1.3408    2.1960    0.0000 C   0  0  0  0  0  0  0  0  0
   -0.6263    2.6085    0.0000 C   0  0  0  0  0  0  0  0  0
    0.0882    2.1960    0.0000 C   0  0  0  0  0  0  0  0  0
    0.0882    1.3710    0.0000 C   0  0  0  0  0  0  0  0  0
    0.8026    0.9585    0.0000 C   0  0  0  0  0  0  0  0  0
    1.5171    1.3710    0.0000 N   0  0  0  0  0  0  0  0  0
    2.2316    0.9585    0.0000 C   0  0  0  0  0  0  0  0  0
    2.2316    0.1335    0.0000 C   0  0  0  0  0  0  0  0  0
    1.5171   -0.2790    0.0000 C   0  0  0  0  0  0  0  0  0
    0.8026    0.1335    0.0000 C   0  0  0  0  0  0  0  0  0
  1  2  1  0  0  0  0
  1  9  1  0  0  0  0
  2  3  1  0  0  0  0
  2  4  1  0  0  0  0
  4  5  1  0  0  0  0
  4  8  2  0  0  0  0
  5  6  1  0  0  0  0
  6  7  1  0  0  0  0
  7  8  1  0  0  0  0
  9 10  4  0  0  0  0
  9 14  4  0  0  0  0
 10 11  4  0  0  0  0
 11 12  4  0  0  0  0
 12 13  4  0  0  0  0
 13 14  4  0  0  0  0
 14 15  1  0  0  0  0
 15 16  4  0  0  0  0
 15 20  4  0  0  0  0
 16 17  4  0  0  0  0
 17 18  4  0  0  0  0
 18 19  4  0  0  0  0
 19 20  4  0  0  0  0
M  END
>  <Name_Molregno>
372984

>  <Alpha-2A>
5.92

>  <Alpha-2B>
5.48

>  <Alpha-2C>
5.9

$$$$
372985
  Marvin  02231216192D 0   1.00000     0.00000     0

 20 22  0  0  1  0  0  0  0  0999 V2000
   -0.6263    0.1335    0.0000 O   0  0  0  0  0  0  0  0  0
   -1.3408   -0.2790    0.0000 C   0  0  0  0  0  0  0  0  0
   -2.0552    0.1335    0.0000 C   0  0  0  0  0  0  0  0  0
   -1.3408   -1.1040    0.0000 C   0  0  0  0  0  0  0  0  0
   -0.6733   -1.5889    0.0000 N   0  0  0  0  0  0  0  0  0
   -0.9283   -2.3735    0.0000 C   0  0  0  0  0  0  0  0  0
   -1.7533   -2.3735    0.0000 C   0  0  0  0  0  0  0  0  0
   -2.0082   -1.5889    0.0000 N   0  0  0  0  0  0  0  0  0
   -0.6263    0.9585    0.0000 C   0  0  0  0  0  0  0  0  0
   -1.3408    1.3710    0.0000 C   0  0  0  0  0  0  0  0  0
   -1.3408    2.1960    0.0000 C   0  0  0  0  0  0  0  0  0
   -0.6263    2.6085    0.0000 C   0  0  0  0  0  0  0  0  0
    0.0882    2.1960    0.0000 C   0  0  0  0  0  0  0  0  0
    0.0882    1.3710    0.0000 C   0  0  0  0  0  0  0  0  0
    0.8026    0.9585    0.0000 C   0  0  0  0  0  0  0  0  0
    1.5171    1.3710    0.0000 C   0  0  0  0  0  0  0  0  0
    2.2316    0.9585    0.0000 C   0  0  0  0  0  0  0  0  0
    2.2316    0.1335    0.0000 C   0  0  0  0  0  0  0  0  0
    1.5171   -0.2790    0.0000 N   0  0  0  0  0  0  0  0  0
    0.8026    0.1335    0.0000 C   0  0  0  0  0  0  0  0  0
  1  2  1  0  0  0  0
  1  9  1  0  0  0  0
  2  3  1  0  0  0  0
  2  4  1  0  0  0  0
  4  5  1  0  0  0  0
  4  8  2  0  0  0  0
  5  6  1  0  0  0  0
  6  7  1  0  0  0  0
  7  8  1  0  0  0  0
  9 10  4  0  0  0  0
  9 14  4  0  0  0  0
 10 11  4  0  0  0  0
 11 12  4  0  0  0  0
 12 13  4  0  0  0  0
 13 14  4  0  0  0  0
 14 15  1  0  0  0  0
 15 16  4  0  0  0  0
 15 20  4  0  0  0  0
 16 17  4  0  0  0  0
 17 18  4  0  0  0  0
 18 19  4  0  0  0  0
 19 20  4  0  0  0  0
M  END
>  <Name_Molregno>
372985

>  <Alpha-2A>
6.86

>  <Alpha-2B>
6.03

>  <Alpha-2C>
7.19

$$$$
372986
  Marvin  02231216192D 0   1.00000     0.00000     0

 20 22  0  0  1  0  0  0  0  0999 V2000
   -0.6263    0.1335    0.0000 O   0  0  0  0  0  0  0  0  0
   -1.3408   -0.2790    0.0000 C   0  0  0  0  0  0  0  0  0
   -2.0552    0.1335    0.0000 C   0  0  0  0  0  0  0  0  0
   -1.3408   -1.1040    0.0000 C   0  0  0  0  0  0  0  0  0
   -0.6733   -1.5889    0.0000 N   0  0  0  0  0  0  0  0  0
   -0.9283   -2.3735    0.0000 C   0  0  0  0  0  0  0  0  0
   -1.7533   -2.3735    0.0000 C   0  0  0  0  0  0  0  0  0
   -2.0082   -1.5889    0.0000 N   0  0  0  0  0  0  0  0  0
   -0.6263    0.9585    0.0000 C   0  0  0  0  0  0  0  0  0
   -1.3408    1.3710    0.0000 C   0  0  0  0  0  0  0  0  0
   -1.3408    2.1960    0.0000 C   0  0  0  0  0  0  0  0  0
   -0.6263    2.6085    0.0000 C   0  0  0  0  0  0  0  0  0
    0.0882    2.1960    0.0000 C   0  0  0  0  0  0  0  0  0
    0.0882    1.3710    0.0000 C   0  0  0  0  0  0  0  0  0
    0.8026    0.9585    0.0000 C   0  0  0  0  0  0  0  0  0
    1.5171    1.3710    0.0000 C   0  0  0  0  0  0  0  0  0
    2.2316    0.9585    0.0000 C   0  0  0  0  0  0  0  0  0
    2.2316    0.1335    0.0000 N   0  0  0  0  0  0  0  0  0
    1.5171   -0.2790    0.0000 C   0  0  0  0  0  0  0  0  0
    0.8026    0.1335    0.0000 C   0  0  0  0  0  0  0  0  0
  1  2  1  0  0  0  0
  1  9  1  0  0  0  0
  2  3  1  0  0  0  0
  2  4  1  0  0  0  0
  4  5  1  0  0  0  0
  4  8  2  0  0  0  0
  5  6  1  0  0  0  0
  6  7  1  0  0  0  0
  7  8  1  0  0  0  0
  9 10  4  0  0  0  0
  9 14  4  0  0  0  0
 10 11  4  0  0  0  0
 11 12  4  0  0  0  0
 12 13  4  0  0  0  0
 13 14  4  0  0  0  0
 14 15  1  0  0  0  0
 15 16  4  0  0  0  0
 15 20  4  0  0  0  0
 16 17  4  0  0  0  0
 17 18  4  0  0  0  0
 18 19  4  0  0  0  0
 19 20  4  0  0  0  0
M  END
>  <Name_Molregno>
372986

>  <Alpha-2A>
6.55

>  <Alpha-2B>
5.57

>  <Alpha-2C>
5.84

$$$$
381672
  Marvin  02231216192D 0   1.00000     0.00000     0

 34 38  0  0  1  0  0  0  0  0999 V2000
    1.9192    2.3298    0.0000 O   0  0  0  0  0  0  0  0  0
    1.1554    2.6417    0.0000 N   0  0  0  0  0  0  0  0  0
    0.6227    2.0116    0.0000 C   0  0  0  0  0  0  0  0  0
    1.0574    1.3104    0.0000 C   0  0  0  0  0  0  0  0  0
    0.6674    0.5834    0.0000 C   0  0  0  0  0  0  0  0  0
   -0.1572    0.5576    0.0000 N   0  0  0  0  0  0  0  0  0
   -0.5918    1.2589    0.0000 C   0  0  0  0  0  0  0  0  0
   -1.4164    1.2331    0.0000 C   0  0  0  0  0  0  0  0  0
   -1.8510    1.9343    0.0000 C   0  0  0  0  0  0  0  0  0
   -2.6756    1.9086    0.0000 O   0  0  0  0  0  0  0  0  0
   -3.1103    2.6098    0.0000 C   0  0  0  0  0  0  0  0  0
   -1.4611    2.6614    0.0000 C   0  0  0  0  0  0  0  0  0
   -1.8957    3.3626    0.0000 O   0  0  0  0  0  0  0  0  0
   -1.5057    4.0896    0.0000 C   0  0  0  0  0  0  0  0  0
   -0.6365    2.6871    0.0000 C   0  0  0  0  0  0  0  0  0
   -0.2018    1.9859    0.0000 C   0  0  0  0  0  0  0  0  0
    1.8586    1.5070    0.0000 C   0  0  0  0  0  0  0  0  0
    2.4886    0.9744    0.0000 C   0  0  0  0  0  0  0  0  0
    2.3424    0.1625    0.0000 N   0  0  0  0  0  0  0  0  0
    2.9724   -0.3701    0.0000 C   0  0  0  0  0  0  0  0  0
    2.8262   -1.1821    0.0000 C   0  0  0  0  0  0  0  0  0
    2.0499   -1.4614    0.0000 N   0  0  0  0  0  0  0  0  0
    1.4199   -0.9288    0.0000 C   0  0  0  0  0  0  0  0  0
    1.5661   -0.1168    0.0000 C   0  0  0  0  0  0  0  0  0
    1.9036   -2.2733    0.0000 C   0  0  0  0  0  0  0  0  0
    2.5337   -2.8059    0.0000 C   0  0  0  0  0  0  0  0  0
    2.3874   -3.6179    0.0000 C   0  0  0  0  0  0  0  0  0
    1.6112   -3.8972    0.0000 C   0  0  0  0  0  0  0  0  0
    1.4649   -4.7091    0.0000 C   0  0  0  0  0  0  0  0  0
    0.6886   -4.9884    0.0000 C   0  0  0  0  0  0  0  0  0
    0.0586   -4.4558    0.0000 C   0  0  0  0  0  0  0  0  0
    0.2048   -3.6439    0.0000 C   0  0  0  0  0  0  0  0  0
    0.9811   -3.3646    0.0000 C   0  0  0  0  0  0  0  0  0
    3.3100   -2.5266    0.0000 C   0  0  0  0  0  0  0  0  0
  1  2  1  0  0  0  0
  1 17  1  0  0  0  0
  2  3  2  0  0  0  0
  3  4  1  0  0  0  0
  3 16  1  0  0  0  0
  4  5  1  0  0  0  0
  4 17  1  0  0  0  0
  5  6  1  0  0  0  0
  6  7  1  0  0  0  0
  7  8  4  0  0  0  0
  7 16  4  0  0  0  0
  8  9  4  0  0  0  0
  9 10  1  0  0  0  0
  9 12  4  0  0  0  0
 10 11  1  0  0  0  0
 12 13  1  0  0  0  0
 12 15  4  0  0  0  0
 13 14  1  0  0  0  0
 15 16  4  0  0  0  0
 17 18  1  0  0  0  0
 18 19  1  0  0  0  0
 19 20  1  0  0  0  0
 19 24  1  0  0  0  0
 20 21  1  0  0  0  0
 21 22  1  0  0  0  0
 22 23  1  0  0  0  0
 22 25  1  0  0  0  0
 23 24  1  0  0  0  0
 25 26  1  0  0  0  0
 26 27  2  0  0  0  0
 26 34  1  0  0  0  0
 27 28  1  0  0  0  0
 28 29  4  0  0  0  0
 28 33  4  0  0  0  0
 29 30  4  0  0  0  0
 30 31  4  0  0  0  0
 31 32  4  0  0  0  0
 32 33  4  0  0  0  0
M  END
>  <Name_Molregno>
381672

>  <Alpha-2A>
8.19

>  <Alpha-2B>
7.95

>  <Alpha-2C>
9.04

>  <Serotonin transporter>
7.59

$$$$
381674
  Marvin  02231216192D 0   1.00000     0.00000     0

 34 38  0  0  1  0  0  0  0  0999 V2000
   11.3496    4.4787    0.0000 F   0  0  0  0  0  0  0  0  0
   11.2034    3.6668    0.0000 C   0  0  0  0  0  0  0  0  0
   11.8334    3.1342    0.0000 C   0  0  0  0  0  0  0  0  0
   11.6872    2.3222    0.0000 C   0  0  0  0  0  0  0  0  0
   10.9109    2.0429    0.0000 C   0  0  0  0  0  0  0  0  0
   10.2809    2.5755    0.0000 C   0  0  0  0  0  0  0  0  0
   10.4271    3.3875    0.0000 C   0  0  0  0  0  0  0  0  0
   10.7647    1.2310    0.0000 C   0  0  0  0  0  0  0  0  0
    9.9884    0.9517    0.0000 C   0  0  0  0  0  0  0  0  0
    9.8421    0.1397    0.0000 C   0  0  0  0  0  0  0  0  0
    9.0659   -0.1396    0.0000 N   0  0  0  0  0  0  0  0  0
    8.9196   -0.9515    0.0000 C   0  0  0  0  0  0  0  0  0
    8.1433   -1.2308    0.0000 C   0  0  0  0  0  0  0  0  0
    7.5133   -0.6982    0.0000 N   0  0  0  0  0  0  0  0  0
    7.6595    0.1137    0.0000 C   0  0  0  0  0  0  0  0  0
    8.4358    0.3930    0.0000 C   0  0  0  0  0  0  0  0  0
    6.7370   -0.9775    0.0000 C   0  0  0  0  0  0  0  0  0
    6.1070   -0.4449    0.0000 C   0  0  0  0  0  0  0  0  0
    6.1676    0.3778    0.0000 O   0  0  0  0  0  0  0  0  0
    5.4038    0.6897    0.0000 N   0  0  0  0  0  0  0  0  0
    4.8712    0.0597    0.0000 C   0  0  0  0  0  0  0  0  0
    5.3058   -0.6416    0.0000 C   0  0  0  0  0  0  0  0  0
    4.9158   -1.3686    0.0000 C   0  0  0  0  0  0  0  0  0
    4.0912   -1.3943    0.0000 O   0  0  0  0  0  0  0  0  0
    3.6566   -0.6931    0.0000 C   0  0  0  0  0  0  0  0  0
    2.8320   -0.7189    0.0000 C   0  0  0  0  0  0  0  0  0
    2.3974   -0.0176    0.0000 C   0  0  0  0  0  0  0  0  0
    1.5728   -0.0434    0.0000 O   0  0  0  0  0  0  0  0  0
    1.1828   -0.7704    0.0000 C   0  0  0  0  0  0  0  0  0
    2.7874    0.7094    0.0000 C   0  0  0  0  0  0  0  0  0
    2.3527    1.4106    0.0000 O   0  0  0  0  0  0  0  0  0
    2.7427    2.1376    0.0000 C   0  0  0  0  0  0  0  0  0
    3.6120    0.7351    0.0000 C   0  0  0  0  0  0  0  0  0
    4.0466    0.0339    0.0000 C   0  0  0  0  0  0  0  0  0
  1  2  1  0  0  0  0
  2  3  4  0  0  0  0
  2  7  4  0  0  0  0
  3  4  4  0  0  0  0
  4  5  4  0  0  0  0
  5  6  4  0  0  0  0
  5  8  1  0  0  0  0
  6  7  4  0  0  0  0
  8  9  2  0  0  0  0
  9 10  1  0  0  0  0
 10 11  1  0  0  0  0
 11 12  1  0  0  0  0
 11 16  1  0  0  0  0
 12 13  1  0  0  0  0
 13 14  1  0  0  0  0
 14 15  1  0  0  0  0
 14 17  1  0  0  0  0
 15 16  1  0  0  0  0
 17 18  1  0  0  0  0
 18 19  1  0  0  0  0
 18 22  1  0  0  0  0
 19 20  1  0  0  0  0
 20 21  2  0  0  0  0
 21 22  1  0  0  0  0
 21 34  1  0  0  0  0
 22 23  1  0  0  0  0
 23 24  1  0  0  0  0
 24 25  1  0  0  0  0
 25 26  4  0  0  0  0
 25 34  4  0  0  0  0
 26 27  4  0  0  0  0
 27 28  1  0  0  0  0
 27 30  4  0  0  0  0
 28 29  1  0  0  0  0
 30 31  1  0  0  0  0
 30 33  4  0  0  0  0
 31 32  1  0  0  0  0
 33 34  4  0  0  0  0
M  END
>  <Name_Molregno>
381674

>  <Alpha-2A>
7.42

>  <Alpha-2B>
7.41

>  <Alpha-2C>
7.71

>  <Serotonin transporter>
8.26

$$$$
382415
  Marvin  02231216192D 0   1.00000     0.00000     0

 18 19  0  0  0  0  0  0  0  0999 V2000
   -0.7360    1.4792    0.0000 S   0  0  0  0  0  0  0  0  0
   -0.9909    0.6946    0.0000 C   0  0  0  0  0  0  0  0  0
   -1.8159    0.6946    0.0000 C   0  0  0  0  0  0  0  0  0
   -2.0709    1.4792    0.0000 N   0  0  0  0  0  0  0  0  0
   -1.4034    1.9642    0.0000 C   0  0  0  0  0  0  0  0  0
   -1.4034    2.7892    0.0000 C   0  0  0  0  0  0  0  0  0
   -0.6890    3.2017    0.0000 F   0  0  0  0  0  0  0  0  0
   -2.3008    0.0272    0.0000 C   0  0  0  0  0  0  0  0  0
   -2.7858   -0.6403    0.0000 C   0  0  0  0  0  0  0  0  0
   -3.2707   -1.3077    0.0000 C   0  0  0  0  0  0  0  0  0
   -2.9351   -2.0614    0.0000 C   0  0  0  0  0  0  0  0  0
   -3.4201   -2.7288    0.0000 C   0  0  0  0  0  0  0  0  0
   -4.2405   -2.6426    0.0000 C   0  0  0  0  0  0  0  0  0
   -4.5761   -1.8889    0.0000 C   0  0  0  0  0  0  0  0  0
   -5.3966   -1.8027    0.0000 F   0  0  0  0  0  0  0  0  0
   -4.0912   -1.2215    0.0000 C   0  0  0  0  0  0  0  0  0
   -3.0845   -3.4825    0.0000 C   0  0  0  0  0  0  0  0  0
   -2.7489   -4.2362    0.0000 N   0  0  0  0  0  0  0  0  0
  1  2  4  0  0  0  0
  1  5  4  0  0  0  0
  2  3  4  0  0  0  0
  3  4  4  0  0  0  0
  3  8  1  0  0  0  0
  4  5  4  0  0  0  0
  5  6  1  0  0  0  0
  6  7  1  0  0  0  0
  8  9  3  0  0  0  0
  9 10  1  0  0  0  0
 10 11  4  0  0  0  0
 10 16  4  0  0  0  0
 11 12  4  0  0  0  0
 12 13  4  0  0  0  0
 12 17  1  0  0  0  0
 13 14  4  0  0  0  0
 14 15  1  0  0  0  0
 14 16  4  0  0  0  0
 17 18  3  0  0  0  0
M  END
>  <Name_Molregno>
382415

>  <5-HT1A>
5

>  <5-HT1B>
5

>  <5-HT1D>
5

>  <5-HT1E>
5

>  <5-HT2A>
5

>  <5-HT2C>
5

>  <5-HT3>
5

>  <5-HT5>
5

>  <5-HT6>
5

>  <5-HT7>
5

>  <Alpha-1A>
5

>  <Alpha-1B>
5

>  <Alpha-2A>
5

>  <Alpha-2B>
5

>  <Alpha-2C>
5

>  <Beta-1>
5

>  <Beta-2>
5

>  <DOPAMINE D1>
5

>  <DOPAMINE D2>
5

>  <DOPAMINE D3>
5

>  <DOPAMINE D4>
5

>  <DOPAMINE D5>
5

>  <Dopamine transporter>
5

>  <HISTAMINE H1>
5

>  <HISTAMINE H2>
5

>  <HISTAMINE H3>
5

>  <HISTAMINE H4>
5

>  <Muscarinic acetylcholine receptor M1>
5

>  <Muscarinic acetylcholine receptor M2>
5

>  <Muscarinic acetylcholine receptor M3>
5

>  <Muscarinic acetylcholine receptor M4>
5

>  <Muscarinic acetylcholine receptor M5>
5

>  <Norepinephrine transporter>
5

>  <Serotonin transporter>
5

$$$$
387941
  Marvin  02231216192D 0   1.00000     0.00000     0

 15 16  0  0  1  0  0  0  0  0999 V2000
    1.0445   -1.8406    0.0000 N   0  0  0  0  0  0  0  0  0
    0.7895   -2.6253    0.0000 C   0  0  0  0  0  0  0  0  0
   -0.0355   -2.6253    0.0000 N   0  0  0  0  0  0  0  0  0
   -0.2904   -1.8406    0.0000 C   0  0  0  0  0  0  0  0  0
    0.3770   -1.3557    0.0000 C   0  0  0  0  0  0  0  0  0
    0.3770   -0.5307    0.0000 C   0  0  0  0  0  0  0  0  0
   -0.3375   -0.1182    0.0000 C   0  0  0  0  0  0  0  0  0
    1.0915   -0.1182    0.0000 C   0  0  0  0  0  0  0  0  0
    1.0915    0.7068    0.0000 C   0  0  0  0  0  0  0  0  0
    1.8060    1.1193    0.0000 C   0  0  0  0  0  0  0  0  0
    2.5204    0.7068    0.0000 C   0  0  0  0  0  0  0  0  0
    2.5204   -0.1182    0.0000 C   0  0  0  0  0  0  0  0  0
    3.2349   -0.5307    0.0000 C   0  0  0  0  0  0  0  0  0
    1.8060   -0.5307    0.0000 C   0  0  0  0  0  0  0  0  0
    1.8060   -1.3557    0.0000 C   0  0  0  0  0  0  0  0  0
  1  2  4  0  0  0  0
  1  5  4  0  0  0  0
  2  3  4  0  0  0  0
  3  4  4  0  0  0  0
  4  5  4  0  0  0  0
  5  6  1  0  0  0  0
  6  7  1  0  0  0  0
  6  8  1  0  0  0  0
  8  9  4  0  0  0  0
  8 14  4  0  0  0  0
  9 10  4  0  0  0  0
 10 11  4  0  0  0  0
 11 12  4  0  0  0  0
 12 13  1  0  0  0  0
 12 14  4  0  0  0  0
 14 15  1  0  0  0  0
M  STY  1   1 DAT
M  SAL   1  1   1
M  SDT   1 MRV_IMPLICIT_H                                        
M  SDD   1     0.0000    0.0000    DR    ALL  0       0  
M  SED   1 IMPL_H1
M  END
>  <Name_Molregno>
387941

>  <Alpha-1A>
6.7

>  <Alpha-1B>
6.5

>  <Alpha-2A>
8.22

>  <Alpha-2B>
7.96

>  <Alpha-2C>
7.74

>  <Norepinephrine transporter>
6

$$$$
389011
  Marvin  02231216192D 0   1.00000     0.00000     0

 25 26  0  0  1  0  0  0  0  0999 V2000
   -2.9244    1.8604    0.0000 S   0  0  0  0  0  0  0  0  0
   -3.7494    1.8604    0.0000 O   0  0  0  0  0  0  0  0  0
   -2.0994    1.8604    0.0000 O   0  0  0  0  0  0  0  0  0
   -2.9244    2.6854    0.0000 C   0  0  0  0  0  0  0  0  0
   -3.6388    3.0979    0.0000 C   0  0  0  0  0  0  0  0  0
   -2.9244    1.0354    0.0000 C   0  0  0  0  0  0  0  0  0
   -2.2099    0.6229    0.0000 C   0  0  0  0  0  0  0  0  0
   -2.2099   -0.2021    0.0000 C   0  0  0  0  0  0  0  0  0
   -1.4954   -0.6146    0.0000 C   0  0  0  0  0  0  0  0  0
   -0.7810   -0.2021    0.0000 O   0  0  0  0  0  0  0  0  0
   -1.4954   -1.4396    0.0000 N   0  0  0  0  0  0  0  0  0
   -0.7810   -1.8521    0.0000 C   0  0  0  0  0  0  0  0  0
   -0.7810   -2.6771    0.0000 C   0  0  0  0  0  0  0  0  0
   -0.1135   -3.1620    0.0000 N   0  0  0  0  0  0  0  0  0
   -0.3685   -3.9466    0.0000 C   0  0  0  0  0  0  0  0  0
   -1.1935   -3.9466    0.0000 C   0  0  0  0  0  0  0  0  0
   -1.4484   -3.1620    0.0000 C   0  0  0  0  0  0  0  0  0
    0.6711   -2.9071    0.0000 C   0  0  0  0  0  0  0  0  0
    1.2842   -3.4591    0.0000 C   0  0  0  0  0  0  0  0  0
   -2.9244   -0.6146    0.0000 C   0  0  0  0  0  0  0  0  0
   -2.9244   -1.4396    0.0000 O   0  0  0  0  0  0  0  0  0
   -3.6388   -1.8521    0.0000 C   0  0  0  0  0  0  0  0  0
   -3.6388   -0.2021    0.0000 C   0  0  0  0  0  0  0  0  0
   -3.6388    0.6229    0.0000 C   0  0  0  0  0  0  0  0  0
   -4.3533    1.0354    0.0000 N   0  0  0  0  0  0  0  0  0
  1  2  2  0  0  0  0
  1  3  2  0  0  0  0
  1  4  1  0  0  0  0
  1  6  1  0  0  0  0
  4  5  1  0  0  0  0
  6  7  4  0  0  0  0
  6 24  4  0  0  0  0
  7  8  4  0  0  0  0
  8  9  1  0  0  0  0
  8 20  4  0  0  0  0
  9 10  2  0  0  0  0
  9 11  1  0  0  0  0
 11 12  1  0  0  0  0
 12 13  1  0  0  0  0
 13 14  1  0  0  0  0
 13 17  1  0  0  0  0
 14 15  1  0  0  0  0
 14 18  1  0  0  0  0
 15 16  1  0  0  0  0
 16 17  1  0  0  0  0
 18 19  1  0  0  0  0
 20 21  1  0  0  0  0
 20 23  4  0  0  0  0
 21 22  1  0  0  0  0
 23 24  4  0  0  0  0
 24 25  1  0  0  0  0
M  END
>  <Name_Molregno>
389011

>  <5-HT1A>
5

>  <5-HT1B>
5.76

>  <5-HT1D>
5.87

>  <5-HT1E>
5

>  <5-HT2A>
5.64

>  <5-HT2C>
5

>  <5-HT3>
5

>  <5-HT5>
5

>  <5-HT6>
5.38

>  <5-HT7>
7.47

>  <Alpha-1A>
5

>  <Alpha-1B>
5

>  <Alpha-2A>
5.95

>  <Alpha-2C>
5.81

>  <Beta-1>
5

>  <Beta-2>
5

>  <DOPAMINE D1>
5

>  <DOPAMINE D2>
8.71

>  <DOPAMINE D3>
8.51

>  <DOPAMINE D4>
5.63

>  <DOPAMINE D5>
5

>  <Dopamine transporter>
5

>  <HISTAMINE H1>
5

>  <HISTAMINE H2>
5

>  <HISTAMINE H4>
5

>  <Muscarinic acetylcholine receptor M1>
5

>  <Muscarinic acetylcholine receptor M2>
5

>  <Muscarinic acetylcholine receptor M3>
5

>  <Muscarinic acetylcholine receptor M4>
5

>  <Muscarinic acetylcholine receptor M5>
5

>  <Norepinephrine transporter>
5

>  <Serotonin transporter>
5

$$$$
405786
  Marvin  02231216192D 0   1.00000     0.00000     0

 16 18  0  0  1  0  0  0  0  0999 V2000
   -4.1976   -1.0327    0.0000 N   0  0  0  0  0  0  0  0  0
   -4.6825   -0.3653    0.0000 N   0  0  0  0  0  0  0  0  0
   -4.1976    0.3022    0.0000 C   0  0  0  0  0  0  0  0  0
   -3.4129    0.0472    0.0000 C   0  0  0  0  0  0  0  0  0
   -2.6985    0.4597    0.0000 C   0  0  0  0  0  0  0  0  0
   -1.9840    0.0472    0.0000 C   0  0  0  0  0  0  0  0  0
   -1.2695    0.4597    0.0000 N   0  0  0  0  0  0  0  0  0
   -0.5551    0.0472    0.0000 C   0  0  0  0  0  0  0  0  0
   -0.5551   -0.7778    0.0000 C   0  0  0  0  0  0  0  0  0
   -1.2695   -1.1903    0.0000 C   0  0  0  0  0  0  0  0  0
   -1.9840   -0.7778    0.0000 C   0  0  0  0  0  0  0  0  0
   -2.6985   -1.1903    0.0000 C   0  0  0  0  0  0  0  0  0
   -3.4129   -0.7778    0.0000 C   0  0  0  0  0  0  0  0  0
   -1.2695    1.2847    0.0000 C   0  0  0  0  0  0  0  0  0
   -0.5551    1.6972    0.0000 C   0  0  0  0  0  0  0  0  0
   -0.5551    2.5222    0.0000 C   0  0  0  0  0  0  0  0  0
  1  2  4  0  0  0  0
  1 13  4  0  0  0  0
  2  3  4  0  0  0  0
  3  4  4  0  0  0  0
  4  5  1  0  0  0  0
  4 13  4  0  0  0  0
  5  6  1  0  0  0  0
  6  7  1  0  0  0  0
  6 11  1  0  0  0  0
  7  8  1  0  0  0  0
  7 14  1  0  0  0  0
  8  9  1  0  0  0  0
  9 10  1  0  0  0  0
 10 11  1  0  0  0  0
 11 12  1  0  0  0  0
 12 13  1  0  0  0  0
 14 15  1  0  0  0  0
 15 16  1  0  0  0  0
M  STY  1   1 DAT
M  SAL   1  1   1
M  SDT   1 MRV_IMPLICIT_H                                        
M  SDD   1     0.0000    0.0000    DR    ALL  0       0  
M  SED   1 IMPL_H1
M  END
>  <Name_Molregno>
405786

>  <5-HT1A>
5.77

>  <5-HT1B>
5

>  <5-HT1D>
5

>  <5-HT2A>
5.24

>  <5-HT2C>
5.24

>  <Alpha-1A>
5

>  <Alpha-1B>
5

>  <Alpha-2A>
5

>  <Alpha-2B>
5.6

>  <Alpha-2C>
5

>  <Beta-1>
5

>  <Beta-2>
5

>  <DOPAMINE D1>
5

>  <DOPAMINE D2>
6.31

>  <DOPAMINE D3>
7.73

>  <DOPAMINE D4>
7.37

>  <DOPAMINE D5>
5

$$$$
416886
  Marvin  02231216192D 0   1.00000     0.00000     0

 16 17  0  0  1  0  0  0  0  0999 V2000
    1.6253   -1.5097    0.0000 O   0  0  0  0  0  0  0  0  0
    1.6253   -2.3347    0.0000 C   0  0  0  0  0  0  0  0  0
    0.9108   -2.7472    0.0000 C   0  0  0  0  0  0  0  0  0
    0.1963   -2.3347    0.0000 N   0  0  0  0  0  0  0  0  0
    0.1963   -1.5097    0.0000 C   0  0  0  0  0  0  0  0  0
    0.9108   -1.0972    0.0000 C   0  0  0  0  0  0  0  0  0
    0.9108   -0.2722    0.0000 C   0  0  0  0  0  0  0  0  0
    0.1963    0.1403    0.0000 C   0  0  0  0  0  0  0  0  0
    0.1963    0.9653    0.0000 C   0  0  0  0  0  0  0  0  0
   -0.5181    1.3778    0.0000 O   0  0  0  0  0  0  0  0  0
    0.9108    1.3778    0.0000 C   0  0  0  0  0  0  0  0  0
    1.6253    0.9653    0.0000 C   0  0  0  0  0  0  0  0  0
    1.6253    0.1403    0.0000 C   0  0  0  0  0  0  0  0  0
   -0.5181   -2.7472    0.0000 C   0  0  0  0  0  0  0  0  0
   -1.2326   -2.3347    0.0000 C   0  0  0  0  0  0  0  0  0
   -1.9471   -2.7472    0.0000 C   0  0  0  0  0  0  0  0  0
  1  2  1  0  0  0  0
  1  6  1  0  0  0  0
  2  3  1  0  0  0  0
  3  4  1  0  0  0  0
  4  5  1  0  0  0  0
  4 14  1  0  0  0  0
  5  6  1  0  0  0  0
  6  7  1  0  0  0  0
  7  8  4  0  0  0  0
  7 13  4  0  0  0  0
  8  9  4  0  0  0  0
  9 10  1  0  0  0  0
  9 11  4  0  0  0  0
 11 12  4  0  0  0  0
 12 13  4  0  0  0  0
 14 15  1  0  0  0  0
 15 16  1  0  0  0  0
M  END
>  <Name_Molregno>
416886

>  <Alpha-2A>
6

>  <HISTAMINE H1>
5.7

>  <Muscarinic acetylcholine receptor M1>
6

$$$$
429662
  Marvin  02231216192D 0   1.00000     0.00000     0

 20 22  0  0  0  0  0  0  0  0999 V2000
    2.1499    0.3508    0.0000 S   0  0  0  0  0  0  0  0  0
    1.4354   -0.0617    0.0000 C   0  0  0  0  0  0  0  0  0
    0.7210    0.3508    0.0000 N   0  0  0  0  0  0  0  0  0
    0.7210    1.1758    0.0000 C   0  0  0  0  0  0  0  0  0
    0.0065    1.5883    0.0000 C   0  0  0  0  0  0  0  0  0
    0.0065    2.4133    0.0000 C   0  0  0  0  0  0  0  0  0
    0.7210    2.8258    0.0000 C   0  0  0  0  0  0  0  0  0
    1.4354    2.4133    0.0000 C   0  0  0  0  0  0  0  0  0
    1.4354    1.5883    0.0000 C   0  0  0  0  0  0  0  0  0
    1.4354   -0.8867    0.0000 N   0  0  0  0  0  0  0  0  0
    2.1499   -1.2992    0.0000 C   0  0  0  0  0  0  0  0  0
    2.1499   -2.1242    0.0000 C   0  0  0  0  0  0  0  0  0
    1.4354   -2.5367    0.0000 C   0  0  0  0  0  0  0  0  0
    0.7210   -2.1242    0.0000 C   0  0  0  0  0  0  0  0  0
    0.7210   -1.2992    0.0000 C   0  0  0  0  0  0  0  0  0
    1.4354   -3.3617    0.0000 C   0  0  0  0  0  0  0  0  0
    2.1029   -3.8467    0.0000 N   0  0  0  0  0  0  0  0  0
    1.8479   -4.6313    0.0000 C   0  0  0  0  0  0  0  0  0
    1.0229   -4.6313    0.0000 N   0  0  0  0  0  0  0  0  0
    0.7680   -3.8467    0.0000 C   0  0  0  0  0  0  0  0  0
  1  2  2  0  0  0  0
  2  3  1  0  0  0  0
  2 10  1  0  0  0  0
  3  4  1  0  0  0  0
  4  5  1  0  0  0  0
  4  9  1  0  0  0  0
  5  6  1  0  0  0  0
  6  7  1  0  0  0  0
  7  8  1  0  0  0  0
  8  9  1  0  0  0  0
 10 11  1  0  0  0  0
 10 15  1  0  0  0  0
 11 12  1  0  0  0  0
 12 13  1  0  0  0  0
 13 14  1  0  0  0  0
 13 16  1  0  0  0  0
 14 15  1  0  0  0  0
 16 17  4  0  0  0  0
 16 20  4  0  0  0  0
 17 18  4  0  0  0  0
 18 19  4  0  0  0  0
 19 20  4  0  0  0  0
M  STY  1   1 DAT
M  SAL   1  1  17
M  SDT   1 MRV_IMPLICIT_H                                        
M  SDD   1     0.0000    0.0000    DR    ALL  0       0  
M  SED   1 IMPL_H1
M  END
>  <Name_Molregno>
429662

>  <Alpha-2A>
6.9

>  <Alpha-2C>
6.46

>  <HISTAMINE H1>
5

>  <HISTAMINE H2>
5

>  <HISTAMINE H3>
7.2

>  <HISTAMINE H4>
7.22

>  <Muscarinic acetylcholine receptor M3>
5

$$$$
431635
  Marvin  02231216192D 0   1.00000     0.00000     0

 18 20  0  0  1  0  0  0  0  0999 V2000
   -0.1508    0.9322    0.0000 O   0  0  0  0  0  0  0  0  0
   -0.9578    1.1037    0.0000 C   0  0  0  0  0  0  0  0  0
   -1.3703    0.3892    0.0000 C   0  0  0  0  0  0  0  0  0
   -0.8183   -0.2239    0.0000 C   0  0  0  0  0  0  0  0  0
   -0.0646    0.1117    0.0000 C   0  0  0  0  0  0  0  0  0
    0.6499   -0.3008    0.0000 C   0  0  0  0  0  0  0  0  0
    1.3643    0.1117    0.0000 C   0  0  0  0  0  0  0  0  0
   -2.1953    0.3892    0.0000 C   0  0  0  0  0  0  0  0  0
   -2.7474   -0.2239    0.0000 N   0  0  0  0  0  0  0  0  0
   -3.5010    0.1117    0.0000 N   0  0  0  0  0  0  0  0  0
   -3.4148    0.9322    0.0000 C   0  0  0  0  0  0  0  0  0
   -2.6078    1.1037    0.0000 C   0  0  0  0  0  0  0  0  0
   -2.1953    1.8182    0.0000 C   0  0  0  0  0  0  0  0  0
   -1.3703    1.8182    0.0000 C   0  0  0  0  0  0  0  0  0
   -2.5758   -1.0308    0.0000 C   0  0  0  0  0  0  0  0  0
   -3.1889   -1.5829    0.0000 C   0  0  0  0  0  0  0  0  0
   -3.0174   -2.3898    0.0000 N   0  0  0  0  0  0  0  0  0
   -3.9735   -1.3279    0.0000 C   0  0  0  0  0  0  0  0  0
  1  2  4  0  0  0  0
  1  5  4  0  0  0  0
  2  3  4  0  0  0  0
  2 14  4  0  0  0  0
  3  4  4  0  0  0  0
  3  8  4  0  0  0  0
  4  5  4  0  0  0  0
  5  6  1  0  0  0  0
  6  7  1  0  0  0  0
  8  9  4  0  0  0  0
  8 12  4  0  0  0  0
  9 10  4  0  0  0  0
  9 15  1  0  0  0  0
 10 11  4  0  0  0  0
 11 12  4  0  0  0  0
 12 13  4  0  0  0  0
 13 14  4  0  0  0  0
 15 16  1  0  0  0  0
 16 17  1  0  0  0  0
 16 18  1  0  0  0  0
M  END
>  <Name_Molregno>
431635

>  <5-HT1A>
6.89

>  <5-HT2A>
7.89

>  <5-HT2C>
9.05

>  <5-HT7>
6.75

>  <Alpha-2A>
6.9

$$$$
437622
  Marvin  02231216192D 0   1.00000     0.00000     0

 29 31  0  0  1  0  0  0  0  0999 V2000
    4.6273    6.8992    0.0000 F   0  0  0  0  0  0  0  0  0
    4.6273    6.0742    0.0000 C   0  0  0  0  0  0  0  0  0
    5.3417    5.6617    0.0000 C   0  0  0  0  0  0  0  0  0
    5.3417    4.8367    0.0000 C   0  0  0  0  0  0  0  0  0
    4.6273    4.4242    0.0000 C   0  0  0  0  0  0  0  0  0
    3.9128    4.8367    0.0000 C   0  0  0  0  0  0  0  0  0
    3.9128    5.6617    0.0000 C   0  0  0  0  0  0  0  0  0
    4.6273    3.5992    0.0000 C   0  0  0  0  0  0  0  0  0
    5.3417    3.1867    0.0000 C   0  0  0  0  0  0  0  0  0
    5.3417    2.3617    0.0000 N   0  0  0  0  0  0  0  0  0
    6.0562    1.9492    0.0000 C   0  0  0  0  0  0  0  0  0
    6.0562    1.1242    0.0000 C   0  0  0  0  0  0  0  0  0
    5.3417    0.7117    0.0000 C   0  0  0  0  0  0  0  0  0
    4.6273    1.1242    0.0000 C   0  0  0  0  0  0  0  0  0
    4.6273    1.9492    0.0000 C   0  0  0  0  0  0  0  0  0
    5.3417   -0.1133    0.0000 C   0  0  0  0  0  0  0  0  0
    4.6273   -0.5258    0.0000 O   0  0  0  0  0  0  0  0  0
    6.0562   -0.5258    0.0000 C   0  0  0  0  0  0  0  0  0
    6.7707   -0.1133    0.0000 C   0  0  0  0  0  0  0  0  0
    7.4851   -0.5258    0.0000 C   0  0  0  0  0  0  0  0  0
    7.4851   -1.3508    0.0000 C   0  0  0  0  0  0  0  0  0
    6.7707   -1.7633    0.0000 C   0  0  0  0  0  0  0  0  0
    6.7707   -2.5883    0.0000 O   0  0  0  0  0  0  0  0  0
    7.4851   -3.0008    0.0000 C   0  0  0  0  0  0  0  0  0
    7.4851   -3.8258    0.0000 C   0  0  0  0  0  0  0  0  0
    8.1996   -4.2383    0.0000 F   0  0  0  0  0  0  0  0  0
    6.0562   -1.3508    0.0000 C   0  0  0  0  0  0  0  0  0
    5.3417   -1.7633    0.0000 O   0  0  0  0  0  0  0  0  0
    5.3417   -2.5883    0.0000 C   0  0  0  0  0  0  0  0  0
  1  2  1  0  0  0  0
  2  3  4  0  0  0  0
  2  7  4  0  0  0  0
  3  4  4  0  0  0  0
  4  5  4  0  0  0  0
  5  6  4  0  0  0  0
  5  8  1  0  0  0  0
  6  7  4  0  0  0  0
  8  9  1  0  0  0  0
  9 10  1  0  0  0  0
 10 11  1  0  0  0  0
 10 15  1  0  0  0  0
 11 12  1  0  0  0  0
 12 13  1  0  0  0  0
 13 14  1  0  0  0  0
 13 16  1  0  0  0  0
 14 15  1  0  0  0  0
 16 17  1  0  0  0  0
 16 18  1  0  0  0  0
 18 19  4  0  0  0  0
 18 27  4  0  0  0  0
 19 20  4  0  0  0  0
 20 21  4  0  0  0  0
 21 22  4  0  0  0  0
 22 23  1  0  0  0  0
 22 27  4  0  0  0  0
 23 24  1  0  0  0  0
 24 25  1  0  0  0  0
 25 26  1  0  0  0  0
 27 28  1  0  0  0  0
 28 29  1  0  0  0  0
M  END
>  <Name_Molregno>
437622

>  <5-HT1A>
5

>  <5-HT1B>
5.89

>  <5-HT1D>
6.06

>  <5-HT1E>
5

>  <5-HT2C>
7.22

>  <5-HT3>
5

>  <5-HT5>
5.09

>  <5-HT6>
5.41

>  <5-HT7>
7.09

>  <Alpha-1A>
6.47

>  <Alpha-1B>
6.4

>  <Alpha-2A>
5

>  <Alpha-2C>
6.83

>  <DOPAMINE D1>
5.74

>  <DOPAMINE D2>
5.29

>  <DOPAMINE D4>
6.31

>  <DOPAMINE D5>
5.13

>  <Dopamine transporter>
5

>  <HISTAMINE H1>
6.36

>  <HISTAMINE H2>
5.56

>  <HISTAMINE H3>
5

>  <Serotonin transporter>
5.55

$$$$
468584
  Marvin  02231216192D 0   1.00000     0.00000     0

 19 21  0  0  1  0  0  0  0  0999 V2000
    0.5028   -0.1165    0.0000 O   0  0  0  0  0  0  0  0  0
   -0.2117   -0.5290    0.0000 C   0  0  0  0  0  0  0  0  0
   -0.9262   -0.1165    0.0000 C   0  0  0  0  0  0  0  0  0
   -1.6406   -0.5290    0.0000 C   0  0  0  0  0  0  0  0  0
   -2.3551   -0.1165    0.0000 C   0  0  0  0  0  0  0  0  0
   -2.3551    0.7085    0.0000 C   0  0  0  0  0  0  0  0  0
   -1.6406    1.1210    0.0000 C   0  0  0  0  0  0  0  0  0
   -0.9262    0.7085    0.0000 C   0  0  0  0  0  0  0  0  0
   -0.2117   -1.3540    0.0000 C   0  0  0  0  0  0  0  0  0
    0.4558   -1.8390    0.0000 N   0  0  0  0  0  0  0  0  0
    0.2008   -2.6236    0.0000 C   0  0  0  0  0  0  0  0  0
   -0.6242   -2.6236    0.0000 C   0  0  0  0  0  0  0  0  0
   -0.8791   -1.8390    0.0000 N   0  0  0  0  0  0  0  0  0
    1.2173   -0.5290    0.0000 C   0  0  0  0  0  0  0  0  0
    1.9317   -0.1165    0.0000 C   0  0  0  0  0  0  0  0  0
    2.6462   -0.5290    0.0000 C   0  0  0  0  0  0  0  0  0
    2.6462   -1.3540    0.0000 C   0  0  0  0  0  0  0  0  0
    1.9317   -1.7665    0.0000 C   0  0  0  0  0  0  0  0  0
    1.2173   -1.3540    0.0000 C   0  0  0  0  0  0  0  0  0
  1  2  1  0  0  0  0
  1 14  1  0  0  0  0
  2  3  1  0  0  0  0
  2  9  1  0  0  0  0
  3  4  4  0  0  0  0
  3  8  4  0  0  0  0
  4  5  4  0  0  0  0
  5  6  4  0  0  0  0
  6  7  4  0  0  0  0
  7  8  4  0  0  0  0
  9 10  1  0  0  0  0
  9 13  2  0  0  0  0
 10 11  1  0  0  0  0
 11 12  1  0  0  0  0
 12 13  1  0  0  0  0
 14 15  4  0  0  0  0
 14 19  4  0  0  0  0
 15 16  4  0  0  0  0
 16 17  4  0  0  0  0
 17 18  4  0  0  0  0
 18 19  4  0  0  0  0
M  END
>  <Name_Molregno>
468584

>  <Alpha-2A>
7.03

>  <Alpha-2B>
7.32

>  <Alpha-2C>
7.19

$$$$
468586
  Marvin  02231216192D 0   1.00000     0.00000     0

 17 18  0  0  1  0  0  0  0  0999 V2000
   -0.2244   -0.2311    0.0000 O   0  0  0  0  0  0  0  0  0
   -0.9389   -0.6436    0.0000 C   0  0  0  0  0  0  0  0  0
   -1.6533   -0.2311    0.0000 C   0  0  0  0  0  0  0  0  0
   -0.9389   -1.4686    0.0000 C   0  0  0  0  0  0  0  0  0
   -0.2714   -1.9535    0.0000 N   0  0  0  0  0  0  0  0  0
   -0.5264   -2.7381    0.0000 C   0  0  0  0  0  0  0  0  0
   -1.3514   -2.7381    0.0000 C   0  0  0  0  0  0  0  0  0
   -1.6063   -1.9535    0.0000 N   0  0  0  0  0  0  0  0  0
   -0.2244    0.5939    0.0000 C   0  0  0  0  0  0  0  0  0
   -0.9389    1.0064    0.0000 C   0  0  0  0  0  0  0  0  0
   -0.9389    1.8314    0.0000 C   0  0  0  0  0  0  0  0  0
   -0.2244    2.2439    0.0000 C   0  0  0  0  0  0  0  0  0
    0.4901    1.8314    0.0000 C   0  0  0  0  0  0  0  0  0
    0.4901    1.0064    0.0000 C   0  0  0  0  0  0  0  0  0
    1.2045    0.5939    0.0000 C   0  0  0  0  0  0  0  0  0
    1.9190    1.0064    0.0000 N   0  0  0  0  0  0  0  0  0
    1.9190    1.8314    0.0000 O   0  0  0  0  0  0  0  0  0
  1  2  1  0  0  0  0
  1  9  1  0  0  0  0
  2  3  1  0  0  0  0
  2  4  1  0  0  0  0
  4  5  1  0  0  0  0
  4  8  2  0  0  0  0
  5  6  1  0  0  0  0
  6  7  1  0  0  0  0
  7  8  1  0  0  0  0
  9 10  4  0  0  0  0
  9 14  4  0  0  0  0
 10 11  4  0  0  0  0
 11 12  4  0  0  0  0
 12 13  4  0  0  0  0
 13 14  4  0  0  0  0
 14 15  1  0  0  0  0
 15 16  2  0  0  0  0
 16 17  1  0  0  0  0
M  END
>  <Name_Molregno>
468586

>  <Alpha-2A>
6.54

>  <Alpha-2B>
6.15

>  <Alpha-2C>
6.04

$$$$
468649
  Marvin  02231216192D 0   1.00000     0.00000     0

 18 19  0  0  1  0  0  0  0  0999 V2000
   -0.4260    0.0561    0.0000 O   0  0  0  0  0  0  0  0  0
   -1.1405   -0.3564    0.0000 C   0  0  0  0  0  0  0  0  0
   -1.8549    0.0561    0.0000 C   0  0  0  0  0  0  0  0  0
   -1.1405   -1.1814    0.0000 C   0  0  0  0  0  0  0  0  0
   -0.4730   -1.6664    0.0000 N   0  0  0  0  0  0  0  0  0
   -0.7280   -2.4510    0.0000 C   0  0  0  0  0  0  0  0  0
   -1.5530   -2.4510    0.0000 C   0  0  0  0  0  0  0  0  0
   -1.8079   -1.6664    0.0000 N   0  0  0  0  0  0  0  0  0
   -0.4260    0.8811    0.0000 C   0  0  0  0  0  0  0  0  0
   -1.1405    1.2936    0.0000 C   0  0  0  0  0  0  0  0  0
   -1.1405    2.1186    0.0000 C   0  0  0  0  0  0  0  0  0
   -0.4260    2.5311    0.0000 C   0  0  0  0  0  0  0  0  0
    0.2885    2.1186    0.0000 C   0  0  0  0  0  0  0  0  0
    0.2885    1.2936    0.0000 C   0  0  0  0  0  0  0  0  0
    1.0030    0.8811    0.0000 C   0  0  0  0  0  0  0  0  0
    1.0030    0.0561    0.0000 N   0  0  0  0  0  0  0  0  0
    1.7174   -0.3564    0.0000 O   0  0  0  0  0  0  0  0  0
    2.4319    0.0561    0.0000 C   0  0  0  0  0  0  0  0  0
  1  2  1  0  0  0  0
  1  9  1  0  0  0  0
  2  3  1  0  0  0  0
  2  4  1  0  0  0  0
  4  5  1  0  0  0  0
  4  8  2  0  0  0  0
  5  6  1  0  0  0  0
  6  7  1  0  0  0  0
  7  8  1  0  0  0  0
  9 10  4  0  0  0  0
  9 14  4  0  0  0  0
 10 11  4  0  0  0  0
 11 12  4  0  0  0  0
 12 13  4  0  0  0  0
 13 14  4  0  0  0  0
 14 15  1  0  0  0  0
 15 16  2  0  0  0  0
 16 17  1  0  0  0  0
 17 18  1  0  0  0  0
M  END
>  <Name_Molregno>
468649

>  <Alpha-2A>
6.18

>  <Alpha-2B>
5.92

>  <Alpha-2C>
5.51

$$$$
468650
  Marvin  02231216192D 0   1.00000     0.00000     0

 19 20  0  0  1  0  0  0  0  0999 V2000
   -0.7278    0.1520    0.0000 O   0  0  0  0  0  0  0  0  0
   -1.4422   -0.2605    0.0000 C   0  0  0  0  0  0  0  0  0
   -2.1567    0.1520    0.0000 C   0  0  0  0  0  0  0  0  0
   -1.4422   -1.0855    0.0000 C   0  0  0  0  0  0  0  0  0
   -0.7748   -1.5704    0.0000 N   0  0  0  0  0  0  0  0  0
   -1.0297   -2.3551    0.0000 C   0  0  0  0  0  0  0  0  0
   -1.8547   -2.3551    0.0000 C   0  0  0  0  0  0  0  0  0
   -2.1097   -1.5704    0.0000 N   0  0  0  0  0  0  0  0  0
   -0.7278    0.9770    0.0000 C   0  0  0  0  0  0  0  0  0
   -1.4422    1.3895    0.0000 C   0  0  0  0  0  0  0  0  0
   -1.4422    2.2145    0.0000 C   0  0  0  0  0  0  0  0  0
   -0.7278    2.6270    0.0000 C   0  0  0  0  0  0  0  0  0
   -0.0133    2.2145    0.0000 C   0  0  0  0  0  0  0  0  0
   -0.0133    1.3895    0.0000 C   0  0  0  0  0  0  0  0  0
    0.7012    0.9770    0.0000 C   0  0  0  0  0  0  0  0  0
    0.7012    0.1520    0.0000 N   0  0  0  0  0  0  0  0  0
    1.4157   -0.2605    0.0000 O   0  0  0  0  0  0  0  0  0
    1.4157   -1.0855    0.0000 C   0  0  0  0  0  0  0  0  0
    2.1301   -1.4980    0.0000 C   0  0  0  0  0  0  0  0  0
  1  2  1  0  0  0  0
  1  9  1  0  0  0  0
  2  3  1  0  0  0  0
  2  4  1  0  0  0  0
  4  5  1  0  0  0  0
  4  8  2  0  0  0  0
  5  6  1  0  0  0  0
  6  7  1  0  0  0  0
  7  8  1  0  0  0  0
  9 10  4  0  0  0  0
  9 14  4  0  0  0  0
 10 11  4  0  0  0  0
 11 12  4  0  0  0  0
 12 13  4  0  0  0  0
 13 14  4  0  0  0  0
 14 15  1  0  0  0  0
 15 16  2  0  0  0  0
 16 17  1  0  0  0  0
 17 18  1  0  0  0  0
 18 19  1  0  0  0  0
M  END
>  <Name_Molregno>
468650

>  <Alpha-2A>
6.38

>  <Alpha-2B>
6.35

>  <Alpha-2C>
6.47

$$$$
468651
  Marvin  02231216192D 0   1.00000     0.00000     0

 24 26  0  0  1  0  0  0  0  0999 V2000
   -2.5528    0.4571    0.0000 O   0  0  0  0  0  0  0  0  0
   -3.2673    0.0446    0.0000 C   0  0  0  0  0  0  0  0  0
   -3.9817    0.4571    0.0000 C   0  0  0  0  0  0  0  0  0
   -3.2673   -0.7804    0.0000 C   0  0  0  0  0  0  0  0  0
   -2.5998   -1.2653    0.0000 N   0  0  0  0  0  0  0  0  0
   -2.8548   -2.0499    0.0000 C   0  0  0  0  0  0  0  0  0
   -3.6798   -2.0499    0.0000 C   0  0  0  0  0  0  0  0  0
   -3.9347   -1.2653    0.0000 N   0  0  0  0  0  0  0  0  0
   -2.5528    1.2821    0.0000 C   0  0  0  0  0  0  0  0  0
   -3.2673    1.6946    0.0000 C   0  0  0  0  0  0  0  0  0
   -3.2673    2.5196    0.0000 C   0  0  0  0  0  0  0  0  0
   -2.5528    2.9321    0.0000 C   0  0  0  0  0  0  0  0  0
   -1.8383    2.5196    0.0000 C   0  0  0  0  0  0  0  0  0
   -1.8383    1.6946    0.0000 C   0  0  0  0  0  0  0  0  0
   -1.1239    1.2821    0.0000 C   0  0  0  0  0  0  0  0  0
   -1.1239    0.4571    0.0000 N   0  0  0  0  0  0  0  0  0
   -0.4094    0.0446    0.0000 O   0  0  0  0  0  0  0  0  0
    0.3051    0.4571    0.0000 C   0  0  0  0  0  0  0  0  0
    1.0196    0.0446    0.0000 C   0  0  0  0  0  0  0  0  0
    1.7340    0.4571    0.0000 C   0  0  0  0  0  0  0  0  0
    2.4485    0.0446    0.0000 C   0  0  0  0  0  0  0  0  0
    2.4485   -0.7804    0.0000 C   0  0  0  0  0  0  0  0  0
    1.7340   -1.1929    0.0000 C   0  0  0  0  0  0  0  0  0
    1.0196   -0.7804    0.0000 C   0  0  0  0  0  0  0  0  0
  1  2  1  0  0  0  0
  1  9  1  0  0  0  0
  2  3  1  0  0  0  0
  2  4  1  0  0  0  0
  4  5  1  0  0  0  0
  4  8  2  0  0  0  0
  5  6  1  0  0  0  0
  6  7  1  0  0  0  0
  7  8  1  0  0  0  0
  9 10  4  0  0  0  0
  9 14  4  0  0  0  0
 10 11  4  0  0  0  0
 11 12  4  0  0  0  0
 12 13  4  0  0  0  0
 13 14  4  0  0  0  0
 14 15  1  0  0  0  0
 15 16  2  0  0  0  0
 16 17  1  0  0  0  0
 17 18  1  0  0  0  0
 18 19  1  0  0  0  0
 19 20  4  0  0  0  0
 19 24  4  0  0  0  0
 20 21  4  0  0  0  0
 21 22  4  0  0  0  0
 22 23  4  0  0  0  0
 23 24  4  0  0  0  0
M  END
>  <Name_Molregno>
468651

>  <Alpha-2A>
6.67

>  <Alpha-2B>
6.06

>  <Alpha-2C>
6.17

$$$$
468652
  Marvin  02231216192D 0   1.00000     0.00000     0

 17 18  0  0  1  0  0  0  0  0999 V2000
   -0.1114   -0.0528    0.0000 O   0  0  0  0  0  0  0  0  0
   -0.8259   -0.4653    0.0000 C   0  0  0  0  0  0  0  0  0
   -1.5404   -0.0528    0.0000 C   0  0  0  0  0  0  0  0  0
   -0.8259   -1.2903    0.0000 C   0  0  0  0  0  0  0  0  0
   -0.1585   -1.7752    0.0000 N   0  0  0  0  0  0  0  0  0
   -0.4134   -2.5598    0.0000 C   0  0  0  0  0  0  0  0  0
   -1.2384   -2.5598    0.0000 C   0  0  0  0  0  0  0  0  0
   -1.4933   -1.7752    0.0000 N   0  0  0  0  0  0  0  0  0
   -0.1114    0.7722    0.0000 C   0  0  0  0  0  0  0  0  0
   -0.8259    1.1847    0.0000 C   0  0  0  0  0  0  0  0  0
   -0.8259    2.0097    0.0000 C   0  0  0  0  0  0  0  0  0
   -0.1114    2.4222    0.0000 C   0  0  0  0  0  0  0  0  0
    0.6030    2.0097    0.0000 C   0  0  0  0  0  0  0  0  0
    0.6030    1.1847    0.0000 C   0  0  0  0  0  0  0  0  0
    1.3175    0.7722    0.0000 C   0  0  0  0  0  0  0  0  0
    1.3175   -0.0528    0.0000 C   0  0  0  0  0  0  0  0  0
    2.0320   -0.4653    0.0000 C   0  0  0  0  0  0  0  0  0
  1  2  1  0  0  0  0
  1  9  1  0  0  0  0
  2  3  1  0  0  0  0
  2  4  1  0  0  0  0
  4  5  1  0  0  0  0
  4  8  2  0  0  0  0
  5  6  1  0  0  0  0
  6  7  1  0  0  0  0
  7  8  1  0  0  0  0
  9 10  4  0  0  0  0
  9 14  4  0  0  0  0
 10 11  4  0  0  0  0
 11 12  4  0  0  0  0
 12 13  4  0  0  0  0
 13 14  4  0  0  0  0
 14 15  1  0  0  0  0
 15 16  1  0  0  0  0
 16 17  2  0  0  0  0
M  END
>  <Name_Molregno>
468652

>  <Alpha-2A>
7.24

>  <Alpha-2B>
6.47

>  <Alpha-2C>
7.07

$$$$
468653
  Marvin  02231216192D 0   1.00000     0.00000     0

 19 21  0  0  1  0  0  0  0  0999 V2000
   -0.4453   -0.2572    0.0000 O   0  0  0  0  0  0  0  0  0
   -1.1598   -0.6697    0.0000 C   0  0  0  0  0  0  0  0  0
   -1.8743   -0.2572    0.0000 C   0  0  0  0  0  0  0  0  0
   -1.1598   -1.4947    0.0000 C   0  0  0  0  0  0  0  0  0
   -0.4923   -1.9796    0.0000 N   0  0  0  0  0  0  0  0  0
   -0.7473   -2.7643    0.0000 C   0  0  0  0  0  0  0  0  0
   -1.5723   -2.7643    0.0000 C   0  0  0  0  0  0  0  0  0
   -1.8272   -1.9796    0.0000 N   0  0  0  0  0  0  0  0  0
   -0.4453    0.5678    0.0000 C   0  0  0  0  0  0  0  0  0
   -1.1598    0.9803    0.0000 C   0  0  0  0  0  0  0  0  0
   -1.1598    1.8053    0.0000 C   0  0  0  0  0  0  0  0  0
   -0.4453    2.2178    0.0000 C   0  0  0  0  0  0  0  0  0
    0.2692    1.8053    0.0000 C   0  0  0  0  0  0  0  0  0
    0.2692    0.9803    0.0000 C   0  0  0  0  0  0  0  0  0
    0.9836    0.5678    0.0000 C   0  0  0  0  0  0  0  0  0
    1.7373    0.9033    0.0000 C   0  0  0  0  0  0  0  0  0
    2.2893    0.2902    0.0000 C   0  0  0  0  0  0  0  0  0
    1.8768   -0.4242    0.0000 C   0  0  0  0  0  0  0  0  0
    1.0699   -0.2527    0.0000 C   0  0  0  0  0  0  0  0  0
  1  2  1  0  0  0  0
  1  9  1  0  0  0  0
  2  3  1  0  0  0  0
  2  4  1  0  0  0  0
  4  5  1  0  0  0  0
  4  8  2  0  0  0  0
  5  6  1  0  0  0  0
  6  7  1  0  0  0  0
  7  8  1  0  0  0  0
  9 10  4  0  0  0  0
  9 14  4  0  0  0  0
 10 11  4  0  0  0  0
 11 12  4  0  0  0  0
 12 13  4  0  0  0  0
 13 14  4  0  0  0  0
 14 15  1  0  0  0  0
 15 16  1  0  0  0  0
 15 19  1  0  0  0  0
 16 17  1  0  0  0  0
 17 18  1  0  0  0  0
 18 19  1  0  0  0  0
M  END
>  <Name_Molregno>
468653

>  <Alpha-2A>
7.3

>  <Alpha-2B>
6.72

>  <Alpha-2C>
7.57

$$$$
468654
  Marvin  02231216192D 0   1.00000     0.00000     0

 20 22  0  0  1  0  0  0  0  0999 V2000
   -0.6263    0.1335    0.0000 O   0  0  0  0  0  0  0  0  0
   -1.3408   -0.2790    0.0000 C   0  0  0  0  0  0  0  0  0
   -2.0552    0.1335    0.0000 C   0  0  0  0  0  0  0  0  0
   -1.3408   -1.1040    0.0000 C   0  0  0  0  0  0  0  0  0
   -0.6733   -1.5889    0.0000 N   0  0  0  0  0  0  0  0  0
   -0.9283   -2.3735    0.0000 C   0  0  0  0  0  0  0  0  0
   -1.7533   -2.3735    0.0000 C   0  0  0  0  0  0  0  0  0
   -2.0082   -1.5889    0.0000 N   0  0  0  0  0  0  0  0  0
   -0.6263    0.9585    0.0000 C   0  0  0  0  0  0  0  0  0
   -1.3408    1.3710    0.0000 C   0  0  0  0  0  0  0  0  0
   -1.3408    2.1960    0.0000 C   0  0  0  0  0  0  0  0  0
   -0.6263    2.6085    0.0000 C   0  0  0  0  0  0  0  0  0
    0.0882    2.1960    0.0000 C   0  0  0  0  0  0  0  0  0
    0.0882    1.3710    0.0000 C   0  0  0  0  0  0  0  0  0
    0.8026    0.9585    0.0000 C   0  0  0  0  0  0  0  0  0
    1.5171    1.3710    0.0000 C   0  0  0  0  0  0  0  0  0
    2.2316    0.9585    0.0000 C   0  0  0  0  0  0  0  0  0
    2.2316    0.1335    0.0000 C   0  0  0  0  0  0  0  0  0
    1.5171   -0.2790    0.0000 C   0  0  0  0  0  0  0  0  0
    0.8026    0.1335    0.0000 C   0  0  0  0  0  0  0  0  0
  1  2  1  0  0  0  0
  1  9  1  0  0  0  0
  2  3  1  0  0  0  0
  2  4  1  0  0  0  0
  4  5  1  0  0  0  0
  4  8  2  0  0  0  0
  5  6  1  0  0  0  0
  6  7  1  0  0  0  0
  7  8  1  0  0  0  0
  9 10  4  0  0  0  0
  9 14  4  0  0  0  0
 10 11  4  0  0  0  0
 11 12  4  0  0  0  0
 12 13  4  0  0  0  0
 13 14  4  0  0  0  0
 14 15  1  0  0  0  0
 15 16  1  0  0  0  0
 15 20  1  0  0  0  0
 16 17  1  0  0  0  0
 17 18  1  0  0  0  0
 18 19  1  0  0  0  0
 19 20  1  0  0  0  0
M  END
>  <Name_Molregno>
468654

>  <Alpha-2A>
7.13

>  <Alpha-2B>
6.72

>  <Alpha-2C>
7.11

$$$$
468655
  Marvin  02231216192D 0   1.00000     0.00000     0

 25 28  0  0  1  0  0  0  0  0999 V2000
    0.0524    0.0169    0.0000 O   0  0  0  0  0  0  0  0  0
    0.7669   -0.3956    0.0000 C   0  0  0  0  0  0  0  0  0
    1.4814    0.0169    0.0000 C   0  0  0  0  0  0  0  0  0
    1.4814    0.8419    0.0000 C   0  0  0  0  0  0  0  0  0
    2.1958    1.2544    0.0000 C   0  0  0  0  0  0  0  0  0
    2.9103    0.8419    0.0000 C   0  0  0  0  0  0  0  0  0
    2.9103    0.0169    0.0000 C   0  0  0  0  0  0  0  0  0
    2.1958   -0.3956    0.0000 C   0  0  0  0  0  0  0  0  0
    0.7669   -1.2206    0.0000 C   0  0  0  0  0  0  0  0  0
    1.4343   -1.7056    0.0000 N   0  0  0  0  0  0  0  0  0
    1.1794   -2.4902    0.0000 C   0  0  0  0  0  0  0  0  0
    0.3544   -2.4902    0.0000 C   0  0  0  0  0  0  0  0  0
    0.0994   -1.7056    0.0000 N   0  0  0  0  0  0  0  0  0
   -0.6621   -0.3956    0.0000 C   0  0  0  0  0  0  0  0  0
   -0.6621   -1.2206    0.0000 C   0  0  0  0  0  0  0  0  0
   -1.3765   -1.6331    0.0000 C   0  0  0  0  0  0  0  0  0
   -2.0910   -1.2206    0.0000 C   0  0  0  0  0  0  0  0  0
   -2.0910   -0.3956    0.0000 C   0  0  0  0  0  0  0  0  0
   -1.3765    0.0169    0.0000 C   0  0  0  0  0  0  0  0  0
   -1.3765    0.8419    0.0000 C   0  0  0  0  0  0  0  0  0
   -2.0910    1.2544    0.0000 C   0  0  0  0  0  0  0  0  0
   -2.0910    2.0794    0.0000 C   0  0  0  0  0  0  0  0  0
   -1.3765    2.4919    0.0000 C   0  0  0  0  0  0  0  0  0
   -0.6621    2.0794    0.0000 C   0  0  0  0  0  0  0  0  0
   -0.6621    1.2544    0.0000 C   0  0  0  0  0  0  0  0  0
  1  2  1  0  0  0  0
  1 14  1  0  0  0  0
  2  3  1  0  0  0  0
  2  9  1  0  0  0  0
  3  4  4  0  0  0  0
  3  8  4  0  0  0  0
  4  5  4  0  0  0  0
  5  6  4  0  0  0  0
  6  7  4  0  0  0  0
  7  8  4  0  0  0  0
  9 10  1  0  0  0  0
  9 13  2  0  0  0  0
 10 11  1  0  0  0  0
 11 12  1  0  0  0  0
 12 13  1  0  0  0  0
 14 15  4  0  0  0  0
 14 19  4  0  0  0  0
 15 16  4  0  0  0  0
 16 17  4  0  0  0  0
 17 18  4  0  0  0  0
 18 19  4  0  0  0  0
 19 20  1  0  0  0  0
 20 21  4  0  0  0  0
 20 25  4  0  0  0  0
 21 22  4  0  0  0  0
 22 23  4  0  0  0  0
 23 24  4  0  0  0  0
 24 25  4  0  0  0  0
M  END
>  <Name_Molregno>
468655

>  <Alpha-2A>
6.62

>  <Alpha-2B>
6.02

>  <Alpha-2C>
6.69

$$$$
468719
  Marvin  02231216192D 0   1.00000     0.00000     0

 21 24  0  0  1  0  0  0  0  0999 V2000
    0.9243   -0.8747    0.0000 O   0  0  0  0  0  0  0  0  0
    1.6388   -0.4622    0.0000 C   0  0  0  0  0  0  0  0  0
    1.6388    0.3628    0.0000 C   0  0  0  0  0  0  0  0  0
    0.9243    0.7753    0.0000 O   0  0  0  0  0  0  0  0  0
    0.2099    0.3628    0.0000 C   0  0  0  0  0  0  0  0  0
    0.2099   -0.4622    0.0000 C   0  0  0  0  0  0  0  0  0
   -0.5046   -0.8747    0.0000 C   0  0  0  0  0  0  0  0  0
   -0.5908   -1.6952    0.0000 N   0  0  0  0  0  0  0  0  0
   -1.3978   -1.8668    0.0000 C   0  0  0  0  0  0  0  0  0
   -1.8103   -1.1523    0.0000 C   0  0  0  0  0  0  0  0  0
   -1.2583   -0.5392    0.0000 N   0  0  0  0  0  0  0  0  0
    2.3533    0.7753    0.0000 C   0  0  0  0  0  0  0  0  0
    3.0678    0.3628    0.0000 C   0  0  0  0  0  0  0  0  0
    3.0678   -0.4622    0.0000 C   0  0  0  0  0  0  0  0  0
    2.3533   -0.8747    0.0000 C   0  0  0  0  0  0  0  0  0
    2.3533    1.6003    0.0000 C   0  0  0  0  0  0  0  0  0
    1.6388    2.0128    0.0000 C   0  0  0  0  0  0  0  0  0
    1.6388    2.8378    0.0000 C   0  0  0  0  0  0  0  0  0
    2.3533    3.2503    0.0000 C   0  0  0  0  0  0  0  0  0
    3.0678    2.8378    0.0000 C   0  0  0  0  0  0  0  0  0
    3.0678    2.0128    0.0000 C   0  0  0  0  0  0  0  0  0
  1  2  1  0  0  0  0
  1  6  1  0  0  0  0
  2  3  4  0  0  0  0
  2 15  4  0  0  0  0
  3  4  1  0  0  0  0
  3 12  4  0  0  0  0
  4  5  1  0  0  0  0
  5  6  1  0  0  0  0
  6  7  1  0  0  0  0
  7  8  1  0  0  0  0
  7 11  2  0  0  0  0
  8  9  1  0  0  0  0
  9 10  1  0  0  0  0
 10 11  1  0  0  0  0
 12 13  4  0  0  0  0
 12 16  1  0  0  0  0
 13 14  4  0  0  0  0
 14 15  4  0  0  0  0
 16 17  4  0  0  0  0
 16 21  4  0  0  0  0
 17 18  4  0  0  0  0
 18 19  4  0  0  0  0
 19 20  4  0  0  0  0
 20 21  4  0  0  0  0
M  END
>  <Name_Molregno>
468719

>  <Alpha-2A>
6.14

>  <Alpha-2B>
5.97

>  <Alpha-2C>
6.08

$$$$
468720
  Marvin  02231216192D 0   1.00000     0.00000     0

 21 24  0  0  1  0  0  0  0  0999 V2000
    0.3007   -0.5678    0.0000 O   0  0  0  0  0  0  0  0  0
    1.0152   -0.1553    0.0000 C   0  0  0  0  0  0  0  0  0
    1.0152    0.6697    0.0000 C   0  0  0  0  0  0  0  0  0
    0.3007    1.0822    0.0000 O   0  0  0  0  0  0  0  0  0
   -0.4137    0.6697    0.0000 C   0  0  0  0  0  0  0  0  0
   -0.4137   -0.1553    0.0000 C   0  0  0  0  0  0  0  0  0
   -1.1282   -0.5678    0.0000 C   0  0  0  0  0  0  0  0  0
   -1.2144   -1.3883    0.0000 N   0  0  0  0  0  0  0  0  0
   -2.0214   -1.5598    0.0000 C   0  0  0  0  0  0  0  0  0
   -2.4339   -0.8453    0.0000 C   0  0  0  0  0  0  0  0  0
   -1.8819   -0.2322    0.0000 N   0  0  0  0  0  0  0  0  0
    1.7297    1.0822    0.0000 C   0  0  0  0  0  0  0  0  0
    2.4442    0.6697    0.0000 C   0  0  0  0  0  0  0  0  0
    2.4442   -0.1553    0.0000 C   0  0  0  0  0  0  0  0  0
    1.7297   -0.5678    0.0000 C   0  0  0  0  0  0  0  0  0
    3.1586    1.0822    0.0000 C   0  0  0  0  0  0  0  0  0
    3.1586    1.9072    0.0000 C   0  0  0  0  0  0  0  0  0
    3.8731    2.3197    0.0000 C   0  0  0  0  0  0  0  0  0
    4.5876    1.9072    0.0000 C   0  0  0  0  0  0  0  0  0
    4.5876    1.0822    0.0000 C   0  0  0  0  0  0  0  0  0
    3.8731    0.6697    0.0000 C   0  0  0  0  0  0  0  0  0
  1  2  1  0  0  0  0
  1  6  1  0  0  0  0
  2  3  4  0  0  0  0
  2 15  4  0  0  0  0
  3  4  1  0  0  0  0
  3 12  4  0  0  0  0
  4  5  1  0  0  0  0
  5  6  1  0  0  0  0
  6  7  1  0  0  0  0
  7  8  1  0  0  0  0
  7 11  2  0  0  0  0
  8  9  1  0  0  0  0
  9 10  1  0  0  0  0
 10 11  1  0  0  0  0
 12 13  4  0  0  0  0
 13 14  4  0  0  0  0
 13 16  1  0  0  0  0
 14 15  4  0  0  0  0
 16 17  4  0  0  0  0
 16 21  4  0  0  0  0
 17 18  4  0  0  0  0
 18 19  4  0  0  0  0
 19 20  4  0  0  0  0
 20 21  4  0  0  0  0
M  END
>  <Name_Molregno>
468720

>  <Alpha-2A>
6.55

>  <Alpha-2B>
5.78

>  <Alpha-2C>
5.8

$$$$
468721
  Marvin  02231216192D 0   1.00000     0.00000     0

 21 24  0  0  1  0  0  0  0  0999 V2000
   -1.7294    0.0058    0.0000 O   0  0  0  0  0  0  0  0  0
   -1.0149   -0.4067    0.0000 C   0  0  0  0  0  0  0  0  0
   -0.3004    0.0058    0.0000 C   0  0  0  0  0  0  0  0  0
    0.4141   -0.4067    0.0000 C   0  0  0  0  0  0  0  0  0
    0.4141   -1.2317    0.0000 C   0  0  0  0  0  0  0  0  0
   -0.3004   -1.6442    0.0000 C   0  0  0  0  0  0  0  0  0
   -1.0149   -1.2317    0.0000 C   0  0  0  0  0  0  0  0  0
   -1.7294   -1.6442    0.0000 O   0  0  0  0  0  0  0  0  0
   -2.4438   -1.2317    0.0000 C   0  0  0  0  0  0  0  0  0
   -2.4438   -0.4067    0.0000 C   0  0  0  0  0  0  0  0  0
   -3.1583    0.0058    0.0000 C   0  0  0  0  0  0  0  0  0
   -3.9120   -0.3298    0.0000 N   0  0  0  0  0  0  0  0  0
   -4.4640    0.2833    0.0000 C   0  0  0  0  0  0  0  0  0
   -4.0515    0.9978    0.0000 C   0  0  0  0  0  0  0  0  0
   -3.2445    0.8262    0.0000 N   0  0  0  0  0  0  0  0  0
    1.1285    0.0058    0.0000 C   0  0  0  0  0  0  0  0  0
    1.1285    0.8308    0.0000 C   0  0  0  0  0  0  0  0  0
    1.8430    1.2433    0.0000 C   0  0  0  0  0  0  0  0  0
    2.5575    0.8308    0.0000 C   0  0  0  0  0  0  0  0  0
    2.5575    0.0058    0.0000 C   0  0  0  0  0  0  0  0  0
    1.8430   -0.4067    0.0000 C   0  0  0  0  0  0  0  0  0
  1  2  1  0  0  0  0
  1 10  1  0  0  0  0
  2  3  4  0  0  0  0
  2  7  4  0  0  0  0
  3  4  4  0  0  0  0
  4  5  4  0  0  0  0
  4 16  1  0  0  0  0
  5  6  4  0  0  0  0
  6  7  4  0  0  0  0
  7  8  1  0  0  0  0
  8  9  1  0  0  0  0
  9 10  1  0  0  0  0
 10 11  1  0  0  0  0
 11 12  1  0  0  0  0
 11 15  2  0  0  0  0
 12 13  1  0  0  0  0
 13 14  1  0  0  0  0
 14 15  1  0  0  0  0
 16 17  4  0  0  0  0
 16 21  4  0  0  0  0
 17 18  4  0  0  0  0
 18 19  4  0  0  0  0
 19 20  4  0  0  0  0
 20 21  4  0  0  0  0
M  END
>  <Name_Molregno>
468721

>  <Alpha-2A>
6.4

>  <Alpha-2B>
6

>  <Alpha-2C>
5.9

$$$$
468722
  Marvin  02231216192D 0   1.00000     0.00000     0

 21 24  0  0  1  0  0  0  0  0999 V2000
   -0.5215    0.0060    0.0000 O   0  0  0  0  0  0  0  0  0
    0.1930    0.4185    0.0000 C   0  0  0  0  0  0  0  0  0
    0.1930    1.2435    0.0000 C   0  0  0  0  0  0  0  0  0
   -0.5215    1.6560    0.0000 O   0  0  0  0  0  0  0  0  0
   -1.2359    1.2435    0.0000 C   0  0  0  0  0  0  0  0  0
   -1.2359    0.4185    0.0000 C   0  0  0  0  0  0  0  0  0
   -1.9504    0.0060    0.0000 C   0  0  0  0  0  0  0  0  0
   -2.0366   -0.8144    0.0000 N   0  0  0  0  0  0  0  0  0
   -2.8436   -0.9860    0.0000 C   0  0  0  0  0  0  0  0  0
   -3.2561   -0.2715    0.0000 C   0  0  0  0  0  0  0  0  0
   -2.7041    0.3416    0.0000 N   0  0  0  0  0  0  0  0  0
    0.9075    1.6560    0.0000 C   0  0  0  0  0  0  0  0  0
    1.6219    1.2435    0.0000 C   0  0  0  0  0  0  0  0  0
    1.6219    0.4185    0.0000 C   0  0  0  0  0  0  0  0  0
    0.9075    0.0060    0.0000 C   0  0  0  0  0  0  0  0  0
    0.9075   -0.8190    0.0000 C   0  0  0  0  0  0  0  0  0
    1.6219   -1.2315    0.0000 C   0  0  0  0  0  0  0  0  0
    1.6219   -2.0565    0.0000 C   0  0  0  0  0  0  0  0  0
    0.9075   -2.4690    0.0000 C   0  0  0  0  0  0  0  0  0
    0.1930   -2.0565    0.0000 C   0  0  0  0  0  0  0  0  0
    0.1930   -1.2315    0.0000 C   0  0  0  0  0  0  0  0  0
  1  2  1  0  0  0  0
  1  6  1  0  0  0  0
  2  3  4  0  0  0  0
  2 15  4  0  0  0  0
  3  4  1  0  0  0  0
  3 12  4  0  0  0  0
  4  5  1  0  0  0  0
  5  6  1  0  0  0  0
  6  7  1  0  0  0  0
  7  8  1  0  0  0  0
  7 11  2  0  0  0  0
  8  9  1  0  0  0  0
  9 10  1  0  0  0  0
 10 11  1  0  0  0  0
 12 13  4  0  0  0  0
 13 14  4  0  0  0  0
 14 15  4  0  0  0  0
 15 16  1  0  0  0  0
 16 17  4  0  0  0  0
 16 21  4  0  0  0  0
 17 18  4  0  0  0  0
 18 19  4  0  0  0  0
 19 20  4  0  0  0  0
 20 21  4  0  0  0  0
M  END
>  <Name_Molregno>
468722

>  <Alpha-2A>
6.62

>  <Alpha-2B>
6.32

>  <Alpha-2C>
6.16

$$$$
468723
  Marvin  02231216192D 0   1.00000     0.00000     0

 23 26  0  0  1  0  0  0  0  0999 V2000
   -0.8146   -0.4198    0.0000 O   0  0  0  0  0  0  0  0  0
   -0.1001   -0.0073    0.0000 C   0  0  0  0  0  0  0  0  0
   -0.1001    0.8177    0.0000 C   0  0  0  0  0  0  0  0  0
   -0.8146    1.2302    0.0000 O   0  0  0  0  0  0  0  0  0
   -1.5291    0.8177    0.0000 C   0  0  0  0  0  0  0  0  0
   -1.5291   -0.0073    0.0000 C   0  0  0  0  0  0  0  0  0
   -1.9662   -0.7069    0.0000 O   0  0  0  0  0  0  0  0  0
   -1.5789   -1.4353    0.0000 C   0  0  0  0  0  0  0  0  0
   -2.3535   -0.0361    0.0000 C   0  0  0  0  0  0  0  0  0
   -2.8149   -0.7200    0.0000 N   0  0  0  0  0  0  0  0  0
   -3.6079   -0.4926    0.0000 C   0  0  0  0  0  0  0  0  0
   -3.6367    0.3319    0.0000 C   0  0  0  0  0  0  0  0  0
   -2.8615    0.6141    0.0000 N   0  0  0  0  0  0  0  0  0
    0.6144    1.2302    0.0000 C   0  0  0  0  0  0  0  0  0
    1.3288    0.8177    0.0000 C   0  0  0  0  0  0  0  0  0
    1.3288   -0.0073    0.0000 C   0  0  0  0  0  0  0  0  0
    0.6144   -0.4198    0.0000 C   0  0  0  0  0  0  0  0  0
    0.6144    2.0552    0.0000 C   0  0  0  0  0  0  0  0  0
   -0.1001    2.4677    0.0000 C   0  0  0  0  0  0  0  0  0
   -0.1001    3.2927    0.0000 C   0  0  0  0  0  0  0  0  0
    0.6144    3.7052    0.0000 C   0  0  0  0  0  0  0  0  0
    1.3288    3.2927    0.0000 C   0  0  0  0  0  0  0  0  0
    1.3288    2.4677    0.0000 C   0  0  0  0  0  0  0  0  0
  1  2  1  0  0  0  0
  1  6  1  0  0  0  0
  2  3  4  0  0  0  0
  2 17  4  0  0  0  0
  3  4  1  0  0  0  0
  3 14  4  0  0  0  0
  4  5  1  0  0  0  0
  5  6  1  0  0  0  0
  6  7  1  0  0  0  0
  6  9  1  0  0  0  0
  7  8  1  0  0  0  0
  9 10  1  0  0  0  0
  9 13  2  0  0  0  0
 10 11  1  0  0  0  0
 11 12  1  0  0  0  0
 12 13  1  0  0  0  0
 14 15  4  0  0  0  0
 14 18  1  0  0  0  0
 15 16  4  0  0  0  0
 16 17  4  0  0  0  0
 18 19  4  0  0  0  0
 18 23  4  0  0  0  0
 19 20  4  0  0  0  0
 20 21  4  0  0  0  0
 21 22  4  0  0  0  0
 22 23  4  0  0  0  0
M  END
>  <Name_Molregno>
468723

>  <Alpha-2A>
6.59

$$$$
468724
  Marvin  02231216192D 0   1.00000     0.00000     0

 23 26  0  0  1  0  0  0  0  0999 V2000
    0.0040    0.0743    0.0000 O   0  0  0  0  0  0  0  0  0
    0.7184    0.4868    0.0000 C   0  0  0  0  0  0  0  0  0
    0.7184    1.3118    0.0000 C   0  0  0  0  0  0  0  0  0
    0.0040    1.7243    0.0000 O   0  0  0  0  0  0  0  0  0
   -0.7105    1.3118    0.0000 C   0  0  0  0  0  0  0  0  0
   -0.7105    0.4868    0.0000 C   0  0  0  0  0  0  0  0  0
   -1.1477   -0.2128    0.0000 O   0  0  0  0  0  0  0  0  0
   -0.7604   -0.9412    0.0000 C   0  0  0  0  0  0  0  0  0
   -1.5350    0.4581    0.0000 C   0  0  0  0  0  0  0  0  0
   -1.9963   -0.2259    0.0000 N   0  0  0  0  0  0  0  0  0
   -2.7894    0.0015    0.0000 C   0  0  0  0  0  0  0  0  0
   -2.8182    0.8260    0.0000 C   0  0  0  0  0  0  0  0  0
   -2.0429    1.1082    0.0000 N   0  0  0  0  0  0  0  0  0
    1.4329    1.7243    0.0000 C   0  0  0  0  0  0  0  0  0
    2.1474    1.3118    0.0000 C   0  0  0  0  0  0  0  0  0
    2.1474    0.4868    0.0000 C   0  0  0  0  0  0  0  0  0
    1.4329    0.0743    0.0000 C   0  0  0  0  0  0  0  0  0
    1.4329   -0.7507    0.0000 C   0  0  0  0  0  0  0  0  0
    2.1474   -1.1632    0.0000 C   0  0  0  0  0  0  0  0  0
    2.1474   -1.9882    0.0000 C   0  0  0  0  0  0  0  0  0
    1.4329   -2.4007    0.0000 C   0  0  0  0  0  0  0  0  0
    0.7184   -1.9882    0.0000 C   0  0  0  0  0  0  0  0  0
    0.7184   -1.1632    0.0000 C   0  0  0  0  0  0  0  0  0
  1  2  1  0  0  0  0
  1  6  1  0  0  0  0
  2  3  4  0  0  0  0
  2 17  4  0  0  0  0
  3  4  1  0  0  0  0
  3 14  4  0  0  0  0
  4  5  1  0  0  0  0
  5  6  1  0  0  0  0
  6  7  1  0  0  0  0
  6  9  1  0  0  0  0
  7  8  1  0  0  0  0
  9 10  1  0  0  0  0
  9 13  2  0  0  0  0
 10 11  1  0  0  0  0
 11 12  1  0  0  0  0
 12 13  1  0  0  0  0
 14 15  4  0  0  0  0
 15 16  4  0  0  0  0
 16 17  4  0  0  0  0
 17 18  1  0  0  0  0
 18 19  4  0  0  0  0
 18 23  4  0  0  0  0
 19 20  4  0  0  0  0
 20 21  4  0  0  0  0
 21 22  4  0  0  0  0
 22 23  4  0  0  0  0
M  END
>  <Name_Molregno>
468724

>  <Alpha-2A>
6.9

>  <Alpha-2B>
5.97

>  <Alpha-2C>
6.61

$$$$
469986
  Marvin  02231216192D 0   1.00000     0.00000     0

 25 26  0  0  0  0  0  0  0  0999 V2000
    2.6874   -3.8378    0.0000 Br  0  0  0  0  0  0  0  0  0
    2.6874   -3.0128    0.0000 C   0  0  0  0  0  0  0  0  0
    1.9729   -2.6003    0.0000 C   0  0  0  0  0  0  0  0  0
    1.9729   -1.7753    0.0000 C   0  0  0  0  0  0  0  0  0
    2.6874   -1.3628    0.0000 C   0  0  0  0  0  0  0  0  0
    3.4019   -1.7753    0.0000 C   0  0  0  0  0  0  0  0  0
    3.4019   -2.6003    0.0000 C   0  0  0  0  0  0  0  0  0
    4.1163   -3.0128    0.0000 O   0  0  0  0  0  0  0  0  0
    4.8308   -2.6003    0.0000 C   0  0  0  0  0  0  0  0  0
    5.5453   -3.0128    0.0000 C   0  0  0  0  0  0  0  0  0
    6.2598   -2.6003    0.0000 C   0  0  0  0  0  0  0  0  0
    6.9742   -3.0128    0.0000 N   0  0  0  0  0  0  0  0  0
    7.6887   -2.6003    0.0000 C   0  0  0  0  0  0  0  0  0
    6.9742   -3.8378    0.0000 C   0  0  0  0  0  0  0  0  0
    1.2585   -1.3628    0.0000 C   0  0  0  0  0  0  0  0  0
    1.2585   -0.5378    0.0000 C   0  0  0  0  0  0  0  0  0
    0.5440   -0.1253    0.0000 N   0  0  0  0  0  0  0  0  0
    0.5440    0.6997    0.0000 C   0  0  0  0  0  0  0  0  0
    1.2585    1.1122    0.0000 O   0  0  0  0  0  0  0  0  0
   -0.1705    1.1122    0.0000 C   0  0  0  0  0  0  0  0  0
   -0.9242    0.7766    0.0000 N   0  0  0  0  0  0  0  0  0
   -1.4762    1.3897    0.0000 C   0  0  0  0  0  0  0  0  0
   -1.0637    2.1042    0.0000 C   0  0  0  0  0  0  0  0  0
   -1.3992    2.8578    0.0000 Br  0  0  0  0  0  0  0  0  0
   -0.2567    1.9326    0.0000 C   0  0  0  0  0  0  0  0  0
  1  2  1  0  0  0  0
  2  3  4  0  0  0  0
  2  7  4  0  0  0  0
  3  4  4  0  0  0  0
  4  5  4  0  0  0  0
  4 15  1  0  0  0  0
  5  6  4  0  0  0  0
  6  7  4  0  0  0  0
  7  8  1  0  0  0  0
  8  9  1  0  0  0  0
  9 10  1  0  0  0  0
 10 11  1  0  0  0  0
 11 12  1  0  0  0  0
 12 13  1  0  0  0  0
 12 14  1  0  0  0  0
 15 16  1  0  0  0  0
 16 17  1  0  0  0  0
 17 18  1  0  0  0  0
 18 19  2  0  0  0  0
 18 20  1  0  0  0  0
 20 21  4  0  0  0  0
 20 25  4  0  0  0  0
 21 22  4  0  0  0  0
 22 23  4  0  0  0  0
 23 24  1  0  0  0  0
 23 25  4  0  0  0  0
M  STY  1   1 DAT
M  SAL   1  1  21
M  SDT   1 MRV_IMPLICIT_H                                        
M  SDD   1     0.0000    0.0000    DR    ALL  0       0  
M  SED   1 IMPL_H1
M  END
>  <Name_Molregno>
469986

>  <Alpha-2A>
7.16

>  <HISTAMINE H3>
5.98

$$$$
486993
  Marvin  02231216192D 0   1.00000     0.00000     0

 31 34  0  0  0  0  0  0  0  0999 V2000
   -4.0481   -0.6634    0.0000 S   0  0  0  0  0  0  0  0  0
   -4.4606    0.0511    0.0000 O   0  0  0  0  0  0  0  0  0
   -3.6356   -1.3779    0.0000 O   0  0  0  0  0  0  0  0  0
   -3.3336   -0.2509    0.0000 N   0  0  0  0  0  0  0  0  0
   -2.6191   -0.6634    0.0000 C   0  0  0  0  0  0  0  0  0
   -1.9047   -0.2509    0.0000 C   0  0  0  0  0  0  0  0  0
   -1.1902   -0.6634    0.0000 C   0  0  0  0  0  0  0  0  0
   -0.4757   -0.2509    0.0000 N   0  0  0  0  0  0  0  0  0
   -0.4757    0.5741    0.0000 C   0  0  0  0  0  0  0  0  0
    0.2388    0.9866    0.0000 C   0  0  0  0  0  0  0  0  0
    0.9532    0.5741    0.0000 N   0  0  0  0  0  0  0  0  0
    0.9532   -0.2509    0.0000 C   0  0  0  0  0  0  0  0  0
    0.2388   -0.6634    0.0000 C   0  0  0  0  0  0  0  0  0
    1.6677    0.9866    0.0000 C   0  0  0  0  0  0  0  0  0
    1.6677    1.8116    0.0000 C   0  0  0  0  0  0  0  0  0
    2.3822    2.2241    0.0000 C   0  0  0  0  0  0  0  0  0
    3.0966    1.8116    0.0000 C   0  0  0  0  0  0  0  0  0
    3.0966    0.9866    0.0000 C   0  0  0  0  0  0  0  0  0
    2.3822    0.5741    0.0000 C   0  0  0  0  0  0  0  0  0
    2.3822   -0.2509    0.0000 O   0  0  0  0  0  0  0  0  0
    3.0966   -0.6634    0.0000 C   0  0  0  0  0  0  0  0  0
   -4.7625   -1.0759    0.0000 C   0  0  0  0  0  0  0  0  0
   -5.4770   -0.6634    0.0000 C   0  0  0  0  0  0  0  0  0
   -6.1915   -1.0759    0.0000 C   0  0  0  0  0  0  0  0  0
   -6.1915   -1.9009    0.0000 C   0  0  0  0  0  0  0  0  0
   -5.4770   -2.3134    0.0000 C   0  0  0  0  0  0  0  0  0
   -4.7625   -1.9009    0.0000 C   0  0  0  0  0  0  0  0  0
   -6.9060   -2.3134    0.0000 C   0  0  0  0  0  0  0  0  0
   -7.6204   -1.9009    0.0000 C   0  0  0  0  0  0  0  0  0
   -7.6204   -1.0759    0.0000 C   0  0  0  0  0  0  0  0  0
   -6.9060   -0.6634    0.0000 C   0  0  0  0  0  0  0  0  0
  1  2  2  0  0  0  0
  1  3  2  0  0  0  0
  1  4  1  0  0  0  0
  1 22  1  0  0  0  0
  4  5  1  0  0  0  0
  5  6  1  0  0  0  0
  6  7  1  0  0  0  0
  7  8  1  0  0  0  0
  8  9  1  0  0  0  0
  8 13  1  0  0  0  0
  9 10  1  0  0  0  0
 10 11  1  0  0  0  0
 11 12  1  0  0  0  0
 11 14  1  0  0  0  0
 12 13  1  0  0  0  0
 14 15  4  0  0  0  0
 14 19  4  0  0  0  0
 15 16  4  0  0  0  0
 16 17  4  0  0  0  0
 17 18  4  0  0  0  0
 18 19  4  0  0  0  0
 19 20  1  0  0  0  0
 20 21  1  0  0  0  0
 22 23  4  0  0  0  0
 22 27  4  0  0  0  0
 23 24  4  0  0  0  0
 24 25  4  0  0  0  0
 24 31  4  0  0  0  0
 25 26  4  0  0  0  0
 25 28  4  0  0  0  0
 26 27  4  0  0  0  0
 28 29  4  0  0  0  0
 29 30  4  0  0  0  0
 30 31  4  0  0  0  0
M  END
>  <Name_Molregno>
486993

>  <5-HT1A>
6.95

>  <5-HT7>
7.7

>  <Alpha-2A>
8.33

>  <DOPAMINE D2>
6.88

$$$$
491138
  Marvin  02231216192D 0   1.00000     0.00000     0

 25 28  0  0  1  0  0  0  0  0999 V2000
   -0.3235   -1.4126    0.0000 O   0  0  0  0  0  0  0  0  0
    0.3909   -1.0001    0.0000 C   0  0  0  0  0  0  0  0  0
    0.3909   -0.1751    0.0000 C   0  0  0  0  0  0  0  0  0
   -0.3235    0.2374    0.0000 O   0  0  0  0  0  0  0  0  0
   -1.0380   -0.1751    0.0000 C   0  0  0  0  0  0  0  0  0
   -1.0380   -1.0001    0.0000 C   0  0  0  0  0  0  0  0  0
   -1.7525   -1.4126    0.0000 C   0  0  0  0  0  0  0  0  0
   -2.4669   -1.0001    0.0000 N   0  0  0  0  0  0  0  0  0
   -3.1814   -1.4126    0.0000 C   0  0  0  0  0  0  0  0  0
   -3.8959   -1.0001    0.0000 C   0  0  0  0  0  0  0  0  0
   -3.8959   -0.1751    0.0000 N   0  0  0  0  0  0  0  0  0
   -3.1814    0.2374    0.0000 C   0  0  0  0  0  0  0  0  0
   -2.4669   -0.1751    0.0000 C   0  0  0  0  0  0  0  0  0
   -4.6104    0.2374    0.0000 C   0  0  0  0  0  0  0  0  0
   -5.3248   -0.1751    0.0000 C   0  0  0  0  0  0  0  0  0
   -6.0393    0.2374    0.0000 C   0  0  0  0  0  0  0  0  0
   -6.0393    1.0624    0.0000 C   0  0  0  0  0  0  0  0  0
   -5.3248    1.4749    0.0000 C   0  0  0  0  0  0  0  0  0
   -4.6104    1.0624    0.0000 C   0  0  0  0  0  0  0  0  0
   -3.8959    1.4749    0.0000 O   0  0  0  0  0  0  0  0  0
   -3.8959    2.2999    0.0000 C   0  0  0  0  0  0  0  0  0
    1.1054    0.2374    0.0000 C   0  0  0  0  0  0  0  0  0
    1.8199   -0.1751    0.0000 C   0  0  0  0  0  0  0  0  0
    1.8199   -1.0001    0.0000 C   0  0  0  0  0  0  0  0  0
    1.1054   -1.4126    0.0000 C   0  0  0  0  0  0  0  0  0
  1  2  1  0  0  0  0
  1  6  1  0  0  0  0
  2  3  4  0  0  0  0
  2 25  4  0  0  0  0
  3  4  1  0  0  0  0
  3 22  4  0  0  0  0
  4  5  1  0  0  0  0
  5  6  1  0  0  0  0
  6  7  1  0  0  0  0
  7  8  1  0  0  0  0
  8  9  1  0  0  0  0
  8 13  1  0  0  0  0
  9 10  1  0  0  0  0
 10 11  1  0  0  0  0
 11 12  1  0  0  0  0
 11 14  1  0  0  0  0
 12 13  1  0  0  0  0
 14 15  4  0  0  0  0
 14 19  4  0  0  0  0
 15 16  4  0  0  0  0
 16 17  4  0  0  0  0
 17 18  4  0  0  0  0
 18 19  4  0  0  0  0
 19 20  1  0  0  0  0
 20 21  1  0  0  0  0
 22 23  4  0  0  0  0
 23 24  4  0  0  0  0
 24 25  4  0  0  0  0
M  END
>  <Name_Molregno>
491138

>  <Alpha-2A>
6.54

>  <Alpha-2B>
7.24

>  <Alpha-2C>
7.56

$$$$
491139
  Marvin  02231216192D 0   1.00000     0.00000     0

 36 40  0  0  1  0  0  0  0  0999 V2000
    7.6718   -2.6870    0.0000 O   0  0  0  0  0  0  0  0  0
    8.3863   -2.2745    0.0000 C   0  0  0  0  0  0  0  0  0
    8.3863   -1.4495    0.0000 C   0  0  0  0  0  0  0  0  0
    7.6718   -1.0370    0.0000 O   0  0  0  0  0  0  0  0  0
    6.9573   -1.4495    0.0000 C   0  0  0  0  0  0  0  0  0
    6.9573   -2.2745    0.0000 C   0  0  0  0  0  0  0  0  0
    6.2429   -2.6870    0.0000 C   0  0  0  0  0  0  0  0  0
    5.5284   -2.2745    0.0000 N   0  0  0  0  0  0  0  0  0
    4.8467   -2.7393    0.0000 C   0  0  0  0  0  0  0  0  0
    4.0584   -2.4961    0.0000 C   0  0  0  0  0  0  0  0  0
    3.7570   -1.7281    0.0000 C   0  0  0  0  0  0  0  0  0
    4.1695   -1.0137    0.0000 N   0  0  0  0  0  0  0  0  0
    4.9853   -0.8907    0.0000 C   0  0  0  0  0  0  0  0  0
    5.5900   -1.4518    0.0000 C   0  0  0  0  0  0  0  0  0
    3.7048   -0.3320    0.0000 C   0  0  0  0  0  0  0  0  0
    2.8821   -0.3937    0.0000 C   0  0  0  0  0  0  0  0  0
    2.4173    0.2880    0.0000 N   0  0  0  0  0  0  0  0  0
    1.5946    0.2263    0.0000 C   0  0  0  0  0  0  0  0  0
    1.2367   -0.5170    0.0000 O   0  0  0  0  0  0  0  0  0
    1.1299    0.9080    0.0000 C   0  0  0  0  0  0  0  0  0
    0.3072    0.8463    0.0000 C   0  0  0  0  0  0  0  0  0
   -0.1575    1.5280    0.0000 C   0  0  0  0  0  0  0  0  0
    0.2004    2.2713    0.0000 C   0  0  0  0  0  0  0  0  0
    1.0231    2.3329    0.0000 N   0  0  0  0  0  0  0  0  0
    1.4878    1.6513    0.0000 C   0  0  0  0  0  0  0  0  0
    2.3105    1.7129    0.0000 O   0  0  0  0  0  0  0  0  0
    2.6685    2.4562    0.0000 C   0  0  0  0  0  0  0  0  0
    2.2037    3.1379    0.0000 C   0  0  0  0  0  0  0  0  0
    2.5617    3.8812    0.0000 C   0  0  0  0  0  0  0  0  0
    3.3844    3.9428    0.0000 C   0  0  0  0  0  0  0  0  0
    3.8491    3.2612    0.0000 C   0  0  0  0  0  0  0  0  0
    3.4912    2.5179    0.0000 C   0  0  0  0  0  0  0  0  0
    9.1007   -1.0370    0.0000 C   0  0  0  0  0  0  0  0  0
    9.8152   -1.4495    0.0000 C   0  0  0  0  0  0  0  0  0
    9.8152   -2.2745    0.0000 C   0  0  0  0  0  0  0  0  0
    9.1007   -2.6870    0.0000 C   0  0  0  0  0  0  0  0  0
  1  2  1  0  0  0  0
  1  6  1  0  0  0  0
  2  3  4  0  0  0  0
  2 36  4  0  0  0  0
  3  4  1  0  0  0  0
  3 33  4  0  0  0  0
  4  5  1  0  0  0  0
  5  6  1  0  0  0  0
  6  7  1  0  0  0  0
  7  8  1  0  0  0  0
  8  9  1  0  0  0  0
  8 14  1  0  0  0  0
  9 10  1  0  0  0  0
 10 11  1  0  0  0  0
 11 12  1  0  0  0  0
 12 13  1  0  0  0  0
 12 15  1  0  0  0  0
 13 14  1  0  0  0  0
 15 16  1  0  0  0  0
 16 17  1  0  0  0  0
 17 18  1  0  0  0  0
 18 19  2  0  0  0  0
 18 20  1  0  0  0  0
 20 21  4  0  0  0  0
 20 25  4  0  0  0  0
 21 22  4  0  0  0  0
 22 23  4  0  0  0  0
 23 24  4  0  0  0  0
 24 25  4  0  0  0  0
 25 26  1  0  0  0  0
 26 27  1  0  0  0  0
 27 28  4  0  0  0  0
 27 32  4  0  0  0  0
 28 29  4  0  0  0  0
 29 30  4  0  0  0  0
 30 31  4  0  0  0  0
 31 32  4  0  0  0  0
 33 34  4  0  0  0  0
 34 35  4  0  0  0  0
 35 36  4  0  0  0  0
M  END
>  <Name_Molregno>
491139

>  <Alpha-2A>
6.59

>  <Alpha-2B>
7.38

>  <Alpha-2C>
8.34

$$$$
491140
  Marvin  02231216192D 0   1.00000     0.00000     0

 35 39  0  0  1  0  0  0  0  0999 V2000
   -2.1556    3.8977    0.0000 O   0  0  0  0  0  0  0  0  0
   -1.4411    4.3102    0.0000 C   0  0  0  0  0  0  0  0  0
   -1.4411    5.1352    0.0000 C   0  0  0  0  0  0  0  0  0
   -2.1556    5.5477    0.0000 O   0  0  0  0  0  0  0  0  0
   -2.8700    5.1352    0.0000 C   0  0  0  0  0  0  0  0  0
   -2.8700    4.3102    0.0000 C   0  0  0  0  0  0  0  0  0
   -3.5845    3.8977    0.0000 C   0  0  0  0  0  0  0  0  0
   -3.5845    3.0727    0.0000 N   0  0  0  0  0  0  0  0  0
   -2.8700    2.6602    0.0000 C   0  0  0  0  0  0  0  0  0
   -2.8700    1.8352    0.0000 C   0  0  0  0  0  0  0  0  0
   -3.5845    1.4227    0.0000 N   0  0  0  0  0  0  0  0  0
   -4.2990    1.8352    0.0000 C   0  0  0  0  0  0  0  0  0
   -4.2990    2.6602    0.0000 C   0  0  0  0  0  0  0  0  0
   -3.5845    0.5977    0.0000 C   0  0  0  0  0  0  0  0  0
   -4.2990    0.1852    0.0000 C   0  0  0  0  0  0  0  0  0
   -4.2990   -0.6398    0.0000 N   0  0  0  0  0  0  0  0  0
   -5.0135   -1.0523    0.0000 C   0  0  0  0  0  0  0  0  0
   -5.7279   -0.6398    0.0000 O   0  0  0  0  0  0  0  0  0
   -5.0135   -1.8773    0.0000 C   0  0  0  0  0  0  0  0  0
   -4.2990   -2.2898    0.0000 C   0  0  0  0  0  0  0  0  0
   -4.2990   -3.1148    0.0000 C   0  0  0  0  0  0  0  0  0
   -5.0135   -3.5273    0.0000 C   0  0  0  0  0  0  0  0  0
   -5.7279   -3.1148    0.0000 N   0  0  0  0  0  0  0  0  0
   -5.7279   -2.2898    0.0000 C   0  0  0  0  0  0  0  0  0
   -6.4424   -1.8773    0.0000 O   0  0  0  0  0  0  0  0  0
   -7.1569   -2.2898    0.0000 C   0  0  0  0  0  0  0  0  0
   -7.1569   -3.1148    0.0000 C   0  0  0  0  0  0  0  0  0
   -7.8713   -3.5273    0.0000 C   0  0  0  0  0  0  0  0  0
   -8.5858   -3.1148    0.0000 C   0  0  0  0  0  0  0  0  0
   -8.5858   -2.2898    0.0000 C   0  0  0  0  0  0  0  0  0
   -7.8713   -1.8773    0.0000 C   0  0  0  0  0  0  0  0  0
   -0.7266    5.5477    0.0000 C   0  0  0  0  0  0  0  0  0
   -0.0122    5.1352    0.0000 C   0  0  0  0  0  0  0  0  0
   -0.0122    4.3102    0.0000 C   0  0  0  0  0  0  0  0  0
   -0.7266    3.8977    0.0000 C   0  0  0  0  0  0  0  0  0
  1  2  1  0  0  0  0
  1  6  1  0  0  0  0
  2  3  4  0  0  0  0
  2 35  4  0  0  0  0
  3  4  1  0  0  0  0
  3 32  4  0  0  0  0
  4  5  1  0  0  0  0
  5  6  1  0  0  0  0
  6  7  1  0  0  0  0
  7  8  1  0  0  0  0
  8  9  1  0  0  0  0
  8 13  1  0  0  0  0
  9 10  1  0  0  0  0
 10 11  1  0  0  0  0
 11 12  1  0  0  0  0
 11 14  1  0  0  0  0
 12 13  1  0  0  0  0
 14 15  1  0  0  0  0
 15 16  1  0  0  0  0
 16 17  1  0  0  0  0
 17 18  2  0  0  0  0
 17 19  1  0  0  0  0
 19 20  4  0  0  0  0
 19 24  4  0  0  0  0
 20 21  4  0  0  0  0
 21 22  4  0  0  0  0
 22 23  4  0  0  0  0
 23 24  4  0  0  0  0
 24 25  1  0  0  0  0
 25 26  1  0  0  0  0
 26 27  4  0  0  0  0
 26 31  4  0  0  0  0
 27 28  4  0  0  0  0
 28 29  4  0  0  0  0
 29 30  4  0  0  0  0
 30 31  4  0  0  0  0
 32 33  4  0  0  0  0
 33 34  4  0  0  0  0
 34 35  4  0  0  0  0
M  END
>  <Name_Molregno>
491140

>  <Alpha-2A>
7.57

>  <Alpha-2B>
8.1

>  <Alpha-2C>
8.52

$$$$
491141
  Marvin  02231216192D 0   1.00000     0.00000     0

 38 42  0  0  1  0  0  0  0  0999 V2000
    8.0498   -2.7529    0.0000 O   0  0  0  0  0  0  0  0  0
    8.7643   -2.3404    0.0000 C   0  0  0  0  0  0  0  0  0
    8.7643   -1.5154    0.0000 C   0  0  0  0  0  0  0  0  0
    8.0498   -1.1029    0.0000 O   0  0  0  0  0  0  0  0  0
    7.3353   -1.5154    0.0000 C   0  0  0  0  0  0  0  0  0
    7.3353   -2.3404    0.0000 C   0  0  0  0  0  0  0  0  0
    6.6208   -2.7529    0.0000 C   0  0  0  0  0  0  0  0  0
    5.9064   -2.3404    0.0000 N   0  0  0  0  0  0  0  0  0
    5.2247   -2.8051    0.0000 C   0  0  0  0  0  0  0  0  0
    4.4364   -2.5619    0.0000 C   0  0  0  0  0  0  0  0  0
    4.1350   -1.7940    0.0000 C   0  0  0  0  0  0  0  0  0
    4.5475   -1.0795    0.0000 N   0  0  0  0  0  0  0  0  0
    5.3633   -0.9565    0.0000 C   0  0  0  0  0  0  0  0  0
    5.9680   -1.5177    0.0000 C   0  0  0  0  0  0  0  0  0
    4.0827   -0.3979    0.0000 C   0  0  0  0  0  0  0  0  0
    3.2600   -0.4595    0.0000 C   0  0  0  0  0  0  0  0  0
    2.7953    0.2221    0.0000 N   0  0  0  0  0  0  0  0  0
    1.9726    0.1605    0.0000 C   0  0  0  0  0  0  0  0  0
    1.6147   -0.5828    0.0000 O   0  0  0  0  0  0  0  0  0
    1.5079    0.8421    0.0000 C   0  0  0  0  0  0  0  0  0
    0.6852    0.7805    0.0000 C   0  0  0  0  0  0  0  0  0
    0.2204    1.4621    0.0000 C   0  0  0  0  0  0  0  0  0
    0.5784    2.2054    0.0000 C   0  0  0  0  0  0  0  0  0
    1.4011    2.2671    0.0000 N   0  0  0  0  0  0  0  0  0
    1.8658    1.5854    0.0000 C   0  0  0  0  0  0  0  0  0
    2.6885    1.6471    0.0000 O   0  0  0  0  0  0  0  0  0
    3.0465    2.3904    0.0000 C   0  0  0  0  0  0  0  0  0
    2.5817    3.0720    0.0000 C   0  0  0  0  0  0  0  0  0
    2.9397    3.8153    0.0000 C   0  0  0  0  0  0  0  0  0
    3.7624    3.8770    0.0000 C   0  0  0  0  0  0  0  0  0
    4.2271    3.1953    0.0000 C   0  0  0  0  0  0  0  0  0
    3.8692    2.4520    0.0000 C   0  0  0  0  0  0  0  0  0
    2.4750    4.4970    0.0000 C   0  0  0  0  0  0  0  0  0
    2.0102    5.1786    0.0000 N   0  0  0  0  0  0  0  0  0
    9.4787   -1.1029    0.0000 C   0  0  0  0  0  0  0  0  0
   10.1932   -1.5154    0.0000 C   0  0  0  0  0  0  0  0  0
   10.1932   -2.3404    0.0000 C   0  0  0  0  0  0  0  0  0
    9.4787   -2.7529    0.0000 C   0  0  0  0  0  0  0  0  0
  1  2  1  0  0  0  0
  1  6  1  0  0  0  0
  2  3  4  0  0  0  0
  2 38  4  0  0  0  0
  3  4  1  0  0  0  0
  3 35  4  0  0  0  0
  4  5  1  0  0  0  0
  5  6  1  0  0  0  0
  6  7  1  0  0  0  0
  7  8  1  0  0  0  0
  8  9  1  0  0  0  0
  8 14  1  0  0  0  0
  9 10  1  0  0  0  0
 10 11  1  0  0  0  0
 11 12  1  0  0  0  0
 12 13  1  0  0  0  0
 12 15  1  0  0  0  0
 13 14  1  0  0  0  0
 15 16  1  0  0  0  0
 16 17  1  0  0  0  0
 17 18  1  0  0  0  0
 18 19  2  0  0  0  0
 18 20  1  0  0  0  0
 20 21  4  0  0  0  0
 20 25  4  0  0  0  0
 21 22  4  0  0  0  0
 22 23  4  0  0  0  0
 23 24  4  0  0  0  0
 24 25  4  0  0  0  0
 25 26  1  0  0  0  0
 26 27  1  0  0  0  0
 27 28  4  0  0  0  0
 27 32  4  0  0  0  0
 28 29  4  0  0  0  0
 29 30  4  0  0  0  0
 29 33  1  0  0  0  0
 30 31  4  0  0  0  0
 31 32  4  0  0  0  0
 33 34  3  0  0  0  0
 35 36  4  0  0  0  0
 36 37  4  0  0  0  0
 37 38  4  0  0  0  0
M  END
>  <Name_Molregno>
491141

>  <Alpha-2A>
6.49

>  <Alpha-2B>
7.5

>  <Alpha-2C>
8.91

$$$$
491210
  Marvin  02231216192D 0   1.00000     0.00000     0

 34 37  0  0  1  0  0  0  0  0999 V2000
    7.2802   -2.5459    0.0000 O   0  0  0  0  0  0  0  0  0
    7.9947   -2.1334    0.0000 C   0  0  0  0  0  0  0  0  0
    7.9947   -1.3084    0.0000 C   0  0  0  0  0  0  0  0  0
    7.2802   -0.8959    0.0000 O   0  0  0  0  0  0  0  0  0
    6.5658   -1.3084    0.0000 C   0  0  0  0  0  0  0  0  0
    6.5658   -2.1334    0.0000 C   0  0  0  0  0  0  0  0  0
    5.8513   -2.5459    0.0000 C   0  0  0  0  0  0  0  0  0
    5.1368   -2.1334    0.0000 N   0  0  0  0  0  0  0  0  0
    4.4552   -2.5981    0.0000 C   0  0  0  0  0  0  0  0  0
    3.6668   -2.3550    0.0000 C   0  0  0  0  0  0  0  0  0
    3.3654   -1.5870    0.0000 C   0  0  0  0  0  0  0  0  0
    3.7779   -0.8725    0.0000 N   0  0  0  0  0  0  0  0  0
    4.5937   -0.7496    0.0000 C   0  0  0  0  0  0  0  0  0
    5.1985   -1.3107    0.0000 C   0  0  0  0  0  0  0  0  0
    3.3132   -0.1909    0.0000 C   0  0  0  0  0  0  0  0  0
    2.4905   -0.2525    0.0000 C   0  0  0  0  0  0  0  0  0
    2.0257    0.4291    0.0000 N   0  0  0  0  0  0  0  0  0
    1.2031    0.3675    0.0000 C   0  0  0  0  0  0  0  0  0
    0.8451   -0.3758    0.0000 O   0  0  0  0  0  0  0  0  0
    0.7383    1.0491    0.0000 C   0  0  0  0  0  0  0  0  0
   -0.0844    0.9875    0.0000 C   0  0  0  0  0  0  0  0  0
   -0.5491    1.6691    0.0000 C   0  0  0  0  0  0  0  0  0
   -0.1912    2.4124    0.0000 C   0  0  0  0  0  0  0  0  0
    0.6315    2.4741    0.0000 N   0  0  0  0  0  0  0  0  0
    1.0963    1.7924    0.0000 C   0  0  0  0  0  0  0  0  0
    1.9190    1.8541    0.0000 N   0  0  0  0  0  0  0  0  0
    2.2769    2.5974    0.0000 C   0  0  0  0  0  0  0  0  0
    2.6349    3.3407    0.0000 C   0  0  0  0  0  0  0  0  0
    1.5336    2.9553    0.0000 C   0  0  0  0  0  0  0  0  0
    3.0202    2.2394    0.0000 C   0  0  0  0  0  0  0  0  0
    8.7092   -0.8959    0.0000 C   0  0  0  0  0  0  0  0  0
    9.4236   -1.3084    0.0000 C   0  0  0  0  0  0  0  0  0
    9.4236   -2.1334    0.0000 C   0  0  0  0  0  0  0  0  0
    8.7092   -2.5459    0.0000 C   0  0  0  0  0  0  0  0  0
  1  2  1  0  0  0  0
  1  6  1  0  0  0  0
  2  3  4  0  0  0  0
  2 34  4  0  0  0  0
  3  4  1  0  0  0  0
  3 31  4  0  0  0  0
  4  5  1  0  0  0  0
  5  6  1  0  0  0  0
  6  7  1  0  0  0  0
  7  8  1  0  0  0  0
  8  9  1  0  0  0  0
  8 14  1  0  0  0  0
  9 10  1  0  0  0  0
 10 11  1  0  0  0  0
 11 12  1  0  0  0  0
 12 13  1  0  0  0  0
 12 15  1  0  0  0  0
 13 14  1  0  0  0  0
 15 16  1  0  0  0  0
 16 17  1  0  0  0  0
 17 18  1  0  0  0  0
 18 19  2  0  0  0  0
 18 20  1  0  0  0  0
 20 21  4  0  0  0  0
 20 25  4  0  0  0  0
 21 22  4  0  0  0  0
 22 23  4  0  0  0  0
 23 24  4  0  0  0  0
 24 25  4  0  0  0  0
 25 26  1  0  0  0  0
 26 27  1  0  0  0  0
 27 28  1  0  0  0  0
 27 29  1  0  0  0  0
 27 30  1  0  0  0  0
 31 32  4  0  0  0  0
 32 33  4  0  0  0  0
 33 34  4  0  0  0  0
M  END
>  <Name_Molregno>
491210

>  <Alpha-2A>
6.65

>  <Alpha-2B>
7.27

>  <Alpha-2C>
8.41

$$$$
491211
  Marvin  02231216192D 0   1.00000     0.00000     0

 34 37  0  0  1  0  0  0  0  0999 V2000
    7.1872   -2.4257    0.0000 O   0  0  0  0  0  0  0  0  0
    7.9017   -2.0132    0.0000 C   0  0  0  0  0  0  0  0  0
    7.9017   -1.1882    0.0000 C   0  0  0  0  0  0  0  0  0
    7.1872   -0.7757    0.0000 O   0  0  0  0  0  0  0  0  0
    6.4728   -1.1882    0.0000 C   0  0  0  0  0  0  0  0  0
    6.4728   -2.0132    0.0000 C   0  0  0  0  0  0  0  0  0
    5.7583   -2.4257    0.0000 C   0  0  0  0  0  0  0  0  0
    5.0438   -2.0132    0.0000 N   0  0  0  0  0  0  0  0  0
    4.3622   -2.4780    0.0000 C   0  0  0  0  0  0  0  0  0
    3.5738   -2.2348    0.0000 C   0  0  0  0  0  0  0  0  0
    3.2724   -1.4668    0.0000 C   0  0  0  0  0  0  0  0  0
    3.6849   -0.7524    0.0000 N   0  0  0  0  0  0  0  0  0
    4.5007   -0.6294    0.0000 C   0  0  0  0  0  0  0  0  0
    5.1055   -1.1905    0.0000 C   0  0  0  0  0  0  0  0  0
    3.2202   -0.0707    0.0000 C   0  0  0  0  0  0  0  0  0
    2.3975   -0.1324    0.0000 C   0  0  0  0  0  0  0  0  0
    1.9328    0.5493    0.0000 N   0  0  0  0  0  0  0  0  0
    1.1101    0.4876    0.0000 C   0  0  0  0  0  0  0  0  0
    0.7521   -0.2557    0.0000 O   0  0  0  0  0  0  0  0  0
    0.6453    1.1693    0.0000 C   0  0  0  0  0  0  0  0  0
   -0.1774    1.1076    0.0000 C   0  0  0  0  0  0  0  0  0
   -0.6421    1.7893    0.0000 C   0  0  0  0  0  0  0  0  0
   -0.2842    2.5326    0.0000 C   0  0  0  0  0  0  0  0  0
    0.5385    2.5942    0.0000 N   0  0  0  0  0  0  0  0  0
    1.0033    1.9126    0.0000 C   0  0  0  0  0  0  0  0  0
    1.8260    1.9742    0.0000 O   0  0  0  0  0  0  0  0  0
    2.1839    2.7175    0.0000 C   0  0  0  0  0  0  0  0  0
    3.0066    2.7792    0.0000 C   0  0  0  0  0  0  0  0  0
    3.3646    3.5225    0.0000 C   0  0  0  0  0  0  0  0  0
    4.1873    3.5841    0.0000 C   0  0  0  0  0  0  0  0  0
    8.6162   -0.7757    0.0000 C   0  0  0  0  0  0  0  0  0
    9.3307   -1.1882    0.0000 C   0  0  0  0  0  0  0  0  0
    9.3307   -2.0132    0.0000 C   0  0  0  0  0  0  0  0  0
    8.6162   -2.4257    0.0000 C   0  0  0  0  0  0  0  0  0
  1  2  1  0  0  0  0
  1  6  1  0  0  0  0
  2  3  4  0  0  0  0
  2 34  4  0  0  0  0
  3  4  1  0  0  0  0
  3 31  4  0  0  0  0
  4  5  1  0  0  0  0
  5  6  1  0  0  0  0
  6  7  1  0  0  0  0
  7  8  1  0  0  0  0
  8  9  1  0  0  0  0
  8 14  1  0  0  0  0
  9 10  1  0  0  0  0
 10 11  1  0  0  0  0
 11 12  1  0  0  0  0
 12 13  1  0  0  0  0
 12 15  1  0  0  0  0
 13 14  1  0  0  0  0
 15 16  1  0  0  0  0
 16 17  1  0  0  0  0
 17 18  1  0  0  0  0
 18 19  2  0  0  0  0
 18 20  1  0  0  0  0
 20 21  4  0  0  0  0
 20 25  4  0  0  0  0
 21 22  4  0  0  0  0
 22 23  4  0  0  0  0
 23 24  4  0  0  0  0
 24 25  4  0  0  0  0
 25 26  1  0  0  0  0
 26 27  1  0  0  0  0
 27 28  1  0  0  0  0
 28 29  1  0  0  0  0
 29 30  1  0  0  0  0
 31 32  4  0  0  0  0
 32 33  4  0  0  0  0
 33 34  4  0  0  0  0
M  END
>  <Name_Molregno>
491211

>  <Alpha-2A>
7.11

>  <Alpha-2B>
7.93

>  <Alpha-2C>
8.71

$$$$
491212
  Marvin  02231216192D 0   1.00000     0.00000     0

 34 37  0  0  1  0  0  0  0  0999 V2000
    8.3198   -2.6453    0.0000 O   0  0  0  0  0  0  0  0  0
    9.0343   -2.2328    0.0000 C   0  0  0  0  0  0  0  0  0
    9.0343   -1.4078    0.0000 C   0  0  0  0  0  0  0  0  0
    8.3198   -0.9953    0.0000 O   0  0  0  0  0  0  0  0  0
    7.6053   -1.4078    0.0000 C   0  0  0  0  0  0  0  0  0
    7.6053   -2.2328    0.0000 C   0  0  0  0  0  0  0  0  0
    6.8909   -2.6453    0.0000 C   0  0  0  0  0  0  0  0  0
    6.1764   -2.2328    0.0000 N   0  0  0  0  0  0  0  0  0
    5.4947   -2.6975    0.0000 C   0  0  0  0  0  0  0  0  0
    4.7064   -2.4544    0.0000 C   0  0  0  0  0  0  0  0  0
    4.4050   -1.6864    0.0000 C   0  0  0  0  0  0  0  0  0
    4.8175   -0.9719    0.0000 N   0  0  0  0  0  0  0  0  0
    5.6333   -0.8490    0.0000 C   0  0  0  0  0  0  0  0  0
    6.2380   -1.4101    0.0000 C   0  0  0  0  0  0  0  0  0
    4.3527   -0.2903    0.0000 C   0  0  0  0  0  0  0  0  0
    3.5300   -0.3519    0.0000 C   0  0  0  0  0  0  0  0  0
    3.0653    0.3297    0.0000 N   0  0  0  0  0  0  0  0  0
    2.2426    0.2681    0.0000 C   0  0  0  0  0  0  0  0  0
    1.8847   -0.4752    0.0000 O   0  0  0  0  0  0  0  0  0
    1.7779    0.9497    0.0000 C   0  0  0  0  0  0  0  0  0
    0.9552    0.8881    0.0000 N   0  0  0  0  0  0  0  0  0
    0.4904    1.5697    0.0000 C   0  0  0  0  0  0  0  0  0
   -0.3322    1.5081    0.0000 O   0  0  0  0  0  0  0  0  0
   -0.7970    2.1897    0.0000 C   0  0  0  0  0  0  0  0  0
   -1.6197    2.1281    0.0000 C   0  0  0  0  0  0  0  0  0
   -2.0844    2.8097    0.0000 C   0  0  0  0  0  0  0  0  0
   -2.9071    2.7480    0.0000 C   0  0  0  0  0  0  0  0  0
    0.8484    2.3130    0.0000 C   0  0  0  0  0  0  0  0  0
    1.6711    2.3747    0.0000 C   0  0  0  0  0  0  0  0  0
    2.1358    1.6930    0.0000 C   0  0  0  0  0  0  0  0  0
    9.7487   -0.9953    0.0000 C   0  0  0  0  0  0  0  0  0
   10.4632   -1.4078    0.0000 C   0  0  0  0  0  0  0  0  0
   10.4632   -2.2328    0.0000 C   0  0  0  0  0  0  0  0  0
    9.7487   -2.6453    0.0000 C   0  0  0  0  0  0  0  0  0
  1  2  1  0  0  0  0
  1  6  1  0  0  0  0
  2  3  4  0  0  0  0
  2 34  4  0  0  0  0
  3  4  1  0  0  0  0
  3 31  4  0  0  0  0
  4  5  1  0  0  0  0
  5  6  1  0  0  0  0
  6  7  1  0  0  0  0
  7  8  1  0  0  0  0
  8  9  1  0  0  0  0
  8 14  1  0  0  0  0
  9 10  1  0  0  0  0
 10 11  1  0  0  0  0
 11 12  1  0  0  0  0
 12 13  1  0  0  0  0
 12 15  1  0  0  0  0
 13 14  1  0  0  0  0
 15 16  1  0  0  0  0
 16 17  1  0  0  0  0
 17 18  1  0  0  0  0
 18 19  2  0  0  0  0
 18 20  1  0  0  0  0
 20 21  4  0  0  0  0
 20 30  4  0  0  0  0
 21 22  4  0  0  0  0
 22 23  1  0  0  0  0
 22 28  4  0  0  0  0
 23 24  1  0  0  0  0
 24 25  1  0  0  0  0
 25 26  1  0  0  0  0
 26 27  1  0  0  0  0
 28 29  4  0  0  0  0
 29 30  4  0  0  0  0
 31 32  4  0  0  0  0
 32 33  4  0  0  0  0
 33 34  4  0  0  0  0
M  END
>  <Name_Molregno>
491212

>  <Alpha-2A>
7.13

>  <Alpha-2B>
7.9

>  <Alpha-2C>
8.82

$$$$
491213
  Marvin  02231216192D 0   1.00000     0.00000     0

 29 32  0  0  1  0  0  0  0  0999 V2000
    6.2043   -2.1285    0.0000 O   0  0  0  0  0  0  0  0  0
    6.9188   -1.7160    0.0000 C   0  0  0  0  0  0  0  0  0
    6.9188   -0.8910    0.0000 C   0  0  0  0  0  0  0  0  0
    6.2043   -0.4785    0.0000 O   0  0  0  0  0  0  0  0  0
    5.4898   -0.8910    0.0000 C   0  0  0  0  0  0  0  0  0
    5.4898   -1.7160    0.0000 C   0  0  0  0  0  0  0  0  0
    4.7754   -2.1285    0.0000 C   0  0  0  0  0  0  0  0  0
    4.0609   -1.7160    0.0000 N   0  0  0  0  0  0  0  0  0
    3.3792   -2.1808    0.0000 C   0  0  0  0  0  0  0  0  0
    2.5909   -1.9376    0.0000 C   0  0  0  0  0  0  0  0  0
    2.2895   -1.1696    0.0000 C   0  0  0  0  0  0  0  0  0
    2.7020   -0.4552    0.0000 N   0  0  0  0  0  0  0  0  0
    3.5178   -0.3322    0.0000 C   0  0  0  0  0  0  0  0  0
    4.1225   -0.8933    0.0000 C   0  0  0  0  0  0  0  0  0
    2.2372    0.2265    0.0000 C   0  0  0  0  0  0  0  0  0
    1.4146    0.1648    0.0000 C   0  0  0  0  0  0  0  0  0
    0.9498    0.8465    0.0000 N   0  0  0  0  0  0  0  0  0
    0.1271    0.7848    0.0000 C   0  0  0  0  0  0  0  0  0
   -0.2308    0.0415    0.0000 O   0  0  0  0  0  0  0  0  0
   -0.3376    1.4665    0.0000 C   0  0  0  0  0  0  0  0  0
   -1.1603    1.4048    0.0000 C   0  0  0  0  0  0  0  0  0
   -1.6250    2.0865    0.0000 C   0  0  0  0  0  0  0  0  0
   -1.2671    2.8298    0.0000 C   0  0  0  0  0  0  0  0  0
   -0.4444    2.8914    0.0000 N   0  0  0  0  0  0  0  0  0
    0.0203    2.2098    0.0000 C   0  0  0  0  0  0  0  0  0
    7.6332   -0.4785    0.0000 C   0  0  0  0  0  0  0  0  0
    8.3477   -0.8910    0.0000 C   0  0  0  0  0  0  0  0  0
    8.3477   -1.7160    0.0000 C   0  0  0  0  0  0  0  0  0
    7.6332   -2.1285    0.0000 C   0  0  0  0  0  0  0  0  0
  1  2  1  0  0  0  0
  1  6  1  0  0  0  0
  2  3  4  0  0  0  0
  2 29  4  0  0  0  0
  3  4  1  0  0  0  0
  3 26  4  0  0  0  0
  4  5  1  0  0  0  0
  5  6  1  0  0  0  0
  6  7  1  0  0  0  0
  7  8  1  0  0  0  0
  8  9  1  0  0  0  0
  8 14  1  0  0  0  0
  9 10  1  0  0  0  0
 10 11  1  0  0  0  0
 11 12  1  0  0  0  0
 12 13  1  0  0  0  0
 12 15  1  0  0  0  0
 13 14  1  0  0  0  0
 15 16  1  0  0  0  0
 16 17  1  0  0  0  0
 17 18  1  0  0  0  0
 18 19  2  0  0  0  0
 18 20  1  0  0  0  0
 20 21  4  0  0  0  0
 20 25  4  0  0  0  0
 21 22  4  0  0  0  0
 22 23  4  0  0  0  0
 23 24  4  0  0  0  0
 24 25  4  0  0  0  0
 26 27  4  0  0  0  0
 27 28  4  0  0  0  0
 28 29  4  0  0  0  0
M  END
>  <Name_Molregno>
491213

>  <Alpha-2A>
6.35

>  <Alpha-2B>
7.75

>  <Alpha-2C>
7.8

$$$$
491283
  Marvin  02231216192D 0   1.00000     0.00000     0

 35 39  0  0  1  0  0  0  0  0999 V2000
   -1.2126   -2.6935    0.0000 O   0  0  0  0  0  0  0  0  0
   -0.4982   -2.2810    0.0000 C   0  0  0  0  0  0  0  0  0
   -0.4982   -1.4560    0.0000 C   0  0  0  0  0  0  0  0  0
   -1.2126   -1.0435    0.0000 O   0  0  0  0  0  0  0  0  0
   -1.9271   -1.4560    0.0000 C   0  0  0  0  0  0  0  0  0
   -1.9271   -2.2810    0.0000 C   0  0  0  0  0  0  0  0  0
   -2.6416   -2.6935    0.0000 C   0  0  0  0  0  0  0  0  0
   -3.3560   -2.2810    0.0000 N   0  0  0  0  0  0  0  0  0
   -4.0377   -2.7457    0.0000 C   0  0  0  0  0  0  0  0  0
   -4.8260   -2.5026    0.0000 C   0  0  0  0  0  0  0  0  0
   -5.1274   -1.7346    0.0000 C   0  0  0  0  0  0  0  0  0
   -4.7149   -1.0201    0.0000 N   0  0  0  0  0  0  0  0  0
   -3.8992   -0.8971    0.0000 C   0  0  0  0  0  0  0  0  0
   -3.2944   -1.4583    0.0000 C   0  0  0  0  0  0  0  0  0
   -5.1797   -0.3385    0.0000 C   0  0  0  0  0  0  0  0  0
   -6.0024   -0.4001    0.0000 C   0  0  0  0  0  0  0  0  0
   -6.4671    0.2815    0.0000 O   0  0  0  0  0  0  0  0  0
   -7.2898    0.2199    0.0000 C   0  0  0  0  0  0  0  0  0
   -7.7545    0.9015    0.0000 C   0  0  0  0  0  0  0  0  0
   -8.5772    0.8399    0.0000 C   0  0  0  0  0  0  0  0  0
   -9.0420    1.5215    0.0000 C   0  0  0  0  0  0  0  0  0
   -8.6840    2.2648    0.0000 C   0  0  0  0  0  0  0  0  0
   -7.8613    2.3265    0.0000 N   0  0  0  0  0  0  0  0  0
   -7.3966    1.6448    0.0000 C   0  0  0  0  0  0  0  0  0
   -6.5739    1.7065    0.0000 O   0  0  0  0  0  0  0  0  0
   -6.2159    2.4498    0.0000 C   0  0  0  0  0  0  0  0  0
   -6.6807    3.1314    0.0000 C   0  0  0  0  0  0  0  0  0
   -6.3227    3.8747    0.0000 C   0  0  0  0  0  0  0  0  0
   -5.5000    3.9364    0.0000 C   0  0  0  0  0  0  0  0  0
   -5.0353    3.2547    0.0000 C   0  0  0  0  0  0  0  0  0
   -5.3933    2.5114    0.0000 C   0  0  0  0  0  0  0  0  0
    0.2163   -1.0435    0.0000 C   0  0  0  0  0  0  0  0  0
    0.9308   -1.4560    0.0000 C   0  0  0  0  0  0  0  0  0
    0.9308   -2.2810    0.0000 C   0  0  0  0  0  0  0  0  0
    0.2163   -2.6935    0.0000 C   0  0  0  0  0  0  0  0  0
  1  2  1  0  0  0  0
  1  6  1  0  0  0  0
  2  3  4  0  0  0  0
  2 35  4  0  0  0  0
  3  4  1  0  0  0  0
  3 32  4  0  0  0  0
  4  5  1  0  0  0  0
  5  6  1  0  0  0  0
  6  7  1  0  0  0  0
  7  8  1  0  0  0  0
  8  9  1  0  0  0  0
  8 14  1  0  0  0  0
  9 10  1  0  0  0  0
 10 11  1  0  0  0  0
 11 12  1  0  0  0  0
 12 13  1  0  0  0  0
 12 15  1  0  0  0  0
 13 14  1  0  0  0  0
 15 16  1  0  0  0  0
 16 17  1  0  0  0  0
 17 18  1  0  0  0  0
 18 19  1  0  0  0  0
 19 20  4  0  0  0  0
 19 24  4  0  0  0  0
 20 21  4  0  0  0  0
 21 22  4  0  0  0  0
 22 23  4  0  0  0  0
 23 24  4  0  0  0  0
 24 25  1  0  0  0  0
 25 26  1  0  0  0  0
 26 27  4  0  0  0  0
 26 31  4  0  0  0  0
 27 28  4  0  0  0  0
 28 29  4  0  0  0  0
 29 30  4  0  0  0  0
 30 31  4  0  0  0  0
 32 33  4  0  0  0  0
 33 34  4  0  0  0  0
 34 35  4  0  0  0  0
M  END
>  <Name_Molregno>
491283

>  <Alpha-2A>
6.87

>  <Alpha-2B>
7.02

>  <Alpha-2C>
8.39

$$$$
491284
  Marvin  02231216192D 0   1.00000     0.00000     0

 37 42  0  0  1  0  0  0  0  0999 V2000
   -0.6336   -2.1683    0.0000 O   0  0  0  0  0  0  0  0  0
    0.0808   -1.7558    0.0000 C   0  0  0  0  0  0  0  0  0
    0.0808   -0.9308    0.0000 C   0  0  0  0  0  0  0  0  0
   -0.6336   -0.5183    0.0000 O   0  0  0  0  0  0  0  0  0
   -1.3481   -0.9308    0.0000 C   0  0  0  0  0  0  0  0  0
   -1.3481   -1.7558    0.0000 C   0  0  0  0  0  0  0  0  0
   -2.0626   -2.1683    0.0000 C   0  0  0  0  0  0  0  0  0
   -2.7770   -1.7558    0.0000 N   0  0  0  0  0  0  0  0  0
   -3.4587   -2.2206    0.0000 C   0  0  0  0  0  0  0  0  0
   -4.2470   -1.9774    0.0000 C   0  0  0  0  0  0  0  0  0
   -4.5484   -1.2094    0.0000 C   0  0  0  0  0  0  0  0  0
   -4.1359   -0.4950    0.0000 N   0  0  0  0  0  0  0  0  0
   -3.3202   -0.3720    0.0000 C   0  0  0  0  0  0  0  0  0
   -2.7154   -0.9331    0.0000 C   0  0  0  0  0  0  0  0  0
   -4.6007    0.1867    0.0000 C   0  0  0  0  0  0  0  0  0
   -5.4234    0.1250    0.0000 C   0  0  0  0  0  0  0  0  0
   -5.8571   -0.5768    0.0000 O   0  0  0  0  0  0  0  0  0
   -6.6585   -0.3812    0.0000 N   0  0  0  0  0  0  0  0  0
   -6.7202    0.4415    0.0000 C   0  0  0  0  0  0  0  0  0
   -5.9568    0.7544    0.0000 N   0  0  0  0  0  0  0  0  0
   -7.4220    0.8752    0.0000 C   0  0  0  0  0  0  0  0  0
   -8.1485    0.4843    0.0000 C   0  0  0  0  0  0  0  0  0
   -8.8503    0.9179    0.0000 C   0  0  0  0  0  0  0  0  0
   -8.8256    1.7426    0.0000 C   0  0  0  0  0  0  0  0  0
   -8.0991    2.1335    0.0000 N   0  0  0  0  0  0  0  0  0
   -7.3973    1.6998    0.0000 C   0  0  0  0  0  0  0  0  0
   -6.6708    2.0908    0.0000 O   0  0  0  0  0  0  0  0  0
   -6.6461    2.9154    0.0000 C   0  0  0  0  0  0  0  0  0
   -7.3480    3.3491    0.0000 C   0  0  0  0  0  0  0  0  0
   -7.3233    4.1737    0.0000 C   0  0  0  0  0  0  0  0  0
   -6.5968    4.5647    0.0000 C   0  0  0  0  0  0  0  0  0
   -5.8950    4.1310    0.0000 C   0  0  0  0  0  0  0  0  0
   -5.9197    3.3063    0.0000 C   0  0  0  0  0  0  0  0  0
    0.7953   -0.5183    0.0000 C   0  0  0  0  0  0  0  0  0
    1.5098   -0.9308    0.0000 C   0  0  0  0  0  0  0  0  0
    1.5098   -1.7558    0.0000 C   0  0  0  0  0  0  0  0  0
    0.7953   -2.1683    0.0000 C   0  0  0  0  0  0  0  0  0
  1  2  1  0  0  0  0
  1  6  1  0  0  0  0
  2  3  4  0  0  0  0
  2 37  4  0  0  0  0
  3  4  1  0  0  0  0
  3 34  4  0  0  0  0
  4  5  1  0  0  0  0
  5  6  1  0  0  0  0
  6  7  1  0  0  0  0
  7  8  1  0  0  0  0
  8  9  1  0  0  0  0
  8 14  1  0  0  0  0
  9 10  1  0  0  0  0
 10 11  1  0  0  0  0
 11 12  1  0  0  0  0
 12 13  1  0  0  0  0
 12 15  1  0  0  0  0
 13 14  1  0  0  0  0
 15 16  1  0  0  0  0
 16 17  4  0  0  0  0
 16 20  4  0  0  0  0
 17 18  4  0  0  0  0
 18 19  4  0  0  0  0
 19 20  4  0  0  0  0
 19 21  1  0  0  0  0
 21 22  4  0  0  0  0
 21 26  4  0  0  0  0
 22 23  4  0  0  0  0
 23 24  4  0  0  0  0
 24 25  4  0  0  0  0
 25 26  4  0  0  0  0
 26 27  1  0  0  0  0
 27 28  1  0  0  0  0
 28 29  4  0  0  0  0
 28 33  4  0  0  0  0
 29 30  4  0  0  0  0
 30 31  4  0  0  0  0
 31 32  4  0  0  0  0
 32 33  4  0  0  0  0
 34 35  4  0  0  0  0
 35 36  4  0  0  0  0
 36 37  4  0  0  0  0
M  END
>  <Name_Molregno>
491284

>  <Alpha-2A>
7.58

>  <Alpha-2B>
8.05

>  <Alpha-2C>
8.75

$$$$
498962
  Marvin  02231216192D 0   1.00000     0.00000     0

 29 31  0  0  0  0  0  0  0  0999 V2000
    4.6273    6.8992    0.0000 F   0  0  0  0  0  0  0  0  0
    4.6273    6.0742    0.0000 C   0  0  0  0  0  0  0  0  0
    5.3417    5.6617    0.0000 C   0  0  0  0  0  0  0  0  0
    5.3417    4.8367    0.0000 C   0  0  0  0  0  0  0  0  0
    4.6273    4.4242    0.0000 C   0  0  0  0  0  0  0  0  0
    3.9128    4.8367    0.0000 C   0  0  0  0  0  0  0  0  0
    3.9128    5.6617    0.0000 C   0  0  0  0  0  0  0  0  0
    4.6273    3.5992    0.0000 C   0  0  0  0  0  0  0  0  0
    5.3417    3.1867    0.0000 C   0  0  0  0  0  0  0  0  0
    5.3417    2.3617    0.0000 N   0  0  0  0  0  0  0  0  0
    6.0562    1.9492    0.0000 C   0  0  0  0  0  0  0  0  0
    6.0562    1.1242    0.0000 C   0  0  0  0  0  0  0  0  0
    5.3417    0.7117    0.0000 C   0  0  0  0  0  0  0  0  0
    4.6273    1.1242    0.0000 C   0  0  0  0  0  0  0  0  0
    4.6273    1.9492    0.0000 C   0  0  0  0  0  0  0  0  0
    5.3417   -0.1133    0.0000 C   0  0  0  0  0  0  0  0  0
    4.6273   -0.5258    0.0000 O   0  0  0  0  0  0  0  0  0
    6.0562   -0.5258    0.0000 C   0  0  0  0  0  0  0  0  0
    6.7707   -0.1133    0.0000 C   0  0  0  0  0  0  0  0  0
    7.4851   -0.5258    0.0000 C   0  0  0  0  0  0  0  0  0
    7.4851   -1.3508    0.0000 C   0  0  0  0  0  0  0  0  0
    6.7707   -1.7633    0.0000 C   0  0  0  0  0  0  0  0  0
    6.7707   -2.5883    0.0000 O   0  0  0  0  0  0  0  0  0
    7.4851   -3.0008    0.0000 C   0  0  0  0  0  0  0  0  0
    7.4851   -3.8258    0.0000 C   0  0  0  0  0  0  0  0  0
    8.1996   -4.2383    0.0000 F   0  0  0  0  0  0  0  0  0
    6.0562   -1.3508    0.0000 C   0  0  0  0  0  0  0  0  0
    5.3417   -1.7633    0.0000 O   0  0  0  0  0  0  0  0  0
    5.3417   -2.5883    0.0000 C   0  0  0  0  0  0  0  0  0
  1  2  1  0  0  0  0
  2  3  4  0  0  0  0
  2  7  4  0  0  0  0
  3  4  4  0  0  0  0
  4  5  4  0  0  0  0
  5  6  4  0  0  0  0
  5  8  1  0  0  0  0
  6  7  4  0  0  0  0
  8  9  1  0  0  0  0
  9 10  1  0  0  0  0
 10 11  1  0  0  0  0
 10 15  1  0  0  0  0
 11 12  1  0  0  0  0
 12 13  1  0  0  0  0
 13 14  1  0  0  0  0
 13 16  1  0  0  0  0
 14 15  1  0  0  0  0
 16 17  2  0  0  0  0
 16 18  1  0  0  0  0
 18 19  4  0  0  0  0
 18 27  4  0  0  0  0
 19 20  4  0  0  0  0
 20 21  4  0  0  0  0
 21 22  4  0  0  0  0
 22 23  1  0  0  0  0
 22 27  4  0  0  0  0
 23 24  1  0  0  0  0
 24 25  1  0  0  0  0
 25 26  1  0  0  0  0
 27 28  1  0  0  0  0
 28 29  1  0  0  0  0
M  END
>  <Name_Molregno>
498962

>  <5-HT1A>
5.77

>  <5-HT1B>
5.66

>  <5-HT1D>
6.15

>  <5-HT1E>
5

>  <5-HT2C>
6.89

>  <5-HT3>
5

>  <5-HT5>
5.8

>  <5-HT6>
5

>  <5-HT7>
6.68

>  <Alpha-1A>
6.84

>  <Alpha-1B>
6.26

>  <Alpha-2A>
6.06

>  <Alpha-2C>
6.48

>  <DOPAMINE D1>
5.85

>  <DOPAMINE D2>
5.42

>  <DOPAMINE D4>
6.76

>  <DOPAMINE D5>
5.13

>  <Dopamine transporter>
5

>  <HISTAMINE H1>
6.03

>  <HISTAMINE H2>
5.76

>  <HISTAMINE H3>
5

>  <Serotonin transporter>
5.51

$$$$
498964
  Marvin  02231216192D 0   1.00000     0.00000     0

 29 31  0  0  1  0  0  0  0  0999 V2000
    7.7806    5.8078    0.0000 F   0  0  0  0  0  0  0  0  0
    7.0662    5.3953    0.0000 C   0  0  0  0  0  0  0  0  0
    7.0662    4.5703    0.0000 C   0  0  0  0  0  0  0  0  0
    6.3517    4.1578    0.0000 O   0  0  0  0  0  0  0  0  0
    6.3517    3.3328    0.0000 C   0  0  0  0  0  0  0  0  0
    7.0662    2.9203    0.0000 C   0  0  0  0  0  0  0  0  0
    7.0662    2.0953    0.0000 C   0  0  0  0  0  0  0  0  0
    6.3517    1.6828    0.0000 C   0  0  0  0  0  0  0  0  0
    5.6372    2.0953    0.0000 C   0  0  0  0  0  0  0  0  0
    4.9227    1.6828    0.0000 C   0  0  0  0  0  0  0  0  0
    4.2083    2.0953    0.0000 O   0  0  0  0  0  0  0  0  0
    4.9227    0.8578    0.0000 C   0  0  0  0  0  0  0  0  0
    5.6372    0.4453    0.0000 C   0  0  0  0  0  0  0  0  0
    5.6372   -0.3797    0.0000 C   0  0  0  0  0  0  0  0  0
    4.9227   -0.7922    0.0000 N   0  0  0  0  0  0  0  0  0
    4.2083   -0.3797    0.0000 C   0  0  0  0  0  0  0  0  0
    4.2083    0.4453    0.0000 C   0  0  0  0  0  0  0  0  0
    4.9227   -1.6172    0.0000 C   0  0  0  0  0  0  0  0  0
    5.6372   -2.0297    0.0000 C   0  0  0  0  0  0  0  0  0
    5.6372   -2.8547    0.0000 C   0  0  0  0  0  0  0  0  0
    6.3517   -3.2672    0.0000 C   0  0  0  0  0  0  0  0  0
    6.3517   -4.0922    0.0000 C   0  0  0  0  0  0  0  0  0
    5.6372   -4.5047    0.0000 C   0  0  0  0  0  0  0  0  0
    4.9227   -4.0922    0.0000 C   0  0  0  0  0  0  0  0  0
    4.9227   -3.2672    0.0000 C   0  0  0  0  0  0  0  0  0
    5.6372   -5.3297    0.0000 C   0  0  0  0  0  0  0  0  0
    5.6372    2.9203    0.0000 C   0  0  0  0  0  0  0  0  0
    4.9227    3.3328    0.0000 O   0  0  0  0  0  0  0  0  0
    4.2083    2.9203    0.0000 C   0  0  0  0  0  0  0  0  0
  1  2  1  0  0  0  0
  2  3  1  0  0  0  0
  3  4  1  0  0  0  0
  4  5  1  0  0  0  0
  5  6  4  0  0  0  0
  5 27  4  0  0  0  0
  6  7  4  0  0  0  0
  7  8  4  0  0  0  0
  8  9  4  0  0  0  0
  9 10  1  0  0  0  0
  9 27  4  0  0  0  0
 10 11  1  0  0  0  0
 10 12  1  0  0  0  0
 12 13  1  0  0  0  0
 12 17  1  0  0  0  0
 13 14  1  0  0  0  0
 14 15  1  0  0  0  0
 15 16  1  0  0  0  0
 15 18  1  0  0  0  0
 16 17  1  0  0  0  0
 18 19  1  0  0  0  0
 19 20  1  0  0  0  0
 20 21  4  0  0  0  0
 20 25  4  0  0  0  0
 21 22  4  0  0  0  0
 22 23  4  0  0  0  0
 23 24  4  0  0  0  0
 23 26  1  0  0  0  0
 24 25  4  0  0  0  0
 27 28  1  0  0  0  0
 28 29  1  0  0  0  0
M  END
>  <Name_Molregno>
498964

>  <5-HT1A>
5

>  <5-HT1B>
5.31

>  <5-HT1D>
5.84

>  <5-HT1E>
5

>  <5-HT2C>
6.29

>  <5-HT3>
5

>  <5-HT5>
5

>  <5-HT6>
5

>  <5-HT7>
6.3

>  <Alpha-1B>
5

>  <Alpha-2A>
5

>  <Alpha-2C>
6.84

>  <DOPAMINE D1>
5.75

>  <DOPAMINE D2>
5

>  <DOPAMINE D4>
5.57

>  <Dopamine transporter>
5

>  <HISTAMINE H1>
6.36

>  <HISTAMINE H2>
5.94

>  <HISTAMINE H3>
5

>  <Serotonin transporter>
5.58

$$$$
513010
  Marvin  02231216192D 0   1.00000     0.00000     0

 22 24  0  0  1  0  0  0  0  0999 V2000
   -0.2296   -0.4433    0.0000 O   0  0  0  0  0  0  0  0  0
    0.5954   -0.4441    0.0000 C   0  0  0  0  0  0  0  0  0
    1.0086    0.2700    0.0000 O   0  0  0  0  0  0  0  0  0
    1.0072   -1.1590    0.0000 C   0  0  0  0  0  0  0  0  0
    1.8322   -1.1598    0.0000 C   0  0  0  0  0  0  0  0  0
    2.2440   -1.8747    0.0000 C   0  0  0  0  0  0  0  0  0
    1.8308   -2.5887    0.0000 C   0  0  0  0  0  0  0  0  0
    1.0058   -2.5879    0.0000 C   0  0  0  0  0  0  0  0  0
    0.5940   -1.8730    0.0000 C   0  0  0  0  0  0  0  0  0
   -0.6414    0.2716    0.0000 C   0  0  0  0  0  0  0  0  0
   -0.7796    1.0890    0.0000 C   0  0  0  0  0  0  0  0  0
   -1.7084    1.0735    0.0000 C   0  0  0  0  0  0  0  0  0
   -2.2690    1.5134    0.0000 N   0  0  0  0  0  0  0  0  0
   -2.1293    0.7003    0.0000 C   0  0  0  0  0  0  0  0  0
   -2.6492   -0.0120    0.0000 C   0  0  0  0  0  0  0  0  0
   -2.0289    0.3649    0.0000 C   0  0  0  0  0  0  0  0  0
   -1.1576    0.7003    0.0000 C   0  0  0  0  0  0  0  0  0
   -1.4378   -0.0757    0.0000 C   0  0  0  0  0  0  0  0  0
   -2.2499   -0.2210    0.0000 O   0  0  0  0  0  0  0  0  0
   -2.5301   -0.9969    0.0000 C   0  0  0  0  0  0  0  0  0
   -0.9059   -0.7063    0.0000 O   0  0  0  0  0  0  0  0  0
   -2.6916    2.2219    0.0000 C   0  0  0  0  0  0  0  0  0
  1  2  1  0  0  0  0
  1 10  1  0  0  0  0
  2  3  2  0  0  0  0
  2  4  1  0  0  0  0
  4  5  4  0  0  0  0
  4  9  4  0  0  0  0
  5  6  4  0  0  0  0
  6  7  4  0  0  0  0
  7  8  4  0  0  0  0
  8  9  4  0  0  0  0
 10 11  1  0  0  0  0
 10 17  1  0  0  0  0
 11 12  1  0  0  0  0
 12 13  1  0  0  0  0
 12 16  1  0  0  0  0
 13 14  1  0  0  0  0
 13 22  1  0  0  0  0
 14 15  1  0  0  0  0
 14 17  1  0  0  0  0
 15 16  1  0  0  0  0
 17 18  1  0  0  0  0
 18 19  1  0  0  0  0
 18 21  2  0  0  0  0
 19 20  1  0  0  0  0
M  END
>  <Name_Molregno>
513010

>  <5-HT1A>
5

>  <5-HT1B>
5.47

>  <5-HT1D>
5

>  <5-HT1E>
5

>  <5-HT3>
5.31

>  <5-HT5>
5

>  <5-HT6>
5

>  <5-HT7>
5

>  <Alpha-1A>
5.68

>  <Alpha-1B>
5

>  <Alpha-2A>
5

>  <Alpha-2C>
5

>  <Beta-1>
5

>  <Beta-2>
5

>  <DOPAMINE D1>
5

>  <DOPAMINE D2>
5

>  <DOPAMINE D4>
5

>  <DOPAMINE D5>
5

>  <Dopamine transporter>
6.67

>  <HISTAMINE H1>
5.67

>  <HISTAMINE H2>
5

>  <HISTAMINE H4>
5

>  <Muscarinic acetylcholine receptor M1>
5

>  <Muscarinic acetylcholine receptor M2>
5

>  <Muscarinic acetylcholine receptor M3>
5

>  <Muscarinic acetylcholine receptor M4>
5

>  <Muscarinic acetylcholine receptor M5>
5

>  <Norepinephrine transporter>
5.76

>  <Serotonin transporter>
6.68

$$$$
548162
  Marvin  02231216192D 0   1.00000     0.00000     0

 52 61  0  0  1  0  0  0  0  0999 V2000
   -1.9053    4.1054    0.0000 O   0  0  0  0  0  0  0  0  0
   -1.3669    4.7304    0.0000 C   0  0  0  0  0  0  0  0  0
   -1.6390    5.5093    0.0000 C   0  0  0  0  0  0  0  0  0
   -1.1006    6.1344    0.0000 C   0  0  0  0  0  0  0  0  0
   -0.2901    5.9806    0.0000 C   0  0  0  0  0  0  0  0  0
   -0.0179    5.2018    0.0000 C   0  0  0  0  0  0  0  0  0
    0.7926    5.0481    0.0000 C   0  0  0  0  0  0  0  0  0
    1.3310    5.6732    0.0000 C   0  0  0  0  0  0  0  0  0
    1.0589    6.4520    0.0000 N   0  0  0  0  0  0  0  0  0
    0.2483    6.6057    0.0000 C   0  0  0  0  0  0  0  0  0
    1.5973    7.0771    0.0000 C   0  0  0  0  0  0  0  0  0
    2.4078    6.9234    0.0000 C   0  0  0  0  0  0  0  0  0
    2.6800    6.1445    0.0000 C   0  0  0  0  0  0  0  0  0
    2.1416    5.5195    0.0000 C   0  0  0  0  0  0  0  0  0
    2.5697    4.8142    0.0000 N   0  0  0  0  0  0  0  0  0
    3.3727    5.0035    0.0000 C   0  0  0  0  0  0  0  0  0
    3.4409    5.8257    0.0000 C   0  0  0  0  0  0  0  0  0
    4.1870    6.1777    0.0000 C   0  0  0  0  0  0  0  0  0
    4.8649    5.7076    0.0000 C   0  0  0  0  0  0  0  0  0
    4.7968    4.8854    0.0000 C   0  0  0  0  0  0  0  0  0
    4.0506    4.5334    0.0000 C   0  0  0  0  0  0  0  0  0
   -0.5563    4.5767    0.0000 C   0  0  0  0  0  0  0  0  0
   -0.2842    3.7979    0.0000 C   0  0  0  0  0  0  0  0  0
    0.5264    3.6442    0.0000 O   0  0  0  0  0  0  0  0  0
   -0.8226    3.1728    0.0000 N   0  0  0  0  0  0  0  0  0
   -0.5505    2.3940    0.0000 C   0  0  0  0  0  0  0  0  0
   -1.0889    1.7689    0.0000 C   0  0  0  0  0  0  0  0  0
   -0.8167    0.9901    0.0000 N   0  0  0  0  0  0  0  0  0
   -1.3551    0.3650    0.0000 C   0  0  0  0  0  0  0  0  0
   -2.1657    0.5187    0.0000 O   0  0  0  0  0  0  0  0  0
   -1.0830   -0.4138    0.0000 C   0  0  0  0  0  0  0  0  0
   -1.6214   -1.0389    0.0000 C   0  0  0  0  0  0  0  0  0
   -1.3492   -1.8178    0.0000 C   0  0  0  0  0  0  0  0  0
   -0.5387   -1.9715    0.0000 C   0  0  0  0  0  0  0  0  0
   -0.0003   -1.3464    0.0000 C   0  0  0  0  0  0  0  0  0
   -0.2724   -0.5676    0.0000 C   0  0  0  0  0  0  0  0  0
    0.2660    0.0575    0.0000 O   0  0  0  0  0  0  0  0  0
   -1.8877   -2.4429    0.0000 C   0  0  0  0  0  0  0  0  0
   -2.6982   -2.2891    0.0000 N   0  0  0  0  0  0  0  0  0
   -2.9704   -1.5103    0.0000 C   0  0  0  0  0  0  0  0  0
   -2.4319   -0.8852    0.0000 C   0  0  0  0  0  0  0  0  0
   -3.7809   -1.3566    0.0000 C   0  0  0  0  0  0  0  0  0
   -4.2090   -0.6514    0.0000 N   0  0  0  0  0  0  0  0  0
   -5.0120   -0.8406    0.0000 C   0  0  0  0  0  0  0  0  0
   -5.0802   -1.6628    0.0000 C   0  0  0  0  0  0  0  0  0
   -4.3193   -1.9817    0.0000 C   0  0  0  0  0  0  0  0  0
   -4.0472   -2.7605    0.0000 C   0  0  0  0  0  0  0  0  0
   -3.2366   -2.9142    0.0000 C   0  0  0  0  0  0  0  0  0
   -5.8263   -2.0148    0.0000 C   0  0  0  0  0  0  0  0  0
   -6.5042   -1.5447    0.0000 C   0  0  0  0  0  0  0  0  0
   -6.4361   -0.7226    0.0000 C   0  0  0  0  0  0  0  0  0
   -5.6900   -0.3705    0.0000 C   0  0  0  0  0  0  0  0  0
  1  2  1  0  0  0  0
  2  3  1  0  0  0  0
  2 22  1  0  0  0  0
  3  4  1  0  0  0  0
  4  5  1  0  0  0  0
  5  6  1  0  0  0  0
  5 10  1  0  0  0  0
  6  7  1  0  0  0  0
  6 22  1  0  0  0  0
  7  8  1  0  0  0  0
  8  9  1  0  0  0  0
  8 14  1  0  0  0  0
  9 10  1  0  0  0  0
  9 11  1  0  0  0  0
 11 12  1  0  0  0  0
 12 13  1  0  0  0  0
 13 14  4  0  0  0  0
 13 17  4  0  0  0  0
 14 15  4  0  0  0  0
 15 16  4  0  0  0  0
 16 17  4  0  0  0  0
 16 21  4  0  0  0  0
 17 18  4  0  0  0  0
 18 19  4  0  0  0  0
 19 20  4  0  0  0  0
 20 21  4  0  0  0  0
 22 23  1  0  0  0  0
 23 24  2  0  0  0  0
 23 25  1  0  0  0  0
 25 26  1  0  0  0  0
 26 27  1  0  0  0  0
 27 28  1  0  0  0  0
 28 29  1  0  0  0  0
 29 30  2  0  0  0  0
 29 31  1  0  0  0  0
 31 32  1  0  0  0  0
 31 36  1  0  0  0  0
 32 33  1  0  0  0  0
 32 41  1  0  0  0  0
 33 34  1  0  0  0  0
 33 38  1  0  0  0  0
 34 35  1  0  0  0  0
 35 36  1  0  0  0  0
 36 37  1  0  0  0  0
 38 39  1  0  0  0  0
 39 40  1  0  0  0  0
 39 48  1  0  0  0  0
 40 41  1  0  0  0  0
 40 42  1  0  0  0  0
 42 43  4  0  0  0  0
 42 46  4  0  0  0  0
 43 44  4  0  0  0  0
 44 45  4  0  0  0  0
 44 52  4  0  0  0  0
 45 46  4  0  0  0  0
 45 49  4  0  0  0  0
 46 47  1  0  0  0  0
 47 48  1  0  0  0  0
 49 50  4  0  0  0  0
 50 51  4  0  0  0  0
 51 52  4  0  0  0  0
M  STY  2   1 DAT   2 DAT
M  SAL   1  1  15
M  SDT   1 MRV_IMPLICIT_H                                        
M  SDD   1     0.0000    0.0000    DR    ALL  0       0  
M  SED   1 IMPL_H1
M  SAL   2  1  43
M  SDT   2 MRV_IMPLICIT_H                                        
M  SDD   2     0.0000    0.0000    DR    ALL  0       0  
M  SED   2 IMPL_H1
M  END
>  <Name_Molregno>
548162

>  <Alpha-2A>
7.58

>  <Alpha-2B>
5.82

$$$$
548178
  Marvin  02231216192D 0   1.00000     0.00000     0

 57 66  0  0  1  0  0  0  0  0999 V2000
   -7.5554   -1.5753    0.0000 O   0  0  0  0  0  0  0  0  0
   -7.5554   -0.7503    0.0000 C   0  0  0  0  0  0  0  0  0
   -8.2699   -0.3378    0.0000 C   0  0  0  0  0  0  0  0  0
   -8.2699    0.4872    0.0000 C   0  0  0  0  0  0  0  0  0
   -7.5554    0.8997    0.0000 C   0  0  0  0  0  0  0  0  0
   -6.8409    0.4872    0.0000 C   0  0  0  0  0  0  0  0  0
   -6.1265    0.8997    0.0000 C   0  0  0  0  0  0  0  0  0
   -6.1265    1.7247    0.0000 C   0  0  0  0  0  0  0  0  0
   -6.8409    2.1372    0.0000 N   0  0  0  0  0  0  0  0  0
   -7.5554    1.7247    0.0000 C   0  0  0  0  0  0  0  0  0
   -6.8409    2.9622    0.0000 C   0  0  0  0  0  0  0  0  0
   -6.1265    3.3747    0.0000 C   0  0  0  0  0  0  0  0  0
   -5.4120    2.9622    0.0000 C   0  0  0  0  0  0  0  0  0
   -5.4120    2.1372    0.0000 C   0  0  0  0  0  0  0  0  0
   -4.6274    1.8823    0.0000 N   0  0  0  0  0  0  0  0  0
   -4.1425    2.5497    0.0000 C   0  0  0  0  0  0  0  0  0
   -4.6274    3.2171    0.0000 C   0  0  0  0  0  0  0  0  0
   -4.2918    3.9708    0.0000 C   0  0  0  0  0  0  0  0  0
   -3.4713    4.0571    0.0000 C   0  0  0  0  0  0  0  0  0
   -2.9864    3.3896    0.0000 C   0  0  0  0  0  0  0  0  0
   -3.3220    2.6359    0.0000 C   0  0  0  0  0  0  0  0  0
   -6.8409   -0.3378    0.0000 C   0  0  0  0  0  0  0  0  0
   -6.1265   -0.7503    0.0000 C   0  0  0  0  0  0  0  0  0
   -6.1265   -1.5753    0.0000 O   0  0  0  0  0  0  0  0  0
   -5.4120   -0.3378    0.0000 N   0  0  0  0  0  0  0  0  0
   -4.6975   -0.7503    0.0000 C   0  0  0  0  0  0  0  0  0
   -3.9831   -0.3378    0.0000 C   0  0  0  0  0  0  0  0  0
   -3.2686   -0.7503    0.0000 C   0  0  0  0  0  0  0  0  0
   -2.5541   -0.3378    0.0000 C   0  0  0  0  0  0  0  0  0
   -1.8396   -0.7503    0.0000 C   0  0  0  0  0  0  0  0  0
   -1.1252   -0.3378    0.0000 C   0  0  0  0  0  0  0  0  0
   -0.4107   -0.7503    0.0000 C   0  0  0  0  0  0  0  0  0
    0.3038   -0.3378    0.0000 N   0  0  0  0  0  0  0  0  0
    1.0182   -0.7503    0.0000 C   0  0  0  0  0  0  0  0  0
    1.0182   -1.5753    0.0000 O   0  0  0  0  0  0  0  0  0
    1.7327   -0.3378    0.0000 C   0  0  0  0  0  0  0  0  0
    2.4472   -0.7503    0.0000 C   0  0  0  0  0  0  0  0  0
    3.1617   -0.3378    0.0000 C   0  0  0  0  0  0  0  0  0
    3.1617    0.4872    0.0000 C   0  0  0  0  0  0  0  0  0
    2.4472    0.8997    0.0000 C   0  0  0  0  0  0  0  0  0
    1.7327    0.4872    0.0000 C   0  0  0  0  0  0  0  0  0
    1.0182    0.8997    0.0000 O   0  0  0  0  0  0  0  0  0
    3.8761   -0.7503    0.0000 C   0  0  0  0  0  0  0  0  0
    3.8761   -1.5753    0.0000 N   0  0  0  0  0  0  0  0  0
    3.1617   -1.9878    0.0000 C   0  0  0  0  0  0  0  0  0
    2.4472   -1.5753    0.0000 C   0  0  0  0  0  0  0  0  0
    3.1617   -2.8128    0.0000 C   0  0  0  0  0  0  0  0  0
    2.5486   -3.3648    0.0000 N   0  0  0  0  0  0  0  0  0
    2.8841   -4.1185    0.0000 C   0  0  0  0  0  0  0  0  0
    3.7046   -4.0323    0.0000 C   0  0  0  0  0  0  0  0  0
    3.8761   -3.2253    0.0000 C   0  0  0  0  0  0  0  0  0
    4.5906   -2.8128    0.0000 C   0  0  0  0  0  0  0  0  0
    4.5906   -1.9878    0.0000 C   0  0  0  0  0  0  0  0  0
    4.1895   -4.6997    0.0000 C   0  0  0  0  0  0  0  0  0
    3.8540   -5.4534    0.0000 C   0  0  0  0  0  0  0  0  0
    3.0335   -5.5396    0.0000 C   0  0  0  0  0  0  0  0  0
    2.5486   -4.8722    0.0000 C   0  0  0  0  0  0  0  0  0
  1  2  1  0  0  0  0
  2  3  1  0  0  0  0
  2 22  1  0  0  0  0
  3  4  1  0  0  0  0
  4  5  1  0  0  0  0
  5  6  1  0  0  0  0
  5 10  1  0  0  0  0
  6  7  1  0  0  0  0
  6 22  1  0  0  0  0
  7  8  1  0  0  0  0
  8  9  1  0  0  0  0
  8 14  1  0  0  0  0
  9 10  1  0  0  0  0
  9 11  1  0  0  0  0
 11 12  1  0  0  0  0
 12 13  1  0  0  0  0
 13 14  4  0  0  0  0
 13 17  4  0  0  0  0
 14 15  4  0  0  0  0
 15 16  4  0  0  0  0
 16 17  4  0  0  0  0
 16 21  4  0  0  0  0
 17 18  4  0  0  0  0
 18 19  4  0  0  0  0
 19 20  4  0  0  0  0
 20 21  4  0  0  0  0
 22 23  1  0  0  0  0
 23 24  2  0  0  0  0
 23 25  1  0  0  0  0
 25 26  1  0  0  0  0
 26 27  1  0  0  0  0
 27 28  1  0  0  0  0
 28 29  1  0  0  0  0
 29 30  1  0  0  0  0
 30 31  1  0  0  0  0
 31 32  1  0  0  0  0
 32 33  1  0  0  0  0
 33 34  1  0  0  0  0
 34 35  2  0  0  0  0
 34 36  1  0  0  0  0
 36 37  1  0  0  0  0
 36 41  1  0  0  0  0
 37 38  1  0  0  0  0
 37 46  1  0  0  0  0
 38 39  1  0  0  0  0
 38 43  1  0  0  0  0
 39 40  1  0  0  0  0
 40 41  1  0  0  0  0
 41 42  1  0  0  0  0
 43 44  1  0  0  0  0
 44 45  1  0  0  0  0
 44 53  1  0  0  0  0
 45 46  1  0  0  0  0
 45 47  1  0  0  0  0
 47 48  4  0  0  0  0
 47 51  4  0  0  0  0
 48 49  4  0  0  0  0
 49 50  4  0  0  0  0
 49 57  4  0  0  0  0
 50 51  4  0  0  0  0
 50 54  4  0  0  0  0
 51 52  1  0  0  0  0
 52 53  1  0  0  0  0
 54 55  4  0  0  0  0
 55 56  4  0  0  0  0
 56 57  4  0  0  0  0
M  STY  2   1 DAT   2 DAT
M  SAL   1  1  15
M  SDT   1 MRV_IMPLICIT_H                                        
M  SDD   1     0.0000    0.0000    DR    ALL  0       0  
M  SED   1 IMPL_H1
M  SAL   2  1  48
M  SDT   2 MRV_IMPLICIT_H                                        
M  SDD   2     0.0000    0.0000    DR    ALL  0       0  
M  SED   2 IMPL_H1
M  END
>  <Name_Molregno>
548178

>  <Alpha-2A>
9.06

>  <Alpha-2B>
7.56

$$$$
548291
  Marvin  02231216192D 0   1.00000     0.00000     0

 55 64  0  0  1  0  0  0  0  0999 V2000
   -2.7220    7.5101    0.0000 O   0  0  0  0  0  0  0  0  0
   -1.9115    7.3564    0.0000 C   0  0  0  0  0  0  0  0  0
   -1.3731    7.9815    0.0000 C   0  0  0  0  0  0  0  0  0
   -0.5625    7.8278    0.0000 C   0  0  0  0  0  0  0  0  0
   -0.2904    7.0489    0.0000 C   0  0  0  0  0  0  0  0  0
   -0.8288    6.4239    0.0000 C   0  0  0  0  0  0  0  0  0
   -0.5566    5.6450    0.0000 C   0  0  0  0  0  0  0  0  0
    0.2539    5.4913    0.0000 C   0  0  0  0  0  0  0  0  0
    0.7923    6.1164    0.0000 N   0  0  0  0  0  0  0  0  0
    0.5202    6.8952    0.0000 C   0  0  0  0  0  0  0  0  0
    1.6029    5.9627    0.0000 C   0  0  0  0  0  0  0  0  0
    1.8750    5.1838    0.0000 C   0  0  0  0  0  0  0  0  0
    1.3366    4.5588    0.0000 C   0  0  0  0  0  0  0  0  0
    0.5261    4.7125    0.0000 C   0  0  0  0  0  0  0  0  0
    0.1294    3.9891    0.0000 N   0  0  0  0  0  0  0  0  0
    0.6948    3.3883    0.0000 C   0  0  0  0  0  0  0  0  0
    1.4409    3.7404    0.0000 C   0  0  0  0  0  0  0  0  0
    2.1188    3.2703    0.0000 C   0  0  0  0  0  0  0  0  0
    2.0507    2.4481    0.0000 C   0  0  0  0  0  0  0  0  0
    1.3046    2.0960    0.0000 C   0  0  0  0  0  0  0  0  0
    0.6266    2.5661    0.0000 C   0  0  0  0  0  0  0  0  0
   -1.6393    6.5776    0.0000 C   0  0  0  0  0  0  0  0  0
   -2.1777    5.9525    0.0000 C   0  0  0  0  0  0  0  0  0
   -2.9883    6.1062    0.0000 O   0  0  0  0  0  0  0  0  0
   -1.9056    5.1737    0.0000 N   0  0  0  0  0  0  0  0  0
   -2.4440    4.5486    0.0000 C   0  0  0  0  0  0  0  0  0
   -2.1719    3.7697    0.0000 C   0  0  0  0  0  0  0  0  0
   -2.7103    3.1447    0.0000 C   0  0  0  0  0  0  0  0  0
   -2.4381    2.3658    0.0000 C   0  0  0  0  0  0  0  0  0
   -2.9765    1.7407    0.0000 C   0  0  0  0  0  0  0  0  0
   -2.7044    0.9619    0.0000 N   0  0  0  0  0  0  0  0  0
   -3.2428    0.3368    0.0000 C   0  0  0  0  0  0  0  0  0
   -4.0533    0.4905    0.0000 O   0  0  0  0  0  0  0  0  0
   -2.9707   -0.4420    0.0000 C   0  0  0  0  0  0  0  0  0
   -3.5091   -1.0671    0.0000 C   0  0  0  0  0  0  0  0  0
   -3.2369   -1.8459    0.0000 C   0  0  0  0  0  0  0  0  0
   -2.4264   -1.9996    0.0000 C   0  0  0  0  0  0  0  0  0
   -1.8880   -1.3745    0.0000 C   0  0  0  0  0  0  0  0  0
   -2.1601   -0.5957    0.0000 C   0  0  0  0  0  0  0  0  0
   -1.6217    0.0294    0.0000 O   0  0  0  0  0  0  0  0  0
   -3.7753   -2.4710    0.0000 C   0  0  0  0  0  0  0  0  0
   -4.5859   -2.3173    0.0000 N   0  0  0  0  0  0  0  0  0
   -4.8580   -1.5385    0.0000 C   0  0  0  0  0  0  0  0  0
   -4.3196   -0.9134    0.0000 C   0  0  0  0  0  0  0  0  0
   -5.6686   -1.3847    0.0000 C   0  0  0  0  0  0  0  0  0
   -6.0967   -0.6795    0.0000 N   0  0  0  0  0  0  0  0  0
   -6.8997   -0.8688    0.0000 C   0  0  0  0  0  0  0  0  0
   -6.9679   -1.6909    0.0000 C   0  0  0  0  0  0  0  0  0
   -6.2070   -2.0098    0.0000 C   0  0  0  0  0  0  0  0  0
   -5.9348   -2.7887    0.0000 C   0  0  0  0  0  0  0  0  0
   -5.1243   -2.9424    0.0000 C   0  0  0  0  0  0  0  0  0
   -7.7140   -2.0430    0.0000 C   0  0  0  0  0  0  0  0  0
   -8.3919   -1.5729    0.0000 C   0  0  0  0  0  0  0  0  0
   -8.3237   -0.7507    0.0000 C   0  0  0  0  0  0  0  0  0
   -7.5776   -0.3986    0.0000 C   0  0  0  0  0  0  0  0  0
  1  2  1  0  0  0  0
  2  3  1  0  0  0  0
  2 22  1  0  0  0  0
  3  4  1  0  0  0  0
  4  5  1  0  0  0  0
  5  6  1  0  0  0  0
  5 10  1  0  0  0  0
  6  7  1  0  0  0  0
  6 22  1  0  0  0  0
  7  8  1  0  0  0  0
  8  9  1  0  0  0  0
  8 14  1  0  0  0  0
  9 10  1  0  0  0  0
  9 11  1  0  0  0  0
 11 12  1  0  0  0  0
 12 13  1  0  0  0  0
 13 14  4  0  0  0  0
 13 17  4  0  0  0  0
 14 15  4  0  0  0  0
 15 16  4  0  0  0  0
 16 17  4  0  0  0  0
 16 21  4  0  0  0  0
 17 18  4  0  0  0  0
 18 19  4  0  0  0  0
 19 20  4  0  0  0  0
 20 21  4  0  0  0  0
 22 23  1  0  0  0  0
 23 24  2  0  0  0  0
 23 25  1  0  0  0  0
 25 26  1  0  0  0  0
 26 27  1  0  0  0  0
 27 28  1  0  0  0  0
 28 29  1  0  0  0  0
 29 30  1  0  0  0  0
 30 31  1  0  0  0  0
 31 32  1  0  0  0  0
 32 33  2  0  0  0  0
 32 34  1  0  0  0  0
 34 35  1  0  0  0  0
 34 39  1  0  0  0  0
 35 36  1  0  0  0  0
 35 44  1  0  0  0  0
 36 37  1  0  0  0  0
 36 41  1  0  0  0  0
 37 38  1  0  0  0  0
 38 39  1  0  0  0  0
 39 40  1  0  0  0  0
 41 42  1  0  0  0  0
 42 43  1  0  0  0  0
 42 51  1  0  0  0  0
 43 44  1  0  0  0  0
 43 45  1  0  0  0  0
 45 46  4  0  0  0  0
 45 49  4  0  0  0  0
 46 47  4  0  0  0  0
 47 48  4  0  0  0  0
 47 55  4  0  0  0  0
 48 49  4  0  0  0  0
 48 52  4  0  0  0  0
 49 50  1  0  0  0  0
 50 51  1  0  0  0  0
 52 53  4  0  0  0  0
 53 54  4  0  0  0  0
 54 55  4  0  0  0  0
M  STY  2   1 DAT   2 DAT
M  SAL   1  1  15
M  SDT   1 MRV_IMPLICIT_H                                        
M  SDD   1     0.0000    0.0000    DR    ALL  0       0  
M  SED   1 IMPL_H1
M  SAL   2  1  46
M  SDT   2 MRV_IMPLICIT_H                                        
M  SDD   2     0.0000    0.0000    DR    ALL  0       0  
M  SED   2 IMPL_H1
M  END
>  <Name_Molregno>
548291

>  <Alpha-2A>
8.76

>  <Alpha-2B>
6.87

$$$$
548313
  Marvin  02231216192D 0   1.00000     0.00000     0

 56 65  0  0  1  0  0  0  0  0999 V2000
   -2.8283    5.0825    0.0000 O   0  0  0  0  0  0  0  0  0
   -2.2899    5.7076    0.0000 C   0  0  0  0  0  0  0  0  0
   -2.5620    6.4865    0.0000 C   0  0  0  0  0  0  0  0  0
   -2.0236    7.1115    0.0000 C   0  0  0  0  0  0  0  0  0
   -1.2131    6.9578    0.0000 C   0  0  0  0  0  0  0  0  0
   -0.9409    6.1790    0.0000 C   0  0  0  0  0  0  0  0  0
   -0.1304    6.0253    0.0000 C   0  0  0  0  0  0  0  0  0
    0.4080    6.6504    0.0000 C   0  0  0  0  0  0  0  0  0
    0.1359    7.4292    0.0000 N   0  0  0  0  0  0  0  0  0
   -0.6747    7.5829    0.0000 C   0  0  0  0  0  0  0  0  0
    0.6743    8.0543    0.0000 C   0  0  0  0  0  0  0  0  0
    1.4848    7.9006    0.0000 C   0  0  0  0  0  0  0  0  0
    1.7570    7.1217    0.0000 C   0  0  0  0  0  0  0  0  0
    1.2186    6.4966    0.0000 C   0  0  0  0  0  0  0  0  0
    1.6467    5.7914    0.0000 N   0  0  0  0  0  0  0  0  0
    2.4497    5.9807    0.0000 C   0  0  0  0  0  0  0  0  0
    2.5179    6.8028    0.0000 C   0  0  0  0  0  0  0  0  0
    3.2640    7.1549    0.0000 C   0  0  0  0  0  0  0  0  0
    3.9419    6.6848    0.0000 C   0  0  0  0  0  0  0  0  0
    3.8738    5.8626    0.0000 C   0  0  0  0  0  0  0  0  0
    3.1276    5.5105    0.0000 C   0  0  0  0  0  0  0  0  0
   -1.4793    5.5539    0.0000 C   0  0  0  0  0  0  0  0  0
   -1.2072    4.7751    0.0000 C   0  0  0  0  0  0  0  0  0
   -0.3966    4.6214    0.0000 O   0  0  0  0  0  0  0  0  0
   -1.7456    4.1500    0.0000 N   0  0  0  0  0  0  0  0  0
   -1.4735    3.3712    0.0000 C   0  0  0  0  0  0  0  0  0
   -2.0119    2.7461    0.0000 C   0  0  0  0  0  0  0  0  0
   -1.7397    1.9673    0.0000 C   0  0  0  0  0  0  0  0  0
   -2.2781    1.3422    0.0000 C   0  0  0  0  0  0  0  0  0
   -2.0060    0.5633    0.0000 C   0  0  0  0  0  0  0  0  0
   -2.5444   -0.0618    0.0000 C   0  0  0  0  0  0  0  0  0
   -2.2723   -0.8406    0.0000 N   0  0  0  0  0  0  0  0  0
   -2.8107   -1.4657    0.0000 C   0  0  0  0  0  0  0  0  0
   -3.6212   -1.3119    0.0000 O   0  0  0  0  0  0  0  0  0
   -2.5385   -2.2445    0.0000 C   0  0  0  0  0  0  0  0  0
   -3.0769   -2.8696    0.0000 C   0  0  0  0  0  0  0  0  0
   -2.8048   -3.6484    0.0000 C   0  0  0  0  0  0  0  0  0
   -1.9942   -3.8021    0.0000 C   0  0  0  0  0  0  0  0  0
   -1.4558   -3.1770    0.0000 C   0  0  0  0  0  0  0  0  0
   -1.7280   -2.3982    0.0000 C   0  0  0  0  0  0  0  0  0
   -1.1896   -1.7731    0.0000 O   0  0  0  0  0  0  0  0  0
   -3.3432   -4.2735    0.0000 C   0  0  0  0  0  0  0  0  0
   -4.1537   -4.1198    0.0000 N   0  0  0  0  0  0  0  0  0
   -4.4259   -3.3410    0.0000 C   0  0  0  0  0  0  0  0  0
   -3.8875   -2.7159    0.0000 C   0  0  0  0  0  0  0  0  0
   -5.2364   -3.1872    0.0000 C   0  0  0  0  0  0  0  0  0
   -5.6646   -2.4820    0.0000 N   0  0  0  0  0  0  0  0  0
   -6.4676   -2.6713    0.0000 C   0  0  0  0  0  0  0  0  0
   -6.5357   -3.4934    0.0000 C   0  0  0  0  0  0  0  0  0
   -5.7748   -3.8123    0.0000 C   0  0  0  0  0  0  0  0  0
   -5.5027   -4.5911    0.0000 C   0  0  0  0  0  0  0  0  0
   -4.6921   -4.7449    0.0000 C   0  0  0  0  0  0  0  0  0
   -7.2818   -3.8455    0.0000 C   0  0  0  0  0  0  0  0  0
   -7.9598   -3.3754    0.0000 C   0  0  0  0  0  0  0  0  0
   -7.8916   -2.5532    0.0000 C   0  0  0  0  0  0  0  0  0
   -7.1455   -2.2011    0.0000 C   0  0  0  0  0  0  0  0  0
  1  2  1  0  0  0  0
  2  3  1  0  0  0  0
  2 22  1  0  0  0  0
  3  4  1  0  0  0  0
  4  5  1  0  0  0  0
  5  6  1  0  0  0  0
  5 10  1  0  0  0  0
  6  7  1  0  0  0  0
  6 22  1  0  0  0  0
  7  8  1  0  0  0  0
  8  9  1  0  0  0  0
  8 14  1  0  0  0  0
  9 10  1  0  0  0  0
  9 11  1  0  0  0  0
 11 12  1  0  0  0  0
 12 13  1  0  0  0  0
 13 14  4  0  0  0  0
 13 17  4  0  0  0  0
 14 15  4  0  0  0  0
 15 16  4  0  0  0  0
 16 17  4  0  0  0  0
 16 21  4  0  0  0  0
 17 18  4  0  0  0  0
 18 19  4  0  0  0  0
 19 20  4  0  0  0  0
 20 21  4  0  0  0  0
 22 23  1  0  0  0  0
 23 24  2  0  0  0  0
 23 25  1  0  0  0  0
 25 26  1  0  0  0  0
 26 27  1  0  0  0  0
 27 28  1  0  0  0  0
 28 29  1  0  0  0  0
 29 30  1  0  0  0  0
 30 31  1  0  0  0  0
 31 32  1  0  0  0  0
 32 33  1  0  0  0  0
 33 34  2  0  0  0  0
 33 35  1  0  0  0  0
 35 36  1  0  0  0  0
 35 40  1  0  0  0  0
 36 37  1  0  0  0  0
 36 45  1  0  0  0  0
 37 38  1  0  0  0  0
 37 42  1  0  0  0  0
 38 39  1  0  0  0  0
 39 40  1  0  0  0  0
 40 41  1  0  0  0  0
 42 43  1  0  0  0  0
 43 44  1  0  0  0  0
 43 52  1  0  0  0  0
 44 45  1  0  0  0  0
 44 46  1  0  0  0  0
 46 47  4  0  0  0  0
 46 50  4  0  0  0  0
 47 48  4  0  0  0  0
 48 49  4  0  0  0  0
 48 56  4  0  0  0  0
 49 50  4  0  0  0  0
 49 53  4  0  0  0  0
 50 51  1  0  0  0  0
 51 52  1  0  0  0  0
 53 54  4  0  0  0  0
 54 55  4  0  0  0  0
 55 56  4  0  0  0  0
M  STY  2   1 DAT   2 DAT
M  SAL   1  1  15
M  SDT   1 MRV_IMPLICIT_H                                        
M  SDD   1     0.0000    0.0000    DR    ALL  0       0  
M  SED   1 IMPL_H1
M  SAL   2  1  47
M  SDT   2 MRV_IMPLICIT_H                                        
M  SDD   2     0.0000    0.0000    DR    ALL  0       0  
M  SED   2 IMPL_H1
M  END
>  <Name_Molregno>
548313

>  <Alpha-2A>
8.87

>  <Alpha-2B>
6.78

$$$$
552361
  Marvin  02231216192D 0   1.00000     0.00000     0

 54 63  0  0  1  0  0  0  0  0999 V2000
   -2.3421    5.1711    0.0000 O   0  0  0  0  0  0  0  0  0
   -1.8037    5.7962    0.0000 C   0  0  0  0  0  0  0  0  0
   -2.0758    6.5750    0.0000 C   0  0  0  0  0  0  0  0  0
   -1.5374    7.2001    0.0000 C   0  0  0  0  0  0  0  0  0
   -0.7268    7.0464    0.0000 C   0  0  0  0  0  0  0  0  0
   -0.4547    6.2676    0.0000 C   0  0  0  0  0  0  0  0  0
    0.3559    6.1138    0.0000 C   0  0  0  0  0  0  0  0  0
    0.8943    6.7389    0.0000 C   0  0  0  0  0  0  0  0  0
    0.6221    7.5178    0.0000 N   0  0  0  0  0  0  0  0  0
   -0.1884    7.6715    0.0000 C   0  0  0  0  0  0  0  0  0
    1.1605    8.1429    0.0000 C   0  0  0  0  0  0  0  0  0
    1.9711    7.9891    0.0000 C   0  0  0  0  0  0  0  0  0
    2.2432    7.2103    0.0000 C   0  0  0  0  0  0  0  0  0
    1.7048    6.5852    0.0000 C   0  0  0  0  0  0  0  0  0
    2.1329    5.8800    0.0000 N   0  0  0  0  0  0  0  0  0
    2.9359    6.0692    0.0000 C   0  0  0  0  0  0  0  0  0
    3.0041    6.8914    0.0000 C   0  0  0  0  0  0  0  0  0
    3.7502    7.2435    0.0000 C   0  0  0  0  0  0  0  0  0
    4.4282    6.7734    0.0000 C   0  0  0  0  0  0  0  0  0
    4.3600    5.9512    0.0000 C   0  0  0  0  0  0  0  0  0
    3.6139    5.5991    0.0000 C   0  0  0  0  0  0  0  0  0
   -0.9931    5.6425    0.0000 C   0  0  0  0  0  0  0  0  0
   -0.7210    4.8637    0.0000 C   0  0  0  0  0  0  0  0  0
    0.0896    4.7099    0.0000 O   0  0  0  0  0  0  0  0  0
   -1.2594    4.2386    0.0000 N   0  0  0  0  0  0  0  0  0
   -0.9872    3.4597    0.0000 C   0  0  0  0  0  0  0  0  0
   -1.5256    2.8346    0.0000 C   0  0  0  0  0  0  0  0  0
   -1.2535    2.0558    0.0000 C   0  0  0  0  0  0  0  0  0
   -1.7919    1.4307    0.0000 C   0  0  0  0  0  0  0  0  0
   -1.5197    0.6519    0.0000 N   0  0  0  0  0  0  0  0  0
   -2.0582    0.0268    0.0000 C   0  0  0  0  0  0  0  0  0
   -2.8687    0.1805    0.0000 O   0  0  0  0  0  0  0  0  0
   -1.7860   -0.7520    0.0000 C   0  0  0  0  0  0  0  0  0
   -2.3244   -1.3771    0.0000 C   0  0  0  0  0  0  0  0  0
   -2.0523   -2.1559    0.0000 C   0  0  0  0  0  0  0  0  0
   -1.2417   -2.3096    0.0000 C   0  0  0  0  0  0  0  0  0
   -0.7033   -1.6846    0.0000 C   0  0  0  0  0  0  0  0  0
   -0.9755   -0.9057    0.0000 C   0  0  0  0  0  0  0  0  0
   -0.4370   -0.2806    0.0000 O   0  0  0  0  0  0  0  0  0
   -2.5907   -2.7810    0.0000 C   0  0  0  0  0  0  0  0  0
   -3.4012   -2.6273    0.0000 N   0  0  0  0  0  0  0  0  0
   -3.6734   -1.8485    0.0000 C   0  0  0  0  0  0  0  0  0
   -3.1350   -1.2234    0.0000 C   0  0  0  0  0  0  0  0  0
   -4.4839   -1.6947    0.0000 C   0  0  0  0  0  0  0  0  0
   -4.9120   -0.9895    0.0000 N   0  0  0  0  0  0  0  0  0
   -5.7150   -1.1788    0.0000 C   0  0  0  0  0  0  0  0  0
   -5.7832   -2.0009    0.0000 C   0  0  0  0  0  0  0  0  0
   -5.0223   -2.3198    0.0000 C   0  0  0  0  0  0  0  0  0
   -4.7502   -3.0987    0.0000 C   0  0  0  0  0  0  0  0  0
   -3.9396   -3.2524    0.0000 C   0  0  0  0  0  0  0  0  0
   -6.5293   -2.3530    0.0000 C   0  0  0  0  0  0  0  0  0
   -7.2073   -1.8829    0.0000 C   0  0  0  0  0  0  0  0  0
   -7.1391   -1.0607    0.0000 C   0  0  0  0  0  0  0  0  0
   -6.3930   -0.7086    0.0000 C   0  0  0  0  0  0  0  0  0
  1  2  1  0  0  0  0
  2  3  1  0  0  0  0
  2 22  1  0  0  0  0
  3  4  1  0  0  0  0
  4  5  1  0  0  0  0
  5  6  1  0  0  0  0
  5 10  1  0  0  0  0
  6  7  1  0  0  0  0
  6 22  1  0  0  0  0
  7  8  1  0  0  0  0
  8  9  1  0  0  0  0
  8 14  1  0  0  0  0
  9 10  1  0  0  0  0
  9 11  1  0  0  0  0
 11 12  1  0  0  0  0
 12 13  1  0  0  0  0
 13 14  4  0  0  0  0
 13 17  4  0  0  0  0
 14 15  4  0  0  0  0
 15 16  4  0  0  0  0
 16 17  4  0  0  0  0
 16 21  4  0  0  0  0
 17 18  4  0  0  0  0
 18 19  4  0  0  0  0
 19 20  4  0  0  0  0
 20 21  4  0  0  0  0
 22 23  1  0  0  0  0
 23 24  2  0  0  0  0
 23 25  1  0  0  0  0
 25 26  1  0  0  0  0
 26 27  1  0  0  0  0
 27 28  1  0  0  0  0
 28 29  1  0  0  0  0
 29 30  1  0  0  0  0
 30 31  1  0  0  0  0
 31 32  2  0  0  0  0
 31 33  1  0  0  0  0
 33 34  1  0  0  0  0
 33 38  1  0  0  0  0
 34 35  1  0  0  0  0
 34 43  1  0  0  0  0
 35 36  1  0  0  0  0
 35 40  1  0  0  0  0
 36 37  1  0  0  0  0
 37 38  1  0  0  0  0
 38 39  1  0  0  0  0
 40 41  1  0  0  0  0
 41 42  1  0  0  0  0
 41 50  1  0  0  0  0
 42 43  1  0  0  0  0
 42 44  1  0  0  0  0
 44 45  4  0  0  0  0
 44 48  4  0  0  0  0
 45 46  4  0  0  0  0
 46 47  4  0  0  0  0
 46 54  4  0  0  0  0
 47 48  4  0  0  0  0
 47 51  4  0  0  0  0
 48 49  1  0  0  0  0
 49 50  1  0  0  0  0
 51 52  4  0  0  0  0
 52 53  4  0  0  0  0
 53 54  4  0  0  0  0
M  STY  2   1 DAT   2 DAT
M  SAL   1  1  15
M  SDT   1 MRV_IMPLICIT_H                                        
M  SDD   1     0.0000    0.0000    DR    ALL  0       0  
M  SED   1 IMPL_H1
M  SAL   2  1  45
M  SDT   2 MRV_IMPLICIT_H                                        
M  SDD   2     0.0000    0.0000    DR    ALL  0       0  
M  SED   2 IMPL_H1
M  END
>  <Name_Molregno>
552361

>  <Alpha-2A>
7.82

>  <Alpha-2B>
6.72

$$$$
552582
  Marvin  02231216192D 0   1.00000     0.00000     0

 58 67  0  0  1  0  0  0  0  0999 V2000
   -6.5536    1.6776    0.0000 O   0  0  0  0  0  0  0  0  0
   -7.2680    2.0901    0.0000 C   0  0  0  0  0  0  0  0  0
   -7.9825    1.6776    0.0000 C   0  0  0  0  0  0  0  0  0
   -8.6970    2.0901    0.0000 C   0  0  0  0  0  0  0  0  0
   -8.6970    2.9151    0.0000 C   0  0  0  0  0  0  0  0  0
   -7.9825    3.3276    0.0000 C   0  0  0  0  0  0  0  0  0
   -7.9825    4.1526    0.0000 C   0  0  0  0  0  0  0  0  0
   -8.6970    4.5651    0.0000 C   0  0  0  0  0  0  0  0  0
   -9.4114    4.1526    0.0000 N   0  0  0  0  0  0  0  0  0
   -9.4114    3.3276    0.0000 C   0  0  0  0  0  0  0  0  0
  -10.1259    4.5651    0.0000 C   0  0  0  0  0  0  0  0  0
  -10.1259    5.3901    0.0000 C   0  0  0  0  0  0  0  0  0
   -9.4114    5.8026    0.0000 C   0  0  0  0  0  0  0  0  0
   -8.6970    5.3901    0.0000 C   0  0  0  0  0  0  0  0  0
   -8.0839    5.9421    0.0000 N   0  0  0  0  0  0  0  0  0
   -8.4194    6.6958    0.0000 C   0  0  0  0  0  0  0  0  0
   -9.2399    6.6095    0.0000 C   0  0  0  0  0  0  0  0  0
   -9.7248    7.2770    0.0000 C   0  0  0  0  0  0  0  0  0
   -9.3893    8.0306    0.0000 C   0  0  0  0  0  0  0  0  0
   -8.5688    8.1169    0.0000 C   0  0  0  0  0  0  0  0  0
   -8.0839    7.4494    0.0000 C   0  0  0  0  0  0  0  0  0
   -7.2680    2.9151    0.0000 C   0  0  0  0  0  0  0  0  0
   -6.5536    3.3276    0.0000 C   0  0  0  0  0  0  0  0  0
   -6.5536    4.1526    0.0000 O   0  0  0  0  0  0  0  0  0
   -5.8391    2.9151    0.0000 N   0  0  0  0  0  0  0  0  0
   -5.1246    3.3276    0.0000 C   0  0  0  0  0  0  0  0  0
   -4.4102    2.9151    0.0000 C   0  0  0  0  0  0  0  0  0
   -3.6957    3.3276    0.0000 C   0  0  0  0  0  0  0  0  0
   -2.9812    2.9151    0.0000 C   0  0  0  0  0  0  0  0  0
   -2.2667    3.3276    0.0000 C   0  0  0  0  0  0  0  0  0
   -1.5523    2.9151    0.0000 C   0  0  0  0  0  0  0  0  0
   -0.8378    3.3276    0.0000 C   0  0  0  0  0  0  0  0  0
   -0.1233    2.9151    0.0000 C   0  0  0  0  0  0  0  0  0
    0.5911    3.3276    0.0000 N   0  0  0  0  0  0  0  0  0
    1.3056    2.9151    0.0000 C   0  0  0  0  0  0  0  0  0
    1.3056    2.0901    0.0000 O   0  0  0  0  0  0  0  0  0
    2.0201    3.3276    0.0000 C   0  0  0  0  0  0  0  0  0
    2.7346    2.9151    0.0000 C   0  0  0  0  0  0  0  0  0
    3.4490    3.3276    0.0000 C   0  0  0  0  0  0  0  0  0
    3.4490    4.1526    0.0000 C   0  0  0  0  0  0  0  0  0
    2.7346    4.5651    0.0000 C   0  0  0  0  0  0  0  0  0
    2.0201    4.1526    0.0000 C   0  0  0  0  0  0  0  0  0
    1.3056    4.5651    0.0000 O   0  0  0  0  0  0  0  0  0
    4.1635    2.9151    0.0000 C   0  0  0  0  0  0  0  0  0
    4.1635    2.0901    0.0000 N   0  0  0  0  0  0  0  0  0
    3.4490    1.6776    0.0000 C   0  0  0  0  0  0  0  0  0
    2.7346    2.0901    0.0000 C   0  0  0  0  0  0  0  0  0
    3.4490    0.8526    0.0000 C   0  0  0  0  0  0  0  0  0
    2.8359    0.3005    0.0000 N   0  0  0  0  0  0  0  0  0
    3.1715   -0.4531    0.0000 C   0  0  0  0  0  0  0  0  0
    3.9920   -0.3669    0.0000 C   0  0  0  0  0  0  0  0  0
    4.1635    0.4401    0.0000 C   0  0  0  0  0  0  0  0  0
    4.8780    0.8526    0.0000 C   0  0  0  0  0  0  0  0  0
    4.8780    1.6776    0.0000 C   0  0  0  0  0  0  0  0  0
    4.4769   -1.0343    0.0000 C   0  0  0  0  0  0  0  0  0
    4.1413   -1.7880    0.0000 C   0  0  0  0  0  0  0  0  0
    3.3209   -1.8743    0.0000 C   0  0  0  0  0  0  0  0  0
    2.8359   -1.2068    0.0000 C   0  0  0  0  0  0  0  0  0
  1  2  1  0  0  0  0
  2  3  1  0  0  0  0
  2 22  1  0  0  0  0
  3  4  1  0  0  0  0
  4  5  1  0  0  0  0
  5  6  1  0  0  0  0
  5 10  1  0  0  0  0
  6  7  1  0  0  0  0
  6 22  1  0  0  0  0
  7  8  1  0  0  0  0
  8  9  1  0  0  0  0
  8 14  1  0  0  0  0
  9 10  1  0  0  0  0
  9 11  1  0  0  0  0
 11 12  1  0  0  0  0
 12 13  1  0  0  0  0
 13 14  4  0  0  0  0
 13 17  4  0  0  0  0
 14 15  4  0  0  0  0
 15 16  4  0  0  0  0
 16 17  4  0  0  0  0
 16 21  4  0  0  0  0
 17 18  4  0  0  0  0
 18 19  4  0  0  0  0
 19 20  4  0  0  0  0
 20 21  4  0  0  0  0
 22 23  1  0  0  0  0
 23 24  2  0  0  0  0
 23 25  1  0  0  0  0
 25 26  1  0  0  0  0
 26 27  1  0  0  0  0
 27 28  1  0  0  0  0
 28 29  1  0  0  0  0
 29 30  1  0  0  0  0
 30 31  1  0  0  0  0
 31 32  1  0  0  0  0
 32 33  1  0  0  0  0
 33 34  1  0  0  0  0
 34 35  1  0  0  0  0
 35 36  2  0  0  0  0
 35 37  1  0  0  0  0
 37 38  1  0  0  0  0
 37 42  1  0  0  0  0
 38 39  1  0  0  0  0
 38 47  1  0  0  0  0
 39 40  1  0  0  0  0
 39 44  1  0  0  0  0
 40 41  1  0  0  0  0
 41 42  1  0  0  0  0
 42 43  1  0  0  0  0
 44 45  1  0  0  0  0
 45 46  1  0  0  0  0
 45 54  1  0  0  0  0
 46 47  1  0  0  0  0
 46 48  1  0  0  0  0
 48 49  4  0  0  0  0
 48 52  4  0  0  0  0
 49 50  4  0  0  0  0
 50 51  4  0  0  0  0
 50 58  4  0  0  0  0
 51 52  4  0  0  0  0
 51 55  4  0  0  0  0
 52 53  1  0  0  0  0
 53 54  1  0  0  0  0
 55 56  4  0  0  0  0
 56 57  4  0  0  0  0
 57 58  4  0  0  0  0
M  STY  2   1 DAT   2 DAT
M  SAL   1  1  15
M  SDT   1 MRV_IMPLICIT_H                                        
M  SDD   1     0.0000    0.0000    DR    ALL  0       0  
M  SED   1 IMPL_H1
M  SAL   2  1  49
M  SDT   2 MRV_IMPLICIT_H                                        
M  SDD   2     0.0000    0.0000    DR    ALL  0       0  
M  SED   2 IMPL_H1
M  END
>  <Name_Molregno>
552582

>  <Alpha-2A>
9.12

>  <Alpha-2B>
7.34

$$$$
553167
  Marvin  02231216192D 0   1.00000     0.00000     0

 59 68  0  0  1  0  0  0  0  0999 V2000
  -11.4717    0.0377    0.0000 O   0  0  0  0  0  0  0  0  0
  -11.4717    0.8627    0.0000 C   0  0  0  0  0  0  0  0  0
  -12.1861    1.2752    0.0000 C   0  0  0  0  0  0  0  0  0
  -12.1861    2.1002    0.0000 C   0  0  0  0  0  0  0  0  0
  -11.4717    2.5127    0.0000 C   0  0  0  0  0  0  0  0  0
  -10.7572    2.1002    0.0000 C   0  0  0  0  0  0  0  0  0
  -10.0427    2.5127    0.0000 C   0  0  0  0  0  0  0  0  0
  -10.0427    3.3377    0.0000 C   0  0  0  0  0  0  0  0  0
  -10.7572    3.7502    0.0000 N   0  0  0  0  0  0  0  0  0
  -11.4717    3.3377    0.0000 C   0  0  0  0  0  0  0  0  0
  -10.7572    4.5752    0.0000 C   0  0  0  0  0  0  0  0  0
  -10.0427    4.9877    0.0000 C   0  0  0  0  0  0  0  0  0
   -9.3283    4.5752    0.0000 C   0  0  0  0  0  0  0  0  0
   -9.3283    3.7502    0.0000 C   0  0  0  0  0  0  0  0  0
   -8.5436    3.4953    0.0000 N   0  0  0  0  0  0  0  0  0
   -8.0587    4.1627    0.0000 C   0  0  0  0  0  0  0  0  0
   -8.5436    4.8301    0.0000 C   0  0  0  0  0  0  0  0  0
   -8.2081    5.5838    0.0000 C   0  0  0  0  0  0  0  0  0
   -7.3876    5.6700    0.0000 C   0  0  0  0  0  0  0  0  0
   -6.9027    5.0026    0.0000 C   0  0  0  0  0  0  0  0  0
   -7.2382    4.2489    0.0000 C   0  0  0  0  0  0  0  0  0
  -10.7572    1.2752    0.0000 C   0  0  0  0  0  0  0  0  0
  -10.0427    0.8627    0.0000 C   0  0  0  0  0  0  0  0  0
  -10.0427    0.0377    0.0000 O   0  0  0  0  0  0  0  0  0
   -9.3283    1.2752    0.0000 N   0  0  0  0  0  0  0  0  0
   -8.6138    0.8627    0.0000 C   0  0  0  0  0  0  0  0  0
   -7.8993    1.2752    0.0000 C   0  0  0  0  0  0  0  0  0
   -7.1848    0.8627    0.0000 C   0  0  0  0  0  0  0  0  0
   -6.4704    1.2752    0.0000 C   0  0  0  0  0  0  0  0  0
   -5.7559    0.8627    0.0000 C   0  0  0  0  0  0  0  0  0
   -5.0414    1.2752    0.0000 C   0  0  0  0  0  0  0  0  0
   -4.3270    0.8627    0.0000 C   0  0  0  0  0  0  0  0  0
   -3.6125    1.2752    0.0000 C   0  0  0  0  0  0  0  0  0
   -2.8980    0.8627    0.0000 C   0  0  0  0  0  0  0  0  0
   -2.1835    1.2752    0.0000 N   0  0  0  0  0  0  0  0  0
   -1.4691    0.8627    0.0000 C   0  0  0  0  0  0  0  0  0
   -1.4691    0.0377    0.0000 O   0  0  0  0  0  0  0  0  0
   -0.7546    1.2752    0.0000 C   0  0  0  0  0  0  0  0  0
   -0.0401    0.8627    0.0000 C   0  0  0  0  0  0  0  0  0
    0.6743    1.2752    0.0000 C   0  0  0  0  0  0  0  0  0
    0.6743    2.1002    0.0000 C   0  0  0  0  0  0  0  0  0
   -0.0401    2.5127    0.0000 C   0  0  0  0  0  0  0  0  0
   -0.7546    2.1002    0.0000 C   0  0  0  0  0  0  0  0  0
   -1.4691    2.5127    0.0000 O   0  0  0  0  0  0  0  0  0
    1.3888    0.8627    0.0000 C   0  0  0  0  0  0  0  0  0
    1.3888    0.0377    0.0000 N   0  0  0  0  0  0  0  0  0
    0.6743   -0.3748    0.0000 C   0  0  0  0  0  0  0  0  0
   -0.0401    0.0377    0.0000 C   0  0  0  0  0  0  0  0  0
    0.6743   -1.1998    0.0000 C   0  0  0  0  0  0  0  0  0
    0.0612   -1.7518    0.0000 N   0  0  0  0  0  0  0  0  0
    0.3968   -2.5055    0.0000 C   0  0  0  0  0  0  0  0  0
    1.2173   -2.4193    0.0000 C   0  0  0  0  0  0  0  0  0
    1.3888   -1.6123    0.0000 C   0  0  0  0  0  0  0  0  0
    2.1033   -1.1998    0.0000 C   0  0  0  0  0  0  0  0  0
    2.1033   -0.3748    0.0000 C   0  0  0  0  0  0  0  0  0
    1.7022   -3.0867    0.0000 C   0  0  0  0  0  0  0  0  0
    1.3666   -3.8404    0.0000 C   0  0  0  0  0  0  0  0  0
    0.5462   -3.9266    0.0000 C   0  0  0  0  0  0  0  0  0
    0.0612   -3.2592    0.0000 C   0  0  0  0  0  0  0  0  0
  1  2  1  0  0  0  0
  2  3  1  0  0  0  0
  2 22  1  0  0  0  0
  3  4  1  0  0  0  0
  4  5  1  0  0  0  0
  5  6  1  0  0  0  0
  5 10  1  0  0  0  0
  6  7  1  0  0  0  0
  6 22  1  0  0  0  0
  7  8  1  0  0  0  0
  8  9  1  0  0  0  0
  8 14  1  0  0  0  0
  9 10  1  0  0  0  0
  9 11  1  0  0  0  0
 11 12  1  0  0  0  0
 12 13  1  0  0  0  0
 13 14  4  0  0  0  0
 13 17  4  0  0  0  0
 14 15  4  0  0  0  0
 15 16  4  0  0  0  0
 16 17  4  0  0  0  0
 16 21  4  0  0  0  0
 17 18  4  0  0  0  0
 18 19  4  0  0  0  0
 19 20  4  0  0  0  0
 20 21  4  0  0  0  0
 22 23  1  0  0  0  0
 23 24  2  0  0  0  0
 23 25  1  0  0  0  0
 25 26  1  0  0  0  0
 26 27  1  0  0  0  0
 27 28  1  0  0  0  0
 28 29  1  0  0  0  0
 29 30  1  0  0  0  0
 30 31  1  0  0  0  0
 31 32  1  0  0  0  0
 32 33  1  0  0  0  0
 33 34  1  0  0  0  0
 34 35  1  0  0  0  0
 35 36  1  0  0  0  0
 36 37  2  0  0  0  0
 36 38  1  0  0  0  0
 38 39  1  0  0  0  0
 38 43  1  0  0  0  0
 39 40  1  0  0  0  0
 39 48  1  0  0  0  0
 40 41  1  0  0  0  0
 40 45  1  0  0  0  0
 41 42  1  0  0  0  0
 42 43  1  0  0  0  0
 43 44  1  0  0  0  0
 45 46  1  0  0  0  0
 46 47  1  0  0  0  0
 46 55  1  0  0  0  0
 47 48  1  0  0  0  0
 47 49  1  0  0  0  0
 49 50  4  0  0  0  0
 49 53  4  0  0  0  0
 50 51  4  0  0  0  0
 51 52  4  0  0  0  0
 51 59  4  0  0  0  0
 52 53  4  0  0  0  0
 52 56  4  0  0  0  0
 53 54  1  0  0  0  0
 54 55  1  0  0  0  0
 56 57  4  0  0  0  0
 57 58  4  0  0  0  0
 58 59  4  0  0  0  0
M  STY  2   1 DAT   2 DAT
M  SAL   1  1  15
M  SDT   1 MRV_IMPLICIT_H                                        
M  SDD   1     0.0000    0.0000    DR    ALL  0       0  
M  SED   1 IMPL_H1
M  SAL   2  1  50
M  SDT   2 MRV_IMPLICIT_H                                        
M  SDD   2     0.0000    0.0000    DR    ALL  0       0  
M  SED   2 IMPL_H1
M  END
>  <Name_Molregno>
553167

>  <Alpha-2A>
8.9

>  <Alpha-2B>
7.35

$$$$
553424
  Marvin  02231216192D 0   1.00000     0.00000     0

 62 71  0  0  1  0  0  0  0  0999 V2000
  -10.5813   -2.8374    0.0000 O   0  0  0  0  0  0  0  0  0
  -11.2957   -2.4249    0.0000 C   0  0  0  0  0  0  0  0  0
  -12.0102   -2.8374    0.0000 C   0  0  0  0  0  0  0  0  0
  -12.7247   -2.4249    0.0000 C   0  0  0  0  0  0  0  0  0
  -12.7247   -1.5999    0.0000 C   0  0  0  0  0  0  0  0  0
  -12.0102   -1.1874    0.0000 C   0  0  0  0  0  0  0  0  0
  -12.0102   -0.3624    0.0000 C   0  0  0  0  0  0  0  0  0
  -12.7247    0.0501    0.0000 C   0  0  0  0  0  0  0  0  0
  -13.4391   -0.3624    0.0000 N   0  0  0  0  0  0  0  0  0
  -13.4391   -1.1874    0.0000 C   0  0  0  0  0  0  0  0  0
  -14.1536    0.0501    0.0000 C   0  0  0  0  0  0  0  0  0
  -14.1536    0.8751    0.0000 C   0  0  0  0  0  0  0  0  0
  -13.4391    1.2876    0.0000 C   0  0  0  0  0  0  0  0  0
  -12.7247    0.8751    0.0000 C   0  0  0  0  0  0  0  0  0
  -12.1116    1.4271    0.0000 N   0  0  0  0  0  0  0  0  0
  -12.4471    2.1808    0.0000 C   0  0  0  0  0  0  0  0  0
  -13.2676    2.0945    0.0000 C   0  0  0  0  0  0  0  0  0
  -13.7525    2.7620    0.0000 C   0  0  0  0  0  0  0  0  0
  -13.4170    3.5157    0.0000 C   0  0  0  0  0  0  0  0  0
  -12.5965    3.6019    0.0000 C   0  0  0  0  0  0  0  0  0
  -12.1116    2.9345    0.0000 C   0  0  0  0  0  0  0  0  0
  -11.2957   -1.5999    0.0000 C   0  0  0  0  0  0  0  0  0
  -10.5813   -1.1874    0.0000 C   0  0  0  0  0  0  0  0  0
  -10.5813   -0.3624    0.0000 O   0  0  0  0  0  0  0  0  0
   -9.8668   -1.5999    0.0000 N   0  0  0  0  0  0  0  0  0
   -9.1523   -1.1874    0.0000 C   0  0  0  0  0  0  0  0  0
   -8.4378   -1.5999    0.0000 C   0  0  0  0  0  0  0  0  0
   -7.7234   -1.1874    0.0000 C   0  0  0  0  0  0  0  0  0
   -7.0089   -1.5999    0.0000 C   0  0  0  0  0  0  0  0  0
   -6.2944   -1.1874    0.0000 C   0  0  0  0  0  0  0  0  0
   -5.5800   -1.5999    0.0000 C   0  0  0  0  0  0  0  0  0
   -4.8655   -1.1874    0.0000 C   0  0  0  0  0  0  0  0  0
   -4.1510   -1.5999    0.0000 C   0  0  0  0  0  0  0  0  0
   -3.4365   -1.1874    0.0000 C   0  0  0  0  0  0  0  0  0
   -2.7221   -1.5999    0.0000 C   0  0  0  0  0  0  0  0  0
   -2.0076   -1.1874    0.0000 C   0  0  0  0  0  0  0  0  0
   -1.2931   -1.5999    0.0000 C   0  0  0  0  0  0  0  0  0
   -0.5787   -1.1874    0.0000 N   0  0  0  0  0  0  0  0  0
    0.1358   -1.5999    0.0000 C   0  0  0  0  0  0  0  0  0
    0.1358   -2.4249    0.0000 O   0  0  0  0  0  0  0  0  0
    0.8503   -1.1874    0.0000 C   0  0  0  0  0  0  0  0  0
    1.5648   -1.5999    0.0000 C   0  0  0  0  0  0  0  0  0
    2.2792   -1.1874    0.0000 C   0  0  0  0  0  0  0  0  0
    2.2792   -0.3624    0.0000 C   0  0  0  0  0  0  0  0  0
    1.5648    0.0501    0.0000 C   0  0  0  0  0  0  0  0  0
    0.8503   -0.3624    0.0000 C   0  0  0  0  0  0  0  0  0
    0.1358    0.0501    0.0000 O   0  0  0  0  0  0  0  0  0
    2.9937   -1.5999    0.0000 C   0  0  0  0  0  0  0  0  0
    2.9937   -2.4249    0.0000 N   0  0  0  0  0  0  0  0  0
    2.2792   -2.8374    0.0000 C   0  0  0  0  0  0  0  0  0
    1.5648   -2.4249    0.0000 C   0  0  0  0  0  0  0  0  0
    2.2792   -3.6624    0.0000 C   0  0  0  0  0  0  0  0  0
    1.6661   -4.2145    0.0000 N   0  0  0  0  0  0  0  0  0
    2.0017   -4.9681    0.0000 C   0  0  0  0  0  0  0  0  0
    2.8222   -4.8819    0.0000 C   0  0  0  0  0  0  0  0  0
    2.9937   -4.0749    0.0000 C   0  0  0  0  0  0  0  0  0
    3.7082   -3.6624    0.0000 C   0  0  0  0  0  0  0  0  0
    3.7082   -2.8374    0.0000 C   0  0  0  0  0  0  0  0  0
    3.3071   -5.5493    0.0000 C   0  0  0  0  0  0  0  0  0
    2.9715   -6.3030    0.0000 C   0  0  0  0  0  0  0  0  0
    2.1511   -6.3892    0.0000 C   0  0  0  0  0  0  0  0  0
    1.6661   -5.7218    0.0000 C   0  0  0  0  0  0  0  0  0
  1  2  1  0  0  0  0
  2  3  1  0  0  0  0
  2 22  1  0  0  0  0
  3  4  1  0  0  0  0
  4  5  1  0  0  0  0
  5  6  1  0  0  0  0
  5 10  1  0  0  0  0
  6  7  1  0  0  0  0
  6 22  1  0  0  0  0
  7  8  1  0  0  0  0
  8  9  1  0  0  0  0
  8 14  1  0  0  0  0
  9 10  1  0  0  0  0
  9 11  1  0  0  0  0
 11 12  1  0  0  0  0
 12 13  1  0  0  0  0
 13 14  4  0  0  0  0
 13 17  4  0  0  0  0
 14 15  4  0  0  0  0
 15 16  4  0  0  0  0
 16 17  4  0  0  0  0
 16 21  4  0  0  0  0
 17 18  4  0  0  0  0
 18 19  4  0  0  0  0
 19 20  4  0  0  0  0
 20 21  4  0  0  0  0
 22 23  1  0  0  0  0
 23 24  2  0  0  0  0
 23 25  1  0  0  0  0
 25 26  1  0  0  0  0
 26 27  1  0  0  0  0
 27 28  1  0  0  0  0
 28 29  1  0  0  0  0
 29 30  1  0  0  0  0
 30 31  1  0  0  0  0
 31 32  1  0  0  0  0
 32 33  1  0  0  0  0
 33 34  1  0  0  0  0
 34 35  1  0  0  0  0
 35 36  1  0  0  0  0
 36 37  1  0  0  0  0
 37 38  1  0  0  0  0
 38 39  1  0  0  0  0
 39 40  2  0  0  0  0
 39 41  1  0  0  0  0
 41 42  1  0  0  0  0
 41 46  1  0  0  0  0
 42 43  1  0  0  0  0
 42 51  1  0  0  0  0
 43 44  1  0  0  0  0
 43 48  1  0  0  0  0
 44 45  1  0  0  0  0
 45 46  1  0  0  0  0
 46 47  1  0  0  0  0
 48 49  1  0  0  0  0
 49 50  1  0  0  0  0
 49 58  1  0  0  0  0
 50 51  1  0  0  0  0
 50 52  1  0  0  0  0
 52 53  4  0  0  0  0
 52 56  4  0  0  0  0
 53 54  4  0  0  0  0
 54 55  4  0  0  0  0
 54 62  4  0  0  0  0
 55 56  4  0  0  0  0
 55 59  4  0  0  0  0
 56 57  1  0  0  0  0
 57 58  1  0  0  0  0
 59 60  4  0  0  0  0
 60 61  4  0  0  0  0
 61 62  4  0  0  0  0
M  STY  2   1 DAT   2 DAT
M  SAL   1  1  15
M  SDT   1 MRV_IMPLICIT_H                                        
M  SDD   1     0.0000    0.0000    DR    ALL  0       0  
M  SED   1 IMPL_H1
M  SAL   2  1  53
M  SDT   2 MRV_IMPLICIT_H                                        
M  SDD   2     0.0000    0.0000    DR    ALL  0       0  
M  SED   2 IMPL_H1
M  END
>  <Name_Molregno>
553424

>  <Alpha-2A>
8.93

>  <Alpha-2B>
7.73

$$$$
553476
  Marvin  02231216192D 0   1.00000     0.00000     0

 60 69  0  0  1  0  0  0  0  0999 V2000
   -7.8833   -4.9002    0.0000 O   0  0  0  0  0  0  0  0  0
   -8.5977   -4.4877    0.0000 C   0  0  0  0  0  0  0  0  0
   -9.3122   -4.9002    0.0000 C   0  0  0  0  0  0  0  0  0
  -10.0267   -4.4877    0.0000 C   0  0  0  0  0  0  0  0  0
  -10.0267   -3.6627    0.0000 C   0  0  0  0  0  0  0  0  0
   -9.3122   -3.2502    0.0000 C   0  0  0  0  0  0  0  0  0
   -9.3122   -2.4252    0.0000 C   0  0  0  0  0  0  0  0  0
  -10.0267   -2.0127    0.0000 C   0  0  0  0  0  0  0  0  0
  -10.7412   -2.4252    0.0000 N   0  0  0  0  0  0  0  0  0
  -10.7412   -3.2502    0.0000 C   0  0  0  0  0  0  0  0  0
  -11.4556   -2.0127    0.0000 C   0  0  0  0  0  0  0  0  0
  -11.4556   -1.1877    0.0000 C   0  0  0  0  0  0  0  0  0
  -10.7412   -0.7752    0.0000 C   0  0  0  0  0  0  0  0  0
  -10.0267   -1.1877    0.0000 C   0  0  0  0  0  0  0  0  0
   -9.4136   -0.6356    0.0000 N   0  0  0  0  0  0  0  0  0
   -9.7491    0.1181    0.0000 C   0  0  0  0  0  0  0  0  0
  -10.5696    0.0318    0.0000 C   0  0  0  0  0  0  0  0  0
  -11.0545    0.6993    0.0000 C   0  0  0  0  0  0  0  0  0
  -10.7190    1.4529    0.0000 C   0  0  0  0  0  0  0  0  0
   -9.8985    1.5392    0.0000 C   0  0  0  0  0  0  0  0  0
   -9.4136    0.8717    0.0000 C   0  0  0  0  0  0  0  0  0
   -8.5977   -3.6627    0.0000 C   0  0  0  0  0  0  0  0  0
   -7.8833   -3.2502    0.0000 C   0  0  0  0  0  0  0  0  0
   -7.8833   -2.4252    0.0000 O   0  0  0  0  0  0  0  0  0
   -7.1688   -3.6627    0.0000 N   0  0  0  0  0  0  0  0  0
   -6.4543   -3.2502    0.0000 C   0  0  0  0  0  0  0  0  0
   -5.7399   -3.6627    0.0000 C   0  0  0  0  0  0  0  0  0
   -5.0254   -3.2502    0.0000 C   0  0  0  0  0  0  0  0  0
   -4.3109   -3.6627    0.0000 C   0  0  0  0  0  0  0  0  0
   -3.5964   -3.2502    0.0000 C   0  0  0  0  0  0  0  0  0
   -2.8820   -3.6627    0.0000 C   0  0  0  0  0  0  0  0  0
   -2.1675   -3.2502    0.0000 C   0  0  0  0  0  0  0  0  0
   -1.4530   -3.6627    0.0000 C   0  0  0  0  0  0  0  0  0
   -0.7386   -3.2502    0.0000 C   0  0  0  0  0  0  0  0  0
   -0.0241   -3.6627    0.0000 C   0  0  0  0  0  0  0  0  0
    0.6904   -3.2502    0.0000 N   0  0  0  0  0  0  0  0  0
    1.4049   -3.6627    0.0000 C   0  0  0  0  0  0  0  0  0
    1.4049   -4.4877    0.0000 O   0  0  0  0  0  0  0  0  0
    2.1193   -3.2502    0.0000 C   0  0  0  0  0  0  0  0  0
    2.8338   -3.6627    0.0000 C   0  0  0  0  0  0  0  0  0
    3.5483   -3.2502    0.0000 C   0  0  0  0  0  0  0  0  0
    3.5483   -2.4252    0.0000 C   0  0  0  0  0  0  0  0  0
    2.8338   -2.0127    0.0000 C   0  0  0  0  0  0  0  0  0
    2.1193   -2.4252    0.0000 C   0  0  0  0  0  0  0  0  0
    1.4049   -2.0127    0.0000 O   0  0  0  0  0  0  0  0  0
    4.2627   -3.6627    0.0000 C   0  0  0  0  0  0  0  0  0
    4.2627   -4.4877    0.0000 N   0  0  0  0  0  0  0  0  0
    3.5483   -4.9002    0.0000 C   0  0  0  0  0  0  0  0  0
    2.8338   -4.4877    0.0000 C   0  0  0  0  0  0  0  0  0
    3.5483   -5.7252    0.0000 C   0  0  0  0  0  0  0  0  0
    2.9352   -6.2772    0.0000 N   0  0  0  0  0  0  0  0  0
    3.2707   -7.0309    0.0000 C   0  0  0  0  0  0  0  0  0
    4.0912   -6.9446    0.0000 C   0  0  0  0  0  0  0  0  0
    4.2627   -6.1377    0.0000 C   0  0  0  0  0  0  0  0  0
    4.9772   -5.7252    0.0000 C   0  0  0  0  0  0  0  0  0
    4.9772   -4.9002    0.0000 C   0  0  0  0  0  0  0  0  0
    4.5761   -7.6121    0.0000 C   0  0  0  0  0  0  0  0  0
    4.2406   -8.3657    0.0000 C   0  0  0  0  0  0  0  0  0
    3.4201   -8.4520    0.0000 C   0  0  0  0  0  0  0  0  0
    2.9352   -7.7845    0.0000 C   0  0  0  0  0  0  0  0  0
  1  2  1  0  0  0  0
  2  3  1  0  0  0  0
  2 22  1  0  0  0  0
  3  4  1  0  0  0  0
  4  5  1  0  0  0  0
  5  6  1  0  0  0  0
  5 10  1  0  0  0  0
  6  7  1  0  0  0  0
  6 22  1  0  0  0  0
  7  8  1  0  0  0  0
  8  9  1  0  0  0  0
  8 14  1  0  0  0  0
  9 10  1  0  0  0  0
  9 11  1  0  0  0  0
 11 12  1  0  0  0  0
 12 13  1  0  0  0  0
 13 14  4  0  0  0  0
 13 17  4  0  0  0  0
 14 15  4  0  0  0  0
 15 16  4  0  0  0  0
 16 17  4  0  0  0  0
 16 21  4  0  0  0  0
 17 18  4  0  0  0  0
 18 19  4  0  0  0  0
 19 20  4  0  0  0  0
 20 21  4  0  0  0  0
 22 23  1  0  0  0  0
 23 24  2  0  0  0  0
 23 25  1  0  0  0  0
 25 26  1  0  0  0  0
 26 27  1  0  0  0  0
 27 28  1  0  0  0  0
 28 29  1  0  0  0  0
 29 30  1  0  0  0  0
 30 31  1  0  0  0  0
 31 32  1  0  0  0  0
 32 33  1  0  0  0  0
 33 34  1  0  0  0  0
 34 35  1  0  0  0  0
 35 36  1  0  0  0  0
 36 37  1  0  0  0  0
 37 38  2  0  0  0  0
 37 39  1  0  0  0  0
 39 40  1  0  0  0  0
 39 44  1  0  0  0  0
 40 41  1  0  0  0  0
 40 49  1  0  0  0  0
 41 42  1  0  0  0  0
 41 46  1  0  0  0  0
 42 43  1  0  0  0  0
 43 44  1  0  0  0  0
 44 45  1  0  0  0  0
 46 47  1  0  0  0  0
 47 48  1  0  0  0  0
 47 56  1  0  0  0  0
 48 49  1  0  0  0  0
 48 50  1  0  0  0  0
 50 51  4  0  0  0  0
 50 54  4  0  0  0  0
 51 52  4  0  0  0  0
 52 53  4  0  0  0  0
 52 60  4  0  0  0  0
 53 54  4  0  0  0  0
 53 57  4  0  0  0  0
 54 55  1  0  0  0  0
 55 56  1  0  0  0  0
 57 58  4  0  0  0  0
 58 59  4  0  0  0  0
 59 60  4  0  0  0  0
M  STY  2   1 DAT   2 DAT
M  SAL   1  1  15
M  SDT   1 MRV_IMPLICIT_H                                        
M  SDD   1     0.0000    0.0000    DR    ALL  0       0  
M  SED   1 IMPL_H1
M  SAL   2  1  51
M  SDT   2 MRV_IMPLICIT_H                                        
M  SDD   2     0.0000    0.0000    DR    ALL  0       0  
M  SED   2 IMPL_H1
M  END
>  <Name_Molregno>
553476

>  <Alpha-2A>
9.41

>  <Alpha-2B>
7.73

$$$$
581307
  Marvin  02231216192D 0   1.00000     0.00000     0

 15 16  0  0  1  0  0  0  0  0999 V2000
   -0.0331   -0.9836    0.0000 O   0  0  0  0  0  0  0  0  0
   -0.7476   -0.5711    0.0000 C   0  0  0  0  0  0  0  0  0
   -1.4620   -0.9836    0.0000 C   0  0  0  0  0  0  0  0  0
   -0.7476    0.2539    0.0000 C   0  0  0  0  0  0  0  0  0
   -1.4620    0.6664    0.0000 C   0  0  0  0  0  0  0  0  0
   -1.4620    1.4914    0.0000 C   0  0  0  0  0  0  0  0  0
   -0.7476    1.9039    0.0000 C   0  0  0  0  0  0  0  0  0
   -0.0331    1.4914    0.0000 C   0  0  0  0  0  0  0  0  0
   -0.0331    0.6664    0.0000 C   0  0  0  0  0  0  0  0  0
    0.6814    0.2539    0.0000 C   0  0  0  0  0  0  0  0  0
   -0.0331   -1.8086    0.0000 C   0  0  0  0  0  0  0  0  0
    0.6343   -2.2935    0.0000 N   0  0  0  0  0  0  0  0  0
    0.3794   -3.0781    0.0000 C   0  0  0  0  0  0  0  0  0
   -0.4456   -3.0781    0.0000 C   0  0  0  0  0  0  0  0  0
   -0.7005   -2.2935    0.0000 N   0  0  0  0  0  0  0  0  0
  1  2  1  0  0  0  0
  1 11  1  0  0  0  0
  2  3  1  0  0  0  0
  2  4  1  0  0  0  0
  4  5  4  0  0  0  0
  4  9  4  0  0  0  0
  5  6  4  0  0  0  0
  6  7  4  0  0  0  0
  7  8  4  0  0  0  0
  8  9  4  0  0  0  0
  9 10  1  0  0  0  0
 11 12  1  0  0  0  0
 11 15  2  0  0  0  0
 12 13  1  0  0  0  0
 13 14  1  0  0  0  0
 14 15  1  0  0  0  0
M  END
>  <Name_Molregno>
581307

>  <Alpha-2A>
7.61

>  <Alpha-2B>
6.57

>  <Alpha-2C>
6.57

$$$$
581429
  Marvin  02231216192D 0   1.00000     0.00000     0

 14 15  0  0  1  0  0  0  0  0999 V2000
    0.0990   -0.8141    0.0000 O   0  0  0  0  0  0  0  0  0
   -0.6155   -0.4016    0.0000 C   0  0  0  0  0  0  0  0  0
   -1.3299   -0.8141    0.0000 C   0  0  0  0  0  0  0  0  0
   -0.6155    0.4234    0.0000 C   0  0  0  0  0  0  0  0  0
   -1.3299    0.8359    0.0000 C   0  0  0  0  0  0  0  0  0
   -1.3299    1.6609    0.0000 C   0  0  0  0  0  0  0  0  0
   -0.6155    2.0734    0.0000 C   0  0  0  0  0  0  0  0  0
    0.0990    1.6609    0.0000 C   0  0  0  0  0  0  0  0  0
    0.0990    0.8359    0.0000 C   0  0  0  0  0  0  0  0  0
    0.0990   -1.6391    0.0000 C   0  0  0  0  0  0  0  0  0
    0.7664   -2.1241    0.0000 N   0  0  0  0  0  0  0  0  0
    0.5115   -2.9087    0.0000 C   0  0  0  0  0  0  0  0  0
   -0.3135   -2.9087    0.0000 C   0  0  0  0  0  0  0  0  0
   -0.5684   -2.1241    0.0000 N   0  0  0  0  0  0  0  0  0
  1  2  1  0  0  0  0
  1 10  1  0  0  0  0
  2  3  1  0  0  0  0
  2  4  1  0  0  0  0
  4  5  4  0  0  0  0
  4  9  4  0  0  0  0
  5  6  4  0  0  0  0
  6  7  4  0  0  0  0
  7  8  4  0  0  0  0
  8  9  4  0  0  0  0
 10 11  1  0  0  0  0
 10 14  2  0  0  0  0
 11 12  1  0  0  0  0
 12 13  1  0  0  0  0
 13 14  1  0  0  0  0
M  END
>  <Name_Molregno>
581429

>  <Alpha-2A>
7.57

>  <Alpha-2B>
6.78

>  <Alpha-2C>
6.58

$$$$
581430
  Marvin  02231216192D 0   1.00000     0.00000     0

 17 18  0  0  1  0  0  0  0  0999 V2000
    0.6548   -1.4072    0.0000 O   0  0  0  0  0  0  0  0  0
   -0.0596   -0.9947    0.0000 C   0  0  0  0  0  0  0  0  0
   -0.7741   -1.4072    0.0000 C   0  0  0  0  0  0  0  0  0
   -0.0596   -0.1697    0.0000 C   0  0  0  0  0  0  0  0  0
   -0.7741    0.2428    0.0000 C   0  0  0  0  0  0  0  0  0
   -0.7741    1.0678    0.0000 C   0  0  0  0  0  0  0  0  0
   -0.0596    1.4803    0.0000 C   0  0  0  0  0  0  0  0  0
    0.6548    1.0678    0.0000 C   0  0  0  0  0  0  0  0  0
    0.6548    0.2428    0.0000 C   0  0  0  0  0  0  0  0  0
    1.3693   -0.1697    0.0000 C   0  0  0  0  0  0  0  0  0
    2.0838    0.2428    0.0000 C   0  0  0  0  0  0  0  0  0
    2.7982   -0.1697    0.0000 C   0  0  0  0  0  0  0  0  0
    0.6548   -2.2322    0.0000 C   0  0  0  0  0  0  0  0  0
    1.3223   -2.7171    0.0000 N   0  0  0  0  0  0  0  0  0
    1.0673   -3.5018    0.0000 C   0  0  0  0  0  0  0  0  0
    0.2423   -3.5018    0.0000 C   0  0  0  0  0  0  0  0  0
   -0.0126   -2.7171    0.0000 N   0  0  0  0  0  0  0  0  0
  1  2  1  0  0  0  0
  1 13  1  0  0  0  0
  2  3  1  0  0  0  0
  2  4  1  0  0  0  0
  4  5  4  0  0  0  0
  4  9  4  0  0  0  0
  5  6  4  0  0  0  0
  6  7  4  0  0  0  0
  7  8  4  0  0  0  0
  8  9  4  0  0  0  0
  9 10  1  0  0  0  0
 10 11  1  0  0  0  0
 11 12  2  0  0  0  0
 13 14  1  0  0  0  0
 13 17  2  0  0  0  0
 14 15  1  0  0  0  0
 15 16  1  0  0  0  0
 16 17  1  0  0  0  0
M  END
>  <Name_Molregno>
581430

>  <Alpha-2A>
7.24

>  <Alpha-2B>
6.47

>  <Alpha-2C>
7.07

$$$$
583072
  Marvin  02231216192D 0   1.00000     0.00000     0

 17 18  0  0  1  0  0  0  0  0999 V2000
    0.6548   -1.4072    0.0000 O   0  0  0  0  0  0  0  0  0
   -0.0596   -0.9947    0.0000 C   0  0  0  0  0  0  0  0  0
   -0.7741   -1.4072    0.0000 C   0  0  0  0  0  0  0  0  0
   -0.0596   -0.1697    0.0000 C   0  0  0  0  0  0  0  0  0
   -0.7741    0.2428    0.0000 C   0  0  0  0  0  0  0  0  0
   -0.7741    1.0678    0.0000 C   0  0  0  0  0  0  0  0  0
   -0.0596    1.4803    0.0000 C   0  0  0  0  0  0  0  0  0
    0.6548    1.0678    0.0000 C   0  0  0  0  0  0  0  0  0
    0.6548    0.2428    0.0000 C   0  0  0  0  0  0  0  0  0
    1.3693   -0.1697    0.0000 C   0  0  0  0  0  0  0  0  0
    2.0838    0.2428    0.0000 C   0  0  0  0  0  0  0  0  0
    2.7982   -0.1697    0.0000 C   0  0  0  0  0  0  0  0  0
    0.6548   -2.2322    0.0000 C   0  0  0  0  0  0  0  0  0
    1.3223   -2.7171    0.0000 N   0  0  0  0  0  0  0  0  0
    1.0673   -3.5018    0.0000 C   0  0  0  0  0  0  0  0  0
    0.2423   -3.5018    0.0000 C   0  0  0  0  0  0  0  0  0
   -0.0126   -2.7171    0.0000 N   0  0  0  0  0  0  0  0  0
  1  2  1  0  0  0  0
  1 13  1  0  0  0  0
  2  3  1  0  0  0  0
  2  4  1  0  0  0  0
  4  5  4  0  0  0  0
  4  9  4  0  0  0  0
  5  6  4  0  0  0  0
  6  7  4  0  0  0  0
  7  8  4  0  0  0  0
  8  9  4  0  0  0  0
  9 10  1  0  0  0  0
 10 11  1  0  0  0  0
 11 12  1  0  0  0  0
 13 14  1  0  0  0  0
 13 17  2  0  0  0  0
 14 15  1  0  0  0  0
 15 16  1  0  0  0  0
 16 17  1  0  0  0  0
M  END
>  <Name_Molregno>
583072

>  <Alpha-2A>
7.3

>  <Alpha-2B>
6.27

>  <Alpha-2C>
6.83

$$$$
583073
  Marvin  02231216192D 0   1.00000     0.00000     0

 17 19  0  0  1  0  0  0  0  0999 V2000
    0.1360   -1.2059    0.0000 O   0  0  0  0  0  0  0  0  0
    0.1360   -0.3809    0.0000 C   0  0  0  0  0  0  0  0  0
   -0.5785    0.0316    0.0000 C   0  0  0  0  0  0  0  0  0
    0.8505    0.0316    0.0000 C   0  0  0  0  0  0  0  0  0
    0.8505    0.8566    0.0000 C   0  0  0  0  0  0  0  0  0
    1.5649    1.2691    0.0000 C   0  0  0  0  0  0  0  0  0
    2.2794    0.8566    0.0000 C   0  0  0  0  0  0  0  0  0
    2.2794    0.0316    0.0000 C   0  0  0  0  0  0  0  0  0
    1.5649   -0.3809    0.0000 C   0  0  0  0  0  0  0  0  0
    1.5649   -1.2059    0.0000 C   0  0  0  0  0  0  0  0  0
    1.9774   -1.9204    0.0000 C   0  0  0  0  0  0  0  0  0
    1.1524   -1.9204    0.0000 C   0  0  0  0  0  0  0  0  0
   -0.5785   -1.6184    0.0000 C   0  0  0  0  0  0  0  0  0
   -0.6647   -2.4389    0.0000 N   0  0  0  0  0  0  0  0  0
   -1.4717   -2.6104    0.0000 C   0  0  0  0  0  0  0  0  0
   -1.8842   -1.8959    0.0000 C   0  0  0  0  0  0  0  0  0
   -1.3322   -1.2828    0.0000 N   0  0  0  0  0  0  0  0  0
  1  2  1  0  0  0  0
  1 13  1  0  0  0  0
  2  3  1  0  0  0  0
  2  4  1  0  0  0  0
  4  5  4  0  0  0  0
  4  9  4  0  0  0  0
  5  6  4  0  0  0  0
  6  7  4  0  0  0  0
  7  8  4  0  0  0  0
  8  9  4  0  0  0  0
  9 10  1  0  0  0  0
 10 11  1  0  0  0  0
 10 12  1  0  0  0  0
 11 12  1  0  0  0  0
 13 14  1  0  0  0  0
 13 17  2  0  0  0  0
 14 15  1  0  0  0  0
 15 16  1  0  0  0  0
 16 17  1  0  0  0  0
M  END
>  <Name_Molregno>
583073

>  <Alpha-2A>
7.64

>  <Alpha-2B>
6.51

>  <Alpha-2C>
7.1

$$$$
583075
  Marvin  02231216192D 0   1.00000     0.00000     0

 14 15  0  0  0  0  0  0  0  0999 V2000
    0.7529   -0.9517    0.0000 O   0  0  0  0  0  0  0  0  0
    0.0384   -0.5392    0.0000 C   0  0  0  0  0  0  0  0  0
    0.0384    0.2858    0.0000 C   0  0  0  0  0  0  0  0  0
   -0.6761    0.6983    0.0000 C   0  0  0  0  0  0  0  0  0
   -0.6761    1.5233    0.0000 C   0  0  0  0  0  0  0  0  0
    0.0384    1.9358    0.0000 C   0  0  0  0  0  0  0  0  0
    0.7529    1.5233    0.0000 C   0  0  0  0  0  0  0  0  0
    0.7529    0.6983    0.0000 C   0  0  0  0  0  0  0  0  0
    1.4673    0.2858    0.0000 C   0  0  0  0  0  0  0  0  0
    0.7529   -1.7767    0.0000 C   0  0  0  0  0  0  0  0  0
    1.4203   -2.2617    0.0000 N   0  0  0  0  0  0  0  0  0
    1.1654   -3.0463    0.0000 C   0  0  0  0  0  0  0  0  0
    0.3404   -3.0463    0.0000 C   0  0  0  0  0  0  0  0  0
    0.0854   -2.2617    0.0000 N   0  0  0  0  0  0  0  0  0
  1  2  1  0  0  0  0
  1 10  1  0  0  0  0
  2  3  1  0  0  0  0
  3  4  4  0  0  0  0
  3  8  4  0  0  0  0
  4  5  4  0  0  0  0
  5  6  4  0  0  0  0
  6  7  4  0  0  0  0
  7  8  4  0  0  0  0
  8  9  1  0  0  0  0
 10 11  1  0  0  0  0
 10 14  2  0  0  0  0
 11 12  1  0  0  0  0
 12 13  1  0  0  0  0
 13 14  1  0  0  0  0
M  END
>  <Name_Molregno>
583075

>  <Alpha-2A>
7.46

>  <Alpha-2B>
6.4

>  <Alpha-2C>
6.3

$$$$
583083
  Marvin  02231216192D 0   1.00000     0.00000     0

 16 17  0  0  0  0  0  0  0  0999 V2000
    0.6117    0.2450    0.0000 O   0  0  0  0  0  0  0  0  0
   -0.1028    0.6575    0.0000 C   0  0  0  0  0  0  0  0  0
   -0.1028    1.4825    0.0000 C   0  0  0  0  0  0  0  0  0
   -0.8173    1.8950    0.0000 C   0  0  0  0  0  0  0  0  0
   -0.8173    2.7200    0.0000 C   0  0  0  0  0  0  0  0  0
   -0.1028    3.1325    0.0000 C   0  0  0  0  0  0  0  0  0
    0.6117    2.7200    0.0000 C   0  0  0  0  0  0  0  0  0
    0.6117    1.8950    0.0000 C   0  0  0  0  0  0  0  0  0
    1.3261    1.4825    0.0000 C   0  0  0  0  0  0  0  0  0
    2.0406    1.8950    0.0000 C   0  0  0  0  0  0  0  0  0
    2.7551    1.4825    0.0000 C   0  0  0  0  0  0  0  0  0
    0.6117   -0.5800    0.0000 C   0  0  0  0  0  0  0  0  0
    1.2791   -1.0650    0.0000 N   0  0  0  0  0  0  0  0  0
    1.0242   -1.8496    0.0000 C   0  0  0  0  0  0  0  0  0
    0.1992   -1.8496    0.0000 C   0  0  0  0  0  0  0  0  0
   -0.0558   -1.0650    0.0000 N   0  0  0  0  0  0  0  0  0
  1  2  1  0  0  0  0
  1 12  1  0  0  0  0
  2  3  1  0  0  0  0
  3  4  4  0  0  0  0
  3  8  4  0  0  0  0
  4  5  4  0  0  0  0
  5  6  4  0  0  0  0
  6  7  4  0  0  0  0
  7  8  4  0  0  0  0
  8  9  1  0  0  0  0
  9 10  1  0  0  0  0
 10 11  1  0  0  0  0
 12 13  1  0  0  0  0
 12 16  2  0  0  0  0
 13 14  1  0  0  0  0
 14 15  1  0  0  0  0
 15 16  1  0  0  0  0
M  END
>  <Name_Molregno>
583083

>  <Alpha-2A>
7.31

>  <Alpha-2B>
6.26

>  <Alpha-2C>
6.31

$$$$
590504
  Marvin  02231216192D 0   1.00000     0.00000     0

 23 26  0  0  0  0  0  0  0  0999 V2000
    0.2821   -0.2802    0.0000 N   0  0  0  0  0  0  0  0  0
    0.9496   -0.7652    0.0000 C   0  0  0  0  0  0  0  0  0
    1.7565   -0.5936    0.0000 C   0  0  0  0  0  0  0  0  0
    2.3086   -1.2067    0.0000 C   0  0  0  0  0  0  0  0  0
    2.0536   -1.9913    0.0000 N   0  0  0  0  0  0  0  0  0
    1.2467   -2.1629    0.0000 C   0  0  0  0  0  0  0  0  0
    0.6946   -1.5498    0.0000 C   0  0  0  0  0  0  0  0  0
   -0.1304   -1.5498    0.0000 C   0  0  0  0  0  0  0  0  0
   -0.6824   -2.1629    0.0000 C   0  0  0  0  0  0  0  0  0
   -1.4894   -1.9913    0.0000 C   0  0  0  0  0  0  0  0  0
   -1.7443   -1.2067    0.0000 C   0  0  0  0  0  0  0  0  0
   -1.1923   -0.5936    0.0000 C   0  0  0  0  0  0  0  0  0
   -0.3853   -0.7652    0.0000 C   0  0  0  0  0  0  0  0  0
   -2.0414   -2.6044    0.0000 C   0  0  0  0  0  0  0  0  0
    2.6057   -2.6044    0.0000 C   0  0  0  0  0  0  0  0  0
    0.2821    0.5448    0.0000 C   0  0  0  0  0  0  0  0  0
   -0.4323    0.9573    0.0000 C   0  0  0  0  0  0  0  0  0
   -0.4323    1.7823    0.0000 C   0  0  0  0  0  0  0  0  0
   -1.1468    2.1948    0.0000 C   0  0  0  0  0  0  0  0  0
   -1.1468    3.0198    0.0000 C   0  0  0  0  0  0  0  0  0
   -0.4323    3.4323    0.0000 C   0  0  0  0  0  0  0  0  0
    0.2821    3.0198    0.0000 C   0  0  0  0  0  0  0  0  0
    0.2821    2.1948    0.0000 C   0  0  0  0  0  0  0  0  0
  1  2  4  0  0  0  0
  1 13  4  0  0  0  0
  1 16  1  0  0  0  0
  2  3  1  0  0  0  0
  2  7  4  0  0  0  0
  3  4  1  0  0  0  0
  4  5  1  0  0  0  0
  5  6  1  0  0  0  0
  5 15  1  0  0  0  0
  6  7  1  0  0  0  0
  7  8  4  0  0  0  0
  8  9  4  0  0  0  0
  8 13  4  0  0  0  0
  9 10  4  0  0  0  0
 10 11  4  0  0  0  0
 10 14  1  0  0  0  0
 11 12  4  0  0  0  0
 12 13  4  0  0  0  0
 16 17  2  0  0  0  0
 17 18  1  0  0  0  0
 18 19  4  0  0  0  0
 18 23  4  0  0  0  0
 19 20  4  0  0  0  0
 20 21  4  0  0  0  0
 21 22  4  0  0  0  0
 22 23  4  0  0  0  0
M  END
>  <Name_Molregno>
590504

>  <5-HT2A>
9

>  <5-HT2C>
9.32

>  <5-HT6>
9.21

>  <5-HT7>
9.68

>  <Alpha-2A>
9.62

>  <DOPAMINE D2>
7.46

$$$$
590667
  Marvin  02231216192D 0   1.00000     0.00000     0

 23 26  0  0  0  0  0  0  0  0999 V2000
    0.2821   -0.2802    0.0000 N   0  0  0  0  0  0  0  0  0
    0.9496   -0.7652    0.0000 C   0  0  0  0  0  0  0  0  0
    1.7565   -0.5936    0.0000 C   0  0  0  0  0  0  0  0  0
    2.3086   -1.2067    0.0000 C   0  0  0  0  0  0  0  0  0
    2.0536   -1.9913    0.0000 N   0  0  0  0  0  0  0  0  0
    1.2467   -2.1629    0.0000 C   0  0  0  0  0  0  0  0  0
    0.6946   -1.5498    0.0000 C   0  0  0  0  0  0  0  0  0
   -0.1304   -1.5498    0.0000 C   0  0  0  0  0  0  0  0  0
   -0.6824   -2.1629    0.0000 C   0  0  0  0  0  0  0  0  0
   -1.4894   -1.9913    0.0000 C   0  0  0  0  0  0  0  0  0
   -1.7443   -1.2067    0.0000 C   0  0  0  0  0  0  0  0  0
   -1.1923   -0.5936    0.0000 C   0  0  0  0  0  0  0  0  0
   -0.3853   -0.7652    0.0000 C   0  0  0  0  0  0  0  0  0
   -2.0414   -2.6044    0.0000 C   0  0  0  0  0  0  0  0  0
    2.6057   -2.6044    0.0000 C   0  0  0  0  0  0  0  0  0
    0.2821    0.5448    0.0000 C   0  0  0  0  0  0  0  0  0
   -0.4323    0.9573    0.0000 C   0  0  0  0  0  0  0  0  0
   -0.4323    1.7823    0.0000 C   0  0  0  0  0  0  0  0  0
   -1.1468    2.1948    0.0000 C   0  0  0  0  0  0  0  0  0
   -1.1468    3.0198    0.0000 C   0  0  0  0  0  0  0  0  0
   -0.4323    3.4323    0.0000 C   0  0  0  0  0  0  0  0  0
    0.2821    3.0198    0.0000 C   0  0  0  0  0  0  0  0  0
    0.2821    2.1948    0.0000 C   0  0  0  0  0  0  0  0  0
  1  2  4  0  0  0  0
  1 13  4  0  0  0  0
  1 16  1  0  0  0  0
  2  3  1  0  0  0  0
  2  7  4  0  0  0  0
  3  4  1  0  0  0  0
  4  5  1  0  0  0  0
  5  6  1  0  0  0  0
  5 15  1  0  0  0  0
  6  7  1  0  0  0  0
  7  8  4  0  0  0  0
  8  9  4  0  0  0  0
  8 13  4  0  0  0  0
  9 10  4  0  0  0  0
 10 11  4  0  0  0  0
 10 14  1  0  0  0  0
 11 12  4  0  0  0  0
 12 13  4  0  0  0  0
 16 17  1  0  0  0  0
 17 18  1  0  0  0  0
 18 19  4  0  0  0  0
 18 23  4  0  0  0  0
 19 20  4  0  0  0  0
 20 21  4  0  0  0  0
 21 22  4  0  0  0  0
 22 23  4  0  0  0  0
M  END
>  <Name_Molregno>
590667

>  <5-HT2A>
8.7

>  <5-HT2C>
8.92

>  <5-HT6>
8.7

>  <5-HT7>
9.6

>  <Alpha-2A>
8.7

>  <DOPAMINE D2>
7.07

$$$$
590668
  Marvin  02231216192D 0   1.00000     0.00000     0

 24 27  0  0  0  0  0  0  0  0999 V2000
    0.4874   -0.4845    0.0000 N   0  0  0  0  0  0  0  0  0
    1.1548   -0.9694    0.0000 C   0  0  0  0  0  0  0  0  0
    1.9618   -0.7979    0.0000 C   0  0  0  0  0  0  0  0  0
    2.5138   -1.4110    0.0000 C   0  0  0  0  0  0  0  0  0
    2.2589   -2.1956    0.0000 N   0  0  0  0  0  0  0  0  0
    1.4519   -2.3672    0.0000 C   0  0  0  0  0  0  0  0  0
    0.8999   -1.7541    0.0000 C   0  0  0  0  0  0  0  0  0
    0.0749   -1.7541    0.0000 C   0  0  0  0  0  0  0  0  0
   -0.4772   -2.3672    0.0000 C   0  0  0  0  0  0  0  0  0
   -1.2841   -2.1956    0.0000 C   0  0  0  0  0  0  0  0  0
   -1.5391   -1.4110    0.0000 C   0  0  0  0  0  0  0  0  0
   -0.9870   -0.7979    0.0000 C   0  0  0  0  0  0  0  0  0
   -0.1801   -0.9694    0.0000 C   0  0  0  0  0  0  0  0  0
   -1.8362   -2.8087    0.0000 C   0  0  0  0  0  0  0  0  0
    2.8109   -2.8087    0.0000 C   0  0  0  0  0  0  0  0  0
    0.4874    0.3405    0.0000 C   0  0  0  0  0  0  0  0  0
   -0.2271    0.7530    0.0000 C   0  0  0  0  0  0  0  0  0
   -0.2271    1.5780    0.0000 C   0  0  0  0  0  0  0  0  0
   -0.9416    1.9905    0.0000 C   0  0  0  0  0  0  0  0  0
   -0.9416    2.8155    0.0000 C   0  0  0  0  0  0  0  0  0
   -0.2271    3.2280    0.0000 C   0  0  0  0  0  0  0  0  0
    0.4874    2.8155    0.0000 C   0  0  0  0  0  0  0  0  0
    0.4874    1.9905    0.0000 C   0  0  0  0  0  0  0  0  0
   -0.2271    4.0530    0.0000 C   0  0  0  0  0  0  0  0  0
  1  2  4  0  0  0  0
  1 13  4  0  0  0  0
  1 16  1  0  0  0  0
  2  3  1  0  0  0  0
  2  7  4  0  0  0  0
  3  4  1  0  0  0  0
  4  5  1  0  0  0  0
  5  6  1  0  0  0  0
  5 15  1  0  0  0  0
  6  7  1  0  0  0  0
  7  8  4  0  0  0  0
  8  9  4  0  0  0  0
  8 13  4  0  0  0  0
  9 10  4  0  0  0  0
 10 11  4  0  0  0  0
 10 14  1  0  0  0  0
 11 12  4  0  0  0  0
 12 13  4  0  0  0  0
 16 17  1  0  0  0  0
 17 18  1  0  0  0  0
 18 19  4  0  0  0  0
 18 23  4  0  0  0  0
 19 20  4  0  0  0  0
 20 21  4  0  0  0  0
 21 22  4  0  0  0  0
 21 24  1  0  0  0  0
 22 23  4  0  0  0  0
M  END
>  <Name_Molregno>
590668

>  <5-HT2A>
8.96

>  <5-HT2C>
8.8

>  <5-HT6>
8.62

>  <5-HT7>
9.41

>  <Alpha-2A>
9.09

$$$$
590783
  Marvin  02231216192D 0   1.00000     0.00000     0

 24 27  0  0  0  0  0  0  0  0999 V2000
   -1.9550    2.5452    0.0000 N   0  0  0  0  0  0  0  0  0
   -1.9550    1.7202    0.0000 C   0  0  0  0  0  0  0  0  0
   -2.6694    1.3077    0.0000 C   0  0  0  0  0  0  0  0  0
   -3.3839    1.7202    0.0000 C   0  0  0  0  0  0  0  0  0
   -3.3839    2.5452    0.0000 C   0  0  0  0  0  0  0  0  0
   -2.6694    2.9577    0.0000 C   0  0  0  0  0  0  0  0  0
   -2.6694    3.7827    0.0000 C   0  0  0  0  0  0  0  0  0
   -2.6694    0.4827    0.0000 C   0  0  0  0  0  0  0  0  0
   -3.3839    0.0702    0.0000 C   0  0  0  0  0  0  0  0  0
   -3.3839   -0.7548    0.0000 N   0  0  0  0  0  0  0  0  0
   -2.7165   -1.2397    0.0000 C   0  0  0  0  0  0  0  0  0
   -1.9095   -1.0682    0.0000 C   0  0  0  0  0  0  0  0  0
   -1.3575   -1.6813    0.0000 C   0  0  0  0  0  0  0  0  0
   -1.6124   -2.4659    0.0000 N   0  0  0  0  0  0  0  0  0
   -2.4194   -2.6374    0.0000 C   0  0  0  0  0  0  0  0  0
   -2.9714   -2.0243    0.0000 C   0  0  0  0  0  0  0  0  0
   -3.7964   -2.0243    0.0000 C   0  0  0  0  0  0  0  0  0
   -4.3484   -2.6374    0.0000 C   0  0  0  0  0  0  0  0  0
   -5.1554   -2.4659    0.0000 C   0  0  0  0  0  0  0  0  0
   -5.4103   -1.6813    0.0000 C   0  0  0  0  0  0  0  0  0
   -4.8583   -1.0682    0.0000 C   0  0  0  0  0  0  0  0  0
   -4.0513   -1.2397    0.0000 C   0  0  0  0  0  0  0  0  0
   -5.7074   -3.0790    0.0000 C   0  0  0  0  0  0  0  0  0
   -1.0604   -3.0790    0.0000 C   0  0  0  0  0  0  0  0  0
  1  2  4  0  0  0  0
  1  6  4  0  0  0  0
  2  3  4  0  0  0  0
  3  4  4  0  0  0  0
  3  8  1  0  0  0  0
  4  5  4  0  0  0  0
  5  6  4  0  0  0  0
  6  7  1  0  0  0  0
  8  9  1  0  0  0  0
  9 10  1  0  0  0  0
 10 11  4  0  0  0  0
 10 22  4  0  0  0  0
 11 12  1  0  0  0  0
 11 16  4  0  0  0  0
 12 13  1  0  0  0  0
 13 14  1  0  0  0  0
 14 15  1  0  0  0  0
 14 24  1  0  0  0  0
 15 16  1  0  0  0  0
 16 17  4  0  0  0  0
 17 18  4  0  0  0  0
 17 22  4  0  0  0  0
 18 19  4  0  0  0  0
 19 20  4  0  0  0  0
 19 23  1  0  0  0  0
 20 21  4  0  0  0  0
 21 22  4  0  0  0  0
M  END
>  <Name_Molregno>
590783

>  <5-HT2A>
7.21

>  <5-HT2C>
7.12

>  <5-HT6>
7.51

>  <5-HT7>
8.1

>  <Alpha-2A>
6.96

>  <DOPAMINE D2>
6.2

$$$$
591110
  Marvin  02231216192D 0   1.00000     0.00000     0

 27 31  0  0  1  0  0  0  0  0999 V2000
    0.4188    1.2437    0.0000 O   0  0  0  0  0  0  0  0  0
   -0.3658    0.9887    0.0000 C   0  0  0  0  0  0  0  0  0
   -0.3658    0.1637    0.0000 C   0  0  0  0  0  0  0  0  0
    0.4188   -0.0912    0.0000 O   0  0  0  0  0  0  0  0  0
    0.9037    0.5762    0.0000 C   0  0  0  0  0  0  0  0  0
   -1.0803   -0.2488    0.0000 C   0  0  0  0  0  0  0  0  0
   -1.7947    0.1637    0.0000 C   0  0  0  0  0  0  0  0  0
   -2.5092   -0.2488    0.0000 C   0  0  0  0  0  0  0  0  0
   -3.2237    0.1637    0.0000 C   0  0  0  0  0  0  0  0  0
   -3.9382   -0.2488    0.0000 N   0  0  0  0  0  0  0  0  0
   -4.6526    0.1637    0.0000 C   0  0  0  0  0  0  0  0  0
   -4.6526    0.9887    0.0000 C   0  0  0  0  0  0  0  0  0
   -3.9382    1.4012    0.0000 C   0  0  0  0  0  0  0  0  0
   -3.9382    2.2262    0.0000 C   0  0  0  0  0  0  0  0  0
   -3.2237    2.6387    0.0000 C   0  0  0  0  0  0  0  0  0
   -3.2237    3.4637    0.0000 C   0  0  0  0  0  0  0  0  0
   -3.9382    3.8762    0.0000 O   0  0  0  0  0  0  0  0  0
   -2.5092    3.8762    0.0000 C   0  0  0  0  0  0  0  0  0
   -2.5092    2.2262    0.0000 C   0  0  0  0  0  0  0  0  0
   -2.5092    1.4012    0.0000 C   0  0  0  0  0  0  0  0  0
   -3.2237    0.9887    0.0000 C   0  0  0  0  0  0  0  0  0
   -1.7947    0.9887    0.0000 C   0  0  0  0  0  0  0  0  0
   -1.0803    1.4012    0.0000 C   0  0  0  0  0  0  0  0  0
   -1.7947    2.6387    0.0000 C   0  0  0  0  0  0  0  0  0
   -1.0803    2.2262    0.0000 O   0  0  0  0  0  0  0  0  0
   -1.7947    3.4637    0.0000 C   0  0  0  0  0  0  0  0  0
   -3.9382   -1.0738    0.0000 C   0  0  0  0  0  0  0  0  0
  1  2  1  0  0  0  0
  1  5  1  0  0  0  0
  2  3  4  0  0  0  0
  2 23  4  0  0  0  0
  3  4  1  0  0  0  0
  3  6  4  0  0  0  0
  4  5  1  0  0  0  0
  6  7  4  0  0  0  0
  7  8  1  0  0  0  0
  7 22  4  0  0  0  0
  8  9  1  0  0  0  0
  9 10  1  0  0  0  0
  9 21  1  0  0  0  0
 10 11  1  0  0  0  0
 10 27  1  0  0  0  0
 11 12  1  0  0  0  0
 12 13  1  0  0  0  0
 13 14  4  0  0  0  0
 13 21  4  0  0  0  0
 14 15  4  0  0  0  0
 15 16  1  0  0  0  0
 15 19  4  0  0  0  0
 16 17  2  0  0  0  0
 16 18  1  0  0  0  0
 19 20  4  0  0  0  0
 19 24  1  0  0  0  0
 20 21  4  0  0  0  0
 20 22  1  0  0  0  0
 22 23  4  0  0  0  0
 24 25  2  0  0  0  0
 24 26  1  0  0  0  0
M  END
>  <Name_Molregno>
591110

>  <5-HT1B>
7

>  <5-HT1D>
7.31

>  <5-HT1E>
5

>  <5-HT2A>
6.08

>  <5-HT2C>
5.97

>  <5-HT3>
5

>  <5-HT5>
5.65

>  <5-HT6>
6.59

>  <5-HT7>
7.17

>  <Alpha-1A>
8.7

>  <Alpha-1B>
5.92

>  <Alpha-2A>
5.89

>  <Alpha-2B>
6.6

>  <Alpha-2C>
6.74

>  <Beta-1>
5.07

>  <Beta-2>
5

>  <DOPAMINE D1>
6.05

>  <DOPAMINE D2>
6.07

>  <DOPAMINE D3>
6.51

>  <DOPAMINE D4>
6.58

>  <DOPAMINE D5>
5.62

>  <Dopamine transporter>
5

>  <HISTAMINE H1>
5

>  <HISTAMINE H2>
6.17

>  <HISTAMINE H3>
5

>  <HISTAMINE H4>
5

>  <Muscarinic acetylcholine receptor M1>
5

>  <Muscarinic acetylcholine receptor M2>
5

>  <Muscarinic acetylcholine receptor M3>
5

>  <Muscarinic acetylcholine receptor M4>
5

>  <Norepinephrine transporter>
5

>  <Serotonin transporter>
6.61

$$$$
593611
  Marvin  02231216192D 0   1.00000     0.00000     0

 23 25  0  0  1  0  0  0  0  0999 V2000
    2.4953   -1.7278    0.0000 O   0  0  0  0  0  0  0  0  0
    2.4953   -2.5528    0.0000 C   0  0  0  0  0  0  0  0  0
    1.7808   -2.9653    0.0000 C   0  0  0  0  0  0  0  0  0
    1.0664   -2.5528    0.0000 N   0  0  0  0  0  0  0  0  0
    1.0664   -1.7278    0.0000 C   0  0  0  0  0  0  0  0  0
    1.7808   -1.3153    0.0000 C   0  0  0  0  0  0  0  0  0
    1.7808   -0.4903    0.0000 C   0  0  0  0  0  0  0  0  0
    2.4953   -0.0778    0.0000 O   0  0  0  0  0  0  0  0  0
    2.4953    0.7472    0.0000 C   0  0  0  0  0  0  0  0  0
    1.7808    1.1597    0.0000 C   0  0  0  0  0  0  0  0  0
    1.7808    1.9847    0.0000 C   0  0  0  0  0  0  0  0  0
    2.4953    2.3972    0.0000 C   0  0  0  0  0  0  0  0  0
    3.2098    1.9847    0.0000 C   0  0  0  0  0  0  0  0  0
    3.2098    1.1597    0.0000 C   0  0  0  0  0  0  0  0  0
    3.9242    0.7472    0.0000 O   0  0  0  0  0  0  0  0  0
    3.9242   -0.0778    0.0000 C   0  0  0  0  0  0  0  0  0
    4.6387   -0.4903    0.0000 C   0  0  0  0  0  0  0  0  0
    1.0664   -0.0778    0.0000 C   0  0  0  0  0  0  0  0  0
    0.3519   -0.4903    0.0000 C   0  0  0  0  0  0  0  0  0
   -0.3626   -0.0778    0.0000 C   0  0  0  0  0  0  0  0  0
   -0.3626    0.7472    0.0000 C   0  0  0  0  0  0  0  0  0
    0.3519    1.1597    0.0000 C   0  0  0  0  0  0  0  0  0
    1.0664    0.7472    0.0000 C   0  0  0  0  0  0  0  0  0
  1  2  1  0  0  0  0
  1  6  1  0  0  0  0
  2  3  1  0  0  0  0
  3  4  1  0  0  0  0
  4  5  1  0  0  0  0
  5  6  1  0  0  0  0
  6  7  1  0  0  0  0
  7  8  1  0  0  0  0
  7 18  1  0  0  0  0
  8  9  1  0  0  0  0
  9 10  4  0  0  0  0
  9 14  4  0  0  0  0
 10 11  4  0  0  0  0
 11 12  4  0  0  0  0
 12 13  4  0  0  0  0
 13 14  4  0  0  0  0
 14 15  1  0  0  0  0
 15 16  1  0  0  0  0
 16 17  1  0  0  0  0
 18 19  4  0  0  0  0
 18 23  4  0  0  0  0
 19 20  4  0  0  0  0
 20 21  4  0  0  0  0
 21 22  4  0  0  0  0
 22 23  4  0  0  0  0
M  END
>  <Name_Molregno>
593611

>  <5-HT1A>
5

>  <5-HT1B>
5

>  <5-HT1D>
5

>  <5-HT2A>
5

>  <5-HT2C>
6.34

>  <Alpha-1A>
5

>  <Alpha-2A>
5

>  <DOPAMINE D2>
5

>  <DOPAMINE D3>
5

>  <Dopamine transporter>
5.12

>  <Norepinephrine transporter>
8.27

>  <Serotonin transporter>
6.28

$$$$
594448
  Marvin  02231216192D 0   1.00000     0.00000     0

 24 27  0  0  1  0  0  0  0  0999 V2000
   -0.1249   -0.5370    0.0000 O   0  0  0  0  0  0  0  0  0
    0.6852   -0.6929    0.0000 C   0  0  0  0  0  0  0  0  0
   -0.3950    0.2426    0.0000 C   0  0  0  0  0  0  0  0  0
   -1.2051    0.3985    0.0000 C   0  0  0  0  0  0  0  0  0
   -1.4751    1.1780    0.0000 C   0  0  0  0  0  0  0  0  0
   -2.2853    1.3340    0.0000 C   0  0  0  0  0  0  0  0  0
   -2.8254    0.7103    0.0000 C   0  0  0  0  0  0  0  0  0
   -2.5553   -0.0692    0.0000 N   0  0  0  0  0  0  0  0  0
   -1.7452   -0.2251    0.0000 C   0  0  0  0  0  0  0  0  0
   -3.0954   -0.6929    0.0000 C   0  0  0  0  0  0  0  0  0
   -3.9055   -0.5370    0.0000 C   0  0  0  0  0  0  0  0  0
   -4.1756    0.2426    0.0000 C   0  0  0  0  0  0  0  0  0
   -4.9857    0.3985    0.0000 C   0  0  0  0  0  0  0  0  0
   -5.2558    1.1780    0.0000 C   0  0  0  0  0  0  0  0  0
   -6.0659    1.3340    0.0000 O   0  0  0  0  0  0  0  0  0
   -6.6060    0.7103    0.0000 C   0  0  0  0  0  0  0  0  0
   -4.7157    1.8017    0.0000 C   0  0  0  0  0  0  0  0  0
   -4.9857    2.5812    0.0000 O   0  0  0  0  0  0  0  0  0
   -3.9055    1.6458    0.0000 C   0  0  0  0  0  0  0  0  0
   -3.6355    0.8662    0.0000 C   0  0  0  0  0  0  0  0  0
   -0.9351    1.8017    0.0000 C   0  0  0  0  0  0  0  0  0
   -0.1249    1.6458    0.0000 C   0  0  0  0  0  0  0  0  0
    0.1451    0.8662    0.0000 C   0  0  0  0  0  0  0  0  0
    0.9553    0.7103    0.0000 O   0  0  0  0  0  0  0  0  0
  1  2  1  0  0  0  0
  1  3  1  0  0  0  0
  3  4  4  0  0  0  0
  3 23  4  0  0  0  0
  4  5  4  0  0  0  0
  4  9  1  0  0  0  0
  5  6  1  0  0  0  0
  5 21  4  0  0  0  0
  6  7  1  0  0  0  0
  7  8  1  0  0  0  0
  7 20  1  0  0  0  0
  8  9  1  0  0  0  0
  8 10  1  0  0  0  0
 10 11  1  0  0  0  0
 11 12  1  0  0  0  0
 12 13  4  0  0  0  0
 12 20  4  0  0  0  0
 13 14  4  0  0  0  0
 14 15  1  0  0  0  0
 14 17  4  0  0  0  0
 15 16  1  0  0  0  0
 17 18  1  0  0  0  0
 17 19  4  0  0  0  0
 19 20  4  0  0  0  0
 21 22  4  0  0  0  0
 22 23  4  0  0  0  0
 23 24  1  0  0  0  0
M  END
>  <Name_Molregno>
594448

>  <5-HT1A>
6.84

>  <5-HT1B>
5.16

>  <5-HT1D>
5

>  <5-HT1E>
5

>  <5-HT2A>
5

>  <5-HT3>
5

>  <5-HT5>
5

>  <5-HT6>
5

>  <5-HT7>
5

>  <Alpha-1A>
5

>  <Alpha-1B>
5

>  <Alpha-2A>
5

>  <Alpha-2B>
5.16

>  <Alpha-2C>
6.67

>  <Beta-1>
5

>  <Beta-2>
5

>  <DOPAMINE D1>
8.23

>  <DOPAMINE D2>
6.01

>  <DOPAMINE D4>
5.43

>  <DOPAMINE D5>
8.36

>  <Dopamine transporter>
5

>  <HISTAMINE H1>
5

>  <HISTAMINE H2>
5

>  <HISTAMINE H4>
5

>  <Muscarinic acetylcholine receptor M2>
5

>  <Muscarinic acetylcholine receptor M5>
5

>  <Norepinephrine transporter>
5

>  <Serotonin transporter>
5

$$$$
687925
  Marvin  02231216192D 0   1.00000     0.00000     0

 29 32  0  0  0  0  0  0  0  0999 V2000
   -6.5237   -2.2736    0.0000 O   0  0  0  0  0  0  0  0  0
   -6.5237   -3.0986    0.0000 C   0  0  0  0  0  0  0  0  0
   -7.2382   -1.8611    0.0000 C   0  0  0  0  0  0  0  0  0
   -7.9526   -2.2736    0.0000 C   0  0  0  0  0  0  0  0  0
   -8.6671   -1.8611    0.0000 C   0  0  0  0  0  0  0  0  0
   -8.6671   -1.0361    0.0000 C   0  0  0  0  0  0  0  0  0
   -7.9526   -0.6236    0.0000 C   0  0  0  0  0  0  0  0  0
   -7.2382   -1.0361    0.0000 C   0  0  0  0  0  0  0  0  0
   -6.5237   -0.6236    0.0000 N   0  0  0  0  0  0  0  0  0
   -6.5237    0.2014    0.0000 C   0  0  0  0  0  0  0  0  0
   -5.8092    0.6139    0.0000 C   0  0  0  0  0  0  0  0  0
   -5.0948    0.2014    0.0000 N   0  0  0  0  0  0  0  0  0
   -5.0948   -0.6236    0.0000 C   0  0  0  0  0  0  0  0  0
   -5.8092   -1.0361    0.0000 C   0  0  0  0  0  0  0  0  0
   -4.3803    0.6139    0.0000 C   0  0  0  0  0  0  0  0  0
   -3.6658    0.2014    0.0000 C   0  0  0  0  0  0  0  0  0
   -2.9513    0.6139    0.0000 N   0  0  0  0  0  0  0  0  0
   -2.2369    0.2014    0.0000 C   0  0  0  0  0  0  0  0  0
   -2.2369   -0.6236    0.0000 O   0  0  0  0  0  0  0  0  0
   -1.5224    0.6139    0.0000 C   0  0  0  0  0  0  0  0  0
   -0.8079    0.2014    0.0000 C   0  0  0  0  0  0  0  0  0
   -0.0935    0.6139    0.0000 C   0  0  0  0  0  0  0  0  0
   -0.0935    1.4389    0.0000 C   0  0  0  0  0  0  0  0  0
   -0.8079    1.8514    0.0000 C   0  0  0  0  0  0  0  0  0
   -1.5224    1.4389    0.0000 C   0  0  0  0  0  0  0  0  0
    0.6210    1.8514    0.0000 C   0  0  0  0  0  0  0  0  0
    1.3355    1.4389    0.0000 C   0  0  0  0  0  0  0  0  0
    1.3355    0.6139    0.0000 C   0  0  0  0  0  0  0  0  0
    0.6210    0.2014    0.0000 C   0  0  0  0  0  0  0  0  0
  1  2  1  0  0  0  0
  1  3  1  0  0  0  0
  3  4  4  0  0  0  0
  3  8  4  0  0  0  0
  4  5  4  0  0  0  0
  5  6  4  0  0  0  0
  6  7  4  0  0  0  0
  7  8  4  0  0  0  0
  8  9  1  0  0  0  0
  9 10  1  0  0  0  0
  9 14  1  0  0  0  0
 10 11  1  0  0  0  0
 11 12  1  0  0  0  0
 12 13  1  0  0  0  0
 12 15  1  0  0  0  0
 13 14  1  0  0  0  0
 15 16  1  0  0  0  0
 16 17  1  0  0  0  0
 17 18  1  0  0  0  0
 18 19  2  0  0  0  0
 18 20  1  0  0  0  0
 20 21  4  0  0  0  0
 20 25  4  0  0  0  0
 21 22  4  0  0  0  0
 22 23  4  0  0  0  0
 22 29  4  0  0  0  0
 23 24  4  0  0  0  0
 23 26  4  0  0  0  0
 24 25  4  0  0  0  0
 26 27  4  0  0  0  0
 27 28  4  0  0  0  0
 28 29  4  0  0  0  0
M  END
>  <Name_Molregno>
687925

>  <5-HT1A>
8.63

>  <Alpha-2A>
8.77

>  <DOPAMINE D2>
6.05

$$$$
687926
  Marvin  02231216192D 0   1.00000     0.00000     0

 30 33  0  0  0  0  0  0  0  0999 V2000
   -0.0771   -0.2282    0.0000 S   0  0  0  0  0  0  0  0  0
    0.3354   -0.9426    0.0000 O   0  0  0  0  0  0  0  0  0
   -0.4896    0.4863    0.0000 O   0  0  0  0  0  0  0  0  0
   -0.7916   -0.6407    0.0000 N   0  0  0  0  0  0  0  0  0
   -1.5060   -0.2282    0.0000 C   0  0  0  0  0  0  0  0  0
   -2.2205   -0.6407    0.0000 C   0  0  0  0  0  0  0  0  0
   -2.9350   -0.2282    0.0000 N   0  0  0  0  0  0  0  0  0
   -3.6494   -0.6407    0.0000 C   0  0  0  0  0  0  0  0  0
   -4.3639   -0.2282    0.0000 C   0  0  0  0  0  0  0  0  0
   -4.3639    0.5968    0.0000 N   0  0  0  0  0  0  0  0  0
   -3.6494    1.0093    0.0000 C   0  0  0  0  0  0  0  0  0
   -2.9350    0.5968    0.0000 C   0  0  0  0  0  0  0  0  0
   -5.0784    1.0093    0.0000 C   0  0  0  0  0  0  0  0  0
   -5.7929    0.5968    0.0000 C   0  0  0  0  0  0  0  0  0
   -6.5073    1.0093    0.0000 C   0  0  0  0  0  0  0  0  0
   -6.5073    1.8343    0.0000 C   0  0  0  0  0  0  0  0  0
   -5.7929    2.2468    0.0000 C   0  0  0  0  0  0  0  0  0
   -5.0784    1.8343    0.0000 C   0  0  0  0  0  0  0  0  0
   -4.3639    2.2468    0.0000 O   0  0  0  0  0  0  0  0  0
   -4.3639    3.0718    0.0000 C   0  0  0  0  0  0  0  0  0
    0.6374    0.1843    0.0000 C   0  0  0  0  0  0  0  0  0
    1.3518   -0.2282    0.0000 C   0  0  0  0  0  0  0  0  0
    2.0663    0.1843    0.0000 C   0  0  0  0  0  0  0  0  0
    2.0663    1.0093    0.0000 C   0  0  0  0  0  0  0  0  0
    1.3518    1.4218    0.0000 C   0  0  0  0  0  0  0  0  0
    0.6374    1.0093    0.0000 C   0  0  0  0  0  0  0  0  0
    2.7808    1.4218    0.0000 C   0  0  0  0  0  0  0  0  0
    3.4953    1.0093    0.0000 C   0  0  0  0  0  0  0  0  0
    3.4953    0.1843    0.0000 C   0  0  0  0  0  0  0  0  0
    2.7808   -0.2282    0.0000 C   0  0  0  0  0  0  0  0  0
  1  2  2  0  0  0  0
  1  3  2  0  0  0  0
  1  4  1  0  0  0  0
  1 21  1  0  0  0  0
  4  5  1  0  0  0  0
  5  6  1  0  0  0  0
  6  7  1  0  0  0  0
  7  8  1  0  0  0  0
  7 12  1  0  0  0  0
  8  9  1  0  0  0  0
  9 10  1  0  0  0  0
 10 11  1  0  0  0  0
 10 13  1  0  0  0  0
 11 12  1  0  0  0  0
 13 14  4  0  0  0  0
 13 18  4  0  0  0  0
 14 15  4  0  0  0  0
 15 16  4  0  0  0  0
 16 17  4  0  0  0  0
 17 18  4  0  0  0  0
 18 19  1  0  0  0  0
 19 20  1  0  0  0  0
 21 22  4  0  0  0  0
 21 26  4  0  0  0  0
 22 23  4  0  0  0  0
 23 24  4  0  0  0  0
 23 30  4  0  0  0  0
 24 25  4  0  0  0  0
 24 27  4  0  0  0  0
 25 26  4  0  0  0  0
 27 28  4  0  0  0  0
 28 29  4  0  0  0  0
 29 30  4  0  0  0  0
M  END
>  <Name_Molregno>
687926

>  <5-HT1A>
7.61

>  <Alpha-2A>
8.28

$$$$
687971
  Marvin  02231216192D 0   1.00000     0.00000     0

 30 33  0  0  0  0  0  0  0  0999 V2000
   -8.5101   -0.8886    0.0000 O   0  0  0  0  0  0  0  0  0
   -9.2245   -1.3011    0.0000 C   0  0  0  0  0  0  0  0  0
   -8.5101   -0.0636    0.0000 C   0  0  0  0  0  0  0  0  0
   -9.2245    0.3489    0.0000 C   0  0  0  0  0  0  0  0  0
   -9.2245    1.1739    0.0000 C   0  0  0  0  0  0  0  0  0
   -8.5101    1.5864    0.0000 C   0  0  0  0  0  0  0  0  0
   -7.7956    1.1739    0.0000 C   0  0  0  0  0  0  0  0  0
   -7.7956    0.3489    0.0000 C   0  0  0  0  0  0  0  0  0
   -7.0811   -0.0636    0.0000 N   0  0  0  0  0  0  0  0  0
   -6.3667    0.3489    0.0000 C   0  0  0  0  0  0  0  0  0
   -5.6522   -0.0636    0.0000 C   0  0  0  0  0  0  0  0  0
   -5.6522   -0.8886    0.0000 N   0  0  0  0  0  0  0  0  0
   -6.3667   -1.3011    0.0000 C   0  0  0  0  0  0  0  0  0
   -7.0811   -0.8886    0.0000 C   0  0  0  0  0  0  0  0  0
   -4.9377   -1.3011    0.0000 C   0  0  0  0  0  0  0  0  0
   -4.2232   -0.8886    0.0000 C   0  0  0  0  0  0  0  0  0
   -3.5088   -1.3011    0.0000 C   0  0  0  0  0  0  0  0  0
   -2.7943   -0.8886    0.0000 N   0  0  0  0  0  0  0  0  0
   -2.0798   -1.3011    0.0000 C   0  0  0  0  0  0  0  0  0
   -2.0798   -2.1261    0.0000 O   0  0  0  0  0  0  0  0  0
   -1.3654   -0.8886    0.0000 C   0  0  0  0  0  0  0  0  0
   -0.6509   -1.3011    0.0000 C   0  0  0  0  0  0  0  0  0
    0.0636   -0.8886    0.0000 C   0  0  0  0  0  0  0  0  0
    0.0636   -0.0636    0.0000 C   0  0  0  0  0  0  0  0  0
   -0.6509    0.3489    0.0000 C   0  0  0  0  0  0  0  0  0
   -1.3654   -0.0636    0.0000 C   0  0  0  0  0  0  0  0  0
    0.7781    0.3489    0.0000 C   0  0  0  0  0  0  0  0  0
    1.4925   -0.0636    0.0000 C   0  0  0  0  0  0  0  0  0
    1.4925   -0.8886    0.0000 C   0  0  0  0  0  0  0  0  0
    0.7781   -1.3011    0.0000 C   0  0  0  0  0  0  0  0  0
  1  2  1  0  0  0  0
  1  3  1  0  0  0  0
  3  4  4  0  0  0  0
  3  8  4  0  0  0  0
  4  5  4  0  0  0  0
  5  6  4  0  0  0  0
  6  7  4  0  0  0  0
  7  8  4  0  0  0  0
  8  9  1  0  0  0  0
  9 10  1  0  0  0  0
  9 14  1  0  0  0  0
 10 11  1  0  0  0  0
 11 12  1  0  0  0  0
 12 13  1  0  0  0  0
 12 15  1  0  0  0  0
 13 14  1  0  0  0  0
 15 16  1  0  0  0  0
 16 17  1  0  0  0  0
 17 18  1  0  0  0  0
 18 19  1  0  0  0  0
 19 20  2  0  0  0  0
 19 21  1  0  0  0  0
 21 22  4  0  0  0  0
 21 26  4  0  0  0  0
 22 23  4  0  0  0  0
 23 24  4  0  0  0  0
 23 30  4  0  0  0  0
 24 25  4  0  0  0  0
 24 27  4  0  0  0  0
 25 26  4  0  0  0  0
 27 28  4  0  0  0  0
 28 29  4  0  0  0  0
 29 30  4  0  0  0  0
M  END
>  <Name_Molregno>
687971

>  <5-HT1A>
7.75

>  <Alpha-2A>
8.34

$$$$
687972
  Marvin  02231216192D 0   1.00000     0.00000     0

 32 35  0  0  0  0  0  0  0  0999 V2000
    0.0473    0.2018    0.0000 S   0  0  0  0  0  0  0  0  0
   -0.3652    0.9163    0.0000 O   0  0  0  0  0  0  0  0  0
    0.4598   -0.5127    0.0000 O   0  0  0  0  0  0  0  0  0
    0.7617    0.6143    0.0000 N   0  0  0  0  0  0  0  0  0
    1.4762    0.2018    0.0000 C   0  0  0  0  0  0  0  0  0
    2.1907    0.6143    0.0000 C   0  0  0  0  0  0  0  0  0
    2.9052    0.2018    0.0000 C   0  0  0  0  0  0  0  0  0
    3.6196    0.6143    0.0000 C   0  0  0  0  0  0  0  0  0
    4.3341    0.2018    0.0000 N   0  0  0  0  0  0  0  0  0
    5.0486    0.6143    0.0000 C   0  0  0  0  0  0  0  0  0
    5.7630    0.2018    0.0000 C   0  0  0  0  0  0  0  0  0
    5.7630   -0.6232    0.0000 N   0  0  0  0  0  0  0  0  0
    5.0486   -1.0357    0.0000 C   0  0  0  0  0  0  0  0  0
    4.3341   -0.6232    0.0000 C   0  0  0  0  0  0  0  0  0
    6.4775   -1.0357    0.0000 C   0  0  0  0  0  0  0  0  0
    7.1920   -0.6232    0.0000 C   0  0  0  0  0  0  0  0  0
    7.9065   -1.0357    0.0000 C   0  0  0  0  0  0  0  0  0
    7.9065   -1.8607    0.0000 C   0  0  0  0  0  0  0  0  0
    7.1920   -2.2732    0.0000 C   0  0  0  0  0  0  0  0  0
    6.4775   -1.8607    0.0000 C   0  0  0  0  0  0  0  0  0
    5.7630   -2.2732    0.0000 O   0  0  0  0  0  0  0  0  0
    5.7630   -3.0982    0.0000 C   0  0  0  0  0  0  0  0  0
   -0.6672   -0.2107    0.0000 C   0  0  0  0  0  0  0  0  0
   -1.3817    0.2018    0.0000 C   0  0  0  0  0  0  0  0  0
   -2.0961   -0.2107    0.0000 C   0  0  0  0  0  0  0  0  0
   -2.0961   -1.0357    0.0000 C   0  0  0  0  0  0  0  0  0
   -1.3817   -1.4482    0.0000 C   0  0  0  0  0  0  0  0  0
   -0.6672   -1.0357    0.0000 C   0  0  0  0  0  0  0  0  0
   -2.8106   -1.4482    0.0000 C   0  0  0  0  0  0  0  0  0
   -3.5251   -1.0357    0.0000 C   0  0  0  0  0  0  0  0  0
   -3.5251   -0.2107    0.0000 C   0  0  0  0  0  0  0  0  0
   -2.8106    0.2018    0.0000 C   0  0  0  0  0  0  0  0  0
  1  2  2  0  0  0  0
  1  3  2  0  0  0  0
  1  4  1  0  0  0  0
  1 23  1  0  0  0  0
  4  5  1  0  0  0  0
  5  6  1  0  0  0  0
  6  7  1  0  0  0  0
  7  8  1  0  0  0  0
  8  9  1  0  0  0  0
  9 10  1  0  0  0  0
  9 14  1  0  0  0  0
 10 11  1  0  0  0  0
 11 12  1  0  0  0  0
 12 13  1  0  0  0  0
 12 15  1  0  0  0  0
 13 14  1  0  0  0  0
 15 16  4  0  0  0  0
 15 20  4  0  0  0  0
 16 17  4  0  0  0  0
 17 18  4  0  0  0  0
 18 19  4  0  0  0  0
 19 20  4  0  0  0  0
 20 21  1  0  0  0  0
 21 22  1  0  0  0  0
 23 24  4  0  0  0  0
 23 28  4  0  0  0  0
 24 25  4  0  0  0  0
 25 26  4  0  0  0  0
 25 32  4  0  0  0  0
 26 27  4  0  0  0  0
 26 29  4  0  0  0  0
 27 28  4  0  0  0  0
 29 30  4  0  0  0  0
 30 31  4  0  0  0  0
 31 32  4  0  0  0  0
M  END
>  <Name_Molregno>
687972

>  <5-HT1A>
7.21

>  <Alpha-2A>
8.39

>  <DOPAMINE D2>
7.33

$$$$
688019
  Marvin  02231216192D 0   1.00000     0.00000     0

 32 35  0  0  0  0  0  0  0  0999 V2000
   -9.8715    0.0032    0.0000 O   0  0  0  0  0  0  0  0  0
  -10.5860   -0.4093    0.0000 C   0  0  0  0  0  0  0  0  0
   -9.8715    0.8282    0.0000 C   0  0  0  0  0  0  0  0  0
  -10.5860    1.2407    0.0000 C   0  0  0  0  0  0  0  0  0
  -10.5860    2.0657    0.0000 C   0  0  0  0  0  0  0  0  0
   -9.8715    2.4782    0.0000 C   0  0  0  0  0  0  0  0  0
   -9.1570    2.0657    0.0000 C   0  0  0  0  0  0  0  0  0
   -9.1570    1.2407    0.0000 C   0  0  0  0  0  0  0  0  0
   -8.4426    0.8282    0.0000 N   0  0  0  0  0  0  0  0  0
   -7.7281    1.2407    0.0000 C   0  0  0  0  0  0  0  0  0
   -7.0136    0.8282    0.0000 C   0  0  0  0  0  0  0  0  0
   -7.0136    0.0032    0.0000 N   0  0  0  0  0  0  0  0  0
   -7.7281   -0.4093    0.0000 C   0  0  0  0  0  0  0  0  0
   -8.4426    0.0032    0.0000 C   0  0  0  0  0  0  0  0  0
   -6.2992   -0.4093    0.0000 C   0  0  0  0  0  0  0  0  0
   -5.5847    0.0032    0.0000 C   0  0  0  0  0  0  0  0  0
   -4.8702   -0.4093    0.0000 C   0  0  0  0  0  0  0  0  0
   -4.1557    0.0032    0.0000 C   0  0  0  0  0  0  0  0  0
   -3.4413   -0.4093    0.0000 C   0  0  0  0  0  0  0  0  0
   -2.7268    0.0032    0.0000 N   0  0  0  0  0  0  0  0  0
   -2.0123   -0.4093    0.0000 C   0  0  0  0  0  0  0  0  0
   -2.0123   -1.2343    0.0000 O   0  0  0  0  0  0  0  0  0
   -1.2979    0.0032    0.0000 C   0  0  0  0  0  0  0  0  0
   -0.5834   -0.4093    0.0000 C   0  0  0  0  0  0  0  0  0
    0.1311    0.0032    0.0000 C   0  0  0  0  0  0  0  0  0
    0.1311    0.8282    0.0000 C   0  0  0  0  0  0  0  0  0
   -0.5834    1.2407    0.0000 C   0  0  0  0  0  0  0  0  0
   -1.2979    0.8282    0.0000 C   0  0  0  0  0  0  0  0  0
    0.8456    1.2407    0.0000 C   0  0  0  0  0  0  0  0  0
    1.5600    0.8282    0.0000 C   0  0  0  0  0  0  0  0  0
    1.5600    0.0032    0.0000 C   0  0  0  0  0  0  0  0  0
    0.8456   -0.4093    0.0000 C   0  0  0  0  0  0  0  0  0
  1  2  1  0  0  0  0
  1  3  1  0  0  0  0
  3  4  4  0  0  0  0
  3  8  4  0  0  0  0
  4  5  4  0  0  0  0
  5  6  4  0  0  0  0
  6  7  4  0  0  0  0
  7  8  4  0  0  0  0
  8  9  1  0  0  0  0
  9 10  1  0  0  0  0
  9 14  1  0  0  0  0
 10 11  1  0  0  0  0
 11 12  1  0  0  0  0
 12 13  1  0  0  0  0
 12 15  1  0  0  0  0
 13 14  1  0  0  0  0
 15 16  1  0  0  0  0
 16 17  1  0  0  0  0
 17 18  1  0  0  0  0
 18 19  1  0  0  0  0
 19 20  1  0  0  0  0
 20 21  1  0  0  0  0
 21 22  2  0  0  0  0
 21 23  1  0  0  0  0
 23 24  4  0  0  0  0
 23 28  4  0  0  0  0
 24 25  4  0  0  0  0
 25 26  4  0  0  0  0
 25 32  4  0  0  0  0
 26 27  4  0  0  0  0
 26 29  4  0  0  0  0
 27 28  4  0  0  0  0
 29 30  4  0  0  0  0
 30 31  4  0  0  0  0
 31 32  4  0  0  0  0
M  END
>  <Name_Molregno>
688019

>  <5-HT1A>
7.27

>  <Alpha-2A>
7.95

>  <DOPAMINE D2>
6.6

$$$$
688020
  Marvin  02231216192D 0   1.00000     0.00000     0

 33 36  0  0  0  0  0  0  0  0999 V2000
   -0.0697   -0.6215    0.0000 S   0  0  0  0  0  0  0  0  0
   -0.4822    0.0930    0.0000 O   0  0  0  0  0  0  0  0  0
    0.3428   -1.3359    0.0000 O   0  0  0  0  0  0  0  0  0
    0.6448   -0.2090    0.0000 N   0  0  0  0  0  0  0  0  0
    1.3593   -0.6215    0.0000 C   0  0  0  0  0  0  0  0  0
    2.0737   -0.2090    0.0000 C   0  0  0  0  0  0  0  0  0
    2.7882   -0.6215    0.0000 C   0  0  0  0  0  0  0  0  0
    3.5027   -0.2090    0.0000 C   0  0  0  0  0  0  0  0  0
    4.2172   -0.6215    0.0000 C   0  0  0  0  0  0  0  0  0
    4.9316   -0.2090    0.0000 N   0  0  0  0  0  0  0  0  0
    4.9316    0.6160    0.0000 C   0  0  0  0  0  0  0  0  0
    5.6461    1.0285    0.0000 C   0  0  0  0  0  0  0  0  0
    6.3606    0.6160    0.0000 N   0  0  0  0  0  0  0  0  0
    6.3606   -0.2090    0.0000 C   0  0  0  0  0  0  0  0  0
    5.6461   -0.6215    0.0000 C   0  0  0  0  0  0  0  0  0
    7.0750    1.0285    0.0000 C   0  0  0  0  0  0  0  0  0
    7.0750    1.8535    0.0000 C   0  0  0  0  0  0  0  0  0
    7.7895    2.2660    0.0000 C   0  0  0  0  0  0  0  0  0
    8.5040    1.8535    0.0000 C   0  0  0  0  0  0  0  0  0
    8.5040    1.0285    0.0000 C   0  0  0  0  0  0  0  0  0
    7.7895    0.6160    0.0000 C   0  0  0  0  0  0  0  0  0
    7.7895   -0.2090    0.0000 O   0  0  0  0  0  0  0  0  0
    8.5040   -0.6215    0.0000 C   0  0  0  0  0  0  0  0  0
   -0.7841   -1.0340    0.0000 C   0  0  0  0  0  0  0  0  0
   -1.4986   -0.6215    0.0000 C   0  0  0  0  0  0  0  0  0
   -2.2131   -1.0340    0.0000 C   0  0  0  0  0  0  0  0  0
   -2.2131   -1.8590    0.0000 C   0  0  0  0  0  0  0  0  0
   -1.4986   -2.2715    0.0000 C   0  0  0  0  0  0  0  0  0
   -0.7841   -1.8590    0.0000 C   0  0  0  0  0  0  0  0  0
   -2.9276   -2.2715    0.0000 C   0  0  0  0  0  0  0  0  0
   -3.6420   -1.8590    0.0000 C   0  0  0  0  0  0  0  0  0
   -3.6420   -1.0340    0.0000 C   0  0  0  0  0  0  0  0  0
   -2.9276   -0.6215    0.0000 C   0  0  0  0  0  0  0  0  0
  1  2  2  0  0  0  0
  1  3  2  0  0  0  0
  1  4  1  0  0  0  0
  1 24  1  0  0  0  0
  4  5  1  0  0  0  0
  5  6  1  0  0  0  0
  6  7  1  0  0  0  0
  7  8  1  0  0  0  0
  8  9  1  0  0  0  0
  9 10  1  0  0  0  0
 10 11  1  0  0  0  0
 10 15  1  0  0  0  0
 11 12  1  0  0  0  0
 12 13  1  0  0  0  0
 13 14  1  0  0  0  0
 13 16  1  0  0  0  0
 14 15  1  0  0  0  0
 16 17  4  0  0  0  0
 16 21  4  0  0  0  0
 17 18  4  0  0  0  0
 18 19  4  0  0  0  0
 19 20  4  0  0  0  0
 20 21  4  0  0  0  0
 21 22  1  0  0  0  0
 22 23  1  0  0  0  0
 24 25  4  0  0  0  0
 24 29  4  0  0  0  0
 25 26  4  0  0  0  0
 26 27  4  0  0  0  0
 26 33  4  0  0  0  0
 27 28  4  0  0  0  0
 27 30  4  0  0  0  0
 28 29  4  0  0  0  0
 30 31  4  0  0  0  0
 31 32  4  0  0  0  0
 32 33  4  0  0  0  0
M  END
>  <Name_Molregno>
688020

>  <5-HT1A>
7.56

>  <Alpha-2A>
8.07

>  <DOPAMINE D2>
6.36

$$$$
688021
  Marvin  02231216192D 0   1.00000     0.00000     0

 33 36  0  0  0  0  0  0  0  0999 V2000
   -8.4947   -2.3278    0.0000 O   0  0  0  0  0  0  0  0  0
   -8.4947   -3.1528    0.0000 C   0  0  0  0  0  0  0  0  0
   -9.2092   -1.9153    0.0000 C   0  0  0  0  0  0  0  0  0
   -9.9237   -2.3278    0.0000 C   0  0  0  0  0  0  0  0  0
  -10.6382   -1.9153    0.0000 C   0  0  0  0  0  0  0  0  0
  -10.6382   -1.0903    0.0000 C   0  0  0  0  0  0  0  0  0
   -9.9237   -0.6778    0.0000 C   0  0  0  0  0  0  0  0  0
   -9.2092   -1.0903    0.0000 C   0  0  0  0  0  0  0  0  0
   -8.4947   -0.6778    0.0000 N   0  0  0  0  0  0  0  0  0
   -8.4947    0.1472    0.0000 C   0  0  0  0  0  0  0  0  0
   -7.7803    0.5597    0.0000 C   0  0  0  0  0  0  0  0  0
   -7.0658    0.1472    0.0000 N   0  0  0  0  0  0  0  0  0
   -7.0658   -0.6778    0.0000 C   0  0  0  0  0  0  0  0  0
   -7.7803   -1.0903    0.0000 C   0  0  0  0  0  0  0  0  0
   -6.3513    0.5597    0.0000 C   0  0  0  0  0  0  0  0  0
   -5.6369    0.1472    0.0000 C   0  0  0  0  0  0  0  0  0
   -4.9224    0.5597    0.0000 C   0  0  0  0  0  0  0  0  0
   -4.2079    0.1472    0.0000 C   0  0  0  0  0  0  0  0  0
   -3.4934    0.5597    0.0000 C   0  0  0  0  0  0  0  0  0
   -2.7790    0.1472    0.0000 C   0  0  0  0  0  0  0  0  0
   -2.0645    0.5597    0.0000 N   0  0  0  0  0  0  0  0  0
   -1.3500    0.1472    0.0000 C   0  0  0  0  0  0  0  0  0
   -1.3500   -0.6778    0.0000 O   0  0  0  0  0  0  0  0  0
   -0.6356    0.5597    0.0000 C   0  0  0  0  0  0  0  0  0
    0.0789    0.1472    0.0000 C   0  0  0  0  0  0  0  0  0
    0.7934    0.5597    0.0000 C   0  0  0  0  0  0  0  0  0
    0.7934    1.3847    0.0000 C   0  0  0  0  0  0  0  0  0
    0.0789    1.7972    0.0000 C   0  0  0  0  0  0  0  0  0
   -0.6356    1.3847    0.0000 C   0  0  0  0  0  0  0  0  0
    1.5078    1.7972    0.0000 C   0  0  0  0  0  0  0  0  0
    2.2223    1.3847    0.0000 C   0  0  0  0  0  0  0  0  0
    2.2223    0.5597    0.0000 C   0  0  0  0  0  0  0  0  0
    1.5078    0.1472    0.0000 C   0  0  0  0  0  0  0  0  0
  1  2  1  0  0  0  0
  1  3  1  0  0  0  0
  3  4  4  0  0  0  0
  3  8  4  0  0  0  0
  4  5  4  0  0  0  0
  5  6  4  0  0  0  0
  6  7  4  0  0  0  0
  7  8  4  0  0  0  0
  8  9  1  0  0  0  0
  9 10  1  0  0  0  0
  9 14  1  0  0  0  0
 10 11  1  0  0  0  0
 11 12  1  0  0  0  0
 12 13  1  0  0  0  0
 12 15  1  0  0  0  0
 13 14  1  0  0  0  0
 15 16  1  0  0  0  0
 16 17  1  0  0  0  0
 17 18  1  0  0  0  0
 18 19  1  0  0  0  0
 19 20  1  0  0  0  0
 20 21  1  0  0  0  0
 21 22  1  0  0  0  0
 22 23  2  0  0  0  0
 22 24  1  0  0  0  0
 24 25  4  0  0  0  0
 24 29  4  0  0  0  0
 25 26  4  0  0  0  0
 26 27  4  0  0  0  0
 26 33  4  0  0  0  0
 27 28  4  0  0  0  0
 27 30  4  0  0  0  0
 28 29  4  0  0  0  0
 30 31  4  0  0  0  0
 31 32  4  0  0  0  0
 32 33  4  0  0  0  0
M  END
>  <Name_Molregno>
688021

>  <5-HT1A>
6.99

>  <Alpha-2A>
8.21

>  <DOPAMINE D2>
6.92

$$$$
688022
  Marvin  02231216192D 0   1.00000     0.00000     0

 34 37  0  0  0  0  0  0  0  0999 V2000
   -6.0716    1.2829    0.0000 S   0  0  0  0  0  0  0  0  0
   -6.4841    1.9974    0.0000 O   0  0  0  0  0  0  0  0  0
   -5.6591    0.5685    0.0000 O   0  0  0  0  0  0  0  0  0
   -5.3572    1.6954    0.0000 N   0  0  0  0  0  0  0  0  0
   -4.6427    1.2829    0.0000 C   0  0  0  0  0  0  0  0  0
   -3.9282    1.6954    0.0000 C   0  0  0  0  0  0  0  0  0
   -3.2137    1.2829    0.0000 C   0  0  0  0  0  0  0  0  0
   -2.4993    1.6954    0.0000 C   0  0  0  0  0  0  0  0  0
   -1.7848    1.2829    0.0000 C   0  0  0  0  0  0  0  0  0
   -1.0703    1.6954    0.0000 C   0  0  0  0  0  0  0  0  0
   -0.3559    1.2829    0.0000 N   0  0  0  0  0  0  0  0  0
    0.3586    1.6954    0.0000 C   0  0  0  0  0  0  0  0  0
    1.0731    1.2829    0.0000 C   0  0  0  0  0  0  0  0  0
    1.0731    0.4579    0.0000 N   0  0  0  0  0  0  0  0  0
    0.3586    0.0454    0.0000 C   0  0  0  0  0  0  0  0  0
   -0.3559    0.4579    0.0000 C   0  0  0  0  0  0  0  0  0
    1.7876    0.0454    0.0000 C   0  0  0  0  0  0  0  0  0
    2.5020    0.4579    0.0000 C   0  0  0  0  0  0  0  0  0
    3.2165    0.0454    0.0000 C   0  0  0  0  0  0  0  0  0
    3.2165   -0.7796    0.0000 C   0  0  0  0  0  0  0  0  0
    2.5020   -1.1921    0.0000 C   0  0  0  0  0  0  0  0  0
    1.7876   -0.7796    0.0000 C   0  0  0  0  0  0  0  0  0
    1.0731   -1.1921    0.0000 O   0  0  0  0  0  0  0  0  0
    1.0731   -2.0171    0.0000 C   0  0  0  0  0  0  0  0  0
   -6.7861    0.8704    0.0000 C   0  0  0  0  0  0  0  0  0
   -7.5006    1.2829    0.0000 C   0  0  0  0  0  0  0  0  0
   -8.2150    0.8704    0.0000 C   0  0  0  0  0  0  0  0  0
   -8.2150    0.0454    0.0000 C   0  0  0  0  0  0  0  0  0
   -7.5006   -0.3671    0.0000 C   0  0  0  0  0  0  0  0  0
   -6.7861    0.0454    0.0000 C   0  0  0  0  0  0  0  0  0
   -8.9295   -0.3671    0.0000 C   0  0  0  0  0  0  0  0  0
   -9.6440    0.0454    0.0000 C   0  0  0  0  0  0  0  0  0
   -9.6440    0.8704    0.0000 C   0  0  0  0  0  0  0  0  0
   -8.9295    1.2829    0.0000 C   0  0  0  0  0  0  0  0  0
  1  2  2  0  0  0  0
  1  3  2  0  0  0  0
  1  4  1  0  0  0  0
  1 25  1  0  0  0  0
  4  5  1  0  0  0  0
  5  6  1  0  0  0  0
  6  7  1  0  0  0  0
  7  8  1  0  0  0  0
  8  9  1  0  0  0  0
  9 10  1  0  0  0  0
 10 11  1  0  0  0  0
 11 12  1  0  0  0  0
 11 16  1  0  0  0  0
 12 13  1  0  0  0  0
 13 14  1  0  0  0  0
 14 15  1  0  0  0  0
 14 17  1  0  0  0  0
 15 16  1  0  0  0  0
 17 18  4  0  0  0  0
 17 22  4  0  0  0  0
 18 19  4  0  0  0  0
 19 20  4  0  0  0  0
 20 21  4  0  0  0  0
 21 22  4  0  0  0  0
 22 23  1  0  0  0  0
 23 24  1  0  0  0  0
 25 26  4  0  0  0  0
 25 30  4  0  0  0  0
 26 27  4  0  0  0  0
 27 28  4  0  0  0  0
 27 34  4  0  0  0  0
 28 29  4  0  0  0  0
 28 31  4  0  0  0  0
 29 30  4  0  0  0  0
 31 32  4  0  0  0  0
 32 33  4  0  0  0  0
 33 34  4  0  0  0  0
M  END
>  <Name_Molregno>
688022

>  <5-HT1A>
8.02

>  <Alpha-2A>
8.54

>  <DOPAMINE D2>
7

$$$$
(4-((6,7-dimethoxy-3,4-dihydroisoquinolin-2(1H)-yl)methyl)-7-methoxybenzofuran-2
  Marvin  02231216192D 0   1.00000     0.00000     0

 39 44  0  0  0  0  0  0  0  0999 V2000
   -2.4794   -0.5328    0.0000 O   0  0  0  0  0  0  0  0  0
   -1.6948   -0.2778    0.0000 C   0  0  0  0  0  0  0  0  0
   -1.6948    0.5472    0.0000 C   0  0  0  0  0  0  0  0  0
   -2.4794    0.8021    0.0000 C   0  0  0  0  0  0  0  0  0
   -2.9643    0.1347    0.0000 C   0  0  0  0  0  0  0  0  0
   -3.7893    0.1347    0.0000 C   0  0  0  0  0  0  0  0  0
   -4.2018    0.8491    0.0000 O   0  0  0  0  0  0  0  0  0
   -4.2018   -0.5798    0.0000 N   0  0  0  0  0  0  0  0  0
   -3.7893   -1.2943    0.0000 C   0  0  0  0  0  0  0  0  0
   -4.2018   -2.0087    0.0000 C   0  0  0  0  0  0  0  0  0
   -5.0268   -2.0087    0.0000 C   0  0  0  0  0  0  0  0  0
   -5.4393   -2.7232    0.0000 N   0  0  0  0  0  0  0  0  0
   -5.1038   -3.4769    0.0000 C   0  0  0  0  0  0  0  0  0
   -5.7169   -4.0289    0.0000 C   0  0  0  0  0  0  0  0  0
   -6.4313   -3.6164    0.0000 C   0  0  0  0  0  0  0  0  0
   -6.2598   -2.8094    0.0000 C   0  0  0  0  0  0  0  0  0
   -5.4393   -1.2943    0.0000 C   0  0  0  0  0  0  0  0  0
   -5.0268   -0.5798    0.0000 C   0  0  0  0  0  0  0  0  0
   -0.9803    0.9597    0.0000 C   0  0  0  0  0  0  0  0  0
   -0.2658    0.5472    0.0000 C   0  0  0  0  0  0  0  0  0
   -0.2658   -0.2778    0.0000 C   0  0  0  0  0  0  0  0  0
   -0.9803   -0.6903    0.0000 C   0  0  0  0  0  0  0  0  0
   -0.9803   -1.5153    0.0000 O   0  0  0  0  0  0  0  0  0
   -0.2658   -1.9278    0.0000 C   0  0  0  0  0  0  0  0  0
   -0.9803    1.7847    0.0000 C   0  0  0  0  0  0  0  0  0
   -0.2658    2.1972    0.0000 N   0  0  0  0  0  0  0  0  0
   -0.2658    3.0222    0.0000 C   0  0  0  0  0  0  0  0  0
    0.4486    3.4347    0.0000 C   0  0  0  0  0  0  0  0  0
    1.1631    3.0222    0.0000 C   0  0  0  0  0  0  0  0  0
    1.8776    3.4347    0.0000 C   0  0  0  0  0  0  0  0  0
    2.5921    3.0222    0.0000 C   0  0  0  0  0  0  0  0  0
    3.3065    3.4347    0.0000 O   0  0  0  0  0  0  0  0  0
    3.3065    4.2597    0.0000 C   0  0  0  0  0  0  0  0  0
    2.5921    2.1972    0.0000 C   0  0  0  0  0  0  0  0  0
    3.3065    1.7847    0.0000 O   0  0  0  0  0  0  0  0  0
    3.3065    0.9597    0.0000 C   0  0  0  0  0  0  0  0  0
    1.8776    1.7847    0.0000 C   0  0  0  0  0  0  0  0  0
    1.1631    2.1972    0.0000 C   0  0  0  0  0  0  0  0  0
    0.4486    1.7847    0.0000 C   0  0  0  0  0  0  0  0  0
  1  2  4  0  0  0  0
  1  5  4  0  0  0  0
  2  3  4  0  0  0  0
  2 22  4  0  0  0  0
  3  4  4  0  0  0  0
  3 19  4  0  0  0  0
  4  5  4  0  0  0  0
  5  6  1  0  0  0  0
  6  7  2  0  0  0  0
  6  8  1  0  0  0  0
  8  9  1  0  0  0  0
  8 18  1  0  0  0  0
  9 10  1  0  0  0  0
 10 11  1  0  0  0  0
 11 12  1  0  0  0  0
 11 17  1  0  0  0  0
 12 13  1  0  0  0  0
 12 16  1  0  0  0  0
 13 14  1  0  0  0  0
 14 15  1  0  0  0  0
 15 16  1  0  0  0  0
 17 18  1  0  0  0  0
 19 20  4  0  0  0  0
 19 25  1  0  0  0  0
 20 21  4  0  0  0  0
 21 22  4  0  0  0  0
 22 23  1  0  0  0  0
 23 24  1  0  0  0  0
 25 26  1  0  0  0  0
 26 27  1  0  0  0  0
 26 39  1  0  0  0  0
 27 28  1  0  0  0  0
 28 29  1  0  0  0  0
 29 30  4  0  0  0  0
 29 38  4  0  0  0  0
 30 31  4  0  0  0  0
 31 32  1  0  0  0  0
 31 34  4  0  0  0  0
 32 33  1  0  0  0  0
 34 35  1  0  0  0  0
 34 37  4  0  0  0  0
 35 36  1  0  0  0  0
 37 38  4  0  0  0  0
 38 39  1  0  0  0  0
M  END
>  <Name_Molregno>
(4-((6,7-dimethoxy-3,4-dihydroisoquinolin-2(1H)-yl)methyl)-7-methoxybenzofuran-2-yl)(4-(pyrrolidin-1-yl)piperidin-1-yl)methanone

>  <Alpha-2A>
6.73

>  <Alpha-2B>
5.87

>  <Alpha-2C>
8.46

$$$$
2-((2-(2-fluorophenyl)-7-methoxybenzofuran-4-yl)methyl)-6,7-dimethoxy-1,2,3,4-te
  Marvin  02231216192D 0   1.00000     0.00000     0

 33 37  0  0  0  0  0  0  0  0999 V2000
    0.8003   -2.6578    0.0000 F   0  0  0  0  0  0  0  0  0
    0.3878   -1.9433    0.0000 C   0  0  0  0  0  0  0  0  0
   -0.4372   -1.9433    0.0000 C   0  0  0  0  0  0  0  0  0
   -0.8497   -1.2288    0.0000 C   0  0  0  0  0  0  0  0  0
   -0.4372   -0.5144    0.0000 C   0  0  0  0  0  0  0  0  0
    0.3878   -0.5144    0.0000 C   0  0  0  0  0  0  0  0  0
    0.8003   -1.2288    0.0000 C   0  0  0  0  0  0  0  0  0
    1.6253   -1.2288    0.0000 C   0  0  0  0  0  0  0  0  0
    2.1102   -1.8963    0.0000 O   0  0  0  0  0  0  0  0  0
    2.8948   -1.6413    0.0000 C   0  0  0  0  0  0  0  0  0
    2.8948   -0.8163    0.0000 C   0  0  0  0  0  0  0  0  0
    2.1102   -0.5614    0.0000 C   0  0  0  0  0  0  0  0  0
    3.6093   -0.4038    0.0000 C   0  0  0  0  0  0  0  0  0
    4.3238   -0.8163    0.0000 C   0  0  0  0  0  0  0  0  0
    4.3238   -1.6413    0.0000 C   0  0  0  0  0  0  0  0  0
    3.6093   -2.0538    0.0000 C   0  0  0  0  0  0  0  0  0
    3.6093   -2.8788    0.0000 O   0  0  0  0  0  0  0  0  0
    4.3238   -3.2913    0.0000 C   0  0  0  0  0  0  0  0  0
    3.6093    0.4212    0.0000 C   0  0  0  0  0  0  0  0  0
    4.3238    0.8337    0.0000 N   0  0  0  0  0  0  0  0  0
    4.3238    1.6587    0.0000 C   0  0  0  0  0  0  0  0  0
    5.0382    2.0712    0.0000 C   0  0  0  0  0  0  0  0  0
    5.7527    1.6587    0.0000 C   0  0  0  0  0  0  0  0  0
    6.4672    2.0712    0.0000 C   0  0  0  0  0  0  0  0  0
    7.1816    1.6587    0.0000 C   0  0  0  0  0  0  0  0  0
    7.8961    2.0712    0.0000 O   0  0  0  0  0  0  0  0  0
    7.8961    2.8962    0.0000 C   0  0  0  0  0  0  0  0  0
    7.1816    0.8337    0.0000 C   0  0  0  0  0  0  0  0  0
    7.8961    0.4212    0.0000 O   0  0  0  0  0  0  0  0  0
    7.8961   -0.4038    0.0000 C   0  0  0  0  0  0  0  0  0
    6.4672    0.4212    0.0000 C   0  0  0  0  0  0  0  0  0
    5.7527    0.8337    0.0000 C   0  0  0  0  0  0  0  0  0
    5.0382    0.4212    0.0000 C   0  0  0  0  0  0  0  0  0
  1  2  1  0  0  0  0
  2  3  4  0  0  0  0
  2  7  4  0  0  0  0
  3  4  4  0  0  0  0
  4  5  4  0  0  0  0
  5  6  4  0  0  0  0
  6  7  4  0  0  0  0
  7  8  1  0  0  0  0
  8  9  4  0  0  0  0
  8 12  4  0  0  0  0
  9 10  4  0  0  0  0
 10 11  4  0  0  0  0
 10 16  4  0  0  0  0
 11 12  4  0  0  0  0
 11 13  4  0  0  0  0
 13 14  4  0  0  0  0
 13 19  1  0  0  0  0
 14 15  4  0  0  0  0
 15 16  4  0  0  0  0
 16 17  1  0  0  0  0
 17 18  1  0  0  0  0
 19 20  1  0  0  0  0
 20 21  1  0  0  0  0
 20 33  1  0  0  0  0
 21 22  1  0  0  0  0
 22 23  1  0  0  0  0
 23 24  4  0  0  0  0
 23 32  4  0  0  0  0
 24 25  4  0  0  0  0
 25 26  1  0  0  0  0
 25 28  4  0  0  0  0
 26 27  1  0  0  0  0
 28 29  1  0  0  0  0
 28 31  4  0  0  0  0
 29 30  1  0  0  0  0
 31 32  4  0  0  0  0
 32 33  1  0  0  0  0
M  END
>  <Name_Molregno>
2-((2-(2-fluorophenyl)-7-methoxybenzofuran-4-yl)methyl)-6,7-dimethoxy-1,2,3,4-tetrahydroisoquinoline

>  <Alpha-2A>
6.07

>  <Alpha-2B>
6.52

>  <Alpha-2C>
7.96

$$$$
2-((2-(furan-2-yl)-7-methoxybenzofuran-4-yl)methyl)-6,7-dimethoxy-1,2,3,4-tetrah
  Marvin  02231216192D 0   1.00000     0.00000     0

 31 35  0  0  0  0  0  0  0  0999 V2000
    0.7194   -1.8176    0.0000 O   0  0  0  0  0  0  0  0  0
    1.5041   -1.5626    0.0000 C   0  0  0  0  0  0  0  0  0
    1.5041   -0.7376    0.0000 C   0  0  0  0  0  0  0  0  0
    0.7194   -0.4827    0.0000 C   0  0  0  0  0  0  0  0  0
    0.2345   -1.1501    0.0000 C   0  0  0  0  0  0  0  0  0
   -0.5905   -1.1501    0.0000 C   0  0  0  0  0  0  0  0  0
   -1.0754   -1.8176    0.0000 O   0  0  0  0  0  0  0  0  0
   -1.8600   -1.5626    0.0000 C   0  0  0  0  0  0  0  0  0
   -1.8600   -0.7376    0.0000 C   0  0  0  0  0  0  0  0  0
   -1.0754   -0.4827    0.0000 C   0  0  0  0  0  0  0  0  0
    2.2185   -0.3251    0.0000 C   0  0  0  0  0  0  0  0  0
    2.9330   -0.7376    0.0000 C   0  0  0  0  0  0  0  0  0
    2.9330   -1.5626    0.0000 C   0  0  0  0  0  0  0  0  0
    2.2185   -1.9751    0.0000 C   0  0  0  0  0  0  0  0  0
    2.2185   -2.8001    0.0000 O   0  0  0  0  0  0  0  0  0
    2.9330   -3.2126    0.0000 C   0  0  0  0  0  0  0  0  0
    2.2185    0.4999    0.0000 C   0  0  0  0  0  0  0  0  0
    2.9330    0.9124    0.0000 N   0  0  0  0  0  0  0  0  0
    2.9330    1.7374    0.0000 C   0  0  0  0  0  0  0  0  0
    3.6475    2.1499    0.0000 C   0  0  0  0  0  0  0  0  0
    4.3619    1.7374    0.0000 C   0  0  0  0  0  0  0  0  0
    5.0764    2.1499    0.0000 C   0  0  0  0  0  0  0  0  0
    5.7909    1.7374    0.0000 C   0  0  0  0  0  0  0  0  0
    6.5054    2.1499    0.0000 O   0  0  0  0  0  0  0  0  0
    6.5054    2.9749    0.0000 C   0  0  0  0  0  0  0  0  0
    5.7909    0.9124    0.0000 C   0  0  0  0  0  0  0  0  0
    6.5054    0.4999    0.0000 O   0  0  0  0  0  0  0  0  0
    6.5054   -0.3251    0.0000 C   0  0  0  0  0  0  0  0  0
    5.0764    0.4999    0.0000 C   0  0  0  0  0  0  0  0  0
    4.3619    0.9124    0.0000 C   0  0  0  0  0  0  0  0  0
    3.6475    0.4999    0.0000 C   0  0  0  0  0  0  0  0  0
  1  2  4  0  0  0  0
  1  5  4  0  0  0  0
  2  3  4  0  0  0  0
  2 14  4  0  0  0  0
  3  4  4  0  0  0  0
  3 11  4  0  0  0  0
  4  5  4  0  0  0  0
  5  6  1  0  0  0  0
  6  7  4  0  0  0  0
  6 10  4  0  0  0  0
  7  8  4  0  0  0  0
  8  9  4  0  0  0  0
  9 10  4  0  0  0  0
 11 12  4  0  0  0  0
 11 17  1  0  0  0  0
 12 13  4  0  0  0  0
 13 14  4  0  0  0  0
 14 15  1  0  0  0  0
 15 16  1  0  0  0  0
 17 18  1  0  0  0  0
 18 19  1  0  0  0  0
 18 31  1  0  0  0  0
 19 20  1  0  0  0  0
 20 21  1  0  0  0  0
 21 22  4  0  0  0  0
 21 30  4  0  0  0  0
 22 23  4  0  0  0  0
 23 24  1  0  0  0  0
 23 26  4  0  0  0  0
 24 25  1  0  0  0  0
 26 27  1  0  0  0  0
 26 29  4  0  0  0  0
 27 28  1  0  0  0  0
 29 30  4  0  0  0  0
 30 31  1  0  0  0  0
M  END
>  <Name_Molregno>
2-((2-(furan-2-yl)-7-methoxybenzofuran-4-yl)methyl)-6,7-dimethoxy-1,2,3,4-tetrahydroisoquinoline

>  <Alpha-2A>
6.69

>  <Alpha-2B>
6.8

>  <Alpha-2C>
8.1

$$$$
3-(4-((6,7-dimethoxy-3,4-dihydroisoquinolin-2(1H)-yl)methyl)-7-methoxybenzofuran
  Marvin  02231216192D 0   1.00000     0.00000     0

 40 44  0  0  0  0  0  0  0  0999 V2000
   -1.9949    0.8599    0.0000 O   0  0  0  0  0  0  0  0  0
   -1.2102    1.1148    0.0000 C   0  0  0  0  0  0  0  0  0
   -1.2102    1.9398    0.0000 C   0  0  0  0  0  0  0  0  0
   -1.9949    2.1947    0.0000 C   0  0  0  0  0  0  0  0  0
   -2.4798    1.5273    0.0000 C   0  0  0  0  0  0  0  0  0
   -3.3048    1.5273    0.0000 C   0  0  0  0  0  0  0  0  0
   -3.7173    0.8128    0.0000 C   0  0  0  0  0  0  0  0  0
   -4.5423    0.8128    0.0000 C   0  0  0  0  0  0  0  0  0
   -4.9548    1.5273    0.0000 C   0  0  0  0  0  0  0  0  0
   -4.5423    2.2418    0.0000 C   0  0  0  0  0  0  0  0  0
   -3.7173    2.2418    0.0000 C   0  0  0  0  0  0  0  0  0
   -4.9548    0.0984    0.0000 C   0  0  0  0  0  0  0  0  0
   -4.5423   -0.6161    0.0000 O   0  0  0  0  0  0  0  0  0
   -5.7798    0.0984    0.0000 N   0  0  0  0  0  0  0  0  0
   -6.1923   -0.6161    0.0000 C   0  0  0  0  0  0  0  0  0
   -7.0173   -0.6161    0.0000 C   0  0  0  0  0  0  0  0  0
   -7.4298   -1.3306    0.0000 N   0  0  0  0  0  0  0  0  0
   -8.2548   -1.3306    0.0000 C   0  0  0  0  0  0  0  0  0
   -7.0173   -2.0451    0.0000 C   0  0  0  0  0  0  0  0  0
   -0.4958    2.3523    0.0000 C   0  0  0  0  0  0  0  0  0
    0.2187    1.9398    0.0000 C   0  0  0  0  0  0  0  0  0
    0.2187    1.1148    0.0000 C   0  0  0  0  0  0  0  0  0
   -0.4958    0.7023    0.0000 C   0  0  0  0  0  0  0  0  0
   -0.4958   -0.1227    0.0000 O   0  0  0  0  0  0  0  0  0
    0.2187   -0.5352    0.0000 C   0  0  0  0  0  0  0  0  0
   -0.4958    3.1773    0.0000 C   0  0  0  0  0  0  0  0  0
    0.2187    3.5898    0.0000 N   0  0  0  0  0  0  0  0  0
    0.2187    4.4148    0.0000 C   0  0  0  0  0  0  0  0  0
    0.9332    4.8273    0.0000 C   0  0  0  0  0  0  0  0  0
    1.6476    4.4148    0.0000 C   0  0  0  0  0  0  0  0  0
    2.3621    4.8273    0.0000 C   0  0  0  0  0  0  0  0  0
    3.0766    4.4148    0.0000 C   0  0  0  0  0  0  0  0  0
    3.7911    4.8273    0.0000 O   0  0  0  0  0  0  0  0  0
    3.7911    5.6523    0.0000 C   0  0  0  0  0  0  0  0  0
    3.0766    3.5898    0.0000 C   0  0  0  0  0  0  0  0  0
    3.7911    3.1773    0.0000 O   0  0  0  0  0  0  0  0  0
    3.7911    2.3523    0.0000 C   0  0  0  0  0  0  0  0  0
    2.3621    3.1773    0.0000 C   0  0  0  0  0  0  0  0  0
    1.6476    3.5898    0.0000 C   0  0  0  0  0  0  0  0  0
    0.9332    3.1773    0.0000 C   0  0  0  0  0  0  0  0  0
  1  2  4  0  0  0  0
  1  5  4  0  0  0  0
  2  3  4  0  0  0  0
  2 23  4  0  0  0  0
  3  4  4  0  0  0  0
  3 20  4  0  0  0  0
  4  5  4  0  0  0  0
  5  6  1  0  0  0  0
  6  7  4  0  0  0  0
  6 11  4  0  0  0  0
  7  8  4  0  0  0  0
  8  9  4  0  0  0  0
  8 12  1  0  0  0  0
  9 10  4  0  0  0  0
 10 11  4  0  0  0  0
 12 13  2  0  0  0  0
 12 14  1  0  0  0  0
 14 15  1  0  0  0  0
 15 16  1  0  0  0  0
 16 17  1  0  0  0  0
 17 18  1  0  0  0  0
 17 19  1  0  0  0  0
 20 21  4  0  0  0  0
 20 26  1  0  0  0  0
 21 22  4  0  0  0  0
 22 23  4  0  0  0  0
 23 24  1  0  0  0  0
 24 25  1  0  0  0  0
 26 27  1  0  0  0  0
 27 28  1  0  0  0  0
 27 40  1  0  0  0  0
 28 29  1  0  0  0  0
 29 30  1  0  0  0  0
 30 31  4  0  0  0  0
 30 39  4  0  0  0  0
 31 32  4  0  0  0  0
 32 33  1  0  0  0  0
 32 35  4  0  0  0  0
 33 34  1  0  0  0  0
 35 36  1  0  0  0  0
 35 38  4  0  0  0  0
 36 37  1  0  0  0  0
 38 39  4  0  0  0  0
 39 40  1  0  0  0  0
M  END
>  <Name_Molregno>
3-(4-((6,7-dimethoxy-3,4-dihydroisoquinolin-2(1H)-yl)methyl)-7-methoxybenzofuran-2-yl)-N-(2-(dimethylamino)ethyl)benzamide

>  <Alpha-2A>
6.67

>  <Alpha-2B>
6.23

>  <Alpha-2C>
8.03

$$$$
4-((6,7-dimethoxy-3,4-dihydroisoquinolin-2(1H)-yl)methyl)-7-methoxy-N-(quinuclid
  Marvin  02231216192D 0   1.00000     0.00000     0

 37 42  0  0  1  0  0  0  0  0999 V2000
   -0.2062   -0.2138    0.0000 O   0  0  0  0  0  0  0  0  0
   -0.8193    0.3382    0.0000 C   0  0  0  0  0  0  0  0  0
   -1.5338   -0.0743    0.0000 C   0  0  0  0  0  0  0  0  0
   -1.3622   -0.8813    0.0000 C   0  0  0  0  0  0  0  0  0
   -0.5417   -0.9675    0.0000 C   0  0  0  0  0  0  0  0  0
   -0.1292   -1.6820    0.0000 C   0  0  0  0  0  0  0  0  0
   -0.5417   -2.3964    0.0000 O   0  0  0  0  0  0  0  0  0
    0.6958   -1.6820    0.0000 N   0  0  0  0  0  0  0  0  0
    1.1083   -2.3964    0.0000 C   0  0  0  0  0  0  0  0  0
    1.9788   -2.5067    0.0000 C   0  0  0  0  0  0  0  0  0
    2.4423   -3.1708    0.0000 C   0  0  0  0  0  0  0  0  0
    2.1820   -3.9040    0.0000 C   0  0  0  0  0  0  0  0  0
    1.7174   -3.2223    0.0000 N   0  0  0  0  0  0  0  0  0
    0.8128   -3.0999    0.0000 C   0  0  0  0  0  0  0  0  0
    2.3700   -2.4024    0.0000 C   0  0  0  0  0  0  0  0  0
    2.4708   -1.7568    0.0000 C   0  0  0  0  0  0  0  0  0
   -2.2482    0.3382    0.0000 C   0  0  0  0  0  0  0  0  0
   -2.2482    1.1632    0.0000 C   0  0  0  0  0  0  0  0  0
   -1.5338    1.5757    0.0000 C   0  0  0  0  0  0  0  0  0
   -0.8193    1.1632    0.0000 C   0  0  0  0  0  0  0  0  0
   -0.1048    1.5757    0.0000 O   0  0  0  0  0  0  0  0  0
   -0.1048    2.4007    0.0000 C   0  0  0  0  0  0  0  0  0
   -2.9627   -0.0743    0.0000 C   0  0  0  0  0  0  0  0  0
   -3.6772    0.3382    0.0000 N   0  0  0  0  0  0  0  0  0
   -4.3916   -0.0743    0.0000 C   0  0  0  0  0  0  0  0  0
   -5.1061    0.3382    0.0000 C   0  0  0  0  0  0  0  0  0
   -5.1061    1.1632    0.0000 C   0  0  0  0  0  0  0  0  0
   -5.8206    1.5757    0.0000 C   0  0  0  0  0  0  0  0  0
   -5.8206    2.4007    0.0000 C   0  0  0  0  0  0  0  0  0
   -6.5351    2.8132    0.0000 O   0  0  0  0  0  0  0  0  0
   -7.2495    2.4007    0.0000 C   0  0  0  0  0  0  0  0  0
   -5.1061    2.8132    0.0000 C   0  0  0  0  0  0  0  0  0
   -5.1061    3.6382    0.0000 O   0  0  0  0  0  0  0  0  0
   -4.3916    4.0507    0.0000 C   0  0  0  0  0  0  0  0  0
   -4.3916    2.4007    0.0000 C   0  0  0  0  0  0  0  0  0
   -4.3916    1.5757    0.0000 C   0  0  0  0  0  0  0  0  0
   -3.6772    1.1632    0.0000 C   0  0  0  0  0  0  0  0  0
  1  2  4  0  0  0  0
  1  5  4  0  0  0  0
  2  3  4  0  0  0  0
  2 20  4  0  0  0  0
  3  4  4  0  0  0  0
  3 17  4  0  0  0  0
  4  5  4  0  0  0  0
  5  6  1  0  0  0  0
  6  7  2  0  0  0  0
  6  8  1  0  0  0  0
  8  9  1  0  0  0  0
  9 10  1  0  0  0  0
  9 14  1  0  0  0  0
 10 11  1  0  0  0  0
 10 16  1  0  0  0  0
 11 12  1  0  0  0  0
 12 13  1  0  0  0  0
 13 14  1  0  0  0  0
 13 15  1  0  0  0  0
 15 16  1  0  0  0  0
 17 18  4  0  0  0  0
 17 23  1  0  0  0  0
 18 19  4  0  0  0  0
 19 20  4  0  0  0  0
 20 21  1  0  0  0  0
 21 22  1  0  0  0  0
 23 24  1  0  0  0  0
 24 25  1  0  0  0  0
 24 37  1  0  0  0  0
 25 26  1  0  0  0  0
 26 27  1  0  0  0  0
 27 28  4  0  0  0  0
 27 36  4  0  0  0  0
 28 29  4  0  0  0  0
 29 30  1  0  0  0  0
 29 32  4  0  0  0  0
 30 31  1  0  0  0  0
 32 33  1  0  0  0  0
 32 35  4  0  0  0  0
 33 34  1  0  0  0  0
 35 36  4  0  0  0  0
 36 37  1  0  0  0  0
M  END
>  <Name_Molregno>
4-((6,7-dimethoxy-3,4-dihydroisoquinolin-2(1H)-yl)methyl)-7-methoxy-N-(quinuclidin-3-yl)benzofuran-2-carboxamide

>  <Alpha-2A>
7.38

>  <Alpha-2B>
6.07

>  <Alpha-2C>
9.1

$$$$
4-((6,7-dimethoxy-3,4-dihydroisoquinolin-2(1H)-yl)methyl)-N-(2-(dimethylamino)et
  Marvin  02231216192D 0   1.00000     0.00000     0

 34 37  0  0  0  0  0  0  0  0999 V2000
   -0.0444    1.9628    0.0000 O   0  0  0  0  0  0  0  0  0
   -0.8513    2.1343    0.0000 C   0  0  0  0  0  0  0  0  0
   -1.2638    1.4198    0.0000 C   0  0  0  0  0  0  0  0  0
   -0.7118    0.8067    0.0000 C   0  0  0  0  0  0  0  0  0
    0.0419    1.1423    0.0000 C   0  0  0  0  0  0  0  0  0
    0.7563    0.7298    0.0000 C   0  0  0  0  0  0  0  0  0
    0.7563   -0.0952    0.0000 O   0  0  0  0  0  0  0  0  0
    1.4708    1.1423    0.0000 N   0  0  0  0  0  0  0  0  0
    2.1853    0.7298    0.0000 C   0  0  0  0  0  0  0  0  0
    2.8998    1.1423    0.0000 C   0  0  0  0  0  0  0  0  0
    3.6142    0.7298    0.0000 N   0  0  0  0  0  0  0  0  0
    4.3287    1.1423    0.0000 C   0  0  0  0  0  0  0  0  0
    3.6142   -0.0952    0.0000 C   0  0  0  0  0  0  0  0  0
   -2.0888    1.4198    0.0000 C   0  0  0  0  0  0  0  0  0
   -2.5013    2.1343    0.0000 C   0  0  0  0  0  0  0  0  0
   -2.0888    2.8488    0.0000 C   0  0  0  0  0  0  0  0  0
   -1.2638    2.8488    0.0000 C   0  0  0  0  0  0  0  0  0
   -0.8513    3.5632    0.0000 O   0  0  0  0  0  0  0  0  0
   -1.2638    4.2777    0.0000 C   0  0  0  0  0  0  0  0  0
   -2.5013    0.7053    0.0000 C   0  0  0  0  0  0  0  0  0
   -3.3263    0.7053    0.0000 N   0  0  0  0  0  0  0  0  0
   -3.7388   -0.0091    0.0000 C   0  0  0  0  0  0  0  0  0
   -4.5638   -0.0091    0.0000 C   0  0  0  0  0  0  0  0  0
   -4.9763    0.7053    0.0000 C   0  0  0  0  0  0  0  0  0
   -5.8013    0.7053    0.0000 C   0  0  0  0  0  0  0  0  0
   -6.2138    1.4198    0.0000 C   0  0  0  0  0  0  0  0  0
   -7.0388    1.4198    0.0000 O   0  0  0  0  0  0  0  0  0
   -7.4513    0.7053    0.0000 C   0  0  0  0  0  0  0  0  0
   -5.8013    2.1343    0.0000 C   0  0  0  0  0  0  0  0  0
   -6.2138    2.8488    0.0000 O   0  0  0  0  0  0  0  0  0
   -5.8013    3.5632    0.0000 C   0  0  0  0  0  0  0  0  0
   -4.9763    2.1343    0.0000 C   0  0  0  0  0  0  0  0  0
   -4.5638    1.4198    0.0000 C   0  0  0  0  0  0  0  0  0
   -3.7388    1.4198    0.0000 C   0  0  0  0  0  0  0  0  0
  1  2  4  0  0  0  0
  1  5  4  0  0  0  0
  2  3  4  0  0  0  0
  2 17  4  0  0  0  0
  3  4  4  0  0  0  0
  3 14  4  0  0  0  0
  4  5  4  0  0  0  0
  5  6  1  0  0  0  0
  6  7  2  0  0  0  0
  6  8  1  0  0  0  0
  8  9  1  0  0  0  0
  9 10  1  0  0  0  0
 10 11  1  0  0  0  0
 11 12  1  0  0  0  0
 11 13  1  0  0  0  0
 14 15  4  0  0  0  0
 14 20  1  0  0  0  0
 15 16  4  0  0  0  0
 16 17  4  0  0  0  0
 17 18  1  0  0  0  0
 18 19  1  0  0  0  0
 20 21  1  0  0  0  0
 21 22  1  0  0  0  0
 21 34  1  0  0  0  0
 22 23  1  0  0  0  0
 23 24  1  0  0  0  0
 24 25  4  0  0  0  0
 24 33  4  0  0  0  0
 25 26  4  0  0  0  0
 26 27  1  0  0  0  0
 26 29  4  0  0  0  0
 27 28  1  0  0  0  0
 29 30  1  0  0  0  0
 29 32  4  0  0  0  0
 30 31  1  0  0  0  0
 32 33  4  0  0  0  0
 33 34  1  0  0  0  0
M  END
>  <Name_Molregno>
4-((6,7-dimethoxy-3,4-dihydroisoquinolin-2(1H)-yl)methyl)-N-(2-(dimethylamino)ethyl)-7-methoxybenzofuran-2-carboxamide

>  <Alpha-2A>
6.34

>  <Alpha-2B>
5.68

>  <Alpha-2C>
8.03

$$$$
6,7-dimethoxy-2-((7-methoxy-2-(2-(trifluoromethyl)phenyl)benzofuran-4-yl)methyl)
  Marvin  02231216192D 0   1.00000     0.00000     0

 36 40  0  0  0  0  0  0  0  0999 V2000
    1.8244   -1.9647    0.0000 F   0  0  0  0  0  0  0  0  0
    1.4119   -1.2502    0.0000 C   0  0  0  0  0  0  0  0  0
    2.1263   -0.8377    0.0000 F   0  0  0  0  0  0  0  0  0
    0.6974   -1.6627    0.0000 F   0  0  0  0  0  0  0  0  0
    0.9994   -0.5358    0.0000 C   0  0  0  0  0  0  0  0  0
    0.1744   -0.5358    0.0000 C   0  0  0  0  0  0  0  0  0
   -0.2381    0.1787    0.0000 C   0  0  0  0  0  0  0  0  0
    0.1744    0.8932    0.0000 C   0  0  0  0  0  0  0  0  0
    0.9994    0.8932    0.0000 C   0  0  0  0  0  0  0  0  0
    1.4119    0.1787    0.0000 C   0  0  0  0  0  0  0  0  0
    2.2369    0.1787    0.0000 C   0  0  0  0  0  0  0  0  0
    2.7218   -0.4887    0.0000 O   0  0  0  0  0  0  0  0  0
    3.5064   -0.2338    0.0000 C   0  0  0  0  0  0  0  0  0
    3.5064    0.5912    0.0000 C   0  0  0  0  0  0  0  0  0
    2.7218    0.8461    0.0000 C   0  0  0  0  0  0  0  0  0
    4.2209    1.0037    0.0000 C   0  0  0  0  0  0  0  0  0
    4.9353    0.5912    0.0000 C   0  0  0  0  0  0  0  0  0
    4.9353   -0.2338    0.0000 C   0  0  0  0  0  0  0  0  0
    4.2209   -0.6463    0.0000 C   0  0  0  0  0  0  0  0  0
    4.2209   -1.4713    0.0000 O   0  0  0  0  0  0  0  0  0
    4.9353   -1.8838    0.0000 C   0  0  0  0  0  0  0  0  0
    4.2209    1.8287    0.0000 C   0  0  0  0  0  0  0  0  0
    4.9353    2.2412    0.0000 N   0  0  0  0  0  0  0  0  0
    4.9353    3.0662    0.0000 C   0  0  0  0  0  0  0  0  0
    5.6498    3.4787    0.0000 C   0  0  0  0  0  0  0  0  0
    6.3643    3.0662    0.0000 C   0  0  0  0  0  0  0  0  0
    7.0788    3.4787    0.0000 C   0  0  0  0  0  0  0  0  0
    7.7932    3.0662    0.0000 C   0  0  0  0  0  0  0  0  0
    8.5077    3.4787    0.0000 O   0  0  0  0  0  0  0  0  0
    8.5077    4.3037    0.0000 C   0  0  0  0  0  0  0  0  0
    7.7932    2.2412    0.0000 C   0  0  0  0  0  0  0  0  0
    8.5077    1.8287    0.0000 O   0  0  0  0  0  0  0  0  0
    8.5077    1.0037    0.0000 C   0  0  0  0  0  0  0  0  0
    7.0788    1.8287    0.0000 C   0  0  0  0  0  0  0  0  0
    6.3643    2.2412    0.0000 C   0  0  0  0  0  0  0  0  0
    5.6498    1.8287    0.0000 C   0  0  0  0  0  0  0  0  0
  1  2  1  0  0  0  0
  2  3  1  0  0  0  0
  2  4  1  0  0  0  0
  2  5  1  0  0  0  0
  5  6  4  0  0  0  0
  5 10  4  0  0  0  0
  6  7  4  0  0  0  0
  7  8  4  0  0  0  0
  8  9  4  0  0  0  0
  9 10  4  0  0  0  0
 10 11  1  0  0  0  0
 11 12  4  0  0  0  0
 11 15  4  0  0  0  0
 12 13  4  0  0  0  0
 13 14  4  0  0  0  0
 13 19  4  0  0  0  0
 14 15  4  0  0  0  0
 14 16  4  0  0  0  0
 16 17  4  0  0  0  0
 16 22  1  0  0  0  0
 17 18  4  0  0  0  0
 18 19  4  0  0  0  0
 19 20  1  0  0  0  0
 20 21  1  0  0  0  0
 22 23  1  0  0  0  0
 23 24  1  0  0  0  0
 23 36  1  0  0  0  0
 24 25  1  0  0  0  0
 25 26  1  0  0  0  0
 26 27  4  0  0  0  0
 26 35  4  0  0  0  0
 27 28  4  0  0  0  0
 28 29  1  0  0  0  0
 28 31  4  0  0  0  0
 29 30  1  0  0  0  0
 31 32  1  0  0  0  0
 31 34  4  0  0  0  0
 32 33  1  0  0  0  0
 34 35  4  0  0  0  0
 35 36  1  0  0  0  0
M  END
>  <Name_Molregno>
6,7-dimethoxy-2-((7-methoxy-2-(2-(trifluoromethyl)phenyl)benzofuran-4-yl)methyl)-1,2,3,4-tetrahydroisoquinoline

>  <Alpha-2A>
6.52

>  <Alpha-2B>
6.02

>  <Alpha-2C>
7.74

$$$$
6,7-dimethoxy-2-((7-methoxy-2-(3-methoxyphenyl)benzofuran-4-yl)methyl)-1,2,3,4-t
  Marvin  02231216192D 0   1.00000     0.00000     0

 34 38  0  0  0  0  0  0  0  0999 V2000
    0.8882   -1.3212    0.0000 O   0  0  0  0  0  0  0  0  0
    1.6728   -1.0662    0.0000 C   0  0  0  0  0  0  0  0  0
    1.6728   -0.2412    0.0000 C   0  0  0  0  0  0  0  0  0
    0.8882    0.0137    0.0000 C   0  0  0  0  0  0  0  0  0
    0.4033   -0.6537    0.0000 C   0  0  0  0  0  0  0  0  0
   -0.4217   -0.6537    0.0000 C   0  0  0  0  0  0  0  0  0
   -0.8342   -1.3682    0.0000 C   0  0  0  0  0  0  0  0  0
   -1.6592   -1.3682    0.0000 C   0  0  0  0  0  0  0  0  0
   -2.0717   -2.0827    0.0000 O   0  0  0  0  0  0  0  0  0
   -2.8967   -2.0827    0.0000 C   0  0  0  0  0  0  0  0  0
   -2.0717   -0.6537    0.0000 C   0  0  0  0  0  0  0  0  0
   -1.6592    0.0608    0.0000 C   0  0  0  0  0  0  0  0  0
   -0.8342    0.0608    0.0000 C   0  0  0  0  0  0  0  0  0
    2.3873    0.1713    0.0000 C   0  0  0  0  0  0  0  0  0
    3.1018   -0.2412    0.0000 C   0  0  0  0  0  0  0  0  0
    3.1018   -1.0662    0.0000 C   0  0  0  0  0  0  0  0  0
    2.3873   -1.4787    0.0000 C   0  0  0  0  0  0  0  0  0
    2.3873   -2.3037    0.0000 O   0  0  0  0  0  0  0  0  0
    3.1018   -2.7162    0.0000 C   0  0  0  0  0  0  0  0  0
    2.3873    0.9963    0.0000 C   0  0  0  0  0  0  0  0  0
    3.1018    1.4088    0.0000 N   0  0  0  0  0  0  0  0  0
    3.1018    2.2338    0.0000 C   0  0  0  0  0  0  0  0  0
    3.8162    2.6463    0.0000 C   0  0  0  0  0  0  0  0  0
    4.5307    2.2338    0.0000 C   0  0  0  0  0  0  0  0  0
    5.2452    2.6463    0.0000 C   0  0  0  0  0  0  0  0  0
    5.9597    2.2338    0.0000 C   0  0  0  0  0  0  0  0  0
    6.6741    2.6463    0.0000 O   0  0  0  0  0  0  0  0  0
    6.6741    3.4713    0.0000 C   0  0  0  0  0  0  0  0  0
    5.9597    1.4088    0.0000 C   0  0  0  0  0  0  0  0  0
    6.6741    0.9963    0.0000 O   0  0  0  0  0  0  0  0  0
    6.6741    0.1713    0.0000 C   0  0  0  0  0  0  0  0  0
    5.2452    0.9963    0.0000 C   0  0  0  0  0  0  0  0  0
    4.5307    1.4088    0.0000 C   0  0  0  0  0  0  0  0  0
    3.8162    0.9963    0.0000 C   0  0  0  0  0  0  0  0  0
  1  2  4  0  0  0  0
  1  5  4  0  0  0  0
  2  3  4  0  0  0  0
  2 17  4  0  0  0  0
  3  4  4  0  0  0  0
  3 14  4  0  0  0  0
  4  5  4  0  0  0  0
  5  6  1  0  0  0  0
  6  7  4  0  0  0  0
  6 13  4  0  0  0  0
  7  8  4  0  0  0  0
  8  9  1  0  0  0  0
  8 11  4  0  0  0  0
  9 10  1  0  0  0  0
 11 12  4  0  0  0  0
 12 13  4  0  0  0  0
 14 15  4  0  0  0  0
 14 20  1  0  0  0  0
 15 16  4  0  0  0  0
 16 17  4  0  0  0  0
 17 18  1  0  0  0  0
 18 19  1  0  0  0  0
 20 21  1  0  0  0  0
 21 22  1  0  0  0  0
 21 34  1  0  0  0  0
 22 23  1  0  0  0  0
 23 24  1  0  0  0  0
 24 25  4  0  0  0  0
 24 33  4  0  0  0  0
 25 26  4  0  0  0  0
 26 27  1  0  0  0  0
 26 29  4  0  0  0  0
 27 28  1  0  0  0  0
 29 30  1  0  0  0  0
 29 32  4  0  0  0  0
 30 31  1  0  0  0  0
 32 33  4  0  0  0  0
 33 34  1  0  0  0  0
M  END
>  <Name_Molregno>
6,7-dimethoxy-2-((7-methoxy-2-(3-methoxyphenyl)benzofuran-4-yl)methyl)-1,2,3,4-tetrahydroisoquinoline

>  <Alpha-2A>
5.59

>  <Alpha-2B>
6.09

>  <Alpha-2C>
7.72

$$$$
6,7-dimethoxy-2-((7-methoxy-2-(pyridin-2-yl)benzofuran-4-yl)methyl)-1,2,3,4-tetr
  Marvin  02231216192D 0   1.00000     0.00000     0

 32 36  0  0  0  0  0  0  0  0999 V2000
    0.7505   -1.6923    0.0000 O   0  0  0  0  0  0  0  0  0
    1.5351   -1.4373    0.0000 C   0  0  0  0  0  0  0  0  0
    1.5351   -0.6123    0.0000 C   0  0  0  0  0  0  0  0  0
    0.7505   -0.3574    0.0000 C   0  0  0  0  0  0  0  0  0
    0.2655   -1.0248    0.0000 C   0  0  0  0  0  0  0  0  0
   -0.5595   -1.0248    0.0000 C   0  0  0  0  0  0  0  0  0
   -0.9720   -1.7393    0.0000 N   0  0  0  0  0  0  0  0  0
   -1.7970   -1.7393    0.0000 C   0  0  0  0  0  0  0  0  0
   -2.2095   -1.0248    0.0000 C   0  0  0  0  0  0  0  0  0
   -1.7970   -0.3104    0.0000 C   0  0  0  0  0  0  0  0  0
   -0.9720   -0.3104    0.0000 C   0  0  0  0  0  0  0  0  0
    2.2496   -0.1998    0.0000 C   0  0  0  0  0  0  0  0  0
    2.9640   -0.6123    0.0000 C   0  0  0  0  0  0  0  0  0
    2.9640   -1.4373    0.0000 C   0  0  0  0  0  0  0  0  0
    2.2496   -1.8498    0.0000 C   0  0  0  0  0  0  0  0  0
    2.2496   -2.6748    0.0000 O   0  0  0  0  0  0  0  0  0
    2.9640   -3.0873    0.0000 C   0  0  0  0  0  0  0  0  0
    2.2496    0.6252    0.0000 C   0  0  0  0  0  0  0  0  0
    2.9640    1.0377    0.0000 N   0  0  0  0  0  0  0  0  0
    2.9640    1.8627    0.0000 C   0  0  0  0  0  0  0  0  0
    3.6785    2.2752    0.0000 C   0  0  0  0  0  0  0  0  0
    4.3930    1.8627    0.0000 C   0  0  0  0  0  0  0  0  0
    5.1074    2.2752    0.0000 C   0  0  0  0  0  0  0  0  0
    5.8219    1.8627    0.0000 C   0  0  0  0  0  0  0  0  0
    6.5364    2.2752    0.0000 O   0  0  0  0  0  0  0  0  0
    6.5364    3.1002    0.0000 C   0  0  0  0  0  0  0  0  0
    5.8219    1.0377    0.0000 C   0  0  0  0  0  0  0  0  0
    6.5364    0.6252    0.0000 O   0  0  0  0  0  0  0  0  0
    6.5364   -0.1998    0.0000 C   0  0  0  0  0  0  0  0  0
    5.1074    0.6252    0.0000 C   0  0  0  0  0  0  0  0  0
    4.3930    1.0377    0.0000 C   0  0  0  0  0  0  0  0  0
    3.6785    0.6252    0.0000 C   0  0  0  0  0  0  0  0  0
  1  2  4  0  0  0  0
  1  5  4  0  0  0  0
  2  3  4  0  0  0  0
  2 15  4  0  0  0  0
  3  4  4  0  0  0  0
  3 12  4  0  0  0  0
  4  5  4  0  0  0  0
  5  6  1  0  0  0  0
  6  7  4  0  0  0  0
  6 11  4  0  0  0  0
  7  8  4  0  0  0  0
  8  9  4  0  0  0  0
  9 10  4  0  0  0  0
 10 11  4  0  0  0  0
 12 13  4  0  0  0  0
 12 18  1  0  0  0  0
 13 14  4  0  0  0  0
 14 15  4  0  0  0  0
 15 16  1  0  0  0  0
 16 17  1  0  0  0  0
 18 19  1  0  0  0  0
 19 20  1  0  0  0  0
 19 32  1  0  0  0  0
 20 21  1  0  0  0  0
 21 22  1  0  0  0  0
 22 23  4  0  0  0  0
 22 31  4  0  0  0  0
 23 24  4  0  0  0  0
 24 25  1  0  0  0  0
 24 27  4  0  0  0  0
 25 26  1  0  0  0  0
 27 28  1  0  0  0  0
 27 30  4  0  0  0  0
 28 29  1  0  0  0  0
 30 31  4  0  0  0  0
 31 32  1  0  0  0  0
M  END
>  <Name_Molregno>
6,7-dimethoxy-2-((7-methoxy-2-(pyridin-2-yl)benzofuran-4-yl)methyl)-1,2,3,4-tetrahydroisoquinoline

>  <Alpha-2A>
6.87

>  <Alpha-2B>
6.48

>  <Alpha-2C>
8.02

$$$$
6,7-dimethoxy-2-((7-methoxy-2-phenylbenzofuran-4-yl)methyl)-1,2,3,4-tetrahydrois
  Marvin  02231216192D 0   1.00000     0.00000     0

 32 36  0  0  0  0  0  0  0  0999 V2000
    0.7505   -1.6923    0.0000 O   0  0  0  0  0  0  0  0  0
    1.5351   -1.4373    0.0000 C   0  0  0  0  0  0  0  0  0
    1.5351   -0.6123    0.0000 C   0  0  0  0  0  0  0  0  0
    0.7505   -0.3574    0.0000 C   0  0  0  0  0  0  0  0  0
    0.2655   -1.0248    0.0000 C   0  0  0  0  0  0  0  0  0
   -0.5595   -1.0248    0.0000 C   0  0  0  0  0  0  0  0  0
   -0.9720   -1.7393    0.0000 C   0  0  0  0  0  0  0  0  0
   -1.7970   -1.7393    0.0000 C   0  0  0  0  0  0  0  0  0
   -2.2095   -1.0248    0.0000 C   0  0  0  0  0  0  0  0  0
   -1.7970   -0.3104    0.0000 C   0  0  0  0  0  0  0  0  0
   -0.9720   -0.3104    0.0000 C   0  0  0  0  0  0  0  0  0
    2.2496   -0.1998    0.0000 C   0  0  0  0  0  0  0  0  0
    2.9640   -0.6123    0.0000 C   0  0  0  0  0  0  0  0  0
    2.9640   -1.4373    0.0000 C   0  0  0  0  0  0  0  0  0
    2.2496   -1.8498    0.0000 C   0  0  0  0  0  0  0  0  0
    2.2496   -2.6748    0.0000 O   0  0  0  0  0  0  0  0  0
    2.9640   -3.0873    0.0000 C   0  0  0  0  0  0  0  0  0
    2.2496    0.6252    0.0000 C   0  0  0  0  0  0  0  0  0
    2.9640    1.0377    0.0000 N   0  0  0  0  0  0  0  0  0
    2.9640    1.8627    0.0000 C   0  0  0  0  0  0  0  0  0
    3.6785    2.2752    0.0000 C   0  0  0  0  0  0  0  0  0
    4.3930    1.8627    0.0000 C   0  0  0  0  0  0  0  0  0
    5.1074    2.2752    0.0000 C   0  0  0  0  0  0  0  0  0
    5.8219    1.8627    0.0000 C   0  0  0  0  0  0  0  0  0
    6.5364    2.2752    0.0000 O   0  0  0  0  0  0  0  0  0
    6.5364    3.1002    0.0000 C   0  0  0  0  0  0  0  0  0
    5.8219    1.0377    0.0000 C   0  0  0  0  0  0  0  0  0
    6.5364    0.6252    0.0000 O   0  0  0  0  0  0  0  0  0
    6.5364   -0.1998    0.0000 C   0  0  0  0  0  0  0  0  0
    5.1074    0.6252    0.0000 C   0  0  0  0  0  0  0  0  0
    4.3930    1.0377    0.0000 C   0  0  0  0  0  0  0  0  0
    3.6785    0.6252    0.0000 C   0  0  0  0  0  0  0  0  0
  1  2  4  0  0  0  0
  1  5  4  0  0  0  0
  2  3  4  0  0  0  0
  2 15  4  0  0  0  0
  3  4  4  0  0  0  0
  3 12  4  0  0  0  0
  4  5  4  0  0  0  0
  5  6  1  0  0  0  0
  6  7  4  0  0  0  0
  6 11  4  0  0  0  0
  7  8  4  0  0  0  0
  8  9  4  0  0  0  0
  9 10  4  0  0  0  0
 10 11  4  0  0  0  0
 12 13  4  0  0  0  0
 12 18  1  0  0  0  0
 13 14  4  0  0  0  0
 14 15  4  0  0  0  0
 15 16  1  0  0  0  0
 16 17  1  0  0  0  0
 18 19  1  0  0  0  0
 19 20  1  0  0  0  0
 19 32  1  0  0  0  0
 20 21  1  0  0  0  0
 21 22  1  0  0  0  0
 22 23  4  0  0  0  0
 22 31  4  0  0  0  0
 23 24  4  0  0  0  0
 24 25  1  0  0  0  0
 24 27  4  0  0  0  0
 25 26  1  0  0  0  0
 27 28  1  0  0  0  0
 27 30  4  0  0  0  0
 28 29  1  0  0  0  0
 30 31  4  0  0  0  0
 31 32  1  0  0  0  0
M  END
>  <Name_Molregno>
6,7-dimethoxy-2-((7-methoxy-2-phenylbenzofuran-4-yl)methyl)-1,2,3,4-tetrahydroisoquinoline

>  <Alpha-2A>
5.76

>  <Alpha-2B>
6.12

>  <Alpha-2C>
7.7

$$$$
8-((6,7-dimethoxy-3,4-dihydroisoquinolin-2(1H)-yl)methyl)-2-(furan-2-yl)-[1,2,4]
  Marvin  02231216192D 0   1.00000     0.00000     0

 30 34  0  0  0  0  0  0  0  0999 V2000
    5.3383   -1.0945    0.0000 O   0  0  0  0  0  0  0  0  0
    6.1229   -1.3494    0.0000 C   0  0  0  0  0  0  0  0  0
    6.1229   -2.1744    0.0000 C   0  0  0  0  0  0  0  0  0
    5.3383   -2.4293    0.0000 C   0  0  0  0  0  0  0  0  0
    4.8533   -1.7619    0.0000 C   0  0  0  0  0  0  0  0  0
    4.0283   -1.7619    0.0000 C   0  0  0  0  0  0  0  0  0
    3.5434   -1.0945    0.0000 N   0  0  0  0  0  0  0  0  0
    2.7588   -1.3494    0.0000 C   0  0  0  0  0  0  0  0  0
    2.7588   -2.1744    0.0000 N   0  0  0  0  0  0  0  0  0
    3.5434   -2.4293    0.0000 N   0  0  0  0  0  0  0  0  0
    2.0443   -2.5869    0.0000 C   0  0  0  0  0  0  0  0  0
    1.3298   -2.1744    0.0000 N   0  0  0  0  0  0  0  0  0
    1.3298   -1.3494    0.0000 C   0  0  0  0  0  0  0  0  0
    2.0443   -0.9369    0.0000 C   0  0  0  0  0  0  0  0  0
    2.0443   -0.1119    0.0000 C   0  0  0  0  0  0  0  0  0
    2.7588    0.3006    0.0000 N   0  0  0  0  0  0  0  0  0
    2.7588    1.1256    0.0000 C   0  0  0  0  0  0  0  0  0
    3.4733    1.5381    0.0000 C   0  0  0  0  0  0  0  0  0
    4.1877    1.1256    0.0000 C   0  0  0  0  0  0  0  0  0
    4.9022    1.5381    0.0000 C   0  0  0  0  0  0  0  0  0
    5.6167    1.1256    0.0000 C   0  0  0  0  0  0  0  0  0
    6.3311    1.5381    0.0000 O   0  0  0  0  0  0  0  0  0
    6.3311    2.3631    0.0000 C   0  0  0  0  0  0  0  0  0
    5.6167    0.3006    0.0000 C   0  0  0  0  0  0  0  0  0
    6.3311   -0.1119    0.0000 O   0  0  0  0  0  0  0  0  0
    6.3311   -0.9369    0.0000 C   0  0  0  0  0  0  0  0  0
    4.9022   -0.1119    0.0000 C   0  0  0  0  0  0  0  0  0
    4.1877    0.3006    0.0000 C   0  0  0  0  0  0  0  0  0
    3.4733   -0.1119    0.0000 C   0  0  0  0  0  0  0  0  0
    2.0443   -3.4119    0.0000 N   0  0  0  0  0  0  0  0  0
  1  2  4  0  0  0  0
  1  5  4  0  0  0  0
  2  3  4  0  0  0  0
  3  4  4  0  0  0  0
  4  5  4  0  0  0  0
  5  6  1  0  0  0  0
  6  7  4  0  0  0  0
  6 10  4  0  0  0  0
  7  8  4  0  0  0  0
  8  9  4  0  0  0  0
  8 14  4  0  0  0  0
  9 10  4  0  0  0  0
  9 11  4  0  0  0  0
 11 12  4  0  0  0  0
 11 30  1  0  0  0  0
 12 13  4  0  0  0  0
 13 14  4  0  0  0  0
 14 15  1  0  0  0  0
 15 16  1  0  0  0  0
 16 17  1  0  0  0  0
 16 29  1  0  0  0  0
 17 18  1  0  0  0  0
 18 19  1  0  0  0  0
 19 20  4  0  0  0  0
 19 28  4  0  0  0  0
 20 21  4  0  0  0  0
 21 22  1  0  0  0  0
 21 24  4  0  0  0  0
 22 23  1  0  0  0  0
 24 25  1  0  0  0  0
 24 27  4  0  0  0  0
 25 26  1  0  0  0  0
 27 28  4  0  0  0  0
 28 29  1  0  0  0  0
M  STY  1   1 DAT
M  SAL   1  1  12
M  SDT   1 MRV_IMPLICIT_H                                        
M  SDD   1     0.0000    0.0000    DR    ALL  0       0  
M  SED   1 IMPL_H1
M  END
>  <Name_Molregno>
8-((6,7-dimethoxy-3,4-dihydroisoquinolin-2(1H)-yl)methyl)-2-(furan-2-yl)-[1,2,4]triazolo[1,5-f]pyrimidin-5-amine

>  <Alpha-2A>
6.4

>  <Alpha-2B>
6.43

>  <Alpha-2C>
7.72

$$$$
9-OH-risperidone
  Marvin  02231216192D 0   1.00000     0.00000     0

 31 35  0  0  1  0  0  0  0  0999 V2000
    1.7758   -2.6889    0.0000 F   0  0  0  0  0  0  0  0  0
    2.0308   -1.9043    0.0000 C   0  0  0  0  0  0  0  0  0
    1.4788   -1.2912    0.0000 C   0  0  0  0  0  0  0  0  0
    1.7337   -0.5066    0.0000 C   0  0  0  0  0  0  0  0  0
    1.3212    0.2079    0.0000 O   0  0  0  0  0  0  0  0  0
    1.8732    0.8210    0.0000 N   0  0  0  0  0  0  0  0  0
    2.6269    0.4854    0.0000 C   0  0  0  0  0  0  0  0  0
    2.5407   -0.3350    0.0000 C   0  0  0  0  0  0  0  0  0
    3.0927   -0.9481    0.0000 C   0  0  0  0  0  0  0  0  0
    2.8378   -1.7327    0.0000 C   0  0  0  0  0  0  0  0  0
    3.3414    0.8979    0.0000 C   0  0  0  0  0  0  0  0  0
    3.3414    1.7229    0.0000 C   0  0  0  0  0  0  0  0  0
    4.0558    2.1354    0.0000 C   0  0  0  0  0  0  0  0  0
    4.7703    1.7229    0.0000 N   0  0  0  0  0  0  0  0  0
    4.7703    0.8979    0.0000 C   0  0  0  0  0  0  0  0  0
    4.0558    0.4854    0.0000 C   0  0  0  0  0  0  0  0  0
    5.4848    2.1354    0.0000 C   0  0  0  0  0  0  0  0  0
    6.1993    1.7229    0.0000 C   0  0  0  0  0  0  0  0  0
    6.9137    2.1354    0.0000 C   0  0  0  0  0  0  0  0  0
    7.6282    1.7229    0.0000 C   0  0  0  0  0  0  0  0  0
    7.6282    0.8979    0.0000 O   0  0  0  0  0  0  0  0  0
    8.3427    2.1354    0.0000 N   0  0  0  0  0  0  0  0  0
    8.3427    2.9604    0.0000 C   0  0  0  0  0  0  0  0  0
    7.6282    3.3729    0.0000 N   0  0  0  0  0  0  0  0  0
    6.9137    2.9604    0.0000 C   0  0  0  0  0  0  0  0  0
    6.1993    3.3729    0.0000 C   0  0  0  0  0  0  0  0  0
    9.0571    3.3729    0.0000 C   0  0  0  0  0  0  0  0  0
    9.0571    4.1979    0.0000 O   0  0  0  0  0  0  0  0  0
    9.7716    2.9604    0.0000 C   0  0  0  0  0  0  0  0  0
    9.7716    2.1354    0.0000 C   0  0  0  0  0  0  0  0  0
    9.0571    1.7229    0.0000 C   0  0  0  0  0  0  0  0  0
  1  2  1  0  0  0  0
  2  3  4  0  0  0  0
  2 10  4  0  0  0  0
  3  4  4  0  0  0  0
  4  5  4  0  0  0  0
  4  8  4  0  0  0  0
  5  6  4  0  0  0  0
  6  7  4  0  0  0  0
  7  8  4  0  0  0  0
  7 11  1  0  0  0  0
  8  9  4  0  0  0  0
  9 10  4  0  0  0  0
 11 12  1  0  0  0  0
 11 16  1  0  0  0  0
 12 13  1  0  0  0  0
 13 14  1  0  0  0  0
 14 15  1  0  0  0  0
 14 17  1  0  0  0  0
 15 16  1  0  0  0  0
 17 18  1  0  0  0  0
 18 19  1  0  0  0  0
 19 20  1  0  0  0  0
 19 25  2  0  0  0  0
 20 21  2  0  0  0  0
 20 22  1  0  0  0  0
 22 23  1  0  0  0  0
 22 31  1  0  0  0  0
 23 24  2  0  0  0  0
 23 27  1  0  0  0  0
 24 25  1  0  0  0  0
 25 26  1  0  0  0  0
 27 28  1  0  0  0  0
 27 29  1  0  0  0  0
 29 30  1  0  0  0  0
 30 31  1  0  0  0  0
M  END
>  <Name_Molregno>
9-OH-risperidone

>  <5-HT1A>
6.24

>  <5-HT1B>
7.51

>  <5-HT1D>
7.44

>  <5-HT1E>
5.49

>  <5-HT2A>
9

>  <5-HT2C>
7.32

>  <5-HT3>
5

>  <5-HT5>
6.56

>  <5-HT6>
5.62

>  <5-HT7>
8.57

>  <Alpha-1A>
8.6

>  <Alpha-1B>
9.15

>  <Alpha-2A>
7.92

>  <Alpha-2B>
7.63

>  <Alpha-2C>
8.2

>  <Beta-1>
5.15

>  <Beta-2>
5.15

>  <DOPAMINE D1>
7.39

>  <DOPAMINE D2>
8.61

>  <DOPAMINE D3>
9.07

>  <DOPAMINE D4>
7.4

>  <DOPAMINE D5>
7.54

>  <Dopamine transporter>
5

>  <HISTAMINE H1>
8.07

>  <HISTAMINE H2>
6.92

>  <HISTAMINE H4>
5.06

>  <Muscarinic acetylcholine receptor M1>
5

>  <Muscarinic acetylcholine receptor M2>
5

>  <Muscarinic acetylcholine receptor M3>
5

>  <Muscarinic acetylcholine receptor M4>
5

>  <Muscarinic acetylcholine receptor M5>
5

>  <Norepinephrine transporter>
5

>  <Serotonin transporter>
5.71

$$$$
Acetylsalicylic-acid
  Marvin  02231216192D 0   1.00000     0.00000     0

 13 13  0  0  0  0  0  0  0  0999 V2000
    0.0203    0.5019    0.0000 O   0  0  0  0  0  0  0  0  0
    0.7347    0.0894    0.0000 C   0  0  0  0  0  0  0  0  0
    1.4492    0.5019    0.0000 O   0  0  0  0  0  0  0  0  0
    0.7347   -0.7356    0.0000 C   0  0  0  0  0  0  0  0  0
   -0.6942    0.0894    0.0000 C   0  0  0  0  0  0  0  0  0
   -0.6942   -0.7356    0.0000 C   0  0  0  0  0  0  0  0  0
   -1.4087   -1.1481    0.0000 C   0  0  0  0  0  0  0  0  0
   -2.1232   -0.7356    0.0000 C   0  0  0  0  0  0  0  0  0
   -2.1232    0.0894    0.0000 C   0  0  0  0  0  0  0  0  0
   -1.4087    0.5019    0.0000 C   0  0  0  0  0  0  0  0  0
   -1.4087    1.3269    0.0000 C   0  0  0  0  0  0  0  0  0
   -2.1232    1.7394    0.0000 O   0  0  0  0  0  0  0  0  0
   -0.6942    1.7394    0.0000 O   0  0  0  0  0  0  0  0  0
  1  2  1  0  0  0  0
  1  5  1  0  0  0  0
  2  3  2  0  0  0  0
  2  4  1  0  0  0  0
  5  6  4  0  0  0  0
  5 10  4  0  0  0  0
  6  7  4  0  0  0  0
  7  8  4  0  0  0  0
  8  9  4  0  0  0  0
  9 10  4  0  0  0  0
 10 11  1  0  0  0  0
 11 12  1  0  0  0  0
 11 13  2  0  0  0  0
M  END
>  <Name_Molregno>
Acetylsalicylic-acid

>  <5-HT1A>
5

>  <5-HT1B>
5

>  <5-HT1D>
5

>  <5-HT2A>
5

>  <5-HT3>
5

>  <5-HT5>
5

>  <5-HT6>
5

>  <5-HT7>
5

>  <Alpha-1A>
5

>  <Alpha-1B>
5

>  <Alpha-2A>
5

>  <Alpha-2B>
5

>  <Alpha-2C>
5

>  <DOPAMINE D1>
5

>  <DOPAMINE D2>
5

>  <DOPAMINE D4>
5

>  <DOPAMINE D5>
5

>  <HISTAMINE H1>
5

>  <HISTAMINE H2>
5

>  <Muscarinic acetylcholine receptor M2>
5

>  <Muscarinic acetylcholine receptor M5>
5

$$$$
Amentoflavone
  Marvin  02231216192D 0   1.00000     0.00000     0

 40 45  0  0  0  0  0  0  0  0999 V2000
   -3.5941   -0.9772    0.0000 O   0  0  0  0  0  0  0  0  0
   -3.5941   -0.1522    0.0000 C   0  0  0  0  0  0  0  0  0
   -4.3085    0.2603    0.0000 C   0  0  0  0  0  0  0  0  0
   -5.0230   -0.1522    0.0000 C   0  0  0  0  0  0  0  0  0
   -5.7375    0.2603    0.0000 O   0  0  0  0  0  0  0  0  0
   -5.0230   -0.9772    0.0000 C   0  0  0  0  0  0  0  0  0
   -4.3085   -1.3897    0.0000 C   0  0  0  0  0  0  0  0  0
   -4.3085   -2.2147    0.0000 C   0  0  0  0  0  0  0  0  0
   -3.5941   -2.6272    0.0000 C   0  0  0  0  0  0  0  0  0
   -3.5941   -3.4522    0.0000 C   0  0  0  0  0  0  0  0  0
   -4.3085   -3.8647    0.0000 C   0  0  0  0  0  0  0  0  0
   -4.3085   -4.6897    0.0000 O   0  0  0  0  0  0  0  0  0
   -5.0230   -3.4522    0.0000 C   0  0  0  0  0  0  0  0  0
   -5.0230   -2.6272    0.0000 C   0  0  0  0  0  0  0  0  0
   -4.3085    1.0853    0.0000 C   0  0  0  0  0  0  0  0  0
   -5.0230    1.4978    0.0000 O   0  0  0  0  0  0  0  0  0
   -3.5941    1.4978    0.0000 C   0  0  0  0  0  0  0  0  0
   -2.8796    1.0853    0.0000 C   0  0  0  0  0  0  0  0  0
   -2.1651    1.4978    0.0000 O   0  0  0  0  0  0  0  0  0
   -2.8796    0.2603    0.0000 C   0  0  0  0  0  0  0  0  0
   -2.1651   -0.1522    0.0000 C   0  0  0  0  0  0  0  0  0
   -1.4507    0.2603    0.0000 C   0  0  0  0  0  0  0  0  0
   -0.7362   -0.1522    0.0000 C   0  0  0  0  0  0  0  0  0
   -0.7362   -0.9772    0.0000 C   0  0  0  0  0  0  0  0  0
   -1.4507   -1.3897    0.0000 C   0  0  0  0  0  0  0  0  0
   -2.1651   -0.9772    0.0000 C   0  0  0  0  0  0  0  0  0
   -2.8796   -1.3897    0.0000 O   0  0  0  0  0  0  0  0  0
   -0.0217    0.2603    0.0000 C   0  0  0  0  0  0  0  0  0
    0.6928   -0.1522    0.0000 O   0  0  0  0  0  0  0  0  0
    1.4072    0.2603    0.0000 C   0  0  0  0  0  0  0  0  0
    1.4072    1.0853    0.0000 C   0  0  0  0  0  0  0  0  0
    0.6928    1.4978    0.0000 C   0  0  0  0  0  0  0  0  0
    0.6928    2.3228    0.0000 O   0  0  0  0  0  0  0  0  0
   -0.0217    1.0853    0.0000 C   0  0  0  0  0  0  0  0  0
    2.1217    1.4978    0.0000 C   0  0  0  0  0  0  0  0  0
    2.1217    2.3228    0.0000 O   0  0  0  0  0  0  0  0  0
    2.8362    1.0853    0.0000 C   0  0  0  0  0  0  0  0  0
    2.8362    0.2603    0.0000 C   0  0  0  0  0  0  0  0  0
    3.5506   -0.1522    0.0000 O   0  0  0  0  0  0  0  0  0
    2.1217   -0.1522    0.0000 C   0  0  0  0  0  0  0  0  0
  1  2  1  0  0  0  0
  1  7  1  0  0  0  0
  2  3  4  0  0  0  0
  2 20  4  0  0  0  0
  3  4  1  0  0  0  0
  3 15  4  0  0  0  0
  4  5  2  0  0  0  0
  4  6  1  0  0  0  0
  6  7  2  0  0  0  0
  7  8  1  0  0  0  0
  8  9  4  0  0  0  0
  8 14  4  0  0  0  0
  9 10  4  0  0  0  0
 10 11  4  0  0  0  0
 11 12  1  0  0  0  0
 11 13  4  0  0  0  0
 13 14  4  0  0  0  0
 15 16  1  0  0  0  0
 15 17  4  0  0  0  0
 17 18  4  0  0  0  0
 18 19  1  0  0  0  0
 18 20  4  0  0  0  0
 20 21  1  0  0  0  0
 21 22  4  0  0  0  0
 21 26  4  0  0  0  0
 22 23  4  0  0  0  0
 23 24  4  0  0  0  0
 23 28  1  0  0  0  0
 24 25  4  0  0  0  0
 25 26  4  0  0  0  0
 26 27  1  0  0  0  0
 28 29  1  0  0  0  0
 28 34  2  0  0  0  0
 29 30  1  0  0  0  0
 30 31  4  0  0  0  0
 30 40  4  0  0  0  0
 31 32  1  0  0  0  0
 31 35  4  0  0  0  0
 32 33  2  0  0  0  0
 32 34  1  0  0  0  0
 35 36  1  0  0  0  0
 35 37  4  0  0  0  0
 37 38  4  0  0  0  0
 38 39  1  0  0  0  0
 38 40  4  0  0  0  0
M  END
>  <Name_Molregno>
Amentoflavone

>  <5-HT1A>
5

>  <5-HT1B>
5.39

>  <5-HT1D>
5

>  <5-HT2C>
5.59

>  <5-HT3>
5

>  <5-HT5>
5

>  <5-HT6>
5

>  <5-HT7>
5

>  <Alpha-1A>
5

>  <Alpha-1B>
5

>  <Alpha-2A>
5

>  <Alpha-2B>
5

>  <Alpha-2C>
5

>  <DOPAMINE D1>
5

>  <DOPAMINE D5>
5

>  <Muscarinic acetylcholine receptor M1>
5

>  <Muscarinic acetylcholine receptor M2>
5

>  <Muscarinic acetylcholine receptor M3>
5

>  <Muscarinic acetylcholine receptor M4>
5

>  <Muscarinic acetylcholine receptor M5>
5

>  <Norepinephrine transporter>
5

>  <Serotonin transporter>
5

$$$$
APOMORPHINE
  Marvin  02231216192D 0   1.00000     0.00000     0

 20 23  0  0  1  0  0  0  0  0999 V2000
    3.2214   -1.7908    0.0000 O   0  0  0  0  0  0  0  0  0
    3.2214   -0.9658    0.0000 C   0  0  0  0  0  0  0  0  0
    2.5070   -0.5533    0.0000 C   0  0  0  0  0  0  0  0  0
    2.5070    0.2717    0.0000 C   0  0  0  0  0  0  0  0  0
    1.7925    0.6842    0.0000 C   0  0  0  0  0  0  0  0  0
    1.0780    0.2717    0.0000 C   0  0  0  0  0  0  0  0  0
    0.3635    0.6842    0.0000 N   0  0  0  0  0  0  0  0  0
   -0.3509    0.2717    0.0000 C   0  0  0  0  0  0  0  0  0
   -0.3509   -0.5533    0.0000 C   0  0  0  0  0  0  0  0  0
    0.3635   -0.9658    0.0000 C   0  0  0  0  0  0  0  0  0
    1.0780   -0.5533    0.0000 C   0  0  0  0  0  0  0  0  0
    1.7925   -0.9658    0.0000 C   0  0  0  0  0  0  0  0  0
    1.7925   -1.7908    0.0000 C   0  0  0  0  0  0  0  0  0
    1.0780   -2.2033    0.0000 C   0  0  0  0  0  0  0  0  0
    0.3635   -1.7908    0.0000 C   0  0  0  0  0  0  0  0  0
    0.3635    1.5092    0.0000 C   0  0  0  0  0  0  0  0  0
    3.2214    0.6842    0.0000 C   0  0  0  0  0  0  0  0  0
    3.9359    0.2717    0.0000 C   0  0  0  0  0  0  0  0  0
    3.9359   -0.5533    0.0000 C   0  0  0  0  0  0  0  0  0
    4.6504   -0.9658    0.0000 O   0  0  0  0  0  0  0  0  0
  1  2  1  0  0  0  0
  2  3  4  0  0  0  0
  2 19  4  0  0  0  0
  3  4  4  0  0  0  0
  3 12  1  0  0  0  0
  4  5  1  0  0  0  0
  4 17  4  0  0  0  0
  5  6  1  0  0  0  0
  6  7  1  0  0  0  0
  6 11  1  0  0  0  0
  7  8  1  0  0  0  0
  7 16  1  0  0  0  0
  8  9  1  0  0  0  0
  9 10  1  0  0  0  0
 10 11  4  0  0  0  0
 10 15  4  0  0  0  0
 11 12  4  0  0  0  0
 12 13  4  0  0  0  0
 13 14  4  0  0  0  0
 14 15  4  0  0  0  0
 17 18  4  0  0  0  0
 18 19  4  0  0  0  0
 19 20  1  0  0  0  0
M  END
>  <Name_Molregno>
APOMORPHINE

>  <5-HT1A>
6.12

>  <5-HT1B>
5.53

>  <5-HT1D>
5.91

>  <5-HT2A>
6.63

>  <5-HT2C>
6.99

>  <Alpha-1A>
5.7

>  <Alpha-1B>
6.17

>  <Alpha-2A>
6.85

>  <Alpha-2B>
7.18

>  <Alpha-2C>
7.44

>  <Beta-1>
5

>  <Beta-2>
5

>  <DOPAMINE D1>
6.4

>  <DOPAMINE D2>
7.34

>  <DOPAMINE D3>
7.65

>  <DOPAMINE D4>
7.92

>  <DOPAMINE D5>
7.14

$$$$
ARC-239
  Marvin  02231216192D 0   1.00000     0.00000     0

 30 33  0  0  1  0  0  0  0  0999 V2000
   -6.5716    0.5817    0.0000 O   0  0  0  0  0  0  0  0  0
   -7.2861    0.1692    0.0000 C   0  0  0  0  0  0  0  0  0
   -6.5716    1.4067    0.0000 C   0  0  0  0  0  0  0  0  0
   -7.2861    1.8192    0.0000 C   0  0  0  0  0  0  0  0  0
   -7.2861    2.6442    0.0000 C   0  0  0  0  0  0  0  0  0
   -6.5716    3.0567    0.0000 C   0  0  0  0  0  0  0  0  0
   -5.8572    2.6442    0.0000 C   0  0  0  0  0  0  0  0  0
   -5.8572    1.8192    0.0000 C   0  0  0  0  0  0  0  0  0
   -5.1427    1.4067    0.0000 N   0  0  0  0  0  0  0  0  0
   -4.4282    1.8192    0.0000 C   0  0  0  0  0  0  0  0  0
   -3.7138    1.4067    0.0000 C   0  0  0  0  0  0  0  0  0
   -3.7138    0.5817    0.0000 N   0  0  0  0  0  0  0  0  0
   -4.4282    0.1692    0.0000 C   0  0  0  0  0  0  0  0  0
   -5.1427    0.5817    0.0000 C   0  0  0  0  0  0  0  0  0
   -2.9993    0.1692    0.0000 C   0  0  0  0  0  0  0  0  0
   -2.9993   -0.6558    0.0000 C   0  0  0  0  0  0  0  0  0
   -2.2848   -1.0683    0.0000 C   0  0  0  0  0  0  0  0  0
   -2.2848   -1.8933    0.0000 C   0  0  0  0  0  0  0  0  0
   -2.9993   -2.3058    0.0000 O   0  0  0  0  0  0  0  0  0
   -1.5704   -2.3058    0.0000 C   0  0  0  0  0  0  0  0  0
   -0.8559   -1.8933    0.0000 C   0  0  0  0  0  0  0  0  0
   -0.8559   -1.0683    0.0000 C   0  0  0  0  0  0  0  0  0
   -0.1414   -0.6558    0.0000 C   0  0  0  0  0  0  0  0  0
    0.5731   -1.0683    0.0000 C   0  0  0  0  0  0  0  0  0
    0.5731   -1.8933    0.0000 C   0  0  0  0  0  0  0  0  0
   -0.1414   -2.3058    0.0000 C   0  0  0  0  0  0  0  0  0
   -1.5704   -0.6558    0.0000 C   0  0  0  0  0  0  0  0  0
   -1.5704    0.1692    0.0000 O   0  0  0  0  0  0  0  0  0
   -1.9577   -3.0342    0.0000 C   0  0  0  0  0  0  0  0  0
   -1.1830   -3.0342    0.0000 C   0  0  0  0  0  0  0  0  0
  1  2  1  0  0  0  0
  1  3  1  0  0  0  0
  3  4  4  0  0  0  0
  3  8  4  0  0  0  0
  4  5  4  0  0  0  0
  5  6  4  0  0  0  0
  6  7  4  0  0  0  0
  7  8  4  0  0  0  0
  8  9  1  0  0  0  0
  9 10  1  0  0  0  0
  9 14  1  0  0  0  0
 10 11  1  0  0  0  0
 11 12  1  0  0  0  0
 12 13  1  0  0  0  0
 12 15  1  0  0  0  0
 13 14  1  0  0  0  0
 15 16  1  0  0  0  0
 16 17  1  0  0  0  0
 17 18  1  0  0  0  0
 17 27  1  0  0  0  0
 18 19  2  0  0  0  0
 18 20  1  0  0  0  0
 20 21  1  0  0  0  0
 20 29  1  0  0  0  0
 20 30  1  0  0  0  0
 21 22  4  0  0  0  0
 21 26  4  0  0  0  0
 22 23  4  0  0  0  0
 22 27  1  0  0  0  0
 23 24  4  0  0  0  0
 24 25  4  0  0  0  0
 25 26  4  0  0  0  0
 27 28  2  0  0  0  0
M  END
>  <Name_Molregno>
ARC-239

>  <Alpha-2A>
6.4

>  <Alpha-2B>
8.14

>  <Alpha-2C>
7.96

$$$$
ARIPIPRAZOLE
  Marvin  02231216192D 0   1.00000     0.00000     0

 30 33  0  0  0  0  0  0  0  0999 V2000
   -8.7485    0.0493    0.0000 Cl  0  0  0  0  0  0  0  0  0
   -8.7485   -0.7757    0.0000 C   0  0  0  0  0  0  0  0  0
   -8.0340   -1.1882    0.0000 C   0  0  0  0  0  0  0  0  0
   -7.3195   -0.7757    0.0000 N   0  0  0  0  0  0  0  0  0
   -7.3195    0.0493    0.0000 C   0  0  0  0  0  0  0  0  0
   -6.6051    0.4618    0.0000 C   0  0  0  0  0  0  0  0  0
   -5.8906    0.0493    0.0000 N   0  0  0  0  0  0  0  0  0
   -5.8906   -0.7757    0.0000 C   0  0  0  0  0  0  0  0  0
   -6.6051   -1.1882    0.0000 C   0  0  0  0  0  0  0  0  0
   -5.1761    0.4618    0.0000 C   0  0  0  0  0  0  0  0  0
   -4.4616    0.0493    0.0000 C   0  0  0  0  0  0  0  0  0
   -3.7472    0.4618    0.0000 C   0  0  0  0  0  0  0  0  0
   -3.0327    0.0493    0.0000 C   0  0  0  0  0  0  0  0  0
   -2.3182    0.4618    0.0000 O   0  0  0  0  0  0  0  0  0
   -1.6038    0.0493    0.0000 C   0  0  0  0  0  0  0  0  0
   -0.8893    0.4618    0.0000 C   0  0  0  0  0  0  0  0  0
   -0.1748    0.0493    0.0000 C   0  0  0  0  0  0  0  0  0
    0.5397    0.4618    0.0000 N   0  0  0  0  0  0  0  0  0
    1.2541    0.0493    0.0000 C   0  0  0  0  0  0  0  0  0
    1.9686    0.4618    0.0000 O   0  0  0  0  0  0  0  0  0
    1.2541   -0.7757    0.0000 C   0  0  0  0  0  0  0  0  0
    0.5397   -1.1882    0.0000 C   0  0  0  0  0  0  0  0  0
   -0.1748   -0.7757    0.0000 C   0  0  0  0  0  0  0  0  0
   -0.8893   -1.1882    0.0000 C   0  0  0  0  0  0  0  0  0
   -1.6038   -0.7757    0.0000 C   0  0  0  0  0  0  0  0  0
   -8.0340   -2.0132    0.0000 C   0  0  0  0  0  0  0  0  0
   -8.7485   -2.4257    0.0000 C   0  0  0  0  0  0  0  0  0
   -9.4629   -2.0132    0.0000 C   0  0  0  0  0  0  0  0  0
   -9.4629   -1.1882    0.0000 C   0  0  0  0  0  0  0  0  0
  -10.1774   -0.7757    0.0000 Cl  0  0  0  0  0  0  0  0  0
  1  2  1  0  0  0  0
  2  3  4  0  0  0  0
  2 29  4  0  0  0  0
  3  4  1  0  0  0  0
  3 26  4  0  0  0  0
  4  5  1  0  0  0  0
  4  9  1  0  0  0  0
  5  6  1  0  0  0  0
  6  7  1  0  0  0  0
  7  8  1  0  0  0  0
  7 10  1  0  0  0  0
  8  9  1  0  0  0  0
 10 11  1  0  0  0  0
 11 12  1  0  0  0  0
 12 13  1  0  0  0  0
 13 14  1  0  0  0  0
 14 15  1  0  0  0  0
 15 16  4  0  0  0  0
 15 25  4  0  0  0  0
 16 17  4  0  0  0  0
 17 18  1  0  0  0  0
 17 23  4  0  0  0  0
 18 19  1  0  0  0  0
 19 20  2  0  0  0  0
 19 21  1  0  0  0  0
 21 22  1  0  0  0  0
 22 23  1  0  0  0  0
 23 24  4  0  0  0  0
 24 25  4  0  0  0  0
 26 27  4  0  0  0  0
 27 28  4  0  0  0  0
 28 29  4  0  0  0  0
 29 30  1  0  0  0  0
M  END
>  <Name_Molregno>
ARIPIPRAZOLE

>  <5-HT1A>
8.21

>  <5-HT1B>
6.08

>  <5-HT1D>
7.18

>  <5-HT1E>
5.1

>  <5-HT2A>
7.85

>  <5-HT2C>
7.48

>  <5-HT3>
6.25

>  <5-HT5>
5.91

>  <5-HT6>
6.32

>  <5-HT7>
7.81

>  <Alpha-1A>
7.59

>  <Alpha-1B>
7.46

>  <Alpha-2A>
7.13

>  <Alpha-2B>
6.99

>  <Alpha-2C>
7.42

>  <Beta-1>
6.85

>  <Beta-2>
6.79

>  <DOPAMINE D1>
6.06

>  <DOPAMINE D2>
8.72

>  <DOPAMINE D3>
8.45

>  <DOPAMINE D4>
6.51

>  <DOPAMINE D5>
5.69

>  <Dopamine transporter>
5.49

>  <HISTAMINE H1>
7.56

>  <HISTAMINE H2>
5

>  <HISTAMINE H4>
5

>  <Muscarinic acetylcholine receptor M1>
5.17

>  <Muscarinic acetylcholine receptor M2>
5.45

>  <Muscarinic acetylcholine receptor M3>
5.33

>  <Muscarinic acetylcholine receptor M4>
5.82

>  <Muscarinic acetylcholine receptor M5>
5.63

>  <Norepinephrine transporter>
5.68

>  <Serotonin transporter>
6.48

$$$$
Atomoxetine
  Marvin  02231216192D 0   1.00000     0.00000     0

 19 20  0  0  1  0  0  0  0  0999 V2000
   -0.2008    0.4420    0.0000 O   0  0  0  0  0  0  0  0  0
    0.5136    0.8545    0.0000 C   0  0  0  0  0  0  0  0  0
    1.2281    0.4420    0.0000 C   0  0  0  0  0  0  0  0  0
    1.9426    0.8545    0.0000 C   0  0  0  0  0  0  0  0  0
    2.6570    0.4420    0.0000 N   0  0  0  0  0  0  0  0  0
    2.6570   -0.3830    0.0000 C   0  0  0  0  0  0  0  0  0
    0.5136    1.6795    0.0000 C   0  0  0  0  0  0  0  0  0
   -0.2008    2.0920    0.0000 C   0  0  0  0  0  0  0  0  0
   -0.2008    2.9170    0.0000 C   0  0  0  0  0  0  0  0  0
    0.5136    3.3295    0.0000 C   0  0  0  0  0  0  0  0  0
    1.2281    2.9170    0.0000 C   0  0  0  0  0  0  0  0  0
    1.2281    2.0920    0.0000 C   0  0  0  0  0  0  0  0  0
   -0.2008   -0.3830    0.0000 C   0  0  0  0  0  0  0  0  0
    0.5136   -0.7955    0.0000 C   0  0  0  0  0  0  0  0  0
    0.5136   -1.6205    0.0000 C   0  0  0  0  0  0  0  0  0
   -0.2008   -2.0330    0.0000 C   0  0  0  0  0  0  0  0  0
   -0.9153   -1.6205    0.0000 C   0  0  0  0  0  0  0  0  0
   -0.9153   -0.7955    0.0000 C   0  0  0  0  0  0  0  0  0
   -1.6298   -0.3830    0.0000 C   0  0  0  0  0  0  0  0  0
  1  2  1  0  0  0  0
  1 13  1  0  0  0  0
  2  3  1  0  0  0  0
  2  7  1  0  0  0  0
  3  4  1  0  0  0  0
  4  5  1  0  0  0  0
  5  6  1  0  0  0  0
  7  8  4  0  0  0  0
  7 12  4  0  0  0  0
  8  9  4  0  0  0  0
  9 10  4  0  0  0  0
 10 11  4  0  0  0  0
 11 12  4  0  0  0  0
 13 14  4  0  0  0  0
 13 18  4  0  0  0  0
 14 15  4  0  0  0  0
 15 16  4  0  0  0  0
 16 17  4  0  0  0  0
 17 18  4  0  0  0  0
 18 19  1  0  0  0  0
M  END
>  <Name_Molregno>
Atomoxetine

>  <5-HT1A>
5.5

>  <5-HT1B>
6

>  <5-HT1D>
6

>  <5-HT2A>
6

>  <5-HT2C>
6

>  <5-HT6>
6

>  <5-HT7>
6

>  <Alpha-2A>
6

>  <DOPAMINE D2>
5.5

>  <Dopamine transporter>
5.88

>  <HISTAMINE H1>
5.63

>  <Muscarinic acetylcholine receptor M1>
6

>  <Muscarinic acetylcholine receptor M2>
6

>  <Norepinephrine transporter>
8.43

>  <Serotonin transporter>
7.42

$$$$
B-HT920
  Marvin  02231216192D 0   1.00000     0.00000     0

 14 15  0  0  0  0  0  0  0  0999 V2000
   -3.1193    0.1933    0.0000 S   0  0  0  0  0  0  0  0  0
   -2.3347   -0.0617    0.0000 C   0  0  0  0  0  0  0  0  0
   -1.6896    0.4527    0.0000 C   0  0  0  0  0  0  0  0  0
   -0.8853    0.2691    0.0000 C   0  0  0  0  0  0  0  0  0
   -0.5274   -0.4742    0.0000 N   0  0  0  0  0  0  0  0  0
   -0.8853   -1.2175    0.0000 C   0  0  0  0  0  0  0  0  0
   -1.6896   -1.4010    0.0000 C   0  0  0  0  0  0  0  0  0
   -2.3347   -0.8867    0.0000 C   0  0  0  0  0  0  0  0  0
   -3.1193   -1.1416    0.0000 N   0  0  0  0  0  0  0  0  0
   -3.6042   -0.4742    0.0000 C   0  0  0  0  0  0  0  0  0
   -4.4292   -0.4742    0.0000 N   0  0  0  0  0  0  0  0  0
    0.2976   -0.4742    0.0000 C   0  0  0  0  0  0  0  0  0
    0.7101   -1.1886    0.0000 C   0  0  0  0  0  0  0  0  0
    1.5351   -1.1886    0.0000 C   0  0  0  0  0  0  0  0  0
  1  2  4  0  0  0  0
  1 10  4  0  0  0  0
  2  3  1  0  0  0  0
  2  8  4  0  0  0  0
  3  4  1  0  0  0  0
  4  5  1  0  0  0  0
  5  6  1  0  0  0  0
  5 12  1  0  0  0  0
  6  7  1  0  0  0  0
  7  8  1  0  0  0  0
  8  9  4  0  0  0  0
  9 10  4  0  0  0  0
 10 11  1  0  0  0  0
 12 13  1  0  0  0  0
 13 14  2  0  0  0  0
M  END
>  <Name_Molregno>
B-HT920

>  <5-HT1A>
5.77

>  <5-HT1B>
5

>  <5-HT1D>
5

>  <5-HT2A>
5

>  <5-HT2C>
5

>  <Alpha-1A>
5

>  <Alpha-1B>
5.41

>  <Alpha-2A>
6.91

>  <Alpha-2B>
6.69

>  <Alpha-2C>
6.69

>  <Beta-1>
5

>  <Beta-2>
5

>  <DOPAMINE D1>
5

>  <DOPAMINE D2>
6.88

>  <DOPAMINE D3>
7.8

>  <DOPAMINE D4>
6.48

>  <DOPAMINE D5>
5.46

$$$$
BRL44408
  Marvin  02231216192D 0   1.00000     0.00000     0

 16 18  0  0  1  0  0  0  0  0999 V2000
    0.3712   -1.5536    0.0000 N   0  0  0  0  0  0  0  0  0
   -0.2419   -2.1056    0.0000 C   0  0  0  0  0  0  0  0  0
   -0.9564   -1.6931    0.0000 C   0  0  0  0  0  0  0  0  0
   -0.7848   -0.8861    0.0000 N   0  0  0  0  0  0  0  0  0
    0.0356   -0.7999    0.0000 C   0  0  0  0  0  0  0  0  0
    0.4481   -0.0854    0.0000 C   0  0  0  0  0  0  0  0  0
    1.2731   -0.0854    0.0000 N   0  0  0  0  0  0  0  0  0
    1.7581   -0.7529    0.0000 C   0  0  0  0  0  0  0  0  0
    2.5427   -0.4979    0.0000 C   0  0  0  0  0  0  0  0  0
    2.5427    0.3271    0.0000 C   0  0  0  0  0  0  0  0  0
    3.2572    0.7396    0.0000 C   0  0  0  0  0  0  0  0  0
    3.9716    0.3271    0.0000 C   0  0  0  0  0  0  0  0  0
    3.9716   -0.4979    0.0000 C   0  0  0  0  0  0  0  0  0
    3.2572   -0.9104    0.0000 C   0  0  0  0  0  0  0  0  0
    1.7581    0.5820    0.0000 C   0  0  0  0  0  0  0  0  0
    1.5031    1.3666    0.0000 C   0  0  0  0  0  0  0  0  0
  1  2  1  0  0  0  0
  1  5  1  0  0  0  0
  2  3  1  0  0  0  0
  3  4  1  0  0  0  0
  4  5  2  0  0  0  0
  5  6  1  0  0  0  0
  6  7  1  0  0  0  0
  7  8  1  0  0  0  0
  7 15  1  0  0  0  0
  8  9  1  0  0  0  0
  9 10  4  0  0  0  0
  9 14  4  0  0  0  0
 10 11  4  0  0  0  0
 10 15  1  0  0  0  0
 11 12  4  0  0  0  0
 12 13  4  0  0  0  0
 13 14  4  0  0  0  0
 15 16  1  0  0  0  0
M  END
>  <Name_Molregno>
BRL44408

>  <Alpha-2A>
8.25

>  <Alpha-2B>
6.19

$$$$
BROMOCRIPTINE
  Marvin  02231216192D 0   1.00000     0.00000     0

 43 49  0  0  1  0  0  0  0  0999 V2000
    6.2699    4.4922    0.0000 Br  0  0  0  0  0  0  0  0  0
    6.7473    3.8193    0.0000 C   0  0  0  0  0  0  0  0  0
    7.5723    3.8193    0.0000 N   0  0  0  0  0  0  0  0  0
    7.8776    2.9622    0.0000 C   0  0  0  0  0  0  0  0  0
    7.1598    2.5497    0.0000 C   0  0  0  0  0  0  0  0  0
    6.4473    2.9622    0.0000 C   0  0  0  0  0  0  0  0  0
    5.7348    2.5497    0.0000 C   0  0  0  0  0  0  0  0  0
    5.7348    1.7247    0.0000 C   0  0  0  0  0  0  0  0  0
    5.0198    1.3130    0.0000 N   0  0  0  0  0  0  0  0  0
    5.0188    0.4880    0.0000 C   0  0  0  0  0  0  0  0  0
    5.7328    0.0747    0.0000 C   0  0  0  0  0  0  0  0  0
    6.4478    0.4863    0.0000 C   0  0  0  0  0  0  0  0  0
    6.4488    1.3113    0.0000 C   0  0  0  0  0  0  0  0  0
    7.1598    1.7247    0.0000 C   0  0  0  0  0  0  0  0  0
    7.8776    1.3122    0.0000 C   0  0  0  0  0  0  0  0  0
    8.5901    1.7247    0.0000 C   0  0  0  0  0  0  0  0  0
    8.5901    2.5497    0.0000 C   0  0  0  0  0  0  0  0  0
    5.7318   -0.7503    0.0000 C   0  0  0  0  0  0  0  0  0
    6.4458   -1.1637    0.0000 O   0  0  0  0  0  0  0  0  0
    5.0168   -1.1620    0.0000 N   0  0  0  0  0  0  0  0  0
    5.0159   -1.9870    0.0000 C   0  0  0  0  0  0  0  0  0
    5.1864   -2.7941    0.0000 O   0  0  0  0  0  0  0  0  0
    4.4715   -3.2058    0.0000 C   0  0  0  0  0  0  0  0  0
    5.1383   -3.6915    0.0000 O   0  0  0  0  0  0  0  0  0
    3.8590   -2.6530    0.0000 N   0  0  0  0  0  0  0  0  0
    3.0741   -2.9070    0.0000 C   0  0  0  0  0  0  0  0  0
    2.4617   -2.3543    0.0000 C   0  0  0  0  0  0  0  0  0
    1.6767   -2.6083    0.0000 C   0  0  0  0  0  0  0  0  0
    1.0643   -2.0555    0.0000 C   0  0  0  0  0  0  0  0  0
    1.5042   -3.4150    0.0000 C   0  0  0  0  0  0  0  0  0
    2.9016   -3.7138    0.0000 C   0  0  0  0  0  0  0  0  0
    2.1167   -3.9678    0.0000 O   0  0  0  0  0  0  0  0  0
    3.5140   -4.2665    0.0000 N   0  0  0  0  0  0  0  0  0
    4.2990   -4.0125    0.0000 C   0  0  0  0  0  0  0  0  0
    4.7831   -4.6806    0.0000 C   0  0  0  0  0  0  0  0  0
    4.2974   -5.3474    0.0000 C   0  0  0  0  0  0  0  0  0
    3.5131   -5.0915    0.0000 C   0  0  0  0  0  0  0  0  0
    4.1955   -1.8997    0.0000 C   0  0  0  0  0  0  0  0  0
    3.7838   -1.1848    0.0000 O   0  0  0  0  0  0  0  0  0
    5.8364   -1.9017    0.0000 C   0  0  0  0  0  0  0  0  0
    6.5514   -1.4901    0.0000 C   0  0  0  0  0  0  0  0  0
    6.3206   -2.5697    0.0000 C   0  0  0  0  0  0  0  0  0
    4.3058    1.7264    0.0000 C   0  0  0  0  0  0  0  0  0
  1  2  1  0  0  0  0
  2  3  4  0  0  0  0
  2  6  4  0  0  0  0
  3  4  4  0  0  0  0
  4  5  4  0  0  0  0
  4 17  4  0  0  0  0
  5  6  4  0  0  0  0
  5 14  4  0  0  0  0
  6  7  1  0  0  0  0
  7  8  1  0  0  0  0
  8  9  1  0  0  0  0
  8 13  1  0  0  0  0
  9 10  1  0  0  0  0
  9 43  1  0  0  0  0
 10 11  1  0  0  0  0
 11 12  1  0  0  0  0
 11 18  1  0  0  0  0
 12 13  2  0  0  0  0
 13 14  1  0  0  0  0
 14 15  4  0  0  0  0
 15 16  4  0  0  0  0
 16 17  4  0  0  0  0
 18 19  2  0  0  0  0
 18 20  1  0  0  0  0
 20 21  1  0  0  0  0
 21 22  1  0  0  0  0
 21 38  1  0  0  0  0
 21 40  1  0  0  0  0
 22 23  1  0  0  0  0
 23 24  1  0  0  0  0
 23 25  1  0  0  0  0
 23 34  1  0  0  0  0
 25 26  1  0  0  0  0
 25 38  1  0  0  0  0
 26 27  1  0  0  0  0
 26 31  1  0  0  0  0
 27 28  1  0  0  0  0
 28 29  1  0  0  0  0
 28 30  1  0  0  0  0
 31 32  2  0  0  0  0
 31 33  1  0  0  0  0
 33 34  1  0  0  0  0
 33 37  1  0  0  0  0
 34 35  1  0  0  0  0
 35 36  1  0  0  0  0
 36 37  1  0  0  0  0
 38 39  2  0  0  0  0
 40 41  1  0  0  0  0
 40 42  1  0  0  0  0
M  STY  1   1 DAT
M  SAL   1  1   3
M  SDT   1 MRV_IMPLICIT_H                                        
M  SDD   1     0.0000    0.0000    DR    ALL  0       0  
M  SED   1 IMPL_H1
M  END
>  <Name_Molregno>
BROMOCRIPTINE

>  <5-HT1A>
7.7

>  <5-HT1B>
6.45

>  <5-HT1D>
7.97

>  <5-HT2A>
6.97

>  <5-HT2C>
6.13

>  <5-HT6>
7.39

>  <Alpha-1A>
8.38

>  <Alpha-1B>
8.86

>  <Alpha-2A>
7.96

>  <Alpha-2B>
7.46

>  <Alpha-2C>
7.55

>  <Beta-1>
6.23

>  <Beta-2>
6.13

>  <DOPAMINE D1>
6

>  <DOPAMINE D2>
8.31

>  <DOPAMINE D3>
8.02

>  <DOPAMINE D4>
6.33

>  <DOPAMINE D5>
6.31

$$$$
Cabergoline
  Marvin  02231216192D 0   1.00000     0.00000     0

 33 36  0  0  1  0  0  0  0  0999 V2000
    0.1488   -3.1643    0.0000 O   0  0  0  0  0  0  0  0  0
   -0.5651   -2.7509    0.0000 C   0  0  0  0  0  0  0  0  0
   -1.2801   -3.1625    0.0000 N   0  0  0  0  0  0  0  0  0
   -1.2811   -3.9875    0.0000 C   0  0  0  0  0  0  0  0  0
   -1.9961   -4.3992    0.0000 C   0  0  0  0  0  0  0  0  0
   -1.9970   -5.2242    0.0000 C   0  0  0  0  0  0  0  0  0
   -2.7120   -5.6358    0.0000 N   0  0  0  0  0  0  0  0  0
   -2.7130   -6.4608    0.0000 C   0  0  0  0  0  0  0  0  0
   -3.4260   -5.2225    0.0000 C   0  0  0  0  0  0  0  0  0
   -1.9941   -2.7492    0.0000 C   0  0  0  0  0  0  0  0  0
   -2.7090   -3.1608    0.0000 O   0  0  0  0  0  0  0  0  0
   -1.9931   -1.9242    0.0000 N   0  0  0  0  0  0  0  0  0
   -2.7071   -1.5108    0.0000 C   0  0  0  0  0  0  0  0  0
   -3.4220   -1.9225    0.0000 C   0  0  0  0  0  0  0  0  0
   -0.5641   -1.9259    0.0000 C   0  0  0  0  0  0  0  0  0
    0.1508   -1.5143    0.0000 C   0  0  0  0  0  0  0  0  0
    0.1518   -0.6893    0.0000 C   0  0  0  0  0  0  0  0  0
   -0.5622   -0.2759    0.0000 C   0  0  0  0  0  0  0  0  0
   -1.2771   -0.6875    0.0000 N   0  0  0  0  0  0  0  0  0
   -1.2781   -1.5125    0.0000 C   0  0  0  0  0  0  0  0  0
   -1.9911   -0.2742    0.0000 C   0  0  0  0  0  0  0  0  0
   -2.7061   -0.6858    0.0000 C   0  0  0  0  0  0  0  0  0
   -3.4201   -0.2725    0.0000 C   0  0  0  0  0  0  0  0  0
   -0.5607    0.5482    0.0000 C   0  0  0  0  0  0  0  0  0
    0.1518    0.9607    0.0000 C   0  0  0  0  0  0  0  0  0
    0.8643    0.5482    0.0000 C   0  0  0  0  0  0  0  0  0
    0.8643   -0.2768    0.0000 C   0  0  0  0  0  0  0  0  0
    1.5822   -0.6893    0.0000 C   0  0  0  0  0  0  0  0  0
    2.2947   -0.2768    0.0000 C   0  0  0  0  0  0  0  0  0
    2.2947    0.5482    0.0000 C   0  0  0  0  0  0  0  0  0
    1.5822    0.9607    0.0000 C   0  0  0  0  0  0  0  0  0
    1.2768    1.8179    0.0000 N   0  0  0  0  0  0  0  0  0
    0.4518    1.8179    0.0000 C   0  0  0  0  0  0  0  0  0
  1  2  2  0  0  0  0
  2  3  1  0  0  0  0
  2 15  1  0  0  0  0
  3  4  1  0  0  0  0
  3 10  1  0  0  0  0
  4  5  1  0  0  0  0
  5  6  1  0  0  0  0
  6  7  1  0  0  0  0
  7  8  1  0  0  0  0
  7  9  1  0  0  0  0
 10 11  2  0  0  0  0
 10 12  1  0  0  0  0
 12 13  1  0  0  0  0
 13 14  1  0  0  0  0
 15 16  1  0  0  0  0
 15 20  1  0  0  0  0
 16 17  1  0  0  0  0
 17 18  1  0  0  0  0
 17 27  1  0  0  0  0
 18 19  1  0  0  0  0
 18 24  1  0  0  0  0
 19 20  1  0  0  0  0
 19 21  1  0  0  0  0
 21 22  1  0  0  0  0
 22 23  2  0  0  0  0
 24 25  1  0  0  0  0
 25 26  4  0  0  0  0
 25 33  4  0  0  0  0
 26 27  4  0  0  0  0
 26 31  4  0  0  0  0
 27 28  4  0  0  0  0
 28 29  4  0  0  0  0
 29 30  4  0  0  0  0
 30 31  4  0  0  0  0
 31 32  4  0  0  0  0
 32 33  4  0  0  0  0
M  STY  1   1 DAT
M  SAL   1  1  32
M  SDT   1 MRV_IMPLICIT_H                                        
M  SDD   1     0.0000    0.0000    DR    ALL  0       0  
M  SED   1 IMPL_H1
M  END
>  <Name_Molregno>
Cabergoline

>  <5-HT1A>
7.7

>  <5-HT1B>
6.32

>  <5-HT1D>
8.06

>  <5-HT2A>
8.21

>  <5-HT2C>
6.16

>  <Alpha-1A>
6.54

>  <Alpha-1B>
7.22

>  <Alpha-2A>
7.92

>  <Alpha-2B>
7.14

>  <Alpha-2C>
7.65

>  <Beta-1>
5

>  <Beta-2>
5

>  <DOPAMINE D1>
6.67

>  <DOPAMINE D2>
9.12

>  <DOPAMINE D3>
9.1

>  <DOPAMINE D4>
7.25

>  <DOPAMINE D5>
7.65

$$$$
Cathinone
  Marvin  02231216192D 0   1.00000     0.00000     0

 11 11  0  0  1  0  0  0  0  0999 V2000
    1.9974    0.2298    0.0000 O   0  0  0  0  0  0  0  0  0
    1.2829   -0.1827    0.0000 C   0  0  0  0  0  0  0  0  0
    0.5684    0.2298    0.0000 C   0  0  0  0  0  0  0  0  0
    0.5684    1.0548    0.0000 N   0  0  0  0  0  0  0  0  0
   -0.1461   -0.1827    0.0000 C   0  0  0  0  0  0  0  0  0
    1.2829   -1.0077    0.0000 C   0  0  0  0  0  0  0  0  0
    1.9974   -1.4202    0.0000 C   0  0  0  0  0  0  0  0  0
    1.9974   -2.2452    0.0000 C   0  0  0  0  0  0  0  0  0
    1.2829   -2.6577    0.0000 C   0  0  0  0  0  0  0  0  0
    0.5684   -2.2452    0.0000 C   0  0  0  0  0  0  0  0  0
    0.5684   -1.4202    0.0000 C   0  0  0  0  0  0  0  0  0
  1  2  2  0  0  0  0
  2  3  1  0  0  0  0
  2  6  1  0  0  0  0
  3  4  1  0  0  0  0
  3  5  1  0  0  0  0
  6  7  4  0  0  0  0
  6 11  4  0  0  0  0
  7  8  4  0  0  0  0
  8  9  4  0  0  0  0
  9 10  4  0  0  0  0
 10 11  4  0  0  0  0
M  END
>  <Name_Molregno>
Cathinone

>  <5-HT1A>
5

>  <5-HT1B>
5

>  <5-HT1D>
5

>  <5-HT1E>
5

>  <5-HT3>
5

>  <5-HT5>
5

>  <5-HT6>
5

>  <5-HT7>
5.57

>  <Alpha-1A>
5

>  <Alpha-1B>
5

>  <Alpha-2A>
5.17

>  <Alpha-2B>
6.04

>  <Alpha-2C>
6.12

>  <Beta-1>
5

>  <Beta-2>
5

>  <DOPAMINE D1>
5

>  <DOPAMINE D2>
5

>  <DOPAMINE D4>
5

>  <DOPAMINE D5>
5

>  <Dopamine transporter>
6.37

>  <HISTAMINE H1>
5

>  <HISTAMINE H2>
5

>  <HISTAMINE H4>
5

>  <Muscarinic acetylcholine receptor M1>
5

>  <Muscarinic acetylcholine receptor M2>
5

>  <Muscarinic acetylcholine receptor M3>
5

>  <Muscarinic acetylcholine receptor M4>
5

>  <Muscarinic acetylcholine receptor M5>
5

>  <Norepinephrine transporter>
6.76

>  <Serotonin transporter>
5.32

$$$$
CELECOXIB
  Marvin  02231216192D 0   1.00000     0.00000     0

 26 28  0  0  0  0  0  0  0  0999 V2000
   -2.2304    2.3034    0.0000 S   0  0  0  0  0  0  0  0  0
   -2.2304    3.1284    0.0000 O   0  0  0  0  0  0  0  0  0
   -3.0554    2.3034    0.0000 O   0  0  0  0  0  0  0  0  0
   -1.4054    2.3034    0.0000 N   0  0  0  0  0  0  0  0  0
   -2.2304    1.4784    0.0000 C   0  0  0  0  0  0  0  0  0
   -1.5159    1.0659    0.0000 C   0  0  0  0  0  0  0  0  0
   -1.5159    0.2409    0.0000 C   0  0  0  0  0  0  0  0  0
   -2.2304   -0.1716    0.0000 C   0  0  0  0  0  0  0  0  0
   -2.2304   -0.9966    0.0000 N   0  0  0  0  0  0  0  0  0
   -1.5629   -1.4815    0.0000 N   0  0  0  0  0  0  0  0  0
   -1.8179   -2.2662    0.0000 C   0  0  0  0  0  0  0  0  0
   -2.6429   -2.2662    0.0000 C   0  0  0  0  0  0  0  0  0
   -2.8978   -1.4815    0.0000 C   0  0  0  0  0  0  0  0  0
   -3.6824   -1.2266    0.0000 C   0  0  0  0  0  0  0  0  0
   -4.2955   -1.7786    0.0000 C   0  0  0  0  0  0  0  0  0
   -5.0802   -1.5237    0.0000 C   0  0  0  0  0  0  0  0  0
   -5.2517   -0.7167    0.0000 C   0  0  0  0  0  0  0  0  0
   -4.6386   -0.1647    0.0000 C   0  0  0  0  0  0  0  0  0
   -3.8540   -0.4196    0.0000 C   0  0  0  0  0  0  0  0  0
   -6.0363   -0.4618    0.0000 C   0  0  0  0  0  0  0  0  0
   -1.3330   -2.9336    0.0000 C   0  0  0  0  0  0  0  0  0
   -0.8480   -3.6010    0.0000 F   0  0  0  0  0  0  0  0  0
   -2.0004   -3.4185    0.0000 F   0  0  0  0  0  0  0  0  0
   -0.6655   -2.4487    0.0000 F   0  0  0  0  0  0  0  0  0
   -2.9448    0.2409    0.0000 C   0  0  0  0  0  0  0  0  0
   -2.9448    1.0659    0.0000 C   0  0  0  0  0  0  0  0  0
  1  2  2  0  0  0  0
  1  3  2  0  0  0  0
  1  4  1  0  0  0  0
  1  5  1  0  0  0  0
  5  6  4  0  0  0  0
  5 26  4  0  0  0  0
  6  7  4  0  0  0  0
  7  8  4  0  0  0  0
  8  9  1  0  0  0  0
  8 25  4  0  0  0  0
  9 10  4  0  0  0  0
  9 13  4  0  0  0  0
 10 11  4  0  0  0  0
 11 12  4  0  0  0  0
 11 21  1  0  0  0  0
 12 13  4  0  0  0  0
 13 14  1  0  0  0  0
 14 15  4  0  0  0  0
 14 19  4  0  0  0  0
 15 16  4  0  0  0  0
 16 17  4  0  0  0  0
 17 18  4  0  0  0  0
 17 20  1  0  0  0  0
 18 19  4  0  0  0  0
 21 22  1  0  0  0  0
 21 23  1  0  0  0  0
 21 24  1  0  0  0  0
 25 26  4  0  0  0  0
M  END
>  <Name_Molregno>
CELECOXIB

>  <5-HT1A>
5

>  <5-HT1B>
5

>  <5-HT1D>
5

>  <5-HT1E>
5

>  <5-HT2A>
5

>  <5-HT3>
5

>  <5-HT6>
5

>  <5-HT7>
5

>  <Alpha-1A>
5

>  <Alpha-1B>
5

>  <Alpha-2A>
5

>  <Alpha-2B>
5

>  <Alpha-2C>
5

>  <DOPAMINE D1>
5

>  <DOPAMINE D2>
5

>  <DOPAMINE D4>
5

>  <DOPAMINE D5>
5

>  <Dopamine transporter>
6.18

>  <HISTAMINE H1>
5

>  <HISTAMINE H2>
5

>  <Muscarinic acetylcholine receptor M2>
5

>  <Muscarinic acetylcholine receptor M5>
5

>  <Norepinephrine transporter>
5

>  <Serotonin transporter>
5

$$$$
CHLORIMIPRAMINE
  Marvin  02231216192D 0   1.00000     0.00000     0

 22 24  0  0  0  0  0  0  0  0999 V2000
   -3.6433    1.4834    0.0000 Cl  0  0  0  0  0  0  0  0  0
   -3.8269    0.6791    0.0000 C   0  0  0  0  0  0  0  0  0
   -3.2221    0.1179    0.0000 C   0  0  0  0  0  0  0  0  0
   -3.4057   -0.6864    0.0000 C   0  0  0  0  0  0  0  0  0
   -2.7241   -1.1511    0.0000 N   0  0  0  0  0  0  0  0  0
   -2.6624   -1.9738    0.0000 C   0  0  0  0  0  0  0  0  0
   -3.2672   -2.5350    0.0000 C   0  0  0  0  0  0  0  0  0
   -4.0830   -2.4120    0.0000 C   0  0  0  0  0  0  0  0  0
   -4.4955   -1.6975    0.0000 C   0  0  0  0  0  0  0  0  0
   -4.1941   -0.9296    0.0000 C   0  0  0  0  0  0  0  0  0
   -4.7988   -0.3684    0.0000 C   0  0  0  0  0  0  0  0  0
   -4.6153    0.4359    0.0000 C   0  0  0  0  0  0  0  0  0
   -3.0836   -3.3393    0.0000 C   0  0  0  0  0  0  0  0  0
   -2.2953   -3.5825    0.0000 C   0  0  0  0  0  0  0  0  0
   -1.6905   -3.0213    0.0000 C   0  0  0  0  0  0  0  0  0
   -1.8741   -2.2170    0.0000 C   0  0  0  0  0  0  0  0  0
   -2.0096   -0.7386    0.0000 C   0  0  0  0  0  0  0  0  0
   -1.2951   -1.1511    0.0000 C   0  0  0  0  0  0  0  0  0
   -0.5807   -0.7386    0.0000 C   0  0  0  0  0  0  0  0  0
    0.1338   -1.1511    0.0000 N   0  0  0  0  0  0  0  0  0
    0.8483   -0.7386    0.0000 C   0  0  0  0  0  0  0  0  0
    0.1338   -1.9761    0.0000 C   0  0  0  0  0  0  0  0  0
  1  2  1  0  0  0  0
  2  3  4  0  0  0  0
  2 12  4  0  0  0  0
  3  4  4  0  0  0  0
  4  5  1  0  0  0  0
  4 10  4  0  0  0  0
  5  6  1  0  0  0  0
  5 17  1  0  0  0  0
  6  7  4  0  0  0  0
  6 16  4  0  0  0  0
  7  8  1  0  0  0  0
  7 13  4  0  0  0  0
  8  9  1  0  0  0  0
  9 10  1  0  0  0  0
 10 11  4  0  0  0  0
 11 12  4  0  0  0  0
 13 14  4  0  0  0  0
 14 15  4  0  0  0  0
 15 16  4  0  0  0  0
 17 18  1  0  0  0  0
 18 19  1  0  0  0  0
 19 20  1  0  0  0  0
 20 21  1  0  0  0  0
 20 22  1  0  0  0  0
M  END
>  <Name_Molregno>
CHLORIMIPRAMINE

>  <5-HT1A>
5

>  <5-HT1B>
5

>  <5-HT1D>
5

>  <5-HT2A>
7.45

>  <5-HT2C>
7.19

>  <Alpha-1A>
8.49

>  <Alpha-2A>
6.28

>  <DOPAMINE D1>
6.66

>  <DOPAMINE D2>
6.95

>  <DOPAMINE D3>
7.41

>  <Dopamine transporter>
5.61

>  <Norepinephrine transporter>
7.37

>  <Serotonin transporter>
9.81

$$$$
CHLOROPHENYLPIPERAZINE
  Marvin  02231216192D 0   1.00000     0.00000     0

 13 14  0  0  0  0  0  0  0  0999 V2000
    1.2605    1.9269    0.0000 Cl  0  0  0  0  0  0  0  0  0
    1.2605    1.1019    0.0000 C   0  0  0  0  0  0  0  0  0
    1.9750    0.6894    0.0000 C   0  0  0  0  0  0  0  0  0
    1.9750   -0.1356    0.0000 C   0  0  0  0  0  0  0  0  0
    2.6894   -0.5481    0.0000 N   0  0  0  0  0  0  0  0  0
    3.4039   -0.1356    0.0000 C   0  0  0  0  0  0  0  0  0
    4.1184   -0.5481    0.0000 C   0  0  0  0  0  0  0  0  0
    4.1184   -1.3731    0.0000 N   0  0  0  0  0  0  0  0  0
    3.4039   -1.7856    0.0000 C   0  0  0  0  0  0  0  0  0
    2.6894   -1.3731    0.0000 C   0  0  0  0  0  0  0  0  0
    1.2605   -0.5481    0.0000 C   0  0  0  0  0  0  0  0  0
    0.5460   -0.1356    0.0000 C   0  0  0  0  0  0  0  0  0
    0.5460    0.6894    0.0000 C   0  0  0  0  0  0  0  0  0
  1  2  1  0  0  0  0
  2  3  4  0  0  0  0
  2 13  4  0  0  0  0
  3  4  4  0  0  0  0
  4  5  1  0  0  0  0
  4 11  4  0  0  0  0
  5  6  1  0  0  0  0
  5 10  1  0  0  0  0
  6  7  1  0  0  0  0
  7  8  1  0  0  0  0
  8  9  1  0  0  0  0
  9 10  1  0  0  0  0
 11 12  4  0  0  0  0
 12 13  4  0  0  0  0
M  END
>  <Name_Molregno>
CHLOROPHENYLPIPERAZINE

>  <5-HT1A>
6.88

>  <5-HT1B>
6.72

>  <5-HT1D>
6.23

>  <5-HT2A>
7.01

>  <5-HT2C>
7.55

>  <5-HT3>
6.37

>  <5-HT5>
5.87

>  <5-HT6>
5.7

>  <5-HT7>
6.79

>  <Alpha-1A>
5.86

>  <Alpha-1B>
6.04

>  <Alpha-2A>
6.84

>  <Alpha-2B>
6.98

>  <Alpha-2C>
6.91

>  <Beta-1>
5.63

>  <Beta-2>
5.46

>  <DOPAMINE D1>
5.15

>  <DOPAMINE D2>
5

>  <DOPAMINE D5>
5

>  <HISTAMINE H1>
6.49

>  <Norepinephrine transporter>
5.36

>  <Serotonin transporter>
6.13

$$$$
CHLORPROMAZINE
  Marvin  02231216192D 0   1.00000     0.00000     0

 21 23  0  0  0  0  0  0  0  0999 V2000
   -1.3730   -3.5598    0.0000 Cl  0  0  0  0  0  0  0  0  0
   -2.0875   -3.1473    0.0000 C   0  0  0  0  0  0  0  0  0
   -2.0875   -2.3223    0.0000 C   0  0  0  0  0  0  0  0  0
   -2.8019   -1.9098    0.0000 C   0  0  0  0  0  0  0  0  0
   -2.8019   -1.0848    0.0000 N   0  0  0  0  0  0  0  0  0
   -3.5164   -0.6723    0.0000 C   0  0  0  0  0  0  0  0  0
   -4.2309   -1.0848    0.0000 C   0  0  0  0  0  0  0  0  0
   -4.2309   -1.9098    0.0000 S   0  0  0  0  0  0  0  0  0
   -3.5164   -2.3223    0.0000 C   0  0  0  0  0  0  0  0  0
   -3.5164   -3.1473    0.0000 C   0  0  0  0  0  0  0  0  0
   -2.8019   -3.5598    0.0000 C   0  0  0  0  0  0  0  0  0
   -4.9453   -0.6723    0.0000 C   0  0  0  0  0  0  0  0  0
   -4.9453    0.1527    0.0000 C   0  0  0  0  0  0  0  0  0
   -4.2309    0.5652    0.0000 C   0  0  0  0  0  0  0  0  0
   -3.5164    0.1527    0.0000 C   0  0  0  0  0  0  0  0  0
   -2.0875   -0.6723    0.0000 C   0  0  0  0  0  0  0  0  0
   -1.3730   -1.0848    0.0000 C   0  0  0  0  0  0  0  0  0
   -0.6585   -0.6723    0.0000 C   0  0  0  0  0  0  0  0  0
    0.0560   -1.0848    0.0000 N   0  0  0  0  0  0  0  0  0
    0.7704   -0.6723    0.0000 C   0  0  0  0  0  0  0  0  0
    0.0560   -1.9098    0.0000 C   0  0  0  0  0  0  0  0  0
  1  2  1  0  0  0  0
  2  3  4  0  0  0  0
  2 11  4  0  0  0  0
  3  4  4  0  0  0  0
  4  5  1  0  0  0  0
  4  9  4  0  0  0  0
  5  6  1  0  0  0  0
  5 16  1  0  0  0  0
  6  7  4  0  0  0  0
  6 15  4  0  0  0  0
  7  8  1  0  0  0  0
  7 12  4  0  0  0  0
  8  9  1  0  0  0  0
  9 10  4  0  0  0  0
 10 11  4  0  0  0  0
 12 13  4  0  0  0  0
 13 14  4  0  0  0  0
 14 15  4  0  0  0  0
 16 17  1  0  0  0  0
 17 18  1  0  0  0  0
 18 19  1  0  0  0  0
 19 20  1  0  0  0  0
 19 21  1  0  0  0  0
M  END
>  <Name_Molregno>
CHLORPROMAZINE

>  <5-HT1A>
5.98

>  <5-HT1B>
5.83

>  <5-HT1D>
6.34

>  <5-HT1E>
6.46

>  <5-HT2A>
8.36

>  <5-HT2C>
7.74

>  <5-HT3>
6.01

>  <5-HT5>
6.93

>  <5-HT6>
7.59

>  <5-HT7>
7.54

>  <Alpha-1A>
9.55

>  <Alpha-1B>
9.09

>  <Alpha-2A>
6.71

>  <Alpha-2B>
7.81

>  <Alpha-2C>
7.36

>  <Beta-1>
5

>  <Beta-2>
5

>  <DOPAMINE D1>
7.1

>  <DOPAMINE D2>
8.51

>  <DOPAMINE D3>
8.58

>  <DOPAMINE D4>
8.03

>  <DOPAMINE D5>
6.82

>  <Dopamine transporter>
5

>  <HISTAMINE H1>
8.47

>  <HISTAMINE H2>
6.76

>  <HISTAMINE H3>
6

>  <HISTAMINE H4>
6.3

>  <Muscarinic acetylcholine receptor M1>
7.36

>  <Muscarinic acetylcholine receptor M2>
6.67

>  <Muscarinic acetylcholine receptor M3>
7.25

>  <Muscarinic acetylcholine receptor M4>
7.11

>  <Muscarinic acetylcholine receptor M5>
7.5

>  <Norepinephrine transporter>
5.61

>  <Serotonin transporter>
6.54

$$$$
Cirazoline
  Marvin  02231216192D 0   1.00000     0.00000     0

 16 18  0  0  0  0  0  0  0  0999 V2000
   -0.4849    0.5579    0.0000 O   0  0  0  0  0  0  0  0  0
   -0.4849   -0.2671    0.0000 C   0  0  0  0  0  0  0  0  0
   -1.1994   -0.6796    0.0000 C   0  0  0  0  0  0  0  0  0
   -1.2856   -1.5001    0.0000 N   0  0  0  0  0  0  0  0  0
   -2.0926   -1.6716    0.0000 C   0  0  0  0  0  0  0  0  0
   -2.5051   -0.9571    0.0000 C   0  0  0  0  0  0  0  0  0
   -1.9531   -0.3440    0.0000 N   0  0  0  0  0  0  0  0  0
    0.2295    0.9704    0.0000 C   0  0  0  0  0  0  0  0  0
    0.2295    1.7954    0.0000 C   0  0  0  0  0  0  0  0  0
    0.9440    2.2079    0.0000 C   0  0  0  0  0  0  0  0  0
    1.6585    1.7954    0.0000 C   0  0  0  0  0  0  0  0  0
    1.6585    0.9704    0.0000 C   0  0  0  0  0  0  0  0  0
    0.9440    0.5579    0.0000 C   0  0  0  0  0  0  0  0  0
    0.9440   -0.2671    0.0000 C   0  0  0  0  0  0  0  0  0
    1.3565   -0.9815    0.0000 C   0  0  0  0  0  0  0  0  0
    0.5315   -0.9815    0.0000 C   0  0  0  0  0  0  0  0  0
  1  2  1  0  0  0  0
  1  8  1  0  0  0  0
  2  3  1  0  0  0  0
  3  4  1  0  0  0  0
  3  7  2  0  0  0  0
  4  5  1  0  0  0  0
  5  6  1  0  0  0  0
  6  7  1  0  0  0  0
  8  9  4  0  0  0  0
  8 13  4  0  0  0  0
  9 10  4  0  0  0  0
 10 11  4  0  0  0  0
 11 12  4  0  0  0  0
 12 13  4  0  0  0  0
 13 14  1  0  0  0  0
 14 15  1  0  0  0  0
 14 16  1  0  0  0  0
 15 16  1  0  0  0  0
M  END
>  <Name_Molregno>
Cirazoline

>  <Alpha-2A>
7.23

>  <Alpha-2B>
6.28

>  <Alpha-2C>
6.26

>  <HISTAMINE H3>
5

$$$$
cis-Thiothixene
  Marvin  02231216192D 0   1.00000     0.00000     0

 30 33  0  0  0  0  0  0  0  0999 V2000
    1.0940   -3.6931    0.0000 S   0  0  0  0  0  0  0  0  0
    1.8085   -3.2806    0.0000 C   0  0  0  0  0  0  0  0  0
    1.8085   -2.4556    0.0000 C   0  0  0  0  0  0  0  0  0
    2.5230   -2.0431    0.0000 C   0  0  0  0  0  0  0  0  0
    3.2375   -2.4556    0.0000 C   0  0  0  0  0  0  0  0  0
    3.9519   -2.0431    0.0000 S   0  0  0  0  0  0  0  0  0
    3.5394   -1.3286    0.0000 O   0  0  0  0  0  0  0  0  0
    4.3644   -2.7575    0.0000 O   0  0  0  0  0  0  0  0  0
    4.6664   -1.6306    0.0000 N   0  0  0  0  0  0  0  0  0
    5.3809   -2.0431    0.0000 C   0  0  0  0  0  0  0  0  0
    4.6664   -0.8056    0.0000 C   0  0  0  0  0  0  0  0  0
    3.2375   -3.2806    0.0000 C   0  0  0  0  0  0  0  0  0
    2.5230   -3.6931    0.0000 C   0  0  0  0  0  0  0  0  0
    1.0940   -2.0431    0.0000 C   0  0  0  0  0  0  0  0  0
    0.3796   -2.4556    0.0000 C   0  0  0  0  0  0  0  0  0
    0.3796   -3.2806    0.0000 C   0  0  0  0  0  0  0  0  0
   -0.3349   -3.6931    0.0000 C   0  0  0  0  0  0  0  0  0
   -1.0494   -3.2806    0.0000 C   0  0  0  0  0  0  0  0  0
   -1.0494   -2.4556    0.0000 C   0  0  0  0  0  0  0  0  0
   -0.3349   -2.0431    0.0000 C   0  0  0  0  0  0  0  0  0
    1.0940   -1.2181    0.0000 C   0  0  0  0  0  0  0  0  0
    0.3796   -0.8056    0.0000 C   0  0  0  0  0  0  0  0  0
   -0.3349   -1.2181    0.0000 C   0  0  0  0  0  0  0  0  0
   -1.0494   -0.8056    0.0000 N   0  0  0  0  0  0  0  0  0
   -1.7638   -1.2181    0.0000 C   0  0  0  0  0  0  0  0  0
   -2.4783   -0.8056    0.0000 C   0  0  0  0  0  0  0  0  0
   -2.4783    0.0194    0.0000 N   0  0  0  0  0  0  0  0  0
   -1.7638    0.4319    0.0000 C   0  0  0  0  0  0  0  0  0
   -1.0494    0.0194    0.0000 C   0  0  0  0  0  0  0  0  0
   -3.1928    0.4319    0.0000 C   0  0  0  0  0  0  0  0  0
  1  2  1  0  0  0  0
  1 16  1  0  0  0  0
  2  3  4  0  0  0  0
  2 13  4  0  0  0  0
  3  4  4  0  0  0  0
  3 14  1  0  0  0  0
  4  5  4  0  0  0  0
  5  6  1  0  0  0  0
  5 12  4  0  0  0  0
  6  7  2  0  0  0  0
  6  8  2  0  0  0  0
  6  9  1  0  0  0  0
  9 10  1  0  0  0  0
  9 11  1  0  0  0  0
 12 13  4  0  0  0  0
 14 15  1  0  0  0  0
 14 21  2  0  0  0  0
 15 16  4  0  0  0  0
 15 20  4  0  0  0  0
 16 17  4  0  0  0  0
 17 18  4  0  0  0  0
 18 19  4  0  0  0  0
 19 20  4  0  0  0  0
 21 22  1  0  0  0  0
 22 23  1  0  0  0  0
 23 24  1  0  0  0  0
 24 25  1  0  0  0  0
 24 29  1  0  0  0  0
 25 26  1  0  0  0  0
 26 27  1  0  0  0  0
 27 28  1  0  0  0  0
 27 30  1  0  0  0  0
 28 29  1  0  0  0  0
M  END
>  <Name_Molregno>
cis-Thiothixene

>  <5-HT1A>
6.39

>  <5-HT1B>
6.82

>  <5-HT1D>
6.18

>  <5-HT1E>
5

>  <5-HT2A>
7.42

>  <5-HT2C>
5.87

>  <5-HT3>
5.73

>  <5-HT5>
6.44

>  <5-HT6>
6.62

>  <5-HT7>
7.82

>  <Alpha-1A>
7.94

>  <Alpha-1B>
7.46

>  <Alpha-2A>
7.1

>  <Alpha-2B>
7.3

>  <Alpha-2C>
7.28

>  <Beta-1>
5

>  <Beta-2>
5

>  <DOPAMINE D1>
7.29

>  <DOPAMINE D2>
9.56

>  <DOPAMINE D3>
9.41

>  <DOPAMINE D4>
6.86

>  <DOPAMINE D5>
6.58

>  <Dopamine transporter>
5

>  <HISTAMINE H1>
8.23

>  <HISTAMINE H2>
6.39

>  <HISTAMINE H4>
5

>  <Muscarinic acetylcholine receptor M1>
5.3

>  <Muscarinic acetylcholine receptor M2>
5.34

>  <Muscarinic acetylcholine receptor M3>
5.27

>  <Muscarinic acetylcholine receptor M4>
5.4

>  <Muscarinic acetylcholine receptor M5>
5.32

>  <Norepinephrine transporter>
5

>  <Serotonin transporter>
5.41

$$$$
CITALOPRAM
  Marvin  02231216192D 0   1.00000     0.00000     0

 24 26  0  0  1  0  0  0  0  0999 V2000
   -2.6333   -5.3696    0.0000 F   0  0  0  0  0  0  0  0  0
   -2.2977   -4.6160    0.0000 C   0  0  0  0  0  0  0  0  0
   -2.7827   -3.9485    0.0000 C   0  0  0  0  0  0  0  0  0
   -2.4471   -3.1948    0.0000 C   0  0  0  0  0  0  0  0  0
   -1.6266   -3.1086    0.0000 C   0  0  0  0  0  0  0  0  0
   -1.1417   -3.7760    0.0000 C   0  0  0  0  0  0  0  0  0
   -1.4772   -4.5297    0.0000 C   0  0  0  0  0  0  0  0  0
   -1.2911   -2.3549    0.0000 C   0  0  0  0  0  0  0  0  0
   -0.8061   -1.6875    0.0000 O   0  0  0  0  0  0  0  0  0
   -1.2911   -1.0201    0.0000 C   0  0  0  0  0  0  0  0  0
   -2.0757   -1.2750    0.0000 C   0  0  0  0  0  0  0  0  0
   -2.0757   -2.1000    0.0000 C   0  0  0  0  0  0  0  0  0
   -2.7901   -2.5125    0.0000 C   0  0  0  0  0  0  0  0  0
   -3.5046   -2.1000    0.0000 C   0  0  0  0  0  0  0  0  0
   -3.5046   -1.2750    0.0000 C   0  0  0  0  0  0  0  0  0
   -2.7901   -0.8625    0.0000 C   0  0  0  0  0  0  0  0  0
   -4.2191   -0.8625    0.0000 C   0  0  0  0  0  0  0  0  0
   -4.9336   -0.4500    0.0000 N   0  0  0  0  0  0  0  0  0
   -0.5766   -2.7674    0.0000 C   0  0  0  0  0  0  0  0  0
    0.1379   -2.3549    0.0000 C   0  0  0  0  0  0  0  0  0
    0.8524   -2.7674    0.0000 C   0  0  0  0  0  0  0  0  0
    1.5668   -2.3549    0.0000 N   0  0  0  0  0  0  0  0  0
    1.5668   -1.5299    0.0000 C   0  0  0  0  0  0  0  0  0
    2.2813   -2.7674    0.0000 C   0  0  0  0  0  0  0  0  0
  1  2  1  0  0  0  0
  2  3  4  0  0  0  0
  2  7  4  0  0  0  0
  3  4  4  0  0  0  0
  4  5  4  0  0  0  0
  5  6  4  0  0  0  0
  5  8  1  0  0  0  0
  6  7  4  0  0  0  0
  8  9  1  0  0  0  0
  8 12  1  0  0  0  0
  8 19  1  0  0  0  0
  9 10  1  0  0  0  0
 10 11  1  0  0  0  0
 11 12  4  0  0  0  0
 11 16  4  0  0  0  0
 12 13  4  0  0  0  0
 13 14  4  0  0  0  0
 14 15  4  0  0  0  0
 15 16  4  0  0  0  0
 15 17  1  0  0  0  0
 17 18  3  0  0  0  0
 19 20  1  0  0  0  0
 20 21  1  0  0  0  0
 21 22  1  0  0  0  0
 22 23  1  0  0  0  0
 22 24  1  0  0  0  0
M  END
>  <Name_Molregno>
CITALOPRAM

>  <5-HT1A>
5

>  <5-HT1B>
5

>  <5-HT1D>
5

>  <5-HT2A>
5.1

>  <5-HT2C>
6.21

>  <Alpha-1A>
5

>  <Alpha-2A>
5

>  <DOPAMINE D2>
5

>  <DOPAMINE D3>
5

>  <Dopamine transporter>
5

>  <Muscarinic acetylcholine receptor M1>
5.88

>  <Norepinephrine transporter>
5.17

>  <Serotonin transporter>
8.45

$$$$
Clobenpropit
  Marvin  02231216192D 0   1.00000     0.00000     0

 20 21  0  0  0  0  0  0  0  0999 V2000
    0.2554    0.9207    0.0000 Cl  0  0  0  0  0  0  0  0  0
    0.9699    1.3332    0.0000 C   0  0  0  0  0  0  0  0  0
    0.9699    2.1582    0.0000 C   0  0  0  0  0  0  0  0  0
    1.6844    2.5707    0.0000 C   0  0  0  0  0  0  0  0  0
    2.3988    2.1582    0.0000 C   0  0  0  0  0  0  0  0  0
    2.3988    1.3332    0.0000 C   0  0  0  0  0  0  0  0  0
    1.6844    0.9207    0.0000 C   0  0  0  0  0  0  0  0  0
    3.1133    2.5707    0.0000 C   0  0  0  0  0  0  0  0  0
    3.8278    2.1582    0.0000 N   0  0  0  0  0  0  0  0  0
    3.8278    1.3332    0.0000 C   0  0  0  0  0  0  0  0  0
    4.5422    0.9207    0.0000 S   0  0  0  0  0  0  0  0  0
    5.2567    1.3332    0.0000 C   0  0  0  0  0  0  0  0  0
    5.9712    0.9207    0.0000 C   0  0  0  0  0  0  0  0  0
    6.6857    1.3332    0.0000 C   0  0  0  0  0  0  0  0  0
    7.4001    0.9207    0.0000 C   0  0  0  0  0  0  0  0  0
    8.1538    1.2562    0.0000 N   0  0  0  0  0  0  0  0  0
    8.7058    0.6431    0.0000 C   0  0  0  0  0  0  0  0  0
    8.2933   -0.0713    0.0000 N   0  0  0  0  0  0  0  0  0
    7.4864    0.1002    0.0000 C   0  0  0  0  0  0  0  0  0
    3.1133    0.9207    0.0000 N   0  0  0  0  0  0  0  0  0
  1  2  1  0  0  0  0
  2  3  4  0  0  0  0
  2  7  4  0  0  0  0
  3  4  4  0  0  0  0
  4  5  4  0  0  0  0
  5  6  4  0  0  0  0
  5  8  1  0  0  0  0
  6  7  4  0  0  0  0
  8  9  1  0  0  0  0
  9 10  2  0  0  0  0
 10 11  1  0  0  0  0
 10 20  1  0  0  0  0
 11 12  1  0  0  0  0
 12 13  1  0  0  0  0
 13 14  1  0  0  0  0
 14 15  1  0  0  0  0
 15 16  4  0  0  0  0
 15 19  4  0  0  0  0
 16 17  4  0  0  0  0
 17 18  4  0  0  0  0
 18 19  4  0  0  0  0
M  STY  1   1 DAT
M  SAL   1  1  16
M  SDT   1 MRV_IMPLICIT_H                                        
M  SDD   1     0.0000    0.0000    DR    ALL  0       0  
M  SED   1 IMPL_H1
M  END
>  <Name_Molregno>
Clobenpropit

>  <Alpha-2A>
7.76

>  <Alpha-2C>
7.8

>  <HISTAMINE H1>
5.56

>  <HISTAMINE H2>
5.24

>  <HISTAMINE H3>
8.4

>  <HISTAMINE H4>
7.64

$$$$
CLONIDINE
  Marvin  02231216192D 0   1.00000     0.00000     0

 14 15  0  0  0  0  0  0  0  0999 V2000
   -2.4456   -1.4014    0.0000 Cl  0  0  0  0  0  0  0  0  0
   -2.4456   -0.5764    0.0000 C   0  0  0  0  0  0  0  0  0
   -3.1600   -0.1639    0.0000 C   0  0  0  0  0  0  0  0  0
   -3.1600    0.6611    0.0000 C   0  0  0  0  0  0  0  0  0
   -2.4456    1.0736    0.0000 C   0  0  0  0  0  0  0  0  0
   -1.7311    0.6611    0.0000 C   0  0  0  0  0  0  0  0  0
   -1.0166    1.0736    0.0000 Cl  0  0  0  0  0  0  0  0  0
   -1.7311   -0.1639    0.0000 C   0  0  0  0  0  0  0  0  0
   -1.0166   -0.5764    0.0000 N   0  0  0  0  0  0  0  0  0
   -1.0166   -1.4014    0.0000 C   0  0  0  0  0  0  0  0  0
   -0.3492   -1.8863    0.0000 N   0  0  0  0  0  0  0  0  0
   -0.6041   -2.6709    0.0000 C   0  0  0  0  0  0  0  0  0
   -1.4291   -2.6709    0.0000 C   0  0  0  0  0  0  0  0  0
   -1.6841   -1.8863    0.0000 N   0  0  0  0  0  0  0  0  0
  1  2  1  0  0  0  0
  2  3  4  0  0  0  0
  2  8  4  0  0  0  0
  3  4  4  0  0  0  0
  4  5  4  0  0  0  0
  5  6  4  0  0  0  0
  6  7  1  0  0  0  0
  6  8  4  0  0  0  0
  8  9  1  0  0  0  0
  9 10  1  0  0  0  0
 10 11  1  0  0  0  0
 10 14  2  0  0  0  0
 11 12  1  0  0  0  0
 12 13  1  0  0  0  0
 13 14  1  0  0  0  0
M  END
>  <Name_Molregno>
CLONIDINE

>  <5-HT2A>
5

>  <Alpha-1A>
6.4

>  <Alpha-1B>
6.4

>  <Alpha-2A>
7.33

>  <Alpha-2B>
7.3

>  <Alpha-2C>
6.94

>  <Norepinephrine transporter>
6

$$$$
CLOZAPINE
  Marvin  02231216192D 0   1.00000     0.00000     0

 23 26  0  0  0  0  0  0  0  0999 V2000
   -0.5622   -2.2603    0.0000 Cl  0  0  0  0  0  0  0  0  0
    0.2262   -2.5035    0.0000 C   0  0  0  0  0  0  0  0  0
    0.8309   -1.9424    0.0000 C   0  0  0  0  0  0  0  0  0
    1.6193   -2.1855    0.0000 C   0  0  0  0  0  0  0  0  0
    2.1337   -1.5405    0.0000 N   0  0  0  0  0  0  0  0  0
    2.9587   -1.5405    0.0000 C   0  0  0  0  0  0  0  0  0
    3.3166   -0.7972    0.0000 N   0  0  0  0  0  0  0  0  0
    2.8519   -0.1156    0.0000 C   0  0  0  0  0  0  0  0  0
    3.2098    0.6277    0.0000 C   0  0  0  0  0  0  0  0  0
    4.0325    0.6894    0.0000 N   0  0  0  0  0  0  0  0  0
    4.4973    0.0077    0.0000 C   0  0  0  0  0  0  0  0  0
    4.1393   -0.7356    0.0000 C   0  0  0  0  0  0  0  0  0
    4.3905    1.4327    0.0000 C   0  0  0  0  0  0  0  0  0
    3.4730   -2.1855    0.0000 C   0  0  0  0  0  0  0  0  0
    3.2895   -2.9898    0.0000 C   0  0  0  0  0  0  0  0  0
    2.5462   -3.3478    0.0000 N   0  0  0  0  0  0  0  0  0
    1.8029   -2.9898    0.0000 C   0  0  0  0  0  0  0  0  0
    1.1981   -3.5510    0.0000 C   0  0  0  0  0  0  0  0  0
    0.4098   -3.3078    0.0000 C   0  0  0  0  0  0  0  0  0
    3.8942   -3.5510    0.0000 C   0  0  0  0  0  0  0  0  0
    4.6826   -3.3078    0.0000 C   0  0  0  0  0  0  0  0  0
    4.8662   -2.5035    0.0000 C   0  0  0  0  0  0  0  0  0
    4.2614   -1.9424    0.0000 C   0  0  0  0  0  0  0  0  0
  1  2  1  0  0  0  0
  2  3  4  0  0  0  0
  2 19  4  0  0  0  0
  3  4  4  0  0  0  0
  4  5  1  0  0  0  0
  4 17  4  0  0  0  0
  5  6  1  0  0  0  0
  6  7  1  0  0  0  0
  6 14  2  0  0  0  0
  7  8  1  0  0  0  0
  7 12  1  0  0  0  0
  8  9  1  0  0  0  0
  9 10  1  0  0  0  0
 10 11  1  0  0  0  0
 10 13  1  0  0  0  0
 11 12  1  0  0  0  0
 14 15  1  0  0  0  0
 14 23  1  0  0  0  0
 15 16  2  0  0  0  0
 15 20  1  0  0  0  0
 16 17  1  0  0  0  0
 17 18  4  0  0  0  0
 18 19  4  0  0  0  0
 20 21  2  0  0  0  0
 21 22  1  0  0  0  0
 22 23  2  0  0  0  0
M  END
>  <Name_Molregno>
CLOZAPINE

>  <5-HT1A>
6.88

>  <5-HT1B>
6.33

>  <5-HT1D>
6.27

>  <5-HT1E>
6.19

>  <5-HT2A>
8.22

>  <5-HT2C>
8

>  <5-HT3>
6.62

>  <5-HT5>
5.41

>  <5-HT6>
7.9

>  <5-HT7>
8.05

>  <Alpha-1A>
8.8

>  <Alpha-1B>
8.15

>  <Alpha-2A>
7.15

>  <Alpha-2B>
7.61

>  <Alpha-2C>
7.88

>  <Beta-1>
5.15

>  <Beta-2>
5.39

>  <DOPAMINE D1>
6.69

>  <DOPAMINE D2>
6.9

>  <DOPAMINE D3>
6.62

>  <DOPAMINE D4>
7.62

>  <DOPAMINE D5>
6.62

>  <Dopamine transporter>
5

>  <HISTAMINE H1>
8.81

>  <HISTAMINE H2>
6.82

>  <HISTAMINE H3>
5.25

>  <HISTAMINE H4>
6.15

>  <Muscarinic acetylcholine receptor M1>
8.26

>  <Muscarinic acetylcholine receptor M2>
7.17

>  <Muscarinic acetylcholine receptor M3>
7.59

>  <Muscarinic acetylcholine receptor M4>
7.85

>  <Muscarinic acetylcholine receptor M5>
7.79

>  <Norepinephrine transporter>
5.5

>  <Serotonin transporter>
5.73

$$$$
CLOZAPINE-2
  Marvin  02231216192D 0   1.00000     0.00000     0

 23 26  0  0  0  0  0  0  0  0999 V2000
   -0.5622   -2.2603    0.0000 Cl  0  0  0  0  0  0  0  0  0
    0.2262   -2.5035    0.0000 C   0  0  0  0  0  0  0  0  0
    0.8309   -1.9424    0.0000 C   0  0  0  0  0  0  0  0  0
    1.6193   -2.1855    0.0000 C   0  0  0  0  0  0  0  0  0
    2.1337   -1.5405    0.0000 N   0  0  0  0  0  0  0  0  0
    2.9587   -1.5405    0.0000 C   0  0  0  0  0  0  0  0  0
    3.3166   -0.7972    0.0000 N   0  0  0  0  0  0  0  0  0
    2.8519   -0.1156    0.0000 C   0  0  0  0  0  0  0  0  0
    3.2098    0.6277    0.0000 C   0  0  0  0  0  0  0  0  0
    4.0325    0.6894    0.0000 N   0  0  0  0  0  0  0  0  0
    4.4973    0.0077    0.0000 C   0  0  0  0  0  0  0  0  0
    4.1393   -0.7356    0.0000 C   0  0  0  0  0  0  0  0  0
    4.3905    1.4327    0.0000 C   0  0  0  0  0  0  0  0  0
    3.4730   -2.1855    0.0000 C   0  0  0  0  0  0  0  0  0
    3.2895   -2.9898    0.0000 C   0  0  0  0  0  0  0  0  0
    2.5462   -3.3478    0.0000 N   0  0  0  0  0  0  0  0  0
    1.8029   -2.9898    0.0000 C   0  0  0  0  0  0  0  0  0
    1.1981   -3.5510    0.0000 C   0  0  0  0  0  0  0  0  0
    0.4098   -3.3078    0.0000 C   0  0  0  0  0  0  0  0  0
    3.8942   -3.5510    0.0000 C   0  0  0  0  0  0  0  0  0
    4.6826   -3.3078    0.0000 C   0  0  0  0  0  0  0  0  0
    4.8662   -2.5035    0.0000 C   0  0  0  0  0  0  0  0  0
    4.2614   -1.9424    0.0000 C   0  0  0  0  0  0  0  0  0
  1  2  1  0  0  0  0
  2  3  4  0  0  0  0
  2 19  4  0  0  0  0
  3  4  4  0  0  0  0
  4  5  1  0  0  0  0
  4 17  4  0  0  0  0
  5  6  2  0  0  0  0
  6  7  1  0  0  0  0
  6 14  1  0  0  0  0
  7  8  1  0  0  0  0
  7 12  1  0  0  0  0
  8  9  1  0  0  0  0
  9 10  1  0  0  0  0
 10 11  1  0  0  0  0
 10 13  1  0  0  0  0
 11 12  1  0  0  0  0
 14 15  4  0  0  0  0
 14 23  4  0  0  0  0
 15 16  1  0  0  0  0
 15 20  4  0  0  0  0
 16 17  1  0  0  0  0
 17 18  4  0  0  0  0
 18 19  4  0  0  0  0
 20 21  4  0  0  0  0
 21 22  4  0  0  0  0
 22 23  4  0  0  0  0
M  END
>  <Name_Molregno>
CLOZAPINE-2

>  <5-HT1A>
6.92

>  <5-HT2A>
8.15

>  <5-HT2C>
7.92

>  <5-HT3>
6.4

>  <5-HT5>
6

>  <5-HT6>
7.85

>  <5-HT7>
7.47

>  <Alpha-2A>
7.62

>  <Alpha-2C>
8.54

>  <DOPAMINE D1>
7

>  <DOPAMINE D2>
7.03

>  <DOPAMINE D3>
6.48

>  <DOPAMINE D4>
7.6

>  <DOPAMINE D5>
6.7

>  <HISTAMINE H1>
8.77

>  <HISTAMINE H3>
6.1

>  <HISTAMINE H4>
6.75

>  <Muscarinic acetylcholine receptor M1>
8.47

>  <Muscarinic acetylcholine receptor M4>
7.9

>  <Serotonin transporter>
5.41

$$$$
D-cystine
  Marvin  02231216192D 0   1.00000     0.00000     0

 14 13  0  0  1  0  0  0  0  0999 V2000
    0.5597    0.5534    0.0000 S   0  0  0  0  0  0  0  0  0
   -0.1548    0.1409    0.0000 S   0  0  0  0  0  0  0  0  0
   -0.8693    0.5534    0.0000 C   0  0  0  0  0  0  0  0  0
   -1.5838    0.1409    0.0000 C   0  0  0  0  0  0  0  0  0
   -1.5838   -0.6841    0.0000 N   0  0  0  0  0  0  0  0  0
   -2.2982    0.5534    0.0000 C   0  0  0  0  0  0  0  0  0
   -3.0127    0.1409    0.0000 O   0  0  0  0  0  0  0  0  0
   -2.2982    1.3784    0.0000 O   0  0  0  0  0  0  0  0  0
    1.2741    0.1409    0.0000 C   0  0  0  0  0  0  0  0  0
    1.9886    0.5534    0.0000 C   0  0  0  0  0  0  0  0  0
    1.9886    1.3784    0.0000 N   0  0  0  0  0  0  0  0  0
    2.7031    0.1409    0.0000 C   0  0  0  0  0  0  0  0  0
    3.4175    0.5534    0.0000 O   0  0  0  0  0  0  0  0  0
    2.7031   -0.6841    0.0000 O   0  0  0  0  0  0  0  0  0
  1  2  1  0  0  0  0
  1  9  1  0  0  0  0
  2  3  1  0  0  0  0
  3  4  1  0  0  0  0
  4  5  1  0  0  0  0
  4  6  1  0  0  0  0
  6  7  1  0  0  0  0
  6  8  2  0  0  0  0
  9 10  1  0  0  0  0
 10 11  1  0  0  0  0
 10 12  1  0  0  0  0
 12 13  1  0  0  0  0
 12 14  2  0  0  0  0
M  END
>  <Name_Molregno>
D-cystine

>  <5-HT1A>
5

>  <5-HT1B>
5

>  <5-HT1D>
5

>  <5-HT3>
5

>  <5-HT5>
5

>  <5-HT6>
5

>  <5-HT7>
5

>  <Alpha-1A>
5

>  <Alpha-1B>
5

>  <Alpha-2A>
5

>  <Alpha-2B>
5

>  <Alpha-2C>
5

>  <DOPAMINE D1>
5

>  <DOPAMINE D2>
5

>  <DOPAMINE D3>
5

>  <DOPAMINE D5>
5

>  <Dopamine transporter>
5

>  <HISTAMINE H1>
5

>  <HISTAMINE H2>
5

>  <HISTAMINE H4>
5

>  <Muscarinic acetylcholine receptor M1>
5

>  <Muscarinic acetylcholine receptor M2>
5

>  <Muscarinic acetylcholine receptor M3>
5

>  <Muscarinic acetylcholine receptor M4>
5

>  <Muscarinic acetylcholine receptor M5>
5

>  <Norepinephrine transporter>
5

>  <Serotonin transporter>
5

$$$$
d-Fenfluramine
  Marvin  02231216192D 0   1.00000     0.00000     0

 16 16  0  0  1  0  0  0  0  0999 V2000
   -5.1694    0.5172    0.0000 F   0  0  0  0  0  0  0  0  0
   -4.4549    0.1047    0.0000 C   0  0  0  0  0  0  0  0  0
   -4.8674   -0.6097    0.0000 F   0  0  0  0  0  0  0  0  0
   -4.0424    0.8192    0.0000 F   0  0  0  0  0  0  0  0  0
   -3.7405   -0.3078    0.0000 C   0  0  0  0  0  0  0  0  0
   -3.0260    0.1047    0.0000 C   0  0  0  0  0  0  0  0  0
   -2.3115   -0.3078    0.0000 C   0  0  0  0  0  0  0  0  0
   -2.3115   -1.1328    0.0000 C   0  0  0  0  0  0  0  0  0
   -3.0260   -1.5453    0.0000 C   0  0  0  0  0  0  0  0  0
   -3.7405   -1.1328    0.0000 C   0  0  0  0  0  0  0  0  0
   -1.5971    0.1047    0.0000 C   0  0  0  0  0  0  0  0  0
   -0.8826   -0.3078    0.0000 C   0  0  0  0  0  0  0  0  0
   -0.1681    0.1047    0.0000 N   0  0  0  0  0  0  0  0  0
    0.5464   -0.3078    0.0000 C   0  0  0  0  0  0  0  0  0
    1.2608    0.1047    0.0000 C   0  0  0  0  0  0  0  0  0
   -0.8826   -1.1328    0.0000 C   0  0  0  0  0  0  0  0  0
  1  2  1  0  0  0  0
  2  3  1  0  0  0  0
  2  4  1  0  0  0  0
  2  5  1  0  0  0  0
  5  6  4  0  0  0  0
  5 10  4  0  0  0  0
  6  7  4  0  0  0  0
  7  8  4  0  0  0  0
  7 11  1  0  0  0  0
  8  9  4  0  0  0  0
  9 10  4  0  0  0  0
 11 12  1  0  0  0  0
 12 13  1  0  0  0  0
 12 16  1  0  0  0  0
 13 14  1  0  0  0  0
 14 15  1  0  0  0  0
M  END
>  <Name_Molregno>
d-Fenfluramine

>  <5-HT1A>
6.11

>  <5-HT1B>
5.67

>  <5-HT1D>
5.79

>  <5-HT1E>
5

>  <5-HT2A>
5.92

>  <5-HT2C>
6.27

>  <5-HT3>
5

>  <5-HT5>
5

>  <5-HT6>
5.01

>  <5-HT7>
5.17

>  <Alpha-1A>
5.52

>  <Alpha-1B>
5.62

>  <Alpha-2A>
6.26

>  <Alpha-2B>
6.65

>  <Alpha-2C>
6.68

>  <Beta-1>
5.67

>  <Beta-2>
5.07

>  <DOPAMINE D1>
5

>  <DOPAMINE D2>
5

>  <DOPAMINE D4>
5

>  <DOPAMINE D5>
5

>  <Dopamine transporter>
5

>  <HISTAMINE H1>
5

>  <HISTAMINE H2>
5

>  <Muscarinic acetylcholine receptor M1>
5.61

>  <Muscarinic acetylcholine receptor M2>
5.39

>  <Muscarinic acetylcholine receptor M3>
5.22

>  <Muscarinic acetylcholine receptor M4>
5.1

>  <Muscarinic acetylcholine receptor M5>
5

>  <Norepinephrine transporter>
5

>  <Serotonin transporter>
6.18

$$$$
Diclofenac
  Marvin  02231216192D 0   1.00000     0.00000     0

 19 20  0  0  0  0  0  0  0  0999 V2000
    1.8639   -0.1839    0.0000 Cl  0  0  0  0  0  0  0  0  0
    1.8639   -1.0089    0.0000 C   0  0  0  0  0  0  0  0  0
    2.5784   -1.4214    0.0000 C   0  0  0  0  0  0  0  0  0
    2.5784   -2.2464    0.0000 C   0  0  0  0  0  0  0  0  0
    1.8639   -2.6589    0.0000 C   0  0  0  0  0  0  0  0  0
    1.1494   -2.2464    0.0000 C   0  0  0  0  0  0  0  0  0
    0.4350   -2.6589    0.0000 Cl  0  0  0  0  0  0  0  0  0
    1.1494   -1.4214    0.0000 C   0  0  0  0  0  0  0  0  0
    0.4350   -1.0089    0.0000 N   0  0  0  0  0  0  0  0  0
   -0.2795   -1.4214    0.0000 C   0  0  0  0  0  0  0  0  0
   -0.2795   -2.2464    0.0000 C   0  0  0  0  0  0  0  0  0
   -0.9940   -2.6589    0.0000 C   0  0  0  0  0  0  0  0  0
   -1.7085   -2.2464    0.0000 C   0  0  0  0  0  0  0  0  0
   -1.7085   -1.4214    0.0000 C   0  0  0  0  0  0  0  0  0
   -0.9940   -1.0089    0.0000 C   0  0  0  0  0  0  0  0  0
   -0.9940   -0.1839    0.0000 C   0  0  0  0  0  0  0  0  0
   -0.2795    0.2286    0.0000 C   0  0  0  0  0  0  0  0  0
   -0.2795    1.0536    0.0000 O   0  0  0  0  0  0  0  0  0
    0.4350   -0.1839    0.0000 O   0  0  0  0  0  0  0  0  0
  1  2  1  0  0  0  0
  2  3  4  0  0  0  0
  2  8  4  0  0  0  0
  3  4  4  0  0  0  0
  4  5  4  0  0  0  0
  5  6  4  0  0  0  0
  6  7  1  0  0  0  0
  6  8  4  0  0  0  0
  8  9  1  0  0  0  0
  9 10  1  0  0  0  0
 10 11  4  0  0  0  0
 10 15  4  0  0  0  0
 11 12  4  0  0  0  0
 12 13  4  0  0  0  0
 13 14  4  0  0  0  0
 14 15  4  0  0  0  0
 15 16  1  0  0  0  0
 16 17  1  0  0  0  0
 17 18  1  0  0  0  0
 17 19  2  0  0  0  0
M  END
>  <Name_Molregno>
Diclofenac

>  <5-HT1A>
5

>  <5-HT1B>
5

>  <5-HT1D>
5

>  <5-HT1E>
5

>  <5-HT2A>
5

>  <5-HT3>
5

>  <5-HT5>
5

>  <5-HT6>
5

>  <5-HT7>
5

>  <Alpha-1A>
5

>  <Alpha-1B>
5

>  <Alpha-2A>
5

>  <Alpha-2B>
5

>  <Alpha-2C>
5

>  <DOPAMINE D1>
5

>  <DOPAMINE D2>
5

>  <DOPAMINE D4>
5

>  <DOPAMINE D5>
5

>  <HISTAMINE H1>
5

>  <HISTAMINE H2>
5

>  <Muscarinic acetylcholine receptor M2>
5

>  <Muscarinic acetylcholine receptor M5>
5

$$$$
DL-homocysteic-acid
  Marvin  02231216192D 0   1.00000     0.00000     0

 11 10  0  0  1  0  0  0  0  0999 V2000
   -2.6928   -0.0066    0.0000 S   0  0  0  0  0  0  0  0  0
   -3.4073   -0.4191    0.0000 O   0  0  0  0  0  0  0  0  0
   -2.2803   -0.7210    0.0000 O   0  0  0  0  0  0  0  0  0
   -3.1053    0.7079    0.0000 O   0  0  0  0  0  0  0  0  0
   -1.9783    0.4059    0.0000 C   0  0  0  0  0  0  0  0  0
   -1.2639   -0.0066    0.0000 C   0  0  0  0  0  0  0  0  0
   -0.5494    0.4059    0.0000 C   0  0  0  0  0  0  0  0  0
   -0.5494    1.2309    0.0000 N   0  0  0  0  0  0  0  0  0
    0.1651   -0.0066    0.0000 C   0  0  0  0  0  0  0  0  0
    0.8795    0.4059    0.0000 O   0  0  0  0  0  0  0  0  0
    0.1651   -0.8316    0.0000 O   0  0  0  0  0  0  0  0  0
  1  2  2  0  0  0  0
  1  3  2  0  0  0  0
  1  4  1  0  0  0  0
  1  5  1  0  0  0  0
  5  6  1  0  0  0  0
  6  7  1  0  0  0  0
  7  8  1  0  0  0  0
  7  9  1  0  0  0  0
  9 10  1  0  0  0  0
  9 11  2  0  0  0  0
M  END
>  <Name_Molregno>
DL-homocysteic-acid

>  <5-HT1A>
5

>  <5-HT1B>
5

>  <5-HT1D>
5

>  <5-HT3>
5

>  <5-HT5>
5

>  <5-HT6>
5

>  <5-HT7>
5

>  <Alpha-1A>
5

>  <Alpha-1B>
5

>  <Alpha-2A>
5

>  <Alpha-2B>
5

>  <Alpha-2C>
5

>  <DOPAMINE D1>
5

>  <DOPAMINE D2>
5

>  <DOPAMINE D3>
5

>  <DOPAMINE D5>
5

>  <Dopamine transporter>
5

>  <Muscarinic acetylcholine receptor M1>
5

>  <Muscarinic acetylcholine receptor M2>
5

>  <Muscarinic acetylcholine receptor M3>
5

>  <Muscarinic acetylcholine receptor M4>
5

>  <Muscarinic acetylcholine receptor M5>
5

>  <Norepinephrine transporter>
5

>  <Serotonin transporter>
5

$$$$
DL-homocysteine
  Marvin  02231216192D 0   1.00000     0.00000     0

  8  7  0  0  1  0  0  0  0  0999 V2000
   -0.0519    0.0021    0.0000 S   0  0  0  0  0  0  0  0  0
    0.6626    0.4146    0.0000 C   0  0  0  0  0  0  0  0  0
    1.3770    0.0021    0.0000 C   0  0  0  0  0  0  0  0  0
    2.0915    0.4146    0.0000 C   0  0  0  0  0  0  0  0  0
    2.0915    1.2396    0.0000 N   0  0  0  0  0  0  0  0  0
    2.8060    0.0021    0.0000 C   0  0  0  0  0  0  0  0  0
    3.5205    0.4146    0.0000 O   0  0  0  0  0  0  0  0  0
    2.8060   -0.8229    0.0000 O   0  0  0  0  0  0  0  0  0
  1  2  1  0  0  0  0
  2  3  1  0  0  0  0
  3  4  1  0  0  0  0
  4  5  1  0  0  0  0
  4  6  1  0  0  0  0
  6  7  1  0  0  0  0
  6  8  2  0  0  0  0
M  END
>  <Name_Molregno>
DL-homocysteine

>  <5-HT1A>
5

>  <5-HT1B>
5

>  <5-HT1D>
5

>  <5-HT3>
5

>  <5-HT5>
5

>  <5-HT6>
5

>  <5-HT7>
5

>  <Alpha-1A>
5

>  <Alpha-1B>
5

>  <Alpha-2A>
5

>  <Alpha-2B>
5

>  <Alpha-2C>
5

>  <DOPAMINE D1>
5

>  <DOPAMINE D2>
5

>  <DOPAMINE D3>
5

>  <DOPAMINE D5>
5

>  <Dopamine transporter>
5

>  <HISTAMINE H1>
5

>  <HISTAMINE H2>
5

>  <HISTAMINE H4>
5

>  <Muscarinic acetylcholine receptor M1>
5

>  <Muscarinic acetylcholine receptor M2>
5

>  <Muscarinic acetylcholine receptor M3>
5

>  <Muscarinic acetylcholine receptor M4>
5

>  <Muscarinic acetylcholine receptor M5>
5

>  <Norepinephrine transporter>
5

>  <Serotonin transporter>
5

$$$$
D-methionine
  Marvin  02231216192D 0   1.00000     0.00000     0

  9  8  0  0  1  0  0  0  0  0999 V2000
   -0.3763    1.2394    0.0000 S   0  0  0  0  0  0  0  0  0
    0.3381    0.8269    0.0000 C   0  0  0  0  0  0  0  0  0
    1.0526    1.2394    0.0000 C   0  0  0  0  0  0  0  0  0
    1.7671    0.8269    0.0000 C   0  0  0  0  0  0  0  0  0
    1.7671    0.0019    0.0000 N   0  0  0  0  0  0  0  0  0
    2.4816    1.2394    0.0000 C   0  0  0  0  0  0  0  0  0
    3.1960    0.8269    0.0000 O   0  0  0  0  0  0  0  0  0
    2.4816    2.0644    0.0000 O   0  0  0  0  0  0  0  0  0
   -1.0908    0.8269    0.0000 C   0  0  0  0  0  0  0  0  0
  1  2  1  0  0  0  0
  1  9  1  0  0  0  0
  2  3  1  0  0  0  0
  3  4  1  0  0  0  0
  4  5  1  0  0  0  0
  4  6  1  0  0  0  0
  6  7  1  0  0  0  0
  6  8  2  0  0  0  0
M  END
>  <Name_Molregno>
D-methionine

>  <5-HT1A>
5

>  <5-HT1B>
5

>  <5-HT1D>
5

>  <5-HT3>
5

>  <5-HT5>
5

>  <5-HT6>
5

>  <5-HT7>
5

>  <Alpha-1A>
5

>  <Alpha-1B>
5

>  <Alpha-2A>
5

>  <Alpha-2B>
5

>  <Alpha-2C>
5

>  <DOPAMINE D1>
5

>  <DOPAMINE D2>
5

>  <DOPAMINE D3>
5

>  <DOPAMINE D5>
5

>  <Dopamine transporter>
5

>  <HISTAMINE H1>
5

>  <HISTAMINE H2>
5

>  <HISTAMINE H4>
5

>  <Muscarinic acetylcholine receptor M1>
5

>  <Muscarinic acetylcholine receptor M2>
5

>  <Muscarinic acetylcholine receptor M3>
5

>  <Muscarinic acetylcholine receptor M4>
5

>  <Muscarinic acetylcholine receptor M5>
5

>  <Norepinephrine transporter>
5

>  <Serotonin transporter>
5

$$$$
DOXAZOSIN
  Marvin  02231216192D 0   1.00000     0.00000     0

 33 37  0  0  1  0  0  0  0  0999 V2000
   -6.4405   -2.0595    0.0000 O   0  0  0  0  0  0  0  0  0
   -6.4405   -2.8845    0.0000 C   0  0  0  0  0  0  0  0  0
   -5.7260   -3.2970    0.0000 C   0  0  0  0  0  0  0  0  0
   -5.0115   -2.8845    0.0000 O   0  0  0  0  0  0  0  0  0
   -5.0115   -2.0595    0.0000 C   0  0  0  0  0  0  0  0  0
   -5.7260   -1.6470    0.0000 C   0  0  0  0  0  0  0  0  0
   -5.7260   -0.8220    0.0000 C   0  0  0  0  0  0  0  0  0
   -6.4405   -0.4095    0.0000 O   0  0  0  0  0  0  0  0  0
   -5.0115   -0.4095    0.0000 N   0  0  0  0  0  0  0  0  0
   -5.0115    0.4155    0.0000 C   0  0  0  0  0  0  0  0  0
   -4.2971    0.8280    0.0000 C   0  0  0  0  0  0  0  0  0
   -3.5826    0.4155    0.0000 N   0  0  0  0  0  0  0  0  0
   -3.5826   -0.4095    0.0000 C   0  0  0  0  0  0  0  0  0
   -4.2971   -0.8220    0.0000 C   0  0  0  0  0  0  0  0  0
   -2.8681    0.8280    0.0000 C   0  0  0  0  0  0  0  0  0
   -2.8681    1.6530    0.0000 N   0  0  0  0  0  0  0  0  0
   -2.1537    2.0655    0.0000 C   0  0  0  0  0  0  0  0  0
   -2.1537    2.8905    0.0000 N   0  0  0  0  0  0  0  0  0
   -1.4392    1.6530    0.0000 C   0  0  0  0  0  0  0  0  0
   -0.7247    2.0655    0.0000 C   0  0  0  0  0  0  0  0  0
   -0.0102    1.6530    0.0000 C   0  0  0  0  0  0  0  0  0
    0.7042    2.0655    0.0000 O   0  0  0  0  0  0  0  0  0
    1.4187    1.6530    0.0000 C   0  0  0  0  0  0  0  0  0
   -0.0102    0.8280    0.0000 C   0  0  0  0  0  0  0  0  0
    0.7042    0.4155    0.0000 O   0  0  0  0  0  0  0  0  0
    0.7042   -0.4095    0.0000 C   0  0  0  0  0  0  0  0  0
   -0.7247    0.4155    0.0000 C   0  0  0  0  0  0  0  0  0
   -1.4392    0.8280    0.0000 C   0  0  0  0  0  0  0  0  0
   -2.1537    0.4155    0.0000 N   0  0  0  0  0  0  0  0  0
   -5.7260   -4.1220    0.0000 C   0  0  0  0  0  0  0  0  0
   -6.4405   -4.5345    0.0000 C   0  0  0  0  0  0  0  0  0
   -7.1550   -4.1220    0.0000 C   0  0  0  0  0  0  0  0  0
   -7.1550   -3.2970    0.0000 C   0  0  0  0  0  0  0  0  0
  1  2  1  0  0  0  0
  1  6  1  0  0  0  0
  2  3  4  0  0  0  0
  2 33  4  0  0  0  0
  3  4  1  0  0  0  0
  3 30  4  0  0  0  0
  4  5  1  0  0  0  0
  5  6  1  0  0  0  0
  6  7  1  0  0  0  0
  7  8  2  0  0  0  0
  7  9  1  0  0  0  0
  9 10  1  0  0  0  0
  9 14  1  0  0  0  0
 10 11  1  0  0  0  0
 11 12  1  0  0  0  0
 12 13  1  0  0  0  0
 12 15  1  0  0  0  0
 13 14  1  0  0  0  0
 15 16  4  0  0  0  0
 15 29  4  0  0  0  0
 16 17  4  0  0  0  0
 17 18  1  0  0  0  0
 17 19  4  0  0  0  0
 19 20  4  0  0  0  0
 19 28  4  0  0  0  0
 20 21  4  0  0  0  0
 21 22  1  0  0  0  0
 21 24  4  0  0  0  0
 22 23  1  0  0  0  0
 24 25  1  0  0  0  0
 24 27  4  0  0  0  0
 25 26  1  0  0  0  0
 27 28  4  0  0  0  0
 28 29  4  0  0  0  0
 30 31  4  0  0  0  0
 31 32  4  0  0  0  0
 32 33  4  0  0  0  0
M  END
>  <Name_Molregno>
DOXAZOSIN

>  <Alpha-1A>
9.04

>  <Alpha-1B>
9.1

>  <Alpha-2A>
6.14

>  <Alpha-2B>
5.3

>  <Alpha-2C>
6.55

$$$$
Ephedrine
  Marvin  02231216192D 0   1.00000     0.00000     0

 12 12  0  0  1  0  0  0  0  0999 V2000
    1.9192   -0.0549    0.0000 O   0  0  0  0  0  0  0  0  0
    1.2047   -0.4674    0.0000 C   0  0  0  0  0  0  0  0  0
    0.4903   -0.0549    0.0000 C   0  0  0  0  0  0  0  0  0
    0.4903    0.7701    0.0000 N   0  0  0  0  0  0  0  0  0
   -0.2242    1.1826    0.0000 C   0  0  0  0  0  0  0  0  0
   -0.2242   -0.4674    0.0000 C   0  0  0  0  0  0  0  0  0
    1.2047   -1.2924    0.0000 C   0  0  0  0  0  0  0  0  0
    1.9192   -1.7049    0.0000 C   0  0  0  0  0  0  0  0  0
    1.9192   -2.5299    0.0000 C   0  0  0  0  0  0  0  0  0
    1.2047   -2.9424    0.0000 C   0  0  0  0  0  0  0  0  0
    0.4903   -2.5299    0.0000 C   0  0  0  0  0  0  0  0  0
    0.4903   -1.7049    0.0000 C   0  0  0  0  0  0  0  0  0
  1  2  1  0  0  0  0
  2  3  1  0  0  0  0
  2  7  1  0  0  0  0
  3  4  1  0  0  0  0
  3  6  1  0  0  0  0
  4  5  1  0  0  0  0
  7  8  4  0  0  0  0
  7 12  4  0  0  0  0
  8  9  4  0  0  0  0
  9 10  4  0  0  0  0
 10 11  4  0  0  0  0
 11 12  4  0  0  0  0
M  END
>  <Name_Molregno>
Ephedrine

>  <5-HT1A>
5

>  <5-HT1B>
5

>  <5-HT1D>
5

>  <5-HT1E>
5

>  <5-HT3>
5

>  <5-HT5>
5

>  <5-HT6>
5

>  <5-HT7>
5.33

>  <Alpha-1A>
5

>  <Alpha-1B>
5

>  <Alpha-2A>
5.17

>  <Alpha-2B>
5.48

>  <Alpha-2C>
5.51

>  <Beta-1>
5

>  <Beta-2>
5

>  <DOPAMINE D1>
5

>  <DOPAMINE D2>
5

>  <DOPAMINE D4>
5

>  <DOPAMINE D5>
5

>  <Dopamine transporter>
5.38

>  <HISTAMINE H1>
5

>  <HISTAMINE H2>
5

>  <HISTAMINE H4>
5

>  <Muscarinic acetylcholine receptor M1>
5

>  <Muscarinic acetylcholine receptor M2>
5

>  <Muscarinic acetylcholine receptor M3>
5

>  <Muscarinic acetylcholine receptor M4>
5

>  <Muscarinic acetylcholine receptor M5>
5

>  <Norepinephrine transporter>
5.79

>  <Serotonin transporter>
5

$$$$
EPINEPHRINE
  Marvin  02231216192D 0   1.00000     0.00000     0

 13 13  0  0  1  0  0  0  0  0999 V2000
    3.1920    1.0753    0.0000 O   0  0  0  0  0  0  0  0  0
    2.4776    0.6628    0.0000 C   0  0  0  0  0  0  0  0  0
    2.4776   -0.1622    0.0000 C   0  0  0  0  0  0  0  0  0
    1.7631   -0.5747    0.0000 C   0  0  0  0  0  0  0  0  0
    1.0486   -0.1622    0.0000 C   0  0  0  0  0  0  0  0  0
    1.0486    0.6628    0.0000 C   0  0  0  0  0  0  0  0  0
    1.7631    1.0753    0.0000 C   0  0  0  0  0  0  0  0  0
    1.7631    1.9003    0.0000 O   0  0  0  0  0  0  0  0  0
    1.7631   -1.3997    0.0000 C   0  0  0  0  0  0  0  0  0
    1.0486   -1.8122    0.0000 O   0  0  0  0  0  0  0  0  0
    2.4776   -1.8122    0.0000 C   0  0  0  0  0  0  0  0  0
    2.4776   -2.6372    0.0000 N   0  0  0  0  0  0  0  0  0
    3.1920   -3.0497    0.0000 C   0  0  0  0  0  0  0  0  0
  1  2  1  0  0  0  0
  2  3  4  0  0  0  0
  2  7  4  0  0  0  0
  3  4  4  0  0  0  0
  4  5  4  0  0  0  0
  4  9  1  0  0  0  0
  5  6  4  0  0  0  0
  6  7  4  0  0  0  0
  7  8  1  0  0  0  0
  9 10  1  0  0  0  0
  9 11  1  0  0  0  0
 11 12  1  0  0  0  0
 12 13  1  0  0  0  0
M  END
>  <Name_Molregno>
EPINEPHRINE

>  <5-HT2A>
5

>  <5-HT7>
5

>  <Alpha-2A>
5.83

>  <Alpha-2B>
5.9

>  <Alpha-2C>
5.77

>  <Beta-1>
5.4

>  <Beta-2>
5.76

>  <Norepinephrine transporter>
5.43

$$$$
ERGOTAMINE
  Marvin  02231216192D 0   1.00000     0.00000     0

 43 50  0  0  1  0  0  0  0  0999 V2000
   -2.1239   -1.0172    0.0000 O   0  0  0  0  0  0  0  0  0
   -1.3035   -1.1045    0.0000 C   0  0  0  0  0  0  0  0  0
   -1.3025   -0.2795    0.0000 N   0  0  0  0  0  0  0  0  0
   -0.5876    0.1322    0.0000 C   0  0  0  0  0  0  0  0  0
    0.1264   -0.2812    0.0000 O   0  0  0  0  0  0  0  0  0
   -0.5866    0.9572    0.0000 C   0  0  0  0  0  0  0  0  0
    0.1284    1.3688    0.0000 C   0  0  0  0  0  0  0  0  0
    0.1294    2.1938    0.0000 C   0  0  0  0  0  0  0  0  0
   -0.5846    2.6072    0.0000 C   0  0  0  0  0  0  0  0  0
   -1.2996    2.1955    0.0000 N   0  0  0  0  0  0  0  0  0
   -1.3006    1.3705    0.0000 C   0  0  0  0  0  0  0  0  0
   -2.0136    2.6089    0.0000 C   0  0  0  0  0  0  0  0  0
   -0.5831    3.4313    0.0000 C   0  0  0  0  0  0  0  0  0
    0.1294    3.8438    0.0000 C   0  0  0  0  0  0  0  0  0
    0.8419    3.4313    0.0000 C   0  0  0  0  0  0  0  0  0
    0.8419    2.6063    0.0000 C   0  0  0  0  0  0  0  0  0
    1.5597    2.1938    0.0000 C   0  0  0  0  0  0  0  0  0
    2.2722    2.6063    0.0000 C   0  0  0  0  0  0  0  0  0
    2.2722    3.4313    0.0000 C   0  0  0  0  0  0  0  0  0
    1.5597    3.8438    0.0000 C   0  0  0  0  0  0  0  0  0
    1.2544    4.7010    0.0000 N   0  0  0  0  0  0  0  0  0
    0.4294    4.7010    0.0000 C   0  0  0  0  0  0  0  0  0
   -0.4830   -1.0192    0.0000 C   0  0  0  0  0  0  0  0  0
   -1.1330   -1.9116    0.0000 C   0  0  0  0  0  0  0  0  0
   -0.3797   -2.2481    0.0000 O   0  0  0  0  0  0  0  0  0
   -1.8479   -2.3233    0.0000 N   0  0  0  0  0  0  0  0  0
   -2.0204   -3.1301    0.0000 C   0  0  0  0  0  0  0  0  0
   -1.4080   -3.6828    0.0000 C   0  0  0  0  0  0  0  0  0
   -1.5805   -4.4896    0.0000 C   0  0  0  0  0  0  0  0  0
   -0.9681   -5.0424    0.0000 C   0  0  0  0  0  0  0  0  0
   -1.1406   -5.8491    0.0000 C   0  0  0  0  0  0  0  0  0
   -1.9255   -6.1031    0.0000 C   0  0  0  0  0  0  0  0  0
   -2.5379   -5.5504    0.0000 C   0  0  0  0  0  0  0  0  0
   -2.3654   -4.7436    0.0000 C   0  0  0  0  0  0  0  0  0
   -2.8054   -3.3841    0.0000 C   0  0  0  0  0  0  0  0  0
   -2.9779   -4.1908    0.0000 O   0  0  0  0  0  0  0  0  0
   -3.4178   -2.8313    0.0000 N   0  0  0  0  0  0  0  0  0
   -3.2453   -2.0245    0.0000 C   0  0  0  0  0  0  0  0  0
   -3.9593   -1.6112    0.0000 C   0  0  0  0  0  0  0  0  0
   -4.5730   -2.1625    0.0000 C   0  0  0  0  0  0  0  0  0
   -4.2384   -2.9165    0.0000 C   0  0  0  0  0  0  0  0  0
   -2.4604   -1.7705    0.0000 C   0  0  0  0  0  0  0  0  0
   -3.0117   -1.1568    0.0000 O   0  0  0  0  0  0  0  0  0
  1  2  1  0  0  0  0
  1 42  1  0  0  0  0
  2  3  1  0  0  0  0
  2 23  1  0  0  0  0
  2 24  1  0  0  0  0
  3  4  1  0  0  0  0
  4  5  2  0  0  0  0
  4  6  1  0  0  0  0
  6  7  1  0  0  0  0
  6 11  1  0  0  0  0
  7  8  2  0  0  0  0
  8  9  1  0  0  0  0
  8 16  1  0  0  0  0
  9 10  1  0  0  0  0
  9 13  1  0  0  0  0
 10 11  1  0  0  0  0
 10 12  1  0  0  0  0
 13 14  1  0  0  0  0
 14 15  4  0  0  0  0
 14 22  4  0  0  0  0
 15 16  4  0  0  0  0
 15 20  4  0  0  0  0
 16 17  4  0  0  0  0
 17 18  4  0  0  0  0
 18 19  4  0  0  0  0
 19 20  4  0  0  0  0
 20 21  4  0  0  0  0
 21 22  4  0  0  0  0
 24 25  2  0  0  0  0
 24 26  1  0  0  0  0
 26 27  1  0  0  0  0
 26 42  1  0  0  0  0
 27 28  1  0  0  0  0
 27 35  1  0  0  0  0
 28 29  1  0  0  0  0
 29 30  4  0  0  0  0
 29 34  4  0  0  0  0
 30 31  4  0  0  0  0
 31 32  4  0  0  0  0
 32 33  4  0  0  0  0
 33 34  4  0  0  0  0
 35 36  2  0  0  0  0
 35 37  1  0  0  0  0
 37 38  1  0  0  0  0
 37 41  1  0  0  0  0
 38 39  1  0  0  0  0
 38 42  1  0  0  0  0
 39 40  1  0  0  0  0
 40 41  1  0  0  0  0
 42 43  1  0  0  0  0
M  STY  1   1 DAT
M  SAL   1  1  21
M  SDT   1 MRV_IMPLICIT_H                                        
M  SDD   1     0.0000    0.0000    DR    ALL  0       0  
M  SED   1 IMPL_H1
M  END
>  <Name_Molregno>
ERGOTAMINE

>  <5-HT1A>
9.77

>  <5-HT1B>
8.33

>  <5-HT1D>
9

>  <5-HT1E>
6.58

>  <5-HT2A>
9.1

>  <5-HT2C>
8.37

>  <5-HT3>
5

>  <5-HT6>
7.92

>  <5-HT7>
5.89

>  <Alpha-1A>
5

>  <Alpha-1B>
5

>  <Alpha-2A>
6.97

>  <Alpha-2B>
7.05

>  <Alpha-2C>
5

>  <Beta-1>
5

>  <Beta-2>
5

>  <DOPAMINE D1>
5

>  <DOPAMINE D2>
5

>  <DOPAMINE D4>
5

>  <DOPAMINE D5>
6.77

>  <Dopamine transporter>
5

>  <HISTAMINE H1>
5

>  <HISTAMINE H2>
5

>  <Muscarinic acetylcholine receptor M1>
6.06

>  <Muscarinic acetylcholine receptor M2>
6.04

>  <Muscarinic acetylcholine receptor M3>
5

>  <Muscarinic acetylcholine receptor M4>
5

>  <Muscarinic acetylcholine receptor M5>
5

>  <Norepinephrine transporter>
5

>  <Serotonin transporter>
5

$$$$
ETORICOXIB
  Marvin  02231216192D 0   1.00000     0.00000     0

 24 26  0  0  0  0  0  0  0  0999 V2000
    1.3103    1.0543    0.0000 Cl  0  0  0  0  0  0  0  0  0
    1.3103    0.2293    0.0000 C   0  0  0  0  0  0  0  0  0
    2.0248   -0.1832    0.0000 C   0  0  0  0  0  0  0  0  0
    2.0248   -1.0082    0.0000 C   0  0  0  0  0  0  0  0  0
    1.3103   -1.4207    0.0000 C   0  0  0  0  0  0  0  0  0
    0.5958   -1.0082    0.0000 N   0  0  0  0  0  0  0  0  0
    0.5958   -0.1832    0.0000 C   0  0  0  0  0  0  0  0  0
    1.3103   -2.2457    0.0000 C   0  0  0  0  0  0  0  0  0
    2.0248   -2.6582    0.0000 C   0  0  0  0  0  0  0  0  0
    2.0248   -3.4832    0.0000 C   0  0  0  0  0  0  0  0  0
    1.3103   -3.8957    0.0000 C   0  0  0  0  0  0  0  0  0
    0.5958   -3.4832    0.0000 N   0  0  0  0  0  0  0  0  0
    0.5958   -2.6582    0.0000 C   0  0  0  0  0  0  0  0  0
    1.3103   -4.7207    0.0000 C   0  0  0  0  0  0  0  0  0
    2.7392   -1.4207    0.0000 C   0  0  0  0  0  0  0  0  0
    3.4537   -1.0082    0.0000 C   0  0  0  0  0  0  0  0  0
    4.1682   -1.4207    0.0000 C   0  0  0  0  0  0  0  0  0
    4.1682   -2.2457    0.0000 C   0  0  0  0  0  0  0  0  0
    4.8826   -2.6582    0.0000 S   0  0  0  0  0  0  0  0  0
    5.5971   -3.0707    0.0000 O   0  0  0  0  0  0  0  0  0
    4.4701   -3.3727    0.0000 O   0  0  0  0  0  0  0  0  0
    5.2951   -1.9437    0.0000 C   0  0  0  0  0  0  0  0  0
    3.4537   -2.6582    0.0000 C   0  0  0  0  0  0  0  0  0
    2.7392   -2.2457    0.0000 C   0  0  0  0  0  0  0  0  0
  1  2  1  0  0  0  0
  2  3  4  0  0  0  0
  2  7  4  0  0  0  0
  3  4  4  0  0  0  0
  4  5  4  0  0  0  0
  4 15  1  0  0  0  0
  5  6  4  0  0  0  0
  5  8  1  0  0  0  0
  6  7  4  0  0  0  0
  8  9  4  0  0  0  0
  8 13  4  0  0  0  0
  9 10  4  0  0  0  0
 10 11  4  0  0  0  0
 11 12  4  0  0  0  0
 11 14  1  0  0  0  0
 12 13  4  0  0  0  0
 15 16  4  0  0  0  0
 15 24  4  0  0  0  0
 16 17  4  0  0  0  0
 17 18  4  0  0  0  0
 18 19  1  0  0  0  0
 18 23  4  0  0  0  0
 19 20  2  0  0  0  0
 19 21  2  0  0  0  0
 19 22  1  0  0  0  0
 23 24  4  0  0  0  0
M  END
>  <Name_Molregno>
ETORICOXIB

>  <5-HT1A>
5

>  <5-HT1B>
5

>  <5-HT1D>
5

>  <5-HT1E>
5

>  <5-HT2A>
5

>  <5-HT3>
5

>  <5-HT6>
5

>  <5-HT7>
5

>  <Alpha-1A>
5

>  <Alpha-1B>
5

>  <Alpha-2A>
5

>  <Alpha-2B>
5

>  <Alpha-2C>
5

>  <DOPAMINE D1>
5

>  <DOPAMINE D2>
5

>  <DOPAMINE D5>
5

>  <Dopamine transporter>
5

>  <HISTAMINE H2>
5

>  <HISTAMINE H4>
5

>  <Muscarinic acetylcholine receptor M1>
5

>  <Norepinephrine transporter>
5

>  <Serotonin transporter>
5

$$$$
Fluorocarazolol
  Marvin  02231216192D 0   1.00000     0.00000     0

 23 25  0  0  1  0  0  0  0  0999 V2000
   -0.1270    1.0228    0.0000 F   0  0  0  0  0  0  0  0  0
    0.5874    0.6103    0.0000 C   0  0  0  0  0  0  0  0  0
    1.3019    1.0228    0.0000 C   0  0  0  0  0  0  0  0  0
    2.0164    0.6103    0.0000 N   0  0  0  0  0  0  0  0  0
    2.7309    1.0228    0.0000 C   0  0  0  0  0  0  0  0  0
    3.4453    0.6103    0.0000 C   0  0  0  0  0  0  0  0  0
    3.4453   -0.2147    0.0000 O   0  0  0  0  0  0  0  0  0
    4.1598    1.0228    0.0000 C   0  0  0  0  0  0  0  0  0
    4.8743    0.6103    0.0000 O   0  0  0  0  0  0  0  0  0
    5.5887    1.0228    0.0000 C   0  0  0  0  0  0  0  0  0
    6.3032    0.6103    0.0000 C   0  0  0  0  0  0  0  0  0
    6.4747   -0.1966    0.0000 C   0  0  0  0  0  0  0  0  0
    7.2952   -0.2829    0.0000 C   0  0  0  0  0  0  0  0  0
    7.6308    0.4708    0.0000 N   0  0  0  0  0  0  0  0  0
    7.0177    1.0228    0.0000 C   0  0  0  0  0  0  0  0  0
    7.0177    1.8478    0.0000 C   0  0  0  0  0  0  0  0  0
    6.3032    2.2603    0.0000 C   0  0  0  0  0  0  0  0  0
    5.5887    1.8478    0.0000 C   0  0  0  0  0  0  0  0  0
    7.6308   -1.0365    0.0000 C   0  0  0  0  0  0  0  0  0
    7.1459   -1.7040    0.0000 C   0  0  0  0  0  0  0  0  0
    6.3254   -1.6178    0.0000 C   0  0  0  0  0  0  0  0  0
    5.9898   -0.8641    0.0000 C   0  0  0  0  0  0  0  0  0
    1.3019    1.8478    0.0000 C   0  0  0  0  0  0  0  0  0
  1  2  1  0  0  0  0
  2  3  1  0  0  0  0
  3  4  1  0  0  0  0
  3 23  1  0  0  0  0
  4  5  1  0  0  0  0
  5  6  1  0  0  0  0
  6  7  1  0  0  0  0
  6  8  1  0  0  0  0
  8  9  1  0  0  0  0
  9 10  1  0  0  0  0
 10 11  4  0  0  0  0
 10 18  4  0  0  0  0
 11 12  4  0  0  0  0
 11 15  4  0  0  0  0
 12 13  4  0  0  0  0
 12 22  4  0  0  0  0
 13 14  4  0  0  0  0
 13 19  4  0  0  0  0
 14 15  4  0  0  0  0
 15 16  4  0  0  0  0
 16 17  4  0  0  0  0
 17 18  4  0  0  0  0
 19 20  4  0  0  0  0
 20 21  4  0  0  0  0
 21 22  4  0  0  0  0
M  STY  1   1 DAT
M  SAL   1  1  14
M  SDT   1 MRV_IMPLICIT_H                                        
M  SDD   1     0.0000    0.0000    DR    ALL  0       0  
M  SED   1 IMPL_H1
M  END
>  <Name_Molregno>
Fluorocarazolol

>  <5-HT1A>
6.97

>  <5-HT1B>
6.31

>  <5-HT1D>
5.5

>  <5-HT1E>
5

>  <5-HT3>
5

>  <5-HT5>
5

>  <5-HT6>
5

>  <5-HT7>
5.17

>  <Alpha-1A>
5.85

>  <Alpha-1B>
5.76

>  <Alpha-2A>
5.5

>  <Alpha-2B>
5.03

>  <Alpha-2C>
5.54

>  <Beta-1>
9.65

>  <Beta-2>
9.98

>  <DOPAMINE D1>
5

>  <DOPAMINE D5>
5

>  <Muscarinic acetylcholine receptor M1>
5.66

>  <Muscarinic acetylcholine receptor M2>
5

>  <Muscarinic acetylcholine receptor M3>
5.4

>  <Muscarinic acetylcholine receptor M4>
5.14

>  <Muscarinic acetylcholine receptor M5>
5.27

>  <Norepinephrine transporter>
5

>  <Serotonin transporter>
5

$$$$
FLUOXETINE
  Marvin  02231216192D 0   1.00000     0.00000     0

 22 23  0  0  1  0  0  0  0  0999 V2000
    0.2470    0.2265    0.0000 F   0  0  0  0  0  0  0  0  0
    0.9615   -0.1860    0.0000 C   0  0  0  0  0  0  0  0  0
    0.5490   -0.9005    0.0000 F   0  0  0  0  0  0  0  0  0
    1.3740    0.5285    0.0000 F   0  0  0  0  0  0  0  0  0
    1.6760   -0.5985    0.0000 C   0  0  0  0  0  0  0  0  0
    2.3904   -0.1860    0.0000 C   0  0  0  0  0  0  0  0  0
    3.1049   -0.5985    0.0000 C   0  0  0  0  0  0  0  0  0
    3.1049   -1.4235    0.0000 C   0  0  0  0  0  0  0  0  0
    3.8194   -1.8360    0.0000 O   0  0  0  0  0  0  0  0  0
    4.5339   -1.4235    0.0000 C   0  0  0  0  0  0  0  0  0
    5.2483   -1.8360    0.0000 C   0  0  0  0  0  0  0  0  0
    5.9628   -1.4235    0.0000 C   0  0  0  0  0  0  0  0  0
    6.6773   -1.8360    0.0000 N   0  0  0  0  0  0  0  0  0
    7.3917   -1.4235    0.0000 C   0  0  0  0  0  0  0  0  0
    4.5339   -0.5985    0.0000 C   0  0  0  0  0  0  0  0  0
    3.8194   -0.1860    0.0000 C   0  0  0  0  0  0  0  0  0
    3.8194    0.6390    0.0000 C   0  0  0  0  0  0  0  0  0
    4.5339    1.0515    0.0000 C   0  0  0  0  0  0  0  0  0
    5.2483    0.6390    0.0000 C   0  0  0  0  0  0  0  0  0
    5.2483   -0.1860    0.0000 C   0  0  0  0  0  0  0  0  0
    2.3904   -1.8360    0.0000 C   0  0  0  0  0  0  0  0  0
    1.6760   -1.4235    0.0000 C   0  0  0  0  0  0  0  0  0
  1  2  1  0  0  0  0
  2  3  1  0  0  0  0
  2  4  1  0  0  0  0
  2  5  1  0  0  0  0
  5  6  4  0  0  0  0
  5 22  4  0  0  0  0
  6  7  4  0  0  0  0
  7  8  4  0  0  0  0
  8  9  1  0  0  0  0
  8 21  4  0  0  0  0
  9 10  1  0  0  0  0
 10 11  1  0  0  0  0
 10 15  1  0  0  0  0
 11 12  1  0  0  0  0
 12 13  1  0  0  0  0
 13 14  1  0  0  0  0
 15 16  4  0  0  0  0
 15 20  4  0  0  0  0
 16 17  4  0  0  0  0
 17 18  4  0  0  0  0
 18 19  4  0  0  0  0
 19 20  4  0  0  0  0
 21 22  4  0  0  0  0
M  END
>  <Name_Molregno>
FLUOXETINE

>  <5-HT1A>
5

>  <5-HT2A>
6.72

>  <5-HT2C>
6.67

>  <Alpha-2A>
8.2

>  <DOPAMINE D2>
5

>  <Dopamine transporter>
5.32

>  <HISTAMINE H1>
5.62

>  <HISTAMINE H3>
5.14

>  <Muscarinic acetylcholine receptor M1>
6.05

>  <Muscarinic acetylcholine receptor M2>
5.57

>  <Muscarinic acetylcholine receptor M3>
6

>  <Muscarinic acetylcholine receptor M4>
5.54

>  <Muscarinic acetylcholine receptor M5>
5.57

>  <Norepinephrine transporter>
6.05

>  <Serotonin transporter>
8.57

$$$$
Fluparoxan
  Marvin  02231216192D 0   1.00000     0.00000     0

 14 16  0  0  1  0  0  0  0  0999 V2000
   -2.9096    0.8157    0.0000 F   0  0  0  0  0  0  0  0  0
   -2.9096   -0.0093    0.0000 C   0  0  0  0  0  0  0  0  0
   -2.1951   -0.4218    0.0000 C   0  0  0  0  0  0  0  0  0
   -1.4806   -0.0093    0.0000 O   0  0  0  0  0  0  0  0  0
   -0.7662   -0.4218    0.0000 C   0  0  0  0  0  0  0  0  0
   -0.7662   -1.2468    0.0000 C   0  0  0  0  0  0  0  0  0
   -1.4806   -1.6593    0.0000 O   0  0  0  0  0  0  0  0  0
   -2.1951   -1.2468    0.0000 C   0  0  0  0  0  0  0  0  0
   -2.9096   -1.6593    0.0000 C   0  0  0  0  0  0  0  0  0
   -3.6240   -1.2468    0.0000 C   0  0  0  0  0  0  0  0  0
   -3.6240   -0.4218    0.0000 C   0  0  0  0  0  0  0  0  0
    0.0185   -1.5018    0.0000 C   0  0  0  0  0  0  0  0  0
    0.5034   -0.8343    0.0000 N   0  0  0  0  0  0  0  0  0
    0.0185   -0.1669    0.0000 C   0  0  0  0  0  0  0  0  0
  1  2  1  0  0  0  0
  2  3  4  0  0  0  0
  2 11  4  0  0  0  0
  3  4  1  0  0  0  0
  3  8  4  0  0  0  0
  4  5  1  0  0  0  0
  5  6  1  0  0  0  0
  5 14  1  0  0  0  0
  6  7  1  0  0  0  0
  6 12  1  0  0  0  0
  7  8  1  0  0  0  0
  8  9  4  0  0  0  0
  9 10  4  0  0  0  0
 10 11  4  0  0  0  0
 12 13  1  0  0  0  0
 13 14  1  0  0  0  0
M  END
>  <Name_Molregno>
Fluparoxan

>  <5-HT1A>
6.8

>  <5-HT1B>
6

>  <5-HT1D>
6

>  <5-HT2A>
6

>  <5-HT2C>
6

>  <Alpha-1A>
6.3

>  <Alpha-1B>
6

>  <Alpha-2A>
8.13

>  <Alpha-2B>
8.9

>  <Alpha-2C>
8.8

>  <DOPAMINE D2>
6

>  <DOPAMINE D3>
6

>  <Serotonin transporter>
6

$$$$
FLUPHENAZINE
  Marvin  02231216192D 0   1.00000     0.00000     0

 38 41  0  0  0  0  0  0  0  0999 V2000
   -7.1492   -1.5262    0.0000 S   0  0  0  0  0  0  0  0  0
   -7.1492   -2.3512    0.0000 C   0  0  0  0  0  0  0  0  0
   -6.4348   -2.7637    0.0000 C   0  0  0  0  0  0  0  0  0
   -5.7203   -2.3512    0.0000 N   0  0  0  0  0  0  0  0  0
   -5.7203   -1.5262    0.0000 C   0  0  0  0  0  0  0  0  0
   -6.4348   -1.1137    0.0000 C   0  0  0  0  0  0  0  0  0
   -6.4348   -0.2887    0.0000 C   0  0  0  0  0  0  0  0  0
   -5.7203    0.1238    0.0000 C   0  0  0  0  0  0  0  0  0
   -5.0058   -0.2887    0.0000 C   0  0  0  0  0  0  0  0  0
   -5.0058   -1.1137    0.0000 C   0  0  0  0  0  0  0  0  0
   -5.0058   -2.7637    0.0000 C   0  0  0  0  0  0  0  0  0
   -4.2914   -2.3512    0.0000 C   0  0  0  0  0  0  0  0  0
   -3.5769   -2.7637    0.0000 C   0  0  0  0  0  0  0  0  0
   -2.8624   -2.3512    0.0000 N   0  0  0  0  0  0  0  0  0
   -2.8624   -1.5262    0.0000 C   0  0  0  0  0  0  0  0  0
   -2.1479   -1.1137    0.0000 C   0  0  0  0  0  0  0  0  0
   -1.4335   -1.5262    0.0000 N   0  0  0  0  0  0  0  0  0
   -1.4335   -2.3512    0.0000 C   0  0  0  0  0  0  0  0  0
   -2.1479   -2.7637    0.0000 C   0  0  0  0  0  0  0  0  0
   -0.7190   -1.1137    0.0000 C   0  0  0  0  0  0  0  0  0
   -0.0045   -1.5262    0.0000 C   0  0  0  0  0  0  0  0  0
    0.7099   -1.1137    0.0000 O   0  0  0  0  0  0  0  0  0
    1.4244   -1.5262    0.0000 C   0  0  0  0  0  0  0  0  0
    1.4244   -2.3512    0.0000 O   0  0  0  0  0  0  0  0  0
    2.1389   -1.1137    0.0000 C   0  0  0  0  0  0  0  0  0
    2.8534   -1.5262    0.0000 C   0  0  0  0  0  0  0  0  0
    3.5678   -1.1137    0.0000 C   0  0  0  0  0  0  0  0  0
    4.2823   -1.5262    0.0000 C   0  0  0  0  0  0  0  0  0
    4.9968   -1.1137    0.0000 C   0  0  0  0  0  0  0  0  0
    5.7112   -1.5262    0.0000 C   0  0  0  0  0  0  0  0  0
   -6.4348   -3.5887    0.0000 C   0  0  0  0  0  0  0  0  0
   -7.1492   -4.0012    0.0000 C   0  0  0  0  0  0  0  0  0
   -7.8637   -3.5887    0.0000 C   0  0  0  0  0  0  0  0  0
   -7.8637   -2.7637    0.0000 C   0  0  0  0  0  0  0  0  0
   -7.1492   -4.8262    0.0000 C   0  0  0  0  0  0  0  0  0
   -7.1492   -5.6512    0.0000 F   0  0  0  0  0  0  0  0  0
   -7.9742   -4.8262    0.0000 F   0  0  0  0  0  0  0  0  0
   -6.3242   -4.8262    0.0000 F   0  0  0  0  0  0  0  0  0
  1  2  1  0  0  0  0
  1  6  1  0  0  0  0
  2  3  4  0  0  0  0
  2 34  4  0  0  0  0
  3  4  1  0  0  0  0
  3 31  4  0  0  0  0
  4  5  1  0  0  0  0
  4 11  1  0  0  0  0
  5  6  4  0  0  0  0
  5 10  4  0  0  0  0
  6  7  4  0  0  0  0
  7  8  4  0  0  0  0
  8  9  4  0  0  0  0
  9 10  4  0  0  0  0
 11 12  1  0  0  0  0
 12 13  1  0  0  0  0
 13 14  1  0  0  0  0
 14 15  1  0  0  0  0
 14 19  1  0  0  0  0
 15 16  1  0  0  0  0
 16 17  1  0  0  0  0
 17 18  1  0  0  0  0
 17 20  1  0  0  0  0
 18 19  1  0  0  0  0
 20 21  1  0  0  0  0
 21 22  1  0  0  0  0
 22 23  1  0  0  0  0
 23 24  2  0  0  0  0
 23 25  1  0  0  0  0
 25 26  1  0  0  0  0
 26 27  1  0  0  0  0
 27 28  1  0  0  0  0
 28 29  1  0  0  0  0
 29 30  1  0  0  0  0
 31 32  4  0  0  0  0
 32 33  4  0  0  0  0
 32 35  1  0  0  0  0
 33 34  4  0  0  0  0
 35 36  1  0  0  0  0
 35 37  1  0  0  0  0
 35 38  1  0  0  0  0
M  END
>  <Name_Molregno>
FLUPHENAZINE

>  <5-HT1A>
6.41

>  <5-HT1B>
6.48

>  <5-HT1D>
6.48

>  <5-HT1E>
6.27

>  <5-HT2A>
7.87

>  <5-HT2C>
6.05

>  <5-HT3>
5

>  <5-HT5>
6.84

>  <5-HT6>
7.46

>  <5-HT7>
8.1

>  <Alpha-1A>
8.19

>  <Alpha-1B>
7.89

>  <Alpha-2A>
6.5

>  <Alpha-2B>
7.09

>  <Alpha-2C>
7.54

>  <Beta-1>
5

>  <Beta-2>
5

>  <DOPAMINE D1>
7.55

>  <DOPAMINE D2>
9.22

>  <DOPAMINE D3>
9.33

>  <DOPAMINE D4>
7.52

>  <DOPAMINE D5>
7.82

>  <Dopamine transporter>
5

>  <HISTAMINE H1>
7.72

>  <HISTAMINE H2>
6.25

>  <HISTAMINE H3>
6

>  <HISTAMINE H4>
5

>  <Muscarinic acetylcholine receptor M1>
5.96

>  <Muscarinic acetylcholine receptor M2>
5.14

>  <Muscarinic acetylcholine receptor M3>
5.84

>  <Muscarinic acetylcholine receptor M4>
5.27

>  <Muscarinic acetylcholine receptor M5>
6.45

>  <Norepinephrine transporter>
5.51

>  <Serotonin transporter>
5.23

$$$$
FLUSPIRILENE
  Marvin  02231216192D 0   1.00000     0.00000     0

 35 39  0  0  0  0  0  0  0  0999 V2000
    3.1924   -2.1696    0.0000 F   0  0  0  0  0  0  0  0  0
    2.3674   -2.1696    0.0000 C   0  0  0  0  0  0  0  0  0
    1.9549   -2.8841    0.0000 C   0  0  0  0  0  0  0  0  0
    1.1299   -2.8841    0.0000 C   0  0  0  0  0  0  0  0  0
    0.7174   -2.1696    0.0000 C   0  0  0  0  0  0  0  0  0
    1.1299   -1.4552    0.0000 C   0  0  0  0  0  0  0  0  0
    1.9549   -1.4552    0.0000 C   0  0  0  0  0  0  0  0  0
   -0.1076   -2.1696    0.0000 C   0  0  0  0  0  0  0  0  0
   -0.5201   -2.8841    0.0000 C   0  0  0  0  0  0  0  0  0
   -1.3451   -2.8841    0.0000 C   0  0  0  0  0  0  0  0  0
   -1.7576   -3.5986    0.0000 C   0  0  0  0  0  0  0  0  0
   -2.5826   -3.5986    0.0000 N   0  0  0  0  0  0  0  0  0
   -2.9951   -4.3130    0.0000 C   0  0  0  0  0  0  0  0  0
   -3.8201   -4.3130    0.0000 C   0  0  0  0  0  0  0  0  0
   -4.2326   -3.5986    0.0000 C   0  0  0  0  0  0  0  0  0
   -4.7175   -4.2660    0.0000 N   0  0  0  0  0  0  0  0  0
   -5.5021   -4.0111    0.0000 C   0  0  0  0  0  0  0  0  0
   -5.5021   -3.1861    0.0000 N   0  0  0  0  0  0  0  0  0
   -4.7175   -2.9311    0.0000 C   0  0  0  0  0  0  0  0  0
   -4.4626   -2.1465    0.0000 O   0  0  0  0  0  0  0  0  0
   -4.4626   -5.0506    0.0000 C   0  0  0  0  0  0  0  0  0
   -3.6556   -5.2222    0.0000 C   0  0  0  0  0  0  0  0  0
   -3.4007   -6.0068    0.0000 C   0  0  0  0  0  0  0  0  0
   -3.9527   -6.6199    0.0000 C   0  0  0  0  0  0  0  0  0
   -4.7597   -6.4483    0.0000 C   0  0  0  0  0  0  0  0  0
   -5.0146   -5.6637    0.0000 C   0  0  0  0  0  0  0  0  0
   -3.8201   -2.8841    0.0000 C   0  0  0  0  0  0  0  0  0
   -2.9951   -2.8841    0.0000 C   0  0  0  0  0  0  0  0  0
   -0.5201   -1.4552    0.0000 C   0  0  0  0  0  0  0  0  0
   -1.3451   -1.4552    0.0000 C   0  0  0  0  0  0  0  0  0
   -1.7576   -0.7407    0.0000 C   0  0  0  0  0  0  0  0  0
   -1.3451   -0.0262    0.0000 C   0  0  0  0  0  0  0  0  0
   -1.7576    0.6883    0.0000 F   0  0  0  0  0  0  0  0  0
   -0.5201   -0.0262    0.0000 C   0  0  0  0  0  0  0  0  0
   -0.1076   -0.7407    0.0000 C   0  0  0  0  0  0  0  0  0
  1  2  1  0  0  0  0
  2  3  4  0  0  0  0
  2  7  4  0  0  0  0
  3  4  4  0  0  0  0
  4  5  4  0  0  0  0
  5  6  4  0  0  0  0
  5  8  1  0  0  0  0
  6  7  4  0  0  0  0
  8  9  1  0  0  0  0
  8 29  1  0  0  0  0
  9 10  1  0  0  0  0
 10 11  1  0  0  0  0
 11 12  1  0  0  0  0
 12 13  1  0  0  0  0
 12 28  1  0  0  0  0
 13 14  1  0  0  0  0
 14 15  1  0  0  0  0
 15 16  1  0  0  0  0
 15 19  1  0  0  0  0
 15 27  1  0  0  0  0
 16 17  1  0  0  0  0
 16 21  1  0  0  0  0
 17 18  1  0  0  0  0
 18 19  1  0  0  0  0
 19 20  2  0  0  0  0
 21 22  4  0  0  0  0
 21 26  4  0  0  0  0
 22 23  4  0  0  0  0
 23 24  4  0  0  0  0
 24 25  4  0  0  0  0
 25 26  4  0  0  0  0
 27 28  1  0  0  0  0
 29 30  4  0  0  0  0
 29 35  4  0  0  0  0
 30 31  4  0  0  0  0
 31 32  4  0  0  0  0
 32 33  1  0  0  0  0
 32 34  4  0  0  0  0
 34 35  4  0  0  0  0
M  END
>  <Name_Molregno>
FLUSPIRILENE

>  <5-HT1A>
7.25

>  <5-HT1B>
5.95

>  <5-HT1D>
5.3

>  <5-HT1E>
5.65

>  <5-HT2A>
8.02

>  <Alpha-2A>
6.24

>  <Alpha-2B>
7.32

>  <Alpha-2C>
7.21

>  <Beta-1>
6.23

>  <Beta-2>
6.29

>  <DOPAMINE D2>
9.37

>  <DOPAMINE D3>
8.73

>  <DOPAMINE D4>
8.26

>  <HISTAMINE H1>
7.92

>  <Serotonin transporter>
6

$$$$
Guanabenz
  Marvin  02231216192D 0   1.00000     0.00000     0

 14 14  0  0  0  0  0  0  0  0999 V2000
    0.4645    0.4665    0.0000 Cl  0  0  0  0  0  0  0  0  0
   -0.2500    0.0540    0.0000 C   0  0  0  0  0  0  0  0  0
   -0.2500   -0.7710    0.0000 C   0  0  0  0  0  0  0  0  0
   -0.9644   -1.1835    0.0000 C   0  0  0  0  0  0  0  0  0
   -1.6789   -0.7710    0.0000 C   0  0  0  0  0  0  0  0  0
   -1.6789    0.0540    0.0000 C   0  0  0  0  0  0  0  0  0
   -2.3934    0.4665    0.0000 Cl  0  0  0  0  0  0  0  0  0
   -0.9644    0.4665    0.0000 C   0  0  0  0  0  0  0  0  0
   -0.9644    1.2915    0.0000 C   0  0  0  0  0  0  0  0  0
   -0.2500    1.7040    0.0000 N   0  0  0  0  0  0  0  0  0
   -0.2500    2.5290    0.0000 N   0  0  0  0  0  0  0  0  0
    0.4645    2.9415    0.0000 C   0  0  0  0  0  0  0  0  0
    0.4645    3.7665    0.0000 N   0  0  0  0  0  0  0  0  0
    1.1790    2.5290    0.0000 N   0  0  0  0  0  0  0  0  0
  1  2  1  0  0  0  0
  2  3  4  0  0  0  0
  2  8  4  0  0  0  0
  3  4  4  0  0  0  0
  4  5  4  0  0  0  0
  5  6  4  0  0  0  0
  6  7  1  0  0  0  0
  6  8  4  0  0  0  0
  8  9  1  0  0  0  0
  9 10  2  0  0  0  0
 10 11  1  0  0  0  0
 11 12  2  0  0  0  0
 12 13  1  0  0  0  0
 12 14  1  0  0  0  0
M  END
>  <Name_Molregno>
Guanabenz

>  <Alpha-2A>
7.66

>  <Alpha-2B>
6.55

>  <Alpha-2C>
6.35

$$$$
Guanfacine
  Marvin  02231216192D 0   1.00000     0.00000     0

 15 15  0  0  0  0  0  0  0  0999 V2000
    0.4060   -2.4273    0.0000 Cl  0  0  0  0  0  0  0  0  0
   -0.3085   -2.8398    0.0000 C   0  0  0  0  0  0  0  0  0
   -0.3085   -3.6648    0.0000 C   0  0  0  0  0  0  0  0  0
   -1.0229   -4.0773    0.0000 C   0  0  0  0  0  0  0  0  0
   -1.7374   -3.6648    0.0000 C   0  0  0  0  0  0  0  0  0
   -1.7374   -2.8398    0.0000 C   0  0  0  0  0  0  0  0  0
   -2.4519   -2.4273    0.0000 Cl  0  0  0  0  0  0  0  0  0
   -1.0229   -2.4273    0.0000 C   0  0  0  0  0  0  0  0  0
   -1.0229   -1.6023    0.0000 C   0  0  0  0  0  0  0  0  0
   -0.3085   -1.1898    0.0000 C   0  0  0  0  0  0  0  0  0
    0.4060   -1.6023    0.0000 O   0  0  0  0  0  0  0  0  0
   -0.3085   -0.3648    0.0000 N   0  0  0  0  0  0  0  0  0
    0.4060    0.0477    0.0000 C   0  0  0  0  0  0  0  0  0
    0.4060    0.8727    0.0000 N   0  0  0  0  0  0  0  0  0
    1.1205   -0.3648    0.0000 N   0  0  0  0  0  0  0  0  0
  1  2  1  0  0  0  0
  2  3  4  0  0  0  0
  2  8  4  0  0  0  0
  3  4  4  0  0  0  0
  4  5  4  0  0  0  0
  5  6  4  0  0  0  0
  6  7  1  0  0  0  0
  6  8  4  0  0  0  0
  8  9  1  0  0  0  0
  9 10  1  0  0  0  0
 10 11  2  0  0  0  0
 10 12  1  0  0  0  0
 12 13  2  0  0  0  0
 13 14  1  0  0  0  0
 13 15  1  0  0  0  0
M  END
>  <Name_Molregno>
Guanfacine

>  <Alpha-2A>
7.17

>  <Alpha-2B>
5.92

>  <Alpha-2C>
5.68

$$$$
HALOPERIDOL
  Marvin  02231216192D 0   1.00000     0.00000     0

 26 28  0  0  0  0  0  0  0  0999 V2000
    1.7138    2.6466    0.0000 Cl  0  0  0  0  0  0  0  0  0
    1.9960    1.8714    0.0000 C   0  0  0  0  0  0  0  0  0
    2.8084    1.7281    0.0000 C   0  0  0  0  0  0  0  0  0
    3.0906    0.9529    0.0000 C   0  0  0  0  0  0  0  0  0
    2.5603    0.3209    0.0000 C   0  0  0  0  0  0  0  0  0
    1.7478    0.4642    0.0000 C   0  0  0  0  0  0  0  0  0
    1.4657    1.2394    0.0000 C   0  0  0  0  0  0  0  0  0
    2.8425   -0.4543    0.0000 C   0  0  0  0  0  0  0  0  0
    2.0300   -0.5976    0.0000 O   0  0  0  0  0  0  0  0  0
    3.5569   -0.0418    0.0000 C   0  0  0  0  0  0  0  0  0
    4.2714   -0.4543    0.0000 C   0  0  0  0  0  0  0  0  0
    4.2714   -1.2793    0.0000 N   0  0  0  0  0  0  0  0  0
    3.5569   -1.6918    0.0000 C   0  0  0  0  0  0  0  0  0
    2.8425   -1.2793    0.0000 C   0  0  0  0  0  0  0  0  0
    4.9859   -1.6918    0.0000 C   0  0  0  0  0  0  0  0  0
    5.7003   -1.2793    0.0000 C   0  0  0  0  0  0  0  0  0
    6.4148   -1.6918    0.0000 C   0  0  0  0  0  0  0  0  0
    7.1293   -1.2793    0.0000 C   0  0  0  0  0  0  0  0  0
    7.1293   -0.4543    0.0000 O   0  0  0  0  0  0  0  0  0
    7.8438   -1.6918    0.0000 C   0  0  0  0  0  0  0  0  0
    8.5582   -1.2793    0.0000 C   0  0  0  0  0  0  0  0  0
    9.2727   -1.6918    0.0000 C   0  0  0  0  0  0  0  0  0
    9.2727   -2.5168    0.0000 C   0  0  0  0  0  0  0  0  0
    9.9872   -2.9293    0.0000 F   0  0  0  0  0  0  0  0  0
    8.5582   -2.9293    0.0000 C   0  0  0  0  0  0  0  0  0
    7.8438   -2.5168    0.0000 C   0  0  0  0  0  0  0  0  0
  1  2  1  0  0  0  0
  2  3  4  0  0  0  0
  2  7  4  0  0  0  0
  3  4  4  0  0  0  0
  4  5  4  0  0  0  0
  5  6  4  0  0  0  0
  5  8  1  0  0  0  0
  6  7  4  0  0  0  0
  8  9  1  0  0  0  0
  8 10  1  0  0  0  0
  8 14  1  0  0  0  0
 10 11  1  0  0  0  0
 11 12  1  0  0  0  0
 12 13  1  0  0  0  0
 12 15  1  0  0  0  0
 13 14  1  0  0  0  0
 15 16  1  0  0  0  0
 16 17  1  0  0  0  0
 17 18  1  0  0  0  0
 18 19  2  0  0  0  0
 18 20  1  0  0  0  0
 20 21  4  0  0  0  0
 20 26  4  0  0  0  0
 21 22  4  0  0  0  0
 22 23  4  0  0  0  0
 23 24  1  0  0  0  0
 23 25  4  0  0  0  0
 25 26  4  0  0  0  0
M  END
>  <Name_Molregno>
HALOPERIDOL

>  <5-HT1A>
5.67

>  <5-HT1B>
6.63

>  <5-HT1D>
5.56

>  <5-HT1E>
5.15

>  <5-HT2A>
7.01

>  <5-HT2C>
5.24

>  <5-HT3>
5

>  <5-HT5>
5.65

>  <5-HT6>
5.28

>  <5-HT7>
6.32

>  <Alpha-1A>
7.92

>  <Alpha-1B>
8.1

>  <Alpha-2A>
6.04

>  <Alpha-2B>
6.32

>  <Alpha-2C>
6.34

>  <Beta-1>
5

>  <Beta-2>
5.15

>  <DOPAMINE D1>
7.22

>  <DOPAMINE D2>
8.75

>  <DOPAMINE D3>
8.33

>  <DOPAMINE D4>
8.29

>  <DOPAMINE D5>
7.03

>  <Dopamine transporter>
5

>  <HISTAMINE H1>
6.04

>  <HISTAMINE H2>
6

>  <HISTAMINE H4>
5

>  <Muscarinic acetylcholine receptor M1>
5.4

>  <Muscarinic acetylcholine receptor M2>
5

>  <Muscarinic acetylcholine receptor M3>
5

>  <Muscarinic acetylcholine receptor M4>
5

>  <Muscarinic acetylcholine receptor M5>
5.59

>  <Norepinephrine transporter>
5.68

>  <Serotonin transporter>
5.74

$$$$
Hyperforin
  Marvin  02231216192D 0   1.00000     0.00000     0

 39 40  0  0  1  0  0  0  0  0999 V2000
   -0.0475    3.0141    0.0000 O   0  0  0  0  0  0  0  0  0
    0.7326    2.5988    0.0000 C   0  0  0  0  0  0  0  0  0
    1.6516    2.5995    0.0000 C   0  0  0  0  0  0  0  0  0
    1.7130    1.6464    0.0000 C   0  0  0  0  0  0  0  0  0
    1.3009    1.0655    0.0000 C   0  0  0  0  0  0  0  0  0
    0.9271    0.2926    0.0000 C   0  0  0  0  0  0  0  0  0
    0.6406   -0.4973    0.0000 C   0  0  0  0  0  0  0  0  0
   -0.1718   -0.6414    0.0000 C   0  0  0  0  0  0  0  0  0
   -0.7027   -0.0100    0.0000 C   0  0  0  0  0  0  0  0  0
   -0.4531   -1.4170    0.0000 C   0  0  0  0  0  0  0  0  0
    2.1172    1.2450    0.0000 C   0  0  0  0  0  0  0  0  0
    2.4176    0.4250    0.0000 C   0  0  0  0  0  0  0  0  0
    3.1181   -0.0803    0.0000 C   0  0  0  0  0  0  0  0  0
    3.0346   -0.9010    0.0000 C   0  0  0  0  0  0  0  0  0
    2.2821   -1.2391    0.0000 C   0  0  0  0  0  0  0  0  0
    1.6130   -0.7565    0.0000 C   0  0  0  0  0  0  0  0  0
    2.1987   -2.0599    0.0000 C   0  0  0  0  0  0  0  0  0
    2.9989    1.2958    0.0000 C   0  0  0  0  0  0  0  0  0
    2.0702    2.2319    0.0000 C   0  0  0  0  0  0  0  0  0
    2.8036    2.7016    0.0000 C   0  0  0  0  0  0  0  0  0
    2.8813    3.6702    0.0000 O   0  0  0  0  0  0  0  0  0
    3.6516    2.8271    0.0000 C   0  0  0  0  0  0  0  0  0
    3.9551    3.5942    0.0000 C   0  0  0  0  0  0  0  0  0
    4.1642    2.1806    0.0000 C   0  0  0  0  0  0  0  0  0
    2.0364    2.8705    0.0000 C   0  0  0  0  0  0  0  0  0
    2.9600    3.1637    0.0000 O   0  0  0  0  0  0  0  0  0
    1.1102    2.2212    0.0000 C   0  0  0  0  0  0  0  0  0
    0.8447    3.1353    0.0000 O   0  0  0  0  0  0  0  0  0
    0.6057    1.7969    0.0000 C   0  0  0  0  0  0  0  0  0
   -0.1558    1.3974    0.0000 C   0  0  0  0  0  0  0  0  0
   -0.9549    1.0682    0.0000 C   0  0  0  0  0  0  0  0  0
   -1.6085    1.5717    0.0000 C   0  0  0  0  0  0  0  0  0
   -2.3713    1.2575    0.0000 C   0  0  0  0  0  0  0  0  0
   -1.4992    2.3895    0.0000 C   0  0  0  0  0  0  0  0  0
    1.5780    3.5970    0.0000 C   0  0  0  0  0  0  0  0  0
    1.5386    4.4833    0.0000 C   0  0  0  0  0  0  0  0  0
    0.8065    4.8636    0.0000 C   0  0  0  0  0  0  0  0  0
    0.7698    5.6878    0.0000 C   0  0  0  0  0  0  0  0  0
    0.1111    4.4198    0.0000 C   0  0  0  0  0  0  0  0  0
  1  2  1  0  0  0  0
  2  3  1  0  0  0  0
  2 29  2  0  0  0  0
  3  4  1  0  0  0  0
  3 25  1  0  0  0  0
  3 35  1  0  0  0  0
  4  5  1  0  0  0  0
  5  6  1  0  0  0  0
  5 11  1  0  0  0  0
  6  7  1  0  0  0  0
  7  8  2  0  0  0  0
  8  9  1  0  0  0  0
  8 10  1  0  0  0  0
 11 12  1  0  0  0  0
 11 18  1  0  0  0  0
 11 19  1  0  0  0  0
 12 13  1  0  0  0  0
 13 14  1  0  0  0  0
 14 15  2  0  0  0  0
 15 16  1  0  0  0  0
 15 17  1  0  0  0  0
 19 20  1  0  0  0  0
 19 25  1  0  0  0  0
 19 27  1  0  0  0  0
 20 21  2  0  0  0  0
 20 22  1  0  0  0  0
 22 23  1  0  0  0  0
 22 24  1  0  0  0  0
 25 26  2  0  0  0  0
 27 28  2  0  0  0  0
 27 29  1  0  0  0  0
 29 30  1  0  0  0  0
 30 31  1  0  0  0  0
 31 32  2  0  0  0  0
 32 33  1  0  0  0  0
 32 34  1  0  0  0  0
 35 36  1  0  0  0  0
 36 37  2  0  0  0  0
 37 38  1  0  0  0  0
 37 39  1  0  0  0  0
M  END
>  <Name_Molregno>
Hyperforin

>  <5-HT1A>
5

>  <5-HT1D>
5

>  <5-HT3>
5

>  <5-HT5>
5

>  <5-HT6>
5

>  <5-HT7>
5

>  <Alpha-1A>
5

>  <Alpha-1B>
5

>  <Alpha-2A>
5

>  <Alpha-2B>
5

>  <Alpha-2C>
5

>  <DOPAMINE D1>
6.22

>  <DOPAMINE D5>
5

>  <Muscarinic acetylcholine receptor M1>
5

>  <Muscarinic acetylcholine receptor M2>
5

>  <Muscarinic acetylcholine receptor M3>
5

>  <Muscarinic acetylcholine receptor M4>
5

>  <Muscarinic acetylcholine receptor M5>
5

>  <Norepinephrine transporter>
5

>  <Serotonin transporter>
5

$$$$
Hypericin
  Marvin  02231216192D 0   1.00000     0.00000     0

 39 46  0  0  0  0  0  0  0  0999 V2000
   -0.3746   -3.0738    0.0000 O   0  0  0  0  0  0  0  0  0
    0.1655   -2.4502    0.0000 C   0  0  0  0  0  0  0  0  0
    0.9756   -2.6061    0.0000 C   0  0  0  0  0  0  0  0  0
    1.5157   -1.9824    0.0000 C   0  0  0  0  0  0  0  0  0
    1.2457   -1.2029    0.0000 C   0  0  0  0  0  0  0  0  0
    1.7858   -0.5792    0.0000 C   0  0  0  0  0  0  0  0  0
    2.5959   -0.7352    0.0000 C   0  0  0  0  0  0  0  0  0
    3.1360   -0.1115    0.0000 C   0  0  0  0  0  0  0  0  0
    3.9461   -0.2674    0.0000 C   0  0  0  0  0  0  0  0  0
    4.4862    0.3562    0.0000 O   0  0  0  0  0  0  0  0  0
    4.2162   -1.0470    0.0000 C   0  0  0  0  0  0  0  0  0
    3.6761   -1.6706    0.0000 C   0  0  0  0  0  0  0  0  0
    3.9461   -2.4502    0.0000 C   0  0  0  0  0  0  0  0  0
    3.4060   -3.0738    0.0000 C   0  0  0  0  0  0  0  0  0
    2.5959   -2.9179    0.0000 C   0  0  0  0  0  0  0  0  0
    2.0558   -3.5415    0.0000 C   0  0  0  0  0  0  0  0  0
    1.2457   -3.3856    0.0000 C   0  0  0  0  0  0  0  0  0
    0.7056   -4.0093    0.0000 O   0  0  0  0  0  0  0  0  0
    2.3258   -4.3211    0.0000 C   0  0  0  0  0  0  0  0  0
    1.7858   -4.9447    0.0000 O   0  0  0  0  0  0  0  0  0
    3.1360   -4.4770    0.0000 C   0  0  0  0  0  0  0  0  0
    3.6761   -3.8534    0.0000 C   0  0  0  0  0  0  0  0  0
    4.4862   -4.0093    0.0000 O   0  0  0  0  0  0  0  0  0
    2.3258   -2.1384    0.0000 C   0  0  0  0  0  0  0  0  0
    2.8659   -1.5147    0.0000 C   0  0  0  0  0  0  0  0  0
    4.7562   -2.6061    0.0000 C   0  0  0  0  0  0  0  0  0
    5.0263   -3.3856    0.0000 O   0  0  0  0  0  0  0  0  0
    5.2963   -1.9824    0.0000 C   0  0  0  0  0  0  0  0  0
    5.0263   -1.2029    0.0000 C   0  0  0  0  0  0  0  0  0
    5.5664   -0.5792    0.0000 O   0  0  0  0  0  0  0  0  0
    2.8659    0.6680    0.0000 C   0  0  0  0  0  0  0  0  0
    3.4060    1.2917    0.0000 O   0  0  0  0  0  0  0  0  0
    2.0558    0.8239    0.0000 C   0  0  0  0  0  0  0  0  0
    1.5157    0.2003    0.0000 C   0  0  0  0  0  0  0  0  0
    0.7056    0.3562    0.0000 C   0  0  0  0  0  0  0  0  0
    0.4355   -1.0470    0.0000 C   0  0  0  0  0  0  0  0  0
   -0.1046   -1.6706    0.0000 C   0  0  0  0  0  0  0  0  0
    0.1655   -0.2674    0.0000 C   0  0  0  0  0  0  0  0  0
   -0.6446   -0.1115    0.0000 O   0  0  0  0  0  0  0  0  0
  1  2  1  0  0  0  0
  2  3  4  0  0  0  0
  2 37  4  0  0  0  0
  3  4  4  0  0  0  0
  3 17  1  0  0  0  0
  4  5  4  0  0  0  0
  4 24  4  0  0  0  0
  5  6  4  0  0  0  0
  5 36  4  0  0  0  0
  6  7  4  0  0  0  0
  6 34  4  0  0  0  0
  7  8  4  0  0  0  0
  7 25  4  0  0  0  0
  8  9  1  0  0  0  0
  8 31  4  0  0  0  0
  9 10  2  0  0  0  0
  9 11  1  0  0  0  0
 11 12  4  0  0  0  0
 11 29  4  0  0  0  0
 12 13  4  0  0  0  0
 12 25  4  0  0  0  0
 13 14  4  0  0  0  0
 13 26  4  0  0  0  0
 14 15  4  0  0  0  0
 14 22  4  0  0  0  0
 15 16  4  0  0  0  0
 15 24  4  0  0  0  0
 16 17  1  0  0  0  0
 16 19  4  0  0  0  0
 17 18  2  0  0  0  0
 19 20  1  0  0  0  0
 19 21  4  0  0  0  0
 21 22  4  0  0  0  0
 22 23  1  0  0  0  0
 24 25  4  0  0  0  0
 26 27  1  0  0  0  0
 26 28  4  0  0  0  0
 28 29  4  0  0  0  0
 29 30  1  0  0  0  0
 31 32  1  0  0  0  0
 31 33  4  0  0  0  0
 33 34  4  0  0  0  0
 34 35  1  0  0  0  0
 36 37  4  0  0  0  0
 36 38  1  0  0  0  0
 38 39  1  0  0  0  0
M  END
>  <Name_Molregno>
Hypericin

>  <5-HT1A>
5

>  <5-HT1D>
5

>  <5-HT3>
5

>  <5-HT5>
5

>  <5-HT6>
5

>  <5-HT7>
5

>  <Alpha-1A>
5

>  <Alpha-1B>
5

>  <Alpha-2A>
5

>  <Alpha-2B>
5

>  <Alpha-2C>
5

>  <DOPAMINE D1>
5

>  <DOPAMINE D5>
5

>  <Muscarinic acetylcholine receptor M1>
5

>  <Muscarinic acetylcholine receptor M2>
5

>  <Muscarinic acetylcholine receptor M3>
5

>  <Muscarinic acetylcholine receptor M4>
5

>  <Muscarinic acetylcholine receptor M5>
5

>  <Norepinephrine transporter>
5

>  <Serotonin transporter>
5

$$$$
Hyperoside
  Marvin  02231216192D 0   1.00000     0.00000     0

 33 36  0  0  1  0  0  0  0  0999 V2000
    1.3731    1.4076    0.0000 O   0  0  0  0  0  0  0  0  0
    1.3731    2.2326    0.0000 C   0  0  0  0  0  0  0  0  0
    2.0876    2.6451    0.0000 C   0  0  0  0  0  0  0  0  0
    2.0876    3.4701    0.0000 O   0  0  0  0  0  0  0  0  0
    0.6587    2.6451    0.0000 C   0  0  0  0  0  0  0  0  0
    0.6587    3.4701    0.0000 O   0  0  0  0  0  0  0  0  0
   -0.0558    2.2326    0.0000 C   0  0  0  0  0  0  0  0  0
   -0.7703    2.6451    0.0000 O   0  0  0  0  0  0  0  0  0
   -0.0558    1.4076    0.0000 C   0  0  0  0  0  0  0  0  0
   -0.7703    0.9951    0.0000 O   0  0  0  0  0  0  0  0  0
    0.6587    0.9951    0.0000 C   0  0  0  0  0  0  0  0  0
    0.6587    0.1701    0.0000 O   0  0  0  0  0  0  0  0  0
    1.3731   -0.2424    0.0000 C   0  0  0  0  0  0  0  0  0
    1.3731   -1.0674    0.0000 C   0  0  0  0  0  0  0  0  0
    2.0876   -1.4799    0.0000 O   0  0  0  0  0  0  0  0  0
    2.8021   -1.0674    0.0000 C   0  0  0  0  0  0  0  0  0
    2.8021   -0.2424    0.0000 C   0  0  0  0  0  0  0  0  0
    2.0876    0.1701    0.0000 C   0  0  0  0  0  0  0  0  0
    2.0876    0.9951    0.0000 O   0  0  0  0  0  0  0  0  0
    3.5166    0.1701    0.0000 C   0  0  0  0  0  0  0  0  0
    3.5166    0.9951    0.0000 O   0  0  0  0  0  0  0  0  0
    4.2310   -0.2424    0.0000 C   0  0  0  0  0  0  0  0  0
    4.2310   -1.0674    0.0000 C   0  0  0  0  0  0  0  0  0
    4.9455   -1.4799    0.0000 O   0  0  0  0  0  0  0  0  0
    3.5166   -1.4799    0.0000 C   0  0  0  0  0  0  0  0  0
    0.6587   -1.4799    0.0000 C   0  0  0  0  0  0  0  0  0
    0.6587   -2.3049    0.0000 C   0  0  0  0  0  0  0  0  0
   -0.0558   -2.7174    0.0000 C   0  0  0  0  0  0  0  0  0
   -0.0558   -3.5424    0.0000 O   0  0  0  0  0  0  0  0  0
   -0.7703   -2.3049    0.0000 C   0  0  0  0  0  0  0  0  0
   -1.4847   -2.7174    0.0000 O   0  0  0  0  0  0  0  0  0
   -0.7703   -1.4799    0.0000 C   0  0  0  0  0  0  0  0  0
   -0.0558   -1.0674    0.0000 C   0  0  0  0  0  0  0  0  0
  1  2  1  0  0  0  0
  1 11  1  0  0  0  0
  2  3  1  0  0  0  0
  2  5  1  0  0  0  0
  3  4  1  0  0  0  0
  5  6  1  0  0  0  0
  5  7  1  0  0  0  0
  7  8  1  0  0  0  0
  7  9  1  0  0  0  0
  9 10  1  0  0  0  0
  9 11  1  0  0  0  0
 11 12  1  0  0  0  0
 12 13  1  0  0  0  0
 13 14  2  0  0  0  0
 13 18  1  0  0  0  0
 14 15  1  0  0  0  0
 14 26  1  0  0  0  0
 15 16  1  0  0  0  0
 16 17  1  0  0  0  0
 16 25  2  0  0  0  0
 17 18  2  0  0  0  0
 17 20  1  0  0  0  0
 18 19  1  0  0  0  0
 20 21  1  0  0  0  0
 20 22  2  0  0  0  0
 22 23  1  0  0  0  0
 23 24  2  0  0  0  0
 23 25  1  0  0  0  0
 26 27  4  0  0  0  0
 26 33  4  0  0  0  0
 27 28  4  0  0  0  0
 28 29  1  0  0  0  0
 28 30  4  0  0  0  0
 30 31  1  0  0  0  0
 30 32  4  0  0  0  0
 32 33  4  0  0  0  0
M  END
>  <Name_Molregno>
Hyperoside

>  <5-HT1A>
5

>  <5-HT1D>
5

>  <5-HT3>
5

>  <5-HT5>
5

>  <5-HT6>
5

>  <5-HT7>
5

>  <Alpha-1A>
5

>  <Alpha-1B>
5

>  <Alpha-2A>
5.38

>  <Alpha-2B>
5

>  <Alpha-2C>
5.13

>  <DOPAMINE D1>
5

>  <DOPAMINE D5>
5

>  <Muscarinic acetylcholine receptor M1>
5

>  <Muscarinic acetylcholine receptor M2>
5

>  <Muscarinic acetylcholine receptor M3>
5

>  <Muscarinic acetylcholine receptor M4>
5

>  <Muscarinic acetylcholine receptor M5>
5

>  <Norepinephrine transporter>
5

>  <Serotonin transporter>
5

$$$$
ibuprofen
  Marvin  02231216192D 0   1.00000     0.00000     0

 15 15  0  0  1  0  0  0  0  0999 V2000
    3.0591   -3.4943    0.0000 O   0  0  0  0  0  0  0  0  0
    3.0591   -2.6693    0.0000 C   0  0  0  0  0  0  0  0  0
    3.7735   -2.2568    0.0000 O   0  0  0  0  0  0  0  0  0
    2.3446   -2.2568    0.0000 C   0  0  0  0  0  0  0  0  0
    1.6301   -2.6693    0.0000 C   0  0  0  0  0  0  0  0  0
    2.3446   -1.4318    0.0000 C   0  0  0  0  0  0  0  0  0
    1.6301   -1.0193    0.0000 C   0  0  0  0  0  0  0  0  0
    1.6301   -0.1943    0.0000 C   0  0  0  0  0  0  0  0  0
    2.3446    0.2182    0.0000 C   0  0  0  0  0  0  0  0  0
    3.0591   -0.1943    0.0000 C   0  0  0  0  0  0  0  0  0
    3.0591   -1.0193    0.0000 C   0  0  0  0  0  0  0  0  0
    2.3446    1.0432    0.0000 C   0  0  0  0  0  0  0  0  0
    3.0591    1.4557    0.0000 C   0  0  0  0  0  0  0  0  0
    3.0591    2.2807    0.0000 C   0  0  0  0  0  0  0  0  0
    3.7735    1.0432    0.0000 C   0  0  0  0  0  0  0  0  0
  1  2  1  0  0  0  0
  2  3  2  0  0  0  0
  2  4  1  0  0  0  0
  4  5  1  0  0  0  0
  4  6  1  0  0  0  0
  6  7  4  0  0  0  0
  6 11  4  0  0  0  0
  7  8  4  0  0  0  0
  8  9  4  0  0  0  0
  9 10  4  0  0  0  0
  9 12  1  0  0  0  0
 10 11  4  0  0  0  0
 12 13  1  0  0  0  0
 13 14  1  0  0  0  0
 13 15  1  0  0  0  0
M  END
>  <Name_Molregno>
ibuprofen

>  <5-HT1A>
5

>  <5-HT1B>
5

>  <5-HT1D>
5

>  <5-HT1E>
5

>  <5-HT2A>
5

>  <5-HT3>
5

>  <5-HT6>
5

>  <5-HT7>
5

>  <Alpha-1A>
5

>  <Alpha-1B>
5

>  <Alpha-2A>
5

>  <Alpha-2B>
5

>  <Alpha-2C>
5

>  <DOPAMINE D1>
5

>  <DOPAMINE D2>
5

>  <DOPAMINE D4>
5

>  <DOPAMINE D5>
5

>  <Dopamine transporter>
5

>  <HISTAMINE H1>
5

>  <HISTAMINE H2>
5

>  <Muscarinic acetylcholine receptor M2>
5

>  <Muscarinic acetylcholine receptor M5>
5

>  <Norepinephrine transporter>
5

>  <Serotonin transporter>
5

$$$$
IDAZOXAN
  Marvin  02231216192D 0   1.00000     0.00000     0

 15 17  0  0  1  0  0  0  0  0999 V2000
    0.2447    0.0307    0.0000 O   0  0  0  0  0  0  0  0  0
    0.9592    0.4432    0.0000 C   0  0  0  0  0  0  0  0  0
    0.9592    1.2682    0.0000 C   0  0  0  0  0  0  0  0  0
    0.2447    1.6807    0.0000 O   0  0  0  0  0  0  0  0  0
   -0.4697    1.2682    0.0000 C   0  0  0  0  0  0  0  0  0
   -0.4697    0.4432    0.0000 C   0  0  0  0  0  0  0  0  0
   -1.1842    0.0307    0.0000 C   0  0  0  0  0  0  0  0  0
   -1.2704   -0.7898    0.0000 N   0  0  0  0  0  0  0  0  0
   -2.0774   -0.9613    0.0000 C   0  0  0  0  0  0  0  0  0
   -2.4899   -0.2468    0.0000 C   0  0  0  0  0  0  0  0  0
   -1.9379    0.3663    0.0000 N   0  0  0  0  0  0  0  0  0
    1.6737    1.6807    0.0000 C   0  0  0  0  0  0  0  0  0
    2.3881    1.2682    0.0000 C   0  0  0  0  0  0  0  0  0
    2.3881    0.4432    0.0000 C   0  0  0  0  0  0  0  0  0
    1.6737    0.0307    0.0000 C   0  0  0  0  0  0  0  0  0
  1  2  1  0  0  0  0
  1  6  1  0  0  0  0
  2  3  4  0  0  0  0
  2 15  4  0  0  0  0
  3  4  1  0  0  0  0
  3 12  4  0  0  0  0
  4  5  1  0  0  0  0
  5  6  1  0  0  0  0
  6  7  1  0  0  0  0
  7  8  1  0  0  0  0
  7 11  2  0  0  0  0
  8  9  1  0  0  0  0
  9 10  1  0  0  0  0
 10 11  1  0  0  0  0
 12 13  4  0  0  0  0
 13 14  4  0  0  0  0
 14 15  4  0  0  0  0
M  END
>  <Name_Molregno>
IDAZOXAN

>  <5-HT1A>
6.18

>  <5-HT3>
5

>  <Alpha-2A>
8.09

>  <Alpha-2B>
7.36

>  <Alpha-2C>
7.72

>  <DOPAMINE D1>
5

>  <DOPAMINE D2>
5

$$$$
ILOPERIDONE
  Marvin  02231216192D 0   1.00000     0.00000     0

 31 34  0  0  0  0  0  0  0  0999 V2000
    9.8408   -5.0338    0.0000 F   0  0  0  0  0  0  0  0  0
    9.1263   -4.6213    0.0000 C   0  0  0  0  0  0  0  0  0
    8.4119   -5.0338    0.0000 C   0  0  0  0  0  0  0  0  0
    7.6974   -4.6213    0.0000 C   0  0  0  0  0  0  0  0  0
    6.9128   -4.8762    0.0000 O   0  0  0  0  0  0  0  0  0
    6.4279   -4.2088    0.0000 N   0  0  0  0  0  0  0  0  0
    6.9128   -3.5413    0.0000 C   0  0  0  0  0  0  0  0  0
    7.6974   -3.7963    0.0000 C   0  0  0  0  0  0  0  0  0
    8.4119   -3.3838    0.0000 C   0  0  0  0  0  0  0  0  0
    9.1263   -3.7963    0.0000 C   0  0  0  0  0  0  0  0  0
    6.6578   -2.7567    0.0000 C   0  0  0  0  0  0  0  0  0
    5.8509   -2.5852    0.0000 C   0  0  0  0  0  0  0  0  0
    5.5959   -1.8006    0.0000 C   0  0  0  0  0  0  0  0  0
    6.1480   -1.1875    0.0000 N   0  0  0  0  0  0  0  0  0
    6.9549   -1.3590    0.0000 C   0  0  0  0  0  0  0  0  0
    7.2099   -2.1436    0.0000 C   0  0  0  0  0  0  0  0  0
    5.8930   -0.4028    0.0000 C   0  0  0  0  0  0  0  0  0
    5.0861   -0.2313    0.0000 C   0  0  0  0  0  0  0  0  0
    4.8311    0.5533    0.0000 C   0  0  0  0  0  0  0  0  0
    4.0241    0.7248    0.0000 O   0  0  0  0  0  0  0  0  0
    3.7692    1.5095    0.0000 C   0  0  0  0  0  0  0  0  0
    2.9622    1.6810    0.0000 C   0  0  0  0  0  0  0  0  0
    2.7073    2.4656    0.0000 C   0  0  0  0  0  0  0  0  0
    3.2593    3.0787    0.0000 C   0  0  0  0  0  0  0  0  0
    4.0663    2.9072    0.0000 C   0  0  0  0  0  0  0  0  0
    4.3212    2.1225    0.0000 C   0  0  0  0  0  0  0  0  0
    5.1282    1.9510    0.0000 O   0  0  0  0  0  0  0  0  0
    5.6802    2.5641    0.0000 C   0  0  0  0  0  0  0  0  0
    3.0044    3.8633    0.0000 C   0  0  0  0  0  0  0  0  0
    2.1974    4.0348    0.0000 O   0  0  0  0  0  0  0  0  0
    3.5564    4.4764    0.0000 C   0  0  0  0  0  0  0  0  0
  1  2  1  0  0  0  0
  2  3  4  0  0  0  0
  2 10  4  0  0  0  0
  3  4  4  0  0  0  0
  4  5  4  0  0  0  0
  4  8  4  0  0  0  0
  5  6  4  0  0  0  0
  6  7  4  0  0  0  0
  7  8  4  0  0  0  0
  7 11  1  0  0  0  0
  8  9  4  0  0  0  0
  9 10  4  0  0  0  0
 11 12  1  0  0  0  0
 11 16  1  0  0  0  0
 12 13  1  0  0  0  0
 13 14  1  0  0  0  0
 14 15  1  0  0  0  0
 14 17  1  0  0  0  0
 15 16  1  0  0  0  0
 17 18  1  0  0  0  0
 18 19  1  0  0  0  0
 19 20  1  0  0  0  0
 20 21  1  0  0  0  0
 21 22  4  0  0  0  0
 21 26  4  0  0  0  0
 22 23  4  0  0  0  0
 23 24  4  0  0  0  0
 24 25  4  0  0  0  0
 24 29  1  0  0  0  0
 25 26  4  0  0  0  0
 26 27  1  0  0  0  0
 27 28  1  0  0  0  0
 29 30  2  0  0  0  0
 29 31  1  0  0  0  0
M  END
>  <Name_Molregno>
ILOPERIDONE

>  <5-HT1A>
7.18

>  <5-HT1B>
7.05

>  <5-HT1D>
7.82

>  <5-HT2A>
9.46

>  <5-HT2C>
7.27

>  <5-HT3>
5

>  <5-HT6>
7.2

>  <5-HT7>
6.95

>  <Alpha-2A>
6.79

>  <Alpha-2B>
6.79

>  <Alpha-2C>
7.79

>  <Beta-1>
5

>  <Beta-2>
5

>  <DOPAMINE D1>
7.02

>  <DOPAMINE D2>
8.23

>  <DOPAMINE D3>
8

>  <DOPAMINE D4>
7.96

>  <DOPAMINE D5>
6.5

>  <Dopamine transporter>
5.53

>  <HISTAMINE H1>
7.91

>  <Muscarinic acetylcholine receptor M1>
5.31

>  <Muscarinic acetylcholine receptor M2>
5.48

>  <Muscarinic acetylcholine receptor M3>
5

>  <Muscarinic acetylcholine receptor M4>
5.08

>  <Muscarinic acetylcholine receptor M5>
5

>  <Norepinephrine transporter>
5.83

$$$$
IMILOXAN
  Marvin  02231216192D 0   1.00000     0.00000     0

 18 20  0  0  1  0  0  0  0  0999 V2000
    1.4499   -0.3599    0.0000 O   0  0  0  0  0  0  0  0  0
    2.1643    0.0526    0.0000 C   0  0  0  0  0  0  0  0  0
    2.1643    0.8776    0.0000 C   0  0  0  0  0  0  0  0  0
    1.4499    1.2901    0.0000 O   0  0  0  0  0  0  0  0  0
    0.7354    0.8776    0.0000 C   0  0  0  0  0  0  0  0  0
    0.7354    0.0526    0.0000 C   0  0  0  0  0  0  0  0  0
    0.0209   -0.3599    0.0000 C   0  0  0  0  0  0  0  0  0
   -0.6935    0.0526    0.0000 C   0  0  0  0  0  0  0  0  0
   -1.4472   -0.2830    0.0000 N   0  0  0  0  0  0  0  0  0
   -1.9993    0.3301    0.0000 C   0  0  0  0  0  0  0  0  0
   -1.5868    1.0446    0.0000 C   0  0  0  0  0  0  0  0  0
   -0.7798    0.8731    0.0000 N   0  0  0  0  0  0  0  0  0
   -0.1667    1.4251    0.0000 C   0  0  0  0  0  0  0  0  0
   -0.3382    2.2321    0.0000 C   0  0  0  0  0  0  0  0  0
    2.8788    1.2901    0.0000 C   0  0  0  0  0  0  0  0  0
    3.5933    0.8776    0.0000 C   0  0  0  0  0  0  0  0  0
    3.5933    0.0526    0.0000 C   0  0  0  0  0  0  0  0  0
    2.8788   -0.3599    0.0000 C   0  0  0  0  0  0  0  0  0
  1  2  1  0  0  0  0
  1  6  1  0  0  0  0
  2  3  4  0  0  0  0
  2 18  4  0  0  0  0
  3  4  1  0  0  0  0
  3 15  4  0  0  0  0
  4  5  1  0  0  0  0
  5  6  1  0  0  0  0
  6  7  1  0  0  0  0
  7  8  1  0  0  0  0
  8  9  4  0  0  0  0
  8 12  4  0  0  0  0
  9 10  4  0  0  0  0
 10 11  4  0  0  0  0
 11 12  4  0  0  0  0
 12 13  1  0  0  0  0
 13 14  1  0  0  0  0
 15 16  4  0  0  0  0
 16 17  4  0  0  0  0
 17 18  4  0  0  0  0
M  END
>  <Name_Molregno>
IMILOXAN

>  <Alpha-2A>
6.5

>  <Alpha-2B>
7.17

>  <Alpha-2C>
6.82

$$$$
Ketorolac
  Marvin  02231216192D 0   1.00000     0.00000     0

 19 21  0  0  1  0  0  0  0  0999 V2000
    1.4450    2.2138    0.0000 O   0  0  0  0  0  0  0  0  0
    2.2520    2.0422    0.0000 C   0  0  0  0  0  0  0  0  0
    2.8040    2.6553    0.0000 O   0  0  0  0  0  0  0  0  0
    2.5069    1.2576    0.0000 C   0  0  0  0  0  0  0  0  0
    2.0220    0.5902    0.0000 C   0  0  0  0  0  0  0  0  0
    2.5069   -0.0773    0.0000 C   0  0  0  0  0  0  0  0  0
    3.2915    0.1777    0.0000 N   0  0  0  0  0  0  0  0  0
    3.2915    1.0027    0.0000 C   0  0  0  0  0  0  0  0  0
    4.0761    1.2576    0.0000 C   0  0  0  0  0  0  0  0  0
    4.5611    0.5902    0.0000 C   0  0  0  0  0  0  0  0  0
    4.0761   -0.0773    0.0000 C   0  0  0  0  0  0  0  0  0
    4.3311   -0.8619    0.0000 C   0  0  0  0  0  0  0  0  0
    5.1381   -1.0334    0.0000 O   0  0  0  0  0  0  0  0  0
    3.7791   -1.4750    0.0000 C   0  0  0  0  0  0  0  0  0
    4.0340   -2.2596    0.0000 C   0  0  0  0  0  0  0  0  0
    3.4820   -2.8727    0.0000 C   0  0  0  0  0  0  0  0  0
    2.6750   -2.7012    0.0000 C   0  0  0  0  0  0  0  0  0
    2.4201   -1.9166    0.0000 C   0  0  0  0  0  0  0  0  0
    2.9721   -1.3035    0.0000 C   0  0  0  0  0  0  0  0  0
  1  2  1  0  0  0  0
  2  3  2  0  0  0  0
  2  4  1  0  0  0  0
  4  5  1  0  0  0  0
  4  8  1  0  0  0  0
  5  6  1  0  0  0  0
  6  7  1  0  0  0  0
  7  8  4  0  0  0  0
  7 11  4  0  0  0  0
  8  9  4  0  0  0  0
  9 10  4  0  0  0  0
 10 11  4  0  0  0  0
 11 12  1  0  0  0  0
 12 13  2  0  0  0  0
 12 14  1  0  0  0  0
 14 15  4  0  0  0  0
 14 19  4  0  0  0  0
 15 16  4  0  0  0  0
 16 17  4  0  0  0  0
 17 18  4  0  0  0  0
 18 19  4  0  0  0  0
M  END
>  <Name_Molregno>
Ketorolac

>  <5-HT1A>
5

>  <5-HT1B>
5

>  <5-HT1D>
5

>  <5-HT1E>
5

>  <5-HT2A>
5

>  <5-HT3>
5

>  <5-HT5>
5

>  <5-HT6>
5

>  <5-HT7>
5

>  <Alpha-1A>
5

>  <Alpha-1B>
5

>  <Alpha-2A>
5

>  <Alpha-2B>
5

>  <Alpha-2C>
5

>  <DOPAMINE D1>
5

>  <DOPAMINE D2>
5

>  <DOPAMINE D4>
5

>  <DOPAMINE D5>
5

>  <Dopamine transporter>
5

>  <HISTAMINE H1>
5

>  <HISTAMINE H2>
5

>  <Muscarinic acetylcholine receptor M2>
5

>  <Muscarinic acetylcholine receptor M5>
5

>  <Norepinephrine transporter>
5

>  <Serotonin transporter>
5

$$$$
L-cysteic-acid
  Marvin  02231216192D 0   1.00000     0.00000     0

 10  9  0  0  1  0  0  0  0  0999 V2000
   -1.9749    0.1579    0.0000 S   0  0  0  0  0  0  0  0  0
   -2.6894    0.5704    0.0000 O   0  0  0  0  0  0  0  0  0
   -2.3874   -0.5565    0.0000 O   0  0  0  0  0  0  0  0  0
   -1.5624    0.8724    0.0000 O   0  0  0  0  0  0  0  0  0
   -1.2605   -0.2546    0.0000 C   0  0  0  0  0  0  0  0  0
   -0.5460    0.1579    0.0000 C   0  0  0  0  0  0  0  0  0
   -0.5460    0.9829    0.0000 N   0  0  0  0  0  0  0  0  0
    0.1685   -0.2546    0.0000 C   0  0  0  0  0  0  0  0  0
    0.8829    0.1579    0.0000 O   0  0  0  0  0  0  0  0  0
    0.1685   -1.0796    0.0000 O   0  0  0  0  0  0  0  0  0
  1  2  2  0  0  0  0
  1  3  2  0  0  0  0
  1  4  1  0  0  0  0
  1  5  1  0  0  0  0
  5  6  1  0  0  0  0
  6  7  1  0  0  0  0
  6  8  1  0  0  0  0
  8  9  1  0  0  0  0
  8 10  2  0  0  0  0
M  END
>  <Name_Molregno>
L-cysteic-acid

>  <5-HT1A>
5

>  <5-HT1B>
5

>  <5-HT1D>
5

>  <5-HT3>
5

>  <5-HT5>
5

>  <5-HT6>
5

>  <5-HT7>
5

>  <Alpha-1A>
5

>  <Alpha-1B>
5

>  <Alpha-2A>
5

>  <Alpha-2C>
5

>  <DOPAMINE D1>
5

>  <DOPAMINE D2>
5

>  <DOPAMINE D3>
5

>  <DOPAMINE D5>
5

>  <Dopamine transporter>
5

>  <HISTAMINE H1>
5

>  <HISTAMINE H2>
5

>  <HISTAMINE H4>
5

>  <Muscarinic acetylcholine receptor M1>
5

>  <Muscarinic acetylcholine receptor M2>
5

>  <Muscarinic acetylcholine receptor M3>
5

>  <Muscarinic acetylcholine receptor M4>
5

>  <Muscarinic acetylcholine receptor M5>
5

>  <Norepinephrine transporter>
5

>  <Serotonin transporter>
5

$$$$
L-cysteine
  Marvin  02231216192D 0   1.00000     0.00000     0

  7  6  0  0  1  0  0  0  0  0999 V2000
    1.5580    2.1190    0.0000 S   0  0  0  0  0  0  0  0  0
    1.1455    1.4045    0.0000 C   0  0  0  0  0  0  0  0  0
    1.5580    0.6901    0.0000 C   0  0  0  0  0  0  0  0  0
    2.3830    0.6901    0.0000 N   0  0  0  0  0  0  0  0  0
    1.1455   -0.0244    0.0000 C   0  0  0  0  0  0  0  0  0
    1.5580   -0.7389    0.0000 O   0  0  0  0  0  0  0  0  0
    0.3205   -0.0244    0.0000 O   0  0  0  0  0  0  0  0  0
  1  2  1  0  0  0  0
  2  3  1  0  0  0  0
  3  4  1  0  0  0  0
  3  5  1  0  0  0  0
  5  6  1  0  0  0  0
  5  7  2  0  0  0  0
M  END
>  <Name_Molregno>
L-cysteine

>  <5-HT1A>
5

>  <5-HT1B>
5

>  <5-HT1D>
5

>  <5-HT3>
5

>  <5-HT5>
5

>  <5-HT6>
5

>  <5-HT7>
5

>  <Alpha-1A>
5

>  <Alpha-1B>
5

>  <Alpha-2A>
5

>  <Alpha-2B>
5

>  <Alpha-2C>
5

>  <DOPAMINE D1>
5

>  <DOPAMINE D2>
5

>  <DOPAMINE D3>
5

>  <DOPAMINE D5>
5

>  <Dopamine transporter>
5

>  <HISTAMINE H1>
5

>  <HISTAMINE H2>
5

>  <HISTAMINE H4>
5

>  <Muscarinic acetylcholine receptor M1>
5

>  <Muscarinic acetylcholine receptor M2>
5

>  <Muscarinic acetylcholine receptor M3>
5

>  <Muscarinic acetylcholine receptor M4>
5

>  <Muscarinic acetylcholine receptor M5>
5

>  <Norepinephrine transporter>
5

>  <Serotonin transporter>
5

$$$$
L-cysteine-sulfinic-acid
  Marvin  02231216192D 0   1.00000     0.00000     0

  9  8  0  0  1  0  0  0  0  0999 V2000
   -2.0945    0.5537    0.0000 S   0  0  0  0  0  0  0  0  0
   -2.8090    0.1412    0.0000 O   0  0  0  0  0  0  0  0  0
   -2.0945    1.3787    0.0000 O   0  0  0  0  0  0  0  0  0
   -1.3800    0.1412    0.0000 C   0  0  0  0  0  0  0  0  0
   -0.6656    0.5537    0.0000 C   0  0  0  0  0  0  0  0  0
   -0.6656    1.3787    0.0000 N   0  0  0  0  0  0  0  0  0
    0.0489    0.1412    0.0000 C   0  0  0  0  0  0  0  0  0
    0.7634    0.5537    0.0000 O   0  0  0  0  0  0  0  0  0
    0.0489   -0.6838    0.0000 O   0  0  0  0  0  0  0  0  0
  1  2  2  0  0  0  0
  1  3  1  0  0  0  0
  1  4  1  0  0  0  0
  4  5  1  0  0  0  0
  5  6  1  0  0  0  0
  5  7  1  0  0  0  0
  7  8  1  0  0  0  0
  7  9  2  0  0  0  0
M  END
>  <Name_Molregno>
L-cysteine-sulfinic-acid

>  <5-HT1A>
5

>  <5-HT1B>
5

>  <5-HT1D>
5

>  <5-HT3>
5

>  <5-HT5>
5

>  <5-HT6>
5

>  <5-HT7>
5

>  <Alpha-1A>
5

>  <Alpha-1B>
5

>  <Alpha-2A>
5

>  <Alpha-2B>
5

>  <Alpha-2C>
5

>  <DOPAMINE D1>
5

>  <DOPAMINE D2>
5

>  <DOPAMINE D3>
5

>  <DOPAMINE D5>
5

>  <Dopamine transporter>
5

>  <HISTAMINE H1>
5

>  <HISTAMINE H2>
5

>  <HISTAMINE H4>
5

>  <Muscarinic acetylcholine receptor M1>
5

>  <Muscarinic acetylcholine receptor M2>
5

>  <Muscarinic acetylcholine receptor M3>
5

>  <Muscarinic acetylcholine receptor M4>
5

>  <Muscarinic acetylcholine receptor M5>
5

>  <Norepinephrine transporter>
5

>  <Serotonin transporter>
5

$$$$
L-homocysteine-thiolactone
  Marvin  02231216192D 0   1.00000     0.00000     0

  7  7  0  0  1  0  0  0  0  0999 V2000
    1.4299   -0.7189    0.0000 S   0  0  0  0  0  0  0  0  0
    1.1749   -1.5035    0.0000 C   0  0  0  0  0  0  0  0  0
    0.3499   -1.5035    0.0000 C   0  0  0  0  0  0  0  0  0
    0.0950   -0.7189    0.0000 C   0  0  0  0  0  0  0  0  0
   -0.6896   -0.4639    0.0000 N   0  0  0  0  0  0  0  0  0
    0.7624   -0.2339    0.0000 C   0  0  0  0  0  0  0  0  0
    0.7624    0.5911    0.0000 O   0  0  0  0  0  0  0  0  0
  1  2  1  0  0  0  0
  1  6  1  0  0  0  0
  2  3  1  0  0  0  0
  3  4  1  0  0  0  0
  4  5  1  0  0  0  0
  4  6  1  0  0  0  0
  6  7  2  0  0  0  0
M  END
>  <Name_Molregno>
L-homocysteine-thiolactone

>  <5-HT1A>
5

>  <5-HT3>
5

>  <5-HT5>
5

>  <5-HT6>
5

>  <5-HT7>
5

>  <Alpha-1A>
5

>  <Alpha-1B>
5

>  <Alpha-2A>
5

>  <Alpha-2B>
5

>  <Alpha-2C>
5

>  <DOPAMINE D1>
5

>  <DOPAMINE D2>
5

>  <DOPAMINE D5>
5

>  <Dopamine transporter>
5

>  <HISTAMINE H1>
5

>  <HISTAMINE H2>
5

>  <HISTAMINE H4>
5

>  <Muscarinic acetylcholine receptor M1>
5

>  <Muscarinic acetylcholine receptor M2>
5

>  <Muscarinic acetylcholine receptor M3>
5

>  <Muscarinic acetylcholine receptor M4>
5

>  <Muscarinic acetylcholine receptor M5>
5

>  <Norepinephrine transporter>
5

>  <Serotonin transporter>
5

$$$$
LOXAPINE
  Marvin  02231216192D 0   1.00000     0.00000     0

 23 26  0  0  0  0  0  0  0  0999 V2000
    3.9671    1.6854    0.0000 Cl  0  0  0  0  0  0  0  0  0
    3.1788    1.4422    0.0000 C   0  0  0  0  0  0  0  0  0
    2.5740    2.0033    0.0000 C   0  0  0  0  0  0  0  0  0
    1.7856    1.7602    0.0000 C   0  0  0  0  0  0  0  0  0
    1.6021    0.9558    0.0000 C   0  0  0  0  0  0  0  0  0
    0.8588    0.5979    0.0000 O   0  0  0  0  0  0  0  0  0
    0.1155    0.9558    0.0000 C   0  0  0  0  0  0  0  0  0
   -0.0681    1.7602    0.0000 C   0  0  0  0  0  0  0  0  0
    0.4463    2.4052    0.0000 N   0  0  0  0  0  0  0  0  0
    1.2713    2.4052    0.0000 C   0  0  0  0  0  0  0  0  0
    1.6292    3.1485    0.0000 N   0  0  0  0  0  0  0  0  0
    1.1645    3.8301    0.0000 C   0  0  0  0  0  0  0  0  0
    1.5224    4.5734    0.0000 C   0  0  0  0  0  0  0  0  0
    2.3451    4.6351    0.0000 N   0  0  0  0  0  0  0  0  0
    2.8099    3.9534    0.0000 C   0  0  0  0  0  0  0  0  0
    2.4519    3.2101    0.0000 C   0  0  0  0  0  0  0  0  0
    2.7031    5.3784    0.0000 C   0  0  0  0  0  0  0  0  0
   -0.8565    2.0033    0.0000 C   0  0  0  0  0  0  0  0  0
   -1.4612    1.4422    0.0000 C   0  0  0  0  0  0  0  0  0
   -1.2776    0.6379    0.0000 C   0  0  0  0  0  0  0  0  0
   -0.4893    0.3947    0.0000 C   0  0  0  0  0  0  0  0  0
    2.2068    0.3947    0.0000 C   0  0  0  0  0  0  0  0  0
    2.9952    0.6379    0.0000 C   0  0  0  0  0  0  0  0  0
  1  2  1  0  0  0  0
  2  3  4  0  0  0  0
  2 23  4  0  0  0  0
  3  4  4  0  0  0  0
  4  5  4  0  0  0  0
  4 10  1  0  0  0  0
  5  6  1  0  0  0  0
  5 22  4  0  0  0  0
  6  7  1  0  0  0  0
  7  8  4  0  0  0  0
  7 21  4  0  0  0  0
  8  9  1  0  0  0  0
  8 18  4  0  0  0  0
  9 10  2  0  0  0  0
 10 11  1  0  0  0  0
 11 12  1  0  0  0  0
 11 16  1  0  0  0  0
 12 13  1  0  0  0  0
 13 14  1  0  0  0  0
 14 15  1  0  0  0  0
 14 17  1  0  0  0  0
 15 16  1  0  0  0  0
 18 19  4  0  0  0  0
 19 20  4  0  0  0  0
 20 21  4  0  0  0  0
 22 23  4  0  0  0  0
M  END
>  <Name_Molregno>
LOXAPINE

>  <5-HT1A>
5.59

>  <5-HT1B>
6.41

>  <5-HT1D>
5.46

>  <5-HT1E>
5.85

>  <5-HT2A>
8.43

>  <5-HT2C>
7.9

>  <5-HT3>
6.72

>  <5-HT5>
6.11

>  <5-HT6>
7.46

>  <5-HT7>
7.06

>  <Alpha-1A>
7.51

>  <Alpha-1B>
7.28

>  <Alpha-2A>
6.82

>  <Alpha-2B>
6.97

>  <Alpha-2C>
7.1

>  <Beta-1>
5

>  <Beta-2>
5

>  <DOPAMINE D1>
7.27

>  <DOPAMINE D2>
7.74

>  <DOPAMINE D3>
7.64

>  <DOPAMINE D4>
8.04

>  <DOPAMINE D5>
7.12

>  <Dopamine transporter>
5

>  <HISTAMINE H1>
8.33

>  <HISTAMINE H2>
6.68

>  <HISTAMINE H4>
5.32

>  <Muscarinic acetylcholine receptor M1>
6.98

>  <Muscarinic acetylcholine receptor M2>
6.38

>  <Muscarinic acetylcholine receptor M3>
6.74

>  <Muscarinic acetylcholine receptor M4>
6.09

>  <Muscarinic acetylcholine receptor M5>
6.83

>  <Norepinephrine transporter>
5.24

>  <Serotonin transporter>
5

$$$$
Meloxicam
  Marvin  02231216192D 0   1.00000     0.00000     0

 23 25  0  0  0  0  0  0  0  0999 V2000
    1.0530    2.3261    0.0000 S   0  0  0  0  0  0  0  0  0
    0.2461    2.4976    0.0000 C   0  0  0  0  0  0  0  0  0
   -0.1664    1.7831    0.0000 C   0  0  0  0  0  0  0  0  0
    0.3856    1.1700    0.0000 N   0  0  0  0  0  0  0  0  0
    1.1393    1.5056    0.0000 C   0  0  0  0  0  0  0  0  0
    1.8537    1.0931    0.0000 N   0  0  0  0  0  0  0  0  0
    1.8537    0.2681    0.0000 C   0  0  0  0  0  0  0  0  0
    1.1393   -0.1444    0.0000 O   0  0  0  0  0  0  0  0  0
    2.5682   -0.1444    0.0000 C   0  0  0  0  0  0  0  0  0
    2.5682   -0.9694    0.0000 N   0  0  0  0  0  0  0  0  0
    3.2827   -1.3819    0.0000 S   0  0  0  0  0  0  0  0  0
    2.7524   -2.0139    0.0000 O   0  0  0  0  0  0  0  0  0
    3.8130   -2.0139    0.0000 O   0  0  0  0  0  0  0  0  0
    3.9972   -0.9694    0.0000 C   0  0  0  0  0  0  0  0  0
    3.9972   -0.1444    0.0000 C   0  0  0  0  0  0  0  0  0
    4.7116    0.2681    0.0000 C   0  0  0  0  0  0  0  0  0
    5.4261   -0.1444    0.0000 C   0  0  0  0  0  0  0  0  0
    5.4261   -0.9694    0.0000 C   0  0  0  0  0  0  0  0  0
    4.7116   -1.3819    0.0000 C   0  0  0  0  0  0  0  0  0
    3.2827    0.2681    0.0000 C   0  0  0  0  0  0  0  0  0
    3.2827    1.0931    0.0000 O   0  0  0  0  0  0  0  0  0
    1.8537   -1.3819    0.0000 C   0  0  0  0  0  0  0  0  0
   -0.0895    3.2513    0.0000 C   0  0  0  0  0  0  0  0  0
  1  2  4  0  0  0  0
  1  5  4  0  0  0  0
  2  3  4  0  0  0  0
  2 23  1  0  0  0  0
  3  4  4  0  0  0  0
  4  5  4  0  0  0  0
  5  6  1  0  0  0  0
  6  7  1  0  0  0  0
  7  8  1  0  0  0  0
  7  9  2  0  0  0  0
  9 10  1  0  0  0  0
  9 20  1  0  0  0  0
 10 11  1  0  0  0  0
 10 22  1  0  0  0  0
 11 12  2  0  0  0  0
 11 13  2  0  0  0  0
 11 14  1  0  0  0  0
 14 15  4  0  0  0  0
 14 19  4  0  0  0  0
 15 16  4  0  0  0  0
 15 20  1  0  0  0  0
 16 17  4  0  0  0  0
 17 18  4  0  0  0  0
 18 19  4  0  0  0  0
 20 21  2  0  0  0  0
M  END
>  <Name_Molregno>
Meloxicam

>  <5-HT1A>
5

>  <5-HT1B>
5

>  <5-HT1D>
5

>  <5-HT1E>
5

>  <5-HT2A>
5

>  <5-HT3>
5

>  <5-HT5>
5

>  <5-HT6>
5

>  <5-HT7>
5

>  <Alpha-1A>
5

>  <Alpha-1B>
5

>  <Alpha-2A>
5

>  <Alpha-2B>
5

>  <Alpha-2C>
5

>  <DOPAMINE D1>
5

>  <DOPAMINE D2>
5

>  <DOPAMINE D4>
5

>  <DOPAMINE D5>
5

>  <Dopamine transporter>
5

>  <HISTAMINE H1>
5

>  <HISTAMINE H2>
5

>  <HISTAMINE H4>
5

>  <Muscarinic acetylcholine receptor M2>
5

>  <Muscarinic acetylcholine receptor M5>
5

>  <Norepinephrine transporter>
5

>  <Serotonin transporter>
5

$$$$
METHAMPHETAMINE
  Marvin  02231216192D 0   1.00000     0.00000     0

 11 11  0  0  1  0  0  0  0  0999 V2000
    1.4662    1.5280    0.0000 N   0  0  0  0  0  0  0  0  0
    1.4662    0.7030    0.0000 C   0  0  0  0  0  0  0  0  0
    2.1807    0.2905    0.0000 C   0  0  0  0  0  0  0  0  0
    2.1807   -0.5345    0.0000 C   0  0  0  0  0  0  0  0  0
    2.8952   -0.9470    0.0000 C   0  0  0  0  0  0  0  0  0
    2.8952   -1.7720    0.0000 C   0  0  0  0  0  0  0  0  0
    2.1807   -2.1845    0.0000 C   0  0  0  0  0  0  0  0  0
    1.4662   -1.7720    0.0000 C   0  0  0  0  0  0  0  0  0
    1.4662   -0.9470    0.0000 C   0  0  0  0  0  0  0  0  0
    0.7518    0.2905    0.0000 C   0  0  0  0  0  0  0  0  0
    0.7518    1.9405    0.0000 C   0  0  0  0  0  0  0  0  0
  1  2  1  0  0  0  0
  1 11  1  0  0  0  0
  2  3  1  0  0  0  0
  2 10  1  0  0  0  0
  3  4  1  0  0  0  0
  4  5  4  0  0  0  0
  4  9  4  0  0  0  0
  5  6  4  0  0  0  0
  6  7  4  0  0  0  0
  7  8  4  0  0  0  0
  8  9  4  0  0  0  0
M  END
>  <Name_Molregno>
METHAMPHETAMINE

>  <5-HT1A>
5

>  <Alpha-2A>
5.38

>  <Alpha-2B>
6.13

>  <Alpha-2C>
6.09

>  <DOPAMINE D1>
5

>  <DOPAMINE D2>
5

>  <Dopamine transporter>
7.61

>  <Norepinephrine transporter>
6.96

>  <Serotonin transporter>
6.13

$$$$
Methcathinone
  Marvin  02231216192D 0   1.00000     0.00000     0

 12 12  0  0  1  0  0  0  0  0999 V2000
    1.9192   -0.0549    0.0000 O   0  0  0  0  0  0  0  0  0
    1.2047   -0.4674    0.0000 C   0  0  0  0  0  0  0  0  0
    0.4903   -0.0549    0.0000 C   0  0  0  0  0  0  0  0  0
    0.4903    0.7701    0.0000 N   0  0  0  0  0  0  0  0  0
   -0.2242    1.1826    0.0000 C   0  0  0  0  0  0  0  0  0
   -0.2242   -0.4674    0.0000 C   0  0  0  0  0  0  0  0  0
    1.2047   -1.2924    0.0000 C   0  0  0  0  0  0  0  0  0
    1.9192   -1.7049    0.0000 C   0  0  0  0  0  0  0  0  0
    1.9192   -2.5299    0.0000 C   0  0  0  0  0  0  0  0  0
    1.2047   -2.9424    0.0000 C   0  0  0  0  0  0  0  0  0
    0.4903   -2.5299    0.0000 C   0  0  0  0  0  0  0  0  0
    0.4903   -1.7049    0.0000 C   0  0  0  0  0  0  0  0  0
  1  2  2  0  0  0  0
  2  3  1  0  0  0  0
  2  7  1  0  0  0  0
  3  4  1  0  0  0  0
  3  6  1  0  0  0  0
  4  5  1  0  0  0  0
  7  8  4  0  0  0  0
  7 12  4  0  0  0  0
  8  9  4  0  0  0  0
  9 10  4  0  0  0  0
 10 11  4  0  0  0  0
 11 12  4  0  0  0  0
M  END
>  <Name_Molregno>
Methcathinone

>  <5-HT1A>
5

>  <5-HT1B>
5

>  <5-HT1D>
5

>  <5-HT1E>
5

>  <5-HT3>
5

>  <5-HT5>
5

>  <5-HT6>
5

>  <5-HT7>
6

>  <Alpha-1A>
5

>  <Alpha-1B>
5

>  <Alpha-2A>
5.04

>  <Alpha-2B>
5.81

>  <Alpha-2C>
6.22

>  <Beta-1>
5

>  <Beta-2>
5

>  <DOPAMINE D1>
5

>  <DOPAMINE D2>
5

>  <DOPAMINE D4>
5

>  <DOPAMINE D5>
5

>  <Dopamine transporter>
6.41

>  <HISTAMINE H1>
5

>  <HISTAMINE H2>
5

>  <HISTAMINE H4>
5

>  <Muscarinic acetylcholine receptor M1>
5

>  <Muscarinic acetylcholine receptor M2>
5

>  <Muscarinic acetylcholine receptor M3>
5

>  <Muscarinic acetylcholine receptor M4>
5

>  <Muscarinic acetylcholine receptor M5>
5

>  <Norepinephrine transporter>
6.87

>  <Serotonin transporter>
5.38

$$$$
METHYLPHENIDATE
  Marvin  02231216192D 0   1.00000     0.00000     0

 17 18  0  0  1  0  0  0  0  0999 V2000
   -0.3749   -0.6902    0.0000 O   0  0  0  0  0  0  0  0  0
    0.3395   -0.2777    0.0000 C   0  0  0  0  0  0  0  0  0
    0.3395    0.5473    0.0000 O   0  0  0  0  0  0  0  0  0
    1.0540   -0.6902    0.0000 C   0  0  0  0  0  0  0  0  0
    1.0540   -1.5152    0.0000 C   0  0  0  0  0  0  0  0  0
    1.7685   -1.9277    0.0000 N   0  0  0  0  0  0  0  0  0
    1.7685   -2.7527    0.0000 C   0  0  0  0  0  0  0  0  0
    1.0540   -3.1652    0.0000 C   0  0  0  0  0  0  0  0  0
    0.3395   -2.7527    0.0000 C   0  0  0  0  0  0  0  0  0
    0.3395   -1.9277    0.0000 C   0  0  0  0  0  0  0  0  0
    1.7685   -0.2777    0.0000 C   0  0  0  0  0  0  0  0  0
    1.7685    0.5473    0.0000 C   0  0  0  0  0  0  0  0  0
    2.4829    0.9598    0.0000 C   0  0  0  0  0  0  0  0  0
    3.1974    0.5473    0.0000 C   0  0  0  0  0  0  0  0  0
    3.1974   -0.2777    0.0000 C   0  0  0  0  0  0  0  0  0
    2.4829   -0.6902    0.0000 C   0  0  0  0  0  0  0  0  0
   -0.3749   -1.5152    0.0000 C   0  0  0  0  0  0  0  0  0
  1  2  1  0  0  0  0
  1 17  1  0  0  0  0
  2  3  2  0  0  0  0
  2  4  1  0  0  0  0
  4  5  1  0  0  0  0
  4 11  1  0  0  0  0
  5  6  1  0  0  0  0
  5 10  1  0  0  0  0
  6  7  1  0  0  0  0
  7  8  1  0  0  0  0
  8  9  1  0  0  0  0
  9 10  1  0  0  0  0
 11 12  4  0  0  0  0
 11 16  4  0  0  0  0
 12 13  4  0  0  0  0
 13 14  4  0  0  0  0
 14 15  4  0  0  0  0
 15 16  4  0  0  0  0
M  END
>  <Name_Molregno>
METHYLPHENIDATE

>  <5-HT1A>
5

>  <5-HT1B>
5

>  <5-HT1E>
5

>  <5-HT3>
5

>  <5-HT5>
5

>  <5-HT6>
5

>  <5-HT7>
5

>  <Alpha-1A>
5

>  <Alpha-1B>
5

>  <Alpha-2A>
5.25

>  <Alpha-2B>
5.61

>  <Alpha-2C>
6.07

>  <DOPAMINE D1>
5

>  <DOPAMINE D2>
5

>  <Dopamine transporter>
7.28

>  <Muscarinic acetylcholine receptor M1>
5

>  <Muscarinic acetylcholine receptor M2>
5

>  <Muscarinic acetylcholine receptor M3>
5

>  <Muscarinic acetylcholine receptor M4>
5

>  <Muscarinic acetylcholine receptor M5>
5

>  <Norepinephrine transporter>
6.46

>  <Serotonin transporter>
5

$$$$
METHYSERGIDE
  Marvin  02231216192D 0   1.00000     0.00000     0

 26 29  0  0  1  0  0  0  0  0999 V2000
   -5.6466   -4.8655    0.0000 O   0  0  0  0  0  0  0  0  0
   -5.6457   -4.0405    0.0000 C   0  0  0  0  0  0  0  0  0
   -4.9307   -3.6289    0.0000 C   0  0  0  0  0  0  0  0  0
   -4.9297   -2.8039    0.0000 N   0  0  0  0  0  0  0  0  0
   -4.2147   -2.3922    0.0000 C   0  0  0  0  0  0  0  0  0
   -3.5008   -2.8056    0.0000 O   0  0  0  0  0  0  0  0  0
   -4.2138   -1.5672    0.0000 C   0  0  0  0  0  0  0  0  0
   -3.4988   -1.1556    0.0000 C   0  0  0  0  0  0  0  0  0
   -3.4978   -0.3306    0.0000 C   0  0  0  0  0  0  0  0  0
   -4.2118    0.0828    0.0000 C   0  0  0  0  0  0  0  0  0
   -4.9267   -0.3289    0.0000 N   0  0  0  0  0  0  0  0  0
   -4.9277   -1.1539    0.0000 C   0  0  0  0  0  0  0  0  0
   -5.6407    0.0845    0.0000 C   0  0  0  0  0  0  0  0  0
   -4.2103    0.9069    0.0000 C   0  0  0  0  0  0  0  0  0
   -3.4978    1.3194    0.0000 C   0  0  0  0  0  0  0  0  0
   -2.7853    0.9069    0.0000 C   0  0  0  0  0  0  0  0  0
   -2.7853    0.0819    0.0000 C   0  0  0  0  0  0  0  0  0
   -2.0674   -0.3306    0.0000 C   0  0  0  0  0  0  0  0  0
   -1.3549    0.0819    0.0000 C   0  0  0  0  0  0  0  0  0
   -1.3549    0.9069    0.0000 C   0  0  0  0  0  0  0  0  0
   -2.0674    1.3194    0.0000 C   0  0  0  0  0  0  0  0  0
   -2.3728    2.1766    0.0000 N   0  0  0  0  0  0  0  0  0
   -3.1978    2.1766    0.0000 C   0  0  0  0  0  0  0  0  0
   -1.8973    2.8507    0.0000 C   0  0  0  0  0  0  0  0  0
   -4.2167   -4.0422    0.0000 C   0  0  0  0  0  0  0  0  0
   -4.2177   -4.8672    0.0000 C   0  0  0  0  0  0  0  0  0
  1  2  1  0  0  0  0
  2  3  1  0  0  0  0
  3  4  1  0  0  0  0
  3 25  1  0  0  0  0
  4  5  1  0  0  0  0
  5  6  2  0  0  0  0
  5  7  1  0  0  0  0
  7  8  1  0  0  0  0
  7 12  1  0  0  0  0
  8  9  2  0  0  0  0
  9 10  1  0  0  0  0
  9 17  1  0  0  0  0
 10 11  1  0  0  0  0
 10 14  1  0  0  0  0
 11 12  1  0  0  0  0
 11 13  1  0  0  0  0
 14 15  1  0  0  0  0
 15 16  4  0  0  0  0
 15 23  4  0  0  0  0
 16 17  4  0  0  0  0
 16 21  4  0  0  0  0
 17 18  4  0  0  0  0
 18 19  4  0  0  0  0
 19 20  4  0  0  0  0
 20 21  4  0  0  0  0
 21 22  4  0  0  0  0
 22 23  4  0  0  0  0
 22 24  1  0  0  0  0
 25 26  1  0  0  0  0
M  END
>  <Name_Molregno>
METHYSERGIDE

>  <5-HT1A>
7.81

>  <5-HT1B>
7.91

>  <5-HT1D>
7.56

>  <5-HT1E>
6.71

>  <5-HT2A>
8.05

>  <5-HT2C>
8.69

>  <5-HT3>
5

>  <5-HT5>
5

>  <5-HT6>
6.82

>  <5-HT7>
7.32

>  <Alpha-1A>
5

>  <Alpha-1B>
5

>  <Alpha-2A>
6.77

>  <Alpha-2B>
6.97

>  <Alpha-2C>
7.05

>  <Beta-1>
5

>  <Beta-2>
5

>  <DOPAMINE D1>
5

>  <DOPAMINE D2>
5

>  <DOPAMINE D4>
5

>  <DOPAMINE D5>
5

>  <Dopamine transporter>
5

>  <HISTAMINE H1>
5.26

>  <HISTAMINE H2>
5

>  <Muscarinic acetylcholine receptor M1>
5.26

>  <Muscarinic acetylcholine receptor M2>
5.21

>  <Muscarinic acetylcholine receptor M3>
5.33

>  <Muscarinic acetylcholine receptor M4>
5

>  <Muscarinic acetylcholine receptor M5>
5

>  <Norepinephrine transporter>
5

>  <Serotonin transporter>
5

$$$$
MIANSERIN
  Marvin  02231216192D 0   1.00000     0.00000     0

 20 23  0  0  1  0  0  0  0  0999 V2000
   -0.0097    0.0139    0.0000 N   0  0  0  0  0  0  0  0  0
    0.8153    0.0139    0.0000 C   0  0  0  0  0  0  0  0  0
    1.3296   -0.6312    0.0000 C   0  0  0  0  0  0  0  0  0
    1.1460   -1.4355    0.0000 C   0  0  0  0  0  0  0  0  0
    0.4028   -1.7934    0.0000 C   0  0  0  0  0  0  0  0  0
   -0.3405   -1.4355    0.0000 C   0  0  0  0  0  0  0  0  0
   -0.5241   -0.6312    0.0000 C   0  0  0  0  0  0  0  0  0
   -1.3125   -0.3880    0.0000 C   0  0  0  0  0  0  0  0  0
   -1.9172   -0.9491    0.0000 C   0  0  0  0  0  0  0  0  0
   -1.7337   -1.7534    0.0000 C   0  0  0  0  0  0  0  0  0
   -0.9453   -1.9966    0.0000 C   0  0  0  0  0  0  0  0  0
    1.7508   -1.9966    0.0000 C   0  0  0  0  0  0  0  0  0
    2.5392   -1.7534    0.0000 C   0  0  0  0  0  0  0  0  0
    2.7227   -0.9491    0.0000 C   0  0  0  0  0  0  0  0  0
    2.1180   -0.3880    0.0000 C   0  0  0  0  0  0  0  0  0
    1.2278    0.7283    0.0000 C   0  0  0  0  0  0  0  0  0
    0.8153    1.4428    0.0000 N   0  0  0  0  0  0  0  0  0
   -0.0097    1.4428    0.0000 C   0  0  0  0  0  0  0  0  0
   -0.4222    0.7283    0.0000 C   0  0  0  0  0  0  0  0  0
    1.2278    2.1573    0.0000 C   0  0  0  0  0  0  0  0  0
  1  2  1  0  0  0  0
  1  7  1  0  0  0  0
  1 19  1  0  0  0  0
  2  3  1  0  0  0  0
  2 16  1  0  0  0  0
  3  4  4  0  0  0  0
  3 15  4  0  0  0  0
  4  5  1  0  0  0  0
  4 12  4  0  0  0  0
  5  6  1  0  0  0  0
  6  7  4  0  0  0  0
  6 11  4  0  0  0  0
  7  8  4  0  0  0  0
  8  9  4  0  0  0  0
  9 10  4  0  0  0  0
 10 11  4  0  0  0  0
 12 13  4  0  0  0  0
 13 14  4  0  0  0  0
 14 15  4  0  0  0  0
 16 17  1  0  0  0  0
 17 18  1  0  0  0  0
 17 20  1  0  0  0  0
 18 19  1  0  0  0  0
M  END
>  <Name_Molregno>
MIANSERIN

>  <5-HT1A>
6.15

>  <5-HT1D>
6.53

>  <5-HT2A>
8.13

>  <5-HT2C>
8.5

>  <5-HT6>
7.2

>  <5-HT7>
7.28

>  <Alpha-2A>
8.32

>  <Alpha-2B>
7.57

>  <Alpha-2C>
8.42

>  <DOPAMINE D1>
6.11

>  <DOPAMINE D2>
5.69

>  <DOPAMINE D3>
5.55

>  <Dopamine transporter>
5.03

>  <HISTAMINE H1>
9.13

>  <HISTAMINE H4>
6.12

>  <Norepinephrine transporter>
7.15

>  <Serotonin transporter>
5.4

$$$$
MIRTAZAPINE
  Marvin  02231216192D 0   1.00000     0.00000     0

 20 23  0  0  1  0  0  0  0  0999 V2000
   -2.9515    1.3173    0.0000 N   0  0  0  0  0  0  0  0  0
   -2.1632    1.0741    0.0000 C   0  0  0  0  0  0  0  0  0
   -1.6488    1.7191    0.0000 N   0  0  0  0  0  0  0  0  0
   -0.8238    1.7191    0.0000 C   0  0  0  0  0  0  0  0  0
   -0.3094    1.0741    0.0000 C   0  0  0  0  0  0  0  0  0
   -0.4930    0.2698    0.0000 C   0  0  0  0  0  0  0  0  0
   -1.2363   -0.0881    0.0000 C   0  0  0  0  0  0  0  0  0
   -1.9796    0.2698    0.0000 C   0  0  0  0  0  0  0  0  0
   -2.5844   -0.2913    0.0000 C   0  0  0  0  0  0  0  0  0
   -3.3727   -0.0482    0.0000 C   0  0  0  0  0  0  0  0  0
   -3.5563    0.7562    0.0000 C   0  0  0  0  0  0  0  0  0
    0.1118   -0.2913    0.0000 C   0  0  0  0  0  0  0  0  0
    0.9001   -0.0482    0.0000 C   0  0  0  0  0  0  0  0  0
    1.0837    0.7562    0.0000 C   0  0  0  0  0  0  0  0  0
    0.4789    1.3173    0.0000 C   0  0  0  0  0  0  0  0  0
   -0.4113    2.4336    0.0000 C   0  0  0  0  0  0  0  0  0
   -0.8238    3.1481    0.0000 N   0  0  0  0  0  0  0  0  0
   -1.6488    3.1481    0.0000 C   0  0  0  0  0  0  0  0  0
   -2.0613    2.4336    0.0000 C   0  0  0  0  0  0  0  0  0
   -0.4113    3.8626    0.0000 C   0  0  0  0  0  0  0  0  0
  1  2  4  0  0  0  0
  1 11  4  0  0  0  0
  2  3  1  0  0  0  0
  2  8  4  0  0  0  0
  3  4  1  0  0  0  0
  3 19  1  0  0  0  0
  4  5  1  0  0  0  0
  4 16  1  0  0  0  0
  5  6  4  0  0  0  0
  5 15  4  0  0  0  0
  6  7  1  0  0  0  0
  6 12  4  0  0  0  0
  7  8  1  0  0  0  0
  8  9  4  0  0  0  0
  9 10  4  0  0  0  0
 10 11  4  0  0  0  0
 12 13  4  0  0  0  0
 13 14  4  0  0  0  0
 14 15  4  0  0  0  0
 16 17  1  0  0  0  0
 17 18  1  0  0  0  0
 17 20  1  0  0  0  0
 18 19  1  0  0  0  0
M  END
>  <Name_Molregno>
MIRTAZAPINE

>  <5-HT1A>
7.74

>  <5-HT2A>
7.16

>  <5-HT2C>
7.41

>  <5-HT7>
6.58

>  <Alpha-2A>
7.7

>  <Alpha-2C>
7.74

>  <DOPAMINE D1>
5.38

>  <DOPAMINE D2>
5.26

>  <DOPAMINE D3>
6.06

>  <DOPAMINE D4>
7.6

>  <Dopamine transporter>
5

>  <HISTAMINE H1>
8.8

>  <Norepinephrine transporter>
5.29

>  <Serotonin transporter>
5

$$$$
MOLINDONE
  Marvin  02231216192D 0   1.00000     0.00000     0

 20 22  0  0  1  0  0  0  0  0999 V2000
    0.1066   -1.7192    0.0000 O   0  0  0  0  0  0  0  0  0
   -0.6079   -2.1317    0.0000 C   0  0  0  0  0  0  0  0  0
   -1.3224   -1.7192    0.0000 C   0  0  0  0  0  0  0  0  0
   -1.3224   -0.8942    0.0000 N   0  0  0  0  0  0  0  0  0
   -0.6079   -0.4817    0.0000 C   0  0  0  0  0  0  0  0  0
    0.1066   -0.8942    0.0000 C   0  0  0  0  0  0  0  0  0
   -2.0368   -0.4817    0.0000 C   0  0  0  0  0  0  0  0  0
   -2.7513   -0.8942    0.0000 C   0  0  0  0  0  0  0  0  0
   -2.7513   -1.7192    0.0000 C   0  0  0  0  0  0  0  0  0
   -3.4658   -2.1317    0.0000 C   0  0  0  0  0  0  0  0  0
   -4.1803   -1.7192    0.0000 C   0  0  0  0  0  0  0  0  0
   -4.9649   -1.9741    0.0000 N   0  0  0  0  0  0  0  0  0
   -5.4498   -1.3067    0.0000 C   0  0  0  0  0  0  0  0  0
   -6.2748   -1.3067    0.0000 C   0  0  0  0  0  0  0  0  0
   -4.9649   -0.6392    0.0000 C   0  0  0  0  0  0  0  0  0
   -4.1803   -0.8942    0.0000 C   0  0  0  0  0  0  0  0  0
   -3.4658   -0.4817    0.0000 C   0  0  0  0  0  0  0  0  0
   -3.4658    0.3433    0.0000 O   0  0  0  0  0  0  0  0  0
   -5.2198    0.1454    0.0000 C   0  0  0  0  0  0  0  0  0
   -4.6678    0.7585    0.0000 C   0  0  0  0  0  0  0  0  0
  1  2  1  0  0  0  0
  1  6  1  0  0  0  0
  2  3  1  0  0  0  0
  3  4  1  0  0  0  0
  4  5  1  0  0  0  0
  4  7  1  0  0  0  0
  5  6  1  0  0  0  0
  7  8  1  0  0  0  0
  8  9  1  0  0  0  0
  8 17  1  0  0  0  0
  9 10  1  0  0  0  0
 10 11  1  0  0  0  0
 11 12  4  0  0  0  0
 11 16  4  0  0  0  0
 12 13  4  0  0  0  0
 13 14  1  0  0  0  0
 13 15  4  0  0  0  0
 15 16  4  0  0  0  0
 15 19  1  0  0  0  0
 16 17  1  0  0  0  0
 17 18  2  0  0  0  0
 19 20  1  0  0  0  0
M  STY  1   1 DAT
M  SAL   1  1  12
M  SDT   1 MRV_IMPLICIT_H                                        
M  SDD   1     0.0000    0.0000    DR    ALL  0       0  
M  SED   1 IMPL_H1
M  END
>  <Name_Molregno>
MOLINDONE

>  <5-HT1A>
5.42

>  <5-HT2A>
5.41

>  <5-HT2C>
5

>  <5-HT6>
6

>  <5-HT7>
6.05

>  <Alpha-1A>
5.58

>  <Alpha-2A>
5.96

>  <Alpha-2B>
6.25

>  <Alpha-2C>
6.76

>  <DOPAMINE D2>
7.74

>  <DOPAMINE D3>
7.39

>  <DOPAMINE D4>
5.99

>  <HISTAMINE H1>
5.17

>  <Muscarinic acetylcholine receptor M3>
5

$$$$
MOXONIDINE
  Marvin  02231216192D 0   1.00000     0.00000     0

 16 17  0  0  0  0  0  0  0  0999 V2000
   -0.4312    2.7407    0.0000 Cl  0  0  0  0  0  0  0  0  0
    0.2832    2.3282    0.0000 C   0  0  0  0  0  0  0  0  0
    0.9977    2.7407    0.0000 N   0  0  0  0  0  0  0  0  0
    1.7122    2.3282    0.0000 C   0  0  0  0  0  0  0  0  0
    1.7122    1.5032    0.0000 N   0  0  0  0  0  0  0  0  0
    0.9977    1.0907    0.0000 C   0  0  0  0  0  0  0  0  0
    0.9977    0.2657    0.0000 O   0  0  0  0  0  0  0  0  0
    1.7122   -0.1468    0.0000 C   0  0  0  0  0  0  0  0  0
    0.2832    1.5032    0.0000 C   0  0  0  0  0  0  0  0  0
   -0.4312    1.0907    0.0000 N   0  0  0  0  0  0  0  0  0
   -0.4312    0.2657    0.0000 C   0  0  0  0  0  0  0  0  0
   -1.0987   -0.2192    0.0000 N   0  0  0  0  0  0  0  0  0
   -0.8437   -1.0038    0.0000 C   0  0  0  0  0  0  0  0  0
   -0.0187   -1.0038    0.0000 C   0  0  0  0  0  0  0  0  0
    0.2362   -0.2192    0.0000 N   0  0  0  0  0  0  0  0  0
    2.4267    2.7407    0.0000 C   0  0  0  0  0  0  0  0  0
  1  2  1  0  0  0  0
  2  3  4  0  0  0  0
  2  9  4  0  0  0  0
  3  4  4  0  0  0  0
  4  5  4  0  0  0  0
  4 16  1  0  0  0  0
  5  6  4  0  0  0  0
  6  7  1  0  0  0  0
  6  9  4  0  0  0  0
  7  8  1  0  0  0  0
  9 10  1  0  0  0  0
 10 11  1  0  0  0  0
 11 12  1  0  0  0  0
 11 15  2  0  0  0  0
 12 13  1  0  0  0  0
 13 14  1  0  0  0  0
 14 15  1  0  0  0  0
M  END
>  <Name_Molregno>
MOXONIDINE

>  <Alpha-1A>
4.52

>  <Alpha-1B>
4.52

>  <Alpha-2A>
6.82

>  <Alpha-2C>
5.7

$$$$
N-(2-amino-2-methylpropyl)-4-((6,7-dimethoxy-3,4-dihydroisoquinolin-2(1H)-yl)met
  Marvin  02231216192D 0   1.00000     0.00000     0

 34 37  0  0  0  0  0  0  0  0999 V2000
   -3.8170   -1.3492    0.0000 O   0  0  0  0  0  0  0  0  0
   -3.0324   -1.0943    0.0000 C   0  0  0  0  0  0  0  0  0
   -3.0324   -0.2693    0.0000 C   0  0  0  0  0  0  0  0  0
   -3.8170   -0.0143    0.0000 C   0  0  0  0  0  0  0  0  0
   -4.3019   -0.6818    0.0000 C   0  0  0  0  0  0  0  0  0
   -5.1269   -0.6818    0.0000 C   0  0  0  0  0  0  0  0  0
   -5.5394    0.0327    0.0000 O   0  0  0  0  0  0  0  0  0
   -5.5394   -1.3962    0.0000 N   0  0  0  0  0  0  0  0  0
   -6.3644   -1.3962    0.0000 C   0  0  0  0  0  0  0  0  0
   -6.7769   -2.1107    0.0000 C   0  0  0  0  0  0  0  0  0
   -7.1894   -2.8252    0.0000 N   0  0  0  0  0  0  0  0  0
   -6.0625   -2.5232    0.0000 C   0  0  0  0  0  0  0  0  0
   -7.4914   -1.6982    0.0000 C   0  0  0  0  0  0  0  0  0
   -2.3179    0.1432    0.0000 C   0  0  0  0  0  0  0  0  0
   -1.6034   -0.2693    0.0000 C   0  0  0  0  0  0  0  0  0
   -1.6034   -1.0943    0.0000 C   0  0  0  0  0  0  0  0  0
   -2.3179   -1.5068    0.0000 C   0  0  0  0  0  0  0  0  0
   -2.3179   -2.3318    0.0000 O   0  0  0  0  0  0  0  0  0
   -1.6034   -2.7443    0.0000 C   0  0  0  0  0  0  0  0  0
   -2.3179    0.9682    0.0000 C   0  0  0  0  0  0  0  0  0
   -1.6034    1.3807    0.0000 N   0  0  0  0  0  0  0  0  0
   -1.6034    2.2057    0.0000 C   0  0  0  0  0  0  0  0  0
   -0.8890    2.6182    0.0000 C   0  0  0  0  0  0  0  0  0
   -0.1745    2.2057    0.0000 C   0  0  0  0  0  0  0  0  0
    0.5400    2.6182    0.0000 C   0  0  0  0  0  0  0  0  0
    1.2544    2.2057    0.0000 C   0  0  0  0  0  0  0  0  0
    1.9689    2.6182    0.0000 O   0  0  0  0  0  0  0  0  0
    1.9689    3.4432    0.0000 C   0  0  0  0  0  0  0  0  0
    1.2544    1.3807    0.0000 C   0  0  0  0  0  0  0  0  0
    1.9689    0.9682    0.0000 O   0  0  0  0  0  0  0  0  0
    1.9689    0.1432    0.0000 C   0  0  0  0  0  0  0  0  0
    0.5400    0.9682    0.0000 C   0  0  0  0  0  0  0  0  0
   -0.1745    1.3807    0.0000 C   0  0  0  0  0  0  0  0  0
   -0.8890    0.9682    0.0000 C   0  0  0  0  0  0  0  0  0
  1  2  4  0  0  0  0
  1  5  4  0  0  0  0
  2  3  4  0  0  0  0
  2 17  4  0  0  0  0
  3  4  4  0  0  0  0
  3 14  4  0  0  0  0
  4  5  4  0  0  0  0
  5  6  1  0  0  0  0
  6  7  2  0  0  0  0
  6  8  1  0  0  0  0
  8  9  1  0  0  0  0
  9 10  1  0  0  0  0
 10 11  1  0  0  0  0
 10 12  1  0  0  0  0
 10 13  1  0  0  0  0
 14 15  4  0  0  0  0
 14 20  1  0  0  0  0
 15 16  4  0  0  0  0
 16 17  4  0  0  0  0
 17 18  1  0  0  0  0
 18 19  1  0  0  0  0
 20 21  1  0  0  0  0
 21 22  1  0  0  0  0
 21 34  1  0  0  0  0
 22 23  1  0  0  0  0
 23 24  1  0  0  0  0
 24 25  4  0  0  0  0
 24 33  4  0  0  0  0
 25 26  4  0  0  0  0
 26 27  1  0  0  0  0
 26 29  4  0  0  0  0
 27 28  1  0  0  0  0
 29 30  1  0  0  0  0
 29 32  4  0  0  0  0
 30 31  1  0  0  0  0
 32 33  4  0  0  0  0
 33 34  1  0  0  0  0
M  END
>  <Name_Molregno>
N-(2-amino-2-methylpropyl)-4-((6,7-dimethoxy-3,4-dihydroisoquinolin-2(1H)-yl)methyl)-7-methoxybenzofuran-2-carboxamide

>  <Alpha-2A>
6.85

>  <Alpha-2B>
5.81

>  <Alpha-2C>
8.38

$$$$
N-(4-Acetamidophenyl)indomethacinamide
  Marvin  02231216192D 0   1.00000     0.00000     0

 37 40  0  0  0  0  0  0  0  0999 V2000
    0.5106    2.7433    0.0000 Cl  0  0  0  0  0  0  0  0  0
    1.3311    2.6571    0.0000 C   0  0  0  0  0  0  0  0  0
    1.8160    3.3245    0.0000 C   0  0  0  0  0  0  0  0  0
    2.6365    3.2383    0.0000 C   0  0  0  0  0  0  0  0  0
    2.9720    2.4846    0.0000 C   0  0  0  0  0  0  0  0  0
    2.4871    1.8172    0.0000 C   0  0  0  0  0  0  0  0  0
    1.6666    1.9034    0.0000 C   0  0  0  0  0  0  0  0  0
    3.7925    2.3984    0.0000 C   0  0  0  0  0  0  0  0  0
    4.2774    3.0658    0.0000 O   0  0  0  0  0  0  0  0  0
    4.1281    1.6447    0.0000 N   0  0  0  0  0  0  0  0  0
    3.7156    0.9302    0.0000 C   0  0  0  0  0  0  0  0  0
    4.2676    0.3171    0.0000 C   0  0  0  0  0  0  0  0  0
    4.0127   -0.4675    0.0000 C   0  0  0  0  0  0  0  0  0
    3.2057   -0.6390    0.0000 C   0  0  0  0  0  0  0  0  0
    2.9508   -1.4236    0.0000 O   0  0  0  0  0  0  0  0  0
    2.1438   -1.5952    0.0000 C   0  0  0  0  0  0  0  0  0
    2.6537   -0.0259    0.0000 C   0  0  0  0  0  0  0  0  0
    2.9086    0.7587    0.0000 C   0  0  0  0  0  0  0  0  0
    5.0213    0.6527    0.0000 C   0  0  0  0  0  0  0  0  0
    5.7358    0.2402    0.0000 C   0  0  0  0  0  0  0  0  0
    5.7358   -0.5848    0.0000 C   0  0  0  0  0  0  0  0  0
    5.0213   -0.9973    0.0000 O   0  0  0  0  0  0  0  0  0
    6.4502   -0.9973    0.0000 N   0  0  0  0  0  0  0  0  0
    7.1647   -0.5848    0.0000 C   0  0  0  0  0  0  0  0  0
    7.1647    0.2402    0.0000 C   0  0  0  0  0  0  0  0  0
    7.8792    0.6527    0.0000 C   0  0  0  0  0  0  0  0  0
    7.8792    1.4777    0.0000 C   0  0  0  0  0  0  0  0  0
    8.5936    1.8902    0.0000 C   0  0  0  0  0  0  0  0  0
    9.3081    1.4777    0.0000 C   0  0  0  0  0  0  0  0  0
   10.0226    1.8902    0.0000 N   0  0  0  0  0  0  0  0  0
   10.7371    1.4777    0.0000 C   0  0  0  0  0  0  0  0  0
   11.4515    1.8902    0.0000 O   0  0  0  0  0  0  0  0  0
   10.7371    0.6527    0.0000 C   0  0  0  0  0  0  0  0  0
    9.3081    0.6527    0.0000 C   0  0  0  0  0  0  0  0  0
    8.5936    0.2402    0.0000 C   0  0  0  0  0  0  0  0  0
    4.9351    1.4732    0.0000 C   0  0  0  0  0  0  0  0  0
    5.5481    2.0252    0.0000 C   0  0  0  0  0  0  0  0  0
  1  2  1  0  0  0  0
  2  3  4  0  0  0  0
  2  7  4  0  0  0  0
  3  4  4  0  0  0  0
  4  5  4  0  0  0  0
  5  6  4  0  0  0  0
  5  8  1  0  0  0  0
  6  7  4  0  0  0  0
  8  9  2  0  0  0  0
  8 10  1  0  0  0  0
 10 11  4  0  0  0  0
 10 36  4  0  0  0  0
 11 12  4  0  0  0  0
 11 18  4  0  0  0  0
 12 13  4  0  0  0  0
 12 19  4  0  0  0  0
 13 14  4  0  0  0  0
 14 15  1  0  0  0  0
 14 17  4  0  0  0  0
 15 16  1  0  0  0  0
 17 18  4  0  0  0  0
 19 20  1  0  0  0  0
 19 36  4  0  0  0  0
 20 21  1  0  0  0  0
 21 22  2  0  0  0  0
 21 23  1  0  0  0  0
 23 24  1  0  0  0  0
 24 25  1  0  0  0  0
 25 26  1  0  0  0  0
 26 27  4  0  0  0  0
 26 35  4  0  0  0  0
 27 28  4  0  0  0  0
 28 29  4  0  0  0  0
 29 30  1  0  0  0  0
 29 34  4  0  0  0  0
 30 31  1  0  0  0  0
 31 32  2  0  0  0  0
 31 33  1  0  0  0  0
 34 35  4  0  0  0  0
 36 37  1  0  0  0  0
M  END
>  <Name_Molregno>
N-(4-Acetamidophenyl)indomethacinamide

>  <5-HT1A>
5

>  <5-HT1B>
5

>  <5-HT1E>
5

>  <5-HT2A>
5

>  <5-HT3>
5

>  <5-HT6>
5

>  <5-HT7>
5

>  <Alpha-1A>
5

>  <Alpha-1B>
5

>  <Alpha-2A>
5

>  <Alpha-2B>
5

>  <Alpha-2C>
5

>  <DOPAMINE D1>
5

>  <DOPAMINE D2>
5

>  <DOPAMINE D5>
5

>  <Dopamine transporter>
5

>  <HISTAMINE H1>
5

>  <HISTAMINE H2>
5

>  <HISTAMINE H4>
5

>  <Muscarinic acetylcholine receptor M2>
5

>  <Muscarinic acetylcholine receptor M5>
5

>  <Serotonin transporter>
5

$$$$
Naphazoline
  Marvin  02231216192D 0   1.00000     0.00000     0

 16 18  0  0  0  0  0  0  0  0999 V2000
    0.6335   -2.8641    0.0000 N   0  0  0  0  0  0  0  0  0
   -0.1735   -3.0356    0.0000 C   0  0  0  0  0  0  0  0  0
   -0.5860   -2.3212    0.0000 C   0  0  0  0  0  0  0  0  0
   -0.0340   -1.7081    0.0000 N   0  0  0  0  0  0  0  0  0
    0.7197   -2.0436    0.0000 C   0  0  0  0  0  0  0  0  0
    1.4342   -1.6311    0.0000 C   0  0  0  0  0  0  0  0  0
    1.4342   -0.8061    0.0000 C   0  0  0  0  0  0  0  0  0
    2.1486   -0.3936    0.0000 C   0  0  0  0  0  0  0  0  0
    2.1486    0.4314    0.0000 C   0  0  0  0  0  0  0  0  0
    1.4342    0.8439    0.0000 C   0  0  0  0  0  0  0  0  0
    0.7197    0.4314    0.0000 C   0  0  0  0  0  0  0  0  0
    0.7197   -0.3936    0.0000 C   0  0  0  0  0  0  0  0  0
    2.8631    0.8439    0.0000 C   0  0  0  0  0  0  0  0  0
    3.5776    0.4314    0.0000 C   0  0  0  0  0  0  0  0  0
    3.5776   -0.3936    0.0000 C   0  0  0  0  0  0  0  0  0
    2.8631   -0.8061    0.0000 C   0  0  0  0  0  0  0  0  0
  1  2  1  0  0  0  0
  1  5  1  0  0  0  0
  2  3  1  0  0  0  0
  3  4  1  0  0  0  0
  4  5  2  0  0  0  0
  5  6  1  0  0  0  0
  6  7  1  0  0  0  0
  7  8  4  0  0  0  0
  7 12  4  0  0  0  0
  8  9  4  0  0  0  0
  8 16  4  0  0  0  0
  9 10  4  0  0  0  0
  9 13  4  0  0  0  0
 10 11  4  0  0  0  0
 11 12  4  0  0  0  0
 13 14  4  0  0  0  0
 14 15  4  0  0  0  0
 15 16  4  0  0  0  0
M  END
>  <Name_Molregno>
Naphazoline

>  <Alpha-2A>
7.68

>  <Alpha-2B>
6.39

>  <Alpha-2C>
6.39

$$$$
Naphthalene
  Marvin  02231216192D 0   1.00000     0.00000     0

 10 11  0  0  0  0  0  0  0  0999 V2000
    0.0000    0.0000    0.0000 C   0  0  0  0  0  0  0  0  0
    0.0000    0.8250    0.0000 C   0  0  0  0  0  0  0  0  0
   -0.7145    1.2375    0.0000 C   0  0  0  0  0  0  0  0  0
   -1.4289    0.8250    0.0000 C   0  0  0  0  0  0  0  0  0
   -1.4289    0.0000    0.0000 C   0  0  0  0  0  0  0  0  0
   -0.7145   -0.4125    0.0000 C   0  0  0  0  0  0  0  0  0
    0.7145    1.2375    0.0000 C   0  0  0  0  0  0  0  0  0
    1.4289    0.8250    0.0000 C   0  0  0  0  0  0  0  0  0
    1.4289    0.0000    0.0000 C   0  0  0  0  0  0  0  0  0
    0.7145   -0.4125    0.0000 C   0  0  0  0  0  0  0  0  0
  1  2  4  0  0  0  0
  1  6  4  0  0  0  0
  1 10  4  0  0  0  0
  2  3  4  0  0  0  0
  2  7  4  0  0  0  0
  3  4  4  0  0  0  0
  4  5  4  0  0  0  0
  5  6  4  0  0  0  0
  7  8  4  0  0  0  0
  8  9  4  0  0  0  0
  9 10  4  0  0  0  0
M  END
>  <Name_Molregno>
Naphthalene

>  <Alpha-2A>
8.34

$$$$
Naproxen
  Marvin  02231216192D 0   1.00000     0.00000     0

 17 18  0  0  1  0  0  0  0  0999 V2000
   -5.3383   -1.4581    0.0000 O   0  0  0  0  0  0  0  0  0
   -6.0528   -1.0456    0.0000 C   0  0  0  0  0  0  0  0  0
   -4.6238   -1.0456    0.0000 C   0  0  0  0  0  0  0  0  0
   -3.9093   -1.4581    0.0000 C   0  0  0  0  0  0  0  0  0
   -3.1949   -1.0456    0.0000 C   0  0  0  0  0  0  0  0  0
   -3.1949   -0.2206    0.0000 C   0  0  0  0  0  0  0  0  0
   -2.4804    0.1919    0.0000 C   0  0  0  0  0  0  0  0  0
   -1.7659   -0.2206    0.0000 C   0  0  0  0  0  0  0  0  0
   -1.7659   -1.0456    0.0000 C   0  0  0  0  0  0  0  0  0
   -2.4804   -1.4581    0.0000 C   0  0  0  0  0  0  0  0  0
   -1.0515    0.1919    0.0000 C   0  0  0  0  0  0  0  0  0
   -0.3370   -0.2206    0.0000 C   0  0  0  0  0  0  0  0  0
    0.3775    0.1919    0.0000 O   0  0  0  0  0  0  0  0  0
   -0.3370   -1.0456    0.0000 O   0  0  0  0  0  0  0  0  0
   -1.0515    1.0169    0.0000 C   0  0  0  0  0  0  0  0  0
   -3.9093    0.1919    0.0000 C   0  0  0  0  0  0  0  0  0
   -4.6238   -0.2206    0.0000 C   0  0  0  0  0  0  0  0  0
  1  2  1  0  0  0  0
  1  3  1  0  0  0  0
  3  4  4  0  0  0  0
  3 17  4  0  0  0  0
  4  5  4  0  0  0  0
  5  6  4  0  0  0  0
  5 10  4  0  0  0  0
  6  7  4  0  0  0  0
  6 16  4  0  0  0  0
  7  8  4  0  0  0  0
  8  9  4  0  0  0  0
  8 11  1  0  0  0  0
  9 10  4  0  0  0  0
 11 12  1  0  0  0  0
 11 15  1  0  0  0  0
 12 13  1  0  0  0  0
 12 14  2  0  0  0  0
 16 17  4  0  0  0  0
M  END
>  <Name_Molregno>
Naproxen

>  <5-HT1A>
5

>  <5-HT1B>
5

>  <5-HT1D>
5

>  <5-HT1E>
5

>  <5-HT2A>
5

>  <5-HT3>
5

>  <5-HT5>
5

>  <5-HT6>
5

>  <5-HT7>
5

>  <Alpha-1A>
5

>  <Alpha-1B>
5

>  <Alpha-2A>
5

>  <Alpha-2B>
5

>  <Alpha-2C>
5

>  <DOPAMINE D1>
5

>  <DOPAMINE D2>
5

>  <DOPAMINE D4>
5

>  <DOPAMINE D5>
5

>  <Dopamine transporter>
5

>  <HISTAMINE H1>
5

>  <HISTAMINE H2>
5

>  <HISTAMINE H4>
5

>  <Muscarinic acetylcholine receptor M2>
5

>  <Muscarinic acetylcholine receptor M5>
5

>  <Norepinephrine transporter>
5

>  <Serotonin transporter>
5

$$$$
N-DESMETHYLCLOZAPINE
  Marvin  02231216192D 0   1.00000     0.00000     0

 22 25  0  0  0  0  0  0  0  0999 V2000
   -0.3818   -1.7384    0.0000 Cl  0  0  0  0  0  0  0  0  0
    0.4065   -1.9816    0.0000 C   0  0  0  0  0  0  0  0  0
    1.0113   -1.4204    0.0000 C   0  0  0  0  0  0  0  0  0
    1.7996   -1.6636    0.0000 C   0  0  0  0  0  0  0  0  0
    2.3140   -1.0186    0.0000 N   0  0  0  0  0  0  0  0  0
    3.1390   -1.0186    0.0000 C   0  0  0  0  0  0  0  0  0
    3.4969   -0.2753    0.0000 N   0  0  0  0  0  0  0  0  0
    3.0322    0.4063    0.0000 C   0  0  0  0  0  0  0  0  0
    3.3902    1.1496    0.0000 C   0  0  0  0  0  0  0  0  0
    4.2129    1.2113    0.0000 N   0  0  0  0  0  0  0  0  0
    4.6776    0.5296    0.0000 C   0  0  0  0  0  0  0  0  0
    4.3196   -0.2137    0.0000 C   0  0  0  0  0  0  0  0  0
    3.6534   -1.6636    0.0000 C   0  0  0  0  0  0  0  0  0
    3.4698   -2.4679    0.0000 C   0  0  0  0  0  0  0  0  0
    2.7265   -2.8259    0.0000 N   0  0  0  0  0  0  0  0  0
    1.9832   -2.4679    0.0000 C   0  0  0  0  0  0  0  0  0
    1.3784   -3.0291    0.0000 C   0  0  0  0  0  0  0  0  0
    0.5901   -2.7859    0.0000 C   0  0  0  0  0  0  0  0  0
    4.0746   -3.0291    0.0000 C   0  0  0  0  0  0  0  0  0
    4.8629   -2.7859    0.0000 C   0  0  0  0  0  0  0  0  0
    5.0465   -1.9816    0.0000 C   0  0  0  0  0  0  0  0  0
    4.4417   -1.4204    0.0000 C   0  0  0  0  0  0  0  0  0
  1  2  1  0  0  0  0
  2  3  4  0  0  0  0
  2 18  4  0  0  0  0
  3  4  4  0  0  0  0
  4  5  1  0  0  0  0
  4 16  4  0  0  0  0
  5  6  1  0  0  0  0
  6  7  1  0  0  0  0
  6 13  2  0  0  0  0
  7  8  1  0  0  0  0
  7 12  1  0  0  0  0
  8  9  1  0  0  0  0
  9 10  1  0  0  0  0
 10 11  1  0  0  0  0
 11 12  1  0  0  0  0
 13 14  1  0  0  0  0
 13 22  1  0  0  0  0
 14 15  2  0  0  0  0
 14 19  1  0  0  0  0
 15 16  1  0  0  0  0
 16 17  4  0  0  0  0
 17 18  4  0  0  0  0
 19 20  2  0  0  0  0
 20 21  1  0  0  0  0
 21 22  2  0  0  0  0
M  END
>  <Name_Molregno>
N-DESMETHYLCLOZAPINE

>  <5-HT1A>
7.86

>  <5-HT1B>
6.39

>  <5-HT1D>
6.32

>  <5-HT1E>
6.41

>  <5-HT2A>
7.96

>  <5-HT3>
6.57

>  <5-HT5>
6.46

>  <5-HT6>
7.94

>  <5-HT7>
7.22

>  <Alpha-1A>
6.98

>  <Alpha-1B>
7.07

>  <Alpha-2A>
6.86

>  <Alpha-2B>
7.02

>  <Alpha-2C>
6.93

>  <Beta-1>
5.2

>  <Beta-2>
5.33

>  <DOPAMINE D1>
7.84

>  <DOPAMINE D2>
7

>  <DOPAMINE D3>
6.82

>  <DOPAMINE D4>
7.28

>  <DOPAMINE D5>
6.55

>  <Dopamine transporter>
5

>  <HISTAMINE H1>
8.47

>  <HISTAMINE H2>
6.46

>  <HISTAMINE H4>
5.99

>  <Muscarinic acetylcholine receptor M1>
7.17

>  <Muscarinic acetylcholine receptor M2>
6.38

>  <Muscarinic acetylcholine receptor M3>
7.02

>  <Muscarinic acetylcholine receptor M4>
6.77

>  <Muscarinic acetylcholine receptor M5>
7.45

>  <Norepinephrine transporter>
6.31

>  <Serotonin transporter>
6.5

$$$$
nimesulide
  Marvin  02231216192D 0   1.00000     0.00000     0

 21 22  0  0  0  0  0  0  0  0999 V2000
    3.1126    1.9121    0.0000 S   0  0  0  0  0  0  0  0  0
    3.8271    2.3246    0.0000 O   0  0  0  0  0  0  0  0  0
    2.7001    2.6266    0.0000 O   0  0  0  0  0  0  0  0  0
    2.3982    1.4996    0.0000 N   0  0  0  0  0  0  0  0  0
    2.3982    0.6746    0.0000 C   0  0  0  0  0  0  0  0  0
    3.1126    0.2621    0.0000 C   0  0  0  0  0  0  0  0  0
    3.1126   -0.5629    0.0000 C   0  0  0  0  0  0  0  0  0
    2.3982   -0.9754    0.0000 C   0  0  0  0  0  0  0  0  0
    2.3982   -1.8004    0.0000 N   0  3  0  0  0  0  0  0  0
    1.6837   -2.2129    0.0000 O   0  5  0  0  0  0  0  0  0
    3.1126   -2.2129    0.0000 O   0  5  0  0  0  0  0  0  0
    1.6837   -0.5629    0.0000 C   0  0  0  0  0  0  0  0  0
    1.6837    0.2621    0.0000 C   0  0  0  0  0  0  0  0  0
    0.9692    0.6746    0.0000 O   0  0  0  0  0  0  0  0  0
    0.9692    1.4996    0.0000 C   0  0  0  0  0  0  0  0  0
    0.2548    1.9121    0.0000 C   0  0  0  0  0  0  0  0  0
    0.2548    2.7371    0.0000 C   0  0  0  0  0  0  0  0  0
    0.9692    3.1496    0.0000 C   0  0  0  0  0  0  0  0  0
    1.6837    2.7371    0.0000 C   0  0  0  0  0  0  0  0  0
    1.6837    1.9121    0.0000 C   0  0  0  0  0  0  0  0  0
    3.5251    1.1976    0.0000 C   0  0  0  0  0  0  0  0  0
  1  2  2  0  0  0  0
  1  3  2  0  0  0  0
  1  4  1  0  0  0  0
  1 21  1  0  0  0  0
  4  5  1  0  0  0  0
  5  6  4  0  0  0  0
  5 13  4  0  0  0  0
  6  7  4  0  0  0  0
  7  8  4  0  0  0  0
  8  9  1  0  0  0  0
  8 12  4  0  0  0  0
  9 10  1  0  0  0  0
  9 11  1  0  0  0  0
 12 13  4  0  0  0  0
 13 14  1  0  0  0  0
 14 15  1  0  0  0  0
 15 16  4  0  0  0  0
 15 20  4  0  0  0  0
 16 17  4  0  0  0  0
 17 18  4  0  0  0  0
 18 19  4  0  0  0  0
 19 20  4  0  0  0  0
M  CHG  3   9   1  10  -1  11  -1
M  END
>  <Name_Molregno>
nimesulide

>  <5-HT1A>
5

>  <5-HT1B>
5

>  <5-HT1D>
5

>  <5-HT1E>
5

>  <5-HT2A>
5

>  <5-HT3>
5

>  <5-HT5>
5

>  <5-HT6>
5

>  <5-HT7>
5

>  <Alpha-1A>
5

>  <Alpha-1B>
5

>  <Alpha-2A>
5

>  <Alpha-2B>
5

>  <Alpha-2C>
5

>  <DOPAMINE D1>
5

>  <DOPAMINE D2>
5

>  <DOPAMINE D4>
5

>  <DOPAMINE D5>
5

>  <Dopamine transporter>
5

>  <HISTAMINE H1>
5

>  <HISTAMINE H2>
5

>  <HISTAMINE H4>
5

>  <Muscarinic acetylcholine receptor M2>
5

>  <Muscarinic acetylcholine receptor M5>
5

>  <Norepinephrine transporter>
5

>  <Serotonin transporter>
5

$$$$
Norephedrine
  Marvin  02231216192D 0   1.00000     0.00000     0

 11 11  0  0  1  0  0  0  0  0999 V2000
    1.9974    0.2298    0.0000 O   0  0  0  0  0  0  0  0  0
    1.2829   -0.1827    0.0000 C   0  0  0  0  0  0  0  0  0
    0.5684    0.2298    0.0000 C   0  0  0  0  0  0  0  0  0
    0.5684    1.0548    0.0000 N   0  0  0  0  0  0  0  0  0
   -0.1461   -0.1827    0.0000 C   0  0  0  0  0  0  0  0  0
    1.2829   -1.0077    0.0000 C   0  0  0  0  0  0  0  0  0
    1.9974   -1.4202    0.0000 C   0  0  0  0  0  0  0  0  0
    1.9974   -2.2452    0.0000 C   0  0  0  0  0  0  0  0  0
    1.2829   -2.6577    0.0000 C   0  0  0  0  0  0  0  0  0
    0.5684   -2.2452    0.0000 C   0  0  0  0  0  0  0  0  0
    0.5684   -1.4202    0.0000 C   0  0  0  0  0  0  0  0  0
  1  2  1  0  0  0  0
  2  3  1  0  0  0  0
  2  6  1  0  0  0  0
  3  4  1  0  0  0  0
  3  5  1  0  0  0  0
  6  7  4  0  0  0  0
  6 11  4  0  0  0  0
  7  8  4  0  0  0  0
  8  9  4  0  0  0  0
  9 10  4  0  0  0  0
 10 11  4  0  0  0  0
M  END
>  <Name_Molregno>
Norephedrine

>  <5-HT1A>
5

>  <5-HT1B>
5

>  <5-HT1D>
5

>  <5-HT1E>
5

>  <5-HT3>
5

>  <5-HT5>
5

>  <5-HT6>
5

>  <5-HT7>
5.04

>  <Alpha-1A>
5

>  <Alpha-1B>
5

>  <Alpha-2A>
5.64

>  <Alpha-2B>
5.73

>  <Alpha-2C>
6.04

>  <Beta-1>
5

>  <Beta-2>
5

>  <DOPAMINE D1>
5

>  <DOPAMINE D2>
5

>  <DOPAMINE D4>
5

>  <DOPAMINE D5>
5

>  <Dopamine transporter>
5.76

>  <HISTAMINE H1>
5

>  <HISTAMINE H2>
5

>  <HISTAMINE H4>
5

>  <Muscarinic acetylcholine receptor M1>
5.04

>  <Muscarinic acetylcholine receptor M2>
5

>  <Muscarinic acetylcholine receptor M3>
5

>  <Muscarinic acetylcholine receptor M4>
5

>  <Muscarinic acetylcholine receptor M5>
5

>  <Norepinephrine transporter>
6.34

>  <Serotonin transporter>
5

$$$$
NOREPINEPHRINE
  Marvin  02231216192D 0   1.00000     0.00000     0

 12 12  0  0  1  0  0  0  0  0999 V2000
    3.1670    0.8378    0.0000 O   0  0  0  0  0  0  0  0  0
    2.4525    0.4253    0.0000 C   0  0  0  0  0  0  0  0  0
    2.4525   -0.3997    0.0000 C   0  0  0  0  0  0  0  0  0
    1.7381   -0.8122    0.0000 C   0  0  0  0  0  0  0  0  0
    1.0236   -0.3997    0.0000 C   0  0  0  0  0  0  0  0  0
    1.0236    0.4253    0.0000 C   0  0  0  0  0  0  0  0  0
    1.7381    0.8378    0.0000 C   0  0  0  0  0  0  0  0  0
    1.7381    1.6628    0.0000 O   0  0  0  0  0  0  0  0  0
    1.7381   -1.6372    0.0000 C   0  0  0  0  0  0  0  0  0
    2.4525   -2.0497    0.0000 O   0  0  0  0  0  0  0  0  0
    1.0236   -2.0497    0.0000 C   0  0  0  0  0  0  0  0  0
    1.0236   -2.8747    0.0000 N   0  0  0  0  0  0  0  0  0
  1  2  1  0  0  0  0
  2  3  4  0  0  0  0
  2  7  4  0  0  0  0
  3  4  4  0  0  0  0
  4  5  4  0  0  0  0
  4  9  1  0  0  0  0
  5  6  4  0  0  0  0
  6  7  4  0  0  0  0
  7  8  1  0  0  0  0
  9 10  1  0  0  0  0
  9 11  1  0  0  0  0
 11 12  1  0  0  0  0
M  END
>  <Name_Molregno>
NOREPINEPHRINE

>  <5-HT1A>
5

>  <5-HT2A>
5

>  <5-HT3>
5

>  <5-HT7>
5

>  <Alpha-1A>
5.33

>  <Alpha-1B>
5.1

>  <Alpha-2A>
6.32

>  <Alpha-2B>
6.02

>  <Alpha-2C>
6.43

>  <Beta-1>
5.45

>  <Beta-2>
4.9

>  <DOPAMINE D1>
5

>  <DOPAMINE D2>
5

>  <DOPAMINE D5>
5

>  <Dopamine transporter>
5.02

$$$$
Norfenfluramine
  Marvin  02231216192D 0   1.00000     0.00000     0

 14 14  0  0  1  0  0  0  0  0999 V2000
    0.4631   -1.9707    0.0000 F   0  0  0  0  0  0  0  0  0
    1.1776   -1.5582    0.0000 C   0  0  0  0  0  0  0  0  0
    1.5901   -2.2727    0.0000 F   0  0  0  0  0  0  0  0  0
    0.7651   -0.8437    0.0000 F   0  0  0  0  0  0  0  0  0
    1.8921   -1.1457    0.0000 C   0  0  0  0  0  0  0  0  0
    1.8921   -0.3207    0.0000 C   0  0  0  0  0  0  0  0  0
    2.6065    0.0918    0.0000 C   0  0  0  0  0  0  0  0  0
    3.3210   -0.3207    0.0000 C   0  0  0  0  0  0  0  0  0
    3.3210   -1.1457    0.0000 C   0  0  0  0  0  0  0  0  0
    2.6065   -1.5582    0.0000 C   0  0  0  0  0  0  0  0  0
    2.6065    0.9168    0.0000 C   0  0  0  0  0  0  0  0  0
    3.3210    1.3293    0.0000 C   0  0  0  0  0  0  0  0  0
    3.3210    2.1543    0.0000 N   0  0  0  0  0  0  0  0  0
    4.0355    0.9168    0.0000 C   0  0  0  0  0  0  0  0  0
  1  2  1  0  0  0  0
  2  3  1  0  0  0  0
  2  4  1  0  0  0  0
  2  5  1  0  0  0  0
  5  6  4  0  0  0  0
  5 10  4  0  0  0  0
  6  7  4  0  0  0  0
  7  8  4  0  0  0  0
  7 11  1  0  0  0  0
  8  9  4  0  0  0  0
  9 10  4  0  0  0  0
 11 12  1  0  0  0  0
 12 13  1  0  0  0  0
 12 14  1  0  0  0  0
M  END
>  <Name_Molregno>
Norfenfluramine

>  <5-HT1A>
5.77

>  <5-HT1B>
5.57

>  <5-HT1D>
5.88

>  <5-HT1E>
5

>  <5-HT3>
5

>  <5-HT5>
5

>  <5-HT6>
5

>  <5-HT7>
6.44

>  <Alpha-1A>
5.11

>  <Alpha-1B>
5

>  <Alpha-2A>
5.42

>  <Alpha-2B>
5.75

>  <Alpha-2C>
6.08

>  <Beta-1>
5

>  <Beta-2>
5

>  <DOPAMINE D1>
5

>  <DOPAMINE D2>
5

>  <DOPAMINE D4>
5

>  <DOPAMINE D5>
5

>  <Dopamine transporter>
5

>  <HISTAMINE H1>
5

>  <HISTAMINE H2>
5

>  <Muscarinic acetylcholine receptor M1>
5.42

>  <Muscarinic acetylcholine receptor M2>
5.24

>  <Muscarinic acetylcholine receptor M3>
6.04

>  <Muscarinic acetylcholine receptor M4>
5.31

>  <Muscarinic acetylcholine receptor M5>
5.78

>  <Norepinephrine transporter>
5

>  <Serotonin transporter>
5

$$$$
OLANZAPINE
  Marvin  02231216192D 0   1.00000     0.00000     0

 22 25  0  0  0  0  0  0  0  0999 V2000
   -1.5954    3.4952    0.0000 S   0  0  0  0  0  0  0  0  0
   -0.8919    3.0642    0.0000 C   0  0  0  0  0  0  0  0  0
   -0.1447    3.4138    0.0000 N   0  0  0  0  0  0  0  0  0
    0.5946    3.0476    0.0000 C   0  0  0  0  0  0  0  0  0
    0.7691    2.2413    0.0000 C   0  0  0  0  0  0  0  0  0
    0.2476    1.6020    0.0000 N   0  0  0  0  0  0  0  0  0
   -0.5774    1.6113    0.0000 C   0  0  0  0  0  0  0  0  0
   -0.9436    0.8720    0.0000 N   0  0  0  0  0  0  0  0  0
   -0.4865    0.1852    0.0000 C   0  0  0  0  0  0  0  0  0
   -0.8527   -0.5540    0.0000 C   0  0  0  0  0  0  0  0  0
   -1.6761   -0.6065    0.0000 N   0  0  0  0  0  0  0  0  0
   -2.1332    0.0803    0.0000 C   0  0  0  0  0  0  0  0  0
   -1.7669    0.8196    0.0000 C   0  0  0  0  0  0  0  0  0
   -2.0423   -1.3458    0.0000 C   0  0  0  0  0  0  0  0  0
   -1.0845    2.2620    0.0000 C   0  0  0  0  0  0  0  0  0
   -1.9069    2.1972    0.0000 C   0  0  0  0  0  0  0  0  0
   -2.2227    2.9594    0.0000 C   0  0  0  0  0  0  0  0  0
   -3.0249    3.1520    0.0000 C   0  0  0  0  0  0  0  0  0
    1.5547    1.9893    0.0000 C   0  0  0  0  0  0  0  0  0
    2.1657    2.5436    0.0000 C   0  0  0  0  0  0  0  0  0
    1.9912    3.3499    0.0000 C   0  0  0  0  0  0  0  0  0
    1.2056    3.6019    0.0000 C   0  0  0  0  0  0  0  0  0
  1  2  1  0  0  0  0
  1 17  1  0  0  0  0
  2  3  2  0  0  0  0
  2 15  1  0  0  0  0
  3  4  1  0  0  0  0
  4  5  4  0  0  0  0
  4 22  4  0  0  0  0
  5  6  1  0  0  0  0
  5 19  4  0  0  0  0
  6  7  1  0  0  0  0
  7  8  1  0  0  0  0
  7 15  2  0  0  0  0
  8  9  1  0  0  0  0
  8 13  1  0  0  0  0
  9 10  1  0  0  0  0
 10 11  1  0  0  0  0
 11 12  1  0  0  0  0
 11 14  1  0  0  0  0
 12 13  1  0  0  0  0
 15 16  1  0  0  0  0
 16 17  2  0  0  0  0
 17 18  1  0  0  0  0
 19 20  4  0  0  0  0
 20 21  4  0  0  0  0
 21 22  4  0  0  0  0
M  END
>  <Name_Molregno>
OLANZAPINE

>  <5-HT1A>
5.77

>  <5-HT1B>
6.23

>  <5-HT1D>
6.3

>  <5-HT1E>
5.66

>  <5-HT2A>
8.46

>  <5-HT2C>
7.86

>  <5-HT3>
6.69

>  <5-HT5>
5.92

>  <5-HT6>
7.97

>  <5-HT7>
6.73

>  <Alpha-1A>
6.95

>  <Alpha-1B>
6.58

>  <Alpha-2A>
6.51

>  <Alpha-2B>
6.97

>  <Alpha-2C>
7.21

>  <Beta-1>
5.15

>  <Beta-2>
5.15

>  <DOPAMINE D1>
7.3

>  <DOPAMINE D2>
7.67

>  <DOPAMINE D3>
7.53

>  <DOPAMINE D4>
7.73

>  <DOPAMINE D5>
7.09

>  <Dopamine transporter>
5

>  <HISTAMINE H1>
8.96

>  <HISTAMINE H2>
7.36

>  <HISTAMINE H4>
5

>  <Muscarinic acetylcholine receptor M1>
7.99

>  <Muscarinic acetylcholine receptor M2>
6.93

>  <Muscarinic acetylcholine receptor M3>
7.33

>  <Muscarinic acetylcholine receptor M4>
7.35

>  <Muscarinic acetylcholine receptor M5>
7.78

>  <Norepinephrine transporter>
5

>  <Serotonin transporter>
5.48

$$$$
OLANZAPINE-2
  Marvin  02231216192D 0   1.00000     0.00000     0

 22 25  0  0  0  0  0  0  0  0999 V2000
   -1.5954    3.4952    0.0000 S   0  0  0  0  0  0  0  0  0
   -0.8919    3.0642    0.0000 C   0  0  0  0  0  0  0  0  0
   -0.1447    3.4138    0.0000 N   0  0  0  0  0  0  0  0  0
    0.5946    3.0476    0.0000 C   0  0  0  0  0  0  0  0  0
    0.7691    2.2413    0.0000 C   0  0  0  0  0  0  0  0  0
    0.2476    1.6020    0.0000 N   0  0  0  0  0  0  0  0  0
   -0.5774    1.6113    0.0000 C   0  0  0  0  0  0  0  0  0
   -0.9436    0.8720    0.0000 N   0  0  0  0  0  0  0  0  0
   -0.4865    0.1852    0.0000 C   0  0  0  0  0  0  0  0  0
   -0.8527   -0.5540    0.0000 C   0  0  0  0  0  0  0  0  0
   -1.6761   -0.6065    0.0000 N   0  0  0  0  0  0  0  0  0
   -2.1332    0.0803    0.0000 C   0  0  0  0  0  0  0  0  0
   -1.7669    0.8196    0.0000 C   0  0  0  0  0  0  0  0  0
   -2.0423   -1.3458    0.0000 C   0  0  0  0  0  0  0  0  0
   -1.0845    2.2620    0.0000 C   0  0  0  0  0  0  0  0  0
   -1.9069    2.1972    0.0000 C   0  0  0  0  0  0  0  0  0
   -2.2227    2.9594    0.0000 C   0  0  0  0  0  0  0  0  0
   -3.0249    3.1520    0.0000 C   0  0  0  0  0  0  0  0  0
    1.5547    1.9893    0.0000 C   0  0  0  0  0  0  0  0  0
    2.1657    2.5436    0.0000 C   0  0  0  0  0  0  0  0  0
    1.9912    3.3499    0.0000 C   0  0  0  0  0  0  0  0  0
    1.2056    3.6019    0.0000 C   0  0  0  0  0  0  0  0  0
  1  2  4  0  0  0  0
  1 17  4  0  0  0  0
  2  3  1  0  0  0  0
  2 15  4  0  0  0  0
  3  4  1  0  0  0  0
  4  5  4  0  0  0  0
  4 22  4  0  0  0  0
  5  6  1  0  0  0  0
  5 19  4  0  0  0  0
  6  7  2  0  0  0  0
  7  8  1  0  0  0  0
  7 15  1  0  0  0  0
  8  9  1  0  0  0  0
  8 13  1  0  0  0  0
  9 10  1  0  0  0  0
 10 11  1  0  0  0  0
 11 12  1  0  0  0  0
 11 14  1  0  0  0  0
 12 13  1  0  0  0  0
 15 16  4  0  0  0  0
 16 17  4  0  0  0  0
 17 18  1  0  0  0  0
 19 20  4  0  0  0  0
 20 21  4  0  0  0  0
 21 22  4  0  0  0  0
M  END
>  <Name_Molregno>
OLANZAPINE-2

>  <5-HT1A>
5.68

>  <5-HT2A>
8.66

>  <5-HT2C>
8.05

>  <5-HT3>
6.7

>  <5-HT6>
7.8

>  <5-HT7>
6.77

>  <Alpha-2A>
6.72

>  <Alpha-2C>
7.09

>  <DOPAMINE D1>
7.28

>  <DOPAMINE D2>
7.63

>  <DOPAMINE D3>
7.47

>  <DOPAMINE D4>
7.3

>  <HISTAMINE H1>
8.74

>  <Muscarinic acetylcholine receptor M1>
8.16

>  <Muscarinic acetylcholine receptor M4>
7.9

>  <Serotonin transporter>
4.82

$$$$
ORG-5222
  Marvin  02231216192D 0   1.00000     0.00000     0

 20 23  0  0  1  0  0  0  0  0999 V2000
   -0.0754   -0.1702    0.0000 Cl  0  0  0  0  0  0  0  0  0
    0.7129   -0.4133    0.0000 C   0  0  0  0  0  0  0  0  0
    1.3177    0.1478    0.0000 C   0  0  0  0  0  0  0  0  0
    2.1060   -0.0954    0.0000 C   0  0  0  0  0  0  0  0  0
    2.6204    0.5496    0.0000 C   0  0  0  0  0  0  0  0  0
    3.4454    0.5496    0.0000 C   0  0  0  0  0  0  0  0  0
    3.9598   -0.0954    0.0000 C   0  0  0  0  0  0  0  0  0
    3.7762   -0.8997    0.0000 C   0  0  0  0  0  0  0  0  0
    3.0329   -1.2576    0.0000 O   0  0  0  0  0  0  0  0  0
    2.2896   -0.8997    0.0000 C   0  0  0  0  0  0  0  0  0
    1.6849   -1.4608    0.0000 C   0  0  0  0  0  0  0  0  0
    0.8965   -1.2176    0.0000 C   0  0  0  0  0  0  0  0  0
    4.3810   -1.4608    0.0000 C   0  0  0  0  0  0  0  0  0
    5.1693   -1.2176    0.0000 C   0  0  0  0  0  0  0  0  0
    5.3529   -0.4133    0.0000 C   0  0  0  0  0  0  0  0  0
    4.7482    0.1478    0.0000 C   0  0  0  0  0  0  0  0  0
    3.7004    1.3343    0.0000 C   0  0  0  0  0  0  0  0  0
    3.0329    1.8192    0.0000 N   0  0  0  0  0  0  0  0  0
    2.3655    1.3343    0.0000 C   0  0  0  0  0  0  0  0  0
    3.0329    2.6442    0.0000 C   0  0  0  0  0  0  0  0  0
  1  2  1  0  0  0  0
  2  3  4  0  0  0  0
  2 12  4  0  0  0  0
  3  4  4  0  0  0  0
  4  5  1  0  0  0  0
  4 10  4  0  0  0  0
  5  6  1  0  0  0  0
  5 19  1  0  0  0  0
  6  7  1  0  0  0  0
  6 17  1  0  0  0  0
  7  8  4  0  0  0  0
  7 16  4  0  0  0  0
  8  9  1  0  0  0  0
  8 13  4  0  0  0  0
  9 10  1  0  0  0  0
 10 11  4  0  0  0  0
 11 12  4  0  0  0  0
 13 14  4  0  0  0  0
 14 15  4  0  0  0  0
 15 16  4  0  0  0  0
 17 18  1  0  0  0  0
 18 19  1  0  0  0  0
 18 20  1  0  0  0  0
M  END
>  <Name_Molregno>
ORG-5222

>  <5-HT1A>
7.7

>  <5-HT1B>
8.34

>  <5-HT1D>
8.07

>  <5-HT1E>
7.69

>  <5-HT2A>
9.41

>  <5-HT2C>
9.63

>  <5-HT3>
6.35

>  <5-HT5>
8.4

>  <5-HT6>
8.85

>  <5-HT7>
9.05

>  <Alpha-1A>
8.36

>  <Alpha-1B>
8.41

>  <Alpha-2A>
8.08

>  <Alpha-2B>
8.64

>  <Alpha-2C>
7.82

>  <Beta-1>
5.3

>  <Beta-2>
5.3

>  <DOPAMINE D1>
8.54

>  <DOPAMINE D2>
8.72

>  <DOPAMINE D3>
8.74

>  <DOPAMINE D4>
8.58

>  <DOPAMINE D5>
7.64

>  <Dopamine transporter>
5.5

>  <HISTAMINE H1>
8.91

>  <HISTAMINE H2>
8.64

>  <HISTAMINE H4>
5

>  <Muscarinic acetylcholine receptor M1>
7.61

>  <Muscarinic acetylcholine receptor M2>
7.1

>  <Muscarinic acetylcholine receptor M3>
7.41

>  <Muscarinic acetylcholine receptor M4>
5

>  <Muscarinic acetylcholine receptor M5>
8.02

>  <Norepinephrine transporter>
5

>  <Serotonin transporter>
5.5

$$$$
OXYMETAZOLINE
  Marvin  02231216192D 0   1.00000     0.00000     0

 19 20  0  0  0  0  0  0  0  0999 V2000
    0.9329    3.7345    0.0000 O   0  0  0  0  0  0  0  0  0
    0.9329    2.9095    0.0000 C   0  0  0  0  0  0  0  0  0
    1.6474    2.4970    0.0000 C   0  0  0  0  0  0  0  0  0
    2.3619    2.9095    0.0000 C   0  0  0  0  0  0  0  0  0
    1.6474    1.6720    0.0000 C   0  0  0  0  0  0  0  0  0
    2.3619    1.2595    0.0000 C   0  0  0  0  0  0  0  0  0
    2.3619    0.4345    0.0000 C   0  0  0  0  0  0  0  0  0
    3.0293   -0.0504    0.0000 N   0  0  0  0  0  0  0  0  0
    2.7744   -0.8351    0.0000 C   0  0  0  0  0  0  0  0  0
    1.9494   -0.8351    0.0000 C   0  0  0  0  0  0  0  0  0
    1.6945   -0.0504    0.0000 N   0  0  0  0  0  0  0  0  0
    0.9329    1.2595    0.0000 C   0  0  0  0  0  0  0  0  0
    0.2185    1.6720    0.0000 C   0  0  0  0  0  0  0  0  0
    0.2185    2.4970    0.0000 C   0  0  0  0  0  0  0  0  0
   -0.4960    2.9095    0.0000 C   0  0  0  0  0  0  0  0  0
   -1.2105    3.3220    0.0000 C   0  0  0  0  0  0  0  0  0
   -0.0835    3.6240    0.0000 C   0  0  0  0  0  0  0  0  0
   -0.9085    2.1950    0.0000 C   0  0  0  0  0  0  0  0  0
    0.9329    0.4345    0.0000 C   0  0  0  0  0  0  0  0  0
  1  2  1  0  0  0  0
  2  3  4  0  0  0  0
  2 14  4  0  0  0  0
  3  4  1  0  0  0  0
  3  5  4  0  0  0  0
  5  6  1  0  0  0  0
  5 12  4  0  0  0  0
  6  7  1  0  0  0  0
  7  8  1  0  0  0  0
  7 11  2  0  0  0  0
  8  9  1  0  0  0  0
  9 10  1  0  0  0  0
 10 11  1  0  0  0  0
 12 13  4  0  0  0  0
 12 19  1  0  0  0  0
 13 14  4  0  0  0  0
 14 15  1  0  0  0  0
 15 16  1  0  0  0  0
 15 17  1  0  0  0  0
 15 18  1  0  0  0  0
M  END
>  <Name_Molregno>
OXYMETAZOLINE

>  <5-HT1B>
9.59

>  <5-HT1E>
6.38

>  <5-HT2A>
6.59

>  <5-HT2C>
6.92

>  <Alpha-2A>
8.45

>  <Alpha-2B>
6.02

>  <Alpha-2C>
6.95

$$$$
p-AMINOCLONIDINE
  Marvin  02231216192D 0   1.00000     0.00000     0

 15 16  0  0  0  0  0  0  0  0999 V2000
   -1.5548   -2.3464    0.0000 Cl  0  0  0  0  0  0  0  0  0
   -1.5548   -1.5214    0.0000 C   0  0  0  0  0  0  0  0  0
   -2.2693   -1.1089    0.0000 C   0  0  0  0  0  0  0  0  0
   -2.2693   -0.2839    0.0000 C   0  0  0  0  0  0  0  0  0
   -2.9837    0.1286    0.0000 N   0  0  0  0  0  0  0  0  0
   -1.5548    0.1286    0.0000 C   0  0  0  0  0  0  0  0  0
   -0.8403   -0.2839    0.0000 C   0  0  0  0  0  0  0  0  0
   -0.1258    0.1286    0.0000 Cl  0  0  0  0  0  0  0  0  0
   -0.8403   -1.1089    0.0000 C   0  0  0  0  0  0  0  0  0
   -0.1258   -1.5214    0.0000 N   0  0  0  0  0  0  0  0  0
   -0.1258   -2.3464    0.0000 C   0  0  0  0  0  0  0  0  0
    0.5416   -2.8314    0.0000 N   0  0  0  0  0  0  0  0  0
    0.2867   -3.6160    0.0000 C   0  0  0  0  0  0  0  0  0
   -0.5383   -3.6160    0.0000 C   0  0  0  0  0  0  0  0  0
   -0.7933   -2.8314    0.0000 N   0  0  0  0  0  0  0  0  0
  1  2  1  0  0  0  0
  2  3  4  0  0  0  0
  2  9  4  0  0  0  0
  3  4  4  0  0  0  0
  4  5  1  0  0  0  0
  4  6  4  0  0  0  0
  6  7  4  0  0  0  0
  7  8  1  0  0  0  0
  7  9  4  0  0  0  0
  9 10  1  0  0  0  0
 10 11  1  0  0  0  0
 11 12  1  0  0  0  0
 11 15  2  0  0  0  0
 12 13  1  0  0  0  0
 13 14  1  0  0  0  0
 14 15  1  0  0  0  0
M  END
>  <Name_Molregno>
p-AMINOCLONIDINE

>  <Alpha-2A>
8.1

>  <Alpha-2B>
7.94

>  <Alpha-2C>
7.67

$$$$
PARECOXIB
  Marvin  02231216192D 0   1.00000     0.00000     0

 26 28  0  0  0  0  0  0  0  0999 V2000
    3.2898   -1.2399    0.0000 S   0  0  0  0  0  0  0  0  0
    3.7023   -0.5254    0.0000 O   0  0  0  0  0  0  0  0  0
    2.8773   -1.9544    0.0000 O   0  0  0  0  0  0  0  0  0
    4.0042   -1.6524    0.0000 N   0  0  0  0  0  0  0  0  0
    4.7187   -1.2399    0.0000 C   0  0  0  0  0  0  0  0  0
    4.7187   -0.4149    0.0000 O   0  0  0  0  0  0  0  0  0
    5.4332   -1.6524    0.0000 C   0  0  0  0  0  0  0  0  0
    6.1476   -1.2399    0.0000 C   0  0  0  0  0  0  0  0  0
    2.5753   -0.8274    0.0000 C   0  0  0  0  0  0  0  0  0
    1.8608   -1.2399    0.0000 C   0  0  0  0  0  0  0  0  0
    1.1463   -0.8274    0.0000 C   0  0  0  0  0  0  0  0  0
    1.1463   -0.0024    0.0000 C   0  0  0  0  0  0  0  0  0
    1.8608    0.4101    0.0000 C   0  0  0  0  0  0  0  0  0
    2.5753   -0.0024    0.0000 C   0  0  0  0  0  0  0  0  0
    0.4319    0.4101    0.0000 C   0  0  0  0  0  0  0  0  0
   -0.3218    0.0745    0.0000 C   0  0  0  0  0  0  0  0  0
   -0.8738    0.6876    0.0000 N   0  0  0  0  0  0  0  0  0
   -0.4613    1.4021    0.0000 O   0  0  0  0  0  0  0  0  0
    0.3456    1.2306    0.0000 C   0  0  0  0  0  0  0  0  0
    0.9587    1.7826    0.0000 C   0  0  0  0  0  0  0  0  0
   -0.4933   -0.7324    0.0000 C   0  0  0  0  0  0  0  0  0
    0.1198   -1.2845    0.0000 C   0  0  0  0  0  0  0  0  0
   -0.0518   -2.0914    0.0000 C   0  0  0  0  0  0  0  0  0
   -0.8364   -2.3464    0.0000 C   0  0  0  0  0  0  0  0  0
   -1.4495   -1.7943    0.0000 C   0  0  0  0  0  0  0  0  0
   -1.2779   -0.9874    0.0000 C   0  0  0  0  0  0  0  0  0
  1  2  2  0  0  0  0
  1  3  2  0  0  0  0
  1  4  1  0  0  0  0
  1  9  1  0  0  0  0
  4  5  1  0  0  0  0
  5  6  2  0  0  0  0
  5  7  1  0  0  0  0
  7  8  1  0  0  0  0
  9 10  4  0  0  0  0
  9 14  4  0  0  0  0
 10 11  4  0  0  0  0
 11 12  4  0  0  0  0
 12 13  4  0  0  0  0
 12 15  1  0  0  0  0
 13 14  4  0  0  0  0
 15 16  4  0  0  0  0
 15 19  4  0  0  0  0
 16 17  4  0  0  0  0
 16 21  1  0  0  0  0
 17 18  4  0  0  0  0
 18 19  4  0  0  0  0
 19 20  1  0  0  0  0
 21 22  4  0  0  0  0
 21 26  4  0  0  0  0
 22 23  4  0  0  0  0
 23 24  4  0  0  0  0
 24 25  4  0  0  0  0
 25 26  4  0  0  0  0
M  END
>  <Name_Molregno>
PARECOXIB

>  <5-HT1A>
5

>  <5-HT1B>
5

>  <5-HT1D>
5

>  <5-HT1E>
5

>  <5-HT2A>
5

>  <5-HT3>
5

>  <5-HT6>
5

>  <5-HT7>
5

>  <Alpha-1A>
5

>  <Alpha-1B>
5

>  <Alpha-2A>
5

>  <Alpha-2B>
5

>  <Alpha-2C>
5

>  <DOPAMINE D1>
5

>  <DOPAMINE D2>
5

>  <DOPAMINE D4>
5

>  <DOPAMINE D5>
5

>  <Dopamine transporter>
5

>  <HISTAMINE H1>
5

>  <HISTAMINE H2>
5

>  <HISTAMINE H4>
5

>  <Muscarinic acetylcholine receptor M2>
5

>  <Muscarinic acetylcholine receptor M5>
5

>  <Norepinephrine transporter>
5

>  <Serotonin transporter>
5

$$$$
PBR28
  Marvin  02231216192D 0   1.00000     0.00000     0

 26 28  0  0  0  0  0  0  0  0999 V2000
    0.4191    0.0796    0.0000 O   0  0  0  0  0  0  0  0  0
    0.4191   -0.7454    0.0000 C   0  0  0  0  0  0  0  0  0
    1.1336   -1.1579    0.0000 C   0  0  0  0  0  0  0  0  0
    1.1336   -1.9829    0.0000 C   0  0  0  0  0  0  0  0  0
    0.4191   -2.3954    0.0000 C   0  0  0  0  0  0  0  0  0
   -0.2953   -1.9829    0.0000 C   0  0  0  0  0  0  0  0  0
   -0.2953   -1.1579    0.0000 C   0  0  0  0  0  0  0  0  0
   -1.0098   -0.7454    0.0000 N   0  0  0  0  0  0  0  0  0
   -1.7243   -1.1579    0.0000 C   0  0  0  0  0  0  0  0  0
   -2.4387   -0.7454    0.0000 C   0  0  0  0  0  0  0  0  0
   -2.4387    0.0796    0.0000 C   0  0  0  0  0  0  0  0  0
   -3.1532    0.4921    0.0000 C   0  0  0  0  0  0  0  0  0
   -3.8677    0.0796    0.0000 C   0  0  0  0  0  0  0  0  0
   -3.8677   -0.7454    0.0000 C   0  0  0  0  0  0  0  0  0
   -3.1532   -1.1579    0.0000 C   0  0  0  0  0  0  0  0  0
   -3.1532   -1.9829    0.0000 O   0  0  0  0  0  0  0  0  0
   -3.8677   -2.3954    0.0000 C   0  0  0  0  0  0  0  0  0
   -1.0098    0.0796    0.0000 C   0  0  0  0  0  0  0  0  0
   -1.7243    0.4921    0.0000 O   0  0  0  0  0  0  0  0  0
   -0.2953    0.4921    0.0000 C   0  0  0  0  0  0  0  0  0
    1.1336    0.4921    0.0000 C   0  0  0  0  0  0  0  0  0
    1.1336    1.3171    0.0000 C   0  0  0  0  0  0  0  0  0
    1.8481    1.7296    0.0000 C   0  0  0  0  0  0  0  0  0
    2.5626    1.3171    0.0000 C   0  0  0  0  0  0  0  0  0
    2.5626    0.4921    0.0000 C   0  0  0  0  0  0  0  0  0
    1.8481    0.0796    0.0000 C   0  0  0  0  0  0  0  0  0
  1  2  1  0  0  0  0
  1 21  1  0  0  0  0
  2  3  4  0  0  0  0
  2  7  4  0  0  0  0
  3  4  4  0  0  0  0
  4  5  4  0  0  0  0
  5  6  4  0  0  0  0
  6  7  4  0  0  0  0
  7  8  1  0  0  0  0
  8  9  1  0  0  0  0
  8 18  1  0  0  0  0
  9 10  1  0  0  0  0
 10 11  4  0  0  0  0
 10 15  4  0  0  0  0
 11 12  4  0  0  0  0
 12 13  4  0  0  0  0
 13 14  4  0  0  0  0
 14 15  4  0  0  0  0
 15 16  1  0  0  0  0
 16 17  1  0  0  0  0
 18 19  2  0  0  0  0
 18 20  1  0  0  0  0
 21 22  4  0  0  0  0
 21 26  4  0  0  0  0
 22 23  4  0  0  0  0
 23 24  4  0  0  0  0
 24 25  4  0  0  0  0
 25 26  4  0  0  0  0
M  END
>  <Name_Molregno>
PBR28

>  <5-HT1A>
5

>  <5-HT1B>
5

>  <5-HT1D>
5

>  <5-HT1E>
5

>  <5-HT2A>
5

>  <5-HT3>
5

>  <5-HT5>
5

>  <5-HT6>
5

>  <5-HT7>
5

>  <Alpha-1A>
5

>  <Alpha-1B>
5

>  <Alpha-2A>
5

>  <Alpha-2B>
5

>  <Alpha-2C>
5

>  <Beta-1>
5

>  <Beta-2>
5

>  <DOPAMINE D1>
5

>  <DOPAMINE D2>
5

>  <DOPAMINE D4>
5

>  <Dopamine transporter>
5

>  <HISTAMINE H1>
5

>  <HISTAMINE H2>
5

>  <HISTAMINE H4>
5

>  <Muscarinic acetylcholine receptor M2>
5

>  <Muscarinic acetylcholine receptor M5>
5

>  <Norepinephrine transporter>
5

>  <Serotonin transporter>
5

$$$$
PERGOLIDE
  Marvin  02231216192D 0   1.00000     0.00000     0

 22 25  0  0  1  0  0  0  0  0999 V2000
    2.3775   -0.9399    0.0000 S   0  0  0  0  0  0  0  0  0
    1.6635   -0.5265    0.0000 C   0  0  0  0  0  0  0  0  0
    1.6645    0.2985    0.0000 C   0  0  0  0  0  0  0  0  0
    2.3795    0.7101    0.0000 C   0  0  0  0  0  0  0  0  0
    2.3805    1.5351    0.0000 C   0  0  0  0  0  0  0  0  0
    1.6665    1.9485    0.0000 C   0  0  0  0  0  0  0  0  0
    0.9515    1.5368    0.0000 N   0  0  0  0  0  0  0  0  0
    0.9505    0.7118    0.0000 C   0  0  0  0  0  0  0  0  0
    0.2376    1.9502    0.0000 C   0  0  0  0  0  0  0  0  0
   -0.4774    1.5385    0.0000 C   0  0  0  0  0  0  0  0  0
   -1.1914    1.9519    0.0000 C   0  0  0  0  0  0  0  0  0
    1.6680    2.7726    0.0000 C   0  0  0  0  0  0  0  0  0
    2.3805    3.1851    0.0000 C   0  0  0  0  0  0  0  0  0
    3.0930    2.7726    0.0000 C   0  0  0  0  0  0  0  0  0
    3.0930    1.9476    0.0000 C   0  0  0  0  0  0  0  0  0
    3.8108    1.5351    0.0000 C   0  0  0  0  0  0  0  0  0
    4.5233    1.9476    0.0000 C   0  0  0  0  0  0  0  0  0
    4.5233    2.7726    0.0000 C   0  0  0  0  0  0  0  0  0
    3.8108    3.1851    0.0000 C   0  0  0  0  0  0  0  0  0
    3.5055    4.0422    0.0000 N   0  0  0  0  0  0  0  0  0
    2.6805    4.0422    0.0000 C   0  0  0  0  0  0  0  0  0
    2.3765   -1.7649    0.0000 C   0  0  0  0  0  0  0  0  0
  1  2  1  0  0  0  0
  1 22  1  0  0  0  0
  2  3  1  0  0  0  0
  3  4  1  0  0  0  0
  3  8  1  0  0  0  0
  4  5  1  0  0  0  0
  5  6  1  0  0  0  0
  5 15  1  0  0  0  0
  6  7  1  0  0  0  0
  6 12  1  0  0  0  0
  7  8  1  0  0  0  0
  7  9  1  0  0  0  0
  9 10  1  0  0  0  0
 10 11  1  0  0  0  0
 12 13  1  0  0  0  0
 13 14  4  0  0  0  0
 13 21  4  0  0  0  0
 14 15  4  0  0  0  0
 14 19  4  0  0  0  0
 15 16  4  0  0  0  0
 16 17  4  0  0  0  0
 17 18  4  0  0  0  0
 18 19  4  0  0  0  0
 19 20  4  0  0  0  0
 20 21  4  0  0  0  0
M  STY  1   1 DAT
M  SAL   1  1  20
M  SDT   1 MRV_IMPLICIT_H                                        
M  SDD   1     0.0000    0.0000    DR    ALL  0       0  
M  SED   1 IMPL_H1
M  END
>  <Name_Molregno>
PERGOLIDE

>  <5-HT1A>
8.56

>  <5-HT1B>
6.55

>  <5-HT1D>
7.88

>  <5-HT2A>
8.08

>  <5-HT2C>
6.53

>  <Alpha-1A>
5.98

>  <Alpha-1B>
6.16

>  <Alpha-2A>
7.3

>  <Alpha-2B>
7.49

>  <Alpha-2C>
7.17

>  <Beta-1>
5

>  <Beta-2>
5

>  <DOPAMINE D1>
6.17

>  <DOPAMINE D2>
7.8

>  <DOPAMINE D3>
8.59

>  <DOPAMINE D4>
7.25

>  <DOPAMINE D5>
6.76

$$$$
PERPHENAZINE
  Marvin  02231216192D 0   1.00000     0.00000     0

 27 30  0  0  0  0  0  0  0  0999 V2000
   -5.2850   -0.3290    0.0000 Cl  0  0  0  0  0  0  0  0  0
   -4.5705    0.0835    0.0000 C   0  0  0  0  0  0  0  0  0
   -3.8561   -0.3290    0.0000 C   0  0  0  0  0  0  0  0  0
   -3.1416    0.0835    0.0000 C   0  0  0  0  0  0  0  0  0
   -2.4271   -0.3290    0.0000 N   0  0  0  0  0  0  0  0  0
   -1.7126    0.0835    0.0000 C   0  0  0  0  0  0  0  0  0
   -1.7126    0.9085    0.0000 C   0  0  0  0  0  0  0  0  0
   -2.4271    1.3210    0.0000 S   0  0  0  0  0  0  0  0  0
   -3.1416    0.9085    0.0000 C   0  0  0  0  0  0  0  0  0
   -3.8561    1.3210    0.0000 C   0  0  0  0  0  0  0  0  0
   -4.5705    0.9085    0.0000 C   0  0  0  0  0  0  0  0  0
   -0.9982    1.3210    0.0000 C   0  0  0  0  0  0  0  0  0
   -0.2837    0.9085    0.0000 C   0  0  0  0  0  0  0  0  0
   -0.2837    0.0835    0.0000 C   0  0  0  0  0  0  0  0  0
   -0.9982   -0.3290    0.0000 C   0  0  0  0  0  0  0  0  0
   -2.4271   -1.1540    0.0000 C   0  0  0  0  0  0  0  0  0
   -3.1416   -1.5665    0.0000 C   0  0  0  0  0  0  0  0  0
   -3.1416   -2.3915    0.0000 C   0  0  0  0  0  0  0  0  0
   -3.8561   -2.8040    0.0000 N   0  0  0  0  0  0  0  0  0
   -3.8561   -3.6290    0.0000 C   0  0  0  0  0  0  0  0  0
   -4.5705   -4.0415    0.0000 C   0  0  0  0  0  0  0  0  0
   -5.2850   -3.6290    0.0000 N   0  0  0  0  0  0  0  0  0
   -5.2850   -2.8040    0.0000 C   0  0  0  0  0  0  0  0  0
   -4.5705   -2.3915    0.0000 C   0  0  0  0  0  0  0  0  0
   -5.9995   -4.0415    0.0000 C   0  0  0  0  0  0  0  0  0
   -6.7139   -3.6290    0.0000 C   0  0  0  0  0  0  0  0  0
   -7.4284   -4.0415    0.0000 O   0  0  0  0  0  0  0  0  0
  1  2  1  0  0  0  0
  2  3  4  0  0  0  0
  2 11  4  0  0  0  0
  3  4  4  0  0  0  0
  4  5  1  0  0  0  0
  4  9  4  0  0  0  0
  5  6  1  0  0  0  0
  5 16  1  0  0  0  0
  6  7  4  0  0  0  0
  6 15  4  0  0  0  0
  7  8  1  0  0  0  0
  7 12  4  0  0  0  0
  8  9  1  0  0  0  0
  9 10  4  0  0  0  0
 10 11  4  0  0  0  0
 12 13  4  0  0  0  0
 13 14  4  0  0  0  0
 14 15  4  0  0  0  0
 16 17  1  0  0  0  0
 17 18  1  0  0  0  0
 18 19  1  0  0  0  0
 19 20  1  0  0  0  0
 19 24  1  0  0  0  0
 20 21  1  0  0  0  0
 21 22  1  0  0  0  0
 22 23  1  0  0  0  0
 22 25  1  0  0  0  0
 23 24  1  0  0  0  0
 25 26  1  0  0  0  0
 26 27  1  0  0  0  0
M  END
>  <Name_Molregno>
PERPHENAZINE

>  <5-HT1A>
6.38

>  <5-HT2A>
8.25

>  <5-HT2C>
6.88

>  <5-HT6>
7.77

>  <5-HT7>
7.64

>  <Alpha-1A>
8

>  <Alpha-2A>
6.09

>  <Alpha-2B>
6.98

>  <Alpha-2C>
7.07

>  <DOPAMINE D2>
9.26

>  <DOPAMINE D3>
9.52

>  <DOPAMINE D4>
7.59

>  <HISTAMINE H1>
8.09

>  <Muscarinic acetylcholine receptor M3>
5.73

$$$$
PHENTOLAMINE
  Marvin  02231216192D 0   1.00000     0.00000     0

 21 23  0  0  0  0  0  0  0  0999 V2000
    4.7921    2.7933    0.0000 O   0  0  0  0  0  0  0  0  0
    4.0777    2.3808    0.0000 C   0  0  0  0  0  0  0  0  0
    4.0777    1.5558    0.0000 C   0  0  0  0  0  0  0  0  0
    3.3632    1.1433    0.0000 C   0  0  0  0  0  0  0  0  0
    3.3632    0.3183    0.0000 N   0  0  0  0  0  0  0  0  0
    4.0777   -0.0942    0.0000 C   0  0  0  0  0  0  0  0  0
    4.0777   -0.9192    0.0000 C   0  0  0  0  0  0  0  0  0
    4.7451   -1.4042    0.0000 N   0  0  0  0  0  0  0  0  0
    4.4902   -2.1888    0.0000 C   0  0  0  0  0  0  0  0  0
    3.6652   -2.1888    0.0000 C   0  0  0  0  0  0  0  0  0
    3.4102   -1.4042    0.0000 N   0  0  0  0  0  0  0  0  0
    2.6487   -0.0942    0.0000 C   0  0  0  0  0  0  0  0  0
    2.6487   -0.9192    0.0000 C   0  0  0  0  0  0  0  0  0
    1.9343   -1.3317    0.0000 C   0  0  0  0  0  0  0  0  0
    1.2198   -0.9192    0.0000 C   0  0  0  0  0  0  0  0  0
    1.2198   -0.0942    0.0000 C   0  0  0  0  0  0  0  0  0
    1.9343    0.3183    0.0000 C   0  0  0  0  0  0  0  0  0
    0.5053   -1.3317    0.0000 C   0  0  0  0  0  0  0  0  0
    2.6487    1.5558    0.0000 C   0  0  0  0  0  0  0  0  0
    2.6487    2.3808    0.0000 C   0  0  0  0  0  0  0  0  0
    3.3632    2.7933    0.0000 C   0  0  0  0  0  0  0  0  0
  1  2  1  0  0  0  0
  2  3  4  0  0  0  0
  2 21  4  0  0  0  0
  3  4  4  0  0  0  0
  4  5  1  0  0  0  0
  4 19  4  0  0  0  0
  5  6  1  0  0  0  0
  5 12  1  0  0  0  0
  6  7  1  0  0  0  0
  7  8  1  0  0  0  0
  7 11  2  0  0  0  0
  8  9  1  0  0  0  0
  9 10  1  0  0  0  0
 10 11  1  0  0  0  0
 12 13  4  0  0  0  0
 12 17  4  0  0  0  0
 13 14  4  0  0  0  0
 14 15  4  0  0  0  0
 15 16  4  0  0  0  0
 15 18  1  0  0  0  0
 16 17  4  0  0  0  0
 19 20  4  0  0  0  0
 20 21  4  0  0  0  0
M  END
>  <Name_Molregno>
PHENTOLAMINE

>  <5-HT1A>
5.67

>  <5-HT2A>
5.61

>  <Alpha-1A>
8.39

>  <Alpha-1B>
7.32

>  <Alpha-2A>
8.07

>  <Alpha-2B>
7.82

>  <Alpha-2C>
7.59

>  <DOPAMINE D1>
5

>  <DOPAMINE D2>
5

>  <HISTAMINE H1>
5.4

$$$$
PIMOZIDE
  Marvin  02231216192D 0   1.00000     0.00000     0

 34 38  0  0  0  0  0  0  0  0999 V2000
    3.4878   -7.4849    0.0000 F   0  0  0  0  0  0  0  0  0
    3.7428   -6.7002    0.0000 C   0  0  0  0  0  0  0  0  0
    3.1908   -6.0871    0.0000 C   0  0  0  0  0  0  0  0  0
    3.4457   -5.3025    0.0000 C   0  0  0  0  0  0  0  0  0
    4.2527   -5.1310    0.0000 C   0  0  0  0  0  0  0  0  0
    4.8047   -5.7441    0.0000 C   0  0  0  0  0  0  0  0  0
    4.5498   -6.5287    0.0000 C   0  0  0  0  0  0  0  0  0
    4.5076   -4.3464    0.0000 C   0  0  0  0  0  0  0  0  0
    3.9556   -3.7333    0.0000 C   0  0  0  0  0  0  0  0  0
    4.2105   -2.9487    0.0000 C   0  0  0  0  0  0  0  0  0
    3.6585   -2.3356    0.0000 C   0  0  0  0  0  0  0  0  0
    3.9134   -1.5509    0.0000 N   0  0  0  0  0  0  0  0  0
    3.3614   -0.9378    0.0000 C   0  0  0  0  0  0  0  0  0
    3.6163   -0.1532    0.0000 C   0  0  0  0  0  0  0  0  0
    4.4233    0.0183    0.0000 C   0  0  0  0  0  0  0  0  0
    4.6782    0.8029    0.0000 N   0  0  0  0  0  0  0  0  0
    5.4629    1.0579    0.0000 C   0  0  0  0  0  0  0  0  0
    5.4629    1.8829    0.0000 C   0  0  0  0  0  0  0  0  0
    4.6782    2.1378    0.0000 N   0  0  0  0  0  0  0  0  0
    4.1933    1.4704    0.0000 C   0  0  0  0  0  0  0  0  0
    3.3683    1.4704    0.0000 O   0  0  0  0  0  0  0  0  0
    6.1773    2.2954    0.0000 C   0  0  0  0  0  0  0  0  0
    6.8918    1.8829    0.0000 C   0  0  0  0  0  0  0  0  0
    6.8918    1.0579    0.0000 C   0  0  0  0  0  0  0  0  0
    6.1773    0.6454    0.0000 C   0  0  0  0  0  0  0  0  0
    4.9753   -0.5948    0.0000 C   0  0  0  0  0  0  0  0  0
    4.7204   -1.3794    0.0000 C   0  0  0  0  0  0  0  0  0
    5.3146   -4.1748    0.0000 C   0  0  0  0  0  0  0  0  0
    5.5695   -3.3902    0.0000 C   0  0  0  0  0  0  0  0  0
    6.3765   -3.2187    0.0000 C   0  0  0  0  0  0  0  0  0
    6.9285   -3.8318    0.0000 C   0  0  0  0  0  0  0  0  0
    7.7355   -3.6603    0.0000 F   0  0  0  0  0  0  0  0  0
    6.6736   -4.6164    0.0000 C   0  0  0  0  0  0  0  0  0
    5.8666   -4.7879    0.0000 C   0  0  0  0  0  0  0  0  0
  1  2  1  0  0  0  0
  2  3  4  0  0  0  0
  2  7  4  0  0  0  0
  3  4  4  0  0  0  0
  4  5  4  0  0  0  0
  5  6  4  0  0  0  0
  5  8  1  0  0  0  0
  6  7  4  0  0  0  0
  8  9  1  0  0  0  0
  8 28  1  0  0  0  0
  9 10  1  0  0  0  0
 10 11  1  0  0  0  0
 11 12  1  0  0  0  0
 12 13  1  0  0  0  0
 12 27  1  0  0  0  0
 13 14  1  0  0  0  0
 14 15  1  0  0  0  0
 15 16  1  0  0  0  0
 15 26  1  0  0  0  0
 16 17  1  0  0  0  0
 16 20  1  0  0  0  0
 17 18  4  0  0  0  0
 17 25  4  0  0  0  0
 18 19  1  0  0  0  0
 18 22  4  0  0  0  0
 19 20  1  0  0  0  0
 20 21  2  0  0  0  0
 22 23  4  0  0  0  0
 23 24  4  0  0  0  0
 24 25  4  0  0  0  0
 26 27  1  0  0  0  0
 28 29  4  0  0  0  0
 28 34  4  0  0  0  0
 29 30  4  0  0  0  0
 30 31  4  0  0  0  0
 31 32  1  0  0  0  0
 31 33  4  0  0  0  0
 33 34  4  0  0  0  0
M  END
>  <Name_Molregno>
PIMOZIDE

>  <5-HT1A>
6.48

>  <5-HT1D>
5.51

>  <5-HT2A>
7.56

>  <5-HT2C>
5.92

>  <5-HT6>
7.15

>  <5-HT7>
9.3

>  <Alpha-1A>
6.7

>  <Alpha-2A>
5.8

>  <Alpha-2B>
6.09

>  <Alpha-2C>
6.42

>  <DOPAMINE D1>
5

>  <DOPAMINE D2>
8.86

>  <DOPAMINE D3>
9.05

>  <DOPAMINE D4>
8.74

>  <HISTAMINE H1>
6.88

>  <Muscarinic acetylcholine receptor M3>
5.71

$$$$
PIPAMPERONE
  Marvin  02231216192D 0   1.00000     0.00000     0

 27 29  0  0  0  0  0  0  0  0999 V2000
    0.0224    0.7508    0.0000 F   0  0  0  0  0  0  0  0  0
    0.7369    0.3383    0.0000 C   0  0  0  0  0  0  0  0  0
    1.4513    0.7508    0.0000 C   0  0  0  0  0  0  0  0  0
    2.1658    0.3383    0.0000 C   0  0  0  0  0  0  0  0  0
    2.1658   -0.4867    0.0000 C   0  0  0  0  0  0  0  0  0
    1.4513   -0.8992    0.0000 C   0  0  0  0  0  0  0  0  0
    0.7369   -0.4867    0.0000 C   0  0  0  0  0  0  0  0  0
    2.8803   -0.8992    0.0000 C   0  0  0  0  0  0  0  0  0
    2.8803   -1.7242    0.0000 O   0  0  0  0  0  0  0  0  0
    3.5947   -0.4867    0.0000 C   0  0  0  0  0  0  0  0  0
    4.3092   -0.8992    0.0000 C   0  0  0  0  0  0  0  0  0
    5.0237   -0.4867    0.0000 C   0  0  0  0  0  0  0  0  0
    5.7382   -0.8992    0.0000 N   0  0  0  0  0  0  0  0  0
    6.4526   -0.4867    0.0000 C   0  0  0  0  0  0  0  0  0
    7.1671   -0.8992    0.0000 C   0  0  0  0  0  0  0  0  0
    7.1671   -1.7242    0.0000 C   0  0  0  0  0  0  0  0  0
    7.9796   -1.5809    0.0000 N   0  0  0  0  0  0  0  0  0
    8.2617   -0.8057    0.0000 C   0  0  0  0  0  0  0  0  0
    9.0742   -0.6624    0.0000 C   0  0  0  0  0  0  0  0  0
    9.6045   -1.2944    0.0000 C   0  0  0  0  0  0  0  0  0
    9.3223   -2.0696    0.0000 C   0  0  0  0  0  0  0  0  0
    8.5099   -2.2129    0.0000 C   0  0  0  0  0  0  0  0  0
    6.4526   -2.1367    0.0000 C   0  0  0  0  0  0  0  0  0
    5.7382   -1.7242    0.0000 C   0  0  0  0  0  0  0  0  0
    7.4493   -2.4994    0.0000 C   0  0  0  0  0  0  0  0  0
    6.9190   -3.1314    0.0000 O   0  0  0  0  0  0  0  0  0
    8.2617   -2.6427    0.0000 N   0  0  0  0  0  0  0  0  0
  1  2  1  0  0  0  0
  2  3  4  0  0  0  0
  2  7  4  0  0  0  0
  3  4  4  0  0  0  0
  4  5  4  0  0  0  0
  5  6  4  0  0  0  0
  5  8  1  0  0  0  0
  6  7  4  0  0  0  0
  8  9  2  0  0  0  0
  8 10  1  0  0  0  0
 10 11  1  0  0  0  0
 11 12  1  0  0  0  0
 12 13  1  0  0  0  0
 13 14  1  0  0  0  0
 13 24  1  0  0  0  0
 14 15  1  0  0  0  0
 15 16  1  0  0  0  0
 16 17  1  0  0  0  0
 16 23  1  0  0  0  0
 16 25  1  0  0  0  0
 17 18  1  0  0  0  0
 17 22  1  0  0  0  0
 18 19  1  0  0  0  0
 19 20  1  0  0  0  0
 20 21  1  0  0  0  0
 21 22  1  0  0  0  0
 23 24  1  0  0  0  0
 25 26  2  0  0  0  0
 25 27  1  0  0  0  0
M  END
>  <Name_Molregno>
PIPAMPERONE

>  <5-HT1A>
5.56

>  <5-HT1B>
6.8

>  <5-HT1D>
6.19

>  <5-HT1E>
5.3

>  <5-HT2A>
8.21

>  <5-HT2C>
6.64

>  <Alpha-2A>
6.07

>  <Alpha-2B>
7.46

>  <Alpha-2C>
6.54

>  <Beta-1>
5.3

>  <Beta-2>
5.3

>  <DOPAMINE D2>
6.94

>  <DOPAMINE D3>
6.6

>  <DOPAMINE D4>
8.29

>  <HISTAMINE H1>
5.62

>  <Serotonin transporter>
6

$$$$
Piribedil
  Marvin  02231216192D 0   1.00000     0.00000     0

 22 25  0  0  0  0  0  0  0  0999 V2000
   -6.9931    0.7446    0.0000 O   0  0  0  0  0  0  0  0  0
   -6.2084    0.4897    0.0000 C   0  0  0  0  0  0  0  0  0
   -5.4940    0.9022    0.0000 C   0  0  0  0  0  0  0  0  0
   -4.7795    0.4897    0.0000 C   0  0  0  0  0  0  0  0  0
   -4.7795   -0.3353    0.0000 C   0  0  0  0  0  0  0  0  0
   -5.4940   -0.7478    0.0000 C   0  0  0  0  0  0  0  0  0
   -6.2084   -0.3353    0.0000 C   0  0  0  0  0  0  0  0  0
   -6.9931   -0.5902    0.0000 O   0  0  0  0  0  0  0  0  0
   -7.4780    0.0772    0.0000 C   0  0  0  0  0  0  0  0  0
   -4.0650    0.9022    0.0000 C   0  0  0  0  0  0  0  0  0
   -3.3506    0.4897    0.0000 N   0  0  0  0  0  0  0  0  0
   -2.6361    0.9022    0.0000 C   0  0  0  0  0  0  0  0  0
   -1.9216    0.4897    0.0000 C   0  0  0  0  0  0  0  0  0
   -1.9216   -0.3353    0.0000 N   0  0  0  0  0  0  0  0  0
   -2.6361   -0.7478    0.0000 C   0  0  0  0  0  0  0  0  0
   -3.3506   -0.3353    0.0000 C   0  0  0  0  0  0  0  0  0
   -1.2071   -0.7478    0.0000 C   0  0  0  0  0  0  0  0  0
   -0.4927   -0.3353    0.0000 N   0  0  0  0  0  0  0  0  0
    0.2218   -0.7478    0.0000 C   0  0  0  0  0  0  0  0  0
    0.2218   -1.5728    0.0000 C   0  0  0  0  0  0  0  0  0
   -0.4927   -1.9853    0.0000 C   0  0  0  0  0  0  0  0  0
   -1.2071   -1.5728    0.0000 N   0  0  0  0  0  0  0  0  0
  1  2  1  0  0  0  0
  1  9  1  0  0  0  0
  2  3  4  0  0  0  0
  2  7  4  0  0  0  0
  3  4  4  0  0  0  0
  4  5  4  0  0  0  0
  4 10  1  0  0  0  0
  5  6  4  0  0  0  0
  6  7  4  0  0  0  0
  7  8  1  0  0  0  0
  8  9  1  0  0  0  0
 10 11  1  0  0  0  0
 11 12  1  0  0  0  0
 11 16  1  0  0  0  0
 12 13  1  0  0  0  0
 13 14  1  0  0  0  0
 14 15  1  0  0  0  0
 14 17  1  0  0  0  0
 15 16  1  0  0  0  0
 17 18  4  0  0  0  0
 17 22  4  0  0  0  0
 18 19  4  0  0  0  0
 19 20  4  0  0  0  0
 20 21  4  0  0  0  0
 21 22  4  0  0  0  0
M  END
>  <Name_Molregno>
Piribedil

>  <5-HT1A>
6.35

>  <5-HT1B>
5

>  <5-HT1D>
5

>  <5-HT2A>
5

>  <5-HT2C>
5

>  <Alpha-1A>
6.09

>  <Alpha-1B>
5.21

>  <Alpha-2A>
7.05

>  <Alpha-2B>
6.54

>  <Alpha-2C>
7.16

>  <Beta-1>
5

>  <Beta-2>
5

>  <DOPAMINE D1>
5

>  <DOPAMINE D2>
6.88

>  <DOPAMINE D3>
6.63

>  <DOPAMINE D4>
6.51

>  <DOPAMINE D5>
5

>  <Norepinephrine transporter>
5

$$$$
Piroxicam
  Marvin  02231216192D 0   1.00000     0.00000     0

 23 25  0  0  0  0  0  0  0  0999 V2000
    2.3267    1.3854    0.0000 S   0  0  0  0  0  0  0  0  0
    1.7964    2.0174    0.0000 O   0  0  0  0  0  0  0  0  0
    2.8570    2.0174    0.0000 O   0  0  0  0  0  0  0  0  0
    1.6123    0.9729    0.0000 N   0  0  0  0  0  0  0  0  0
    0.8978    1.3854    0.0000 C   0  0  0  0  0  0  0  0  0
    1.6123    0.1479    0.0000 C   0  0  0  0  0  0  0  0  0
    0.8978   -0.2646    0.0000 C   0  0  0  0  0  0  0  0  0
    0.1833    0.1479    0.0000 O   0  0  0  0  0  0  0  0  0
    0.8978   -1.0896    0.0000 N   0  0  0  0  0  0  0  0  0
    0.1833   -1.5021    0.0000 C   0  0  0  0  0  0  0  0  0
    0.1833   -2.3271    0.0000 N   0  0  0  0  0  0  0  0  0
   -0.5311   -2.7396    0.0000 C   0  0  0  0  0  0  0  0  0
   -1.2456   -2.3271    0.0000 C   0  0  0  0  0  0  0  0  0
   -1.2456   -1.5021    0.0000 C   0  0  0  0  0  0  0  0  0
   -0.5311   -1.0896    0.0000 C   0  0  0  0  0  0  0  0  0
    2.3267   -0.2646    0.0000 C   0  0  0  0  0  0  0  0  0
    2.3267   -1.0896    0.0000 O   0  0  0  0  0  0  0  0  0
    3.0412    0.1479    0.0000 C   0  0  0  0  0  0  0  0  0
    3.0412    0.9729    0.0000 C   0  0  0  0  0  0  0  0  0
    3.7557    1.3854    0.0000 C   0  0  0  0  0  0  0  0  0
    4.4702    0.9729    0.0000 C   0  0  0  0  0  0  0  0  0
    4.4702    0.1479    0.0000 C   0  0  0  0  0  0  0  0  0
    3.7557   -0.2646    0.0000 C   0  0  0  0  0  0  0  0  0
  1  2  2  0  0  0  0
  1  3  2  0  0  0  0
  1  4  1  0  0  0  0
  1 19  1  0  0  0  0
  4  5  1  0  0  0  0
  4  6  1  0  0  0  0
  6  7  2  0  0  0  0
  6 16  1  0  0  0  0
  7  8  1  0  0  0  0
  7  9  1  0  0  0  0
  9 10  1  0  0  0  0
 10 11  4  0  0  0  0
 10 15  4  0  0  0  0
 11 12  4  0  0  0  0
 12 13  4  0  0  0  0
 13 14  4  0  0  0  0
 14 15  4  0  0  0  0
 16 17  2  0  0  0  0
 16 18  1  0  0  0  0
 18 19  4  0  0  0  0
 18 23  4  0  0  0  0
 19 20  4  0  0  0  0
 20 21  4  0  0  0  0
 21 22  4  0  0  0  0
 22 23  4  0  0  0  0
M  END
>  <Name_Molregno>
Piroxicam

>  <5-HT1A>
5

>  <5-HT1B>
5

>  <5-HT1D>
5

>  <5-HT1E>
5

>  <5-HT2A>
5

>  <5-HT3>
5

>  <5-HT5>
5

>  <5-HT6>
5

>  <Alpha-1A>
5

>  <Alpha-1B>
5

>  <Alpha-2A>
5

>  <Alpha-2B>
5

>  <Alpha-2C>
5

>  <DOPAMINE D1>
5

>  <DOPAMINE D2>
5

>  <DOPAMINE D4>
5

>  <DOPAMINE D5>
5

>  <Dopamine transporter>
5

>  <HISTAMINE H1>
5

>  <HISTAMINE H2>
5

>  <Muscarinic acetylcholine receptor M2>
5

>  <Muscarinic acetylcholine receptor M5>
5

>  <Norepinephrine transporter>
5

>  <Serotonin transporter>
5

$$$$
PRAZOSIN
  Marvin  02231216192D 0   1.00000     0.00000     0

 28 31  0  0  0  0  0  0  0  0999 V2000
    1.9686   -3.1357    0.0000 O   0  0  0  0  0  0  0  0  0
    1.7137   -3.9204    0.0000 C   0  0  0  0  0  0  0  0  0
    0.8887   -3.9204    0.0000 C   0  0  0  0  0  0  0  0  0
    0.6338   -3.1357    0.0000 C   0  0  0  0  0  0  0  0  0
    1.3012   -2.6508    0.0000 C   0  0  0  0  0  0  0  0  0
    1.3012   -1.8258    0.0000 C   0  0  0  0  0  0  0  0  0
    0.5867   -1.4133    0.0000 O   0  0  0  0  0  0  0  0  0
    2.0157   -1.4133    0.0000 N   0  0  0  0  0  0  0  0  0
    2.0157   -0.5883    0.0000 C   0  0  0  0  0  0  0  0  0
    2.7302   -0.1758    0.0000 C   0  0  0  0  0  0  0  0  0
    3.4446   -0.5883    0.0000 N   0  0  0  0  0  0  0  0  0
    3.4446   -1.4133    0.0000 C   0  0  0  0  0  0  0  0  0
    2.7302   -1.8258    0.0000 C   0  0  0  0  0  0  0  0  0
    4.1591   -0.1758    0.0000 C   0  0  0  0  0  0  0  0  0
    4.1591    0.6492    0.0000 N   0  0  0  0  0  0  0  0  0
    4.8736    1.0617    0.0000 C   0  0  0  0  0  0  0  0  0
    4.8736    1.8867    0.0000 N   0  0  0  0  0  0  0  0  0
    5.5880    0.6492    0.0000 C   0  0  0  0  0  0  0  0  0
    6.3025    1.0617    0.0000 C   0  0  0  0  0  0  0  0  0
    7.0170    0.6492    0.0000 C   0  0  0  0  0  0  0  0  0
    7.7314    1.0617    0.0000 O   0  0  0  0  0  0  0  0  0
    7.7314    1.8867    0.0000 C   0  0  0  0  0  0  0  0  0
    7.0170   -0.1758    0.0000 C   0  0  0  0  0  0  0  0  0
    7.7314   -0.5883    0.0000 O   0  0  0  0  0  0  0  0  0
    7.7314   -1.4133    0.0000 C   0  0  0  0  0  0  0  0  0
    6.3025   -0.5883    0.0000 C   0  0  0  0  0  0  0  0  0
    5.5880   -0.1758    0.0000 C   0  0  0  0  0  0  0  0  0
    4.8736   -0.5883    0.0000 N   0  0  0  0  0  0  0  0  0
  1  2  4  0  0  0  0
  1  5  4  0  0  0  0
  2  3  4  0  0  0  0
  3  4  4  0  0  0  0
  4  5  4  0  0  0  0
  5  6  1  0  0  0  0
  6  7  2  0  0  0  0
  6  8  1  0  0  0  0
  8  9  1  0  0  0  0
  8 13  1  0  0  0  0
  9 10  1  0  0  0  0
 10 11  1  0  0  0  0
 11 12  1  0  0  0  0
 11 14  1  0  0  0  0
 12 13  1  0  0  0  0
 14 15  4  0  0  0  0
 14 28  4  0  0  0  0
 15 16  4  0  0  0  0
 16 17  1  0  0  0  0
 16 18  4  0  0  0  0
 18 19  4  0  0  0  0
 18 27  4  0  0  0  0
 19 20  4  0  0  0  0
 20 21  1  0  0  0  0
 20 23  4  0  0  0  0
 21 22  1  0  0  0  0
 23 24  1  0  0  0  0
 23 26  4  0  0  0  0
 24 25  1  0  0  0  0
 26 27  4  0  0  0  0
 27 28  4  0  0  0  0
M  END
>  <Name_Molregno>
PRAZOSIN

>  <5-HT1A>
5

>  <5-HT2A>
6.92

>  <5-HT3>
5

>  <5-HT7>
5

>  <Alpha-1A>
9.14

>  <Alpha-1B>
9.33

>  <Alpha-2A>
5.84

>  <Alpha-2B>
7.11

>  <Alpha-2C>
7.52

$$$$
Prucalopride
  Marvin  02231216192D 0   1.00000     0.00000     0

 25 27  0  0  0  0  0  0  0  0999 V2000
   -0.3739   -1.3965    0.0000 Cl  0  0  0  0  0  0  0  0  0
    0.3406   -1.8090    0.0000 C   0  0  0  0  0  0  0  0  0
    1.0551   -1.3965    0.0000 C   0  0  0  0  0  0  0  0  0
    1.7696   -1.8090    0.0000 C   0  0  0  0  0  0  0  0  0
    1.7696   -2.6340    0.0000 C   0  0  0  0  0  0  0  0  0
    2.3827   -3.1861    0.0000 O   0  0  0  0  0  0  0  0  0
    2.0471   -3.9397    0.0000 C   0  0  0  0  0  0  0  0  0
    1.2266   -3.8535    0.0000 C   0  0  0  0  0  0  0  0  0
    1.0551   -3.0465    0.0000 C   0  0  0  0  0  0  0  0  0
    0.3406   -2.6340    0.0000 C   0  0  0  0  0  0  0  0  0
   -0.3739   -3.0465    0.0000 N   0  0  0  0  0  0  0  0  0
    2.4840   -1.3965    0.0000 C   0  0  0  0  0  0  0  0  0
    3.1985   -1.8090    0.0000 O   0  0  0  0  0  0  0  0  0
    2.4840   -0.5715    0.0000 N   0  0  0  0  0  0  0  0  0
    3.1985   -0.1590    0.0000 C   0  0  0  0  0  0  0  0  0
    3.1985    0.6660    0.0000 C   0  0  0  0  0  0  0  0  0
    3.9130    1.0785    0.0000 C   0  0  0  0  0  0  0  0  0
    4.6274    0.6660    0.0000 N   0  0  0  0  0  0  0  0  0
    4.6274   -0.1590    0.0000 C   0  0  0  0  0  0  0  0  0
    3.9130   -0.5715    0.0000 C   0  0  0  0  0  0  0  0  0
    5.3419    1.0785    0.0000 C   0  0  0  0  0  0  0  0  0
    6.0564    0.6660    0.0000 C   0  0  0  0  0  0  0  0  0
    6.7709    1.0785    0.0000 C   0  0  0  0  0  0  0  0  0
    7.4853    0.6660    0.0000 O   0  0  0  0  0  0  0  0  0
    8.1998    1.0785    0.0000 C   0  0  0  0  0  0  0  0  0
  1  2  1  0  0  0  0
  2  3  4  0  0  0  0
  2 10  4  0  0  0  0
  3  4  4  0  0  0  0
  4  5  4  0  0  0  0
  4 12  1  0  0  0  0
  5  6  1  0  0  0  0
  5  9  4  0  0  0  0
  6  7  1  0  0  0  0
  7  8  1  0  0  0  0
  8  9  1  0  0  0  0
  9 10  4  0  0  0  0
 10 11  1  0  0  0  0
 12 13  2  0  0  0  0
 12 14  1  0  0  0  0
 14 15  1  0  0  0  0
 15 16  1  0  0  0  0
 15 20  1  0  0  0  0
 16 17  1  0  0  0  0
 17 18  1  0  0  0  0
 18 19  1  0  0  0  0
 18 21  1  0  0  0  0
 19 20  1  0  0  0  0
 21 22  1  0  0  0  0
 22 23  1  0  0  0  0
 23 24  1  0  0  0  0
 24 25  1  0  0  0  0
M  END
>  <Name_Molregno>
Prucalopride

>  <5-HT1A>
5

>  <5-HT1B>
5

>  <5-HT1D>
5

>  <5-HT1E>
5

>  <5-HT2A>
5

>  <5-HT2C>
5

>  <5-HT5>
5

>  <5-HT6>
5

>  <5-HT7>
5

>  <Alpha-2A>
5

>  <Alpha-2B>
5

>  <Alpha-2C>
5

>  <Beta-1>
5

>  <Beta-2>
5

>  <DOPAMINE D2>
5

>  <DOPAMINE D3>
5

>  <DOPAMINE D4>
5.63

>  <HISTAMINE H1>
5

>  <Serotonin transporter>
5

$$$$
PSILOCIN
  Marvin  02231216192D 0   1.00000     0.00000     0

 15 16  0  0  0  0  0  0  0  0999 V2000
    1.2794   -2.2041    0.0000 O   0  0  0  0  0  0  0  0  0
    1.2794   -1.3791    0.0000 C   0  0  0  0  0  0  0  0  0
    0.5650   -0.9666    0.0000 C   0  0  0  0  0  0  0  0  0
    0.5650   -0.1416    0.0000 C   0  0  0  0  0  0  0  0  0
   -0.2197    0.1134    0.0000 N   0  0  0  0  0  0  0  0  0
   -0.7046   -0.5541    0.0000 C   0  0  0  0  0  0  0  0  0
   -0.2197   -1.2215    0.0000 C   0  0  0  0  0  0  0  0  0
   -0.4746   -2.0061    0.0000 C   0  0  0  0  0  0  0  0  0
   -1.2816   -2.1777    0.0000 C   0  0  0  0  0  0  0  0  0
   -1.5365   -2.9623    0.0000 N   0  0  0  0  0  0  0  0  0
   -2.3435   -3.1338    0.0000 C   0  0  0  0  0  0  0  0  0
   -0.9845   -3.5754    0.0000 C   0  0  0  0  0  0  0  0  0
    1.2794    0.2709    0.0000 C   0  0  0  0  0  0  0  0  0
    1.9939   -0.1416    0.0000 C   0  0  0  0  0  0  0  0  0
    1.9939   -0.9666    0.0000 C   0  0  0  0  0  0  0  0  0
  1  2  1  0  0  0  0
  2  3  4  0  0  0  0
  2 15  4  0  0  0  0
  3  4  4  0  0  0  0
  3  7  4  0  0  0  0
  4  5  4  0  0  0  0
  4 13  4  0  0  0  0
  5  6  4  0  0  0  0
  6  7  4  0  0  0  0
  7  8  1  0  0  0  0
  8  9  1  0  0  0  0
  9 10  1  0  0  0  0
 10 11  1  0  0  0  0
 10 12  1  0  0  0  0
 13 14  4  0  0  0  0
 14 15  4  0  0  0  0
M  STY  1   1 DAT
M  SAL   1  1   5
M  SDT   1 MRV_IMPLICIT_H                                        
M  SDD   1     0.0000    0.0000    DR    ALL  0       0  
M  SED   1 IMPL_H1
M  END
>  <Name_Molregno>
PSILOCIN

>  <5-HT1A>
6.78

>  <5-HT1B>
6.66

>  <5-HT1D>
7.44

>  <5-HT1E>
7.28

>  <5-HT2A>
6.97

>  <5-HT3>
5

>  <5-HT5>
7.08

>  <5-HT6>
7.24

>  <5-HT7>
8.46

>  <Alpha-1A>
5

>  <Alpha-1B>
5

>  <Alpha-2A>
5.86

>  <Alpha-2B>
5.72

>  <Alpha-2C>
5

>  <Beta-1>
5

>  <DOPAMINE D1>
5

>  <DOPAMINE D2>
5

>  <DOPAMINE D4>
5

>  <DOPAMINE D5>
5

>  <Dopamine transporter>
5

>  <HISTAMINE H1>
6.52

>  <HISTAMINE H2>
5

>  <HISTAMINE H4>
5

>  <Muscarinic acetylcholine receptor M2>
5

>  <Muscarinic acetylcholine receptor M5>
5

>  <Norepinephrine transporter>
5

>  <Serotonin transporter>
5.42

$$$$
PSILOCYBIN
  Marvin  02231216192D 0   1.00000     0.00000     0

 19 20  0  0  0  0  0  0  0  0999 V2000
    0.6946   -2.4480    0.0000 P   0  0  0  0  0  0  0  0  0
   -0.0199   -2.0355    0.0000 O   0  0  0  0  0  0  0  0  0
   -0.0199   -1.2105    0.0000 C   0  0  0  0  0  0  0  0  0
   -0.7343   -0.7980    0.0000 C   0  0  0  0  0  0  0  0  0
   -0.7343    0.0270    0.0000 C   0  0  0  0  0  0  0  0  0
   -1.5190    0.2819    0.0000 N   0  0  0  0  0  0  0  0  0
   -2.0039   -0.3855    0.0000 C   0  0  0  0  0  0  0  0  0
   -1.5190   -1.0530    0.0000 C   0  0  0  0  0  0  0  0  0
   -1.7739   -1.8376    0.0000 C   0  0  0  0  0  0  0  0  0
   -2.5809   -2.0091    0.0000 C   0  0  0  0  0  0  0  0  0
   -2.8358   -2.7937    0.0000 N   0  0  0  0  0  0  0  0  0
   -3.6428   -2.9653    0.0000 C   0  0  0  0  0  0  0  0  0
   -2.2838   -3.4068    0.0000 C   0  0  0  0  0  0  0  0  0
   -0.0199    0.4395    0.0000 C   0  0  0  0  0  0  0  0  0
    0.6946    0.0270    0.0000 C   0  0  0  0  0  0  0  0  0
    0.6946   -0.7980    0.0000 C   0  0  0  0  0  0  0  0  0
    1.4091   -2.8605    0.0000 O   0  0  0  0  0  0  0  0  0
    0.2821   -3.1625    0.0000 O   0  0  0  0  0  0  0  0  0
    1.1071   -1.7336    0.0000 O   0  0  0  0  0  0  0  0  0
  1  2  1  0  0  0  0
  1 17  2  0  0  0  0
  1 18  1  0  0  0  0
  1 19  1  0  0  0  0
  2  3  1  0  0  0  0
  3  4  4  0  0  0  0
  3 16  4  0  0  0  0
  4  5  4  0  0  0  0
  4  8  4  0  0  0  0
  5  6  4  0  0  0  0
  5 14  4  0  0  0  0
  6  7  4  0  0  0  0
  7  8  4  0  0  0  0
  8  9  1  0  0  0  0
  9 10  1  0  0  0  0
 10 11  1  0  0  0  0
 11 12  1  0  0  0  0
 11 13  1  0  0  0  0
 14 15  4  0  0  0  0
 15 16  4  0  0  0  0
M  STY  1   1 DAT
M  SAL   1  1   6
M  SDT   1 MRV_IMPLICIT_H                                        
M  SDD   1     0.0000    0.0000    DR    ALL  0       0  
M  SED   1 IMPL_H1
M  END
>  <Name_Molregno>
PSILOCYBIN

>  <5-HT1A>
5

>  <5-HT1B>
5

>  <5-HT1D>
5.67

>  <5-HT1E>
6.71

>  <5-HT2A>
5

>  <5-HT3>
5

>  <5-HT5>
5.21

>  <5-HT6>
6.38

>  <5-HT7>
6.22

>  <Alpha-1A>
5

>  <Alpha-1B>
5

>  <Alpha-2A>
5

>  <Alpha-2B>
5

>  <Alpha-2C>
5

>  <DOPAMINE D1>
5

>  <DOPAMINE D2>
5

>  <DOPAMINE D4>
5

>  <DOPAMINE D5>
5

>  <Dopamine transporter>
5

>  <HISTAMINE H1>
5

>  <HISTAMINE H2>
5

>  <HISTAMINE H4>
5

>  <Muscarinic acetylcholine receptor M2>
5

>  <Muscarinic acetylcholine receptor M5>
5

>  <Norepinephrine transporter>
5

>  <Serotonin transporter>
5

$$$$
Quercetin
  Marvin  02231216192D 0   1.00000     0.00000     0

 22 24  0  0  0  0  0  0  0  0999 V2000
    0.2617    0.1403    0.0000 O   0  0  0  0  0  0  0  0  0
    0.9762    0.5528    0.0000 C   0  0  0  0  0  0  0  0  0
    0.9762    1.3778    0.0000 C   0  0  0  0  0  0  0  0  0
    0.2617    1.7903    0.0000 C   0  0  0  0  0  0  0  0  0
    0.2617    2.6153    0.0000 O   0  0  0  0  0  0  0  0  0
   -0.4528    1.3778    0.0000 C   0  0  0  0  0  0  0  0  0
   -1.1672    1.7903    0.0000 O   0  0  0  0  0  0  0  0  0
   -0.4528    0.5528    0.0000 C   0  0  0  0  0  0  0  0  0
   -1.1672    0.1403    0.0000 C   0  0  0  0  0  0  0  0  0
   -1.1672   -0.6847    0.0000 C   0  0  0  0  0  0  0  0  0
   -1.8817   -1.0972    0.0000 C   0  0  0  0  0  0  0  0  0
   -1.8817   -1.9222    0.0000 O   0  0  0  0  0  0  0  0  0
   -2.5962   -0.6847    0.0000 C   0  0  0  0  0  0  0  0  0
   -3.3106   -1.0972    0.0000 O   0  0  0  0  0  0  0  0  0
   -2.5962    0.1403    0.0000 C   0  0  0  0  0  0  0  0  0
   -1.8817    0.5528    0.0000 C   0  0  0  0  0  0  0  0  0
    1.6907    1.7903    0.0000 C   0  0  0  0  0  0  0  0  0
    1.6907    2.6153    0.0000 O   0  0  0  0  0  0  0  0  0
    2.4051    1.3778    0.0000 C   0  0  0  0  0  0  0  0  0
    2.4051    0.5528    0.0000 C   0  0  0  0  0  0  0  0  0
    3.1196    0.1403    0.0000 O   0  0  0  0  0  0  0  0  0
    1.6907    0.1403    0.0000 C   0  0  0  0  0  0  0  0  0
  1  2  1  0  0  0  0
  1  8  1  0  0  0  0
  2  3  4  0  0  0  0
  2 22  4  0  0  0  0
  3  4  1  0  0  0  0
  3 17  4  0  0  0  0
  4  5  2  0  0  0  0
  4  6  1  0  0  0  0
  6  7  1  0  0  0  0
  6  8  2  0  0  0  0
  8  9  1  0  0  0  0
  9 10  4  0  0  0  0
  9 16  4  0  0  0  0
 10 11  4  0  0  0  0
 11 12  1  0  0  0  0
 11 13  4  0  0  0  0
 13 14  1  0  0  0  0
 13 15  4  0  0  0  0
 15 16  4  0  0  0  0
 17 18  1  0  0  0  0
 17 19  4  0  0  0  0
 19 20  4  0  0  0  0
 20 21  1  0  0  0  0
 20 22  4  0  0  0  0
M  END
>  <Name_Molregno>
Quercetin

>  <5-HT1A>
5

>  <5-HT1D>
5

>  <5-HT3>
5

>  <5-HT5>
5

>  <5-HT6>
5

>  <5-HT7>
5

>  <Alpha-1A>
5

>  <Alpha-1B>
5

>  <Alpha-2A>
5

>  <Alpha-2B>
5

>  <Alpha-2C>
5

>  <DOPAMINE D1>
5

>  <DOPAMINE D5>
5

>  <Muscarinic acetylcholine receptor M1>
5

>  <Muscarinic acetylcholine receptor M2>
5

>  <Muscarinic acetylcholine receptor M3>
5

>  <Muscarinic acetylcholine receptor M4>
5

>  <Muscarinic acetylcholine receptor M5>
5

>  <Norepinephrine transporter>
5

>  <Serotonin transporter>
5

$$$$
Quercitrin
  Marvin  02231216192D 0   1.00000     0.00000     0

 32 35  0  0  1  0  0  0  0  0999 V2000
    1.5011    1.5398    0.0000 O   0  0  0  0  0  0  0  0  0
    1.5011    2.3648    0.0000 C   0  0  0  0  0  0  0  0  0
    2.2156    2.7773    0.0000 C   0  0  0  0  0  0  0  0  0
    0.7866    2.7773    0.0000 C   0  0  0  0  0  0  0  0  0
    0.7866    3.6023    0.0000 O   0  0  0  0  0  0  0  0  0
    0.0722    2.3648    0.0000 C   0  0  0  0  0  0  0  0  0
   -0.6423    2.7773    0.0000 O   0  0  0  0  0  0  0  0  0
    0.0722    1.5398    0.0000 C   0  0  0  0  0  0  0  0  0
   -0.6423    1.1273    0.0000 O   0  0  0  0  0  0  0  0  0
    0.7866    1.1273    0.0000 C   0  0  0  0  0  0  0  0  0
    0.7866    0.3023    0.0000 O   0  0  0  0  0  0  0  0  0
    1.5011   -0.1102    0.0000 C   0  0  0  0  0  0  0  0  0
    1.5011   -0.9352    0.0000 C   0  0  0  0  0  0  0  0  0
    2.2156   -1.3477    0.0000 O   0  0  0  0  0  0  0  0  0
    2.9300   -0.9352    0.0000 C   0  0  0  0  0  0  0  0  0
    2.9300   -0.1102    0.0000 C   0  0  0  0  0  0  0  0  0
    2.2156    0.3023    0.0000 C   0  0  0  0  0  0  0  0  0
    2.2156    1.1273    0.0000 O   0  0  0  0  0  0  0  0  0
    3.6445    0.3023    0.0000 C   0  0  0  0  0  0  0  0  0
    3.6445    1.1273    0.0000 O   0  0  0  0  0  0  0  0  0
    4.3590   -0.1102    0.0000 C   0  0  0  0  0  0  0  0  0
    4.3590   -0.9352    0.0000 C   0  0  0  0  0  0  0  0  0
    5.0734   -1.3477    0.0000 O   0  0  0  0  0  0  0  0  0
    3.6445   -1.3477    0.0000 C   0  0  0  0  0  0  0  0  0
    0.7866   -1.3477    0.0000 C   0  0  0  0  0  0  0  0  0
    0.7866   -2.1727    0.0000 C   0  0  0  0  0  0  0  0  0
    0.0722   -2.5852    0.0000 C   0  0  0  0  0  0  0  0  0
    0.0722   -3.4102    0.0000 O   0  0  0  0  0  0  0  0  0
   -0.6423   -2.1727    0.0000 C   0  0  0  0  0  0  0  0  0
   -1.3568   -2.5852    0.0000 O   0  0  0  0  0  0  0  0  0
   -0.6423   -1.3477    0.0000 C   0  0  0  0  0  0  0  0  0
    0.0722   -0.9352    0.0000 C   0  0  0  0  0  0  0  0  0
  1  2  1  0  0  0  0
  1 10  1  0  0  0  0
  2  3  1  0  0  0  0
  2  4  1  0  0  0  0
  4  5  1  0  0  0  0
  4  6  1  0  0  0  0
  6  7  1  0  0  0  0
  6  8  1  0  0  0  0
  8  9  1  0  0  0  0
  8 10  1  0  0  0  0
 10 11  1  0  0  0  0
 11 12  1  0  0  0  0
 12 13  2  0  0  0  0
 12 17  1  0  0  0  0
 13 14  1  0  0  0  0
 13 25  1  0  0  0  0
 14 15  1  0  0  0  0
 15 16  1  0  0  0  0
 15 24  2  0  0  0  0
 16 17  2  0  0  0  0
 16 19  1  0  0  0  0
 17 18  1  0  0  0  0
 19 20  1  0  0  0  0
 19 21  2  0  0  0  0
 21 22  1  0  0  0  0
 22 23  2  0  0  0  0
 22 24  1  0  0  0  0
 25 26  4  0  0  0  0
 25 32  4  0  0  0  0
 26 27  4  0  0  0  0
 27 28  1  0  0  0  0
 27 29  4  0  0  0  0
 29 30  1  0  0  0  0
 29 31  4  0  0  0  0
 31 32  4  0  0  0  0
M  END
>  <Name_Molregno>
Quercitrin

>  <5-HT1A>
5

>  <5-HT1D>
5

>  <5-HT3>
5

>  <5-HT5>
5

>  <5-HT6>
5

>  <5-HT7>
5

>  <Alpha-1A>
5

>  <Alpha-1B>
5

>  <Alpha-2A>
5

>  <Alpha-2B>
5

>  <Alpha-2C>
5

>  <DOPAMINE D1>
5

>  <DOPAMINE D5>
5

>  <Muscarinic acetylcholine receptor M1>
5

>  <Muscarinic acetylcholine receptor M2>
5

>  <Muscarinic acetylcholine receptor M3>
5

>  <Muscarinic acetylcholine receptor M4>
5

>  <Muscarinic acetylcholine receptor M5>
5

>  <Norepinephrine transporter>
5

>  <Serotonin transporter>
5

$$$$
QUETIAPINE
  Marvin  02231216192D 0   1.00000     0.00000     0

 27 30  0  0  0  0  0  0  0  0999 V2000
    0.4015    1.2563    0.0000 S   0  0  0  0  0  0  0  0  0
    1.2173    1.3793    0.0000 C   0  0  0  0  0  0  0  0  0
    1.8221    0.8181    0.0000 C   0  0  0  0  0  0  0  0  0
    2.6104    1.0613    0.0000 C   0  0  0  0  0  0  0  0  0
    2.7940    1.8656    0.0000 C   0  0  0  0  0  0  0  0  0
    2.1892    2.4268    0.0000 C   0  0  0  0  0  0  0  0  0
    1.4009    2.1836    0.0000 C   0  0  0  0  0  0  0  0  0
    1.7604   -0.0046    0.0000 C   0  0  0  0  0  0  0  0  0
    1.0788   -0.4693    0.0000 N   0  0  0  0  0  0  0  0  0
    0.2904   -0.2261    0.0000 C   0  0  0  0  0  0  0  0  0
   -0.0110    0.5418    0.0000 C   0  0  0  0  0  0  0  0  0
   -0.8268    0.6648    0.0000 C   0  0  0  0  0  0  0  0  0
   -1.3412    0.0198    0.0000 C   0  0  0  0  0  0  0  0  0
   -1.0398   -0.7482    0.0000 C   0  0  0  0  0  0  0  0  0
   -0.2240   -0.8711    0.0000 C   0  0  0  0  0  0  0  0  0
    2.4749   -0.4171    0.0000 N   0  0  0  0  0  0  0  0  0
    3.1893   -0.0046    0.0000 C   0  0  0  0  0  0  0  0  0
    3.9038   -0.4171    0.0000 C   0  0  0  0  0  0  0  0  0
    3.9038   -1.2421    0.0000 N   0  0  0  0  0  0  0  0  0
    3.1893   -1.6546    0.0000 C   0  0  0  0  0  0  0  0  0
    2.4749   -1.2421    0.0000 C   0  0  0  0  0  0  0  0  0
    4.6183   -1.6546    0.0000 C   0  0  0  0  0  0  0  0  0
    5.3328   -1.2421    0.0000 C   0  0  0  0  0  0  0  0  0
    6.0472   -1.6546    0.0000 O   0  0  0  0  0  0  0  0  0
    6.7617   -1.2421    0.0000 C   0  0  0  0  0  0  0  0  0
    7.4762   -1.6546    0.0000 C   0  0  0  0  0  0  0  0  0
    8.1906   -1.2421    0.0000 O   0  0  0  0  0  0  0  0  0
  1  2  1  0  0  0  0
  1 11  1  0  0  0  0
  2  3  4  0  0  0  0
  2  7  4  0  0  0  0
  3  4  4  0  0  0  0
  3  8  1  0  0  0  0
  4  5  4  0  0  0  0
  5  6  4  0  0  0  0
  6  7  4  0  0  0  0
  8  9  2  0  0  0  0
  8 16  1  0  0  0  0
  9 10  1  0  0  0  0
 10 11  4  0  0  0  0
 10 15  4  0  0  0  0
 11 12  4  0  0  0  0
 12 13  4  0  0  0  0
 13 14  4  0  0  0  0
 14 15  4  0  0  0  0
 16 17  1  0  0  0  0
 16 21  1  0  0  0  0
 17 18  1  0  0  0  0
 18 19  1  0  0  0  0
 19 20  1  0  0  0  0
 19 22  1  0  0  0  0
 20 21  1  0  0  0  0
 22 23  1  0  0  0  0
 23 24  1  0  0  0  0
 24 25  1  0  0  0  0
 25 26  1  0  0  0  0
 26 27  1  0  0  0  0
M  END
>  <Name_Molregno>
QUETIAPINE

>  <5-HT1A>
6.59

>  <5-HT1B>
5.83

>  <5-HT1D>
5.52

>  <5-HT1E>
5.76

>  <5-HT2A>
6.76

>  <5-HT2C>
5.82

>  <5-HT3>
5

>  <5-HT5>
5.51

>  <5-HT6>
6.35

>  <5-HT7>
6.74

>  <Alpha-1A>
7.66

>  <Alpha-1B>
7.41

>  <Alpha-2A>
5.51

>  <Alpha-2B>
6.44

>  <Alpha-2C>
7.18

>  <Beta-1>
5.15

>  <Beta-2>
5.15

>  <DOPAMINE D1>
5.95

>  <DOPAMINE D2>
6.51

>  <DOPAMINE D3>
6.59

>  <DOPAMINE D4>
5.77

>  <DOPAMINE D5>
5.79

>  <Dopamine transporter>
5

>  <HISTAMINE H1>
8.1

>  <HISTAMINE H2>
5

>  <HISTAMINE H4>
5

>  <Muscarinic acetylcholine receptor M1>
6.71

>  <Muscarinic acetylcholine receptor M2>
6.03

>  <Muscarinic acetylcholine receptor M3>
5.69

>  <Muscarinic acetylcholine receptor M4>
6.5

>  <Muscarinic acetylcholine receptor M5>
5.58

>  <Norepinephrine transporter>
5

>  <Serotonin transporter>
5.18

$$$$
RAUBASINE
  Marvin  02231216192D 0   1.00000     0.00000     0

 26 30  0  0  1  0  0  0  0  0999 V2000
    5.4619   -1.2587    0.0000 O   0  0  0  0  0  0  0  0  0
    5.1897   -0.4799    0.0000 C   0  0  0  0  0  0  0  0  0
    4.3792   -0.3261    0.0000 C   0  0  0  0  0  0  0  0  0
    3.8408   -0.9512    0.0000 C   0  0  0  0  0  0  0  0  0
    4.1129   -1.7301    0.0000 C   0  0  0  0  0  0  0  0  0
    3.5745   -2.3551    0.0000 C   0  0  0  0  0  0  0  0  0
    2.7639   -2.2014    0.0000 N   0  0  0  0  0  0  0  0  0
    2.4918   -1.4226    0.0000 C   0  0  0  0  0  0  0  0  0
    3.0302   -0.7975    0.0000 C   0  0  0  0  0  0  0  0  0
    1.6813   -1.2689    0.0000 C   0  0  0  0  0  0  0  0  0
    1.2531   -0.5637    0.0000 N   0  0  0  0  0  0  0  0  0
    0.4501   -0.7529    0.0000 C   0  0  0  0  0  0  0  0  0
    0.3820   -1.5751    0.0000 C   0  0  0  0  0  0  0  0  0
    1.1428   -1.8940    0.0000 C   0  0  0  0  0  0  0  0  0
    1.4150   -2.6728    0.0000 C   0  0  0  0  0  0  0  0  0
    2.2255   -2.8265    0.0000 C   0  0  0  0  0  0  0  0  0
   -0.3641   -1.9271    0.0000 C   0  0  0  0  0  0  0  0  0
   -1.0421   -1.4570    0.0000 C   0  0  0  0  0  0  0  0  0
   -0.9739   -0.6348    0.0000 C   0  0  0  0  0  0  0  0  0
   -0.2278   -0.2828    0.0000 C   0  0  0  0  0  0  0  0  0
    4.9235   -1.8838    0.0000 C   0  0  0  0  0  0  0  0  0
    5.1956   -2.6626    0.0000 C   0  0  0  0  0  0  0  0  0
    4.1070    0.4527    0.0000 C   0  0  0  0  0  0  0  0  0
    4.6454    1.0778    0.0000 O   0  0  0  0  0  0  0  0  0
    4.3733    1.8566    0.0000 C   0  0  0  0  0  0  0  0  0
    3.2965    0.6064    0.0000 O   0  0  0  0  0  0  0  0  0
  1  2  1  0  0  0  0
  1 21  1  0  0  0  0
  2  3  2  0  0  0  0
  3  4  1  0  0  0  0
  3 23  1  0  0  0  0
  4  5  1  0  0  0  0
  4  9  1  0  0  0  0
  5  6  1  0  0  0  0
  5 21  1  0  0  0  0
  6  7  1  0  0  0  0
  7  8  1  0  0  0  0
  7 16  1  0  0  0  0
  8  9  1  0  0  0  0
  8 10  1  0  0  0  0
 10 11  4  0  0  0  0
 10 14  4  0  0  0  0
 11 12  4  0  0  0  0
 12 13  4  0  0  0  0
 12 20  4  0  0  0  0
 13 14  4  0  0  0  0
 13 17  4  0  0  0  0
 14 15  1  0  0  0  0
 15 16  1  0  0  0  0
 17 18  4  0  0  0  0
 18 19  4  0  0  0  0
 19 20  4  0  0  0  0
 21 22  1  0  0  0  0
 23 24  1  0  0  0  0
 23 26  2  0  0  0  0
 24 25  1  0  0  0  0
M  STY  1   1 DAT
M  SAL   1  1  11
M  SDT   1 MRV_IMPLICIT_H                                        
M  SDD   1     0.0000    0.0000    DR    ALL  0       0  
M  SED   1 IMPL_H1
M  END
>  <Name_Molregno>
RAUBASINE

>  <Alpha-2A>
7.75

>  <Alpha-2B>
7.84

>  <Alpha-2C>
8.3

$$$$
Rilmenidine
  Marvin  02231216192D 0   1.00000     0.00000     0

 13 15  0  0  0  0  0  0  0  0999 V2000
   -0.3978    0.5456    0.0000 O   0  0  0  0  0  0  0  0  0
   -0.1428    1.3302    0.0000 C   0  0  0  0  0  0  0  0  0
    0.6822    1.3302    0.0000 C   0  0  0  0  0  0  0  0  0
    0.9371    0.5456    0.0000 N   0  0  0  0  0  0  0  0  0
    0.2697    0.0607    0.0000 C   0  0  0  0  0  0  0  0  0
    0.2697   -0.7643    0.0000 N   0  0  0  0  0  0  0  0  0
    0.9841   -1.1768    0.0000 C   0  0  0  0  0  0  0  0  0
    0.9841   -2.0018    0.0000 C   0  0  0  0  0  0  0  0  0
    1.3966   -2.7163    0.0000 C   0  0  0  0  0  0  0  0  0
    0.5716   -2.7163    0.0000 C   0  0  0  0  0  0  0  0  0
    1.6986   -0.7643    0.0000 C   0  0  0  0  0  0  0  0  0
    2.1111   -0.0498    0.0000 C   0  0  0  0  0  0  0  0  0
    2.5236   -0.7643    0.0000 C   0  0  0  0  0  0  0  0  0
  1  2  1  0  0  0  0
  1  5  1  0  0  0  0
  2  3  1  0  0  0  0
  3  4  1  0  0  0  0
  4  5  2  0  0  0  0
  5  6  1  0  0  0  0
  6  7  1  0  0  0  0
  7  8  1  0  0  0  0
  7 11  1  0  0  0  0
  8  9  1  0  0  0  0
  8 10  1  0  0  0  0
  9 10  1  0  0  0  0
 11 12  1  0  0  0  0
 11 13  1  0  0  0  0
 12 13  1  0  0  0  0
M  END
>  <Name_Molregno>
Rilmenidine

>  <Alpha-2A>
5.8

$$$$
RISPERIDONE
  Marvin  02231216192D 0   1.00000     0.00000     0

 30 34  0  0  0  0  0  0  0  0999 V2000
    1.8325   -2.9394    0.0000 F   0  0  0  0  0  0  0  0  0
    2.0875   -2.1548    0.0000 C   0  0  0  0  0  0  0  0  0
    1.5354   -1.5417    0.0000 C   0  0  0  0  0  0  0  0  0
    1.7904   -0.7571    0.0000 C   0  0  0  0  0  0  0  0  0
    1.3779   -0.0426    0.0000 O   0  0  0  0  0  0  0  0  0
    1.9299    0.5705    0.0000 N   0  0  0  0  0  0  0  0  0
    2.6836    0.2349    0.0000 C   0  0  0  0  0  0  0  0  0
    2.5974   -0.5856    0.0000 C   0  0  0  0  0  0  0  0  0
    3.1494   -1.1987    0.0000 C   0  0  0  0  0  0  0  0  0
    2.8945   -1.9833    0.0000 C   0  0  0  0  0  0  0  0  0
    3.3981    0.6474    0.0000 C   0  0  0  0  0  0  0  0  0
    3.3981    1.4724    0.0000 C   0  0  0  0  0  0  0  0  0
    4.1125    1.8849    0.0000 C   0  0  0  0  0  0  0  0  0
    4.8270    1.4724    0.0000 N   0  0  0  0  0  0  0  0  0
    4.8270    0.6474    0.0000 C   0  0  0  0  0  0  0  0  0
    4.1125    0.2349    0.0000 C   0  0  0  0  0  0  0  0  0
    5.5415    1.8849    0.0000 C   0  0  0  0  0  0  0  0  0
    6.2559    1.4724    0.0000 C   0  0  0  0  0  0  0  0  0
    6.9704    1.8849    0.0000 C   0  0  0  0  0  0  0  0  0
    7.6849    1.4724    0.0000 C   0  0  0  0  0  0  0  0  0
    7.6849    0.6474    0.0000 O   0  0  0  0  0  0  0  0  0
    8.3994    1.8849    0.0000 N   0  0  0  0  0  0  0  0  0
    8.3994    2.7099    0.0000 C   0  0  0  0  0  0  0  0  0
    7.6849    3.1224    0.0000 N   0  0  0  0  0  0  0  0  0
    6.9704    2.7099    0.0000 C   0  0  0  0  0  0  0  0  0
    6.2559    3.1224    0.0000 C   0  0  0  0  0  0  0  0  0
    9.1138    3.1224    0.0000 C   0  0  0  0  0  0  0  0  0
    9.8283    2.7099    0.0000 C   0  0  0  0  0  0  0  0  0
    9.8283    1.8849    0.0000 C   0  0  0  0  0  0  0  0  0
    9.1138    1.4724    0.0000 C   0  0  0  0  0  0  0  0  0
  1  2  1  0  0  0  0
  2  3  4  0  0  0  0
  2 10  4  0  0  0  0
  3  4  4  0  0  0  0
  4  5  4  0  0  0  0
  4  8  4  0  0  0  0
  5  6  4  0  0  0  0
  6  7  4  0  0  0  0
  7  8  4  0  0  0  0
  7 11  1  0  0  0  0
  8  9  4  0  0  0  0
  9 10  4  0  0  0  0
 11 12  1  0  0  0  0
 11 16  1  0  0  0  0
 12 13  1  0  0  0  0
 13 14  1  0  0  0  0
 14 15  1  0  0  0  0
 14 17  1  0  0  0  0
 15 16  1  0  0  0  0
 17 18  1  0  0  0  0
 18 19  1  0  0  0  0
 19 20  1  0  0  0  0
 19 25  2  0  0  0  0
 20 21  2  0  0  0  0
 20 22  1  0  0  0  0
 22 23  1  0  0  0  0
 22 30  1  0  0  0  0
 23 24  2  0  0  0  0
 23 27  1  0  0  0  0
 24 25  1  0  0  0  0
 25 26  1  0  0  0  0
 27 28  1  0  0  0  0
 28 29  1  0  0  0  0
 29 30  1  0  0  0  0
M  END
>  <Name_Molregno>
RISPERIDONE

>  <5-HT1A>
6.52

>  <5-HT1B>
7.66

>  <5-HT1D>
7.6

>  <5-HT1E>
5.44

>  <5-HT2A>
9.35

>  <5-HT2C>
7.74

>  <5-HT3>
5

>  <5-HT5>
6.69

>  <5-HT6>
5.7

>  <5-HT7>
8.4

>  <Alpha-1A>
8.38

>  <Alpha-1B>
8.05

>  <Alpha-2A>
7.46

>  <Alpha-2B>
7.34

>  <Alpha-2C>
8.56

>  <Beta-1>
5.15

>  <Beta-2>
5.15

>  <DOPAMINE D1>
6.61

>  <DOPAMINE D2>
8.58

>  <DOPAMINE D3>
8.17

>  <DOPAMINE D4>
8.17

>  <DOPAMINE D5>
7.03

>  <Dopamine transporter>
5

>  <HISTAMINE H1>
7.79

>  <HISTAMINE H2>
6.92

>  <HISTAMINE H4>
5

>  <Muscarinic acetylcholine receptor M1>
5.22

>  <Muscarinic acetylcholine receptor M2>
5.14

>  <Muscarinic acetylcholine receptor M3>
5

>  <Muscarinic acetylcholine receptor M4>
5.18

>  <Muscarinic acetylcholine receptor M5>
5

>  <Norepinephrine transporter>
5

>  <Serotonin transporter>
5.67

$$$$
ROFECOXIB
  Marvin  02231216192D 0   1.00000     0.00000     0

 22 24  0  0  0  0  0  0  0  0999 V2000
   -1.7307    1.7900    0.0000 S   0  0  0  0  0  0  0  0  0
   -1.7307    2.6150    0.0000 O   0  0  0  0  0  0  0  0  0
   -2.5557    1.7900    0.0000 O   0  0  0  0  0  0  0  0  0
   -0.9057    1.7900    0.0000 C   0  0  0  0  0  0  0  0  0
   -1.7307    0.9650    0.0000 C   0  0  0  0  0  0  0  0  0
   -1.0163    0.5525    0.0000 C   0  0  0  0  0  0  0  0  0
   -1.0163   -0.2725    0.0000 C   0  0  0  0  0  0  0  0  0
   -1.7307   -0.6850    0.0000 C   0  0  0  0  0  0  0  0  0
   -2.4452   -0.2725    0.0000 C   0  0  0  0  0  0  0  0  0
   -2.4452    0.5525    0.0000 C   0  0  0  0  0  0  0  0  0
   -1.7307   -1.5100    0.0000 C   0  0  0  0  0  0  0  0  0
   -1.0633   -1.9950    0.0000 C   0  0  0  0  0  0  0  0  0
   -1.3182   -2.7796    0.0000 O   0  0  0  0  0  0  0  0  0
   -2.1432   -2.7796    0.0000 C   0  0  0  0  0  0  0  0  0
   -2.6282   -3.4470    0.0000 O   0  0  0  0  0  0  0  0  0
   -2.3982   -1.9950    0.0000 C   0  0  0  0  0  0  0  0  0
   -3.1828   -1.7400    0.0000 C   0  0  0  0  0  0  0  0  0
   -3.7959   -2.2920    0.0000 C   0  0  0  0  0  0  0  0  0
   -4.5805   -2.0371    0.0000 C   0  0  0  0  0  0  0  0  0
   -4.7520   -1.2301    0.0000 C   0  0  0  0  0  0  0  0  0
   -4.1390   -0.6781    0.0000 C   0  0  0  0  0  0  0  0  0
   -3.3543   -0.9330    0.0000 C   0  0  0  0  0  0  0  0  0
  1  2  2  0  0  0  0
  1  3  2  0  0  0  0
  1  4  1  0  0  0  0
  1  5  1  0  0  0  0
  5  6  4  0  0  0  0
  5 10  4  0  0  0  0
  6  7  4  0  0  0  0
  7  8  4  0  0  0  0
  8  9  4  0  0  0  0
  8 11  1  0  0  0  0
  9 10  4  0  0  0  0
 11 12  1  0  0  0  0
 11 16  2  0  0  0  0
 12 13  1  0  0  0  0
 13 14  1  0  0  0  0
 14 15  2  0  0  0  0
 14 16  1  0  0  0  0
 16 17  1  0  0  0  0
 17 18  4  0  0  0  0
 17 22  4  0  0  0  0
 18 19  4  0  0  0  0
 19 20  4  0  0  0  0
 20 21  4  0  0  0  0
 21 22  4  0  0  0  0
M  END
>  <Name_Molregno>
ROFECOXIB

>  <5-HT1A>
5

>  <5-HT1B>
5

>  <5-HT1D>
5

>  <5-HT1E>
5

>  <5-HT2A>
5

>  <5-HT3>
5

>  <5-HT6>
5

>  <5-HT7>
5

>  <Alpha-1A>
5

>  <Alpha-1B>
5

>  <Alpha-2A>
5

>  <Alpha-2B>
5

>  <Alpha-2C>
5

>  <DOPAMINE D1>
5

>  <DOPAMINE D2>
5

>  <DOPAMINE D5>
5

>  <Dopamine transporter>
5

>  <HISTAMINE H2>
5

>  <Muscarinic acetylcholine receptor M2>
5

>  <Muscarinic acetylcholine receptor M5>
5

>  <Norepinephrine transporter>
5

>  <Serotonin transporter>
5

$$$$
Ropinirole
  Marvin  02231216192D 0   1.00000     0.00000     0

 19 20  0  0  0  0  0  0  0  0999 V2000
    0.9619   -1.7047    0.0000 O   0  0  0  0  0  0  0  0  0
    1.7869   -1.7047    0.0000 C   0  0  0  0  0  0  0  0  0
    2.2718   -2.3721    0.0000 N   0  0  0  0  0  0  0  0  0
    3.0565   -2.1172    0.0000 C   0  0  0  0  0  0  0  0  0
    3.0565   -1.2922    0.0000 C   0  0  0  0  0  0  0  0  0
    2.2718   -1.0372    0.0000 C   0  0  0  0  0  0  0  0  0
    3.7709   -0.8797    0.0000 C   0  0  0  0  0  0  0  0  0
    4.4854   -1.2922    0.0000 C   0  0  0  0  0  0  0  0  0
    4.4854   -2.1172    0.0000 C   0  0  0  0  0  0  0  0  0
    3.7709   -2.5297    0.0000 C   0  0  0  0  0  0  0  0  0
    3.7709   -0.0547    0.0000 C   0  0  0  0  0  0  0  0  0
    3.0565    0.3578    0.0000 C   0  0  0  0  0  0  0  0  0
    3.0565    1.1828    0.0000 N   0  0  0  0  0  0  0  0  0
    2.3420    1.5953    0.0000 C   0  0  0  0  0  0  0  0  0
    2.3420    2.4203    0.0000 C   0  0  0  0  0  0  0  0  0
    1.6275    2.8328    0.0000 C   0  0  0  0  0  0  0  0  0
    3.7709    1.5953    0.0000 C   0  0  0  0  0  0  0  0  0
    3.7709    2.4203    0.0000 C   0  0  0  0  0  0  0  0  0
    4.4854    2.8328    0.0000 C   0  0  0  0  0  0  0  0  0
  1  2  2  0  0  0  0
  2  3  1  0  0  0  0
  2  6  1  0  0  0  0
  3  4  1  0  0  0  0
  4  5  4  0  0  0  0
  4 10  4  0  0  0  0
  5  6  1  0  0  0  0
  5  7  4  0  0  0  0
  7  8  4  0  0  0  0
  7 11  1  0  0  0  0
  8  9  4  0  0  0  0
  9 10  4  0  0  0  0
 11 12  1  0  0  0  0
 12 13  1  0  0  0  0
 13 14  1  0  0  0  0
 13 17  1  0  0  0  0
 14 15  1  0  0  0  0
 15 16  1  0  0  0  0
 17 18  1  0  0  0  0
 18 19  1  0  0  0  0
M  END
>  <Name_Molregno>
Ropinirole

>  <5-HT1A>
6.28

>  <5-HT1B>
5

>  <5-HT1D>
5.86

>  <5-HT2A>
5

>  <5-HT2C>
5

>  <5-HT5>
5

>  <5-HT6>
5

>  <5-HT7>
5.82

>  <Alpha-1A>
5

>  <Alpha-1B>
5

>  <Alpha-2A>
5.73

>  <Alpha-2B>
6.12

>  <Alpha-2C>
5.92

>  <Beta-1>
5

>  <Beta-2>
5

>  <DOPAMINE D1>
5

>  <DOPAMINE D2>
6.45

>  <DOPAMINE D3>
7.5

>  <DOPAMINE D4>
6.07

>  <DOPAMINE D5>
5

$$$$
Roxindole
  Marvin  02231216192D 0   1.00000     0.00000     0

 26 29  0  0  0  0  0  0  0  0999 V2000
   -0.4898   -0.6830    0.0000 O   0  0  0  0  0  0  0  0  0
   -1.2043   -0.2705    0.0000 C   0  0  0  0  0  0  0  0  0
   -1.9188   -0.6830    0.0000 C   0  0  0  0  0  0  0  0  0
   -2.6332   -0.2705    0.0000 C   0  0  0  0  0  0  0  0  0
   -2.6332    0.5545    0.0000 C   0  0  0  0  0  0  0  0  0
   -3.4179    0.8095    0.0000 N   0  0  0  0  0  0  0  0  0
   -3.9028    0.1420    0.0000 C   0  0  0  0  0  0  0  0  0
   -3.4179   -0.5254    0.0000 C   0  0  0  0  0  0  0  0  0
   -3.6728   -1.3100    0.0000 C   0  0  0  0  0  0  0  0  0
   -3.1208   -1.9231    0.0000 C   0  0  0  0  0  0  0  0  0
   -3.3757   -2.7077    0.0000 C   0  0  0  0  0  0  0  0  0
   -2.8237   -3.3208    0.0000 C   0  0  0  0  0  0  0  0  0
   -3.0786   -4.1055    0.0000 N   0  0  0  0  0  0  0  0  0
   -2.5266   -4.7185    0.0000 C   0  0  0  0  0  0  0  0  0
   -2.7815   -5.5032    0.0000 C   0  0  0  0  0  0  0  0  0
   -3.5885   -5.6747    0.0000 C   0  0  0  0  0  0  0  0  0
   -4.1405   -5.0616    0.0000 C   0  0  0  0  0  0  0  0  0
   -3.8856   -4.2770    0.0000 C   0  0  0  0  0  0  0  0  0
   -3.8434   -6.4593    0.0000 C   0  0  0  0  0  0  0  0  0
   -3.2914   -7.0724    0.0000 C   0  0  0  0  0  0  0  0  0
   -3.5463   -7.8570    0.0000 C   0  0  0  0  0  0  0  0  0
   -4.3533   -8.0286    0.0000 C   0  0  0  0  0  0  0  0  0
   -4.9053   -7.4155    0.0000 C   0  0  0  0  0  0  0  0  0
   -4.6504   -6.6308    0.0000 C   0  0  0  0  0  0  0  0  0
   -1.9188    0.9670    0.0000 C   0  0  0  0  0  0  0  0  0
   -1.2043    0.5545    0.0000 C   0  0  0  0  0  0  0  0  0
  1  2  1  0  0  0  0
  2  3  4  0  0  0  0
  2 26  4  0  0  0  0
  3  4  4  0  0  0  0
  4  5  4  0  0  0  0
  4  8  4  0  0  0  0
  5  6  4  0  0  0  0
  5 25  4  0  0  0  0
  6  7  4  0  0  0  0
  7  8  4  0  0  0  0
  8  9  1  0  0  0  0
  9 10  1  0  0  0  0
 10 11  1  0  0  0  0
 11 12  1  0  0  0  0
 12 13  1  0  0  0  0
 13 14  1  0  0  0  0
 13 18  1  0  0  0  0
 14 15  1  0  0  0  0
 15 16  1  0  0  0  0
 16 17  2  0  0  0  0
 16 19  1  0  0  0  0
 17 18  1  0  0  0  0
 19 20  4  0  0  0  0
 19 24  4  0  0  0  0
 20 21  4  0  0  0  0
 21 22  4  0  0  0  0
 22 23  4  0  0  0  0
 23 24  4  0  0  0  0
 25 26  4  0  0  0  0
M  STY  1   1 DAT
M  SAL   1  1   6
M  SDT   1 MRV_IMPLICIT_H                                        
M  SDD   1     0.0000    0.0000    DR    ALL  0       0  
M  SED   1 IMPL_H1
M  END
>  <Name_Molregno>
Roxindole

>  <5-HT1A>
9.94

>  <5-HT1D>
7.2

>  <5-HT2A>
8.18

>  <5-HT2C>
6.51

>  <Alpha-1A>
8.59

>  <Alpha-1B>
8.55

>  <Alpha-2A>
8.21

>  <Alpha-2B>
8.34

>  <Alpha-2C>
8.75

>  <Beta-1>
5.57

>  <Beta-2>
6.03

>  <DOPAMINE D1>
6.33

>  <DOPAMINE D2>
8.45

>  <DOPAMINE D3>
8.93

>  <DOPAMINE D4>
8.23

>  <DOPAMINE D5>
6.72

$$$$
Rutin
  Marvin  02231216192D 0   1.00000     0.00000     0

 43 47  0  0  1  0  0  0  0  0999 V2000
   -0.5116   -0.2044    0.0000 O   0  0  0  0  0  0  0  0  0
   -0.5116    0.6206    0.0000 C   0  0  0  0  0  0  0  0  0
    0.2029    1.0331    0.0000 C   0  0  0  0  0  0  0  0  0
    0.2029    1.8581    0.0000 O   0  0  0  0  0  0  0  0  0
    0.9173    2.2706    0.0000 C   0  0  0  0  0  0  0  0  0
    0.9173    3.0956    0.0000 O   0  0  0  0  0  0  0  0  0
    1.6318    3.5081    0.0000 C   0  0  0  0  0  0  0  0  0
    1.6318    4.3331    0.0000 C   0  0  0  0  0  0  0  0  0
    2.3463    3.0956    0.0000 C   0  0  0  0  0  0  0  0  0
    3.0608    3.5081    0.0000 O   0  0  0  0  0  0  0  0  0
    2.3463    2.2706    0.0000 C   0  0  0  0  0  0  0  0  0
    3.0608    1.8581    0.0000 O   0  0  0  0  0  0  0  0  0
    1.6318    1.8581    0.0000 C   0  0  0  0  0  0  0  0  0
    1.6318    1.0331    0.0000 O   0  0  0  0  0  0  0  0  0
   -1.2261    1.0331    0.0000 C   0  0  0  0  0  0  0  0  0
   -1.2261    1.8581    0.0000 O   0  0  0  0  0  0  0  0  0
   -1.9405    0.6206    0.0000 C   0  0  0  0  0  0  0  0  0
   -2.6550    1.0331    0.0000 O   0  0  0  0  0  0  0  0  0
   -1.9405   -0.2044    0.0000 C   0  0  0  0  0  0  0  0  0
   -2.6550   -0.6169    0.0000 O   0  0  0  0  0  0  0  0  0
   -1.2261   -0.6169    0.0000 C   0  0  0  0  0  0  0  0  0
   -1.2261   -1.4419    0.0000 O   0  0  0  0  0  0  0  0  0
   -0.5116   -1.8544    0.0000 C   0  0  0  0  0  0  0  0  0
   -0.5116   -2.6794    0.0000 C   0  0  0  0  0  0  0  0  0
    0.2029   -3.0919    0.0000 O   0  0  0  0  0  0  0  0  0
    0.9173   -2.6794    0.0000 C   0  0  0  0  0  0  0  0  0
    0.9173   -1.8544    0.0000 C   0  0  0  0  0  0  0  0  0
    0.2029   -1.4419    0.0000 C   0  0  0  0  0  0  0  0  0
    0.2029   -0.6169    0.0000 O   0  0  0  0  0  0  0  0  0
    1.6318   -1.4419    0.0000 C   0  0  0  0  0  0  0  0  0
    1.6318   -0.6169    0.0000 O   0  0  0  0  0  0  0  0  0
    2.3463   -1.8544    0.0000 C   0  0  0  0  0  0  0  0  0
    2.3463   -2.6794    0.0000 C   0  0  0  0  0  0  0  0  0
    3.0608   -3.0919    0.0000 O   0  0  0  0  0  0  0  0  0
    1.6318   -3.0919    0.0000 C   0  0  0  0  0  0  0  0  0
   -1.2261   -3.0919    0.0000 C   0  0  0  0  0  0  0  0  0
   -1.2261   -3.9169    0.0000 C   0  0  0  0  0  0  0  0  0
   -1.9405   -4.3294    0.0000 C   0  0  0  0  0  0  0  0  0
   -1.9405   -5.1544    0.0000 O   0  0  0  0  0  0  0  0  0
   -2.6550   -3.9169    0.0000 C   0  0  0  0  0  0  0  0  0
   -3.3695   -4.3294    0.0000 O   0  0  0  0  0  0  0  0  0
   -2.6550   -3.0919    0.0000 C   0  0  0  0  0  0  0  0  0
   -1.9405   -2.6794    0.0000 C   0  0  0  0  0  0  0  0  0
  1  2  1  0  0  0  0
  1 21  1  0  0  0  0
  2  3  1  0  0  0  0
  2 15  1  0  0  0  0
  3  4  1  0  0  0  0
  4  5  1  0  0  0  0
  5  6  1  0  0  0  0
  5 13  1  0  0  0  0
  6  7  1  0  0  0  0
  7  8  1  0  0  0  0
  7  9  1  0  0  0  0
  9 10  1  0  0  0  0
  9 11  1  0  0  0  0
 11 12  1  0  0  0  0
 11 13  1  0  0  0  0
 13 14  1  0  0  0  0
 15 16  1  0  0  0  0
 15 17  1  0  0  0  0
 17 18  1  0  0  0  0
 17 19  1  0  0  0  0
 19 20  1  0  0  0  0
 19 21  1  0  0  0  0
 21 22  1  0  0  0  0
 22 23  1  0  0  0  0
 23 24  2  0  0  0  0
 23 28  1  0  0  0  0
 24 25  1  0  0  0  0
 24 36  1  0  0  0  0
 25 26  1  0  0  0  0
 26 27  4  0  0  0  0
 26 35  4  0  0  0  0
 27 28  1  0  0  0  0
 27 30  4  0  0  0  0
 28 29  2  0  0  0  0
 30 31  1  0  0  0  0
 30 32  4  0  0  0  0
 32 33  4  0  0  0  0
 33 34  1  0  0  0  0
 33 35  4  0  0  0  0
 36 37  4  0  0  0  0
 36 43  4  0  0  0  0
 37 38  4  0  0  0  0
 38 39  1  0  0  0  0
 38 40  4  0  0  0  0
 40 41  1  0  0  0  0
 40 42  4  0  0  0  0
 42 43  4  0  0  0  0
M  END
>  <Name_Molregno>
Rutin

>  <5-HT1A>
5

>  <5-HT1D>
5

>  <5-HT3>
5

>  <5-HT5>
5

>  <5-HT6>
5

>  <5-HT7>
5

>  <Alpha-1A>
5

>  <Alpha-1B>
5

>  <Alpha-2A>
5.03

>  <Alpha-2B>
5

>  <Alpha-2C>
5.02

>  <DOPAMINE D1>
5

>  <DOPAMINE D5>
5

>  <Muscarinic acetylcholine receptor M1>
5

>  <Muscarinic acetylcholine receptor M2>
5

>  <Muscarinic acetylcholine receptor M3>
5

>  <Muscarinic acetylcholine receptor M4>
5

>  <Muscarinic acetylcholine receptor M5>
7.45

>  <Norepinephrine transporter>
5

>  <Serotonin transporter>
5

$$$$
SERTINDOLE
  Marvin  02231216192D 0   1.00000     0.00000     0

 31 35  0  0  0  0  0  0  0  0999 V2000
    1.9546   -2.6271    0.0000 Cl  0  0  0  0  0  0  0  0  0
    1.2402   -2.2146    0.0000 C   0  0  0  0  0  0  0  0  0
    0.5257   -2.6271    0.0000 C   0  0  0  0  0  0  0  0  0
   -0.1888   -2.2146    0.0000 C   0  0  0  0  0  0  0  0  0
   -0.1888   -1.3896    0.0000 C   0  0  0  0  0  0  0  0  0
   -0.9734   -1.1347    0.0000 N   0  0  0  0  0  0  0  0  0
   -1.4583   -1.8021    0.0000 C   0  0  0  0  0  0  0  0  0
   -0.9734   -2.4695    0.0000 C   0  0  0  0  0  0  0  0  0
   -1.2283   -3.2542    0.0000 C   0  0  0  0  0  0  0  0  0
   -0.6763   -3.8672    0.0000 C   0  0  0  0  0  0  0  0  0
   -0.9312   -4.6519    0.0000 C   0  0  0  0  0  0  0  0  0
   -1.7382   -4.8234    0.0000 N   0  0  0  0  0  0  0  0  0
   -2.2902   -4.2103    0.0000 C   0  0  0  0  0  0  0  0  0
   -2.0353   -3.4257    0.0000 C   0  0  0  0  0  0  0  0  0
   -1.9931   -5.6080    0.0000 C   0  0  0  0  0  0  0  0  0
   -2.8001   -5.7795    0.0000 C   0  0  0  0  0  0  0  0  0
   -3.0551   -6.5642    0.0000 N   0  0  0  0  0  0  0  0  0
   -2.5701   -7.2316    0.0000 C   0  0  0  0  0  0  0  0  0
   -3.0551   -7.8990    0.0000 C   0  0  0  0  0  0  0  0  0
   -3.8397   -7.6441    0.0000 N   0  0  0  0  0  0  0  0  0
   -3.8397   -6.8191    0.0000 C   0  0  0  0  0  0  0  0  0
   -4.5071   -6.3342    0.0000 O   0  0  0  0  0  0  0  0  0
   -1.2283   -0.3500    0.0000 C   0  0  0  0  0  0  0  0  0
   -2.0353   -0.1785    0.0000 C   0  0  0  0  0  0  0  0  0
   -2.2902    0.6061    0.0000 C   0  0  0  0  0  0  0  0  0
   -1.7382    1.2192    0.0000 C   0  0  0  0  0  0  0  0  0
   -1.9931    2.0038    0.0000 F   0  0  0  0  0  0  0  0  0
   -0.9312    1.0477    0.0000 C   0  0  0  0  0  0  0  0  0
   -0.6763    0.2631    0.0000 C   0  0  0  0  0  0  0  0  0
    0.5257   -0.9771    0.0000 C   0  0  0  0  0  0  0  0  0
    1.2402   -1.3896    0.0000 C   0  0  0  0  0  0  0  0  0
  1  2  1  0  0  0  0
  2  3  4  0  0  0  0
  2 31  4  0  0  0  0
  3  4  4  0  0  0  0
  4  5  4  0  0  0  0
  4  8  4  0  0  0  0
  5  6  4  0  0  0  0
  5 30  4  0  0  0  0
  6  7  4  0  0  0  0
  6 23  1  0  0  0  0
  7  8  4  0  0  0  0
  8  9  1  0  0  0  0
  9 10  1  0  0  0  0
  9 14  1  0  0  0  0
 10 11  1  0  0  0  0
 11 12  1  0  0  0  0
 12 13  1  0  0  0  0
 12 15  1  0  0  0  0
 13 14  1  0  0  0  0
 15 16  1  0  0  0  0
 16 17  1  0  0  0  0
 17 18  1  0  0  0  0
 17 21  1  0  0  0  0
 18 19  1  0  0  0  0
 19 20  1  0  0  0  0
 20 21  1  0  0  0  0
 21 22  2  0  0  0  0
 23 24  4  0  0  0  0
 23 29  4  0  0  0  0
 24 25  4  0  0  0  0
 25 26  4  0  0  0  0
 26 27  1  0  0  0  0
 26 28  4  0  0  0  0
 28 29  4  0  0  0  0
 30 31  4  0  0  0  0
M  END
>  <Name_Molregno>
SERTINDOLE

>  <5-HT1A>
6.36

>  <5-HT1B>
7.22

>  <5-HT1D>
7.36

>  <5-HT1E>
6.37

>  <5-HT2A>
9.49

>  <5-HT2C>
8.64

>  <5-HT6>
8.27

>  <5-HT7>
7.55

>  <Alpha-1A>
8.74

>  <Alpha-2A>
6.19

>  <Alpha-2B>
6.35

>  <Alpha-2C>
6.35

>  <Beta-1>
5.3

>  <Beta-2>
5.3

>  <DOPAMINE D2>
8.54

>  <DOPAMINE D3>
8.35

>  <DOPAMINE D4>
8.2

>  <HISTAMINE H1>
6.76

>  <Muscarinic acetylcholine receptor M3>
5.57

>  <Serotonin transporter>
6

$$$$
SPIROXATRINE
  Marvin  02231216192D 0   1.00000     0.00000     0

 28 32  0  0  1  0  0  0  0  0999 V2000
    0.6932    2.0959    0.0000 O   0  0  0  0  0  0  0  0  0
    1.1057    2.8104    0.0000 C   0  0  0  0  0  0  0  0  0
    0.6932    3.5248    0.0000 C   0  0  0  0  0  0  0  0  0
   -0.1318    3.5248    0.0000 O   0  0  0  0  0  0  0  0  0
   -0.5443    2.8104    0.0000 C   0  0  0  0  0  0  0  0  0
   -0.1318    2.0959    0.0000 C   0  0  0  0  0  0  0  0  0
   -0.5443    1.3814    0.0000 C   0  0  0  0  0  0  0  0  0
   -1.3693    1.3814    0.0000 N   0  0  0  0  0  0  0  0  0
   -1.7818    0.6670    0.0000 C   0  0  0  0  0  0  0  0  0
   -2.6068    0.6670    0.0000 C   0  0  0  0  0  0  0  0  0
   -3.0193    1.3814    0.0000 C   0  0  0  0  0  0  0  0  0
   -3.5043    0.7140    0.0000 N   0  0  0  0  0  0  0  0  0
   -4.2889    0.9689    0.0000 C   0  0  0  0  0  0  0  0  0
   -4.2889    1.7939    0.0000 N   0  0  0  0  0  0  0  0  0
   -3.5043    2.0489    0.0000 C   0  0  0  0  0  0  0  0  0
   -3.2493    2.8335    0.0000 O   0  0  0  0  0  0  0  0  0
   -3.2493   -0.0706    0.0000 C   0  0  0  0  0  0  0  0  0
   -2.4424   -0.2422    0.0000 C   0  0  0  0  0  0  0  0  0
   -2.1874   -1.0268    0.0000 C   0  0  0  0  0  0  0  0  0
   -2.7395   -1.6399    0.0000 C   0  0  0  0  0  0  0  0  0
   -3.5464   -1.4684    0.0000 C   0  0  0  0  0  0  0  0  0
   -3.8014   -0.6837    0.0000 C   0  0  0  0  0  0  0  0  0
   -2.6068    2.0959    0.0000 C   0  0  0  0  0  0  0  0  0
   -1.7818    2.0959    0.0000 C   0  0  0  0  0  0  0  0  0
    1.1057    4.2393    0.0000 C   0  0  0  0  0  0  0  0  0
    1.9307    4.2393    0.0000 C   0  0  0  0  0  0  0  0  0
    2.3432    3.5248    0.0000 C   0  0  0  0  0  0  0  0  0
    1.9307    2.8104    0.0000 C   0  0  0  0  0  0  0  0  0
  1  2  1  0  0  0  0
  1  6  1  0  0  0  0
  2  3  4  0  0  0  0
  2 28  4  0  0  0  0
  3  4  1  0  0  0  0
  3 25  4  0  0  0  0
  4  5  1  0  0  0  0
  5  6  1  0  0  0  0
  6  7  1  0  0  0  0
  7  8  1  0  0  0  0
  8  9  1  0  0  0  0
  8 24  1  0  0  0  0
  9 10  1  0  0  0  0
 10 11  1  0  0  0  0
 11 12  1  0  0  0  0
 11 15  1  0  0  0  0
 11 23  1  0  0  0  0
 12 13  1  0  0  0  0
 12 17  1  0  0  0  0
 13 14  1  0  0  0  0
 14 15  1  0  0  0  0
 15 16  2  0  0  0  0
 17 18  4  0  0  0  0
 17 22  4  0  0  0  0
 18 19  4  0  0  0  0
 19 20  4  0  0  0  0
 20 21  4  0  0  0  0
 21 22  4  0  0  0  0
 23 24  1  0  0  0  0
 25 26  4  0  0  0  0
 26 27  4  0  0  0  0
 27 28  4  0  0  0  0
M  END
>  <Name_Molregno>
SPIROXATRINE

>  <5-HT1A>
8.67

>  <Alpha-2A>
7.69

>  <Alpha-2B>
9.09

>  <Alpha-2C>
9.42

$$$$
SR46349B
  Marvin  02231216192D 0   1.00000     0.00000     0

 24 25  0  0  0  0  0  0  0  0999 V2000
   -0.7835    2.8630    0.0000 F   0  0  0  0  0  0  0  0  0
   -0.0691    3.2755    0.0000 C   0  0  0  0  0  0  0  0  0
   -0.0691    4.1005    0.0000 C   0  0  0  0  0  0  0  0  0
    0.6454    4.5130    0.0000 C   0  0  0  0  0  0  0  0  0
    1.3599    4.1005    0.0000 C   0  0  0  0  0  0  0  0  0
    1.3599    3.2755    0.0000 C   0  0  0  0  0  0  0  0  0
    0.6454    2.8630    0.0000 C   0  0  0  0  0  0  0  0  0
    0.6454    2.0380    0.0000 C   0  0  0  0  0  0  0  0  0
    1.3599    1.6255    0.0000 N   0  0  0  0  0  0  0  0  0
    2.0743    2.0380    0.0000 O   0  0  0  0  0  0  0  0  0
    2.7888    1.6255    0.0000 C   0  0  0  0  0  0  0  0  0
    3.5033    2.0380    0.0000 C   0  0  0  0  0  0  0  0  0
    4.2177    1.6255    0.0000 N   0  0  0  0  0  0  0  0  0
    4.9322    2.0380    0.0000 C   0  0  0  0  0  0  0  0  0
    4.2177    0.8005    0.0000 C   0  0  0  0  0  0  0  0  0
   -0.0691    1.6255    0.0000 C   0  0  0  0  0  0  0  0  0
   -0.0691    0.8005    0.0000 C   0  0  0  0  0  0  0  0  0
   -0.7835    0.3880    0.0000 C   0  0  0  0  0  0  0  0  0
   -0.7835   -0.4370    0.0000 C   0  0  0  0  0  0  0  0  0
   -1.4980   -0.8495    0.0000 C   0  0  0  0  0  0  0  0  0
   -2.2125   -0.4370    0.0000 C   0  0  0  0  0  0  0  0  0
   -2.9270   -0.8495    0.0000 O   0  0  0  0  0  0  0  0  0
   -2.2125    0.3880    0.0000 C   0  0  0  0  0  0  0  0  0
   -1.4980    0.8005    0.0000 C   0  0  0  0  0  0  0  0  0
  1  2  1  0  0  0  0
  2  3  4  0  0  0  0
  2  7  4  0  0  0  0
  3  4  4  0  0  0  0
  4  5  4  0  0  0  0
  5  6  4  0  0  0  0
  6  7  4  0  0  0  0
  7  8  1  0  0  0  0
  8  9  1  0  0  0  0
  8 16  2  0  0  0  0
  9 10  1  0  0  0  0
 10 11  1  0  0  0  0
 11 12  1  0  0  0  0
 12 13  1  0  0  0  0
 13 14  1  0  0  0  0
 13 15  1  0  0  0  0
 16 17  1  0  0  0  0
 17 18  2  0  0  0  0
 18 19  1  0  0  0  0
 18 24  1  0  0  0  0
 19 20  2  0  0  0  0
 20 21  1  0  0  0  0
 21 22  2  0  0  0  0
 21 23  1  0  0  0  0
 23 24  2  0  0  0  0
M  END
>  <Name_Molregno>
SR46349B

>  <5-HT1A>
5.6

>  <5-HT2A>
9

>  <5-HT2C>
8.09

>  <5-HT5>
5.76

>  <5-HT6>
5.41

>  <Alpha-2A>
6.14

>  <Alpha-2C>
5.67

>  <DOPAMINE D1>
5

>  <Dopamine transporter>
5.25

>  <Muscarinic acetylcholine receptor M1>
6.14

>  <Muscarinic acetylcholine receptor M2>
5

>  <Muscarinic acetylcholine receptor M3>
5.62

>  <Muscarinic acetylcholine receptor M4>
5.44

>  <Muscarinic acetylcholine receptor M5>
5.52

>  <Norepinephrine transporter>
6.13

$$$$
TERGURIDE
  Marvin  02231216192D 0   1.00000     0.00000     0

 25 28  0  0  1  0  0  0  0  0999 V2000
   -0.3965   -3.1617    0.0000 O   0  0  0  0  0  0  0  0  0
    0.3175   -3.5751    0.0000 C   0  0  0  0  0  0  0  0  0
    1.0325   -3.1634    0.0000 N   0  0  0  0  0  0  0  0  0
    1.0334   -2.3384    0.0000 C   0  0  0  0  0  0  0  0  0
    1.7484   -1.9268    0.0000 C   0  0  0  0  0  0  0  0  0
    1.7494   -1.1018    0.0000 C   0  0  0  0  0  0  0  0  0
    1.0354   -0.6884    0.0000 C   0  0  0  0  0  0  0  0  0
    0.3205   -1.1001    0.0000 N   0  0  0  0  0  0  0  0  0
    0.3195   -1.9251    0.0000 C   0  0  0  0  0  0  0  0  0
   -0.3935   -0.6867    0.0000 C   0  0  0  0  0  0  0  0  0
    1.0369    0.1357    0.0000 C   0  0  0  0  0  0  0  0  0
    1.7494    0.5482    0.0000 C   0  0  0  0  0  0  0  0  0
    2.4619    0.1357    0.0000 C   0  0  0  0  0  0  0  0  0
    2.4619   -0.6893    0.0000 C   0  0  0  0  0  0  0  0  0
    3.1798   -1.1018    0.0000 C   0  0  0  0  0  0  0  0  0
    3.8923   -0.6893    0.0000 C   0  0  0  0  0  0  0  0  0
    3.8923    0.1357    0.0000 C   0  0  0  0  0  0  0  0  0
    3.1798    0.5482    0.0000 C   0  0  0  0  0  0  0  0  0
    2.8744    1.4054    0.0000 N   0  0  0  0  0  0  0  0  0
    2.0494    1.4054    0.0000 C   0  0  0  0  0  0  0  0  0
    0.3165   -4.4001    0.0000 N   0  0  0  0  0  0  0  0  0
   -0.3985   -4.8117    0.0000 C   0  0  0  0  0  0  0  0  0
   -0.3994   -5.6367    0.0000 C   0  0  0  0  0  0  0  0  0
    1.0305   -4.8134    0.0000 C   0  0  0  0  0  0  0  0  0
    1.0295   -5.6384    0.0000 C   0  0  0  0  0  0  0  0  0
  1  2  2  0  0  0  0
  2  3  1  0  0  0  0
  2 21  1  0  0  0  0
  3  4  1  0  0  0  0
  4  5  1  0  0  0  0
  4  9  1  0  0  0  0
  5  6  1  0  0  0  0
  6  7  1  0  0  0  0
  6 14  1  0  0  0  0
  7  8  1  0  0  0  0
  7 11  1  0  0  0  0
  8  9  1  0  0  0  0
  8 10  1  0  0  0  0
 11 12  1  0  0  0  0
 12 13  4  0  0  0  0
 12 20  4  0  0  0  0
 13 14  4  0  0  0  0
 13 18  4  0  0  0  0
 14 15  4  0  0  0  0
 15 16  4  0  0  0  0
 16 17  4  0  0  0  0
 17 18  4  0  0  0  0
 18 19  4  0  0  0  0
 19 20  4  0  0  0  0
 21 22  1  0  0  0  0
 21 24  1  0  0  0  0
 22 23  1  0  0  0  0
 24 25  1  0  0  0  0
M  STY  1   1 DAT
M  SAL   1  1  19
M  SDT   1 MRV_IMPLICIT_H                                        
M  SDD   1     0.0000    0.0000    DR    ALL  0       0  
M  SED   1 IMPL_H1
M  END
>  <Name_Molregno>
TERGURIDE

>  <5-HT1A>
8.46

>  <5-HT1B>
6.59

>  <5-HT1D>
7.79

>  <5-HT2A>
8.32

>  <5-HT2C>
7.32

>  <Alpha-1A>
8.45

>  <Alpha-1B>
7.46

>  <Alpha-2A>
9.53

>  <Alpha-2B>
9.35

>  <Alpha-2C>
9.12

>  <Beta-1>
6.18

>  <Beta-2>
7.7

>  <DOPAMINE D1>
7.55

>  <DOPAMINE D2>
9.06

>  <DOPAMINE D3>
9

>  <DOPAMINE D4>
8.18

>  <DOPAMINE D5>
7.63

$$$$
THIORIDAZINE
  Marvin  02231216192D 0   1.00000     0.00000     0

 25 28  0  0  1  0  0  0  0  0999 V2000
    1.0601   -0.3753    0.0000 S   0  0  0  0  0  0  0  0  0
    1.7746    0.0372    0.0000 C   0  0  0  0  0  0  0  0  0
    1.7746    0.8622    0.0000 C   0  0  0  0  0  0  0  0  0
    1.0601    1.2747    0.0000 N   0  0  0  0  0  0  0  0  0
    0.3456    0.8622    0.0000 C   0  0  0  0  0  0  0  0  0
    0.3456    0.0372    0.0000 C   0  0  0  0  0  0  0  0  0
   -0.3689   -0.3753    0.0000 C   0  0  0  0  0  0  0  0  0
   -1.0833    0.0372    0.0000 C   0  0  0  0  0  0  0  0  0
   -1.0833    0.8622    0.0000 C   0  0  0  0  0  0  0  0  0
   -0.3689    1.2747    0.0000 C   0  0  0  0  0  0  0  0  0
    1.0601    2.0997    0.0000 C   0  0  0  0  0  0  0  0  0
    0.3456    2.5122    0.0000 C   0  0  0  0  0  0  0  0  0
    0.3456    3.3372    0.0000 C   0  0  0  0  0  0  0  0  0
   -0.3689    3.7497    0.0000 N   0  0  0  0  0  0  0  0  0
   -0.3689    4.5747    0.0000 C   0  0  0  0  0  0  0  0  0
    0.3456    4.9872    0.0000 C   0  0  0  0  0  0  0  0  0
    1.0601    4.5747    0.0000 C   0  0  0  0  0  0  0  0  0
    1.0601    3.7497    0.0000 C   0  0  0  0  0  0  0  0  0
   -1.0833    3.3372    0.0000 C   0  0  0  0  0  0  0  0  0
    2.4890    1.2747    0.0000 C   0  0  0  0  0  0  0  0  0
    3.2035    0.8622    0.0000 C   0  0  0  0  0  0  0  0  0
    3.9180    1.2747    0.0000 S   0  0  0  0  0  0  0  0  0
    3.9180    2.0997    0.0000 C   0  0  0  0  0  0  0  0  0
    3.2035    0.0372    0.0000 C   0  0  0  0  0  0  0  0  0
    2.4890   -0.3753    0.0000 C   0  0  0  0  0  0  0  0  0
  1  2  1  0  0  0  0
  1  6  1  0  0  0  0
  2  3  4  0  0  0  0
  2 25  4  0  0  0  0
  3  4  1  0  0  0  0
  3 20  4  0  0  0  0
  4  5  1  0  0  0  0
  4 11  1  0  0  0  0
  5  6  4  0  0  0  0
  5 10  4  0  0  0  0
  6  7  4  0  0  0  0
  7  8  4  0  0  0  0
  8  9  4  0  0  0  0
  9 10  4  0  0  0  0
 11 12  1  0  0  0  0
 12 13  1  0  0  0  0
 13 14  1  0  0  0  0
 13 18  1  0  0  0  0
 14 15  1  0  0  0  0
 14 19  1  0  0  0  0
 15 16  1  0  0  0  0
 16 17  1  0  0  0  0
 17 18  1  0  0  0  0
 20 21  4  0  0  0  0
 21 22  1  0  0  0  0
 21 24  4  0  0  0  0
 22 23  1  0  0  0  0
 24 25  4  0  0  0  0
M  END
>  <Name_Molregno>
THIORIDAZINE

>  <5-HT1A>
6.85

>  <5-HT1B>
6.96

>  <5-HT1D>
6.24

>  <5-HT1E>
6.71

>  <5-HT2A>
7.95

>  <5-HT2C>
7.28

>  <5-HT3>
5

>  <5-HT5>
6.44

>  <5-HT6>
7.24

>  <5-HT7>
7.05

>  <Alpha-1A>
8.6

>  <Alpha-1B>
8.62

>  <Alpha-2A>
6.87

>  <Alpha-2B>
6.47

>  <Alpha-2C>
7.13

>  <Beta-1>
5

>  <Beta-2>
5

>  <DOPAMINE D1>
7.03

>  <DOPAMINE D2>
8.31

>  <DOPAMINE D3>
8.59

>  <DOPAMINE D4>
8.21

>  <DOPAMINE D5>
6.6

>  <Dopamine transporter>
5.77

>  <HISTAMINE H1>
7.79

>  <HISTAMINE H2>
6.87

>  <HISTAMINE H4>
5.62

>  <Muscarinic acetylcholine receptor M1>
8.21

>  <Muscarinic acetylcholine receptor M2>
7.26

>  <Muscarinic acetylcholine receptor M3>
7.6

>  <Muscarinic acetylcholine receptor M4>
7.38

>  <Muscarinic acetylcholine receptor M5>
7.9

>  <Norepinephrine transporter>
6.07

>  <Serotonin transporter>
5.9

$$$$
TOLAZOLINE
  Marvin  02231216192D 0   1.00000     0.00000     0

 12 13  0  0  0  0  0  0  0  0999 V2000
    1.5604   -1.6758    0.0000 N   0  0  0  0  0  0  0  0  0
    1.3055   -2.4604    0.0000 C   0  0  0  0  0  0  0  0  0
    0.4805   -2.4604    0.0000 C   0  0  0  0  0  0  0  0  0
    0.2255   -1.6758    0.0000 N   0  0  0  0  0  0  0  0  0
    0.8930   -1.1908    0.0000 C   0  0  0  0  0  0  0  0  0
    0.8930   -0.3658    0.0000 C   0  0  0  0  0  0  0  0  0
    1.6075    0.0467    0.0000 C   0  0  0  0  0  0  0  0  0
    1.6075    0.8717    0.0000 C   0  0  0  0  0  0  0  0  0
    2.3219    1.2842    0.0000 C   0  0  0  0  0  0  0  0  0
    3.0364    0.8717    0.0000 C   0  0  0  0  0  0  0  0  0
    3.0364    0.0467    0.0000 C   0  0  0  0  0  0  0  0  0
    2.3219   -0.3658    0.0000 C   0  0  0  0  0  0  0  0  0
  1  2  1  0  0  0  0
  1  5  1  0  0  0  0
  2  3  1  0  0  0  0
  3  4  1  0  0  0  0
  4  5  2  0  0  0  0
  5  6  1  0  0  0  0
  6  7  1  0  0  0  0
  7  8  4  0  0  0  0
  7 12  4  0  0  0  0
  8  9  4  0  0  0  0
  9 10  4  0  0  0  0
 10 11  4  0  0  0  0
 11 12  4  0  0  0  0
M  END
>  <Name_Molregno>
TOLAZOLINE

>  <5-HT1B>
5

>  <5-HT1D>
5

>  <Alpha-2A>
6.64

>  <Alpha-2B>
5.5

>  <Alpha-2C>
5.43

$$$$
Tramazoline
  Marvin  02231216192D 0   1.00000     0.00000     0

 16 18  0  0  0  0  0  0  0  0999 V2000
   -0.0340    0.0312    0.0000 N   0  0  0  0  0  0  0  0  0
   -0.5860    0.6443    0.0000 C   0  0  0  0  0  0  0  0  0
   -0.1735    1.3588    0.0000 C   0  0  0  0  0  0  0  0  0
    0.6335    1.1872    0.0000 N   0  0  0  0  0  0  0  0  0
    0.7197    0.3668    0.0000 C   0  0  0  0  0  0  0  0  0
    1.4342   -0.0457    0.0000 N   0  0  0  0  0  0  0  0  0
    1.4342   -0.8707    0.0000 C   0  0  0  0  0  0  0  0  0
    2.1486   -1.2832    0.0000 C   0  0  0  0  0  0  0  0  0
    2.8631   -0.8707    0.0000 C   0  0  0  0  0  0  0  0  0
    3.5776   -1.2832    0.0000 C   0  0  0  0  0  0  0  0  0
    3.5776   -2.1082    0.0000 C   0  0  0  0  0  0  0  0  0
    2.8631   -2.5207    0.0000 C   0  0  0  0  0  0  0  0  0
    2.1486   -2.1082    0.0000 C   0  0  0  0  0  0  0  0  0
    1.4342   -2.5207    0.0000 C   0  0  0  0  0  0  0  0  0
    0.7197   -2.1082    0.0000 C   0  0  0  0  0  0  0  0  0
    0.7197   -1.2832    0.0000 C   0  0  0  0  0  0  0  0  0
  1  2  1  0  0  0  0
  1  5  1  0  0  0  0
  2  3  1  0  0  0  0
  3  4  1  0  0  0  0
  4  5  2  0  0  0  0
  5  6  1  0  0  0  0
  6  7  1  0  0  0  0
  7  8  4  0  0  0  0
  7 16  4  0  0  0  0
  8  9  1  0  0  0  0
  8 13  4  0  0  0  0
  9 10  1  0  0  0  0
 10 11  1  0  0  0  0
 11 12  1  0  0  0  0
 12 13  1  0  0  0  0
 13 14  4  0  0  0  0
 14 15  4  0  0  0  0
 15 16  4  0  0  0  0
M  END
>  <Name_Molregno>
Tramazoline

>  <Alpha-2A>
7.5

>  <Alpha-2B>
6.86

>  <Alpha-2C>
6.56

$$$$
TRAZODONE
  Marvin  02231216192D 0   1.00000     0.00000     0

 26 29  0  0  0  0  0  0  0  0999 V2000
    0.6158   -2.7707    0.0000 Cl  0  0  0  0  0  0  0  0  0
    1.4408   -2.7707    0.0000 C   0  0  0  0  0  0  0  0  0
    1.8533   -2.0563    0.0000 C   0  0  0  0  0  0  0  0  0
    2.6783   -2.0563    0.0000 C   0  0  0  0  0  0  0  0  0
    3.0908   -1.3418    0.0000 N   0  0  0  0  0  0  0  0  0
    2.6783   -0.6273    0.0000 C   0  0  0  0  0  0  0  0  0
    3.0908    0.0872    0.0000 C   0  0  0  0  0  0  0  0  0
    3.9158    0.0872    0.0000 N   0  0  0  0  0  0  0  0  0
    4.3283   -0.6273    0.0000 C   0  0  0  0  0  0  0  0  0
    3.9158   -1.3418    0.0000 C   0  0  0  0  0  0  0  0  0
    4.3283    0.8016    0.0000 C   0  0  0  0  0  0  0  0  0
    5.1533    0.8016    0.0000 C   0  0  0  0  0  0  0  0  0
    5.5658    1.5161    0.0000 C   0  0  0  0  0  0  0  0  0
    6.3908    1.5161    0.0000 N   0  0  0  0  0  0  0  0  0
    6.8757    0.8487    0.0000 N   0  0  0  0  0  0  0  0  0
    7.6604    1.1036    0.0000 C   0  0  0  0  0  0  0  0  0
    7.6604    1.9286    0.0000 N   0  0  0  0  0  0  0  0  0
    8.3748    2.3411    0.0000 C   0  0  0  0  0  0  0  0  0
    9.0893    1.9286    0.0000 C   0  0  0  0  0  0  0  0  0
    9.0893    1.1036    0.0000 C   0  0  0  0  0  0  0  0  0
    8.3748    0.6911    0.0000 C   0  0  0  0  0  0  0  0  0
    6.8757    2.1835    0.0000 C   0  0  0  0  0  0  0  0  0
    6.6208    2.9682    0.0000 O   0  0  0  0  0  0  0  0  0
    3.0908   -2.7707    0.0000 C   0  0  0  0  0  0  0  0  0
    2.6783   -3.4852    0.0000 C   0  0  0  0  0  0  0  0  0
    1.8533   -3.4852    0.0000 C   0  0  0  0  0  0  0  0  0
  1  2  1  0  0  0  0
  2  3  4  0  0  0  0
  2 26  4  0  0  0  0
  3  4  4  0  0  0  0
  4  5  1  0  0  0  0
  4 24  4  0  0  0  0
  5  6  1  0  0  0  0
  5 10  1  0  0  0  0
  6  7  1  0  0  0  0
  7  8  1  0  0  0  0
  8  9  1  0  0  0  0
  8 11  1  0  0  0  0
  9 10  1  0  0  0  0
 11 12  1  0  0  0  0
 12 13  1  0  0  0  0
 13 14  1  0  0  0  0
 14 15  1  0  0  0  0
 14 22  1  0  0  0  0
 15 16  2  0  0  0  0
 16 17  1  0  0  0  0
 16 21  1  0  0  0  0
 17 18  1  0  0  0  0
 17 22  1  0  0  0  0
 18 19  2  0  0  0  0
 19 20  1  0  0  0  0
 20 21  2  0  0  0  0
 22 23  2  0  0  0  0
 24 25  4  0  0  0  0
 25 26  4  0  0  0  0
M  END
>  <Name_Molregno>
TRAZODONE

>  <5-HT1A>
6.97

>  <5-HT1B>
5

>  <5-HT1D>
6.97

>  <5-HT1E>
5

>  <5-HT2A>
7.46

>  <5-HT2C>
6.65

>  <5-HT3>
5

>  <5-HT5>
5

>  <5-HT6>
5

>  <5-HT7>
5.75

>  <Alpha-1A>
6.82

>  <Alpha-2A>
6.14

>  <Alpha-2C>
6.81

>  <Beta-1>
5

>  <Beta-2>
5

>  <DOPAMINE D1>
5.43

>  <DOPAMINE D2>
5.42

>  <DOPAMINE D4>
6.15

>  <DOPAMINE D5>
5

>  <Dopamine transporter>
5.07

>  <HISTAMINE H1>
6.31

>  <HISTAMINE H2>
5.48

>  <HISTAMINE H4>
5

>  <Muscarinic acetylcholine receptor M1>
5

>  <Muscarinic acetylcholine receptor M2>
5

>  <Muscarinic acetylcholine receptor M3>
5

>  <Muscarinic acetylcholine receptor M4>
5

>  <Muscarinic acetylcholine receptor M5>
5

>  <Norepinephrine transporter>
5.02

>  <Serotonin transporter>
6.14

$$$$
TRIFLUOPERAZINE
  Marvin  02231216192D 0   1.00000     0.00000     0

 28 31  0  0  0  0  0  0  0  0999 V2000
   -1.0248   -3.8592    0.0000 S   0  0  0  0  0  0  0  0  0
   -0.3103   -3.4467    0.0000 C   0  0  0  0  0  0  0  0  0
   -0.3103   -2.6217    0.0000 C   0  0  0  0  0  0  0  0  0
   -1.0248   -2.2092    0.0000 N   0  0  0  0  0  0  0  0  0
   -1.7393   -2.6217    0.0000 C   0  0  0  0  0  0  0  0  0
   -1.7393   -3.4467    0.0000 C   0  0  0  0  0  0  0  0  0
   -2.4538   -3.8592    0.0000 C   0  0  0  0  0  0  0  0  0
   -3.1682   -3.4467    0.0000 C   0  0  0  0  0  0  0  0  0
   -3.1682   -2.6217    0.0000 C   0  0  0  0  0  0  0  0  0
   -2.4538   -2.2092    0.0000 C   0  0  0  0  0  0  0  0  0
   -1.0248   -1.3842    0.0000 C   0  0  0  0  0  0  0  0  0
   -1.7393   -0.9717    0.0000 C   0  0  0  0  0  0  0  0  0
   -1.7393   -0.1467    0.0000 C   0  0  0  0  0  0  0  0  0
   -2.4538    0.2658    0.0000 N   0  0  0  0  0  0  0  0  0
   -3.1682   -0.1467    0.0000 C   0  0  0  0  0  0  0  0  0
   -3.8827    0.2658    0.0000 C   0  0  0  0  0  0  0  0  0
   -3.8827    1.0908    0.0000 N   0  0  0  0  0  0  0  0  0
   -3.1682    1.5033    0.0000 C   0  0  0  0  0  0  0  0  0
   -2.4538    1.0908    0.0000 C   0  0  0  0  0  0  0  0  0
   -4.5972    1.5033    0.0000 C   0  0  0  0  0  0  0  0  0
    0.4041   -2.2092    0.0000 C   0  0  0  0  0  0  0  0  0
    1.1186   -2.6217    0.0000 C   0  0  0  0  0  0  0  0  0
    1.1186   -3.4467    0.0000 C   0  0  0  0  0  0  0  0  0
    0.4041   -3.8592    0.0000 C   0  0  0  0  0  0  0  0  0
    1.8331   -2.2092    0.0000 C   0  0  0  0  0  0  0  0  0
    2.5475   -1.7967    0.0000 F   0  0  0  0  0  0  0  0  0
    2.2456   -2.9236    0.0000 F   0  0  0  0  0  0  0  0  0
    1.4206   -1.4947    0.0000 F   0  0  0  0  0  0  0  0  0
  1  2  1  0  0  0  0
  1  6  1  0  0  0  0
  2  3  4  0  0  0  0
  2 24  4  0  0  0  0
  3  4  1  0  0  0  0
  3 21  4  0  0  0  0
  4  5  1  0  0  0  0
  4 11  1  0  0  0  0
  5  6  4  0  0  0  0
  5 10  4  0  0  0  0
  6  7  4  0  0  0  0
  7  8  4  0  0  0  0
  8  9  4  0  0  0  0
  9 10  4  0  0  0  0
 11 12  1  0  0  0  0
 12 13  1  0  0  0  0
 13 14  1  0  0  0  0
 14 15  1  0  0  0  0
 14 19  1  0  0  0  0
 15 16  1  0  0  0  0
 16 17  1  0  0  0  0
 17 18  1  0  0  0  0
 17 20  1  0  0  0  0
 18 19  1  0  0  0  0
 21 22  4  0  0  0  0
 22 23  4  0  0  0  0
 22 25  1  0  0  0  0
 23 24  4  0  0  0  0
 25 26  1  0  0  0  0
 25 27  1  0  0  0  0
 25 28  1  0  0  0  0
M  END
>  <Name_Molregno>
TRIFLUOPERAZINE

>  <5-HT1A>
6.02

>  <5-HT2A>
7.78

>  <5-HT2C>
6.42

>  <5-HT6>
6.85

>  <5-HT7>
6.54

>  <Alpha-1A>
7.62

>  <Alpha-2A>
6.18

>  <Alpha-2B>
6.79

>  <Alpha-2C>
6.41

>  <DOPAMINE D2>
8.75

>  <DOPAMINE D3>
9.22

>  <DOPAMINE D4>
7.24

>  <HISTAMINE H1>
7.2

>  <Muscarinic acetylcholine receptor M3>
6

$$$$
VALDECOXIB
  Marvin  02231216192D 0   1.00000     0.00000     0

 22 24  0  0  0  0  0  0  0  0999 V2000
   -2.8104    3.0816    0.0000 S   0  0  0  0  0  0  0  0  0
   -2.8104    3.9066    0.0000 O   0  0  0  0  0  0  0  0  0
   -3.6354    3.0816    0.0000 O   0  0  0  0  0  0  0  0  0
   -1.9854    3.0816    0.0000 N   0  0  0  0  0  0  0  0  0
   -2.8104    2.2566    0.0000 C   0  0  0  0  0  0  0  0  0
   -2.0959    1.8441    0.0000 C   0  0  0  0  0  0  0  0  0
   -2.0959    1.0191    0.0000 C   0  0  0  0  0  0  0  0  0
   -2.8104    0.6066    0.0000 C   0  0  0  0  0  0  0  0  0
   -3.5249    1.0191    0.0000 C   0  0  0  0  0  0  0  0  0
   -3.5249    1.8441    0.0000 C   0  0  0  0  0  0  0  0  0
   -2.8104   -0.2184    0.0000 C   0  0  0  0  0  0  0  0  0
   -2.1430   -0.7033    0.0000 C   0  0  0  0  0  0  0  0  0
   -2.3979   -1.4879    0.0000 N   0  0  0  0  0  0  0  0  0
   -3.2229   -1.4879    0.0000 O   0  0  0  0  0  0  0  0  0
   -3.4778   -0.7033    0.0000 C   0  0  0  0  0  0  0  0  0
   -4.2625   -0.4483    0.0000 C   0  0  0  0  0  0  0  0  0
   -1.3583   -0.4483    0.0000 C   0  0  0  0  0  0  0  0  0
   -1.1868    0.3586    0.0000 C   0  0  0  0  0  0  0  0  0
   -0.4022    0.6136    0.0000 C   0  0  0  0  0  0  0  0  0
    0.2109    0.0615    0.0000 C   0  0  0  0  0  0  0  0  0
    0.0394   -0.7454    0.0000 C   0  0  0  0  0  0  0  0  0
   -0.7452   -1.0004    0.0000 C   0  0  0  0  0  0  0  0  0
  1  2  2  0  0  0  0
  1  3  2  0  0  0  0
  1  4  1  0  0  0  0
  1  5  1  0  0  0  0
  5  6  4  0  0  0  0
  5 10  4  0  0  0  0
  6  7  4  0  0  0  0
  7  8  4  0  0  0  0
  8  9  4  0  0  0  0
  8 11  1  0  0  0  0
  9 10  4  0  0  0  0
 11 12  4  0  0  0  0
 11 15  4  0  0  0  0
 12 13  4  0  0  0  0
 12 17  1  0  0  0  0
 13 14  4  0  0  0  0
 14 15  4  0  0  0  0
 15 16  1  0  0  0  0
 17 18  4  0  0  0  0
 17 22  4  0  0  0  0
 18 19  4  0  0  0  0
 19 20  4  0  0  0  0
 20 21  4  0  0  0  0
 21 22  4  0  0  0  0
M  END
>  <Name_Molregno>
VALDECOXIB

>  <5-HT1A>
5

>  <5-HT1B>
5

>  <5-HT1D>
5

>  <5-HT1E>
5

>  <5-HT2A>
5

>  <5-HT3>
5

>  <5-HT6>
5

>  <5-HT7>
5

>  <Alpha-1A>
5

>  <Alpha-1B>
5

>  <Alpha-2A>
5

>  <Alpha-2B>
5

>  <Alpha-2C>
5

>  <DOPAMINE D1>
5

>  <DOPAMINE D2>
5

>  <DOPAMINE D5>
5

>  <Dopamine transporter>
5

>  <HISTAMINE H1>
5

>  <HISTAMINE H2>
5

>  <Muscarinic acetylcholine receptor M2>
5

>  <Muscarinic acetylcholine receptor M5>
5

>  <Serotonin transporter>
5

$$$$
valeryl-salicylate
  Marvin  02231216192D 0   1.00000     0.00000     0

 16 16  0  0  0  0  0  0  0  0999 V2000
   -0.4431    0.9218    0.0000 O   0  0  0  0  0  0  0  0  0
    0.2714    1.3343    0.0000 C   0  0  0  0  0  0  0  0  0
    0.2714    2.1593    0.0000 O   0  0  0  0  0  0  0  0  0
    0.9859    0.9218    0.0000 C   0  0  0  0  0  0  0  0  0
    1.7003    1.3343    0.0000 C   0  0  0  0  0  0  0  0  0
    2.4148    0.9218    0.0000 C   0  0  0  0  0  0  0  0  0
    2.4148    0.0968    0.0000 C   0  0  0  0  0  0  0  0  0
   -0.4431    0.0968    0.0000 C   0  0  0  0  0  0  0  0  0
    0.2714   -0.3157    0.0000 C   0  0  0  0  0  0  0  0  0
    0.2714   -1.1407    0.0000 C   0  0  0  0  0  0  0  0  0
   -0.4431   -1.5532    0.0000 C   0  0  0  0  0  0  0  0  0
   -1.1576   -1.1407    0.0000 C   0  0  0  0  0  0  0  0  0
   -1.1576   -0.3157    0.0000 C   0  0  0  0  0  0  0  0  0
   -1.8720    0.0968    0.0000 C   0  0  0  0  0  0  0  0  0
   -2.5865   -0.3157    0.0000 O   0  0  0  0  0  0  0  0  0
   -1.8720    0.9218    0.0000 O   0  0  0  0  0  0  0  0  0
  1  2  1  0  0  0  0
  1  8  1  0  0  0  0
  2  3  2  0  0  0  0
  2  4  1  0  0  0  0
  4  5  1  0  0  0  0
  5  6  1  0  0  0  0
  6  7  1  0  0  0  0
  8  9  4  0  0  0  0
  8 13  4  0  0  0  0
  9 10  4  0  0  0  0
 10 11  4  0  0  0  0
 11 12  4  0  0  0  0
 12 13  4  0  0  0  0
 13 14  1  0  0  0  0
 14 15  1  0  0  0  0
 14 16  2  0  0  0  0
M  END
>  <Name_Molregno>
valeryl-salicylate

>  <5-HT1A>
5

>  <5-HT1B>
5

>  <5-HT1D>
5

>  <5-HT1E>
5

>  <5-HT2A>
5

>  <5-HT3>
5

>  <5-HT5>
5

>  <5-HT6>
5

>  <5-HT7>
5

>  <Alpha-1A>
5

>  <Alpha-1B>
5

>  <Alpha-2A>
5

>  <Alpha-2B>
5

>  <Alpha-2C>
5

>  <DOPAMINE D1>
5

>  <DOPAMINE D2>
5

>  <DOPAMINE D4>
5

>  <DOPAMINE D5>
5

>  <HISTAMINE H1>
5

>  <HISTAMINE H2>
5

>  <HISTAMINE H4>
5

>  <Muscarinic acetylcholine receptor M2>
5

>  <Muscarinic acetylcholine receptor M5>
5

$$$$
VANCOMYCIN
  Marvin  02231216192D 0   1.00000     0.00000     0

101110  0  0  1  0  0  0  0  0999 V2000
   -3.2931    0.1576    0.0000 Cl  0  0  0  0  0  0  0  0  0
   -4.1052    0.0123    0.0000 C   0  0  0  0  0  0  0  0  0
   -4.6279    0.6619    0.0000 C   0  0  0  0  0  0  0  0  0
   -4.0505    1.3007    0.0000 O   0  0  0  0  0  0  0  0  0
   -3.2853    1.6902    0.0000 C   0  0  0  0  0  0  0  0  0
   -2.7686    1.0308    0.0000 C   0  0  0  0  0  0  0  0  0
   -1.9345    1.0853    0.0000 C   0  0  0  0  0  0  0  0  0
   -1.4775    0.3648    0.0000 C   0  0  0  0  0  0  0  0  0
   -1.6592   -0.4584    0.0000 N   0  0  0  0  0  0  0  0  0
   -1.5701   -1.2925    0.0000 C   0  0  0  0  0  0  0  0  0
   -0.7621   -1.4594    0.0000 O   0  0  0  0  0  0  0  0  0
   -1.9810   -2.0200    0.0000 C   0  0  0  0  0  0  0  0  0
   -2.7102   -2.4268    0.0000 N   0  0  0  0  0  0  0  0  0
   -3.5440   -2.5246    0.0000 C   0  0  0  0  0  0  0  0  0
   -3.5877   -3.3484    0.0000 O   0  0  0  0  0  0  0  0  0
   -4.3681   -2.3378    0.0000 C   0  0  0  0  0  0  0  0  0
   -4.7371   -3.0757    0.0000 N   0  0  0  0  0  0  0  0  0
   -5.5606   -3.1251    0.0000 C   0  0  0  0  0  0  0  0  0
   -6.0152   -2.4366    0.0000 O   0  0  0  0  0  0  0  0  0
   -5.9296   -3.8630    0.0000 C   0  0  0  0  0  0  0  0  0
   -5.4750   -4.5515    0.0000 N   0  0  0  0  0  0  0  0  0
   -5.8440   -5.2894    0.0000 C   0  0  0  0  0  0  0  0  0
   -6.7531   -3.9124    0.0000 C   0  0  0  0  0  0  0  0  0
   -7.1221   -4.6503    0.0000 C   0  0  0  0  0  0  0  0  0
   -6.6675   -5.3388    0.0000 C   0  0  0  0  0  0  0  0  0
   -7.9456   -4.6997    0.0000 C   0  0  0  0  0  0  0  0  0
   -5.0128   -1.7898    0.0000 C   0  0  0  0  0  0  0  0  0
   -5.7223   -2.2108    0.0000 O   0  0  0  0  0  0  0  0  0
   -5.1861   -0.9562    0.0000 C   0  0  0  0  0  0  0  0  0
   -4.3671   -0.7695    0.0000 C   0  0  0  0  0  0  0  0  0
   -5.7297   -0.3134    0.0000 C   0  0  0  0  0  0  0  0  0
   -5.4561    0.4814    0.0000 C   0  0  0  0  0  0  0  0  0
   -1.3992   -2.6049    0.0000 C   0  0  0  0  0  0  0  0  0
   -0.6017   -2.3935    0.0000 C   0  0  0  0  0  0  0  0  0
   -0.3861   -1.5972    0.0000 O   0  0  0  0  0  0  0  0  0
   -0.0199   -2.9785    0.0000 N   0  0  0  0  0  0  0  0  0
   -0.6373    0.3252    0.0000 C   0  0  0  0  0  0  0  0  0
   -0.4437    1.1271    0.0000 O   0  0  0  0  0  0  0  0  0
    0.1236   -0.0208    0.0000 N   0  0  0  0  0  0  0  0  0
    0.9555    0.1180    0.0000 C   0  0  0  0  0  0  0  0  0
    1.5777   -0.4699    0.0000 C   0  0  0  0  0  0  0  0  0
    2.3662   -0.1848    0.0000 C   0  0  0  0  0  0  0  0  0
    3.0352   -0.6890    0.0000 C   0  0  0  0  0  0  0  0  0
    3.7824   -0.2929    0.0000 C   0  0  0  0  0  0  0  0  0
    4.0623    0.4832    0.0000 C   0  0  0  0  0  0  0  0  0
    4.8744    0.6288    0.0000 C   0  0  0  0  0  0  0  0  0
    5.4065   -0.0016    0.0000 C   0  0  0  0  0  0  0  0  0
    6.2185    0.1440    0.0000 O   0  0  0  0  0  0  0  0  0
    5.1266   -0.7777    0.0000 C   0  0  0  0  0  0  0  0  0
    4.3145   -0.9233    0.0000 C   0  0  0  0  0  0  0  0  0
    4.0346   -1.6994    0.0000 O   0  0  0  0  0  0  0  0  0
    3.6526    1.2159    0.0000 C   0  0  0  0  0  0  0  0  0
    3.5562    2.0382    0.0000 N   0  0  0  0  0  0  0  0  0
    2.8533    2.4804    0.0000 C   0  0  0  0  0  0  0  0  0
    3.0275    3.2868    0.0000 O   0  0  0  0  0  0  0  0  0
    2.0154    2.3656    0.0000 C   0  0  0  0  0  0  0  0  0
    1.5985    1.6221    0.0000 N   0  0  0  0  0  0  0  0  0
    1.0891    0.9518    0.0000 C   0  0  0  0  0  0  0  0  0
    0.3306    1.2764    0.0000 O   0  0  0  0  0  0  0  0  0
    1.7156    3.1549    0.0000 C   0  0  0  0  0  0  0  0  0
    2.3473    3.6856    0.0000 O   0  0  0  0  0  0  0  0  0
    0.9859    3.5888    0.0000 C   0  0  0  0  0  0  0  0  0
    0.5508    4.3099    0.0000 C   0  0  0  0  0  0  0  0  0
   -0.2901    4.2979    0.0000 C   0  0  0  0  0  0  0  0  0
   -0.7042    5.0114    0.0000 Cl  0  0  0  0  0  0  0  0  0
   -0.7203    3.5690    0.0000 C   0  0  0  0  0  0  0  0  0
   -1.4913    3.1828    0.0000 O   0  0  0  0  0  0  0  0  0
   -2.0767    2.5585    0.0000 C   0  0  0  0  0  0  0  0  0
   -1.6158    1.8586    0.0000 C   0  0  0  0  0  0  0  0  0
   -2.9169    2.4503    0.0000 C   0  0  0  0  0  0  0  0  0
   -3.3987    3.1199    0.0000 O   0  0  0  0  0  0  0  0  0
   -4.2196    3.0374    0.0000 C   0  0  0  0  0  0  0  0  0
   -4.5586    2.2853    0.0000 O   0  0  0  0  0  0  0  0  0
   -5.3795    2.2028    0.0000 C   0  0  0  0  0  0  0  0  0
   -5.7185    1.4507    0.0000 C   0  0  0  0  0  0  0  0  0
   -6.5393    1.3682    0.0000 O   0  0  0  0  0  0  0  0  0
   -5.8613    2.8725    0.0000 C   0  0  0  0  0  0  0  0  0
   -6.6822    2.7900    0.0000 O   0  0  0  0  0  0  0  0  0
   -5.5223    3.6246    0.0000 C   0  0  0  0  0  0  0  0  0
   -6.0042    4.2943    0.0000 O   0  0  0  0  0  0  0  0  0
   -4.7014    3.7071    0.0000 C   0  0  0  0  0  0  0  0  0
   -4.3624    4.4592    0.0000 O   0  0  0  0  0  0  0  0  0
   -3.5416    4.5417    0.0000 C   0  0  0  0  0  0  0  0  0
   -3.2026    5.2938    0.0000 O   0  0  0  0  0  0  0  0  0
   -2.3817    5.3763    0.0000 C   0  0  0  0  0  0  0  0  0
   -2.0427    6.1284    0.0000 C   0  0  0  0  0  0  0  0  0
   -1.8998    4.7066    0.0000 C   0  0  0  0  0  0  0  0  0
   -1.0790    4.7891    0.0000 O   0  0  0  0  0  0  0  0  0
   -2.2388    3.9545    0.0000 C   0  0  0  0  0  0  0  0  0
   -1.4393    3.7513    0.0000 N   0  0  0  0  0  0  0  0  0
   -3.0597    3.8720    0.0000 C   0  0  0  0  0  0  0  0  0
   -2.3002    3.1318    0.0000 C   0  0  0  0  0  0  0  0  0
   -0.2738    2.8684    0.0000 C   0  0  0  0  0  0  0  0  0
    0.5493    2.8707    0.0000 C   0  0  0  0  0  0  0  0  0
    4.4374    1.4701    0.0000 C   0  0  0  0  0  0  0  0  0
    4.6097    2.2770    0.0000 O   0  0  0  0  0  0  0  0  0
    5.0500    0.9176    0.0000 O   0  0  0  0  0  0  0  0  0
    2.8962   -1.5139    0.0000 C   0  0  0  0  0  0  0  0  0
    3.5388   -2.0313    0.0000 O   0  0  0  0  0  0  0  0  0
    2.1237   -1.8242    0.0000 C   0  0  0  0  0  0  0  0  0
    1.4736   -1.3035    0.0000 C   0  0  0  0  0  0  0  0  0
  1  2  1  0  0  0  0
  2  3  4  0  0  0  0
  2 30  4  0  0  0  0
  3  4  1  0  0  0  0
  3 32  4  0  0  0  0
  4  5  1  0  0  0  0
  5  6  4  0  0  0  0
  5 70  4  0  0  0  0
  6  7  4  0  0  0  0
  7  8  1  0  0  0  0
  7 69  4  0  0  0  0
  8  9  1  0  0  0  0
  8 37  1  0  0  0  0
  9 10  1  0  0  0  0
 10 11  2  0  0  0  0
 10 12  1  0  0  0  0
 12 13  1  0  0  0  0
 12 33  1  0  0  0  0
 13 14  1  0  0  0  0
 14 15  2  0  0  0  0
 14 16  1  0  0  0  0
 16 17  1  0  0  0  0
 16 27  1  0  0  0  0
 17 18  1  0  0  0  0
 18 19  2  0  0  0  0
 18 20  1  0  0  0  0
 20 21  1  0  0  0  0
 20 23  1  0  0  0  0
 21 22  1  0  0  0  0
 23 24  1  0  0  0  0
 24 25  1  0  0  0  0
 24 26  1  0  0  0  0
 27 28  1  0  0  0  0
 27 29  1  0  0  0  0
 29 30  4  0  0  0  0
 29 31  4  0  0  0  0
 31 32  4  0  0  0  0
 33 34  1  0  0  0  0
 34 35  2  0  0  0  0
 34 36  1  0  0  0  0
 37 38  2  0  0  0  0
 37 39  1  0  0  0  0
 39 40  1  0  0  0  0
 40 41  1  0  0  0  0
 40 58  1  0  0  0  0
 41 42  4  0  0  0  0
 41101  4  0  0  0  0
 42 43  4  0  0  0  0
 43 44  1  0  0  0  0
 43 98  4  0  0  0  0
 44 45  4  0  0  0  0
 44 50  4  0  0  0  0
 45 46  4  0  0  0  0
 45 52  1  0  0  0  0
 46 47  4  0  0  0  0
 47 48  1  0  0  0  0
 47 49  4  0  0  0  0
 49 50  4  0  0  0  0
 50 51  1  0  0  0  0
 52 53  1  0  0  0  0
 52 95  1  0  0  0  0
 53 54  1  0  0  0  0
 54 55  2  0  0  0  0
 54 56  1  0  0  0  0
 56 57  1  0  0  0  0
 56 60  1  0  0  0  0
 57 58  1  0  0  0  0
 58 59  2  0  0  0  0
 60 61  1  0  0  0  0
 60 62  1  0  0  0  0
 62 63  4  0  0  0  0
 62 94  4  0  0  0  0
 63 64  4  0  0  0  0
 64 65  1  0  0  0  0
 64 66  4  0  0  0  0
 66 67  1  0  0  0  0
 66 93  4  0  0  0  0
 67 68  1  0  0  0  0
 68 69  4  0  0  0  0
 68 70  4  0  0  0  0
 70 71  1  0  0  0  0
 71 72  1  0  0  0  0
 72 73  1  0  0  0  0
 72 81  1  0  0  0  0
 73 74  1  0  0  0  0
 74 75  1  0  0  0  0
 74 77  1  0  0  0  0
 75 76  1  0  0  0  0
 77 78  1  0  0  0  0
 77 79  1  0  0  0  0
 79 80  1  0  0  0  0
 79 81  1  0  0  0  0
 81 82  1  0  0  0  0
 82 83  1  0  0  0  0
 83 84  1  0  0  0  0
 83 91  1  0  0  0  0
 84 85  1  0  0  0  0
 85 86  1  0  0  0  0
 85 87  1  0  0  0  0
 87 88  1  0  0  0  0
 87 89  1  0  0  0  0
 89 90  1  0  0  0  0
 89 91  1  0  0  0  0
 89 92  1  0  0  0  0
 93 94  4  0  0  0  0
 95 96  1  0  0  0  0
 95 97  2  0  0  0  0
 98 99  1  0  0  0  0
 98100  4  0  0  0  0
100101  4  0  0  0  0
M  END
>  <Name_Molregno>
VANCOMYCIN

>  <Alpha-2A>
7.3

$$$$
Venlafaxine
  Marvin  02231216192D 0   1.00000     0.00000     0

 20 21  0  0  1  0  0  0  0  0999 V2000
    2.4113    2.7171    0.0000 O   0  0  0  0  0  0  0  0  0
    1.6968    3.1296    0.0000 C   0  0  0  0  0  0  0  0  0
    2.4113    1.8921    0.0000 C   0  0  0  0  0  0  0  0  0
    3.1257    1.4796    0.0000 C   0  0  0  0  0  0  0  0  0
    3.1257    0.6546    0.0000 C   0  0  0  0  0  0  0  0  0
    2.4113    0.2421    0.0000 C   0  0  0  0  0  0  0  0  0
    1.6968    0.6546    0.0000 C   0  0  0  0  0  0  0  0  0
    1.6968    1.4796    0.0000 C   0  0  0  0  0  0  0  0  0
    2.4113   -0.5829    0.0000 C   0  0  0  0  0  0  0  0  0
    1.6968   -0.9954    0.0000 C   0  0  0  0  0  0  0  0  0
    1.6968   -1.8204    0.0000 N   0  0  0  0  0  0  0  0  0
    2.4113   -2.2329    0.0000 C   0  0  0  0  0  0  0  0  0
    0.9823   -2.2329    0.0000 C   0  0  0  0  0  0  0  0  0
    3.1257   -0.9954    0.0000 C   0  0  0  0  0  0  0  0  0
    2.5954   -1.6274    0.0000 O   0  0  0  0  0  0  0  0  0
    3.4079   -0.2201    0.0000 C   0  0  0  0  0  0  0  0  0
    4.2204   -0.0769    0.0000 C   0  0  0  0  0  0  0  0  0
    4.7507   -0.7089    0.0000 C   0  0  0  0  0  0  0  0  0
    4.4685   -1.4841    0.0000 C   0  0  0  0  0  0  0  0  0
    3.6560   -1.6274    0.0000 C   0  0  0  0  0  0  0  0  0
  1  2  1  0  0  0  0
  1  3  1  0  0  0  0
  3  4  4  0  0  0  0
  3  8  4  0  0  0  0
  4  5  4  0  0  0  0
  5  6  4  0  0  0  0
  6  7  4  0  0  0  0
  6  9  1  0  0  0  0
  7  8  4  0  0  0  0
  9 10  1  0  0  0  0
  9 14  1  0  0  0  0
 10 11  1  0  0  0  0
 11 12  1  0  0  0  0
 11 13  1  0  0  0  0
 14 15  1  0  0  0  0
 14 16  1  0  0  0  0
 14 20  1  0  0  0  0
 16 17  1  0  0  0  0
 17 18  1  0  0  0  0
 18 19  1  0  0  0  0
 19 20  1  0  0  0  0
M  END
>  <Name_Molregno>
Venlafaxine

>  <5-HT1A>
5

>  <5-HT1B>
5

>  <5-HT1D>
5

>  <5-HT1E>
5

>  <5-HT2A>
5.33

>  <5-HT2C>
5.35

>  <5-HT6>
5.55

>  <5-HT7>
5

>  <Alpha-1A>
5

>  <Alpha-2A>
5.5

>  <DOPAMINE D2>
5

>  <DOPAMINE D3>
5

>  <Dopamine transporter>
5.17

>  <HISTAMINE H1>
5

>  <Muscarinic acetylcholine receptor M1>
5.5

>  <Muscarinic acetylcholine receptor M2>
5.5

>  <Muscarinic acetylcholine receptor M3>
5

>  <Muscarinic acetylcholine receptor M4>
5

>  <Muscarinic acetylcholine receptor M5>
5

>  <Norepinephrine transporter>
5.82

>  <Serotonin transporter>
7.43

$$$$
WB4101
  Marvin  02231216192D 0   1.00000     0.00000     0

 31 34  0  0  1  0  0  0  0  0999 V2000
   -5.5960   -0.0028    0.0000 O   0  0  0  0  0  0  0  0  0
   -5.5960   -0.8278    0.0000 C   0  0  0  0  0  0  0  0  0
   -4.8816   -1.2403    0.0000 C   0  0  0  0  0  0  0  0  0
   -4.1671   -0.8278    0.0000 O   0  0  0  0  0  0  0  0  0
   -4.1671   -0.0028    0.0000 C   0  0  0  0  0  0  0  0  0
   -3.4526    0.4097    0.0000 C   0  0  0  0  0  0  0  0  0
   -2.7381   -0.0028    0.0000 N   0  0  0  0  0  0  0  0  0
   -2.0237    0.4097    0.0000 C   0  0  0  0  0  0  0  0  0
   -1.3092   -0.0028    0.0000 C   0  0  0  0  0  0  0  0  0
   -0.5947    0.4097    0.0000 O   0  0  0  0  0  0  0  0  0
    0.1197   -0.0028    0.0000 C   0  0  0  0  0  0  0  0  0
    0.8342    0.4097    0.0000 C   0  0  0  0  0  0  0  0  0
    0.8342    1.2347    0.0000 O   0  0  0  0  0  0  0  0  0
    1.5487    1.6472    0.0000 C   0  0  0  0  0  0  0  0  0
    1.5487   -0.0028    0.0000 C   0  0  0  0  0  0  0  0  0
    1.5487   -0.8278    0.0000 C   0  0  0  0  0  0  0  0  0
    0.8342   -1.2403    0.0000 C   0  0  0  0  0  0  0  0  0
    0.1197   -0.8278    0.0000 C   0  0  0  0  0  0  0  0  0
   -0.5947   -1.2403    0.0000 O   0  0  0  0  0  0  0  0  0
   -0.5947   -2.0653    0.0000 C   0  0  0  0  0  0  0  0  0
   -4.8816    0.4097    0.0000 C   0  0  0  0  0  0  0  0  0
   -4.8816    1.2347    0.0000 C   0  0  0  0  0  0  0  0  0
   -5.5960    1.6472    0.0000 C   0  0  0  0  0  0  0  0  0
   -5.5960    2.4722    0.0000 C   0  0  0  0  0  0  0  0  0
   -4.8816    2.8847    0.0000 C   0  0  0  0  0  0  0  0  0
   -4.1671    2.4722    0.0000 C   0  0  0  0  0  0  0  0  0
   -4.1671    1.6472    0.0000 C   0  0  0  0  0  0  0  0  0
   -4.8816   -2.0653    0.0000 C   0  0  0  0  0  0  0  0  0
   -5.5960   -2.4778    0.0000 C   0  0  0  0  0  0  0  0  0
   -6.3105   -2.0653    0.0000 C   0  0  0  0  0  0  0  0  0
   -6.3105   -1.2403    0.0000 C   0  0  0  0  0  0  0  0  0
  1  2  1  0  0  0  0
  1 21  1  0  0  0  0
  2  3  4  0  0  0  0
  2 31  4  0  0  0  0
  3  4  1  0  0  0  0
  3 28  4  0  0  0  0
  4  5  1  0  0  0  0
  5  6  1  0  0  0  0
  5 21  1  0  0  0  0
  6  7  1  0  0  0  0
  7  8  1  0  0  0  0
  8  9  1  0  0  0  0
  9 10  1  0  0  0  0
 10 11  1  0  0  0  0
 11 12  4  0  0  0  0
 11 18  4  0  0  0  0
 12 13  1  0  0  0  0
 12 15  4  0  0  0  0
 13 14  1  0  0  0  0
 15 16  4  0  0  0  0
 16 17  4  0  0  0  0
 17 18  4  0  0  0  0
 18 19  1  0  0  0  0
 19 20  1  0  0  0  0
 21 22  1  0  0  0  0
 22 23  4  0  0  0  0
 22 27  4  0  0  0  0
 23 24  4  0  0  0  0
 24 25  4  0  0  0  0
 25 26  4  0  0  0  0
 26 27  4  0  0  0  0
 28 29  4  0  0  0  0
 29 30  4  0  0  0  0
 30 31  4  0  0  0  0
M  END
>  <Name_Molregno>
WB4101

>  <5-HT1D>
6.19

>  <5-HT2A>
5.3

>  <Alpha-2A>
8.45

>  <Alpha-2B>
7.75

>  <Alpha-2C>
8.95

$$$$
Xylazine
  Marvin  02231216192D 0   1.00000     0.00000     0

 15 16  0  0  0  0  0  0  0  0999 V2000
    0.9961   -2.3002    0.0000 S   0  0  0  0  0  0  0  0  0
    0.9961   -3.1252    0.0000 C   0  0  0  0  0  0  0  0  0
    0.2816   -3.5377    0.0000 C   0  0  0  0  0  0  0  0  0
   -0.4328   -3.1252    0.0000 C   0  0  0  0  0  0  0  0  0
   -0.4328   -2.3002    0.0000 N   0  0  0  0  0  0  0  0  0
    0.2816   -1.8877    0.0000 C   0  0  0  0  0  0  0  0  0
    0.2816   -1.0627    0.0000 N   0  0  0  0  0  0  0  0  0
    0.9961   -0.6502    0.0000 C   0  0  0  0  0  0  0  0  0
    0.9961    0.1748    0.0000 C   0  0  0  0  0  0  0  0  0
    1.7106    0.5873    0.0000 C   0  0  0  0  0  0  0  0  0
    2.4250    0.1748    0.0000 C   0  0  0  0  0  0  0  0  0
    2.4250   -0.6502    0.0000 C   0  0  0  0  0  0  0  0  0
    1.7106   -1.0627    0.0000 C   0  0  0  0  0  0  0  0  0
    1.7106   -1.8877    0.0000 C   0  0  0  0  0  0  0  0  0
    0.2816    0.5873    0.0000 C   0  0  0  0  0  0  0  0  0
  1  2  1  0  0  0  0
  1  6  1  0  0  0  0
  2  3  1  0  0  0  0
  3  4  1  0  0  0  0
  4  5  1  0  0  0  0
  5  6  2  0  0  0  0
  6  7  1  0  0  0  0
  7  8  1  0  0  0  0
  8  9  4  0  0  0  0
  8 13  4  0  0  0  0
  9 10  4  0  0  0  0
  9 15  1  0  0  0  0
 10 11  4  0  0  0  0
 11 12  4  0  0  0  0
 12 13  4  0  0  0  0
 13 14  1  0  0  0  0
M  END
>  <Name_Molregno>
Xylazine

>  <Alpha-2A>
5.24

>  <Alpha-2B>
5.46

>  <Alpha-2C>
5

$$$$
ZIPRASIDONE
  Marvin  02231216192D 0   1.00000     0.00000     0

 28 32  0  0  0  0  0  0  0  0999 V2000
   -5.2868    0.2535    0.0000 Cl  0  0  0  0  0  0  0  0  0
   -4.7347    0.8666    0.0000 C   0  0  0  0  0  0  0  0  0
   -4.9897    1.6513    0.0000 C   0  0  0  0  0  0  0  0  0
   -4.4376    2.2643    0.0000 C   0  0  0  0  0  0  0  0  0
   -4.5239    3.0848    0.0000 N   0  0  0  0  0  0  0  0  0
   -3.7702    3.4204    0.0000 C   0  0  0  0  0  0  0  0  0
   -3.5987    4.2274    0.0000 O   0  0  0  0  0  0  0  0  0
   -3.2182    2.8073    0.0000 C   0  0  0  0  0  0  0  0  0
   -3.6307    2.0928    0.0000 C   0  0  0  0  0  0  0  0  0
   -3.3757    1.3082    0.0000 C   0  0  0  0  0  0  0  0  0
   -3.9278    0.6951    0.0000 C   0  0  0  0  0  0  0  0  0
   -3.6728   -0.0895    0.0000 C   0  0  0  0  0  0  0  0  0
   -2.8658   -0.2610    0.0000 C   0  0  0  0  0  0  0  0  0
   -2.6109   -1.0457    0.0000 N   0  0  0  0  0  0  0  0  0
   -1.8039   -1.2172    0.0000 C   0  0  0  0  0  0  0  0  0
   -1.5490   -2.0018    0.0000 C   0  0  0  0  0  0  0  0  0
   -2.1010   -2.6149    0.0000 N   0  0  0  0  0  0  0  0  0
   -2.9080   -2.4434    0.0000 C   0  0  0  0  0  0  0  0  0
   -3.1629   -1.6588    0.0000 C   0  0  0  0  0  0  0  0  0
   -1.8461   -3.3995    0.0000 C   0  0  0  0  0  0  0  0  0
   -2.3310   -4.0670    0.0000 N   0  0  0  0  0  0  0  0  0
   -1.8461   -4.7344    0.0000 S   0  0  0  0  0  0  0  0  0
   -1.0615   -4.4795    0.0000 C   0  0  0  0  0  0  0  0  0
   -1.0615   -3.6545    0.0000 C   0  0  0  0  0  0  0  0  0
   -0.3470   -3.2420    0.0000 C   0  0  0  0  0  0  0  0  0
    0.3675   -3.6545    0.0000 C   0  0  0  0  0  0  0  0  0
    0.3675   -4.4795    0.0000 C   0  0  0  0  0  0  0  0  0
   -0.3470   -4.8920    0.0000 C   0  0  0  0  0  0  0  0  0
  1  2  1  0  0  0  0
  2  3  4  0  0  0  0
  2 11  4  0  0  0  0
  3  4  4  0  0  0  0
  4  5  1  0  0  0  0
  4  9  4  0  0  0  0
  5  6  1  0  0  0  0
  6  7  2  0  0  0  0
  6  8  1  0  0  0  0
  8  9  1  0  0  0  0
  9 10  4  0  0  0  0
 10 11  4  0  0  0  0
 11 12  1  0  0  0  0
 12 13  1  0  0  0  0
 13 14  1  0  0  0  0
 14 15  1  0  0  0  0
 14 19  1  0  0  0  0
 15 16  1  0  0  0  0
 16 17  1  0  0  0  0
 17 18  1  0  0  0  0
 17 20  1  0  0  0  0
 18 19  1  0  0  0  0
 20 21  4  0  0  0  0
 20 24  4  0  0  0  0
 21 22  4  0  0  0  0
 22 23  4  0  0  0  0
 23 24  4  0  0  0  0
 23 28  4  0  0  0  0
 24 25  4  0  0  0  0
 25 26  4  0  0  0  0
 26 27  4  0  0  0  0
 27 28  4  0  0  0  0
M  END
>  <Name_Molregno>
ZIPRASIDONE

>  <5-HT1A>
8.19

>  <5-HT1B>
8.7

>  <5-HT1D>
8.32

>  <5-HT1E>
6.17

>  <5-HT2A>
9.54

>  <5-HT2C>
8.82

>  <5-HT3>
5.7

>  <5-HT5>
6.54

>  <5-HT6>
7.17

>  <5-HT7>
8.23

>  <Alpha-1A>
7.74

>  <Alpha-1B>
8.05

>  <Alpha-2A>
6.8

>  <Alpha-2B>
7.32

>  <Alpha-2C>
7.15

>  <Beta-1>
5.3

>  <Beta-2>
5.15

>  <DOPAMINE D1>
7.1

>  <DOPAMINE D2>
8.39

>  <DOPAMINE D3>
8.21

>  <DOPAMINE D4>
7.43

>  <DOPAMINE D5>
6.82

>  <Dopamine transporter>
5

>  <HISTAMINE H1>
7.51

>  <HISTAMINE H2>
5.46

>  <HISTAMINE H4>
5

>  <Muscarinic acetylcholine receptor M1>
5.53

>  <Muscarinic acetylcholine receptor M2>
5.26

>  <Muscarinic acetylcholine receptor M3>
5.3

>  <Muscarinic acetylcholine receptor M4>
5.4

>  <Muscarinic acetylcholine receptor M5>
5.4

>  <Norepinephrine transporter>
7.36

>  <Serotonin transporter>
6.92

$$$$
ZOTEPINE
  Marvin  02231216192D 0   1.00000     0.00000     0

 22 24  0  0  0  0  0  0  0  0999 V2000
    1.8575   -4.4413    0.0000 Cl  0  0  0  0  0  0  0  0  0
    1.0691   -4.1981    0.0000 C   0  0  0  0  0  0  0  0  0
    0.8856   -3.3938    0.0000 C   0  0  0  0  0  0  0  0  0
    0.0972   -3.1507    0.0000 C   0  0  0  0  0  0  0  0  0
   -0.5076   -3.7118    0.0000 C   0  0  0  0  0  0  0  0  0
   -1.3233   -3.5888    0.0000 S   0  0  0  0  0  0  0  0  0
   -1.7358   -2.8744    0.0000 C   0  0  0  0  0  0  0  0  0
   -1.4344   -2.1064    0.0000 C   0  0  0  0  0  0  0  0  0
   -0.6461   -1.8632    0.0000 C   0  0  0  0  0  0  0  0  0
    0.0356   -2.3280    0.0000 C   0  0  0  0  0  0  0  0  0
    0.7500   -1.9155    0.0000 O   0  0  0  0  0  0  0  0  0
    1.4645   -2.3280    0.0000 C   0  0  0  0  0  0  0  0  0
    2.1790   -1.9155    0.0000 C   0  0  0  0  0  0  0  0  0
    2.8934   -2.3280    0.0000 N   0  0  0  0  0  0  0  0  0
    3.6079   -1.9155    0.0000 C   0  0  0  0  0  0  0  0  0
    2.8934   -3.1530    0.0000 C   0  0  0  0  0  0  0  0  0
   -1.9488   -1.4614    0.0000 C   0  0  0  0  0  0  0  0  0
   -2.7646   -1.5843    0.0000 C   0  0  0  0  0  0  0  0  0
   -3.0660   -2.3523    0.0000 C   0  0  0  0  0  0  0  0  0
   -2.5516   -2.9973    0.0000 C   0  0  0  0  0  0  0  0  0
   -0.3240   -4.5161    0.0000 C   0  0  0  0  0  0  0  0  0
    0.4644   -4.7593    0.0000 C   0  0  0  0  0  0  0  0  0
  1  2  1  0  0  0  0
  2  3  4  0  0  0  0
  2 22  4  0  0  0  0
  3  4  4  0  0  0  0
  4  5  4  0  0  0  0
  4 10  1  0  0  0  0
  5  6  1  0  0  0  0
  5 21  4  0  0  0  0
  6  7  1  0  0  0  0
  7  8  4  0  0  0  0
  7 20  4  0  0  0  0
  8  9  1  0  0  0  0
  8 17  4  0  0  0  0
  9 10  2  0  0  0  0
 10 11  1  0  0  0  0
 11 12  1  0  0  0  0
 12 13  1  0  0  0  0
 13 14  1  0  0  0  0
 14 15  1  0  0  0  0
 14 16  1  0  0  0  0
 17 18  4  0  0  0  0
 18 19  4  0  0  0  0
 19 20  4  0  0  0  0
 21 22  4  0  0  0  0
M  END
>  <Name_Molregno>
ZOTEPINE

>  <5-HT1A>
6.41

>  <5-HT1B>
7.23

>  <5-HT1D>
7.02

>  <5-HT1E>
6.23

>  <5-HT2A>
8.58

>  <5-HT2C>
8.49

>  <5-HT3>
6.33

>  <5-HT5>
7.54

>  <5-HT6>
8.22

>  <5-HT7>
7.92

>  <Alpha-1A>
8.15

>  <Alpha-1B>
8.3

>  <Alpha-2A>
6.68

>  <Alpha-2B>
8.27

>  <Alpha-2C>
7.02

>  <Beta-1>
5.19

>  <Beta-2>
5.32

>  <DOPAMINE D1>
7.15

>  <DOPAMINE D2>
7.98

>  <DOPAMINE D3>
8.19

>  <DOPAMINE D4>
7.57

>  <DOPAMINE D5>
6.61

>  <Dopamine transporter>
5.44

>  <HISTAMINE H1>
8.64

>  <HISTAMINE H2>
6.3

>  <HISTAMINE H4>
5.7

>  <Muscarinic acetylcholine receptor M1>
6.37

>  <Muscarinic acetylcholine receptor M2>
5.92

>  <Muscarinic acetylcholine receptor M3>
6.07

>  <Muscarinic acetylcholine receptor M4>
6.06

>  <Muscarinic acetylcholine receptor M5>
5.8

>  <Norepinephrine transporter>
6.28

>  <Serotonin transporter>
6.41

$$$$
