2724
  Marvin  02231216192D 0   1.00000     0.00000     0

 16 17  0  0  1  0  0  0  0  0999 V2000
    1.7558    2.8334    0.0000 O   0  0  0  0  0  0  0  0  0
    1.7558    2.0084    0.0000 C   0  0  0  0  0  0  0  0  0
    2.4703    1.5959    0.0000 C   0  0  0  0  0  0  0  0  0
    2.4703    0.7709    0.0000 C   0  0  0  0  0  0  0  0  0
    1.7558    0.3584    0.0000 C   0  0  0  0  0  0  0  0  0
    1.0413    0.7709    0.0000 C   0  0  0  0  0  0  0  0  0
    1.0413    1.5959    0.0000 C   0  0  0  0  0  0  0  0  0
    3.1847    0.3584    0.0000 C   0  0  0  0  0  0  0  0  0
    3.8992    0.7709    0.0000 C   0  0  0  0  0  0  0  0  0
    4.6137    0.3584    0.0000 C   0  0  0  0  0  0  0  0  0
    4.6137   -0.4666    0.0000 C   0  0  0  0  0  0  0  0  0
    3.8992   -0.8791    0.0000 N   0  0  0  0  0  0  0  0  0
    3.1847   -0.4666    0.0000 C   0  0  0  0  0  0  0  0  0
    3.8992   -1.7041    0.0000 C   0  0  0  0  0  0  0  0  0
    3.1847   -2.1166    0.0000 C   0  0  0  0  0  0  0  0  0
    3.1847   -2.9416    0.0000 C   0  0  0  0  0  0  0  0  0
  1  2  1  0  0  0  0
  2  3  4  0  0  0  0
  2  7  4  0  0  0  0
  3  4  4  0  0  0  0
  4  5  4  0  0  0  0
  4  8  1  0  0  0  0
  5  6  4  0  0  0  0
  6  7  4  0  0  0  0
  8  9  1  0  0  0  0
  8 13  1  0  0  0  0
  9 10  1  0  0  0  0
 10 11  1  0  0  0  0
 11 12  1  0  0  0  0
 12 13  1  0  0  0  0
 12 14  1  0  0  0  0
 14 15  1  0  0  0  0
 15 16  1  0  0  0  0
M  END
>  <Name_Molregno>
2724

>  <5-HT1A>
5.73

>  <5-HT1E>
5

>  <5-HT3>
5

>  <5-HT5>
5

>  <5-HT6>
5

>  <Alpha-1A>
5

>  <Alpha-1B>
5

>  <Beta-2>
5

>  <DOPAMINE D1>
5

>  <DOPAMINE D2>
6.47

>  <DOPAMINE D3>
6.93

>  <DOPAMINE D4>
6.29

>  <DOPAMINE D5>
5.31

>  <Dopamine transporter>
5

>  <Muscarinic acetylcholine receptor M1>
5

>  <Muscarinic acetylcholine receptor M2>
5

>  <Muscarinic acetylcholine receptor M3>
5

>  <Muscarinic acetylcholine receptor M4>
5

>  <Muscarinic acetylcholine receptor M5>
5

>  <Norepinephrine transporter>
5.64

>  <Serotonin transporter>
5

$$$$
4181
  Marvin  02231216192D 0   1.00000     0.00000     0

 29 32  0  0  0  0  0  0  0  0999 V2000
   -7.1712   -1.9465    0.0000 O   0  0  0  0  0  0  0  0  0
   -7.5837   -2.6610    0.0000 C   0  0  0  0  0  0  0  0  0
   -7.5837   -1.2320    0.0000 C   0  0  0  0  0  0  0  0  0
   -8.4087   -1.2320    0.0000 C   0  0  0  0  0  0  0  0  0
   -8.8212   -0.5176    0.0000 C   0  0  0  0  0  0  0  0  0
   -8.4087    0.1969    0.0000 C   0  0  0  0  0  0  0  0  0
   -7.5837    0.1969    0.0000 C   0  0  0  0  0  0  0  0  0
   -7.1712   -0.5176    0.0000 C   0  0  0  0  0  0  0  0  0
   -6.3462   -0.5176    0.0000 N   0  0  0  0  0  0  0  0  0
   -5.9337    0.1969    0.0000 C   0  0  0  0  0  0  0  0  0
   -5.1087    0.1969    0.0000 C   0  0  0  0  0  0  0  0  0
   -4.6962   -0.5176    0.0000 N   0  0  0  0  0  0  0  0  0
   -5.1087   -1.2320    0.0000 C   0  0  0  0  0  0  0  0  0
   -5.9337   -1.2320    0.0000 C   0  0  0  0  0  0  0  0  0
   -3.8712   -0.5176    0.0000 C   0  0  0  0  0  0  0  0  0
   -3.4587    0.1969    0.0000 C   0  0  0  0  0  0  0  0  0
   -2.6337    0.1969    0.0000 C   0  0  0  0  0  0  0  0  0
   -2.2212    0.9114    0.0000 C   0  0  0  0  0  0  0  0  0
   -1.3962    0.9114    0.0000 N   0  0  0  0  0  0  0  0  0
   -0.9112    0.2439    0.0000 C   0  0  0  0  0  0  0  0  0
   -1.1662   -0.5407    0.0000 O   0  0  0  0  0  0  0  0  0
   -0.1266    0.4989    0.0000 C   0  0  0  0  0  0  0  0  0
   -0.1266    1.3239    0.0000 C   0  0  0  0  0  0  0  0  0
    0.5879    1.7364    0.0000 C   0  0  0  0  0  0  0  0  0
    1.3023    1.3239    0.0000 C   0  0  0  0  0  0  0  0  0
    1.3023    0.4989    0.0000 C   0  0  0  0  0  0  0  0  0
    0.5879    0.0864    0.0000 C   0  0  0  0  0  0  0  0  0
   -0.9112    1.5788    0.0000 C   0  0  0  0  0  0  0  0  0
   -1.1662    2.3634    0.0000 O   0  0  0  0  0  0  0  0  0
  1  2  1  0  0  0  0
  1  3  1  0  0  0  0
  3  4  4  0  0  0  0
  3  8  4  0  0  0  0
  4  5  4  0  0  0  0
  5  6  4  0  0  0  0
  6  7  4  0  0  0  0
  7  8  4  0  0  0  0
  8  9  1  0  0  0  0
  9 10  1  0  0  0  0
  9 14  1  0  0  0  0
 10 11  1  0  0  0  0
 11 12  1  0  0  0  0
 12 13  1  0  0  0  0
 12 15  1  0  0  0  0
 13 14  1  0  0  0  0
 15 16  1  0  0  0  0
 16 17  1  0  0  0  0
 17 18  1  0  0  0  0
 18 19  1  0  0  0  0
 19 20  1  0  0  0  0
 19 28  1  0  0  0  0
 20 21  2  0  0  0  0
 20 22  1  0  0  0  0
 22 23  4  0  0  0  0
 22 27  4  0  0  0  0
 23 24  4  0  0  0  0
 23 28  1  0  0  0  0
 24 25  4  0  0  0  0
 25 26  4  0  0  0  0
 26 27  4  0  0  0  0
 28 29  2  0  0  0  0
M  END
>  <Name_Molregno>
4181

>  <5-HT1A>
8.88

>  <Alpha-1A>
9.15

>  <Alpha-1B>
9.02

>  <DOPAMINE D1>
5.35

>  <DOPAMINE D2>
7.33

>  <DOPAMINE D3>
8.47

$$$$
6593
  Marvin  02231216192D 0   1.00000     0.00000     0

 26 30  0  0  1  0  0  0  0  0999 V2000
    6.3424    1.1120    0.0000 O   0  0  0  0  0  0  0  0  0
    5.8040    0.4869    0.0000 C   0  0  0  0  0  0  0  0  0
    6.0761   -0.2920    0.0000 C   0  0  0  0  0  0  0  0  0
    5.5377   -0.9170    0.0000 C   0  0  0  0  0  0  0  0  0
    4.7272   -0.7633    0.0000 C   0  0  0  0  0  0  0  0  0
    4.4550    0.0155    0.0000 C   0  0  0  0  0  0  0  0  0
    3.6445    0.1692    0.0000 C   0  0  0  0  0  0  0  0  0
    3.1061   -0.4559    0.0000 C   0  0  0  0  0  0  0  0  0
    3.3782   -1.2347    0.0000 N   0  0  0  0  0  0  0  0  0
    4.1888   -1.3884    0.0000 C   0  0  0  0  0  0  0  0  0
    2.8398   -1.8598    0.0000 C   0  0  0  0  0  0  0  0  0
    2.0292   -1.7061    0.0000 C   0  0  0  0  0  0  0  0  0
    1.7571   -0.9272    0.0000 C   0  0  0  0  0  0  0  0  0
    2.2955   -0.3021    0.0000 C   0  0  0  0  0  0  0  0  0
    1.8674    0.4031    0.0000 N   0  0  0  0  0  0  0  0  0
    1.0644    0.2138    0.0000 C   0  0  0  0  0  0  0  0  0
    0.9962   -0.6083    0.0000 C   0  0  0  0  0  0  0  0  0
    0.2501   -0.9604    0.0000 C   0  0  0  0  0  0  0  0  0
   -0.4278   -0.4903    0.0000 C   0  0  0  0  0  0  0  0  0
   -0.3597    0.3319    0.0000 C   0  0  0  0  0  0  0  0  0
    0.3864    0.6840    0.0000 C   0  0  0  0  0  0  0  0  0
    4.9934    0.6406    0.0000 C   0  0  0  0  0  0  0  0  0
    4.7213    1.4194    0.0000 C   0  0  0  0  0  0  0  0  0
    5.2597    2.0445    0.0000 O   0  0  0  0  0  0  0  0  0
    4.9875    2.8233    0.0000 C   0  0  0  0  0  0  0  0  0
    3.9107    1.5731    0.0000 O   0  0  0  0  0  0  0  0  0
  1  2  1  0  0  0  0
  2  3  1  0  0  0  0
  2 22  1  0  0  0  0
  3  4  1  0  0  0  0
  4  5  1  0  0  0  0
  5  6  1  0  0  0  0
  5 10  1  0  0  0  0
  6  7  1  0  0  0  0
  6 22  1  0  0  0  0
  7  8  1  0  0  0  0
  8  9  1  0  0  0  0
  8 14  1  0  0  0  0
  9 10  1  0  0  0  0
  9 11  1  0  0  0  0
 11 12  1  0  0  0  0
 12 13  1  0  0  0  0
 13 14  4  0  0  0  0
 13 17  4  0  0  0  0
 14 15  4  0  0  0  0
 15 16  4  0  0  0  0
 16 17  4  0  0  0  0
 16 21  4  0  0  0  0
 17 18  4  0  0  0  0
 18 19  4  0  0  0  0
 19 20  4  0  0  0  0
 20 21  4  0  0  0  0
 22 23  1  0  0  0  0
 23 24  1  0  0  0  0
 23 26  2  0  0  0  0
 24 25  1  0  0  0  0
M  STY  1   1 DAT
M  SAL   1  1  15
M  SDT   1 MRV_IMPLICIT_H                                        
M  SDD   1     0.0000    0.0000    DR    ALL  0       0  
M  SED   1 IMPL_H1
M  END
>  <Name_Molregno>
6593

>  <5-HT1A>
6.3

>  <5-HT1B>
7.45

>  <5-HT1D>
7.09

>  <5-HT1E>
5.75

>  <5-HT2A>
5.66

>  <5-HT2C>
5.49

>  <5-HT7>
5.55

>  <Alpha-1A>
6.32

>  <Alpha-1B>
6.42

>  <Alpha-2A>
8.74

>  <Alpha-2B>
8.53

>  <Alpha-2C>
9.21

>  <DOPAMINE D1>
5

>  <DOPAMINE D2>
6.48

>  <DOPAMINE D3>
5.5

>  <Serotonin transporter>
6

$$$$
10018
  Marvin  02231216192D 0   1.00000     0.00000     0

 30 32  0  0  0  0  0  0  0  0999 V2000
   -6.5607    0.7037    0.0000 O   0  0  0  0  0  0  0  0  0
   -7.2752    0.2912    0.0000 C   0  0  0  0  0  0  0  0  0
   -7.2752   -0.5338    0.0000 C   0  0  0  0  0  0  0  0  0
   -7.9897    0.7037    0.0000 C   0  0  0  0  0  0  0  0  0
   -6.5607    1.5287    0.0000 C   0  0  0  0  0  0  0  0  0
   -7.2752    1.9412    0.0000 C   0  0  0  0  0  0  0  0  0
   -7.2752    2.7662    0.0000 C   0  0  0  0  0  0  0  0  0
   -6.5607    3.1787    0.0000 C   0  0  0  0  0  0  0  0  0
   -5.8463    2.7662    0.0000 C   0  0  0  0  0  0  0  0  0
   -5.8463    1.9412    0.0000 C   0  0  0  0  0  0  0  0  0
   -5.1318    1.5287    0.0000 N   0  0  0  0  0  0  0  0  0
   -4.4173    1.9412    0.0000 C   0  0  0  0  0  0  0  0  0
   -3.7028    1.5287    0.0000 C   0  0  0  0  0  0  0  0  0
   -3.7028    0.7037    0.0000 N   0  0  0  0  0  0  0  0  0
   -4.4173    0.2912    0.0000 C   0  0  0  0  0  0  0  0  0
   -5.1318    0.7037    0.0000 C   0  0  0  0  0  0  0  0  0
   -2.9884    0.2912    0.0000 C   0  0  0  0  0  0  0  0  0
   -2.2739    0.7037    0.0000 C   0  0  0  0  0  0  0  0  0
   -1.5594    0.2912    0.0000 C   0  0  0  0  0  0  0  0  0
   -0.8450    0.7037    0.0000 N   0  0  0  0  0  0  0  0  0
   -0.1305    0.2912    0.0000 C   0  0  0  0  0  0  0  0  0
   -0.1305   -0.5338    0.0000 O   0  0  0  0  0  0  0  0  0
    0.5840    0.7037    0.0000 C   0  0  0  0  0  0  0  0  0
    1.2985    0.2912    0.0000 N   0  0  0  0  0  0  0  0  0
    2.0129    0.7037    0.0000 C   0  0  0  0  0  0  0  0  0
    2.7274    0.2912    0.0000 C   0  0  0  0  0  0  0  0  0
    2.7274   -0.5338    0.0000 C   0  0  0  0  0  0  0  0  0
    2.0129   -0.9463    0.0000 C   0  0  0  0  0  0  0  0  0
    1.2985   -0.5338    0.0000 C   0  0  0  0  0  0  0  0  0
    0.5840   -0.9463    0.0000 O   0  0  0  0  0  0  0  0  0
  1  2  1  0  0  0  0
  1  5  1  0  0  0  0
  2  3  1  0  0  0  0
  2  4  1  0  0  0  0
  5  6  4  0  0  0  0
  5 10  4  0  0  0  0
  6  7  4  0  0  0  0
  7  8  4  0  0  0  0
  8  9  4  0  0  0  0
  9 10  4  0  0  0  0
 10 11  1  0  0  0  0
 11 12  1  0  0  0  0
 11 16  1  0  0  0  0
 12 13  1  0  0  0  0
 13 14  1  0  0  0  0
 14 15  1  0  0  0  0
 14 17  1  0  0  0  0
 15 16  1  0  0  0  0
 17 18  1  0  0  0  0
 18 19  1  0  0  0  0
 19 20  1  0  0  0  0
 20 21  1  0  0  0  0
 21 22  2  0  0  0  0
 21 23  1  0  0  0  0
 23 24  1  0  0  0  0
 24 25  1  0  0  0  0
 24 29  1  0  0  0  0
 25 26  1  0  0  0  0
 26 27  1  0  0  0  0
 27 28  1  0  0  0  0
 28 29  1  0  0  0  0
 29 30  2  0  0  0  0
M  END
>  <Name_Molregno>
10018

>  <Alpha-1A>
9.18

>  <Alpha-1B>
5

$$$$
10028
  Marvin  02231216192D 0   1.00000     0.00000     0

 30 32  0  0  0  0  0  0  0  0999 V2000
   -5.4376   -1.2151    0.0000 O   0  0  0  0  0  0  0  0  0
   -5.4376   -2.0401    0.0000 C   0  0  0  0  0  0  0  0  0
   -4.7231   -2.4526    0.0000 C   0  0  0  0  0  0  0  0  0
   -6.1521   -2.4526    0.0000 C   0  0  0  0  0  0  0  0  0
   -6.1521   -0.8026    0.0000 C   0  0  0  0  0  0  0  0  0
   -6.8665   -1.2151    0.0000 C   0  0  0  0  0  0  0  0  0
   -7.5810   -0.8026    0.0000 C   0  0  0  0  0  0  0  0  0
   -7.5810    0.0224    0.0000 C   0  0  0  0  0  0  0  0  0
   -6.8665    0.4349    0.0000 C   0  0  0  0  0  0  0  0  0
   -6.1521    0.0224    0.0000 C   0  0  0  0  0  0  0  0  0
   -5.4376    0.4349    0.0000 N   0  0  0  0  0  0  0  0  0
   -5.4376    1.2599    0.0000 C   0  0  0  0  0  0  0  0  0
   -4.7231    1.6724    0.0000 C   0  0  0  0  0  0  0  0  0
   -4.0086    1.2599    0.0000 N   0  0  0  0  0  0  0  0  0
   -4.0086    0.4349    0.0000 C   0  0  0  0  0  0  0  0  0
   -4.7231    0.0224    0.0000 C   0  0  0  0  0  0  0  0  0
   -3.2942    1.6724    0.0000 C   0  0  0  0  0  0  0  0  0
   -2.5797    1.2599    0.0000 C   0  0  0  0  0  0  0  0  0
   -1.8652    1.6724    0.0000 N   0  0  0  0  0  0  0  0  0
   -1.1508    1.2599    0.0000 C   0  0  0  0  0  0  0  0  0
   -1.1508    0.4349    0.0000 O   0  0  0  0  0  0  0  0  0
   -0.4363    1.6724    0.0000 C   0  0  0  0  0  0  0  0  0
    0.2782    1.2599    0.0000 N   0  0  0  0  0  0  0  0  0
    0.9927    1.6724    0.0000 C   0  0  0  0  0  0  0  0  0
    1.7071    1.2599    0.0000 C   0  0  0  0  0  0  0  0  0
    1.7071    0.4349    0.0000 C   0  0  0  0  0  0  0  0  0
    0.9927    0.0224    0.0000 C   0  0  0  0  0  0  0  0  0
    0.2782    0.4349    0.0000 C   0  0  0  0  0  0  0  0  0
   -0.4363    0.0224    0.0000 O   0  0  0  0  0  0  0  0  0
   -1.8652    2.4974    0.0000 C   0  0  0  0  0  0  0  0  0
  1  2  1  0  0  0  0
  1  5  1  0  0  0  0
  2  3  1  0  0  0  0
  2  4  1  0  0  0  0
  5  6  4  0  0  0  0
  5 10  4  0  0  0  0
  6  7  4  0  0  0  0
  7  8  4  0  0  0  0
  8  9  4  0  0  0  0
  9 10  4  0  0  0  0
 10 11  1  0  0  0  0
 11 12  1  0  0  0  0
 11 16  1  0  0  0  0
 12 13  1  0  0  0  0
 13 14  1  0  0  0  0
 14 15  1  0  0  0  0
 14 17  1  0  0  0  0
 15 16  1  0  0  0  0
 17 18  1  0  0  0  0
 18 19  1  0  0  0  0
 19 20  1  0  0  0  0
 19 30  1  0  0  0  0
 20 21  2  0  0  0  0
 20 22  1  0  0  0  0
 22 23  1  0  0  0  0
 23 24  1  0  0  0  0
 23 28  1  0  0  0  0
 24 25  1  0  0  0  0
 25 26  1  0  0  0  0
 26 27  1  0  0  0  0
 27 28  1  0  0  0  0
 28 29  2  0  0  0  0
M  END
>  <Name_Molregno>
10028

>  <Alpha-1A>
7.28

>  <Alpha-1B>
5

$$$$
10030
  Marvin  02231216192D 0   1.00000     0.00000     0

 30 32  0  0  0  0  0  0  0  0999 V2000
    0.4685   -1.2333    0.0000 O   0  0  0  0  0  0  0  0  0
    0.4685   -2.0583    0.0000 C   0  0  0  0  0  0  0  0  0
    1.1830   -2.4708    0.0000 C   0  0  0  0  0  0  0  0  0
   -0.2460   -2.4708    0.0000 C   0  0  0  0  0  0  0  0  0
   -0.2460   -0.8208    0.0000 C   0  0  0  0  0  0  0  0  0
   -0.9604   -1.2333    0.0000 C   0  0  0  0  0  0  0  0  0
   -1.6749   -0.8208    0.0000 C   0  0  0  0  0  0  0  0  0
   -1.6749    0.0042    0.0000 C   0  0  0  0  0  0  0  0  0
   -0.9604    0.4167    0.0000 C   0  0  0  0  0  0  0  0  0
   -0.2460    0.0042    0.0000 C   0  0  0  0  0  0  0  0  0
    0.4685    0.4167    0.0000 N   0  0  0  0  0  0  0  0  0
    0.4685    1.2417    0.0000 C   0  0  0  0  0  0  0  0  0
    1.1830    1.6542    0.0000 C   0  0  0  0  0  0  0  0  0
    1.8975    1.2417    0.0000 N   0  0  0  0  0  0  0  0  0
    1.8975    0.4167    0.0000 C   0  0  0  0  0  0  0  0  0
    1.1830    0.0042    0.0000 C   0  0  0  0  0  0  0  0  0
    2.6119    1.6542    0.0000 C   0  0  0  0  0  0  0  0  0
    3.3264    1.2417    0.0000 C   0  0  0  0  0  0  0  0  0
    3.3264    0.4167    0.0000 O   0  0  0  0  0  0  0  0  0
    4.0409    1.6542    0.0000 C   0  0  0  0  0  0  0  0  0
    4.7553    1.2417    0.0000 C   0  0  0  0  0  0  0  0  0
    4.7553    0.4167    0.0000 O   0  0  0  0  0  0  0  0  0
    5.4698    1.6542    0.0000 C   0  0  0  0  0  0  0  0  0
    6.1843    1.2417    0.0000 N   0  0  0  0  0  0  0  0  0
    6.8988    1.6542    0.0000 C   0  0  0  0  0  0  0  0  0
    7.6132    1.2417    0.0000 C   0  0  0  0  0  0  0  0  0
    7.6132    0.4167    0.0000 C   0  0  0  0  0  0  0  0  0
    6.8988    0.0042    0.0000 C   0  0  0  0  0  0  0  0  0
    6.1843    0.4167    0.0000 C   0  0  0  0  0  0  0  0  0
    5.4698    0.0042    0.0000 O   0  0  0  0  0  0  0  0  0
  1  2  1  0  0  0  0
  1  5  1  0  0  0  0
  2  3  1  0  0  0  0
  2  4  1  0  0  0  0
  5  6  4  0  0  0  0
  5 10  4  0  0  0  0
  6  7  4  0  0  0  0
  7  8  4  0  0  0  0
  8  9  4  0  0  0  0
  9 10  4  0  0  0  0
 10 11  1  0  0  0  0
 11 12  1  0  0  0  0
 11 16  1  0  0  0  0
 12 13  1  0  0  0  0
 13 14  1  0  0  0  0
 14 15  1  0  0  0  0
 14 17  1  0  0  0  0
 15 16  1  0  0  0  0
 17 18  1  0  0  0  0
 18 19  2  0  0  0  0
 18 20  1  0  0  0  0
 20 21  1  0  0  0  0
 21 22  2  0  0  0  0
 21 23  1  0  0  0  0
 23 24  1  0  0  0  0
 24 25  1  0  0  0  0
 24 29  1  0  0  0  0
 25 26  1  0  0  0  0
 26 27  1  0  0  0  0
 27 28  1  0  0  0  0
 28 29  1  0  0  0  0
 29 30  2  0  0  0  0
M  END
>  <Name_Molregno>
10030

>  <Alpha-1A>
6.38

>  <Alpha-1B>
5

$$$$
10046
  Marvin  02231216192D 0   1.00000     0.00000     0

 30 32  0  0  0  0  0  0  0  0999 V2000
    0.3098   -2.4593    0.0000 F   0  0  0  0  0  0  0  0  0
    1.0242   -2.0468    0.0000 C   0  0  0  0  0  0  0  0  0
    1.0242   -1.2218    0.0000 C   0  0  0  0  0  0  0  0  0
    1.7387   -0.8093    0.0000 C   0  0  0  0  0  0  0  0  0
    1.7387    0.0157    0.0000 O   0  0  0  0  0  0  0  0  0
    1.0242    0.4282    0.0000 C   0  0  0  0  0  0  0  0  0
    0.3098    0.0157    0.0000 C   0  0  0  0  0  0  0  0  0
    1.0242    1.2532    0.0000 C   0  0  0  0  0  0  0  0  0
    2.4532   -1.2218    0.0000 C   0  0  0  0  0  0  0  0  0
    3.1677   -0.8093    0.0000 N   0  0  0  0  0  0  0  0  0
    3.1677    0.0157    0.0000 C   0  0  0  0  0  0  0  0  0
    3.8821    0.4282    0.0000 C   0  0  0  0  0  0  0  0  0
    4.5966    0.0157    0.0000 N   0  0  0  0  0  0  0  0  0
    4.5966   -0.8093    0.0000 C   0  0  0  0  0  0  0  0  0
    3.8821   -1.2218    0.0000 C   0  0  0  0  0  0  0  0  0
    5.3111    0.4282    0.0000 C   0  0  0  0  0  0  0  0  0
    6.0255    0.0157    0.0000 C   0  0  0  0  0  0  0  0  0
    6.7400    0.4282    0.0000 N   0  0  0  0  0  0  0  0  0
    7.4545    0.0157    0.0000 C   0  0  0  0  0  0  0  0  0
    7.4545   -0.8093    0.0000 O   0  0  0  0  0  0  0  0  0
    8.1689    0.4282    0.0000 C   0  0  0  0  0  0  0  0  0
    8.8834    0.0157    0.0000 N   0  0  0  0  0  0  0  0  0
    9.5979    0.4282    0.0000 C   0  0  0  0  0  0  0  0  0
   10.3124    0.0157    0.0000 C   0  0  0  0  0  0  0  0  0
   10.3124   -0.8093    0.0000 C   0  0  0  0  0  0  0  0  0
    9.5979   -1.2218    0.0000 C   0  0  0  0  0  0  0  0  0
    8.8834   -0.8093    0.0000 C   0  0  0  0  0  0  0  0  0
    8.1689   -1.2218    0.0000 O   0  0  0  0  0  0  0  0  0
    2.4532   -2.0468    0.0000 C   0  0  0  0  0  0  0  0  0
    1.7387   -2.4593    0.0000 C   0  0  0  0  0  0  0  0  0
  1  2  1  0  0  0  0
  2  3  4  0  0  0  0
  2 30  4  0  0  0  0
  3  4  4  0  0  0  0
  4  5  1  0  0  0  0
  4  9  4  0  0  0  0
  5  6  1  0  0  0  0
  6  7  1  0  0  0  0
  6  8  1  0  0  0  0
  9 10  1  0  0  0  0
  9 29  4  0  0  0  0
 10 11  1  0  0  0  0
 10 15  1  0  0  0  0
 11 12  1  0  0  0  0
 12 13  1  0  0  0  0
 13 14  1  0  0  0  0
 13 16  1  0  0  0  0
 14 15  1  0  0  0  0
 16 17  1  0  0  0  0
 17 18  1  0  0  0  0
 18 19  1  0  0  0  0
 19 20  2  0  0  0  0
 19 21  1  0  0  0  0
 21 22  1  0  0  0  0
 22 23  1  0  0  0  0
 22 27  1  0  0  0  0
 23 24  1  0  0  0  0
 24 25  1  0  0  0  0
 25 26  1  0  0  0  0
 26 27  1  0  0  0  0
 27 28  2  0  0  0  0
 29 30  4  0  0  0  0
M  END
>  <Name_Molregno>
10046

>  <Alpha-1A>
7.08

>  <Alpha-1B>
5

$$$$
10116
  Marvin  02231216192D 0   1.00000     0.00000     0

 29 31  0  0  0  0  0  0  0  0999 V2000
   -0.0896    0.3338    0.0000 O   0  0  0  0  0  0  0  0  0
    0.6248    0.7463    0.0000 C   0  0  0  0  0  0  0  0  0
    1.3393    0.3338    0.0000 C   0  0  0  0  0  0  0  0  0
    0.6248    1.5713    0.0000 C   0  0  0  0  0  0  0  0  0
   -0.0896   -0.4912    0.0000 C   0  0  0  0  0  0  0  0  0
    0.6248   -0.9037    0.0000 C   0  0  0  0  0  0  0  0  0
    0.6248   -1.7287    0.0000 C   0  0  0  0  0  0  0  0  0
   -0.0896   -2.1412    0.0000 C   0  0  0  0  0  0  0  0  0
   -0.8041   -1.7287    0.0000 C   0  0  0  0  0  0  0  0  0
   -0.8041   -0.9037    0.0000 C   0  0  0  0  0  0  0  0  0
   -1.5186   -0.4912    0.0000 N   0  0  0  0  0  0  0  0  0
   -2.2330   -0.9037    0.0000 C   0  0  0  0  0  0  0  0  0
   -2.9475   -0.4912    0.0000 C   0  0  0  0  0  0  0  0  0
   -2.9475    0.3338    0.0000 N   0  0  0  0  0  0  0  0  0
   -2.2330    0.7463    0.0000 C   0  0  0  0  0  0  0  0  0
   -1.5186    0.3338    0.0000 C   0  0  0  0  0  0  0  0  0
   -3.6620    0.7463    0.0000 C   0  0  0  0  0  0  0  0  0
   -4.3765    0.3338    0.0000 C   0  0  0  0  0  0  0  0  0
   -5.0909    0.7463    0.0000 C   0  0  0  0  0  0  0  0  0
   -5.8054    0.3338    0.0000 C   0  0  0  0  0  0  0  0  0
   -6.5199    0.7463    0.0000 O   0  0  0  0  0  0  0  0  0
   -5.8054   -0.4912    0.0000 C   0  0  0  0  0  0  0  0  0
   -6.5199   -0.9037    0.0000 N   0  0  0  0  0  0  0  0  0
   -6.5199   -1.7287    0.0000 C   0  0  0  0  0  0  0  0  0
   -7.2343   -2.1412    0.0000 C   0  0  0  0  0  0  0  0  0
   -7.9488   -1.7287    0.0000 C   0  0  0  0  0  0  0  0  0
   -7.9488   -0.9037    0.0000 C   0  0  0  0  0  0  0  0  0
   -7.2343   -0.4912    0.0000 C   0  0  0  0  0  0  0  0  0
   -7.2343    0.3338    0.0000 O   0  0  0  0  0  0  0  0  0
  1  2  1  0  0  0  0
  1  5  1  0  0  0  0
  2  3  1  0  0  0  0
  2  4  1  0  0  0  0
  5  6  4  0  0  0  0
  5 10  4  0  0  0  0
  6  7  4  0  0  0  0
  7  8  4  0  0  0  0
  8  9  4  0  0  0  0
  9 10  4  0  0  0  0
 10 11  1  0  0  0  0
 11 12  1  0  0  0  0
 11 16  1  0  0  0  0
 12 13  1  0  0  0  0
 13 14  1  0  0  0  0
 14 15  1  0  0  0  0
 14 17  1  0  0  0  0
 15 16  1  0  0  0  0
 17 18  1  0  0  0  0
 18 19  2  0  0  0  0
 19 20  1  0  0  0  0
 20 21  2  0  0  0  0
 20 22  1  0  0  0  0
 22 23  1  0  0  0  0
 23 24  1  0  0  0  0
 23 28  1  0  0  0  0
 24 25  1  0  0  0  0
 25 26  1  0  0  0  0
 26 27  1  0  0  0  0
 27 28  1  0  0  0  0
 28 29  2  0  0  0  0
M  END
>  <Name_Molregno>
10116

>  <Alpha-1A>
7.74

>  <Alpha-1B>
5.27

$$$$
10124
  Marvin  02231216192D 0   1.00000     0.00000     0

 30 32  0  0  1  0  0  0  0  0999 V2000
    0.4685   -1.2333    0.0000 O   0  0  0  0  0  0  0  0  0
    0.4685   -2.0583    0.0000 C   0  0  0  0  0  0  0  0  0
    1.1830   -2.4708    0.0000 C   0  0  0  0  0  0  0  0  0
   -0.2460   -2.4708    0.0000 C   0  0  0  0  0  0  0  0  0
   -0.2460   -0.8208    0.0000 C   0  0  0  0  0  0  0  0  0
   -0.9604   -1.2333    0.0000 C   0  0  0  0  0  0  0  0  0
   -1.6749   -0.8208    0.0000 C   0  0  0  0  0  0  0  0  0
   -1.6749    0.0042    0.0000 C   0  0  0  0  0  0  0  0  0
   -0.9604    0.4167    0.0000 C   0  0  0  0  0  0  0  0  0
   -0.2460    0.0042    0.0000 C   0  0  0  0  0  0  0  0  0
    0.4685    0.4167    0.0000 N   0  0  0  0  0  0  0  0  0
    0.4685    1.2417    0.0000 C   0  0  0  0  0  0  0  0  0
    1.1830    1.6542    0.0000 C   0  0  0  0  0  0  0  0  0
    1.8975    1.2417    0.0000 N   0  0  0  0  0  0  0  0  0
    1.8975    0.4167    0.0000 C   0  0  0  0  0  0  0  0  0
    1.1830    0.0042    0.0000 C   0  0  0  0  0  0  0  0  0
    2.6119    1.6542    0.0000 C   0  0  0  0  0  0  0  0  0
    3.3264    1.2417    0.0000 C   0  0  0  0  0  0  0  0  0
    3.3264    0.4167    0.0000 O   0  0  0  0  0  0  0  0  0
    4.0409    1.6542    0.0000 C   0  0  0  0  0  0  0  0  0
    4.7553    1.2417    0.0000 C   0  0  0  0  0  0  0  0  0
    4.7553    0.4167    0.0000 O   0  0  0  0  0  0  0  0  0
    5.4698    1.6542    0.0000 C   0  0  0  0  0  0  0  0  0
    6.1843    1.2417    0.0000 N   0  0  0  0  0  0  0  0  0
    6.8988    1.6542    0.0000 C   0  0  0  0  0  0  0  0  0
    7.6132    1.2417    0.0000 C   0  0  0  0  0  0  0  0  0
    7.6132    0.4167    0.0000 C   0  0  0  0  0  0  0  0  0
    6.8988    0.0042    0.0000 C   0  0  0  0  0  0  0  0  0
    6.1843    0.4167    0.0000 C   0  0  0  0  0  0  0  0  0
    5.4698    0.0042    0.0000 O   0  0  0  0  0  0  0  0  0
  1  2  1  0  0  0  0
  1  5  1  0  0  0  0
  2  3  1  0  0  0  0
  2  4  1  0  0  0  0
  5  6  4  0  0  0  0
  5 10  4  0  0  0  0
  6  7  4  0  0  0  0
  7  8  4  0  0  0  0
  8  9  4  0  0  0  0
  9 10  4  0  0  0  0
 10 11  1  0  0  0  0
 11 12  1  0  0  0  0
 11 16  1  0  0  0  0
 12 13  1  0  0  0  0
 13 14  1  0  0  0  0
 14 15  1  0  0  0  0
 14 17  1  0  0  0  0
 15 16  1  0  0  0  0
 17 18  1  0  0  0  0
 18 19  1  0  0  0  0
 18 20  1  0  0  0  0
 20 21  1  0  0  0  0
 21 22  2  0  0  0  0
 21 23  1  0  0  0  0
 23 24  1  0  0  0  0
 24 25  1  0  0  0  0
 24 29  1  0  0  0  0
 25 26  1  0  0  0  0
 26 27  1  0  0  0  0
 27 28  1  0  0  0  0
 28 29  1  0  0  0  0
 29 30  2  0  0  0  0
M  END
>  <Name_Molregno>
10124

>  <Alpha-1A>
7.55

>  <Alpha-1B>
5

$$$$
10249
  Marvin  02231216192D 0   1.00000     0.00000     0

 29 31  0  0  0  0  0  0  0  0999 V2000
   -5.3373   -1.1161    0.0000 O   0  0  0  0  0  0  0  0  0
   -5.3373   -1.9411    0.0000 C   0  0  0  0  0  0  0  0  0
   -4.6228   -2.3536    0.0000 C   0  0  0  0  0  0  0  0  0
   -6.0518   -2.3536    0.0000 C   0  0  0  0  0  0  0  0  0
   -6.0518   -0.7036    0.0000 C   0  0  0  0  0  0  0  0  0
   -6.7662   -1.1161    0.0000 C   0  0  0  0  0  0  0  0  0
   -7.4807   -0.7036    0.0000 C   0  0  0  0  0  0  0  0  0
   -7.4807    0.1214    0.0000 C   0  0  0  0  0  0  0  0  0
   -6.7662    0.5339    0.0000 C   0  0  0  0  0  0  0  0  0
   -6.0518    0.1214    0.0000 C   0  0  0  0  0  0  0  0  0
   -5.3373    0.5339    0.0000 N   0  0  0  0  0  0  0  0  0
   -5.3373    1.3589    0.0000 C   0  0  0  0  0  0  0  0  0
   -4.6228    1.7714    0.0000 C   0  0  0  0  0  0  0  0  0
   -3.9084    1.3589    0.0000 N   0  0  0  0  0  0  0  0  0
   -3.9084    0.5339    0.0000 C   0  0  0  0  0  0  0  0  0
   -4.6228    0.1214    0.0000 C   0  0  0  0  0  0  0  0  0
   -3.1939    1.7714    0.0000 C   0  0  0  0  0  0  0  0  0
   -2.4794    1.3589    0.0000 C   0  0  0  0  0  0  0  0  0
   -1.7649    1.7714    0.0000 O   0  0  0  0  0  0  0  0  0
   -1.0505    1.3589    0.0000 C   0  0  0  0  0  0  0  0  0
   -1.0505    0.5339    0.0000 O   0  0  0  0  0  0  0  0  0
   -0.3360    1.7714    0.0000 C   0  0  0  0  0  0  0  0  0
    0.3785    1.3589    0.0000 N   0  0  0  0  0  0  0  0  0
    1.0929    1.7714    0.0000 C   0  0  0  0  0  0  0  0  0
    1.8074    1.3589    0.0000 C   0  0  0  0  0  0  0  0  0
    1.8074    0.5339    0.0000 C   0  0  0  0  0  0  0  0  0
    1.0929    0.1214    0.0000 C   0  0  0  0  0  0  0  0  0
    0.3785    0.5339    0.0000 C   0  0  0  0  0  0  0  0  0
   -0.3360    0.1214    0.0000 O   0  0  0  0  0  0  0  0  0
  1  2  1  0  0  0  0
  1  5  1  0  0  0  0
  2  3  1  0  0  0  0
  2  4  1  0  0  0  0
  5  6  4  0  0  0  0
  5 10  4  0  0  0  0
  6  7  4  0  0  0  0
  7  8  4  0  0  0  0
  8  9  4  0  0  0  0
  9 10  4  0  0  0  0
 10 11  1  0  0  0  0
 11 12  1  0  0  0  0
 11 16  1  0  0  0  0
 12 13  1  0  0  0  0
 13 14  1  0  0  0  0
 14 15  1  0  0  0  0
 14 17  1  0  0  0  0
 15 16  1  0  0  0  0
 17 18  1  0  0  0  0
 18 19  1  0  0  0  0
 19 20  1  0  0  0  0
 20 21  2  0  0  0  0
 20 22  1  0  0  0  0
 22 23  1  0  0  0  0
 23 24  1  0  0  0  0
 23 28  1  0  0  0  0
 24 25  1  0  0  0  0
 25 26  1  0  0  0  0
 26 27  1  0  0  0  0
 27 28  1  0  0  0  0
 28 29  2  0  0  0  0
M  END
>  <Name_Molregno>
10249

>  <Alpha-1A>
7.42

>  <Alpha-1B>
5.65

$$$$
10261
  Marvin  02231216192D 0   1.00000     0.00000     0

 32 34  0  0  0  0  0  0  0  0999 V2000
    0.4225   -2.4141    0.0000 F   0  0  0  0  0  0  0  0  0
    1.1369   -2.0016    0.0000 C   0  0  0  0  0  0  0  0  0
    1.1369   -1.1766    0.0000 C   0  0  0  0  0  0  0  0  0
    1.8514   -0.7641    0.0000 C   0  0  0  0  0  0  0  0  0
    1.8514    0.0609    0.0000 O   0  0  0  0  0  0  0  0  0
    1.1369    0.4734    0.0000 C   0  0  0  0  0  0  0  0  0
    1.1369    1.2984    0.0000 C   0  0  0  0  0  0  0  0  0
    1.1369    2.1234    0.0000 F   0  0  0  0  0  0  0  0  0
    0.3119    1.2984    0.0000 F   0  0  0  0  0  0  0  0  0
    1.9619    1.2984    0.0000 F   0  0  0  0  0  0  0  0  0
    2.5659   -1.1766    0.0000 C   0  0  0  0  0  0  0  0  0
    3.2804   -0.7641    0.0000 N   0  0  0  0  0  0  0  0  0
    3.2804    0.0609    0.0000 C   0  0  0  0  0  0  0  0  0
    3.9948    0.4734    0.0000 C   0  0  0  0  0  0  0  0  0
    4.7093    0.0609    0.0000 N   0  0  0  0  0  0  0  0  0
    4.7093   -0.7641    0.0000 C   0  0  0  0  0  0  0  0  0
    3.9948   -1.1766    0.0000 C   0  0  0  0  0  0  0  0  0
    5.4238    0.4734    0.0000 C   0  0  0  0  0  0  0  0  0
    6.1382    0.0609    0.0000 C   0  0  0  0  0  0  0  0  0
    6.8527    0.4734    0.0000 N   0  0  0  0  0  0  0  0  0
    7.5672    0.0609    0.0000 C   0  0  0  0  0  0  0  0  0
    7.5672   -0.7641    0.0000 O   0  0  0  0  0  0  0  0  0
    8.2817    0.4734    0.0000 C   0  0  0  0  0  0  0  0  0
    8.9961    0.0609    0.0000 N   0  0  0  0  0  0  0  0  0
    9.7106    0.4734    0.0000 C   0  0  0  0  0  0  0  0  0
   10.4251    0.0609    0.0000 C   0  0  0  0  0  0  0  0  0
   10.4251   -0.7641    0.0000 C   0  0  0  0  0  0  0  0  0
    9.7106   -1.1766    0.0000 C   0  0  0  0  0  0  0  0  0
    8.9961   -0.7641    0.0000 C   0  0  0  0  0  0  0  0  0
    8.2817   -1.1766    0.0000 O   0  0  0  0  0  0  0  0  0
    2.5659   -2.0016    0.0000 C   0  0  0  0  0  0  0  0  0
    1.8514   -2.4141    0.0000 C   0  0  0  0  0  0  0  0  0
  1  2  1  0  0  0  0
  2  3  4  0  0  0  0
  2 32  4  0  0  0  0
  3  4  4  0  0  0  0
  4  5  1  0  0  0  0
  4 11  4  0  0  0  0
  5  6  1  0  0  0  0
  6  7  1  0  0  0  0
  7  8  1  0  0  0  0
  7  9  1  0  0  0  0
  7 10  1  0  0  0  0
 11 12  1  0  0  0  0
 11 31  4  0  0  0  0
 12 13  1  0  0  0  0
 12 17  1  0  0  0  0
 13 14  1  0  0  0  0
 14 15  1  0  0  0  0
 15 16  1  0  0  0  0
 15 18  1  0  0  0  0
 16 17  1  0  0  0  0
 18 19  1  0  0  0  0
 19 20  1  0  0  0  0
 20 21  1  0  0  0  0
 21 22  2  0  0  0  0
 21 23  1  0  0  0  0
 23 24  1  0  0  0  0
 24 25  1  0  0  0  0
 24 29  1  0  0  0  0
 25 26  1  0  0  0  0
 26 27  1  0  0  0  0
 27 28  1  0  0  0  0
 28 29  1  0  0  0  0
 29 30  2  0  0  0  0
 31 32  4  0  0  0  0
M  END
>  <Name_Molregno>
10261

>  <Alpha-1A>
6.89

>  <Alpha-1B>
5

$$$$
10311
  Marvin  02231216192D 0   1.00000     0.00000     0

 30 32  0  0  0  0  0  0  0  0999 V2000
   -5.6686   -1.8787    0.0000 O   0  0  0  0  0  0  0  0  0
   -5.6686   -2.7037    0.0000 C   0  0  0  0  0  0  0  0  0
   -4.9541   -3.1162    0.0000 C   0  0  0  0  0  0  0  0  0
   -6.3830   -3.1162    0.0000 C   0  0  0  0  0  0  0  0  0
   -6.3830   -1.4662    0.0000 C   0  0  0  0  0  0  0  0  0
   -7.0975   -1.8787    0.0000 C   0  0  0  0  0  0  0  0  0
   -7.8120   -1.4662    0.0000 C   0  0  0  0  0  0  0  0  0
   -7.8120   -0.6412    0.0000 C   0  0  0  0  0  0  0  0  0
   -7.0975   -0.2287    0.0000 C   0  0  0  0  0  0  0  0  0
   -6.3830   -0.6412    0.0000 C   0  0  0  0  0  0  0  0  0
   -5.6686   -0.2287    0.0000 N   0  0  0  0  0  0  0  0  0
   -5.6686    0.5963    0.0000 C   0  0  0  0  0  0  0  0  0
   -4.9541    1.0088    0.0000 C   0  0  0  0  0  0  0  0  0
   -4.2396    0.5963    0.0000 N   0  0  0  0  0  0  0  0  0
   -4.2396   -0.2287    0.0000 C   0  0  0  0  0  0  0  0  0
   -4.9541   -0.6412    0.0000 C   0  0  0  0  0  0  0  0  0
   -3.5251    1.0088    0.0000 C   0  0  0  0  0  0  0  0  0
   -2.8107    0.5963    0.0000 C   0  0  0  0  0  0  0  0  0
   -2.0962    1.0088    0.0000 N   0  0  0  0  0  0  0  0  0
   -1.3817    0.5963    0.0000 C   0  0  0  0  0  0  0  0  0
   -1.3817   -0.2287    0.0000 O   0  0  0  0  0  0  0  0  0
   -0.6673    1.0088    0.0000 C   0  0  0  0  0  0  0  0  0
    0.0472    0.5963    0.0000 N   0  0  0  0  0  0  0  0  0
    0.7289    1.0611    0.0000 C   0  0  0  0  0  0  0  0  0
    1.5172    0.8179    0.0000 C   0  0  0  0  0  0  0  0  0
    1.8186    0.0499    0.0000 C   0  0  0  0  0  0  0  0  0
    1.4061   -0.6646    0.0000 C   0  0  0  0  0  0  0  0  0
    0.5903   -0.7875    0.0000 C   0  0  0  0  0  0  0  0  0
   -0.0144   -0.2264    0.0000 C   0  0  0  0  0  0  0  0  0
   -0.7824   -0.5278    0.0000 O   0  0  0  0  0  0  0  0  0
  1  2  1  0  0  0  0
  1  5  1  0  0  0  0
  2  3  1  0  0  0  0
  2  4  1  0  0  0  0
  5  6  4  0  0  0  0
  5 10  4  0  0  0  0
  6  7  4  0  0  0  0
  7  8  4  0  0  0  0
  8  9  4  0  0  0  0
  9 10  4  0  0  0  0
 10 11  1  0  0  0  0
 11 12  1  0  0  0  0
 11 16  1  0  0  0  0
 12 13  1  0  0  0  0
 13 14  1  0  0  0  0
 14 15  1  0  0  0  0
 14 17  1  0  0  0  0
 15 16  1  0  0  0  0
 17 18  1  0  0  0  0
 18 19  1  0  0  0  0
 19 20  1  0  0  0  0
 20 21  2  0  0  0  0
 20 22  1  0  0  0  0
 22 23  1  0  0  0  0
 23 24  1  0  0  0  0
 23 29  1  0  0  0  0
 24 25  1  0  0  0  0
 25 26  1  0  0  0  0
 26 27  1  0  0  0  0
 27 28  1  0  0  0  0
 28 29  1  0  0  0  0
 29 30  2  0  0  0  0
M  END
>  <Name_Molregno>
10311

>  <Alpha-1A>
7.7

>  <Alpha-1B>
5.45

$$$$
10312
  Marvin  02231216192D 0   1.00000     0.00000     0

 28 30  0  0  0  0  0  0  0  0999 V2000
   -7.7577   -0.2628    0.0000 O   0  0  0  0  0  0  0  0  0
   -8.4721   -0.6753    0.0000 C   0  0  0  0  0  0  0  0  0
   -7.7577    0.5622    0.0000 C   0  0  0  0  0  0  0  0  0
   -8.4721    0.9747    0.0000 C   0  0  0  0  0  0  0  0  0
   -8.4721    1.7997    0.0000 C   0  0  0  0  0  0  0  0  0
   -7.7577    2.2122    0.0000 C   0  0  0  0  0  0  0  0  0
   -7.0432    1.7997    0.0000 C   0  0  0  0  0  0  0  0  0
   -7.0432    0.9747    0.0000 C   0  0  0  0  0  0  0  0  0
   -6.3287    0.5622    0.0000 N   0  0  0  0  0  0  0  0  0
   -5.6142    0.9747    0.0000 C   0  0  0  0  0  0  0  0  0
   -4.8998    0.5622    0.0000 C   0  0  0  0  0  0  0  0  0
   -4.8998   -0.2628    0.0000 N   0  0  0  0  0  0  0  0  0
   -5.6142   -0.6753    0.0000 C   0  0  0  0  0  0  0  0  0
   -6.3287   -0.2628    0.0000 C   0  0  0  0  0  0  0  0  0
   -4.1853   -0.6753    0.0000 C   0  0  0  0  0  0  0  0  0
   -3.4708   -0.2628    0.0000 C   0  0  0  0  0  0  0  0  0
   -2.7564   -0.6753    0.0000 C   0  0  0  0  0  0  0  0  0
   -2.0419   -0.2628    0.0000 N   0  0  0  0  0  0  0  0  0
   -1.3274   -0.6753    0.0000 C   0  0  0  0  0  0  0  0  0
   -1.3274   -1.5003    0.0000 O   0  0  0  0  0  0  0  0  0
   -0.6129   -0.2628    0.0000 C   0  0  0  0  0  0  0  0  0
    0.1015   -0.6753    0.0000 N   0  0  0  0  0  0  0  0  0
    0.8160   -0.2628    0.0000 C   0  0  0  0  0  0  0  0  0
    1.5305   -0.6753    0.0000 C   0  0  0  0  0  0  0  0  0
    1.5305   -1.5003    0.0000 C   0  0  0  0  0  0  0  0  0
    0.8160   -1.9128    0.0000 C   0  0  0  0  0  0  0  0  0
    0.1015   -1.5003    0.0000 C   0  0  0  0  0  0  0  0  0
   -0.6129   -1.9128    0.0000 O   0  0  0  0  0  0  0  0  0
  1  2  1  0  0  0  0
  1  3  1  0  0  0  0
  3  4  4  0  0  0  0
  3  8  4  0  0  0  0
  4  5  4  0  0  0  0
  5  6  4  0  0  0  0
  6  7  4  0  0  0  0
  7  8  4  0  0  0  0
  8  9  1  0  0  0  0
  9 10  1  0  0  0  0
  9 14  1  0  0  0  0
 10 11  1  0  0  0  0
 11 12  1  0  0  0  0
 12 13  1  0  0  0  0
 12 15  1  0  0  0  0
 13 14  1  0  0  0  0
 15 16  1  0  0  0  0
 16 17  1  0  0  0  0
 17 18  1  0  0  0  0
 18 19  1  0  0  0  0
 19 20  2  0  0  0  0
 19 21  1  0  0  0  0
 21 22  1  0  0  0  0
 22 23  1  0  0  0  0
 22 27  1  0  0  0  0
 23 24  1  0  0  0  0
 24 25  1  0  0  0  0
 25 26  1  0  0  0  0
 26 27  1  0  0  0  0
 27 28  2  0  0  0  0
M  END
>  <Name_Molregno>
10312

>  <Alpha-1A>
7.01

>  <Alpha-1B>
5

$$$$
10313
  Marvin  02231216192D 0   1.00000     0.00000     0

 29 31  0  0  0  0  0  0  0  0999 V2000
   -5.3373   -1.1161    0.0000 O   0  0  0  0  0  0  0  0  0
   -5.3373   -1.9411    0.0000 C   0  0  0  0  0  0  0  0  0
   -4.6228   -2.3536    0.0000 C   0  0  0  0  0  0  0  0  0
   -6.0518   -2.3536    0.0000 C   0  0  0  0  0  0  0  0  0
   -6.0518   -0.7036    0.0000 C   0  0  0  0  0  0  0  0  0
   -6.7662   -1.1161    0.0000 C   0  0  0  0  0  0  0  0  0
   -7.4807   -0.7036    0.0000 C   0  0  0  0  0  0  0  0  0
   -7.4807    0.1214    0.0000 C   0  0  0  0  0  0  0  0  0
   -6.7662    0.5339    0.0000 C   0  0  0  0  0  0  0  0  0
   -6.0518    0.1214    0.0000 C   0  0  0  0  0  0  0  0  0
   -5.3373    0.5339    0.0000 N   0  0  0  0  0  0  0  0  0
   -5.3373    1.3589    0.0000 C   0  0  0  0  0  0  0  0  0
   -4.6228    1.7714    0.0000 C   0  0  0  0  0  0  0  0  0
   -3.9084    1.3589    0.0000 N   0  0  0  0  0  0  0  0  0
   -3.9084    0.5339    0.0000 C   0  0  0  0  0  0  0  0  0
   -4.6228    0.1214    0.0000 C   0  0  0  0  0  0  0  0  0
   -3.1939    1.7714    0.0000 C   0  0  0  0  0  0  0  0  0
   -2.4794    1.3589    0.0000 C   0  0  0  0  0  0  0  0  0
   -1.7649    1.7714    0.0000 N   0  0  0  0  0  0  0  0  0
   -1.0505    1.3589    0.0000 C   0  0  0  0  0  0  0  0  0
   -1.0505    0.5339    0.0000 O   0  0  0  0  0  0  0  0  0
   -0.3360    1.7714    0.0000 C   0  0  0  0  0  0  0  0  0
    0.3785    1.3589    0.0000 N   0  0  0  0  0  0  0  0  0
    1.0929    1.7714    0.0000 C   0  0  0  0  0  0  0  0  0
    1.8074    1.3589    0.0000 C   0  0  0  0  0  0  0  0  0
    1.8074    0.5339    0.0000 C   0  0  0  0  0  0  0  0  0
    1.0929    0.1214    0.0000 C   0  0  0  0  0  0  0  0  0
    0.3785    0.5339    0.0000 C   0  0  0  0  0  0  0  0  0
   -0.3360    0.1214    0.0000 O   0  0  0  0  0  0  0  0  0
  1  2  1  0  0  0  0
  1  5  1  0  0  0  0
  2  3  1  0  0  0  0
  2  4  1  0  0  0  0
  5  6  4  0  0  0  0
  5 10  4  0  0  0  0
  6  7  4  0  0  0  0
  7  8  4  0  0  0  0
  8  9  4  0  0  0  0
  9 10  4  0  0  0  0
 10 11  1  0  0  0  0
 11 12  1  0  0  0  0
 11 16  1  0  0  0  0
 12 13  1  0  0  0  0
 13 14  1  0  0  0  0
 14 15  1  0  0  0  0
 14 17  1  0  0  0  0
 15 16  1  0  0  0  0
 17 18  1  0  0  0  0
 18 19  1  0  0  0  0
 19 20  1  0  0  0  0
 20 21  2  0  0  0  0
 20 22  1  0  0  0  0
 22 23  1  0  0  0  0
 23 24  1  0  0  0  0
 23 28  1  0  0  0  0
 24 25  1  0  0  0  0
 25 26  1  0  0  0  0
 26 27  1  0  0  0  0
 27 28  1  0  0  0  0
 28 29  2  0  0  0  0
M  END
>  <Name_Molregno>
10313

>  <Alpha-1A>
8.05

>  <Alpha-1B>
4.34

$$$$
10340
  Marvin  02231216192D 0   1.00000     0.00000     0

 33 35  0  0  1  0  0  0  0  0999 V2000
   -6.4393   -1.7688    0.0000 O   0  0  0  0  0  0  0  0  0
   -6.4393   -2.5938    0.0000 C   0  0  0  0  0  0  0  0  0
   -5.7249   -3.0063    0.0000 C   0  0  0  0  0  0  0  0  0
   -7.1538   -3.0063    0.0000 C   0  0  0  0  0  0  0  0  0
   -7.1538   -1.3563    0.0000 C   0  0  0  0  0  0  0  0  0
   -7.8683   -1.7688    0.0000 C   0  0  0  0  0  0  0  0  0
   -8.5828   -1.3563    0.0000 C   0  0  0  0  0  0  0  0  0
   -8.5828   -0.5313    0.0000 C   0  0  0  0  0  0  0  0  0
   -7.8683   -0.1188    0.0000 C   0  0  0  0  0  0  0  0  0
   -7.1538   -0.5313    0.0000 C   0  0  0  0  0  0  0  0  0
   -6.4393   -0.1188    0.0000 N   0  0  0  0  0  0  0  0  0
   -6.4393    0.7062    0.0000 C   0  0  0  0  0  0  0  0  0
   -5.7249    1.1187    0.0000 C   0  0  0  0  0  0  0  0  0
   -5.0104    0.7062    0.0000 N   0  0  0  0  0  0  0  0  0
   -5.0104   -0.1188    0.0000 C   0  0  0  0  0  0  0  0  0
   -5.7249   -0.5313    0.0000 C   0  0  0  0  0  0  0  0  0
   -4.2959    1.1187    0.0000 C   0  0  0  0  0  0  0  0  0
   -3.5815    0.7062    0.0000 C   0  0  0  0  0  0  0  0  0
   -2.8670    1.1187    0.0000 N   0  0  0  0  0  0  0  0  0
   -2.1525    0.7062    0.0000 C   0  0  0  0  0  0  0  0  0
   -2.1525   -0.1188    0.0000 O   0  0  0  0  0  0  0  0  0
   -1.4380    1.1187    0.0000 C   0  0  0  0  0  0  0  0  0
   -0.7236    0.7062    0.0000 N   0  0  0  0  0  0  0  0  0
    0.0301    1.0418    0.0000 C   0  0  0  0  0  0  0  0  0
    0.5821    0.4287    0.0000 C   0  0  0  0  0  0  0  0  0
    0.1696   -0.2858    0.0000 C   0  0  0  0  0  0  0  0  0
   -0.6373   -0.1143    0.0000 C   0  0  0  0  0  0  0  0  0
   -1.2504   -0.6663    0.0000 O   0  0  0  0  0  0  0  0  0
    0.2016    1.8487    0.0000 C   0  0  0  0  0  0  0  0  0
   -0.4115    2.4008    0.0000 O   0  0  0  0  0  0  0  0  0
   -0.2399    3.2077    0.0000 C   0  0  0  0  0  0  0  0  0
   -0.8530    3.7598    0.0000 C   0  0  0  0  0  0  0  0  0
    0.9863    2.1037    0.0000 O   0  0  0  0  0  0  0  0  0
  1  2  1  0  0  0  0
  1  5  1  0  0  0  0
  2  3  1  0  0  0  0
  2  4  1  0  0  0  0
  5  6  4  0  0  0  0
  5 10  4  0  0  0  0
  6  7  4  0  0  0  0
  7  8  4  0  0  0  0
  8  9  4  0  0  0  0
  9 10  4  0  0  0  0
 10 11  1  0  0  0  0
 11 12  1  0  0  0  0
 11 16  1  0  0  0  0
 12 13  1  0  0  0  0
 13 14  1  0  0  0  0
 14 15  1  0  0  0  0
 14 17  1  0  0  0  0
 15 16  1  0  0  0  0
 17 18  1  0  0  0  0
 18 19  1  0  0  0  0
 19 20  1  0  0  0  0
 20 21  2  0  0  0  0
 20 22  1  0  0  0  0
 22 23  1  0  0  0  0
 23 24  1  0  0  0  0
 23 27  1  0  0  0  0
 24 25  1  0  0  0  0
 24 29  1  0  0  0  0
 25 26  1  0  0  0  0
 26 27  1  0  0  0  0
 27 28  2  0  0  0  0
 29 30  1  0  0  0  0
 29 33  2  0  0  0  0
 30 31  1  0  0  0  0
 31 32  1  0  0  0  0
M  END
>  <Name_Molregno>
10340

>  <Alpha-1A>
7.7

>  <Alpha-1B>
4.58

$$$$
12837
  Marvin  02231216192D 0   1.00000     0.00000     0

 34 38  0  0  0  0  0  0  0  0999 V2000
    0.4737    1.9253    0.0000 S   0  0  0  0  0  0  0  0  0
   -0.0112    1.2579    0.0000 C   0  0  0  0  0  0  0  0  0
    0.4737    0.5904    0.0000 C   0  0  0  0  0  0  0  0  0
    1.2583    0.8454    0.0000 C   0  0  0  0  0  0  0  0  0
    1.2583    1.6704    0.0000 C   0  0  0  0  0  0  0  0  0
    1.9728    2.0829    0.0000 N   0  0  0  0  0  0  0  0  0
    1.9728    2.9079    0.0000 C   0  0  0  0  0  0  0  0  0
    2.6873    1.6704    0.0000 C   0  0  0  0  0  0  0  0  0
    3.4017    2.0829    0.0000 O   0  0  0  0  0  0  0  0  0
    2.6873    0.8454    0.0000 N   0  0  0  0  0  0  0  0  0
    3.4017    0.4329    0.0000 C   0  0  0  0  0  0  0  0  0
    4.1162    0.8454    0.0000 C   0  0  0  0  0  0  0  0  0
    4.8307    0.4329    0.0000 N   0  0  0  0  0  0  0  0  0
    5.5451    0.8454    0.0000 C   0  0  0  0  0  0  0  0  0
    6.2596    0.4329    0.0000 C   0  0  0  0  0  0  0  0  0
    6.2596   -0.3921    0.0000 N   0  0  0  0  0  0  0  0  0
    5.5451   -0.8046    0.0000 C   0  0  0  0  0  0  0  0  0
    4.8307   -0.3921    0.0000 C   0  0  0  0  0  0  0  0  0
    6.9741   -0.8046    0.0000 C   0  0  0  0  0  0  0  0  0
    7.6886   -0.3921    0.0000 C   0  0  0  0  0  0  0  0  0
    8.4030   -0.8046    0.0000 C   0  0  0  0  0  0  0  0  0
    8.4030   -1.6296    0.0000 C   0  0  0  0  0  0  0  0  0
    7.6886   -2.0421    0.0000 C   0  0  0  0  0  0  0  0  0
    6.9741   -1.6296    0.0000 C   0  0  0  0  0  0  0  0  0
    6.2596   -2.0421    0.0000 O   0  0  0  0  0  0  0  0  0
    6.2596   -2.8671    0.0000 C   0  0  0  0  0  0  0  0  0
    1.9728    0.4329    0.0000 C   0  0  0  0  0  0  0  0  0
    1.9728   -0.3921    0.0000 O   0  0  0  0  0  0  0  0  0
    0.2188   -0.1942    0.0000 C   0  0  0  0  0  0  0  0  0
    0.7708   -0.8073    0.0000 C   0  0  0  0  0  0  0  0  0
    0.5159   -1.5919    0.0000 C   0  0  0  0  0  0  0  0  0
   -0.2911   -1.7634    0.0000 C   0  0  0  0  0  0  0  0  0
   -0.8431   -1.1503    0.0000 C   0  0  0  0  0  0  0  0  0
   -0.5882   -0.3657    0.0000 C   0  0  0  0  0  0  0  0  0
  1  2  4  0  0  0  0
  1  5  4  0  0  0  0
  2  3  4  0  0  0  0
  3  4  4  0  0  0  0
  3 29  1  0  0  0  0
  4  5  4  0  0  0  0
  4 27  1  0  0  0  0
  5  6  1  0  0  0  0
  6  7  1  0  0  0  0
  6  8  1  0  0  0  0
  8  9  2  0  0  0  0
  8 10  1  0  0  0  0
 10 11  1  0  0  0  0
 10 27  1  0  0  0  0
 11 12  1  0  0  0  0
 12 13  1  0  0  0  0
 13 14  1  0  0  0  0
 13 18  1  0  0  0  0
 14 15  1  0  0  0  0
 15 16  1  0  0  0  0
 16 17  1  0  0  0  0
 16 19  1  0  0  0  0
 17 18  1  0  0  0  0
 19 20  4  0  0  0  0
 19 24  4  0  0  0  0
 20 21  4  0  0  0  0
 21 22  4  0  0  0  0
 22 23  4  0  0  0  0
 23 24  4  0  0  0  0
 24 25  1  0  0  0  0
 25 26  1  0  0  0  0
 27 28  2  0  0  0  0
 29 30  4  0  0  0  0
 29 34  4  0  0  0  0
 30 31  4  0  0  0  0
 31 32  4  0  0  0  0
 32 33  4  0  0  0  0
 33 34  4  0  0  0  0
M  END
>  <Name_Molregno>
12837

>  <Alpha-1A>
8.51

>  <Alpha-1B>
8.35

$$$$
12871
  Marvin  02231216192D 0   1.00000     0.00000     0

 30 33  0  0  1  0  0  0  0  0999 V2000
   -0.4489    1.5830    0.0000 F   0  0  0  0  0  0  0  0  0
   -0.0364    0.8685    0.0000 C   0  0  0  0  0  0  0  0  0
    0.7886    0.8685    0.0000 C   0  0  0  0  0  0  0  0  0
    1.2011    0.1541    0.0000 C   0  0  0  0  0  0  0  0  0
    2.0261    0.1541    0.0000 F   0  0  0  0  0  0  0  0  0
    0.7886   -0.5604    0.0000 C   0  0  0  0  0  0  0  0  0
    1.2011   -1.2749    0.0000 F   0  0  0  0  0  0  0  0  0
   -0.0364   -0.5604    0.0000 C   0  0  0  0  0  0  0  0  0
   -0.4489    0.1541    0.0000 C   0  0  0  0  0  0  0  0  0
   -1.2739    0.1541    0.0000 N   0  0  0  0  0  0  0  0  0
   -1.6864   -0.5604    0.0000 C   0  0  0  0  0  0  0  0  0
   -2.5114   -0.5604    0.0000 C   0  0  0  0  0  0  0  0  0
   -2.9239    0.1541    0.0000 N   0  0  0  0  0  0  0  0  0
   -2.5114    0.8685    0.0000 C   0  0  0  0  0  0  0  0  0
   -1.6864    0.8685    0.0000 C   0  0  0  0  0  0  0  0  0
   -3.7489    0.1541    0.0000 C   0  0  0  0  0  0  0  0  0
   -4.1614   -0.5604    0.0000 C   0  0  0  0  0  0  0  0  0
   -4.9864   -0.5604    0.0000 N   0  0  0  0  0  0  0  0  0
   -5.3989   -1.2749    0.0000 C   0  0  0  0  0  0  0  0  0
   -4.9864   -1.9893    0.0000 O   0  0  0  0  0  0  0  0  0
   -6.2239   -1.2749    0.0000 C   0  0  0  0  0  0  0  0  0
   -6.6364   -0.5604    0.0000 C   0  0  0  0  0  0  0  0  0
   -6.2239    0.1541    0.0000 C   0  0  0  0  0  0  0  0  0
   -5.3989    0.1541    0.0000 C   0  0  0  0  0  0  0  0  0
   -4.9864    0.8685    0.0000 O   0  0  0  0  0  0  0  0  0
   -7.1213   -1.2278    0.0000 C   0  0  0  0  0  0  0  0  0
   -7.9059   -0.9729    0.0000 C   0  0  0  0  0  0  0  0  0
   -7.9059   -0.1479    0.0000 C   0  0  0  0  0  0  0  0  0
   -7.1213    0.1070    0.0000 C   0  0  0  0  0  0  0  0  0
   -3.7489   -1.2749    0.0000 C   0  0  0  0  0  0  0  0  0
  1  2  1  0  0  0  0
  2  3  4  0  0  0  0
  2  9  4  0  0  0  0
  3  4  4  0  0  0  0
  4  5  1  0  0  0  0
  4  6  4  0  0  0  0
  6  7  1  0  0  0  0
  6  8  4  0  0  0  0
  8  9  4  0  0  0  0
  9 10  1  0  0  0  0
 10 11  1  0  0  0  0
 10 15  1  0  0  0  0
 11 12  1  0  0  0  0
 12 13  1  0  0  0  0
 13 14  1  0  0  0  0
 13 16  1  0  0  0  0
 14 15  1  0  0  0  0
 16 17  1  0  0  0  0
 17 18  1  0  0  0  0
 17 30  1  0  0  0  0
 18 19  1  0  0  0  0
 18 24  1  0  0  0  0
 19 20  2  0  0  0  0
 19 21  1  0  0  0  0
 21 22  1  0  0  0  0
 22 23  1  0  0  0  0
 22 26  1  0  0  0  0
 22 29  1  0  0  0  0
 23 24  1  0  0  0  0
 24 25  2  0  0  0  0
 26 27  1  0  0  0  0
 27 28  1  0  0  0  0
 28 29  1  0  0  0  0
M  END
>  <Name_Molregno>
12871

>  <5-HT1A>
6.52

>  <Alpha-1A>
5.74

>  <Alpha-1B>
6.78

$$$$
12872
  Marvin  02231216192D 0   1.00000     0.00000     0

 28 31  0  0  0  0  0  0  0  0999 V2000
   -0.3424    1.6152    0.0000 O   0  0  0  0  0  0  0  0  0
    0.0701    2.3297    0.0000 C   0  0  0  0  0  0  0  0  0
    0.0701    0.9008    0.0000 C   0  0  0  0  0  0  0  0  0
    0.8951    0.9008    0.0000 C   0  0  0  0  0  0  0  0  0
    1.3076    0.1863    0.0000 C   0  0  0  0  0  0  0  0  0
    0.8951   -0.5282    0.0000 C   0  0  0  0  0  0  0  0  0
    0.0701   -0.5282    0.0000 C   0  0  0  0  0  0  0  0  0
   -0.3424    0.1863    0.0000 C   0  0  0  0  0  0  0  0  0
   -1.1674    0.1863    0.0000 N   0  0  0  0  0  0  0  0  0
   -1.5799   -0.5282    0.0000 C   0  0  0  0  0  0  0  0  0
   -2.4049   -0.5282    0.0000 C   0  0  0  0  0  0  0  0  0
   -2.8174    0.1863    0.0000 N   0  0  0  0  0  0  0  0  0
   -2.4049    0.9008    0.0000 C   0  0  0  0  0  0  0  0  0
   -1.5799    0.9008    0.0000 C   0  0  0  0  0  0  0  0  0
   -3.6424    0.1863    0.0000 C   0  0  0  0  0  0  0  0  0
   -4.0549   -0.5282    0.0000 C   0  0  0  0  0  0  0  0  0
   -4.8799   -0.5282    0.0000 N   0  0  0  0  0  0  0  0  0
   -5.2924   -1.2426    0.0000 C   0  0  0  0  0  0  0  0  0
   -4.8799   -1.9571    0.0000 O   0  0  0  0  0  0  0  0  0
   -6.1174   -1.2426    0.0000 C   0  0  0  0  0  0  0  0  0
   -6.5299   -0.5282    0.0000 C   0  0  0  0  0  0  0  0  0
   -6.1174    0.1863    0.0000 C   0  0  0  0  0  0  0  0  0
   -5.2924    0.1863    0.0000 C   0  0  0  0  0  0  0  0  0
   -4.8799    0.9008    0.0000 O   0  0  0  0  0  0  0  0  0
   -7.0149   -1.1956    0.0000 C   0  0  0  0  0  0  0  0  0
   -7.7995   -0.9407    0.0000 C   0  0  0  0  0  0  0  0  0
   -7.7995   -0.1157    0.0000 C   0  0  0  0  0  0  0  0  0
   -7.0149    0.1393    0.0000 C   0  0  0  0  0  0  0  0  0
  1  2  1  0  0  0  0
  1  3  1  0  0  0  0
  3  4  4  0  0  0  0
  3  8  4  0  0  0  0
  4  5  4  0  0  0  0
  5  6  4  0  0  0  0
  6  7  4  0  0  0  0
  7  8  4  0  0  0  0
  8  9  1  0  0  0  0
  9 10  1  0  0  0  0
  9 14  1  0  0  0  0
 10 11  1  0  0  0  0
 11 12  1  0  0  0  0
 12 13  1  0  0  0  0
 12 15  1  0  0  0  0
 13 14  1  0  0  0  0
 15 16  1  0  0  0  0
 16 17  1  0  0  0  0
 17 18  1  0  0  0  0
 17 23  1  0  0  0  0
 18 19  2  0  0  0  0
 18 20  1  0  0  0  0
 20 21  1  0  0  0  0
 21 22  1  0  0  0  0
 21 25  1  0  0  0  0
 21 28  1  0  0  0  0
 22 23  1  0  0  0  0
 23 24  2  0  0  0  0
 25 26  1  0  0  0  0
 26 27  1  0  0  0  0
 27 28  1  0  0  0  0
M  END
>  <Name_Molregno>
12872

>  <5-HT1A>
9.17

>  <Alpha-1A>
6.55

>  <Alpha-1B>
6.56

$$$$
12886
  Marvin  02231216192D 0   1.00000     0.00000     0

 34 38  0  0  0  0  0  0  0  0999 V2000
    0.4680    1.9163    0.0000 S   0  0  0  0  0  0  0  0  0
   -0.0169    1.2488    0.0000 C   0  0  0  0  0  0  0  0  0
    0.4680    0.5814    0.0000 C   0  0  0  0  0  0  0  0  0
    1.2526    0.8363    0.0000 C   0  0  0  0  0  0  0  0  0
    1.2526    1.6613    0.0000 C   0  0  0  0  0  0  0  0  0
    1.9671    2.0738    0.0000 N   0  0  0  0  0  0  0  0  0
    2.6816    1.6613    0.0000 C   0  0  0  0  0  0  0  0  0
    3.3960    2.0738    0.0000 O   0  0  0  0  0  0  0  0  0
    2.6816    0.8363    0.0000 N   0  0  0  0  0  0  0  0  0
    3.3960    0.4238    0.0000 C   0  0  0  0  0  0  0  0  0
    4.1105    0.8363    0.0000 C   0  0  0  0  0  0  0  0  0
    4.8250    0.4238    0.0000 N   0  0  0  0  0  0  0  0  0
    5.5394    0.8363    0.0000 C   0  0  0  0  0  0  0  0  0
    6.2539    0.4238    0.0000 C   0  0  0  0  0  0  0  0  0
    6.2539   -0.4012    0.0000 N   0  0  0  0  0  0  0  0  0
    5.5394   -0.8137    0.0000 C   0  0  0  0  0  0  0  0  0
    4.8250   -0.4012    0.0000 C   0  0  0  0  0  0  0  0  0
    6.9684   -0.8137    0.0000 C   0  0  0  0  0  0  0  0  0
    7.6829   -0.4012    0.0000 C   0  0  0  0  0  0  0  0  0
    8.3973   -0.8137    0.0000 C   0  0  0  0  0  0  0  0  0
    8.3973   -1.6387    0.0000 C   0  0  0  0  0  0  0  0  0
    7.6829   -2.0512    0.0000 C   0  0  0  0  0  0  0  0  0
    6.9684   -1.6387    0.0000 C   0  0  0  0  0  0  0  0  0
    6.2539   -2.0512    0.0000 O   0  0  0  0  0  0  0  0  0
    6.2539   -2.8762    0.0000 C   0  0  0  0  0  0  0  0  0
    1.9671    0.4238    0.0000 C   0  0  0  0  0  0  0  0  0
    1.9671   -0.4012    0.0000 O   0  0  0  0  0  0  0  0  0
    0.2131   -0.2032    0.0000 C   0  0  0  0  0  0  0  0  0
    0.7651   -0.8163    0.0000 C   0  0  0  0  0  0  0  0  0
    0.5102   -1.6009    0.0000 C   0  0  0  0  0  0  0  0  0
   -0.2968   -1.7725    0.0000 C   0  0  0  0  0  0  0  0  0
   -0.8488   -1.1594    0.0000 C   0  0  0  0  0  0  0  0  0
   -0.5939   -0.3747    0.0000 C   0  0  0  0  0  0  0  0  0
    1.0622   -2.2140    0.0000 C   0  0  0  0  0  0  0  0  0
  1  2  4  0  0  0  0
  1  5  4  0  0  0  0
  2  3  4  0  0  0  0
  3  4  4  0  0  0  0
  3 28  1  0  0  0  0
  4  5  4  0  0  0  0
  4 26  1  0  0  0  0
  5  6  1  0  0  0  0
  6  7  1  0  0  0  0
  7  8  2  0  0  0  0
  7  9  1  0  0  0  0
  9 10  1  0  0  0  0
  9 26  1  0  0  0  0
 10 11  1  0  0  0  0
 11 12  1  0  0  0  0
 12 13  1  0  0  0  0
 12 17  1  0  0  0  0
 13 14  1  0  0  0  0
 14 15  1  0  0  0  0
 15 16  1  0  0  0  0
 15 18  1  0  0  0  0
 16 17  1  0  0  0  0
 18 19  4  0  0  0  0
 18 23  4  0  0  0  0
 19 20  4  0  0  0  0
 20 21  4  0  0  0  0
 21 22  4  0  0  0  0
 22 23  4  0  0  0  0
 23 24  1  0  0  0  0
 24 25  1  0  0  0  0
 26 27  2  0  0  0  0
 28 29  4  0  0  0  0
 28 33  4  0  0  0  0
 29 30  4  0  0  0  0
 30 31  4  0  0  0  0
 30 34  1  0  0  0  0
 31 32  4  0  0  0  0
 32 33  4  0  0  0  0
M  END
>  <Name_Molregno>
12886

>  <Alpha-1A>
8.38

>  <Alpha-1B>
8.04

$$$$
12902
  Marvin  02231216192D 0   1.00000     0.00000     0

 34 38  0  0  0  0  0  0  0  0999 V2000
   -0.2272   -0.3750    0.0000 S   0  0  0  0  0  0  0  0  0
   -0.7121   -1.0425    0.0000 C   0  0  0  0  0  0  0  0  0
   -0.2272   -1.7099    0.0000 C   0  0  0  0  0  0  0  0  0
    0.5575   -1.4550    0.0000 C   0  0  0  0  0  0  0  0  0
    0.5575   -0.6300    0.0000 C   0  0  0  0  0  0  0  0  0
    1.2719   -0.2175    0.0000 N   0  0  0  0  0  0  0  0  0
    1.9864   -0.6300    0.0000 C   0  0  0  0  0  0  0  0  0
    2.7009   -0.2175    0.0000 O   0  0  0  0  0  0  0  0  0
    1.9864   -1.4550    0.0000 N   0  0  0  0  0  0  0  0  0
    2.7009   -1.8675    0.0000 C   0  0  0  0  0  0  0  0  0
    3.4153   -1.4550    0.0000 C   0  0  0  0  0  0  0  0  0
    4.1298   -1.8675    0.0000 C   0  0  0  0  0  0  0  0  0
    4.8443   -1.4550    0.0000 N   0  0  0  0  0  0  0  0  0
    4.8443   -0.6300    0.0000 C   0  0  0  0  0  0  0  0  0
    5.5588   -0.2175    0.0000 C   0  0  0  0  0  0  0  0  0
    6.2732   -0.6300    0.0000 N   0  0  0  0  0  0  0  0  0
    6.2732   -1.4550    0.0000 C   0  0  0  0  0  0  0  0  0
    5.5588   -1.8675    0.0000 C   0  0  0  0  0  0  0  0  0
    6.9877   -0.2175    0.0000 C   0  0  0  0  0  0  0  0  0
    6.9877    0.6075    0.0000 C   0  0  0  0  0  0  0  0  0
    7.7022    1.0200    0.0000 C   0  0  0  0  0  0  0  0  0
    8.4166    0.6075    0.0000 C   0  0  0  0  0  0  0  0  0
    8.4166   -0.2175    0.0000 C   0  0  0  0  0  0  0  0  0
    7.7022   -0.6300    0.0000 C   0  0  0  0  0  0  0  0  0
    7.7022   -1.4550    0.0000 O   0  0  0  0  0  0  0  0  0
    8.4166   -1.8675    0.0000 C   0  0  0  0  0  0  0  0  0
    1.2719   -1.8675    0.0000 C   0  0  0  0  0  0  0  0  0
    1.2719   -2.6925    0.0000 O   0  0  0  0  0  0  0  0  0
   -0.4821   -2.4945    0.0000 C   0  0  0  0  0  0  0  0  0
    0.0699   -3.1076    0.0000 C   0  0  0  0  0  0  0  0  0
   -0.1850   -3.8922    0.0000 C   0  0  0  0  0  0  0  0  0
   -0.9920   -4.0638    0.0000 C   0  0  0  0  0  0  0  0  0
   -1.5440   -3.4507    0.0000 C   0  0  0  0  0  0  0  0  0
   -1.2891   -2.6661    0.0000 C   0  0  0  0  0  0  0  0  0
  1  2  4  0  0  0  0
  1  5  4  0  0  0  0
  2  3  4  0  0  0  0
  3  4  4  0  0  0  0
  3 29  1  0  0  0  0
  4  5  4  0  0  0  0
  4 27  1  0  0  0  0
  5  6  1  0  0  0  0
  6  7  1  0  0  0  0
  7  8  2  0  0  0  0
  7  9  1  0  0  0  0
  9 10  1  0  0  0  0
  9 27  1  0  0  0  0
 10 11  1  0  0  0  0
 11 12  1  0  0  0  0
 12 13  1  0  0  0  0
 13 14  1  0  0  0  0
 13 18  1  0  0  0  0
 14 15  1  0  0  0  0
 15 16  1  0  0  0  0
 16 17  1  0  0  0  0
 16 19  1  0  0  0  0
 17 18  1  0  0  0  0
 19 20  4  0  0  0  0
 19 24  4  0  0  0  0
 20 21  4  0  0  0  0
 21 22  4  0  0  0  0
 22 23  4  0  0  0  0
 23 24  4  0  0  0  0
 24 25  1  0  0  0  0
 25 26  1  0  0  0  0
 27 28  2  0  0  0  0
 29 30  4  0  0  0  0
 29 34  4  0  0  0  0
 30 31  4  0  0  0  0
 31 32  4  0  0  0  0
 32 33  4  0  0  0  0
 33 34  4  0  0  0  0
M  END
>  <Name_Molregno>
12902

>  <Alpha-1A>
8.07

>  <Alpha-1B>
7.8

$$$$
12912
  Marvin  02231216192D 0   1.00000     0.00000     0

 27 30  0  0  0  0  0  0  0  0999 V2000
    0.3165    1.4759    0.0000 S   0  0  0  0  0  0  0  0  0
    1.1011    1.2210    0.0000 C   0  0  0  0  0  0  0  0  0
    1.8156    1.6335    0.0000 N   0  0  0  0  0  0  0  0  0
    2.5301    1.2210    0.0000 C   0  0  0  0  0  0  0  0  0
    3.2446    1.6335    0.0000 O   0  0  0  0  0  0  0  0  0
    2.5301    0.3960    0.0000 N   0  0  0  0  0  0  0  0  0
    3.2446   -0.0165    0.0000 C   0  0  0  0  0  0  0  0  0
    3.9590    0.3960    0.0000 C   0  0  0  0  0  0  0  0  0
    4.6735   -0.0165    0.0000 N   0  0  0  0  0  0  0  0  0
    5.3880    0.3960    0.0000 C   0  0  0  0  0  0  0  0  0
    6.1024   -0.0165    0.0000 C   0  0  0  0  0  0  0  0  0
    6.1024   -0.8415    0.0000 N   0  0  0  0  0  0  0  0  0
    5.3880   -1.2540    0.0000 C   0  0  0  0  0  0  0  0  0
    4.6735   -0.8415    0.0000 C   0  0  0  0  0  0  0  0  0
    6.8169   -1.2540    0.0000 C   0  0  0  0  0  0  0  0  0
    7.5314   -0.8415    0.0000 C   0  0  0  0  0  0  0  0  0
    8.2459   -1.2540    0.0000 C   0  0  0  0  0  0  0  0  0
    8.2459   -2.0790    0.0000 C   0  0  0  0  0  0  0  0  0
    7.5314   -2.4915    0.0000 C   0  0  0  0  0  0  0  0  0
    6.8169   -2.0790    0.0000 C   0  0  0  0  0  0  0  0  0
    6.1024   -2.4915    0.0000 O   0  0  0  0  0  0  0  0  0
    6.1024   -3.3165    0.0000 C   0  0  0  0  0  0  0  0  0
    1.8156   -0.0165    0.0000 C   0  0  0  0  0  0  0  0  0
    1.8156   -0.8415    0.0000 O   0  0  0  0  0  0  0  0  0
    1.1011    0.3960    0.0000 C   0  0  0  0  0  0  0  0  0
    0.3165    0.1410    0.0000 C   0  0  0  0  0  0  0  0  0
   -0.1684    0.8085    0.0000 C   0  0  0  0  0  0  0  0  0
  1  2  4  0  0  0  0
  1 27  4  0  0  0  0
  2  3  1  0  0  0  0
  2 25  4  0  0  0  0
  3  4  1  0  0  0  0
  4  5  2  0  0  0  0
  4  6  1  0  0  0  0
  6  7  1  0  0  0  0
  6 23  1  0  0  0  0
  7  8  1  0  0  0  0
  8  9  1  0  0  0  0
  9 10  1  0  0  0  0
  9 14  1  0  0  0  0
 10 11  1  0  0  0  0
 11 12  1  0  0  0  0
 12 13  1  0  0  0  0
 12 15  1  0  0  0  0
 13 14  1  0  0  0  0
 15 16  4  0  0  0  0
 15 20  4  0  0  0  0
 16 17  4  0  0  0  0
 17 18  4  0  0  0  0
 18 19  4  0  0  0  0
 19 20  4  0  0  0  0
 20 21  1  0  0  0  0
 21 22  1  0  0  0  0
 23 24  2  0  0  0  0
 23 25  1  0  0  0  0
 25 26  4  0  0  0  0
 26 27  4  0  0  0  0
M  END
>  <Name_Molregno>
12912

>  <Alpha-1A>
9.46

>  <Alpha-1B>
8.91

$$$$
12930
  Marvin  02231216192D 0   1.00000     0.00000     0

 34 38  0  0  0  0  0  0  0  0999 V2000
   -6.4153    1.8652    0.0000 S   0  0  0  0  0  0  0  0  0
   -5.6307    1.6103    0.0000 C   0  0  0  0  0  0  0  0  0
   -4.9162    2.0228    0.0000 N   0  0  0  0  0  0  0  0  0
   -4.2018    1.6103    0.0000 C   0  0  0  0  0  0  0  0  0
   -3.4873    2.0228    0.0000 O   0  0  0  0  0  0  0  0  0
   -4.2018    0.7853    0.0000 N   0  0  0  0  0  0  0  0  0
   -3.4873    0.3728    0.0000 C   0  0  0  0  0  0  0  0  0
   -2.7728    0.7853    0.0000 C   0  0  0  0  0  0  0  0  0
   -2.0584    0.3728    0.0000 N   0  0  0  0  0  0  0  0  0
   -1.3439    0.7853    0.0000 C   0  0  0  0  0  0  0  0  0
   -0.6294    0.3728    0.0000 C   0  0  0  0  0  0  0  0  0
   -0.6294   -0.4522    0.0000 N   0  0  0  0  0  0  0  0  0
   -1.3439   -0.8647    0.0000 C   0  0  0  0  0  0  0  0  0
   -2.0584   -0.4522    0.0000 C   0  0  0  0  0  0  0  0  0
    0.0850   -0.8647    0.0000 C   0  0  0  0  0  0  0  0  0
    0.7995   -0.4522    0.0000 C   0  0  0  0  0  0  0  0  0
    1.5140   -0.8647    0.0000 C   0  0  0  0  0  0  0  0  0
    1.5140   -1.6897    0.0000 C   0  0  0  0  0  0  0  0  0
    0.7995   -2.1022    0.0000 C   0  0  0  0  0  0  0  0  0
    0.0850   -1.6897    0.0000 C   0  0  0  0  0  0  0  0  0
   -0.6294   -2.1022    0.0000 O   0  0  0  0  0  0  0  0  0
   -0.6294   -2.9272    0.0000 C   0  0  0  0  0  0  0  0  0
   -4.9162    0.3728    0.0000 C   0  0  0  0  0  0  0  0  0
   -4.9162   -0.4522    0.0000 O   0  0  0  0  0  0  0  0  0
   -5.6307    0.7853    0.0000 C   0  0  0  0  0  0  0  0  0
   -6.4153    0.5304    0.0000 C   0  0  0  0  0  0  0  0  0
   -6.6703   -0.2543    0.0000 C   0  0  0  0  0  0  0  0  0
   -6.1182   -0.8674    0.0000 C   0  0  0  0  0  0  0  0  0
   -6.3732   -1.6520    0.0000 C   0  0  0  0  0  0  0  0  0
   -7.1802   -1.8235    0.0000 C   0  0  0  0  0  0  0  0  0
   -7.7322   -1.2104    0.0000 C   0  0  0  0  0  0  0  0  0
   -7.4773   -0.4258    0.0000 C   0  0  0  0  0  0  0  0  0
   -6.9003    1.1978    0.0000 C   0  0  0  0  0  0  0  0  0
   -7.7253    1.1978    0.0000 C   0  0  0  0  0  0  0  0  0
  1  2  4  0  0  0  0
  1 33  4  0  0  0  0
  2  3  1  0  0  0  0
  2 25  4  0  0  0  0
  3  4  1  0  0  0  0
  4  5  2  0  0  0  0
  4  6  1  0  0  0  0
  6  7  1  0  0  0  0
  6 23  1  0  0  0  0
  7  8  1  0  0  0  0
  8  9  1  0  0  0  0
  9 10  1  0  0  0  0
  9 14  1  0  0  0  0
 10 11  1  0  0  0  0
 11 12  1  0  0  0  0
 12 13  1  0  0  0  0
 12 15  1  0  0  0  0
 13 14  1  0  0  0  0
 15 16  4  0  0  0  0
 15 20  4  0  0  0  0
 16 17  4  0  0  0  0
 17 18  4  0  0  0  0
 18 19  4  0  0  0  0
 19 20  4  0  0  0  0
 20 21  1  0  0  0  0
 21 22  1  0  0  0  0
 23 24  2  0  0  0  0
 23 25  1  0  0  0  0
 25 26  4  0  0  0  0
 26 27  1  0  0  0  0
 26 33  4  0  0  0  0
 27 28  4  0  0  0  0
 27 32  4  0  0  0  0
 28 29  4  0  0  0  0
 29 30  4  0  0  0  0
 30 31  4  0  0  0  0
 31 32  4  0  0  0  0
 33 34  1  0  0  0  0
M  END
>  <Name_Molregno>
12930

>  <Alpha-1A>
8.58

>  <Alpha-1B>
8.43

$$$$
12991
  Marvin  02231216192D 0   1.00000     0.00000     0

 33 37  0  0  0  0  0  0  0  0999 V2000
   -5.8375    0.8382    0.0000 S   0  0  0  0  0  0  0  0  0
   -5.0529    0.5832    0.0000 C   0  0  0  0  0  0  0  0  0
   -4.3384    0.9957    0.0000 N   0  0  0  0  0  0  0  0  0
   -3.6240    0.5832    0.0000 C   0  0  0  0  0  0  0  0  0
   -2.9095    0.9957    0.0000 O   0  0  0  0  0  0  0  0  0
   -3.6240   -0.2418    0.0000 N   0  0  0  0  0  0  0  0  0
   -2.9095   -0.6543    0.0000 C   0  0  0  0  0  0  0  0  0
   -2.1950   -0.2418    0.0000 C   0  0  0  0  0  0  0  0  0
   -1.4805   -0.6543    0.0000 N   0  0  0  0  0  0  0  0  0
   -0.7661   -0.2418    0.0000 C   0  0  0  0  0  0  0  0  0
   -0.0516   -0.6543    0.0000 C   0  0  0  0  0  0  0  0  0
   -0.0516   -1.4793    0.0000 N   0  0  0  0  0  0  0  0  0
   -0.7661   -1.8918    0.0000 C   0  0  0  0  0  0  0  0  0
   -1.4805   -1.4793    0.0000 C   0  0  0  0  0  0  0  0  0
    0.6629   -1.8918    0.0000 C   0  0  0  0  0  0  0  0  0
    1.3773   -1.4793    0.0000 C   0  0  0  0  0  0  0  0  0
    2.0918   -1.8918    0.0000 C   0  0  0  0  0  0  0  0  0
    2.0918   -2.7168    0.0000 C   0  0  0  0  0  0  0  0  0
    1.3773   -3.1293    0.0000 C   0  0  0  0  0  0  0  0  0
    0.6629   -2.7168    0.0000 C   0  0  0  0  0  0  0  0  0
   -0.0516   -3.1293    0.0000 O   0  0  0  0  0  0  0  0  0
   -0.0516   -3.9543    0.0000 C   0  0  0  0  0  0  0  0  0
   -4.3384   -0.6543    0.0000 C   0  0  0  0  0  0  0  0  0
   -4.3384   -1.4793    0.0000 O   0  0  0  0  0  0  0  0  0
   -5.0529   -0.2418    0.0000 C   0  0  0  0  0  0  0  0  0
   -5.8375   -0.4967    0.0000 C   0  0  0  0  0  0  0  0  0
   -6.3224    0.1707    0.0000 C   0  0  0  0  0  0  0  0  0
   -7.1474    0.1707    0.0000 C   0  0  0  0  0  0  0  0  0
   -7.5599   -0.5438    0.0000 C   0  0  0  0  0  0  0  0  0
   -8.3849   -0.5438    0.0000 C   0  0  0  0  0  0  0  0  0
   -8.7974    0.1707    0.0000 C   0  0  0  0  0  0  0  0  0
   -8.3849    0.8852    0.0000 C   0  0  0  0  0  0  0  0  0
   -7.5599    0.8852    0.0000 C   0  0  0  0  0  0  0  0  0
  1  2  4  0  0  0  0
  1 27  4  0  0  0  0
  2  3  1  0  0  0  0
  2 25  4  0  0  0  0
  3  4  1  0  0  0  0
  4  5  2  0  0  0  0
  4  6  1  0  0  0  0
  6  7  1  0  0  0  0
  6 23  1  0  0  0  0
  7  8  1  0  0  0  0
  8  9  1  0  0  0  0
  9 10  1  0  0  0  0
  9 14  1  0  0  0  0
 10 11  1  0  0  0  0
 11 12  1  0  0  0  0
 12 13  1  0  0  0  0
 12 15  1  0  0  0  0
 13 14  1  0  0  0  0
 15 16  4  0  0  0  0
 15 20  4  0  0  0  0
 16 17  4  0  0  0  0
 17 18  4  0  0  0  0
 18 19  4  0  0  0  0
 19 20  4  0  0  0  0
 20 21  1  0  0  0  0
 21 22  1  0  0  0  0
 23 24  2  0  0  0  0
 23 25  1  0  0  0  0
 25 26  4  0  0  0  0
 26 27  4  0  0  0  0
 27 28  1  0  0  0  0
 28 29  4  0  0  0  0
 28 33  4  0  0  0  0
 29 30  4  0  0  0  0
 30 31  4  0  0  0  0
 31 32  4  0  0  0  0
 32 33  4  0  0  0  0
M  END
>  <Name_Molregno>
12991

>  <Alpha-1A>
9.06

>  <Alpha-1B>
8.73

$$$$
13109
  Marvin  02231216192D 0   1.00000     0.00000     0

 33 37  0  0  0  0  0  0  0  0999 V2000
    0.5087    1.9594    0.0000 S   0  0  0  0  0  0  0  0  0
    0.0237    1.2920    0.0000 C   0  0  0  0  0  0  0  0  0
    0.5087    0.6246    0.0000 C   0  0  0  0  0  0  0  0  0
    1.2933    0.8795    0.0000 C   0  0  0  0  0  0  0  0  0
    1.2933    1.7045    0.0000 C   0  0  0  0  0  0  0  0  0
    2.0078    2.1170    0.0000 N   0  0  0  0  0  0  0  0  0
    2.7222    1.7045    0.0000 C   0  0  0  0  0  0  0  0  0
    3.4367    2.1170    0.0000 O   0  0  0  0  0  0  0  0  0
    2.7222    0.8795    0.0000 N   0  0  0  0  0  0  0  0  0
    3.4367    0.4670    0.0000 C   0  0  0  0  0  0  0  0  0
    4.1512    0.8795    0.0000 C   0  0  0  0  0  0  0  0  0
    4.8656    0.4670    0.0000 N   0  0  0  0  0  0  0  0  0
    5.5801    0.8795    0.0000 C   0  0  0  0  0  0  0  0  0
    6.2946    0.4670    0.0000 C   0  0  0  0  0  0  0  0  0
    6.2946   -0.3580    0.0000 N   0  0  0  0  0  0  0  0  0
    5.5801   -0.7705    0.0000 C   0  0  0  0  0  0  0  0  0
    4.8656   -0.3580    0.0000 C   0  0  0  0  0  0  0  0  0
    7.0091   -0.7705    0.0000 C   0  0  0  0  0  0  0  0  0
    7.7235   -0.3580    0.0000 C   0  0  0  0  0  0  0  0  0
    8.4380   -0.7705    0.0000 C   0  0  0  0  0  0  0  0  0
    8.4380   -1.5955    0.0000 C   0  0  0  0  0  0  0  0  0
    7.7235   -2.0080    0.0000 C   0  0  0  0  0  0  0  0  0
    7.0091   -1.5955    0.0000 C   0  0  0  0  0  0  0  0  0
    6.2946   -2.0080    0.0000 O   0  0  0  0  0  0  0  0  0
    6.2946   -2.8330    0.0000 C   0  0  0  0  0  0  0  0  0
    2.0078    0.4670    0.0000 C   0  0  0  0  0  0  0  0  0
    2.0078   -0.3580    0.0000 O   0  0  0  0  0  0  0  0  0
    0.2537   -0.1601    0.0000 C   0  0  0  0  0  0  0  0  0
    0.8058   -0.7731    0.0000 C   0  0  0  0  0  0  0  0  0
    0.5508   -1.5578    0.0000 C   0  0  0  0  0  0  0  0  0
   -0.2562   -1.7293    0.0000 C   0  0  0  0  0  0  0  0  0
   -0.8082   -1.1162    0.0000 C   0  0  0  0  0  0  0  0  0
   -0.5532   -0.3316    0.0000 C   0  0  0  0  0  0  0  0  0
  1  2  4  0  0  0  0
  1  5  4  0  0  0  0
  2  3  4  0  0  0  0
  3  4  4  0  0  0  0
  3 28  1  0  0  0  0
  4  5  4  0  0  0  0
  4 26  1  0  0  0  0
  5  6  1  0  0  0  0
  6  7  1  0  0  0  0
  7  8  2  0  0  0  0
  7  9  1  0  0  0  0
  9 10  1  0  0  0  0
  9 26  1  0  0  0  0
 10 11  1  0  0  0  0
 11 12  1  0  0  0  0
 12 13  1  0  0  0  0
 12 17  1  0  0  0  0
 13 14  1  0  0  0  0
 14 15  1  0  0  0  0
 15 16  1  0  0  0  0
 15 18  1  0  0  0  0
 16 17  1  0  0  0  0
 18 19  4  0  0  0  0
 18 23  4  0  0  0  0
 19 20  4  0  0  0  0
 20 21  4  0  0  0  0
 21 22  4  0  0  0  0
 22 23  4  0  0  0  0
 23 24  1  0  0  0  0
 24 25  1  0  0  0  0
 26 27  2  0  0  0  0
 28 29  4  0  0  0  0
 28 33  4  0  0  0  0
 29 30  4  0  0  0  0
 30 31  4  0  0  0  0
 31 32  4  0  0  0  0
 32 33  4  0  0  0  0
M  END
>  <Name_Molregno>
13109

>  <Alpha-1A>
8.59

>  <Alpha-1B>
8.33

$$$$
20202
  Marvin  02231216192D 0   1.00000     0.00000     0

 11 12  0  0  1  0  0  0  0  0999 V2000
   -1.6095   -2.5233    0.0000 N   0  0  0  0  0  0  0  0  0
   -1.0149   -1.9514    0.0000 C   0  0  0  0  0  0  0  0  0
   -0.2394   -1.5611    0.0000 C   0  0  0  0  0  0  0  0  0
   -0.1693   -0.0253    0.0000 C   0  0  0  0  0  0  0  0  0
   -0.0093   -0.8407    0.0000 C   0  0  0  0  0  0  0  0  0
    0.7862   -1.3060    0.0000 C   0  0  0  0  0  0  0  0  0
    0.4911   -1.9314    0.0000 C   0  0  0  0  0  0  0  0  0
   -0.6496   -1.2909    0.0000 C   0  0  0  0  0  0  0  0  0
   -1.2635   -0.7398    0.0000 C   0  0  0  0  0  0  0  0  0
   -2.0477   -0.9959    0.0000 C   0  0  0  0  0  0  0  0  0
   -1.0931    0.0674    0.0000 C   0  0  0  0  0  0  0  0  0
  1  2  1  0  0  0  0
  2  3  1  0  0  0  0
  2  8  1  0  0  0  0
  3  4  1  0  0  0  0
  3  7  1  0  0  0  0
  4  5  1  0  0  0  0
  5  6  1  0  0  0  0
  5  8  1  0  0  0  0
  6  7  1  0  0  0  0
  8  9  1  0  0  0  0
  9 10  1  0  0  0  0
  9 11  1  0  0  0  0
M  END
>  <Name_Molregno>
20202

>  <Alpha-1A>
4

>  <Alpha-1B>
4

>  <Alpha-2A>
4.7

>  <Alpha-2C>
4.7

$$$$
22470
  Marvin  02231216192D 0   1.00000     0.00000     0

 22 24  0  0  1  0  0  0  0  0999 V2000
    1.4966    1.5869    0.0000 O   0  0  0  0  0  0  0  0  0
    2.2110    1.1744    0.0000 C   0  0  0  0  0  0  0  0  0
    2.2110    0.3494    0.0000 C   0  0  0  0  0  0  0  0  0
    2.9255   -0.0631    0.0000 C   0  0  0  0  0  0  0  0  0
    2.9255   -0.8881    0.0000 C   0  0  0  0  0  0  0  0  0
    2.2110   -1.3006    0.0000 N   0  0  0  0  0  0  0  0  0
    1.4966   -0.8881    0.0000 C   0  0  0  0  0  0  0  0  0
    1.4966   -0.0631    0.0000 C   0  0  0  0  0  0  0  0  0
    2.2110   -2.1256    0.0000 C   0  0  0  0  0  0  0  0  0
    1.4966   -2.5381    0.0000 C   0  0  0  0  0  0  0  0  0
    1.4966   -3.3631    0.0000 C   0  0  0  0  0  0  0  0  0
    2.2110   -3.7756    0.0000 C   0  0  0  0  0  0  0  0  0
    2.2110   -4.6006    0.0000 C   0  0  0  0  0  0  0  0  0
    1.4966   -5.0131    0.0000 C   0  0  0  0  0  0  0  0  0
    0.7821   -4.6006    0.0000 C   0  0  0  0  0  0  0  0  0
    0.7821   -3.7756    0.0000 C   0  0  0  0  0  0  0  0  0
    2.9255    1.5869    0.0000 C   0  0  0  0  0  0  0  0  0
    2.9255    2.4119    0.0000 C   0  0  0  0  0  0  0  0  0
    3.6400    2.8244    0.0000 C   0  0  0  0  0  0  0  0  0
    4.3544    2.4119    0.0000 C   0  0  0  0  0  0  0  0  0
    4.3544    1.5869    0.0000 C   0  0  0  0  0  0  0  0  0
    3.6400    1.1744    0.0000 C   0  0  0  0  0  0  0  0  0
  1  2  1  0  0  0  0
  2  3  1  0  0  0  0
  2 17  1  0  0  0  0
  3  4  1  0  0  0  0
  3  8  1  0  0  0  0
  4  5  1  0  0  0  0
  5  6  1  0  0  0  0
  6  7  1  0  0  0  0
  6  9  1  0  0  0  0
  7  8  1  0  0  0  0
  9 10  1  0  0  0  0
 10 11  1  0  0  0  0
 11 12  4  0  0  0  0
 11 16  4  0  0  0  0
 12 13  4  0  0  0  0
 13 14  4  0  0  0  0
 14 15  4  0  0  0  0
 15 16  4  0  0  0  0
 17 18  4  0  0  0  0
 17 22  4  0  0  0  0
 18 19  4  0  0  0  0
 19 20  4  0  0  0  0
 20 21  4  0  0  0  0
 21 22  4  0  0  0  0
M  END
>  <Name_Molregno>
22470

>  <5-HT1A>
5.47

>  <5-HT2A>
8.13

>  <5-HT2C>
6.28

>  <5-HT6>
5.56

>  <Alpha-1A>
5.73

>  <Alpha-1B>
5.8

>  <Alpha-2A>
5.8

>  <Alpha-2C>
5.93

>  <DOPAMINE D1>
6.49

>  <DOPAMINE D4>
5.41

>  <DOPAMINE D5>
5.54

>  <Dopamine transporter>
5

>  <HISTAMINE H1>
5.79

>  <Norepinephrine transporter>
5

>  <Serotonin transporter>
5.59

$$$$
26653
  Marvin  02231216192D 0   1.00000     0.00000     0

 19 20  0  0  0  0  0  0  0  0999 V2000
   -1.2820   -3.8402    0.0000 S   0  0  0  0  0  0  0  0  0
   -1.6945   -3.1258    0.0000 N   0  0  0  0  0  0  0  0  0
   -1.1424   -2.5127    0.0000 C   0  0  0  0  0  0  0  0  0
   -1.3140   -1.7057    0.0000 C   0  0  0  0  0  0  0  0  0
   -2.0986   -1.4508    0.0000 C   0  0  0  0  0  0  0  0  0
   -2.2701   -0.6438    0.0000 N   0  0  0  0  0  0  0  0  0
   -1.6570   -0.0918    0.0000 C   0  0  0  0  0  0  0  0  0
   -0.8724   -0.3467    0.0000 C   0  0  0  0  0  0  0  0  0
   -0.7009   -1.1537    0.0000 C   0  0  0  0  0  0  0  0  0
   -3.0547   -0.3889    0.0000 C   0  0  0  0  0  0  0  0  0
   -0.3888   -2.8482    0.0000 C   0  0  0  0  0  0  0  0  0
    0.3257   -2.4357    0.0000 O   0  0  0  0  0  0  0  0  0
    1.0402   -2.8482    0.0000 C   0  0  0  0  0  0  0  0  0
    1.7547   -2.4357    0.0000 C   0  0  0  0  0  0  0  0  0
    2.4691   -2.8482    0.0000 C   0  0  0  0  0  0  0  0  0
    3.1836   -2.4357    0.0000 C   0  0  0  0  0  0  0  0  0
    3.8981   -2.8482    0.0000 C   0  0  0  0  0  0  0  0  0
    4.6125   -2.4357    0.0000 C   0  0  0  0  0  0  0  0  0
   -0.4750   -3.6687    0.0000 N   0  0  0  0  0  0  0  0  0
  1  2  4  0  0  0  0
  1 19  4  0  0  0  0
  2  3  4  0  0  0  0
  3  4  1  0  0  0  0
  3 11  4  0  0  0  0
  4  5  1  0  0  0  0
  4  9  2  0  0  0  0
  5  6  1  0  0  0  0
  6  7  1  0  0  0  0
  6 10  1  0  0  0  0
  7  8  1  0  0  0  0
  8  9  1  0  0  0  0
 11 12  1  0  0  0  0
 11 19  4  0  0  0  0
 12 13  1  0  0  0  0
 13 14  1  0  0  0  0
 14 15  1  0  0  0  0
 15 16  1  0  0  0  0
 16 17  1  0  0  0  0
 17 18  1  0  0  0  0
M  END
>  <Name_Molregno>
26653

>  <5-HT1A>
7.2

>  <5-HT1B>
7.3

>  <5-HT1D>
8.2

>  <5-HT1E>
5.6

>  <5-HT2A>
6.9

>  <5-HT2C>
7.4

>  <5-HT6>
5.9

>  <5-HT7>
6.9

>  <Alpha-1B>
5.8

>  <DOPAMINE D2>
6

>  <DOPAMINE D3>
6.4

>  <Muscarinic acetylcholine receptor M1>
6.52

>  <Muscarinic acetylcholine receptor M2>
7.1

>  <Muscarinic acetylcholine receptor M3>
7.25

>  <Muscarinic acetylcholine receptor M4>
7.55

>  <Muscarinic acetylcholine receptor M5>
6.32

$$$$
33281
  Marvin  02231216192D 0   1.00000     0.00000     0

 17 19  0  0  0  0  0  0  0  0999 V2000
    1.1754   -2.2928    0.0000 Cl  0  0  0  0  0  0  0  0  0
    1.2134   -1.4687    0.0000 C   0  0  0  0  0  0  0  0  0
    1.9903   -1.0799    0.0000 C   0  0  0  0  0  0  0  0  0
    2.6491   -1.5765    0.0000 C   0  0  0  0  0  0  0  0  0
    3.4481   -1.3711    0.0000 C   0  0  0  0  0  0  0  0  0
    3.7857   -0.6183    0.0000 N   0  0  0  0  0  0  0  0  0
    3.4076    0.1150    0.0000 C   0  0  0  0  0  0  0  0  0
    2.5986    0.2766    0.0000 C   0  0  0  0  0  0  0  0  0
    1.9679   -0.2552    0.0000 C   0  0  0  0  0  0  0  0  0
    1.2672    0.1804    0.0000 C   0  0  0  0  0  0  0  0  0
    1.4649    0.9814    0.0000 S   0  0  0  0  0  0  0  0  0
    2.2878    1.0408    0.0000 C   0  0  0  0  0  0  0  0  0
    2.7234    1.7415    0.0000 C   0  0  0  0  0  0  0  0  0
    2.3344    2.4690    0.0000 C   0  0  0  0  0  0  0  0  0
    0.5397   -0.2086    0.0000 C   0  0  0  0  0  0  0  0  0
    0.5128   -1.0332    0.0000 C   0  0  0  0  0  0  0  0  0
    4.6104   -0.5958    0.0000 C   0  0  0  0  0  0  0  0  0
  1  2  1  0  0  0  0
  2  3  4  0  0  0  0
  2 16  4  0  0  0  0
  3  4  1  0  0  0  0
  3  9  4  0  0  0  0
  4  5  1  0  0  0  0
  5  6  1  0  0  0  0
  6  7  1  0  0  0  0
  6 17  1  0  0  0  0
  7  8  1  0  0  0  0
  8  9  4  0  0  0  0
  8 12  4  0  0  0  0
  9 10  4  0  0  0  0
 10 11  4  0  0  0  0
 10 15  4  0  0  0  0
 11 12  4  0  0  0  0
 12 13  1  0  0  0  0
 13 14  2  0  0  0  0
 15 16  4  0  0  0  0
M  END
>  <Name_Molregno>
33281

>  <Alpha-1A>
7.44

>  <Alpha-1B>
7.64

$$$$
33675
  Marvin  02231216192D 0   1.00000     0.00000     0

 25 27  0  0  1  0  0  0  0  0999 V2000
   -4.9087    1.2684    0.0000 O   0  0  0  0  0  0  0  0  0
   -5.6231    0.8559    0.0000 C   0  0  0  0  0  0  0  0  0
   -5.6231    0.0309    0.0000 C   0  0  0  0  0  0  0  0  0
   -4.9087   -0.3816    0.0000 O   0  0  0  0  0  0  0  0  0
   -4.1942    0.0309    0.0000 C   0  0  0  0  0  0  0  0  0
   -4.1942    0.8559    0.0000 C   0  0  0  0  0  0  0  0  0
   -3.4797    1.2684    0.0000 C   0  0  0  0  0  0  0  0  0
   -2.7653    0.8559    0.0000 N   0  0  0  0  0  0  0  0  0
   -2.0508    1.2684    0.0000 C   0  0  0  0  0  0  0  0  0
   -1.3363    0.8559    0.0000 C   0  0  0  0  0  0  0  0  0
   -0.6218    1.2684    0.0000 O   0  0  0  0  0  0  0  0  0
    0.0926    0.8559    0.0000 C   0  0  0  0  0  0  0  0  0
    0.8071    1.2684    0.0000 C   0  0  0  0  0  0  0  0  0
    0.8071    2.0934    0.0000 O   0  0  0  0  0  0  0  0  0
    1.5216    2.5059    0.0000 C   0  0  0  0  0  0  0  0  0
    1.5216    0.8559    0.0000 C   0  0  0  0  0  0  0  0  0
    1.5216    0.0309    0.0000 C   0  0  0  0  0  0  0  0  0
    0.8071   -0.3816    0.0000 C   0  0  0  0  0  0  0  0  0
    0.0926    0.0309    0.0000 C   0  0  0  0  0  0  0  0  0
   -0.6218   -0.3816    0.0000 O   0  0  0  0  0  0  0  0  0
   -0.6218   -1.2066    0.0000 C   0  0  0  0  0  0  0  0  0
   -6.3376   -0.3816    0.0000 C   0  0  0  0  0  0  0  0  0
   -7.0521    0.0309    0.0000 C   0  0  0  0  0  0  0  0  0
   -7.0521    0.8559    0.0000 C   0  0  0  0  0  0  0  0  0
   -6.3376    1.2684    0.0000 C   0  0  0  0  0  0  0  0  0
  1  2  1  0  0  0  0
  1  6  1  0  0  0  0
  2  3  4  0  0  0  0
  2 25  4  0  0  0  0
  3  4  1  0  0  0  0
  3 22  4  0  0  0  0
  4  5  1  0  0  0  0
  5  6  1  0  0  0  0
  6  7  1  0  0  0  0
  7  8  1  0  0  0  0
  8  9  1  0  0  0  0
  9 10  1  0  0  0  0
 10 11  1  0  0  0  0
 11 12  1  0  0  0  0
 12 13  4  0  0  0  0
 12 19  4  0  0  0  0
 13 14  1  0  0  0  0
 13 16  4  0  0  0  0
 14 15  1  0  0  0  0
 16 17  4  0  0  0  0
 17 18  4  0  0  0  0
 18 19  4  0  0  0  0
 19 20  1  0  0  0  0
 20 21  1  0  0  0  0
 22 23  4  0  0  0  0
 23 24  4  0  0  0  0
 24 25  4  0  0  0  0
M  END
>  <Name_Molregno>
33675

>  <5-HT1A>
8.68

>  <Alpha-1A>
9.2

>  <Alpha-1B>
7.92

>  <Alpha-2A>
8.46

>  <Alpha-2B>
7.55

>  <Alpha-2C>
9.1

$$$$
35324
  Marvin  02231216192D 0   1.00000     0.00000     0

 18 19  0  0  1  0  0  0  0  0999 V2000
    0.9450   -1.8585    0.0000 O   0  0  0  0  0  0  0  0  0
    0.5325   -1.1440    0.0000 C   0  0  0  0  0  0  0  0  0
   -0.2925   -1.1440    0.0000 C   0  0  0  0  0  0  0  0  0
   -0.7050   -1.8585    0.0000 C   0  0  0  0  0  0  0  0  0
   -1.5300   -1.8585    0.0000 C   0  0  0  0  0  0  0  0  0
   -1.9425   -2.5729    0.0000 N   0  0  0  0  0  0  0  0  0
   -2.7675   -2.5729    0.0000 C   0  0  0  0  0  0  0  0  0
   -3.1800   -3.2874    0.0000 C   0  0  0  0  0  0  0  0  0
   -4.0050   -3.2874    0.0000 C   0  0  0  0  0  0  0  0  0
   -1.5300   -3.2874    0.0000 C   0  0  0  0  0  0  0  0  0
   -0.7050   -3.2874    0.0000 C   0  0  0  0  0  0  0  0  0
   -0.2925   -4.0019    0.0000 C   0  0  0  0  0  0  0  0  0
   -1.9425   -1.1440    0.0000 C   0  0  0  0  0  0  0  0  0
   -1.5300   -0.4295    0.0000 C   0  0  0  0  0  0  0  0  0
   -0.7050   -0.4295    0.0000 C   0  0  0  0  0  0  0  0  0
   -0.2925    0.2849    0.0000 C   0  0  0  0  0  0  0  0  0
    0.5325    0.2849    0.0000 C   0  0  0  0  0  0  0  0  0
    0.9450   -0.4295    0.0000 C   0  0  0  0  0  0  0  0  0
  1  2  1  0  0  0  0
  2  3  4  0  0  0  0
  2 18  4  0  0  0  0
  3  4  1  0  0  0  0
  3 15  4  0  0  0  0
  4  5  1  0  0  0  0
  5  6  1  0  0  0  0
  5 13  1  0  0  0  0
  6  7  1  0  0  0  0
  6 10  1  0  0  0  0
  7  8  1  0  0  0  0
  8  9  1  0  0  0  0
 10 11  1  0  0  0  0
 11 12  1  0  0  0  0
 13 14  1  0  0  0  0
 14 15  1  0  0  0  0
 15 16  4  0  0  0  0
 16 17  4  0  0  0  0
 17 18  4  0  0  0  0
M  END
>  <Name_Molregno>
35324

>  <5-HT1A>
8.41

>  <5-HT1B>
6.44

>  <5-HT1D>
6.48

>  <5-HT1E>
5.78

>  <5-HT2A>
5.34

>  <5-HT2C>
5.46

>  <5-HT5>
5.6

>  <5-HT6>
5

>  <5-HT7>
6.52

>  <Alpha-1A>
6.21

>  <Alpha-1B>
6

>  <DOPAMINE D1>
5

>  <DOPAMINE D2>
6.1

>  <DOPAMINE D3>
6.35

>  <DOPAMINE D4>
5.38

$$$$
42179
  Marvin  02231216192D 0   1.00000     0.00000     0

 31 34  0  0  0  0  0  0  0  0999 V2000
    0.8929    1.6421    0.0000 O   0  0  0  0  0  0  0  0  0
    1.6074    2.0546    0.0000 C   0  0  0  0  0  0  0  0  0
    0.8929    0.8171    0.0000 C   0  0  0  0  0  0  0  0  0
    1.6074    0.4046    0.0000 C   0  0  0  0  0  0  0  0  0
    1.6074   -0.4204    0.0000 C   0  0  0  0  0  0  0  0  0
    0.8929   -0.8329    0.0000 C   0  0  0  0  0  0  0  0  0
    0.1785   -0.4204    0.0000 C   0  0  0  0  0  0  0  0  0
    0.1785    0.4046    0.0000 C   0  0  0  0  0  0  0  0  0
   -0.5360    0.8171    0.0000 N   0  0  0  0  0  0  0  0  0
   -1.2505    0.4046    0.0000 C   0  0  0  0  0  0  0  0  0
   -1.9649    0.8171    0.0000 C   0  0  0  0  0  0  0  0  0
   -1.9649    1.6421    0.0000 N   0  0  0  0  0  0  0  0  0
   -1.2505    2.0546    0.0000 C   0  0  0  0  0  0  0  0  0
   -0.5360    1.6421    0.0000 C   0  0  0  0  0  0  0  0  0
   -2.6794    2.0546    0.0000 C   0  0  0  0  0  0  0  0  0
   -3.3939    1.6421    0.0000 C   0  0  0  0  0  0  0  0  0
   -4.1083    2.0546    0.0000 N   0  0  0  0  0  0  0  0  0
   -4.8228    1.6421    0.0000 C   0  0  0  0  0  0  0  0  0
   -4.8228    0.8171    0.0000 O   0  0  0  0  0  0  0  0  0
   -5.5373    2.0546    0.0000 C   0  0  0  0  0  0  0  0  0
   -6.2518    1.6421    0.0000 C   0  0  0  0  0  0  0  0  0
   -6.9662    2.0546    0.0000 C   0  0  0  0  0  0  0  0  0
   -6.9662    2.8796    0.0000 C   0  0  0  0  0  0  0  0  0
   -6.2518    3.2921    0.0000 C   0  0  0  0  0  0  0  0  0
   -5.5373    2.8796    0.0000 C   0  0  0  0  0  0  0  0  0
   -4.1083    2.8796    0.0000 C   0  0  0  0  0  0  0  0  0
   -4.8228    3.2921    0.0000 N   0  0  0  0  0  0  0  0  0
   -4.8228    4.1171    0.0000 C   0  0  0  0  0  0  0  0  0
   -4.1083    4.5296    0.0000 C   0  0  0  0  0  0  0  0  0
   -3.3939    4.1171    0.0000 C   0  0  0  0  0  0  0  0  0
   -3.3939    3.2921    0.0000 C   0  0  0  0  0  0  0  0  0
  1  2  1  0  0  0  0
  1  3  1  0  0  0  0
  3  4  4  0  0  0  0
  3  8  4  0  0  0  0
  4  5  4  0  0  0  0
  5  6  4  0  0  0  0
  6  7  4  0  0  0  0
  7  8  4  0  0  0  0
  8  9  1  0  0  0  0
  9 10  1  0  0  0  0
  9 14  1  0  0  0  0
 10 11  1  0  0  0  0
 11 12  1  0  0  0  0
 12 13  1  0  0  0  0
 12 15  1  0  0  0  0
 13 14  1  0  0  0  0
 15 16  1  0  0  0  0
 16 17  1  0  0  0  0
 17 18  1  0  0  0  0
 17 26  1  0  0  0  0
 18 19  2  0  0  0  0
 18 20  1  0  0  0  0
 20 21  1  0  0  0  0
 20 25  1  0  0  0  0
 21 22  1  0  0  0  0
 22 23  1  0  0  0  0
 23 24  1  0  0  0  0
 24 25  1  0  0  0  0
 26 27  4  0  0  0  0
 26 31  4  0  0  0  0
 27 28  4  0  0  0  0
 28 29  4  0  0  0  0
 29 30  4  0  0  0  0
 30 31  4  0  0  0  0
M  END
>  <Name_Molregno>
42179

>  <5-HT1A>
9.12

>  <5-HT1B>
5

>  <5-HT1D>
5

>  <5-HT1E>
5

>  <5-HT2A>
5.2

>  <5-HT5>
5

>  <5-HT6>
5

>  <5-HT7>
5

>  <Alpha-1A>
7.71

>  <Alpha-1B>
6.33

>  <Alpha-2A>
5

>  <Alpha-2B>
5

>  <Alpha-2C>
5.59

>  <DOPAMINE D1>
5

>  <DOPAMINE D2>
6.57

>  <DOPAMINE D3>
7.17

>  <DOPAMINE D4>
7.79

>  <DOPAMINE D5>
5

>  <HISTAMINE H1>
5

>  <HISTAMINE H2>
5

>  <HISTAMINE H4>
5

>  <Muscarinic acetylcholine receptor M2>
5

>  <Muscarinic acetylcholine receptor M5>
5

$$$$
62123
  Marvin  02231216192D 0   1.00000     0.00000     0

 13 13  0  0  1  0  0  0  0  0999 V2000
    1.6451   -1.1612    0.0000 F   0  0  0  0  0  0  0  0  0
    0.9306   -1.5737    0.0000 C   0  0  0  0  0  0  0  0  0
    0.9306   -2.3987    0.0000 C   0  0  0  0  0  0  0  0  0
    0.2161   -2.8112    0.0000 C   0  0  0  0  0  0  0  0  0
    0.2161   -3.6362    0.0000 O   0  0  0  0  0  0  0  0  0
   -0.4984   -2.3987    0.0000 C   0  0  0  0  0  0  0  0  0
   -1.2128   -2.8112    0.0000 O   0  0  0  0  0  0  0  0  0
   -0.4984   -1.5737    0.0000 C   0  0  0  0  0  0  0  0  0
    0.2161   -1.1612    0.0000 C   0  0  0  0  0  0  0  0  0
    0.2161   -0.3362    0.0000 C   0  0  0  0  0  0  0  0  0
   -0.4984    0.0763    0.0000 O   0  0  0  0  0  0  0  0  0
    0.9306    0.0763    0.0000 C   0  0  0  0  0  0  0  0  0
    0.9306    0.9013    0.0000 N   0  0  0  0  0  0  0  0  0
  1  2  1  0  0  0  0
  2  3  4  0  0  0  0
  2  9  4  0  0  0  0
  3  4  4  0  0  0  0
  4  5  1  0  0  0  0
  4  6  4  0  0  0  0
  6  7  1  0  0  0  0
  6  8  4  0  0  0  0
  8  9  4  0  0  0  0
  9 10  1  0  0  0  0
 10 11  1  0  0  0  0
 10 12  1  0  0  0  0
 12 13  1  0  0  0  0
M  END
>  <Name_Molregno>
62123

>  <Alpha-1B>
4.43

>  <Beta-2>
4.9

$$$$
62284
  Marvin  02231216192D 0   1.00000     0.00000     0

 37 40  0  0  0  0  0  0  0  0999 V2000
    0.9440   -0.2013    0.0000 O   0  0  0  0  0  0  0  0  0
    0.4137    0.4307    0.0000 C   0  0  0  0  0  0  0  0  0
   -0.3988    0.2874    0.0000 O   0  0  0  0  0  0  0  0  0
    0.6958    1.2059    0.0000 C   0  0  0  0  0  0  0  0  0
    0.6958    2.0309    0.0000 C   0  0  0  0  0  0  0  0  0
    1.4103    2.4434    0.0000 C   0  0  0  0  0  0  0  0  0
    2.1248    2.0309    0.0000 N   0  0  0  0  0  0  0  0  0
    2.1248    1.2059    0.0000 C   0  0  0  0  0  0  0  0  0
    1.4103    0.7934    0.0000 C   0  0  0  0  0  0  0  0  0
    2.8393    2.4434    0.0000 C   0  0  0  0  0  0  0  0  0
    3.5537    2.0309    0.0000 C   0  0  0  0  0  0  0  0  0
    4.2682    2.4434    0.0000 C   0  0  0  0  0  0  0  0  0
    4.9827    2.0309    0.0000 N   0  0  0  0  0  0  0  0  0
    5.6971    2.4434    0.0000 C   0  0  0  0  0  0  0  0  0
    5.6971    3.2684    0.0000 O   0  0  0  0  0  0  0  0  0
    6.4116    2.0309    0.0000 C   0  0  0  0  0  0  0  0  0
    7.1261    2.4434    0.0000 C   0  0  0  0  0  0  0  0  0
    7.1261    3.2684    0.0000 C   0  0  0  0  0  0  0  0  0
    7.8406    3.6809    0.0000 C   0  0  0  0  0  0  0  0  0
    8.5550    3.2684    0.0000 C   0  0  0  0  0  0  0  0  0
    8.5550    2.4434    0.0000 C   0  0  0  0  0  0  0  0  0
    7.8406    2.0309    0.0000 C   0  0  0  0  0  0  0  0  0
    9.2695    3.6809    0.0000 C   0  0  0  0  0  0  0  0  0
    6.4116    1.2059    0.0000 C   0  0  0  0  0  0  0  0  0
    7.1261    0.7934    0.0000 C   0  0  0  0  0  0  0  0  0
    7.1261   -0.0316    0.0000 C   0  0  0  0  0  0  0  0  0
    6.4116   -0.4441    0.0000 C   0  0  0  0  0  0  0  0  0
    5.6971   -0.0316    0.0000 C   0  0  0  0  0  0  0  0  0
    5.6971    0.7934    0.0000 C   0  0  0  0  0  0  0  0  0
    6.4116   -1.2691    0.0000 C   0  0  0  0  0  0  0  0  0
   -0.1166    1.3492    0.0000 C   0  0  0  0  0  0  0  0  0
   -0.6469    0.7172    0.0000 C   0  0  0  0  0  0  0  0  0
   -1.4594    0.8605    0.0000 C   0  0  0  0  0  0  0  0  0
   -1.7416    1.6357    0.0000 C   0  0  0  0  0  0  0  0  0
   -1.2113    2.2677    0.0000 C   0  0  0  0  0  0  0  0  0
   -0.3988    2.1244    0.0000 C   0  0  0  0  0  0  0  0  0
    0.6618   -0.9766    0.0000 C   0  0  0  0  0  0  0  0  0
  1  2  1  0  0  0  0
  1 37  1  0  0  0  0
  2  3  2  0  0  0  0
  2  4  1  0  0  0  0
  4  5  1  0  0  0  0
  4  9  1  0  0  0  0
  4 31  1  0  0  0  0
  5  6  1  0  0  0  0
  6  7  1  0  0  0  0
  7  8  1  0  0  0  0
  7 10  1  0  0  0  0
  8  9  1  0  0  0  0
 10 11  1  0  0  0  0
 11 12  1  0  0  0  0
 12 13  1  0  0  0  0
 13 14  1  0  0  0  0
 14 15  2  0  0  0  0
 14 16  1  0  0  0  0
 16 17  1  0  0  0  0
 16 24  1  0  0  0  0
 17 18  4  0  0  0  0
 17 22  4  0  0  0  0
 18 19  4  0  0  0  0
 19 20  4  0  0  0  0
 20 21  4  0  0  0  0
 20 23  1  0  0  0  0
 21 22  4  0  0  0  0
 24 25  4  0  0  0  0
 24 29  4  0  0  0  0
 25 26  4  0  0  0  0
 26 27  4  0  0  0  0
 27 28  4  0  0  0  0
 27 30  1  0  0  0  0
 28 29  4  0  0  0  0
 31 32  4  0  0  0  0
 31 36  4  0  0  0  0
 32 33  4  0  0  0  0
 33 34  4  0  0  0  0
 34 35  4  0  0  0  0
 35 36  4  0  0  0  0
M  END
>  <Name_Molregno>
62284

>  <Alpha-1A>
7.77

>  <Alpha-1B>
6.77

$$$$
62620
  Marvin  02231216192D 0   1.00000     0.00000     0

 13 13  0  0  1  0  0  0  0  0999 V2000
    1.4345   -0.9451    0.0000 F   0  0  0  0  0  0  0  0  0
    0.7201   -1.3576    0.0000 C   0  0  0  0  0  0  0  0  0
    0.7201   -2.1826    0.0000 C   0  0  0  0  0  0  0  0  0
    1.4345   -2.5951    0.0000 O   0  0  0  0  0  0  0  0  0
    0.0056   -2.5951    0.0000 C   0  0  0  0  0  0  0  0  0
    0.0056   -3.4201    0.0000 O   0  0  0  0  0  0  0  0  0
   -0.7089   -2.1826    0.0000 C   0  0  0  0  0  0  0  0  0
   -0.7089   -1.3576    0.0000 C   0  0  0  0  0  0  0  0  0
    0.0056   -0.9451    0.0000 C   0  0  0  0  0  0  0  0  0
    0.0056   -0.1201    0.0000 C   0  0  0  0  0  0  0  0  0
   -0.7089    0.2924    0.0000 O   0  0  0  0  0  0  0  0  0
    0.7201    0.2924    0.0000 C   0  0  0  0  0  0  0  0  0
    0.7201    1.1174    0.0000 N   0  0  0  0  0  0  0  0  0
  1  2  1  0  0  0  0
  2  3  4  0  0  0  0
  2  9  4  0  0  0  0
  3  4  1  0  0  0  0
  3  5  4  0  0  0  0
  5  6  1  0  0  0  0
  5  7  4  0  0  0  0
  7  8  4  0  0  0  0
  8  9  4  0  0  0  0
  9 10  1  0  0  0  0
 10 11  1  0  0  0  0
 10 12  1  0  0  0  0
 12 13  1  0  0  0  0
M  END
>  <Name_Molregno>
62620

>  <Alpha-1B>
5.4

>  <Beta-2>
3.97

$$$$
62740
  Marvin  02231216192D 0   1.00000     0.00000     0

 30 32  0  0  0  0  0  0  0  0999 V2000
    0.9287   -0.3188    0.0000 O   0  0  0  0  0  0  0  0  0
    0.3984    0.3132    0.0000 C   0  0  0  0  0  0  0  0  0
   -0.4140    0.1699    0.0000 O   0  0  0  0  0  0  0  0  0
    0.6806    1.0885    0.0000 C   0  0  0  0  0  0  0  0  0
    0.6806    1.9135    0.0000 C   0  0  0  0  0  0  0  0  0
    1.3951    2.3260    0.0000 C   0  0  0  0  0  0  0  0  0
    2.1095    1.9135    0.0000 N   0  0  0  0  0  0  0  0  0
    2.1095    1.0885    0.0000 C   0  0  0  0  0  0  0  0  0
    1.3951    0.6760    0.0000 C   0  0  0  0  0  0  0  0  0
    2.8240    2.3260    0.0000 C   0  0  0  0  0  0  0  0  0
    3.5385    1.9135    0.0000 C   0  0  0  0  0  0  0  0  0
    4.2530    2.3260    0.0000 C   0  0  0  0  0  0  0  0  0
    4.9674    1.9135    0.0000 N   0  0  0  0  0  0  0  0  0
    5.6819    2.3260    0.0000 C   0  0  0  0  0  0  0  0  0
    5.6819    3.1510    0.0000 O   0  0  0  0  0  0  0  0  0
    6.3964    1.9135    0.0000 C   0  0  0  0  0  0  0  0  0
    7.1108    2.3260    0.0000 C   0  0  0  0  0  0  0  0  0
    7.1108    3.1510    0.0000 C   0  0  0  0  0  0  0  0  0
    7.8253    3.5635    0.0000 C   0  0  0  0  0  0  0  0  0
    8.5398    3.1510    0.0000 C   0  0  0  0  0  0  0  0  0
    8.5398    2.3260    0.0000 C   0  0  0  0  0  0  0  0  0
    7.8253    1.9135    0.0000 C   0  0  0  0  0  0  0  0  0
    9.2542    3.5635    0.0000 C   0  0  0  0  0  0  0  0  0
   -0.1319    1.2317    0.0000 C   0  0  0  0  0  0  0  0  0
   -0.6622    0.5997    0.0000 C   0  0  0  0  0  0  0  0  0
   -1.4746    0.7430    0.0000 C   0  0  0  0  0  0  0  0  0
   -1.7568    1.5182    0.0000 C   0  0  0  0  0  0  0  0  0
   -1.2265    2.1502    0.0000 C   0  0  0  0  0  0  0  0  0
   -0.4140    2.0070    0.0000 C   0  0  0  0  0  0  0  0  0
    0.6466   -1.0940    0.0000 C   0  0  0  0  0  0  0  0  0
  1  2  1  0  0  0  0
  1 30  1  0  0  0  0
  2  3  2  0  0  0  0
  2  4  1  0  0  0  0
  4  5  1  0  0  0  0
  4  9  1  0  0  0  0
  4 24  1  0  0  0  0
  5  6  1  0  0  0  0
  6  7  1  0  0  0  0
  7  8  1  0  0  0  0
  7 10  1  0  0  0  0
  8  9  1  0  0  0  0
 10 11  1  0  0  0  0
 11 12  1  0  0  0  0
 12 13  1  0  0  0  0
 13 14  1  0  0  0  0
 14 15  2  0  0  0  0
 14 16  1  0  0  0  0
 16 17  1  0  0  0  0
 17 18  4  0  0  0  0
 17 22  4  0  0  0  0
 18 19  4  0  0  0  0
 19 20  4  0  0  0  0
 20 21  4  0  0  0  0
 20 23  1  0  0  0  0
 21 22  4  0  0  0  0
 24 25  4  0  0  0  0
 24 29  4  0  0  0  0
 25 26  4  0  0  0  0
 26 27  4  0  0  0  0
 27 28  4  0  0  0  0
 28 29  4  0  0  0  0
M  END
>  <Name_Molregno>
62740

>  <Alpha-1A>
7.13

>  <Alpha-1B>
5.52

$$$$
63342
  Marvin  02231216192D 0   1.00000     0.00000     0

 35 38  0  0  0  0  0  0  0  0999 V2000
   -0.6371   -2.4106    0.0000 O   0  0  0  0  0  0  0  0  0
   -0.6371   -1.5856    0.0000 C   0  0  0  0  0  0  0  0  0
   -1.3516   -1.1731    0.0000 N   0  0  0  0  0  0  0  0  0
   -2.0660   -1.5856    0.0000 C   0  0  0  0  0  0  0  0  0
   -2.7805   -1.1731    0.0000 C   0  0  0  0  0  0  0  0  0
   -3.4950   -1.5856    0.0000 C   0  0  0  0  0  0  0  0  0
   -4.2095   -1.1731    0.0000 N   0  0  0  0  0  0  0  0  0
   -4.9239   -1.5856    0.0000 C   0  0  0  0  0  0  0  0  0
   -5.6384   -1.1731    0.0000 C   0  0  0  0  0  0  0  0  0
   -5.6384   -0.3481    0.0000 C   0  0  0  0  0  0  0  0  0
   -4.9239    0.0644    0.0000 C   0  0  0  0  0  0  0  0  0
   -4.2095   -0.3481    0.0000 C   0  0  0  0  0  0  0  0  0
   -6.4629   -0.3193    0.0000 C   0  0  0  0  0  0  0  0  0
   -7.2874   -0.2905    0.0000 N   0  0  0  0  0  0  0  0  0
   -6.0756    0.3515    0.0000 C   0  0  0  0  0  0  0  0  0
   -6.9001    0.3227    0.0000 C   0  0  0  0  0  0  0  0  0
   -7.3373    1.0224    0.0000 C   0  0  0  0  0  0  0  0  0
   -6.9499    1.7508    0.0000 C   0  0  0  0  0  0  0  0  0
   -6.1254    1.7796    0.0000 C   0  0  0  0  0  0  0  0  0
   -5.6883    1.0799    0.0000 C   0  0  0  0  0  0  0  0  0
    0.0774   -1.1731    0.0000 C   0  0  0  0  0  0  0  0  0
    0.7918   -1.5856    0.0000 C   0  0  0  0  0  0  0  0  0
    1.5063   -1.1731    0.0000 C   0  0  0  0  0  0  0  0  0
    2.2208   -1.5856    0.0000 C   0  0  0  0  0  0  0  0  0
    2.2208   -2.4106    0.0000 C   0  0  0  0  0  0  0  0  0
    1.5063   -2.8231    0.0000 C   0  0  0  0  0  0  0  0  0
    0.7918   -2.4106    0.0000 C   0  0  0  0  0  0  0  0  0
    2.9353   -2.8231    0.0000 C   0  0  0  0  0  0  0  0  0
    0.0774   -0.3481    0.0000 C   0  0  0  0  0  0  0  0  0
   -0.6371    0.0644    0.0000 C   0  0  0  0  0  0  0  0  0
   -0.6371    0.8894    0.0000 C   0  0  0  0  0  0  0  0  0
    0.0774    1.3019    0.0000 C   0  0  0  0  0  0  0  0  0
    0.7918    0.8894    0.0000 C   0  0  0  0  0  0  0  0  0
    0.7918    0.0644    0.0000 C   0  0  0  0  0  0  0  0  0
    0.0774    2.1269    0.0000 C   0  0  0  0  0  0  0  0  0
  1  2  2  0  0  0  0
  2  3  1  0  0  0  0
  2 21  1  0  0  0  0
  3  4  1  0  0  0  0
  4  5  1  0  0  0  0
  5  6  1  0  0  0  0
  6  7  1  0  0  0  0
  7  8  1  0  0  0  0
  7 12  1  0  0  0  0
  8  9  1  0  0  0  0
  9 10  1  0  0  0  0
 10 11  1  0  0  0  0
 10 13  1  0  0  0  0
 10 15  1  0  0  0  0
 11 12  1  0  0  0  0
 13 14  3  0  0  0  0
 15 16  4  0  0  0  0
 15 20  4  0  0  0  0
 16 17  4  0  0  0  0
 17 18  4  0  0  0  0
 18 19  4  0  0  0  0
 19 20  4  0  0  0  0
 21 22  1  0  0  0  0
 21 29  1  0  0  0  0
 22 23  4  0  0  0  0
 22 27  4  0  0  0  0
 23 24  4  0  0  0  0
 24 25  4  0  0  0  0
 25 26  4  0  0  0  0
 25 28  1  0  0  0  0
 26 27  4  0  0  0  0
 29 30  4  0  0  0  0
 29 34  4  0  0  0  0
 30 31  4  0  0  0  0
 31 32  4  0  0  0  0
 32 33  4  0  0  0  0
 32 35  1  0  0  0  0
 33 34  4  0  0  0  0
M  END
>  <Name_Molregno>
63342

>  <Alpha-1A>
8.14

>  <Alpha-1B>
5.7

$$$$
63348
  Marvin  02231216192D 0   1.00000     0.00000     0

 16 18  0  0  0  0  0  0  0  0999 V2000
   -0.0474    0.0268    0.0000 O   0  0  0  0  0  0  0  0  0
   -0.7618   -0.3857    0.0000 C   0  0  0  0  0  0  0  0  0
   -0.7618   -1.2107    0.0000 C   0  0  0  0  0  0  0  0  0
   -0.0474   -1.6232    0.0000 O   0  0  0  0  0  0  0  0  0
    0.6671   -1.2107    0.0000 C   0  0  0  0  0  0  0  0  0
    0.6671   -0.3857    0.0000 C   0  0  0  0  0  0  0  0  0
    1.3816    0.0268    0.0000 C   0  0  0  0  0  0  0  0  0
    2.0960   -0.3857    0.0000 C   0  0  0  0  0  0  0  0  0
    2.8105    0.0268    0.0000 N   0  0  0  0  0  0  0  0  0
    3.5250   -0.3857    0.0000 C   0  0  0  0  0  0  0  0  0
    4.2787   -0.0502    0.0000 N   0  0  0  0  0  0  0  0  0
    4.8307   -0.6633    0.0000 C   0  0  0  0  0  0  0  0  0
    4.4182   -1.3777    0.0000 C   0  0  0  0  0  0  0  0  0
    3.6112   -1.2062    0.0000 N   0  0  0  0  0  0  0  0  0
    2.0960   -1.2107    0.0000 C   0  0  0  0  0  0  0  0  0
    1.3816   -1.6232    0.0000 C   0  0  0  0  0  0  0  0  0
  1  2  1  0  0  0  0
  1  6  1  0  0  0  0
  2  3  1  0  0  0  0
  3  4  1  0  0  0  0
  4  5  1  0  0  0  0
  5  6  4  0  0  0  0
  5 16  4  0  0  0  0
  6  7  4  0  0  0  0
  7  8  4  0  0  0  0
  8  9  1  0  0  0  0
  8 15  4  0  0  0  0
  9 10  1  0  0  0  0
 10 11  1  0  0  0  0
 10 14  2  0  0  0  0
 11 12  1  0  0  0  0
 12 13  1  0  0  0  0
 13 14  1  0  0  0  0
 15 16  4  0  0  0  0
M  END
>  <Name_Molregno>
63348

>  <Alpha-1A>
5.62

>  <Alpha-1B>
5.62

$$$$
63644
  Marvin  02231216192D 0   1.00000     0.00000     0

 31 34  0  0  1  0  0  0  0  0999 V2000
   -0.0241    0.0184    0.0000 S   0  0  0  0  0  0  0  0  0
   -0.7385    0.4309    0.0000 C   0  0  0  0  0  0  0  0  0
   -1.4530    0.0184    0.0000 C   0  0  0  0  0  0  0  0  0
   -2.1675    0.4309    0.0000 C   0  0  0  0  0  0  0  0  0
   -2.1675    1.2559    0.0000 C   0  0  0  0  0  0  0  0  0
   -1.4530    1.6684    0.0000 C   0  0  0  0  0  0  0  0  0
   -0.7385    1.2559    0.0000 C   0  0  0  0  0  0  0  0  0
   -1.4530   -0.8066    0.0000 C   0  0  0  0  0  0  0  0  0
   -0.7385   -1.2191    0.0000 C   0  0  0  0  0  0  0  0  0
   -0.0241   -0.8066    0.0000 C   0  0  0  0  0  0  0  0  0
    0.6904   -1.2191    0.0000 C   0  0  0  0  0  0  0  0  0
    1.4049   -0.8066    0.0000 N   0  0  0  0  0  0  0  0  0
    2.1193   -1.2191    0.0000 C   0  0  0  0  0  0  0  0  0
    2.8338   -0.8066    0.0000 C   0  0  0  0  0  0  0  0  0
    3.5483   -1.2191    0.0000 O   0  0  0  0  0  0  0  0  0
    4.2627   -0.8066    0.0000 C   0  0  0  0  0  0  0  0  0
    4.2627    0.0184    0.0000 C   0  0  0  0  0  0  0  0  0
    3.5483    0.4309    0.0000 O   0  0  0  0  0  0  0  0  0
    3.5483    1.2559    0.0000 C   0  0  0  0  0  0  0  0  0
    4.9772    0.4309    0.0000 C   0  0  0  0  0  0  0  0  0
    5.6917    0.0184    0.0000 C   0  0  0  0  0  0  0  0  0
    5.6917   -0.8066    0.0000 C   0  0  0  0  0  0  0  0  0
    4.9772   -1.2191    0.0000 C   0  0  0  0  0  0  0  0  0
    4.9772   -2.0441    0.0000 O   0  0  0  0  0  0  0  0  0
    5.6917   -2.4566    0.0000 C   0  0  0  0  0  0  0  0  0
   -2.1675   -1.2191    0.0000 C   0  0  0  0  0  0  0  0  0
   -2.1675   -2.0441    0.0000 C   0  0  0  0  0  0  0  0  0
   -2.8820   -2.4566    0.0000 C   0  0  0  0  0  0  0  0  0
   -3.5964   -2.0441    0.0000 C   0  0  0  0  0  0  0  0  0
   -3.5964   -1.2191    0.0000 C   0  0  0  0  0  0  0  0  0
   -2.8820   -0.8066    0.0000 C   0  0  0  0  0  0  0  0  0
  1  2  1  0  0  0  0
  1 10  1  0  0  0  0
  2  3  4  0  0  0  0
  2  7  4  0  0  0  0
  3  4  4  0  0  0  0
  3  8  1  0  0  0  0
  4  5  4  0  0  0  0
  5  6  4  0  0  0  0
  6  7  4  0  0  0  0
  8  9  1  0  0  0  0
  8 26  1  0  0  0  0
  9 10  1  0  0  0  0
 10 11  1  0  0  0  0
 11 12  1  0  0  0  0
 12 13  1  0  0  0  0
 13 14  1  0  0  0  0
 14 15  1  0  0  0  0
 15 16  1  0  0  0  0
 16 17  4  0  0  0  0
 16 23  4  0  0  0  0
 17 18  1  0  0  0  0
 17 20  4  0  0  0  0
 18 19  1  0  0  0  0
 20 21  4  0  0  0  0
 21 22  4  0  0  0  0
 22 23  4  0  0  0  0
 23 24  1  0  0  0  0
 24 25  1  0  0  0  0
 26 27  4  0  0  0  0
 26 31  4  0  0  0  0
 27 28  4  0  0  0  0
 28 29  4  0  0  0  0
 29 30  4  0  0  0  0
 30 31  4  0  0  0  0
M  END
>  <Name_Molregno>
63644

>  <5-HT1A>
7.91

>  <Alpha-1A>
9.34

>  <Alpha-1B>
8.25

$$$$
63680
  Marvin  02231216192D 0   1.00000     0.00000     0

 31 34  0  0  1  0  0  0  0  0999 V2000
   -0.0241    0.0184    0.0000 O   0  0  0  0  0  0  0  0  0
   -0.7385    0.4309    0.0000 C   0  0  0  0  0  0  0  0  0
   -1.4530    0.0184    0.0000 C   0  0  0  0  0  0  0  0  0
   -2.1675    0.4309    0.0000 C   0  0  0  0  0  0  0  0  0
   -2.1675    1.2559    0.0000 C   0  0  0  0  0  0  0  0  0
   -1.4530    1.6684    0.0000 C   0  0  0  0  0  0  0  0  0
   -0.7385    1.2559    0.0000 C   0  0  0  0  0  0  0  0  0
   -1.4530   -0.8066    0.0000 C   0  0  0  0  0  0  0  0  0
   -0.7385   -1.2191    0.0000 C   0  0  0  0  0  0  0  0  0
   -0.0241   -0.8066    0.0000 C   0  0  0  0  0  0  0  0  0
    0.6904   -1.2191    0.0000 C   0  0  0  0  0  0  0  0  0
    1.4049   -0.8066    0.0000 N   0  0  0  0  0  0  0  0  0
    2.1193   -1.2191    0.0000 C   0  0  0  0  0  0  0  0  0
    2.8338   -0.8066    0.0000 C   0  0  0  0  0  0  0  0  0
    3.5483   -1.2191    0.0000 O   0  0  0  0  0  0  0  0  0
    4.2627   -0.8066    0.0000 C   0  0  0  0  0  0  0  0  0
    4.2627    0.0184    0.0000 C   0  0  0  0  0  0  0  0  0
    3.5483    0.4309    0.0000 O   0  0  0  0  0  0  0  0  0
    3.5483    1.2559    0.0000 C   0  0  0  0  0  0  0  0  0
    4.9772    0.4309    0.0000 C   0  0  0  0  0  0  0  0  0
    5.6917    0.0184    0.0000 C   0  0  0  0  0  0  0  0  0
    5.6917   -0.8066    0.0000 C   0  0  0  0  0  0  0  0  0
    4.9772   -1.2191    0.0000 C   0  0  0  0  0  0  0  0  0
    4.9772   -2.0441    0.0000 O   0  0  0  0  0  0  0  0  0
    5.6917   -2.4566    0.0000 C   0  0  0  0  0  0  0  0  0
   -2.1675   -1.2191    0.0000 C   0  0  0  0  0  0  0  0  0
   -2.1675   -2.0441    0.0000 C   0  0  0  0  0  0  0  0  0
   -2.8820   -2.4566    0.0000 C   0  0  0  0  0  0  0  0  0
   -3.5964   -2.0441    0.0000 C   0  0  0  0  0  0  0  0  0
   -3.5964   -1.2191    0.0000 C   0  0  0  0  0  0  0  0  0
   -2.8820   -0.8066    0.0000 C   0  0  0  0  0  0  0  0  0
  1  2  1  0  0  0  0
  1 10  1  0  0  0  0
  2  3  4  0  0  0  0
  2  7  4  0  0  0  0
  3  4  4  0  0  0  0
  3  8  1  0  0  0  0
  4  5  4  0  0  0  0
  5  6  4  0  0  0  0
  6  7  4  0  0  0  0
  8  9  1  0  0  0  0
  8 26  1  0  0  0  0
  9 10  1  0  0  0  0
 10 11  1  0  0  0  0
 11 12  1  0  0  0  0
 12 13  1  0  0  0  0
 13 14  1  0  0  0  0
 14 15  1  0  0  0  0
 15 16  1  0  0  0  0
 16 17  4  0  0  0  0
 16 23  4  0  0  0  0
 17 18  1  0  0  0  0
 17 20  4  0  0  0  0
 18 19  1  0  0  0  0
 20 21  4  0  0  0  0
 21 22  4  0  0  0  0
 22 23  4  0  0  0  0
 23 24  1  0  0  0  0
 24 25  1  0  0  0  0
 26 27  4  0  0  0  0
 26 31  4  0  0  0  0
 27 28  4  0  0  0  0
 28 29  4  0  0  0  0
 29 30  4  0  0  0  0
 30 31  4  0  0  0  0
M  END
>  <Name_Molregno>
63680

>  <5-HT1A>
8.19

>  <Alpha-1A>
10.3

>  <Alpha-1B>
10.4

$$$$
63702
  Marvin  02231216192D 0   1.00000     0.00000     0

 31 34  0  0  1  0  0  0  0  0999 V2000
   -0.1114   -0.0238    0.0000 O   0  0  0  0  0  0  0  0  0
    0.6031    0.3887    0.0000 C   0  0  0  0  0  0  0  0  0
    1.3175   -0.0238    0.0000 C   0  0  0  0  0  0  0  0  0
    2.0320    0.3887    0.0000 N   0  0  0  0  0  0  0  0  0
    2.7465   -0.0238    0.0000 C   0  0  0  0  0  0  0  0  0
    3.4610    0.3887    0.0000 C   0  0  0  0  0  0  0  0  0
    4.1754   -0.0238    0.0000 C   0  0  0  0  0  0  0  0  0
    4.8899    0.3887    0.0000 C   0  0  0  0  0  0  0  0  0
    4.8899    1.2137    0.0000 C   0  0  0  0  0  0  0  0  0
    4.1754    1.6262    0.0000 C   0  0  0  0  0  0  0  0  0
    3.4610    1.2137    0.0000 C   0  0  0  0  0  0  0  0  0
    4.1754    2.4512    0.0000 C   0  0  0  0  0  0  0  0  0
    4.8899    2.8637    0.0000 C   0  0  0  0  0  0  0  0  0
    5.6044    2.4512    0.0000 C   0  0  0  0  0  0  0  0  0
    5.6044    1.6262    0.0000 C   0  0  0  0  0  0  0  0  0
    5.6044   -0.0238    0.0000 C   0  0  0  0  0  0  0  0  0
    6.3188    0.3887    0.0000 C   0  0  0  0  0  0  0  0  0
    7.0333   -0.0238    0.0000 C   0  0  0  0  0  0  0  0  0
    7.0333   -0.8488    0.0000 C   0  0  0  0  0  0  0  0  0
    6.3188   -1.2613    0.0000 C   0  0  0  0  0  0  0  0  0
    5.6044   -0.8488    0.0000 C   0  0  0  0  0  0  0  0  0
   -0.8259    0.3887    0.0000 C   0  0  0  0  0  0  0  0  0
   -1.5403   -0.0238    0.0000 C   0  0  0  0  0  0  0  0  0
   -1.5403   -0.8488    0.0000 O   0  0  0  0  0  0  0  0  0
   -0.8259   -1.2613    0.0000 C   0  0  0  0  0  0  0  0  0
   -2.2548    0.3887    0.0000 C   0  0  0  0  0  0  0  0  0
   -2.2548    1.2137    0.0000 C   0  0  0  0  0  0  0  0  0
   -1.5403    1.6262    0.0000 C   0  0  0  0  0  0  0  0  0
   -0.8259    1.2137    0.0000 C   0  0  0  0  0  0  0  0  0
   -0.1114    1.6262    0.0000 O   0  0  0  0  0  0  0  0  0
   -0.1114    2.4512    0.0000 C   0  0  0  0  0  0  0  0  0
  1  2  1  0  0  0  0
  1 22  1  0  0  0  0
  2  3  1  0  0  0  0
  3  4  1  0  0  0  0
  4  5  1  0  0  0  0
  5  6  1  0  0  0  0
  6  7  1  0  0  0  0
  6 11  1  0  0  0  0
  7  8  1  0  0  0  0
  8  9  1  0  0  0  0
  8 16  1  0  0  0  0
  9 10  4  0  0  0  0
  9 15  4  0  0  0  0
 10 11  1  0  0  0  0
 10 12  4  0  0  0  0
 12 13  4  0  0  0  0
 13 14  4  0  0  0  0
 14 15  4  0  0  0  0
 16 17  4  0  0  0  0
 16 21  4  0  0  0  0
 17 18  4  0  0  0  0
 18 19  4  0  0  0  0
 19 20  4  0  0  0  0
 20 21  4  0  0  0  0
 22 23  4  0  0  0  0
 22 29  4  0  0  0  0
 23 24  1  0  0  0  0
 23 26  4  0  0  0  0
 24 25  1  0  0  0  0
 26 27  4  0  0  0  0
 27 28  4  0  0  0  0
 28 29  4  0  0  0  0
 29 30  1  0  0  0  0
 30 31  1  0  0  0  0
M  END
>  <Name_Molregno>
63702

>  <5-HT1A>
8.2

>  <Alpha-1A>
9.29

>  <Alpha-1B>
7.91

$$$$
64104
  Marvin  02231216192D 0   1.00000     0.00000     0

 32 35  0  0  1  0  0  0  0  0999 V2000
   -0.1227   -0.8791    0.0000 O   0  0  0  0  0  0  0  0  0
    0.5917   -0.4666    0.0000 C   0  0  0  0  0  0  0  0  0
    1.3062   -0.8791    0.0000 C   0  0  0  0  0  0  0  0  0
    2.0207   -0.4666    0.0000 N   0  0  0  0  0  0  0  0  0
    2.7352   -0.8791    0.0000 C   0  0  0  0  0  0  0  0  0
    3.4496   -0.4666    0.0000 C   0  0  0  0  0  0  0  0  0
    4.1641   -0.8791    0.0000 C   0  0  0  0  0  0  0  0  0
    4.8786   -0.4666    0.0000 C   0  0  0  0  0  0  0  0  0
    4.8786    0.3584    0.0000 C   0  0  0  0  0  0  0  0  0
    4.1641    0.7709    0.0000 C   0  0  0  0  0  0  0  0  0
    4.1641    1.5959    0.0000 C   0  0  0  0  0  0  0  0  0
    4.8786    2.0084    0.0000 C   0  0  0  0  0  0  0  0  0
    5.5930    1.5959    0.0000 C   0  0  0  0  0  0  0  0  0
    5.5930    0.7709    0.0000 C   0  0  0  0  0  0  0  0  0
    3.4496    0.3584    0.0000 C   0  0  0  0  0  0  0  0  0
    2.7352    0.7709    0.0000 O   0  0  0  0  0  0  0  0  0
    5.5930   -0.8791    0.0000 C   0  0  0  0  0  0  0  0  0
    6.3075   -0.4666    0.0000 C   0  0  0  0  0  0  0  0  0
    7.0220   -0.8791    0.0000 C   0  0  0  0  0  0  0  0  0
    7.0220   -1.7041    0.0000 C   0  0  0  0  0  0  0  0  0
    6.3075   -2.1166    0.0000 C   0  0  0  0  0  0  0  0  0
    5.5930   -1.7041    0.0000 C   0  0  0  0  0  0  0  0  0
   -0.8372   -0.4666    0.0000 C   0  0  0  0  0  0  0  0  0
   -1.5517   -0.8791    0.0000 C   0  0  0  0  0  0  0  0  0
   -1.5517   -1.7041    0.0000 O   0  0  0  0  0  0  0  0  0
   -0.8372   -2.1166    0.0000 C   0  0  0  0  0  0  0  0  0
   -2.2661   -0.4666    0.0000 C   0  0  0  0  0  0  0  0  0
   -2.2661    0.3584    0.0000 C   0  0  0  0  0  0  0  0  0
   -1.5517    0.7709    0.0000 C   0  0  0  0  0  0  0  0  0
   -0.8372    0.3584    0.0000 C   0  0  0  0  0  0  0  0  0
   -0.1227    0.7709    0.0000 O   0  0  0  0  0  0  0  0  0
   -0.1227    1.5959    0.0000 C   0  0  0  0  0  0  0  0  0
  1  2  1  0  0  0  0
  1 23  1  0  0  0  0
  2  3  1  0  0  0  0
  3  4  1  0  0  0  0
  4  5  1  0  0  0  0
  5  6  1  0  0  0  0
  6  7  1  0  0  0  0
  6 15  1  0  0  0  0
  7  8  1  0  0  0  0
  8  9  1  0  0  0  0
  8 17  1  0  0  0  0
  9 10  4  0  0  0  0
  9 14  4  0  0  0  0
 10 11  4  0  0  0  0
 10 15  1  0  0  0  0
 11 12  4  0  0  0  0
 12 13  4  0  0  0  0
 13 14  4  0  0  0  0
 15 16  2  0  0  0  0
 17 18  4  0  0  0  0
 17 22  4  0  0  0  0
 18 19  4  0  0  0  0
 19 20  4  0  0  0  0
 20 21  4  0  0  0  0
 21 22  4  0  0  0  0
 23 24  4  0  0  0  0
 23 30  4  0  0  0  0
 24 25  1  0  0  0  0
 24 27  4  0  0  0  0
 25 26  1  0  0  0  0
 27 28  4  0  0  0  0
 28 29  4  0  0  0  0
 29 30  4  0  0  0  0
 30 31  1  0  0  0  0
 31 32  1  0  0  0  0
M  END
>  <Name_Molregno>
64104

>  <5-HT1A>
7.96

>  <Alpha-1A>
9.6

>  <Alpha-1B>
8.91

$$$$
64134
  Marvin  02231216192D 0   1.00000     0.00000     0

 31 33  0  0  0  0  0  0  0  0999 V2000
   -5.5906   -1.5108    0.0000 O   0  0  0  0  0  0  0  0  0
   -4.8761   -1.0983    0.0000 C   0  0  0  0  0  0  0  0  0
   -4.1616   -1.5108    0.0000 C   0  0  0  0  0  0  0  0  0
   -3.4471   -1.0983    0.0000 N   0  0  0  0  0  0  0  0  0
   -2.7327   -1.5108    0.0000 C   0  0  0  0  0  0  0  0  0
   -2.0182   -1.0983    0.0000 C   0  0  0  0  0  0  0  0  0
   -1.3037   -1.5108    0.0000 O   0  0  0  0  0  0  0  0  0
   -0.5893   -1.0983    0.0000 C   0  0  0  0  0  0  0  0  0
   -0.5893   -0.2733    0.0000 C   0  0  0  0  0  0  0  0  0
    0.1252    0.1392    0.0000 C   0  0  0  0  0  0  0  0  0
    0.8397   -0.2733    0.0000 C   0  0  0  0  0  0  0  0  0
    0.8397   -1.0983    0.0000 C   0  0  0  0  0  0  0  0  0
    0.1252   -1.5108    0.0000 C   0  0  0  0  0  0  0  0  0
    0.1252   -2.3358    0.0000 O   0  0  0  0  0  0  0  0  0
    0.8397   -2.7483    0.0000 C   0  0  0  0  0  0  0  0  0
    1.5542   -2.3358    0.0000 C   0  0  0  0  0  0  0  0  0
    1.5542   -1.5108    0.0000 C   0  0  0  0  0  0  0  0  0
    2.2686   -1.0983    0.0000 C   0  0  0  0  0  0  0  0  0
    2.9831   -1.5108    0.0000 C   0  0  0  0  0  0  0  0  0
    2.9831   -2.3358    0.0000 C   0  0  0  0  0  0  0  0  0
    2.2686   -2.7483    0.0000 C   0  0  0  0  0  0  0  0  0
   -6.3050   -1.0983    0.0000 C   0  0  0  0  0  0  0  0  0
   -7.0195   -1.5108    0.0000 C   0  0  0  0  0  0  0  0  0
   -7.0195   -2.3358    0.0000 O   0  0  0  0  0  0  0  0  0
   -7.7340   -2.7483    0.0000 C   0  0  0  0  0  0  0  0  0
   -7.7340   -1.0983    0.0000 C   0  0  0  0  0  0  0  0  0
   -7.7340   -0.2733    0.0000 C   0  0  0  0  0  0  0  0  0
   -7.0195    0.1392    0.0000 C   0  0  0  0  0  0  0  0  0
   -6.3050   -0.2733    0.0000 C   0  0  0  0  0  0  0  0  0
   -5.5906    0.1392    0.0000 O   0  0  0  0  0  0  0  0  0
   -5.5906    0.9642    0.0000 C   0  0  0  0  0  0  0  0  0
  1  2  1  0  0  0  0
  1 22  1  0  0  0  0
  2  3  1  0  0  0  0
  3  4  1  0  0  0  0
  4  5  1  0  0  0  0
  5  6  1  0  0  0  0
  6  7  1  0  0  0  0
  7  8  1  0  0  0  0
  8  9  4  0  0  0  0
  8 13  4  0  0  0  0
  9 10  4  0  0  0  0
 10 11  4  0  0  0  0
 11 12  4  0  0  0  0
 12 13  4  0  0  0  0
 13 14  1  0  0  0  0
 14 15  1  0  0  0  0
 15 16  1  0  0  0  0
 16 17  4  0  0  0  0
 16 21  4  0  0  0  0
 17 18  4  0  0  0  0
 18 19  4  0  0  0  0
 19 20  4  0  0  0  0
 20 21  4  0  0  0  0
 22 23  4  0  0  0  0
 22 29  4  0  0  0  0
 23 24  1  0  0  0  0
 23 26  4  0  0  0  0
 24 25  1  0  0  0  0
 26 27  4  0  0  0  0
 27 28  4  0  0  0  0
 28 29  4  0  0  0  0
 29 30  1  0  0  0  0
 30 31  1  0  0  0  0
M  END
>  <Name_Molregno>
64134

>  <5-HT1A>
8.68

>  <Alpha-1A>
9.33

>  <Alpha-1B>
9.27

$$$$
64271
  Marvin  02231216192D 0   1.00000     0.00000     0

 30 32  0  0  0  0  0  0  0  0999 V2000
   -0.5476    1.3992    0.0000 O   0  0  0  0  0  0  0  0  0
    0.1668    1.8117    0.0000 C   0  0  0  0  0  0  0  0  0
    0.8813    1.3992    0.0000 C   0  0  0  0  0  0  0  0  0
    1.5958    1.8117    0.0000 N   0  0  0  0  0  0  0  0  0
    2.3103    1.3992    0.0000 C   0  0  0  0  0  0  0  0  0
    3.0247    1.8117    0.0000 C   0  0  0  0  0  0  0  0  0
    3.7392    1.3992    0.0000 O   0  0  0  0  0  0  0  0  0
    4.4537    1.8117    0.0000 C   0  0  0  0  0  0  0  0  0
    4.4537    2.6367    0.0000 C   0  0  0  0  0  0  0  0  0
    5.1681    3.0492    0.0000 C   0  0  0  0  0  0  0  0  0
    5.8826    2.6367    0.0000 C   0  0  0  0  0  0  0  0  0
    5.8826    1.8117    0.0000 C   0  0  0  0  0  0  0  0  0
    5.1681    1.3992    0.0000 C   0  0  0  0  0  0  0  0  0
    5.1681    0.5742    0.0000 C   0  0  0  0  0  0  0  0  0
    5.8826    0.1617    0.0000 C   0  0  0  0  0  0  0  0  0
    6.5971    0.5742    0.0000 C   0  0  0  0  0  0  0  0  0
    7.3116    0.1617    0.0000 C   0  0  0  0  0  0  0  0  0
    7.3116   -0.6633    0.0000 C   0  0  0  0  0  0  0  0  0
    6.5971   -1.0758    0.0000 C   0  0  0  0  0  0  0  0  0
    5.8826   -0.6633    0.0000 C   0  0  0  0  0  0  0  0  0
   -1.2621    1.8117    0.0000 C   0  0  0  0  0  0  0  0  0
   -1.9766    1.3992    0.0000 C   0  0  0  0  0  0  0  0  0
   -1.9766    0.5742    0.0000 O   0  0  0  0  0  0  0  0  0
   -1.2621    0.1617    0.0000 C   0  0  0  0  0  0  0  0  0
   -2.6910    1.8117    0.0000 C   0  0  0  0  0  0  0  0  0
   -2.6910    2.6367    0.0000 C   0  0  0  0  0  0  0  0  0
   -1.9766    3.0492    0.0000 C   0  0  0  0  0  0  0  0  0
   -1.2621    2.6367    0.0000 C   0  0  0  0  0  0  0  0  0
   -0.5476    3.0492    0.0000 O   0  0  0  0  0  0  0  0  0
   -0.5476    3.8742    0.0000 C   0  0  0  0  0  0  0  0  0
  1  2  1  0  0  0  0
  1 21  1  0  0  0  0
  2  3  1  0  0  0  0
  3  4  1  0  0  0  0
  4  5  1  0  0  0  0
  5  6  1  0  0  0  0
  6  7  1  0  0  0  0
  7  8  1  0  0  0  0
  8  9  4  0  0  0  0
  8 13  4  0  0  0  0
  9 10  4  0  0  0  0
 10 11  4  0  0  0  0
 11 12  4  0  0  0  0
 12 13  4  0  0  0  0
 13 14  1  0  0  0  0
 14 15  1  0  0  0  0
 15 16  4  0  0  0  0
 15 20  4  0  0  0  0
 16 17  4  0  0  0  0
 17 18  4  0  0  0  0
 18 19  4  0  0  0  0
 19 20  4  0  0  0  0
 21 22  4  0  0  0  0
 21 28  4  0  0  0  0
 22 23  1  0  0  0  0
 22 25  4  0  0  0  0
 23 24  1  0  0  0  0
 25 26  4  0  0  0  0
 26 27  4  0  0  0  0
 27 28  4  0  0  0  0
 28 29  1  0  0  0  0
 29 30  1  0  0  0  0
M  END
>  <Name_Molregno>
64271

>  <5-HT1A>
7.97

>  <Alpha-1A>
9.4

>  <Alpha-1B>
8.55

$$$$
66613
  Marvin  02231216192D 0   1.00000     0.00000     0

 14 15  0  0  1  0  0  0  0  0999 V2000
   -3.5937   -0.7341    0.0000 O   0  0  0  0  0  0  0  0  0
   -2.8091   -0.9890    0.0000 C   0  0  0  0  0  0  0  0  0
   -2.0946   -0.5765    0.0000 C   0  0  0  0  0  0  0  0  0
   -1.3801   -0.9890    0.0000 C   0  0  0  0  0  0  0  0  0
   -1.3801   -1.8140    0.0000 C   0  0  0  0  0  0  0  0  0
   -2.0946   -2.2265    0.0000 C   0  0  0  0  0  0  0  0  0
   -2.8091   -1.8140    0.0000 C   0  0  0  0  0  0  0  0  0
   -3.5937   -2.0690    0.0000 O   0  0  0  0  0  0  0  0  0
   -4.0786   -1.4015    0.0000 C   0  0  0  0  0  0  0  0  0
   -0.6657   -0.5765    0.0000 C   0  0  0  0  0  0  0  0  0
   -0.6657    0.2485    0.0000 C   0  0  0  0  0  0  0  0  0
    0.0488    0.6610    0.0000 N   0  0  0  0  0  0  0  0  0
    0.0488    1.4860    0.0000 C   0  0  0  0  0  0  0  0  0
   -1.3801    0.6610    0.0000 C   0  0  0  0  0  0  0  0  0
  1  2  1  0  0  0  0
  1  9  1  0  0  0  0
  2  3  4  0  0  0  0
  2  7  4  0  0  0  0
  3  4  4  0  0  0  0
  4  5  4  0  0  0  0
  4 10  1  0  0  0  0
  5  6  4  0  0  0  0
  6  7  4  0  0  0  0
  7  8  1  0  0  0  0
  8  9  1  0  0  0  0
 10 11  1  0  0  0  0
 11 12  1  0  0  0  0
 11 14  1  0  0  0  0
 12 13  1  0  0  0  0
M  END
>  <Name_Molregno>
66613

>  <5-HT1A>
5

>  <5-HT1B>
5

>  <5-HT1D>
5

>  <5-HT1E>
5

>  <5-HT2A>
5

>  <5-HT3>
5

>  <5-HT5>
5

>  <5-HT6>
5

>  <5-HT7>
5

>  <Alpha-1A>
5

>  <Alpha-1B>
5

>  <Alpha-2A>
5.6

>  <Alpha-2B>
5.75

>  <Alpha-2C>
5.95

>  <Beta-1>
5

>  <Beta-2>
5

>  <DOPAMINE D1>
5

>  <DOPAMINE D2>
5

>  <DOPAMINE D3>
5

>  <DOPAMINE D4>
5

>  <DOPAMINE D5>
5

>  <Dopamine transporter>
5

>  <HISTAMINE H1>
5.67

>  <HISTAMINE H2>
5

>  <Muscarinic acetylcholine receptor M1>
5

>  <Muscarinic acetylcholine receptor M2>
5

>  <Muscarinic acetylcholine receptor M3>
5.73

>  <Muscarinic acetylcholine receptor M4>
5.08

>  <Muscarinic acetylcholine receptor M5>
5.2

>  <Norepinephrine transporter>
5

>  <Serotonin transporter>
7.24

$$$$
73788
  Marvin  02231216192D 0   1.00000     0.00000     0

 17 18  0  0  0  0  0  0  0  0999 V2000
   -0.2112   -0.4925    0.0000 Br  0  0  0  0  0  0  0  0  0
   -0.2112   -1.3175    0.0000 C   0  0  0  0  0  0  0  0  0
    0.5033   -1.7300    0.0000 C   0  0  0  0  0  0  0  0  0
    1.2177   -1.3175    0.0000 N   0  0  0  0  0  0  0  0  0
    1.9322   -1.7300    0.0000 C   0  0  0  0  0  0  0  0  0
    1.9322   -2.5550    0.0000 C   0  0  0  0  0  0  0  0  0
    1.2177   -2.9675    0.0000 N   0  0  0  0  0  0  0  0  0
    0.5033   -2.5550    0.0000 C   0  0  0  0  0  0  0  0  0
   -0.2112   -2.9675    0.0000 C   0  0  0  0  0  0  0  0  0
   -0.9257   -2.5550    0.0000 C   0  0  0  0  0  0  0  0  0
   -0.9257   -1.7300    0.0000 C   0  0  0  0  0  0  0  0  0
   -1.6401   -1.3175    0.0000 N   0  0  0  0  0  0  0  0  0
   -1.6401   -0.4925    0.0000 C   0  0  0  0  0  0  0  0  0
   -2.3546   -0.0800    0.0000 N   0  0  0  0  0  0  0  0  0
   -3.0691   -0.4925    0.0000 C   0  0  0  0  0  0  0  0  0
   -0.9257   -0.0800    0.0000 N   0  0  0  0  0  0  0  0  0
   -0.9257    0.7450    0.0000 C   0  0  0  0  0  0  0  0  0
  1  2  1  0  0  0  0
  2  3  4  0  0  0  0
  2 11  4  0  0  0  0
  3  4  4  0  0  0  0
  3  8  4  0  0  0  0
  4  5  4  0  0  0  0
  5  6  4  0  0  0  0
  6  7  4  0  0  0  0
  7  8  4  0  0  0  0
  8  9  4  0  0  0  0
  9 10  4  0  0  0  0
 10 11  4  0  0  0  0
 11 12  1  0  0  0  0
 12 13  1  0  0  0  0
 13 14  2  0  0  0  0
 13 16  1  0  0  0  0
 14 15  1  0  0  0  0
 16 17  1  0  0  0  0
M  END
>  <Name_Molregno>
73788

>  <Alpha-1A>
5

>  <Alpha-1B>
5

$$$$
73789
  Marvin  02231216192D 0   1.00000     0.00000     0

 17 19  0  0  0  0  0  0  0  0999 V2000
   -0.0467    0.0317    0.0000 O   0  0  0  0  0  0  0  0  0
   -0.7612   -0.3808    0.0000 C   0  0  0  0  0  0  0  0  0
   -0.7612   -1.2058    0.0000 C   0  0  0  0  0  0  0  0  0
   -0.0467   -1.6183    0.0000 O   0  0  0  0  0  0  0  0  0
    0.6677   -1.2058    0.0000 C   0  0  0  0  0  0  0  0  0
    0.6677   -0.3808    0.0000 C   0  0  0  0  0  0  0  0  0
    1.3822    0.0317    0.0000 C   0  0  0  0  0  0  0  0  0
    2.0967   -0.3808    0.0000 C   0  0  0  0  0  0  0  0  0
    2.8112    0.0317    0.0000 N   0  0  0  0  0  0  0  0  0
    2.8112    0.8567    0.0000 C   0  0  0  0  0  0  0  0  0
    3.5256   -0.3808    0.0000 C   0  0  0  0  0  0  0  0  0
    4.2793   -0.0452    0.0000 N   0  0  0  0  0  0  0  0  0
    4.8313   -0.6583    0.0000 C   0  0  0  0  0  0  0  0  0
    4.4188   -1.3728    0.0000 C   0  0  0  0  0  0  0  0  0
    3.6119   -1.2013    0.0000 N   0  0  0  0  0  0  0  0  0
    2.0967   -1.2058    0.0000 C   0  0  0  0  0  0  0  0  0
    1.3822   -1.6183    0.0000 C   0  0  0  0  0  0  0  0  0
  1  2  1  0  0  0  0
  1  6  1  0  0  0  0
  2  3  1  0  0  0  0
  3  4  1  0  0  0  0
  4  5  1  0  0  0  0
  5  6  4  0  0  0  0
  5 17  4  0  0  0  0
  6  7  4  0  0  0  0
  7  8  4  0  0  0  0
  8  9  1  0  0  0  0
  8 16  4  0  0  0  0
  9 10  1  0  0  0  0
  9 11  1  0  0  0  0
 11 12  1  0  0  0  0
 11 15  2  0  0  0  0
 12 13  1  0  0  0  0
 13 14  1  0  0  0  0
 14 15  1  0  0  0  0
 16 17  4  0  0  0  0
M  END
>  <Name_Molregno>
73789

>  <Alpha-1A>
4.52

>  <Alpha-1B>
4.52

$$$$
73830
  Marvin  02231216192D 0   1.00000     0.00000     0

 13 14  0  0  0  0  0  0  0  0999 V2000
    1.0596   -2.3657    0.0000 N   0  0  0  0  0  0  0  0  0
    0.8047   -3.1503    0.0000 C   0  0  0  0  0  0  0  0  0
   -0.0203   -3.1503    0.0000 C   0  0  0  0  0  0  0  0  0
   -0.2752   -2.3657    0.0000 N   0  0  0  0  0  0  0  0  0
    0.3922   -1.8808    0.0000 C   0  0  0  0  0  0  0  0  0
    0.3922   -1.0558    0.0000 N   0  0  0  0  0  0  0  0  0
    1.1067   -0.6433    0.0000 C   0  0  0  0  0  0  0  0  0
    1.1067    0.1817    0.0000 C   0  0  0  0  0  0  0  0  0
    1.8211    0.5942    0.0000 C   0  0  0  0  0  0  0  0  0
    2.5356    0.1817    0.0000 C   0  0  0  0  0  0  0  0  0
    2.5356   -0.6433    0.0000 C   0  0  0  0  0  0  0  0  0
    1.8211   -1.0558    0.0000 C   0  0  0  0  0  0  0  0  0
    1.8211   -1.8808    0.0000 C   0  0  0  0  0  0  0  0  0
  1  2  1  0  0  0  0
  1  5  1  0  0  0  0
  2  3  1  0  0  0  0
  3  4  1  0  0  0  0
  4  5  2  0  0  0  0
  5  6  1  0  0  0  0
  6  7  1  0  0  0  0
  7  8  4  0  0  0  0
  7 12  4  0  0  0  0
  8  9  4  0  0  0  0
  9 10  4  0  0  0  0
 10 11  4  0  0  0  0
 11 12  4  0  0  0  0
 12 13  1  0  0  0  0
M  END
>  <Name_Molregno>
73830

>  <Alpha-1A>
5.6

>  <Alpha-1B>
5.6

$$$$
73831
  Marvin  02231216192D 0   1.00000     0.00000     0

 17 19  0  0  0  0  0  0  0  0999 V2000
   -0.2285    1.4943    0.0000 O   0  0  0  0  0  0  0  0  0
    0.4860    1.9068    0.0000 C   0  0  0  0  0  0  0  0  0
    0.4860    2.7318    0.0000 C   0  0  0  0  0  0  0  0  0
   -0.2285    3.1443    0.0000 O   0  0  0  0  0  0  0  0  0
   -0.9430    2.7318    0.0000 C   0  0  0  0  0  0  0  0  0
   -0.9430    1.9068    0.0000 C   0  0  0  0  0  0  0  0  0
    1.2005    3.1443    0.0000 C   0  0  0  0  0  0  0  0  0
    1.9149    2.7318    0.0000 C   0  0  0  0  0  0  0  0  0
    1.9149    1.9068    0.0000 C   0  0  0  0  0  0  0  0  0
    2.6294    1.4943    0.0000 N   0  0  0  0  0  0  0  0  0
    2.6294    0.6693    0.0000 C   0  0  0  0  0  0  0  0  0
    3.2968    0.1844    0.0000 N   0  0  0  0  0  0  0  0  0
    3.0419   -0.6002    0.0000 C   0  0  0  0  0  0  0  0  0
    2.2169   -0.6002    0.0000 C   0  0  0  0  0  0  0  0  0
    1.9620    0.1844    0.0000 N   0  0  0  0  0  0  0  0  0
    1.2005    1.4943    0.0000 C   0  0  0  0  0  0  0  0  0
    1.2005    0.6693    0.0000 C   0  0  0  0  0  0  0  0  0
  1  2  1  0  0  0  0
  1  6  1  0  0  0  0
  2  3  4  0  0  0  0
  2 16  4  0  0  0  0
  3  4  1  0  0  0  0
  3  7  4  0  0  0  0
  4  5  1  0  0  0  0
  5  6  1  0  0  0  0
  7  8  4  0  0  0  0
  8  9  4  0  0  0  0
  9 10  1  0  0  0  0
  9 16  4  0  0  0  0
 10 11  1  0  0  0  0
 11 12  1  0  0  0  0
 11 15  2  0  0  0  0
 12 13  1  0  0  0  0
 13 14  1  0  0  0  0
 14 15  1  0  0  0  0
 16 17  1  0  0  0  0
M  END
>  <Name_Molregno>
73831

>  <Alpha-1A>
6.89

>  <Alpha-1B>
6.89

$$$$
74122
  Marvin  02231216192D 0   1.00000     0.00000     0

 17 19  0  0  0  0  0  0  0  0999 V2000
    0.5729    1.7513    0.0000 O   0  0  0  0  0  0  0  0  0
   -0.1415    1.3388    0.0000 C   0  0  0  0  0  0  0  0  0
   -0.1415    0.5138    0.0000 C   0  0  0  0  0  0  0  0  0
    0.5729    0.1013    0.0000 N   0  0  0  0  0  0  0  0  0
    1.2874    0.5138    0.0000 C   0  0  0  0  0  0  0  0  0
    1.2874    1.3388    0.0000 C   0  0  0  0  0  0  0  0  0
    2.0019    1.7513    0.0000 C   0  0  0  0  0  0  0  0  0
    2.7164    1.3388    0.0000 C   0  0  0  0  0  0  0  0  0
    2.7164    0.5138    0.0000 C   0  0  0  0  0  0  0  0  0
    3.4308    0.1013    0.0000 N   0  0  0  0  0  0  0  0  0
    3.4308   -0.7237    0.0000 C   0  0  0  0  0  0  0  0  0
    4.0983   -1.2086    0.0000 N   0  0  0  0  0  0  0  0  0
    3.8433   -1.9932    0.0000 C   0  0  0  0  0  0  0  0  0
    3.0183   -1.9932    0.0000 C   0  0  0  0  0  0  0  0  0
    2.7634   -1.2086    0.0000 N   0  0  0  0  0  0  0  0  0
    2.0019    0.1013    0.0000 C   0  0  0  0  0  0  0  0  0
    2.0019   -0.7237    0.0000 C   0  0  0  0  0  0  0  0  0
  1  2  1  0  0  0  0
  1  6  1  0  0  0  0
  2  3  1  0  0  0  0
  3  4  1  0  0  0  0
  4  5  1  0  0  0  0
  5  6  4  0  0  0  0
  5 16  4  0  0  0  0
  6  7  4  0  0  0  0
  7  8  4  0  0  0  0
  8  9  4  0  0  0  0
  9 10  1  0  0  0  0
  9 16  4  0  0  0  0
 10 11  1  0  0  0  0
 11 12  1  0  0  0  0
 11 15  2  0  0  0  0
 12 13  1  0  0  0  0
 13 14  1  0  0  0  0
 14 15  1  0  0  0  0
 16 17  1  0  0  0  0
M  END
>  <Name_Molregno>
74122

>  <Alpha-1A>
6.33

>  <Alpha-1B>
6.33

$$$$
74123
  Marvin  02231216192D 0   1.00000     0.00000     0

 17 19  0  0  0  0  0  0  0  0999 V2000
    1.6725   -1.9116    0.0000 N   0  0  0  0  0  0  0  0  0
    1.4175   -2.6962    0.0000 C   0  0  0  0  0  0  0  0  0
    0.5925   -2.6962    0.0000 C   0  0  0  0  0  0  0  0  0
    0.3376   -1.9116    0.0000 N   0  0  0  0  0  0  0  0  0
    1.0050   -1.4267    0.0000 C   0  0  0  0  0  0  0  0  0
    1.0050   -0.6017    0.0000 N   0  0  0  0  0  0  0  0  0
    1.7195   -0.1892    0.0000 C   0  0  0  0  0  0  0  0  0
    1.7195    0.6358    0.0000 C   0  0  0  0  0  0  0  0  0
    2.4340    1.0483    0.0000 C   0  0  0  0  0  0  0  0  0
    3.1485    0.6358    0.0000 C   0  0  0  0  0  0  0  0  0
    3.8629    1.0483    0.0000 N   0  0  0  0  0  0  0  0  0
    4.5774    0.6358    0.0000 C   0  0  0  0  0  0  0  0  0
    4.5774   -0.1892    0.0000 C   0  0  0  0  0  0  0  0  0
    3.8629   -0.6017    0.0000 N   0  0  0  0  0  0  0  0  0
    3.1485   -0.1892    0.0000 C   0  0  0  0  0  0  0  0  0
    2.4340   -0.6017    0.0000 C   0  0  0  0  0  0  0  0  0
    2.4340   -1.4267    0.0000 C   0  0  0  0  0  0  0  0  0
  1  2  1  0  0  0  0
  1  5  1  0  0  0  0
  2  3  1  0  0  0  0
  3  4  1  0  0  0  0
  4  5  2  0  0  0  0
  5  6  1  0  0  0  0
  6  7  1  0  0  0  0
  7  8  4  0  0  0  0
  7 16  4  0  0  0  0
  8  9  4  0  0  0  0
  9 10  4  0  0  0  0
 10 11  1  0  0  0  0
 10 15  4  0  0  0  0
 11 12  1  0  0  0  0
 12 13  1  0  0  0  0
 13 14  1  0  0  0  0
 14 15  1  0  0  0  0
 15 16  4  0  0  0  0
 16 17  1  0  0  0  0
M  END
>  <Name_Molregno>
74123

>  <Alpha-1A>
5.05

>  <Alpha-1B>
5.05

$$$$
74124
  Marvin  02231216192D 0   1.00000     0.00000     0

 17 18  0  0  0  0  0  0  0  0999 V2000
    1.0216    3.5714    0.0000 O   0  0  0  0  0  0  0  0  0
    0.3071    3.9839    0.0000 C   0  0  0  0  0  0  0  0  0
    1.0216    2.7464    0.0000 C   0  0  0  0  0  0  0  0  0
    1.7361    2.3339    0.0000 C   0  0  0  0  0  0  0  0  0
    2.4505    2.7464    0.0000 C   0  0  0  0  0  0  0  0  0
    1.7361    1.5089    0.0000 C   0  0  0  0  0  0  0  0  0
    2.4505    1.0964    0.0000 N   0  0  0  0  0  0  0  0  0
    2.4505    0.2714    0.0000 C   0  0  0  0  0  0  0  0  0
    3.1180   -0.2135    0.0000 N   0  0  0  0  0  0  0  0  0
    2.8630   -0.9981    0.0000 C   0  0  0  0  0  0  0  0  0
    2.0380   -0.9981    0.0000 C   0  0  0  0  0  0  0  0  0
    1.7831   -0.2135    0.0000 N   0  0  0  0  0  0  0  0  0
    1.0216    1.0964    0.0000 C   0  0  0  0  0  0  0  0  0
    0.3071    1.5089    0.0000 C   0  0  0  0  0  0  0  0  0
    0.3071    2.3339    0.0000 C   0  0  0  0  0  0  0  0  0
   -0.4073    2.7464    0.0000 O   0  0  0  0  0  0  0  0  0
   -1.1218    2.3339    0.0000 C   0  0  0  0  0  0  0  0  0
  1  2  1  0  0  0  0
  1  3  1  0  0  0  0
  3  4  4  0  0  0  0
  3 15  4  0  0  0  0
  4  5  1  0  0  0  0
  4  6  4  0  0  0  0
  6  7  1  0  0  0  0
  6 13  4  0  0  0  0
  7  8  1  0  0  0  0
  8  9  1  0  0  0  0
  8 12  2  0  0  0  0
  9 10  1  0  0  0  0
 10 11  1  0  0  0  0
 11 12  1  0  0  0  0
 13 14  4  0  0  0  0
 14 15  4  0  0  0  0
 15 16  1  0  0  0  0
 16 17  1  0  0  0  0
M  END
>  <Name_Molregno>
74124

>  <Alpha-1A>
5.82

>  <Alpha-1B>
5.82

$$$$
74566
  Marvin  02231216192D 0   1.00000     0.00000     0

 17 19  0  0  0  0  0  0  0  0999 V2000
   -0.2285    1.4943    0.0000 N   0  0  0  0  0  0  0  0  0
    0.4860    1.9068    0.0000 C   0  0  0  0  0  0  0  0  0
    0.4860    2.7318    0.0000 C   0  0  0  0  0  0  0  0  0
   -0.2285    3.1443    0.0000 N   0  0  0  0  0  0  0  0  0
   -0.9430    2.7318    0.0000 C   0  0  0  0  0  0  0  0  0
   -0.9430    1.9068    0.0000 C   0  0  0  0  0  0  0  0  0
    1.2005    3.1443    0.0000 C   0  0  0  0  0  0  0  0  0
    1.9149    2.7318    0.0000 C   0  0  0  0  0  0  0  0  0
    1.9149    1.9068    0.0000 C   0  0  0  0  0  0  0  0  0
    2.6294    1.4943    0.0000 N   0  0  0  0  0  0  0  0  0
    2.6294    0.6693    0.0000 C   0  0  0  0  0  0  0  0  0
    3.2968    0.1844    0.0000 N   0  0  0  0  0  0  0  0  0
    3.0419   -0.6002    0.0000 C   0  0  0  0  0  0  0  0  0
    2.2169   -0.6002    0.0000 C   0  0  0  0  0  0  0  0  0
    1.9620    0.1844    0.0000 N   0  0  0  0  0  0  0  0  0
    1.2005    1.4943    0.0000 C   0  0  0  0  0  0  0  0  0
    1.2005    0.6693    0.0000 C   0  0  0  0  0  0  0  0  0
  1  2  4  0  0  0  0
  1  6  4  0  0  0  0
  2  3  4  0  0  0  0
  2 16  4  0  0  0  0
  3  4  4  0  0  0  0
  3  7  4  0  0  0  0
  4  5  4  0  0  0  0
  5  6  4  0  0  0  0
  7  8  4  0  0  0  0
  8  9  4  0  0  0  0
  9 10  1  0  0  0  0
  9 16  4  0  0  0  0
 10 11  1  0  0  0  0
 11 12  1  0  0  0  0
 11 15  2  0  0  0  0
 12 13  1  0  0  0  0
 13 14  1  0  0  0  0
 14 15  1  0  0  0  0
 16 17  1  0  0  0  0
M  END
>  <Name_Molregno>
74566

>  <Alpha-1A>
5.84

>  <Alpha-1B>
5.73

>  <Alpha-2A>
8.42

>  <Alpha-2B>
8.05

>  <Alpha-2C>
7.56

$$$$
74617
  Marvin  02231216192D 0   1.00000     0.00000     0

 15 16  0  0  0  0  0  0  0  0999 V2000
   -0.7206   -0.1895    0.0000 Br  0  0  0  0  0  0  0  0  0
   -0.7206   -1.0145    0.0000 C   0  0  0  0  0  0  0  0  0
   -0.0061   -1.4270    0.0000 C   0  0  0  0  0  0  0  0  0
    0.7084   -1.0145    0.0000 N   0  0  0  0  0  0  0  0  0
    1.4228   -1.4270    0.0000 C   0  0  0  0  0  0  0  0  0
    1.4228   -2.2520    0.0000 C   0  0  0  0  0  0  0  0  0
    0.7084   -2.6645    0.0000 N   0  0  0  0  0  0  0  0  0
   -0.0061   -2.2520    0.0000 C   0  0  0  0  0  0  0  0  0
   -0.7206   -2.6645    0.0000 C   0  0  0  0  0  0  0  0  0
   -1.4350   -2.2520    0.0000 C   0  0  0  0  0  0  0  0  0
   -1.4350   -1.4270    0.0000 C   0  0  0  0  0  0  0  0  0
   -2.1495   -1.0145    0.0000 N   0  0  0  0  0  0  0  0  0
   -2.1495   -0.1895    0.0000 C   0  0  0  0  0  0  0  0  0
   -2.8640    0.2230    0.0000 N   0  0  0  0  0  0  0  0  0
   -1.4350    0.2230    0.0000 N   0  0  0  0  0  0  0  0  0
  1  2  1  0  0  0  0
  2  3  4  0  0  0  0
  2 11  4  0  0  0  0
  3  4  4  0  0  0  0
  3  8  4  0  0  0  0
  4  5  4  0  0  0  0
  5  6  4  0  0  0  0
  6  7  4  0  0  0  0
  7  8  4  0  0  0  0
  8  9  4  0  0  0  0
  9 10  4  0  0  0  0
 10 11  4  0  0  0  0
 11 12  1  0  0  0  0
 12 13  1  0  0  0  0
 13 14  1  0  0  0  0
 13 15  2  0  0  0  0
M  END
>  <Name_Molregno>
74617

>  <Alpha-1A>
4.77

>  <Alpha-1B>
4.77

$$$$
74871
  Marvin  02231216192D 0   1.00000     0.00000     0

 16 18  0  0  0  0  0  0  0  0999 V2000
   -3.8155    0.0268    0.0000 N   0  0  0  0  0  0  0  0  0
   -3.1011   -0.3857    0.0000 C   0  0  0  0  0  0  0  0  0
   -2.3866    0.0268    0.0000 C   0  0  0  0  0  0  0  0  0
   -1.6721   -0.3857    0.0000 C   0  0  0  0  0  0  0  0  0
   -0.9576    0.0268    0.0000 N   0  0  0  0  0  0  0  0  0
   -0.2432   -0.3857    0.0000 C   0  0  0  0  0  0  0  0  0
    0.5105   -0.0502    0.0000 N   0  0  0  0  0  0  0  0  0
    1.0625   -0.6633    0.0000 C   0  0  0  0  0  0  0  0  0
    0.6500   -1.3777    0.0000 C   0  0  0  0  0  0  0  0  0
   -0.1569   -1.2062    0.0000 N   0  0  0  0  0  0  0  0  0
   -1.6721   -1.2107    0.0000 C   0  0  0  0  0  0  0  0  0
   -2.3866   -1.6232    0.0000 C   0  0  0  0  0  0  0  0  0
   -3.1011   -1.2107    0.0000 C   0  0  0  0  0  0  0  0  0
   -3.8155   -1.6232    0.0000 N   0  0  0  0  0  0  0  0  0
   -4.5300   -1.2107    0.0000 C   0  0  0  0  0  0  0  0  0
   -4.5300   -0.3857    0.0000 C   0  0  0  0  0  0  0  0  0
  1  2  4  0  0  0  0
  1 16  4  0  0  0  0
  2  3  4  0  0  0  0
  2 13  4  0  0  0  0
  3  4  4  0  0  0  0
  4  5  1  0  0  0  0
  4 11  4  0  0  0  0
  5  6  1  0  0  0  0
  6  7  1  0  0  0  0
  6 10  2  0  0  0  0
  7  8  1  0  0  0  0
  8  9  1  0  0  0  0
  9 10  1  0  0  0  0
 11 12  4  0  0  0  0
 12 13  4  0  0  0  0
 13 14  4  0  0  0  0
 14 15  4  0  0  0  0
 15 16  4  0  0  0  0
M  END
>  <Name_Molregno>
74871

>  <Alpha-1A>
4.85

>  <Alpha-1B>
5.22

>  <Alpha-2A>
6.51

>  <Alpha-2B>
6.66

>  <Alpha-2C>
5.85

$$$$
76310
  Marvin  02231216192D 0   1.00000     0.00000     0

 40 44  0  0  1  0  0  0  0  0999 V2000
    3.5755    2.7333    0.0000 F   0  0  0  0  0  0  0  0  0
    2.8610    2.3208    0.0000 C   0  0  0  0  0  0  0  0  0
    2.8610    1.4958    0.0000 C   0  0  0  0  0  0  0  0  0
    2.1465    1.0833    0.0000 C   0  0  0  0  0  0  0  0  0
    1.4321    1.4958    0.0000 C   0  0  0  0  0  0  0  0  0
    1.4321    2.3208    0.0000 C   0  0  0  0  0  0  0  0  0
    2.1465    2.7333    0.0000 C   0  0  0  0  0  0  0  0  0
    2.1465    3.5583    0.0000 F   0  0  0  0  0  0  0  0  0
    2.1465    0.2583    0.0000 C   0  0  0  0  0  0  0  0  0
    2.8610   -0.1542    0.0000 N   0  0  0  0  0  0  0  0  0
    3.5755    0.2583    0.0000 C   0  0  0  0  0  0  0  0  0
    3.5755    1.0833    0.0000 O   0  0  0  0  0  0  0  0  0
    4.2899   -0.1542    0.0000 N   0  0  0  0  0  0  0  0  0
    5.0044    0.2583    0.0000 C   0  0  0  0  0  0  0  0  0
    5.7189   -0.1542    0.0000 C   0  0  0  0  0  0  0  0  0
    6.4333    0.2583    0.0000 C   0  0  0  0  0  0  0  0  0
    7.1478   -0.1542    0.0000 N   0  0  0  0  0  0  0  0  0
    7.8623    0.2583    0.0000 C   0  0  0  0  0  0  0  0  0
    8.5768   -0.1542    0.0000 C   0  0  0  0  0  0  0  0  0
    8.5768   -0.9792    0.0000 N   0  0  0  0  0  0  0  0  0
    7.8623   -1.3917    0.0000 C   0  0  0  0  0  0  0  0  0
    7.1478   -0.9792    0.0000 C   0  0  0  0  0  0  0  0  0
    9.2912   -1.3917    0.0000 C   0  0  0  0  0  0  0  0  0
   10.0057   -0.9792    0.0000 C   0  0  0  0  0  0  0  0  0
   10.7202   -1.3917    0.0000 C   0  0  0  0  0  0  0  0  0
   10.7202   -2.2167    0.0000 C   0  0  0  0  0  0  0  0  0
   10.0057   -2.6292    0.0000 C   0  0  0  0  0  0  0  0  0
    9.2912   -2.2167    0.0000 C   0  0  0  0  0  0  0  0  0
    8.5768   -2.6292    0.0000 N   0  3  0  0  0  0  0  0  0
    8.5768   -3.4542    0.0000 O   0  5  0  0  0  0  0  0  0
    7.8623   -2.2167    0.0000 O   0  5  0  0  0  0  0  0  0
    2.8610   -0.9792    0.0000 C   0  0  0  0  0  0  0  0  0
    3.5755   -1.3917    0.0000 O   0  0  0  0  0  0  0  0  0
    2.1465   -1.3917    0.0000 N   0  0  0  0  0  0  0  0  0
    1.4321   -0.9792    0.0000 C   0  0  0  0  0  0  0  0  0
    1.4321   -0.1542    0.0000 C   0  0  0  0  0  0  0  0  0
    0.6474    0.1007    0.0000 C   0  0  0  0  0  0  0  0  0
    0.1625   -0.5667    0.0000 O   0  0  0  0  0  0  0  0  0
    0.6474   -1.2342    0.0000 C   0  0  0  0  0  0  0  0  0
    0.3925    0.8853    0.0000 O   0  0  0  0  0  0  0  0  0
  1  2  1  0  0  0  0
  2  3  4  0  0  0  0
  2  7  4  0  0  0  0
  3  4  4  0  0  0  0
  4  5  4  0  0  0  0
  4  9  1  0  0  0  0
  5  6  4  0  0  0  0
  6  7  4  0  0  0  0
  7  8  1  0  0  0  0
  9 10  1  0  0  0  0
  9 36  1  0  0  0  0
 10 11  1  0  0  0  0
 10 32  1  0  0  0  0
 11 12  2  0  0  0  0
 11 13  1  0  0  0  0
 13 14  1  0  0  0  0
 14 15  1  0  0  0  0
 15 16  1  0  0  0  0
 16 17  1  0  0  0  0
 17 18  1  0  0  0  0
 17 22  1  0  0  0  0
 18 19  1  0  0  0  0
 19 20  1  0  0  0  0
 20 21  1  0  0  0  0
 20 23  1  0  0  0  0
 21 22  1  0  0  0  0
 23 24  4  0  0  0  0
 23 28  4  0  0  0  0
 24 25  4  0  0  0  0
 25 26  4  0  0  0  0
 26 27  4  0  0  0  0
 27 28  4  0  0  0  0
 28 29  1  0  0  0  0
 29 30  1  0  0  0  0
 29 31  1  0  0  0  0
 32 33  2  0  0  0  0
 32 34  1  0  0  0  0
 34 35  1  0  0  0  0
 35 36  2  0  0  0  0
 35 39  1  0  0  0  0
 36 37  1  0  0  0  0
 37 38  1  0  0  0  0
 37 40  2  0  0  0  0
 38 39  1  0  0  0  0
M  CHG  3  29   1  30  -1  31  -1
M  END
>  <Name_Molregno>
76310

>  <Alpha-1A>
9.22

>  <Alpha-1B>
6.68

$$$$
76311
  Marvin  02231216192D 0   1.00000     0.00000     0

 40 44  0  0  1  0  0  0  0  0999 V2000
    3.5755    2.7333    0.0000 F   0  0  0  0  0  0  0  0  0
    2.8610    2.3208    0.0000 C   0  0  0  0  0  0  0  0  0
    2.8610    1.4958    0.0000 C   0  0  0  0  0  0  0  0  0
    2.1465    1.0833    0.0000 C   0  0  0  0  0  0  0  0  0
    1.4321    1.4958    0.0000 C   0  0  0  0  0  0  0  0  0
    1.4321    2.3208    0.0000 C   0  0  0  0  0  0  0  0  0
    2.1465    2.7333    0.0000 C   0  0  0  0  0  0  0  0  0
    2.1465    3.5583    0.0000 F   0  0  0  0  0  0  0  0  0
    2.1465    0.2583    0.0000 C   0  0  0  0  0  0  0  0  0
    2.8610   -0.1542    0.0000 N   0  0  0  0  0  0  0  0  0
    3.5755    0.2583    0.0000 C   0  0  0  0  0  0  0  0  0
    3.5755    1.0833    0.0000 O   0  0  0  0  0  0  0  0  0
    4.2899   -0.1542    0.0000 N   0  0  0  0  0  0  0  0  0
    5.0044    0.2583    0.0000 C   0  0  0  0  0  0  0  0  0
    5.7189   -0.1542    0.0000 C   0  0  0  0  0  0  0  0  0
    6.4333    0.2583    0.0000 C   0  0  0  0  0  0  0  0  0
    7.1478   -0.1542    0.0000 N   0  0  0  0  0  0  0  0  0
    7.8623    0.2583    0.0000 C   0  0  0  0  0  0  0  0  0
    8.5768   -0.1542    0.0000 C   0  0  0  0  0  0  0  0  0
    8.5768   -0.9792    0.0000 N   0  0  0  0  0  0  0  0  0
    7.8623   -1.3917    0.0000 C   0  0  0  0  0  0  0  0  0
    7.1478   -0.9792    0.0000 C   0  0  0  0  0  0  0  0  0
    9.2912   -1.3917    0.0000 C   0  0  0  0  0  0  0  0  0
   10.0057   -0.9792    0.0000 C   0  0  0  0  0  0  0  0  0
   10.7202   -1.3917    0.0000 C   0  0  0  0  0  0  0  0  0
   10.7202   -2.2167    0.0000 C   0  0  0  0  0  0  0  0  0
   10.0057   -2.6292    0.0000 C   0  0  0  0  0  0  0  0  0
    9.2912   -2.2167    0.0000 C   0  0  0  0  0  0  0  0  0
    8.5768   -2.6292    0.0000 C   0  0  0  0  0  0  0  0  0
    8.5768   -3.4542    0.0000 O   0  0  0  0  0  0  0  0  0
    7.8623   -2.2167    0.0000 N   0  0  0  0  0  0  0  0  0
    2.8610   -0.9792    0.0000 C   0  0  0  0  0  0  0  0  0
    3.5755   -1.3917    0.0000 O   0  0  0  0  0  0  0  0  0
    2.1465   -1.3917    0.0000 N   0  0  0  0  0  0  0  0  0
    1.4321   -0.9792    0.0000 C   0  0  0  0  0  0  0  0  0
    1.4321   -0.1542    0.0000 C   0  0  0  0  0  0  0  0  0
    0.6474    0.1007    0.0000 C   0  0  0  0  0  0  0  0  0
    0.1625   -0.5667    0.0000 O   0  0  0  0  0  0  0  0  0
    0.6474   -1.2342    0.0000 C   0  0  0  0  0  0  0  0  0
    0.3925    0.8853    0.0000 O   0  0  0  0  0  0  0  0  0
  1  2  1  0  0  0  0
  2  3  4  0  0  0  0
  2  7  4  0  0  0  0
  3  4  4  0  0  0  0
  4  5  4  0  0  0  0
  4  9  1  0  0  0  0
  5  6  4  0  0  0  0
  6  7  4  0  0  0  0
  7  8  1  0  0  0  0
  9 10  1  0  0  0  0
  9 36  1  0  0  0  0
 10 11  1  0  0  0  0
 10 32  1  0  0  0  0
 11 12  2  0  0  0  0
 11 13  1  0  0  0  0
 13 14  1  0  0  0  0
 14 15  1  0  0  0  0
 15 16  1  0  0  0  0
 16 17  1  0  0  0  0
 17 18  1  0  0  0  0
 17 22  1  0  0  0  0
 18 19  1  0  0  0  0
 19 20  1  0  0  0  0
 20 21  1  0  0  0  0
 20 23  1  0  0  0  0
 21 22  1  0  0  0  0
 23 24  4  0  0  0  0
 23 28  4  0  0  0  0
 24 25  4  0  0  0  0
 25 26  4  0  0  0  0
 26 27  4  0  0  0  0
 27 28  4  0  0  0  0
 28 29  1  0  0  0  0
 29 30  2  0  0  0  0
 29 31  1  0  0  0  0
 32 33  2  0  0  0  0
 32 34  1  0  0  0  0
 34 35  1  0  0  0  0
 35 36  2  0  0  0  0
 35 39  1  0  0  0  0
 36 37  1  0  0  0  0
 37 38  1  0  0  0  0
 37 40  2  0  0  0  0
 38 39  1  0  0  0  0
M  END
>  <Name_Molregno>
76311

>  <Alpha-1A>
8.64

>  <Alpha-1B>
6.46

$$$$
76450
  Marvin  02231216192D 0   1.00000     0.00000     0

 41 45  0  0  1  0  0  0  0  0999 V2000
   -0.4965    5.1016    0.0000 F   0  0  0  0  0  0  0  0  0
    0.2179    4.6891    0.0000 C   0  0  0  0  0  0  0  0  0
    0.2179    3.8641    0.0000 C   0  0  0  0  0  0  0  0  0
    0.9324    3.4516    0.0000 C   0  0  0  0  0  0  0  0  0
    1.6469    3.8641    0.0000 C   0  0  0  0  0  0  0  0  0
    1.6469    4.6891    0.0000 C   0  0  0  0  0  0  0  0  0
    0.9324    5.1016    0.0000 C   0  0  0  0  0  0  0  0  0
    0.9324    5.9266    0.0000 F   0  0  0  0  0  0  0  0  0
    0.9324    2.6266    0.0000 C   0  0  0  0  0  0  0  0  0
    1.6469    2.2141    0.0000 N   0  0  0  0  0  0  0  0  0
    2.3614    2.6266    0.0000 C   0  0  0  0  0  0  0  0  0
    2.3614    3.4516    0.0000 O   0  0  0  0  0  0  0  0  0
    3.0758    2.2141    0.0000 N   0  0  0  0  0  0  0  0  0
    3.7903    2.6266    0.0000 C   0  0  0  0  0  0  0  0  0
    4.5048    2.2141    0.0000 C   0  0  0  0  0  0  0  0  0
    5.2192    2.6266    0.0000 C   0  0  0  0  0  0  0  0  0
    5.9337    2.2141    0.0000 N   0  0  0  0  0  0  0  0  0
    6.6482    2.6266    0.0000 C   0  0  0  0  0  0  0  0  0
    7.3627    2.2141    0.0000 C   0  0  0  0  0  0  0  0  0
    7.3627    1.3891    0.0000 C   0  0  0  0  0  0  0  0  0
    6.6482    0.9766    0.0000 C   0  0  0  0  0  0  0  0  0
    5.9337    1.3891    0.0000 C   0  0  0  0  0  0  0  0  0
    7.7998    0.6894    0.0000 C   0  0  0  0  0  0  0  0  0
    7.4125   -0.0390    0.0000 O   0  0  0  0  0  0  0  0  0
    6.5880   -0.0678    0.0000 C   0  0  0  0  0  0  0  0  0
    8.4838    0.2281    0.0000 O   0  0  0  0  0  0  0  0  0
    8.1872    1.3603    0.0000 C   0  0  0  0  0  0  0  0  0
    8.6243    2.0599    0.0000 C   0  0  0  0  0  0  0  0  0
    9.4488    2.0311    0.0000 C   0  0  0  0  0  0  0  0  0
    9.8361    1.3027    0.0000 C   0  0  0  0  0  0  0  0  0
    9.3990    0.6030    0.0000 C   0  0  0  0  0  0  0  0  0
    8.5745    0.6318    0.0000 C   0  0  0  0  0  0  0  0  0
    1.6469    1.3891    0.0000 C   0  0  0  0  0  0  0  0  0
    2.3614    0.9766    0.0000 O   0  0  0  0  0  0  0  0  0
    0.9324    0.9766    0.0000 N   0  0  0  0  0  0  0  0  0
    0.2179    1.3891    0.0000 C   0  0  0  0  0  0  0  0  0
    0.2179    2.2141    0.0000 C   0  0  0  0  0  0  0  0  0
   -0.5667    2.4690    0.0000 C   0  0  0  0  0  0  0  0  0
   -1.0516    1.8016    0.0000 O   0  0  0  0  0  0  0  0  0
   -0.5667    1.1341    0.0000 C   0  0  0  0  0  0  0  0  0
   -0.8216    3.2536    0.0000 O   0  0  0  0  0  0  0  0  0
  1  2  1  0  0  0  0
  2  3  4  0  0  0  0
  2  7  4  0  0  0  0
  3  4  4  0  0  0  0
  4  5  4  0  0  0  0
  4  9  1  0  0  0  0
  5  6  4  0  0  0  0
  6  7  4  0  0  0  0
  7  8  1  0  0  0  0
  9 10  1  0  0  0  0
  9 37  1  0  0  0  0
 10 11  1  0  0  0  0
 10 33  1  0  0  0  0
 11 12  2  0  0  0  0
 11 13  1  0  0  0  0
 13 14  1  0  0  0  0
 14 15  1  0  0  0  0
 15 16  1  0  0  0  0
 16 17  1  0  0  0  0
 17 18  1  0  0  0  0
 17 22  1  0  0  0  0
 18 19  1  0  0  0  0
 19 20  1  0  0  0  0
 20 21  1  0  0  0  0
 20 23  1  0  0  0  0
 20 27  1  0  0  0  0
 21 22  1  0  0  0  0
 23 24  1  0  0  0  0
 23 26  2  0  0  0  0
 24 25  1  0  0  0  0
 27 28  4  0  0  0  0
 27 32  4  0  0  0  0
 28 29  4  0  0  0  0
 29 30  4  0  0  0  0
 30 31  4  0  0  0  0
 31 32  4  0  0  0  0
 33 34  2  0  0  0  0
 33 35  1  0  0  0  0
 35 36  1  0  0  0  0
 36 37  2  0  0  0  0
 36 40  1  0  0  0  0
 37 38  1  0  0  0  0
 38 39  1  0  0  0  0
 38 41  2  0  0  0  0
 39 40  1  0  0  0  0
M  END
>  <Name_Molregno>
76450

>  <Alpha-1A>
9.08

>  <Alpha-1B>
6.46

$$$$
76511
  Marvin  02231216192D 0   1.00000     0.00000     0

 39 43  0  0  1  0  0  0  0  0999 V2000
    3.5522    3.1527    0.0000 F   0  0  0  0  0  0  0  0  0
    2.8377    2.7402    0.0000 C   0  0  0  0  0  0  0  0  0
    2.8377    1.9152    0.0000 C   0  0  0  0  0  0  0  0  0
    2.1233    1.5027    0.0000 C   0  0  0  0  0  0  0  0  0
    1.4088    1.9152    0.0000 C   0  0  0  0  0  0  0  0  0
    1.4088    2.7402    0.0000 C   0  0  0  0  0  0  0  0  0
    2.1233    3.1527    0.0000 C   0  0  0  0  0  0  0  0  0
    2.1233    3.9777    0.0000 F   0  0  0  0  0  0  0  0  0
    2.1233    0.6777    0.0000 C   0  0  0  0  0  0  0  0  0
    2.8377    0.2652    0.0000 N   0  0  0  0  0  0  0  0  0
    3.5522    0.6777    0.0000 C   0  0  0  0  0  0  0  0  0
    3.5522    1.5027    0.0000 O   0  0  0  0  0  0  0  0  0
    4.2667    0.2652    0.0000 N   0  0  0  0  0  0  0  0  0
    4.9812    0.6777    0.0000 C   0  0  0  0  0  0  0  0  0
    5.6956    0.2652    0.0000 C   0  0  0  0  0  0  0  0  0
    6.4101    0.6777    0.0000 C   0  0  0  0  0  0  0  0  0
    7.1246    0.2652    0.0000 N   0  0  0  0  0  0  0  0  0
    7.8390    0.6777    0.0000 C   0  0  0  0  0  0  0  0  0
    8.5535    0.2652    0.0000 C   0  0  0  0  0  0  0  0  0
    8.5535   -0.5598    0.0000 C   0  0  0  0  0  0  0  0  0
    7.8390   -0.9723    0.0000 C   0  0  0  0  0  0  0  0  0
    7.1246   -0.5598    0.0000 C   0  0  0  0  0  0  0  0  0
    9.3780   -0.5885    0.0000 C   0  0  0  0  0  0  0  0  0
   10.2025   -0.6173    0.0000 N   0  0  0  0  0  0  0  0  0
    8.9907   -1.2594    0.0000 C   0  0  0  0  0  0  0  0  0
    9.8152   -1.2306    0.0000 C   0  0  0  0  0  0  0  0  0
   10.2524   -1.9302    0.0000 C   0  0  0  0  0  0  0  0  0
    9.8651   -2.6587    0.0000 C   0  0  0  0  0  0  0  0  0
    9.0406   -2.6875    0.0000 C   0  0  0  0  0  0  0  0  0
    8.6034   -1.9878    0.0000 C   0  0  0  0  0  0  0  0  0
    2.8377   -0.5598    0.0000 C   0  0  0  0  0  0  0  0  0
    3.5522   -0.9723    0.0000 O   0  0  0  0  0  0  0  0  0
    2.1233   -0.9723    0.0000 N   0  0  0  0  0  0  0  0  0
    1.4088   -0.5598    0.0000 C   0  0  0  0  0  0  0  0  0
    1.4088    0.2652    0.0000 C   0  0  0  0  0  0  0  0  0
    0.6242    0.5202    0.0000 C   0  0  0  0  0  0  0  0  0
    0.1393   -0.1473    0.0000 O   0  0  0  0  0  0  0  0  0
    0.6242   -0.8147    0.0000 C   0  0  0  0  0  0  0  0  0
    0.3692    1.3048    0.0000 O   0  0  0  0  0  0  0  0  0
  1  2  1  0  0  0  0
  2  3  4  0  0  0  0
  2  7  4  0  0  0  0
  3  4  4  0  0  0  0
  4  5  4  0  0  0  0
  4  9  1  0  0  0  0
  5  6  4  0  0  0  0
  6  7  4  0  0  0  0
  7  8  1  0  0  0  0
  9 10  1  0  0  0  0
  9 35  1  0  0  0  0
 10 11  1  0  0  0  0
 10 31  1  0  0  0  0
 11 12  2  0  0  0  0
 11 13  1  0  0  0  0
 13 14  1  0  0  0  0
 14 15  1  0  0  0  0
 15 16  1  0  0  0  0
 16 17  1  0  0  0  0
 17 18  1  0  0  0  0
 17 22  1  0  0  0  0
 18 19  1  0  0  0  0
 19 20  1  0  0  0  0
 20 21  1  0  0  0  0
 20 23  1  0  0  0  0
 20 25  1  0  0  0  0
 21 22  1  0  0  0  0
 23 24  3  0  0  0  0
 25 26  4  0  0  0  0
 25 30  4  0  0  0  0
 26 27  4  0  0  0  0
 27 28  4  0  0  0  0
 28 29  4  0  0  0  0
 29 30  4  0  0  0  0
 31 32  2  0  0  0  0
 31 33  1  0  0  0  0
 33 34  1  0  0  0  0
 34 35  2  0  0  0  0
 34 38  1  0  0  0  0
 35 36  1  0  0  0  0
 36 37  1  0  0  0  0
 36 39  2  0  0  0  0
 37 38  1  0  0  0  0
M  END
>  <Name_Molregno>
76511

>  <Alpha-1A>
8.24

>  <Alpha-1B>
6.01

$$$$
76519
  Marvin  02231216192D 0   1.00000     0.00000     0

 42 46  0  0  1  0  0  0  0  0999 V2000
   -9.1443   -1.2996    0.0000 O   0  0  0  0  0  0  0  0  0
   -8.6594   -0.6321    0.0000 C   0  0  0  0  0  0  0  0  0
   -7.8747   -0.8871    0.0000 C   0  0  0  0  0  0  0  0  0
   -7.1603   -0.4746    0.0000 N   0  0  0  0  0  0  0  0  0
   -6.4458   -0.8871    0.0000 C   0  0  0  0  0  0  0  0  0
   -5.7313   -0.4746    0.0000 O   0  0  0  0  0  0  0  0  0
   -6.4458   -1.7121    0.0000 N   0  0  0  0  0  0  0  0  0
   -5.7313   -2.1246    0.0000 C   0  0  0  0  0  0  0  0  0
   -5.7313   -2.9496    0.0000 O   0  0  0  0  0  0  0  0  0
   -5.0169   -1.7121    0.0000 N   0  0  0  0  0  0  0  0  0
   -4.3024   -2.1246    0.0000 C   0  0  0  0  0  0  0  0  0
   -3.5879   -1.7121    0.0000 C   0  0  0  0  0  0  0  0  0
   -2.8734   -2.1246    0.0000 C   0  0  0  0  0  0  0  0  0
   -2.1590   -1.7121    0.0000 N   0  0  0  0  0  0  0  0  0
   -2.1590   -0.8871    0.0000 C   0  0  0  0  0  0  0  0  0
   -1.4445   -0.4746    0.0000 C   0  0  0  0  0  0  0  0  0
   -0.7300   -0.8871    0.0000 C   0  0  0  0  0  0  0  0  0
   -0.7300   -1.7121    0.0000 C   0  0  0  0  0  0  0  0  0
   -1.4445   -2.1246    0.0000 C   0  0  0  0  0  0  0  0  0
   -0.2929   -0.1874    0.0000 C   0  0  0  0  0  0  0  0  0
   -0.6802    0.5410    0.0000 O   0  0  0  0  0  0  0  0  0
   -0.2430    1.2407    0.0000 C   0  0  0  0  0  0  0  0  0
    0.3911    0.2739    0.0000 O   0  0  0  0  0  0  0  0  0
    0.0945   -0.8583    0.0000 C   0  0  0  0  0  0  0  0  0
    0.4818   -0.1298    0.0000 C   0  0  0  0  0  0  0  0  0
    1.3063   -0.1010    0.0000 C   0  0  0  0  0  0  0  0  0
    1.7435   -0.8007    0.0000 C   0  0  0  0  0  0  0  0  0
    1.3561   -1.5291    0.0000 C   0  0  0  0  0  0  0  0  0
    0.5316   -1.5579    0.0000 C   0  0  0  0  0  0  0  0  0
   -7.1603   -2.1246    0.0000 C   0  0  0  0  0  0  0  0  0
   -7.8747   -1.7121    0.0000 C   0  0  0  0  0  0  0  0  0
   -8.6594   -1.9670    0.0000 C   0  0  0  0  0  0  0  0  0
   -8.9143   -2.7516    0.0000 O   0  0  0  0  0  0  0  0  0
   -7.1603   -2.9496    0.0000 C   0  0  0  0  0  0  0  0  0
   -6.4458   -3.3621    0.0000 C   0  0  0  0  0  0  0  0  0
   -6.4458   -4.1871    0.0000 C   0  0  0  0  0  0  0  0  0
   -7.1603   -4.5996    0.0000 C   0  0  0  0  0  0  0  0  0
   -7.1603   -5.4246    0.0000 N   0  3  0  0  0  0  0  0  0
   -7.8747   -5.8371    0.0000 O   0  5  0  0  0  0  0  0  0
   -6.4458   -5.8371    0.0000 O   0  5  0  0  0  0  0  0  0
   -7.8747   -4.1871    0.0000 C   0  0  0  0  0  0  0  0  0
   -7.8747   -3.3621    0.0000 C   0  0  0  0  0  0  0  0  0
  1  2  1  0  0  0  0
  1 32  1  0  0  0  0
  2  3  1  0  0  0  0
  3  4  1  0  0  0  0
  3 31  2  0  0  0  0
  4  5  1  0  0  0  0
  5  6  2  0  0  0  0
  5  7  1  0  0  0  0
  7  8  1  0  0  0  0
  7 30  1  0  0  0  0
  8  9  2  0  0  0  0
  8 10  1  0  0  0  0
 10 11  1  0  0  0  0
 11 12  1  0  0  0  0
 12 13  1  0  0  0  0
 13 14  1  0  0  0  0
 14 15  1  0  0  0  0
 14 19  1  0  0  0  0
 15 16  1  0  0  0  0
 16 17  1  0  0  0  0
 17 18  1  0  0  0  0
 17 20  1  0  0  0  0
 17 24  1  0  0  0  0
 18 19  1  0  0  0  0
 20 21  1  0  0  0  0
 20 23  2  0  0  0  0
 21 22  1  0  0  0  0
 24 25  4  0  0  0  0
 24 29  4  0  0  0  0
 25 26  4  0  0  0  0
 26 27  4  0  0  0  0
 27 28  4  0  0  0  0
 28 29  4  0  0  0  0
 30 31  1  0  0  0  0
 30 34  1  0  0  0  0
 31 32  1  0  0  0  0
 32 33  2  0  0  0  0
 34 35  4  0  0  0  0
 34 42  4  0  0  0  0
 35 36  4  0  0  0  0
 36 37  4  0  0  0  0
 37 38  1  0  0  0  0
 37 41  4  0  0  0  0
 38 39  1  0  0  0  0
 38 40  1  0  0  0  0
 41 42  4  0  0  0  0
M  CHG  3  38   1  39  -1  40  -1
M  END
>  <Name_Molregno>
76519

>  <Alpha-1A>
8.96

>  <Alpha-1B>
6.89

$$$$
76730
  Marvin  02231216192D 0   1.00000     0.00000     0

 43 48  0  0  1  0  0  0  0  0999 V2000
    0.6260    3.2422    0.0000 F   0  0  0  0  0  0  0  0  0
    1.3405    2.8297    0.0000 C   0  0  0  0  0  0  0  0  0
    1.3405    2.0047    0.0000 C   0  0  0  0  0  0  0  0  0
    2.0549    1.5922    0.0000 C   0  0  0  0  0  0  0  0  0
    2.7694    2.0047    0.0000 C   0  0  0  0  0  0  0  0  0
    2.7694    2.8297    0.0000 C   0  0  0  0  0  0  0  0  0
    2.0549    3.2422    0.0000 C   0  0  0  0  0  0  0  0  0
    2.0549    4.0672    0.0000 F   0  0  0  0  0  0  0  0  0
    2.0549    0.7672    0.0000 C   0  0  0  0  0  0  0  0  0
    2.7694    0.3547    0.0000 N   0  0  0  0  0  0  0  0  0
    3.4839    0.7672    0.0000 C   0  0  0  0  0  0  0  0  0
    3.4839    1.5922    0.0000 O   0  0  0  0  0  0  0  0  0
    4.1983    0.3547    0.0000 N   0  0  0  0  0  0  0  0  0
    4.9128    0.7672    0.0000 C   0  0  0  0  0  0  0  0  0
    5.6273    0.3547    0.0000 C   0  0  0  0  0  0  0  0  0
    6.3418    0.7672    0.0000 C   0  0  0  0  0  0  0  0  0
    7.0562    0.3547    0.0000 N   0  0  0  0  0  0  0  0  0
    7.7707    0.7672    0.0000 C   0  0  0  0  0  0  0  0  0
    8.4852    0.3547    0.0000 C   0  0  0  0  0  0  0  0  0
    8.4852   -0.4703    0.0000 C   0  0  0  0  0  0  0  0  0
    7.7707   -0.8828    0.0000 C   0  0  0  0  0  0  0  0  0
    7.0562   -0.4703    0.0000 C   0  0  0  0  0  0  0  0  0
    9.2782   -0.2429    0.0000 C   0  0  0  0  0  0  0  0  0
    9.4778    0.5576    0.0000 C   0  0  0  0  0  0  0  0  0
   10.2708    0.7850    0.0000 C   0  0  0  0  0  0  0  0  0
   10.8643    0.2119    0.0000 C   0  0  0  0  0  0  0  0  0
   10.6647   -0.5886    0.0000 C   0  0  0  0  0  0  0  0  0
    9.8717   -0.8160    0.0000 C   0  0  0  0  0  0  0  0  0
    8.9224   -1.1699    0.0000 C   0  0  0  0  0  0  0  0  0
    9.7468   -1.1411    0.0000 C   0  0  0  0  0  0  0  0  0
   10.1840   -1.8407    0.0000 C   0  0  0  0  0  0  0  0  0
    9.7967   -2.5692    0.0000 C   0  0  0  0  0  0  0  0  0
    8.9722   -2.5980    0.0000 C   0  0  0  0  0  0  0  0  0
    8.5350   -1.8983    0.0000 C   0  0  0  0  0  0  0  0  0
    2.7694   -0.4703    0.0000 C   0  0  0  0  0  0  0  0  0
    3.4839   -0.8828    0.0000 O   0  0  0  0  0  0  0  0  0
    2.0549   -0.8828    0.0000 N   0  0  0  0  0  0  0  0  0
    1.3405   -0.4703    0.0000 C   0  0  0  0  0  0  0  0  0
    1.3405    0.3547    0.0000 C   0  0  0  0  0  0  0  0  0
    0.5558    0.6097    0.0000 C   0  0  0  0  0  0  0  0  0
    0.0709   -0.0578    0.0000 O   0  0  0  0  0  0  0  0  0
    0.5558   -0.7252    0.0000 C   0  0  0  0  0  0  0  0  0
    0.3009    1.3943    0.0000 O   0  0  0  0  0  0  0  0  0
  1  2  1  0  0  0  0
  2  3  4  0  0  0  0
  2  7  4  0  0  0  0
  3  4  4  0  0  0  0
  4  5  4  0  0  0  0
  4  9  1  0  0  0  0
  5  6  4  0  0  0  0
  6  7  4  0  0  0  0
  7  8  1  0  0  0  0
  9 10  1  0  0  0  0
  9 39  1  0  0  0  0
 10 11  1  0  0  0  0
 10 35  1  0  0  0  0
 11 12  2  0  0  0  0
 11 13  1  0  0  0  0
 13 14  1  0  0  0  0
 14 15  1  0  0  0  0
 15 16  1  0  0  0  0
 16 17  1  0  0  0  0
 17 18  1  0  0  0  0
 17 22  1  0  0  0  0
 18 19  1  0  0  0  0
 19 20  1  0  0  0  0
 20 21  1  0  0  0  0
 20 23  1  0  0  0  0
 20 29  1  0  0  0  0
 21 22  1  0  0  0  0
 23 24  4  0  0  0  0
 23 28  4  0  0  0  0
 24 25  4  0  0  0  0
 25 26  4  0  0  0  0
 26 27  4  0  0  0  0
 27 28  4  0  0  0  0
 29 30  4  0  0  0  0
 29 34  4  0  0  0  0
 30 31  4  0  0  0  0
 31 32  4  0  0  0  0
 32 33  4  0  0  0  0
 33 34  4  0  0  0  0
 35 36  2  0  0  0  0
 35 37  1  0  0  0  0
 37 38  1  0  0  0  0
 38 39  2  0  0  0  0
 38 42  1  0  0  0  0
 39 40  1  0  0  0  0
 40 41  1  0  0  0  0
 40 43  2  0  0  0  0
 41 42  1  0  0  0  0
M  END
>  <Name_Molregno>
76730

>  <Alpha-1A>
8.04

>  <Alpha-1B>
6.92

$$$$
76819
  Marvin  02231216192D 0   1.00000     0.00000     0

 40 44  0  0  1  0  0  0  0  0999 V2000
   -0.9665    4.2017    0.0000 F   0  0  0  0  0  0  0  0  0
   -0.2520    3.7892    0.0000 C   0  0  0  0  0  0  0  0  0
   -0.2520    2.9642    0.0000 C   0  0  0  0  0  0  0  0  0
    0.4624    2.5517    0.0000 C   0  0  0  0  0  0  0  0  0
    1.1769    2.9642    0.0000 C   0  0  0  0  0  0  0  0  0
    1.1769    3.7892    0.0000 C   0  0  0  0  0  0  0  0  0
    0.4624    4.2017    0.0000 C   0  0  0  0  0  0  0  0  0
    0.4624    5.0267    0.0000 F   0  0  0  0  0  0  0  0  0
    0.4624    1.7267    0.0000 C   0  0  0  0  0  0  0  0  0
    1.1769    1.3142    0.0000 N   0  0  0  0  0  0  0  0  0
    1.8914    1.7267    0.0000 C   0  0  0  0  0  0  0  0  0
    2.6058    1.3142    0.0000 O   0  0  0  0  0  0  0  0  0
    1.8914    2.5517    0.0000 N   0  0  0  0  0  0  0  0  0
    2.6058    2.9642    0.0000 C   0  0  0  0  0  0  0  0  0
    2.6058    3.7892    0.0000 C   0  0  0  0  0  0  0  0  0
    3.3203    4.2017    0.0000 N   0  0  0  0  0  0  0  0  0
    3.3203    5.0267    0.0000 C   0  0  0  0  0  0  0  0  0
    4.0348    5.4392    0.0000 C   0  0  0  0  0  0  0  0  0
    4.7493    5.0267    0.0000 C   0  0  0  0  0  0  0  0  0
    4.7493    4.2017    0.0000 C   0  0  0  0  0  0  0  0  0
    4.0348    3.7892    0.0000 C   0  0  0  0  0  0  0  0  0
    5.5738    5.0555    0.0000 C   0  0  0  0  0  0  0  0  0
    6.0109    4.3559    0.0000 O   0  0  0  0  0  0  0  0  0
    5.6236    3.6275    0.0000 C   0  0  0  0  0  0  0  0  0
    6.3153    5.4172    0.0000 O   0  0  0  0  0  0  0  0  0
    5.1864    5.7264    0.0000 C   0  0  0  0  0  0  0  0  0
    4.7991    6.4548    0.0000 C   0  0  0  0  0  0  0  0  0
    5.2363    7.1544    0.0000 C   0  0  0  0  0  0  0  0  0
    6.0608    7.1256    0.0000 C   0  0  0  0  0  0  0  0  0
    6.4481    6.3972    0.0000 C   0  0  0  0  0  0  0  0  0
    6.0109    5.6976    0.0000 C   0  0  0  0  0  0  0  0  0
    1.1769    0.4892    0.0000 C   0  0  0  0  0  0  0  0  0
    1.8914    0.0767    0.0000 O   0  0  0  0  0  0  0  0  0
    0.4624    0.0767    0.0000 N   0  0  0  0  0  0  0  0  0
   -0.2520    0.4892    0.0000 C   0  0  0  0  0  0  0  0  0
   -0.2520    1.3142    0.0000 C   0  0  0  0  0  0  0  0  0
   -1.0367    1.5692    0.0000 C   0  0  0  0  0  0  0  0  0
   -1.5216    0.9017    0.0000 O   0  0  0  0  0  0  0  0  0
   -1.0367    0.2343    0.0000 C   0  0  0  0  0  0  0  0  0
   -1.2916    2.3538    0.0000 O   0  0  0  0  0  0  0  0  0
  1  2  1  0  0  0  0
  2  3  4  0  0  0  0
  2  7  4  0  0  0  0
  3  4  4  0  0  0  0
  4  5  4  0  0  0  0
  4  9  1  0  0  0  0
  5  6  4  0  0  0  0
  6  7  4  0  0  0  0
  7  8  1  0  0  0  0
  9 10  1  0  0  0  0
  9 36  1  0  0  0  0
 10 11  1  0  0  0  0
 10 32  1  0  0  0  0
 11 12  2  0  0  0  0
 11 13  1  0  0  0  0
 13 14  1  0  0  0  0
 14 15  1  0  0  0  0
 15 16  1  0  0  0  0
 16 17  1  0  0  0  0
 16 21  1  0  0  0  0
 17 18  1  0  0  0  0
 18 19  1  0  0  0  0
 19 20  1  0  0  0  0
 19 22  1  0  0  0  0
 19 26  1  0  0  0  0
 20 21  1  0  0  0  0
 22 23  1  0  0  0  0
 22 25  2  0  0  0  0
 23 24  1  0  0  0  0
 26 27  4  0  0  0  0
 26 31  4  0  0  0  0
 27 28  4  0  0  0  0
 28 29  4  0  0  0  0
 29 30  4  0  0  0  0
 30 31  4  0  0  0  0
 32 33  2  0  0  0  0
 32 34  1  0  0  0  0
 34 35  1  0  0  0  0
 35 36  2  0  0  0  0
 35 39  1  0  0  0  0
 36 37  1  0  0  0  0
 37 38  1  0  0  0  0
 37 40  2  0  0  0  0
 38 39  1  0  0  0  0
M  END
>  <Name_Molregno>
76819

>  <Alpha-1A>
7.21

>  <Alpha-1B>
5.92

$$$$
76858
  Marvin  02231216192D 0   1.00000     0.00000     0

 42 47  0  0  1  0  0  0  0  0999 V2000
   -5.9229   -4.5530    0.0000 O   0  0  0  0  0  0  0  0  0
   -5.1024   -4.4667    0.0000 C   0  0  0  0  0  0  0  0  0
   -4.9309   -3.6598    0.0000 C   0  0  0  0  0  0  0  0  0
   -4.2164   -3.2473    0.0000 N   0  0  0  0  0  0  0  0  0
   -4.2164   -2.4223    0.0000 C   0  0  0  0  0  0  0  0  0
   -3.5019   -2.0098    0.0000 O   0  0  0  0  0  0  0  0  0
   -4.9309   -2.0098    0.0000 N   0  0  0  0  0  0  0  0  0
   -4.9309   -1.1848    0.0000 C   0  0  0  0  0  0  0  0  0
   -4.2164   -0.7723    0.0000 O   0  0  0  0  0  0  0  0  0
   -5.6453   -0.7723    0.0000 N   0  0  0  0  0  0  0  0  0
   -5.6453    0.0527    0.0000 C   0  0  0  0  0  0  0  0  0
   -4.9309    0.4652    0.0000 C   0  0  0  0  0  0  0  0  0
   -4.9309    1.2902    0.0000 C   0  0  0  0  0  0  0  0  0
   -4.2164    1.7027    0.0000 N   0  0  0  0  0  0  0  0  0
   -4.2164    2.5277    0.0000 C   0  0  0  0  0  0  0  0  0
   -3.5019    2.9402    0.0000 C   0  0  0  0  0  0  0  0  0
   -2.7874    2.5277    0.0000 C   0  0  0  0  0  0  0  0  0
   -2.7874    1.7027    0.0000 C   0  0  0  0  0  0  0  0  0
   -3.5019    1.2902    0.0000 C   0  0  0  0  0  0  0  0  0
   -1.9629    2.5565    0.0000 C   0  0  0  0  0  0  0  0  0
   -1.5258    1.8569    0.0000 O   0  0  0  0  0  0  0  0  0
   -1.9131    1.1285    0.0000 C   0  0  0  0  0  0  0  0  0
   -1.2214    2.9182    0.0000 O   0  0  0  0  0  0  0  0  0
   -2.3503    3.2274    0.0000 C   0  0  0  0  0  0  0  0  0
   -2.7376    3.9558    0.0000 C   0  0  0  0  0  0  0  0  0
   -2.3004    4.6555    0.0000 C   0  0  0  0  0  0  0  0  0
   -1.4759    4.6267    0.0000 C   0  0  0  0  0  0  0  0  0
   -1.0886    3.8982    0.0000 C   0  0  0  0  0  0  0  0  0
   -1.5258    3.1986    0.0000 C   0  0  0  0  0  0  0  0  0
   -5.6453   -2.4223    0.0000 C   0  0  0  0  0  0  0  0  0
   -5.6453   -3.2473    0.0000 C   0  0  0  0  0  0  0  0  0
   -6.2584   -3.7993    0.0000 C   0  0  0  0  0  0  0  0  0
   -7.0654   -3.6278    0.0000 O   0  0  0  0  0  0  0  0  0
   -6.3598   -2.0098    0.0000 C   0  0  0  0  0  0  0  0  0
   -7.0743   -2.4223    0.0000 C   0  0  0  0  0  0  0  0  0
   -7.7887   -2.0098    0.0000 C   0  0  0  0  0  0  0  0  0
   -8.5734   -2.2647    0.0000 N   0  0  0  0  0  0  0  0  0
   -9.0583   -1.5973    0.0000 O   0  0  0  0  0  0  0  0  0
   -8.5734   -0.9298    0.0000 N   0  0  0  0  0  0  0  0  0
   -7.7887   -1.1848    0.0000 C   0  0  0  0  0  0  0  0  0
   -7.0743   -0.7723    0.0000 C   0  0  0  0  0  0  0  0  0
   -6.3598   -1.1848    0.0000 C   0  0  0  0  0  0  0  0  0
  1  2  1  0  0  0  0
  1 32  1  0  0  0  0
  2  3  1  0  0  0  0
  3  4  1  0  0  0  0
  3 31  2  0  0  0  0
  4  5  1  0  0  0  0
  5  6  2  0  0  0  0
  5  7  1  0  0  0  0
  7  8  1  0  0  0  0
  7 30  1  0  0  0  0
  8  9  2  0  0  0  0
  8 10  1  0  0  0  0
 10 11  1  0  0  0  0
 11 12  1  0  0  0  0
 12 13  1  0  0  0  0
 13 14  1  0  0  0  0
 14 15  1  0  0  0  0
 14 19  1  0  0  0  0
 15 16  1  0  0  0  0
 16 17  1  0  0  0  0
 17 18  1  0  0  0  0
 17 20  1  0  0  0  0
 17 24  1  0  0  0  0
 18 19  1  0  0  0  0
 20 21  1  0  0  0  0
 20 23  2  0  0  0  0
 21 22  1  0  0  0  0
 24 25  4  0  0  0  0
 24 29  4  0  0  0  0
 25 26  4  0  0  0  0
 26 27  4  0  0  0  0
 27 28  4  0  0  0  0
 28 29  4  0  0  0  0
 30 31  1  0  0  0  0
 30 34  1  0  0  0  0
 31 32  1  0  0  0  0
 32 33  2  0  0  0  0
 34 35  4  0  0  0  0
 34 42  4  0  0  0  0
 35 36  4  0  0  0  0
 36 37  4  0  0  0  0
 36 40  4  0  0  0  0
 37 38  4  0  0  0  0
 38 39  4  0  0  0  0
 39 40  4  0  0  0  0
 40 41  4  0  0  0  0
 41 42  4  0  0  0  0
M  END
>  <Name_Molregno>
76858

>  <Alpha-1A>
9.05

>  <Alpha-1B>
6.52

$$$$
76859
  Marvin  02231216192D 0   1.00000     0.00000     0

 42 47  0  0  1  0  0  0  0  0999 V2000
   -5.9229   -4.5530    0.0000 O   0  0  0  0  0  0  0  0  0
   -5.1024   -4.4667    0.0000 C   0  0  0  0  0  0  0  0  0
   -4.9309   -3.6598    0.0000 C   0  0  0  0  0  0  0  0  0
   -4.2164   -3.2473    0.0000 N   0  0  0  0  0  0  0  0  0
   -4.2164   -2.4223    0.0000 C   0  0  0  0  0  0  0  0  0
   -3.5019   -2.0098    0.0000 O   0  0  0  0  0  0  0  0  0
   -4.9309   -2.0098    0.0000 N   0  0  0  0  0  0  0  0  0
   -4.9309   -1.1848    0.0000 C   0  0  0  0  0  0  0  0  0
   -4.2164   -0.7723    0.0000 O   0  0  0  0  0  0  0  0  0
   -5.6453   -0.7723    0.0000 N   0  0  0  0  0  0  0  0  0
   -5.6453    0.0527    0.0000 C   0  0  0  0  0  0  0  0  0
   -4.9309    0.4652    0.0000 C   0  0  0  0  0  0  0  0  0
   -4.9309    1.2902    0.0000 C   0  0  0  0  0  0  0  0  0
   -4.2164    1.7027    0.0000 N   0  0  0  0  0  0  0  0  0
   -4.2164    2.5277    0.0000 C   0  0  0  0  0  0  0  0  0
   -3.5019    2.9402    0.0000 C   0  0  0  0  0  0  0  0  0
   -2.7874    2.5277    0.0000 C   0  0  0  0  0  0  0  0  0
   -2.7874    1.7027    0.0000 C   0  0  0  0  0  0  0  0  0
   -3.5019    1.2902    0.0000 C   0  0  0  0  0  0  0  0  0
   -1.9629    2.5565    0.0000 C   0  0  0  0  0  0  0  0  0
   -1.5258    1.8569    0.0000 O   0  0  0  0  0  0  0  0  0
   -1.9131    1.1285    0.0000 C   0  0  0  0  0  0  0  0  0
   -1.2214    2.9182    0.0000 O   0  0  0  0  0  0  0  0  0
   -2.3503    3.2274    0.0000 C   0  0  0  0  0  0  0  0  0
   -2.7376    3.9558    0.0000 C   0  0  0  0  0  0  0  0  0
   -2.3004    4.6555    0.0000 C   0  0  0  0  0  0  0  0  0
   -1.4759    4.6267    0.0000 C   0  0  0  0  0  0  0  0  0
   -1.0886    3.8982    0.0000 C   0  0  0  0  0  0  0  0  0
   -1.5258    3.1986    0.0000 C   0  0  0  0  0  0  0  0  0
   -5.6453   -2.4223    0.0000 C   0  0  0  0  0  0  0  0  0
   -5.6453   -3.2473    0.0000 C   0  0  0  0  0  0  0  0  0
   -6.2584   -3.7993    0.0000 C   0  0  0  0  0  0  0  0  0
   -7.0654   -3.6278    0.0000 O   0  0  0  0  0  0  0  0  0
   -6.3598   -2.0098    0.0000 C   0  0  0  0  0  0  0  0  0
   -7.0743   -2.4223    0.0000 C   0  0  0  0  0  0  0  0  0
   -7.7887   -2.0098    0.0000 C   0  0  0  0  0  0  0  0  0
   -8.5734   -2.2647    0.0000 O   0  0  0  0  0  0  0  0  0
   -9.0583   -1.5973    0.0000 C   0  0  0  0  0  0  0  0  0
   -8.5734   -0.9298    0.0000 O   0  0  0  0  0  0  0  0  0
   -7.7887   -1.1848    0.0000 C   0  0  0  0  0  0  0  0  0
   -7.0743   -0.7723    0.0000 C   0  0  0  0  0  0  0  0  0
   -6.3598   -1.1848    0.0000 C   0  0  0  0  0  0  0  0  0
  1  2  1  0  0  0  0
  1 32  1  0  0  0  0
  2  3  1  0  0  0  0
  3  4  1  0  0  0  0
  3 31  2  0  0  0  0
  4  5  1  0  0  0  0
  5  6  2  0  0  0  0
  5  7  1  0  0  0  0
  7  8  1  0  0  0  0
  7 30  1  0  0  0  0
  8  9  2  0  0  0  0
  8 10  1  0  0  0  0
 10 11  1  0  0  0  0
 11 12  1  0  0  0  0
 12 13  1  0  0  0  0
 13 14  1  0  0  0  0
 14 15  1  0  0  0  0
 14 19  1  0  0  0  0
 15 16  1  0  0  0  0
 16 17  1  0  0  0  0
 17 18  1  0  0  0  0
 17 20  1  0  0  0  0
 17 24  1  0  0  0  0
 18 19  1  0  0  0  0
 20 21  1  0  0  0  0
 20 23  2  0  0  0  0
 21 22  1  0  0  0  0
 24 25  4  0  0  0  0
 24 29  4  0  0  0  0
 25 26  4  0  0  0  0
 26 27  4  0  0  0  0
 27 28  4  0  0  0  0
 28 29  4  0  0  0  0
 30 31  1  0  0  0  0
 30 34  1  0  0  0  0
 31 32  1  0  0  0  0
 32 33  2  0  0  0  0
 34 35  4  0  0  0  0
 34 42  4  0  0  0  0
 35 36  4  0  0  0  0
 36 37  1  0  0  0  0
 36 40  4  0  0  0  0
 37 38  1  0  0  0  0
 38 39  1  0  0  0  0
 39 40  1  0  0  0  0
 40 41  4  0  0  0  0
 41 42  4  0  0  0  0
M  END
>  <Name_Molregno>
76859

>  <Alpha-1A>
7.46

>  <Alpha-1B>
6.41

$$$$
76901
  Marvin  02231216192D 0   1.00000     0.00000     0

 42 46  0  0  1  0  0  0  0  0999 V2000
   -1.6447    0.5094    0.0000 F   0  0  0  0  0  0  0  0  0
   -0.9302    0.9219    0.0000 C   0  0  0  0  0  0  0  0  0
   -0.2158    0.5094    0.0000 C   0  0  0  0  0  0  0  0  0
    0.4987    0.9219    0.0000 C   0  0  0  0  0  0  0  0  0
    0.4987    1.7469    0.0000 C   0  0  0  0  0  0  0  0  0
   -0.2158    2.1594    0.0000 C   0  0  0  0  0  0  0  0  0
   -0.9302    1.7469    0.0000 C   0  0  0  0  0  0  0  0  0
   -1.6447    2.1594    0.0000 F   0  0  0  0  0  0  0  0  0
    1.2132    0.5094    0.0000 C   0  0  0  0  0  0  0  0  0
    1.9276    0.9219    0.0000 N   0  0  0  0  0  0  0  0  0
    1.9276    1.7469    0.0000 C   0  0  0  0  0  0  0  0  0
    1.2132    2.1594    0.0000 O   0  0  0  0  0  0  0  0  0
    2.6421    2.1594    0.0000 N   0  0  0  0  0  0  0  0  0
    3.3566    1.7469    0.0000 C   0  0  0  0  0  0  0  0  0
    4.0711    2.1594    0.0000 C   0  0  0  0  0  0  0  0  0
    4.7855    1.7469    0.0000 C   0  0  0  0  0  0  0  0  0
    5.5000    2.1594    0.0000 C   0  0  0  0  0  0  0  0  0
    6.2145    1.7469    0.0000 N   0  0  0  0  0  0  0  0  0
    6.9289    2.1594    0.0000 C   0  0  0  0  0  0  0  0  0
    7.6434    1.7469    0.0000 C   0  0  0  0  0  0  0  0  0
    7.6434    0.9219    0.0000 C   0  0  0  0  0  0  0  0  0
    6.9289    0.5094    0.0000 C   0  0  0  0  0  0  0  0  0
    6.2145    0.9219    0.0000 C   0  0  0  0  0  0  0  0  0
    8.0806    0.2222    0.0000 C   0  0  0  0  0  0  0  0  0
    7.6933   -0.5062    0.0000 O   0  0  0  0  0  0  0  0  0
    6.8688   -0.5350    0.0000 C   0  0  0  0  0  0  0  0  0
    8.7645   -0.2391    0.0000 O   0  0  0  0  0  0  0  0  0
    8.4679    0.8931    0.0000 C   0  0  0  0  0  0  0  0  0
    8.9051    1.5927    0.0000 C   0  0  0  0  0  0  0  0  0
    9.7296    1.5639    0.0000 C   0  0  0  0  0  0  0  0  0
   10.1169    0.8355    0.0000 C   0  0  0  0  0  0  0  0  0
    9.6797    0.1358    0.0000 C   0  0  0  0  0  0  0  0  0
    8.8552    0.1646    0.0000 C   0  0  0  0  0  0  0  0  0
    2.6421    0.5094    0.0000 C   0  0  0  0  0  0  0  0  0
    3.3566    0.9219    0.0000 O   0  0  0  0  0  0  0  0  0
    2.6421   -0.3156    0.0000 N   0  0  0  0  0  0  0  0  0
    1.9276   -0.7281    0.0000 C   0  0  0  0  0  0  0  0  0
    1.2132   -0.3156    0.0000 C   0  0  0  0  0  0  0  0  0
    0.6001   -0.8677    0.0000 C   0  0  0  0  0  0  0  0  0
    0.9356   -1.6213    0.0000 O   0  0  0  0  0  0  0  0  0
    1.7561   -1.5351    0.0000 C   0  0  0  0  0  0  0  0  0
   -0.2069   -0.6961    0.0000 O   0  0  0  0  0  0  0  0  0
  1  2  1  0  0  0  0
  2  3  4  0  0  0  0
  2  7  4  0  0  0  0
  3  4  4  0  0  0  0
  4  5  4  0  0  0  0
  4  9  1  0  0  0  0
  5  6  4  0  0  0  0
  6  7  4  0  0  0  0
  7  8  1  0  0  0  0
  9 10  1  0  0  0  0
  9 38  1  0  0  0  0
 10 11  1  0  0  0  0
 10 34  1  0  0  0  0
 11 12  2  0  0  0  0
 11 13  1  0  0  0  0
 13 14  1  0  0  0  0
 14 15  1  0  0  0  0
 15 16  1  0  0  0  0
 16 17  1  0  0  0  0
 17 18  1  0  0  0  0
 18 19  1  0  0  0  0
 18 23  1  0  0  0  0
 19 20  1  0  0  0  0
 20 21  1  0  0  0  0
 21 22  1  0  0  0  0
 21 24  1  0  0  0  0
 21 28  1  0  0  0  0
 22 23  1  0  0  0  0
 24 25  1  0  0  0  0
 24 27  2  0  0  0  0
 25 26  1  0  0  0  0
 28 29  4  0  0  0  0
 28 33  4  0  0  0  0
 29 30  4  0  0  0  0
 30 31  4  0  0  0  0
 31 32  4  0  0  0  0
 32 33  4  0  0  0  0
 34 35  2  0  0  0  0
 34 36  1  0  0  0  0
 36 37  1  0  0  0  0
 37 38  2  0  0  0  0
 37 41  1  0  0  0  0
 38 39  1  0  0  0  0
 39 40  1  0  0  0  0
 39 42  2  0  0  0  0
 40 41  1  0  0  0  0
M  END
>  <Name_Molregno>
76901

>  <Alpha-1A>
7.82

>  <Alpha-1B>
6.47

$$$$
82738
  Marvin  02231216192D 0   1.00000     0.00000     0

 23 26  0  0  1  0  0  0  0  0999 V2000
    0.0943   -0.2888    0.0000 O   0  0  0  0  0  0  0  0  0
   -0.7127   -0.4603    0.0000 C   0  0  0  0  0  0  0  0  0
   -0.9676   -1.2450    0.0000 C   0  0  0  0  0  0  0  0  0
   -1.7746   -1.4165    0.0000 O   0  0  0  0  0  0  0  0  0
   -0.4156   -1.8581    0.0000 N   0  0  0  0  0  0  0  0  0
   -0.6705   -2.6427    0.0000 C   0  0  0  0  0  0  0  0  0
   -0.1700   -3.3633    0.0000 C   0  0  0  0  0  0  0  0  0
   -0.3533   -4.1522    0.0000 C   0  0  0  0  0  0  0  0  0
   -1.0724   -4.4494    0.0000 C   0  0  0  0  0  0  0  0  0
   -0.8767   -3.6479    0.0000 N   0  0  0  0  0  0  0  0  0
   -1.3910   -2.8938    0.0000 C   0  0  0  0  0  0  0  0  0
    0.1693   -3.5844    0.0000 C   0  0  0  0  0  0  0  0  0
    0.7165   -3.2272    0.0000 C   0  0  0  0  0  0  0  0  0
   -1.2647    0.1528    0.0000 C   0  0  0  0  0  0  0  0  0
   -1.0932    0.9597    0.0000 C   0  0  0  0  0  0  0  0  0
   -1.8077    1.3722    0.0000 C   0  0  0  0  0  0  0  0  0
   -2.4207    0.8202    0.0000 N   0  0  0  0  0  0  0  0  0
   -2.0852    0.0665    0.0000 C   0  0  0  0  0  0  0  0  0
   -3.2277    0.9917    0.0000 C   0  0  0  0  0  0  0  0  0
   -1.8077    2.1972    0.0000 C   0  0  0  0  0  0  0  0  0
   -1.0932    2.6097    0.0000 C   0  0  0  0  0  0  0  0  0
   -0.3787    2.1972    0.0000 C   0  0  0  0  0  0  0  0  0
   -0.3787    1.3722    0.0000 C   0  0  0  0  0  0  0  0  0
  1  2  2  0  0  0  0
  2  3  1  0  0  0  0
  2 14  1  0  0  0  0
  3  4  2  0  0  0  0
  3  5  1  0  0  0  0
  5  6  1  0  0  0  0
  6  7  1  0  0  0  0
  6 11  1  0  0  0  0
  7  8  1  0  0  0  0
  7 13  1  0  0  0  0
  8  9  1  0  0  0  0
  9 10  1  0  0  0  0
 10 11  1  0  0  0  0
 10 12  1  0  0  0  0
 12 13  1  0  0  0  0
 14 15  4  0  0  0  0
 14 18  4  0  0  0  0
 15 16  4  0  0  0  0
 15 23  4  0  0  0  0
 16 17  4  0  0  0  0
 16 20  4  0  0  0  0
 17 18  4  0  0  0  0
 17 19  1  0  0  0  0
 20 21  4  0  0  0  0
 21 22  4  0  0  0  0
 22 23  4  0  0  0  0
M  END
>  <Name_Molregno>
82738

>  <5-HT1D>
4.2

>  <5-HT2A>
4.75

>  <5-HT2C>
4.85

>  <Alpha-1B>
4.9

>  <Alpha-2A>
4.8

>  <Alpha-2B>
5.05

>  <DOPAMINE D1>
4

>  <DOPAMINE D2>
4

>  <Muscarinic acetylcholine receptor M1>
4.8

>  <Muscarinic acetylcholine receptor M2>
4.3

>  <Muscarinic acetylcholine receptor M3>
4.4

>  <Muscarinic acetylcholine receptor M4>
4.6

$$$$
83018
  Marvin  02231216192D 0   1.00000     0.00000     0

 31 35  0  0  0  0  0  0  0  0999 V2000
   -6.9274   -1.6120    0.0000 O   0  0  0  0  0  0  0  0  0
   -7.1823   -2.3966    0.0000 C   0  0  0  0  0  0  0  0  0
   -7.4794   -0.9989    0.0000 C   0  0  0  0  0  0  0  0  0
   -8.2864   -1.1704    0.0000 C   0  0  0  0  0  0  0  0  0
   -8.8384   -0.5573    0.0000 C   0  0  0  0  0  0  0  0  0
   -8.5835    0.2273    0.0000 C   0  0  0  0  0  0  0  0  0
   -7.7765    0.3988    0.0000 C   0  0  0  0  0  0  0  0  0
   -7.2245   -0.2143    0.0000 C   0  0  0  0  0  0  0  0  0
   -6.4175   -0.0428    0.0000 N   0  0  0  0  0  0  0  0  0
   -6.1626    0.7419    0.0000 C   0  0  0  0  0  0  0  0  0
   -5.3556    0.9134    0.0000 C   0  0  0  0  0  0  0  0  0
   -4.8036    0.3003    0.0000 N   0  0  0  0  0  0  0  0  0
   -5.0585   -0.4843    0.0000 C   0  0  0  0  0  0  0  0  0
   -5.8655   -0.6559    0.0000 C   0  0  0  0  0  0  0  0  0
   -3.9966    0.4718    0.0000 C   0  0  0  0  0  0  0  0  0
   -3.4446   -0.1413    0.0000 C   0  0  0  0  0  0  0  0  0
   -2.6376    0.0303    0.0000 N   0  0  0  0  0  0  0  0  0
   -2.0856   -0.5828    0.0000 C   0  0  0  0  0  0  0  0  0
   -2.3405   -1.3675    0.0000 O   0  0  0  0  0  0  0  0  0
   -1.2786   -0.4113    0.0000 C   0  0  0  0  0  0  0  0  0
   -0.6112   -0.8962    0.0000 N   0  0  0  0  0  0  0  0  0
    0.0563   -0.4113    0.0000 C   0  0  0  0  0  0  0  0  0
   -0.1987    0.3733    0.0000 C   0  0  0  0  0  0  0  0  0
   -1.0237    0.3733    0.0000 C   0  0  0  0  0  0  0  0  0
   -1.5757    0.9864    0.0000 N   0  0  0  0  0  0  0  0  0
   -2.3827    0.8149    0.0000 C   0  0  0  0  0  0  0  0  0
   -2.9347    1.4280    0.0000 O   0  0  0  0  0  0  0  0  0
    0.3534    0.9864    0.0000 C   0  0  0  0  0  0  0  0  0
    1.1603    0.8149    0.0000 C   0  0  0  0  0  0  0  0  0
    1.4153    0.0303    0.0000 C   0  0  0  0  0  0  0  0  0
    0.8632   -0.5828    0.0000 C   0  0  0  0  0  0  0  0  0
  1  2  1  0  0  0  0
  1  3  1  0  0  0  0
  3  4  4  0  0  0  0
  3  8  4  0  0  0  0
  4  5  4  0  0  0  0
  5  6  4  0  0  0  0
  6  7  4  0  0  0  0
  7  8  4  0  0  0  0
  8  9  1  0  0  0  0
  9 10  1  0  0  0  0
  9 14  1  0  0  0  0
 10 11  1  0  0  0  0
 11 12  1  0  0  0  0
 12 13  1  0  0  0  0
 12 15  1  0  0  0  0
 13 14  1  0  0  0  0
 15 16  1  0  0  0  0
 16 17  1  0  0  0  0
 17 18  1  0  0  0  0
 17 26  1  0  0  0  0
 18 19  2  0  0  0  0
 18 20  1  0  0  0  0
 20 21  4  0  0  0  0
 20 24  4  0  0  0  0
 21 22  4  0  0  0  0
 22 23  4  0  0  0  0
 22 31  4  0  0  0  0
 23 24  4  0  0  0  0
 23 28  4  0  0  0  0
 24 25  1  0  0  0  0
 25 26  1  0  0  0  0
 26 27  2  0  0  0  0
 28 29  4  0  0  0  0
 29 30  4  0  0  0  0
 30 31  4  0  0  0  0
M  STY  1   1 DAT
M  SAL   1  1  21
M  SDT   1 MRV_IMPLICIT_H                                        
M  SDD   1     0.0000    0.0000    DR    ALL  0       0  
M  SED   1 IMPL_H1
M  END
>  <Name_Molregno>
83018

>  <Alpha-1A>
9.54

>  <Alpha-1B>
8.74

>  <Alpha-2A>
6

>  <Alpha-2B>
6

>  <Alpha-2C>
6

>  <Beta-2>
4

$$$$
87828
  Marvin  02231216192D 0   1.00000     0.00000     0

 27 30  0  0  0  0  0  0  0  0999 V2000
   -0.3655    1.7342    0.0000 F   0  0  0  0  0  0  0  0  0
    0.0470    1.0197    0.0000 C   0  0  0  0  0  0  0  0  0
    0.8720    1.0197    0.0000 C   0  0  0  0  0  0  0  0  0
    1.2845    0.3052    0.0000 C   0  0  0  0  0  0  0  0  0
    0.8720   -0.4092    0.0000 C   0  0  0  0  0  0  0  0  0
    0.0470   -0.4092    0.0000 C   0  0  0  0  0  0  0  0  0
   -0.3655    0.3052    0.0000 C   0  0  0  0  0  0  0  0  0
   -1.1905    0.3052    0.0000 N   0  0  0  0  0  0  0  0  0
   -1.6030   -0.4092    0.0000 C   0  0  0  0  0  0  0  0  0
   -2.4280   -0.4092    0.0000 C   0  0  0  0  0  0  0  0  0
   -2.8405    0.3052    0.0000 N   0  0  0  0  0  0  0  0  0
   -2.4280    1.0197    0.0000 C   0  0  0  0  0  0  0  0  0
   -1.6030    1.0197    0.0000 C   0  0  0  0  0  0  0  0  0
   -3.6655    0.3052    0.0000 C   0  0  0  0  0  0  0  0  0
   -4.0780   -0.4092    0.0000 C   0  0  0  0  0  0  0  0  0
   -4.9030   -0.4092    0.0000 N   0  0  0  0  0  0  0  0  0
   -5.3155   -1.1237    0.0000 C   0  0  0  0  0  0  0  0  0
   -4.9030   -1.8382    0.0000 O   0  0  0  0  0  0  0  0  0
   -6.1405   -1.1237    0.0000 C   0  0  0  0  0  0  0  0  0
   -6.5530   -0.4092    0.0000 C   0  0  0  0  0  0  0  0  0
   -6.1405    0.3052    0.0000 C   0  0  0  0  0  0  0  0  0
   -5.3155    0.3052    0.0000 C   0  0  0  0  0  0  0  0  0
   -4.9030    1.0197    0.0000 O   0  0  0  0  0  0  0  0  0
   -7.0379   -1.0767    0.0000 C   0  0  0  0  0  0  0  0  0
   -7.8225   -0.8217    0.0000 C   0  0  0  0  0  0  0  0  0
   -7.8225    0.0033    0.0000 C   0  0  0  0  0  0  0  0  0
   -7.0379    0.2582    0.0000 C   0  0  0  0  0  0  0  0  0
  1  2  1  0  0  0  0
  2  3  4  0  0  0  0
  2  7  4  0  0  0  0
  3  4  4  0  0  0  0
  4  5  4  0  0  0  0
  5  6  4  0  0  0  0
  6  7  4  0  0  0  0
  7  8  1  0  0  0  0
  8  9  1  0  0  0  0
  8 13  1  0  0  0  0
  9 10  1  0  0  0  0
 10 11  1  0  0  0  0
 11 12  1  0  0  0  0
 11 14  1  0  0  0  0
 12 13  1  0  0  0  0
 14 15  1  0  0  0  0
 15 16  1  0  0  0  0
 16 17  1  0  0  0  0
 16 22  1  0  0  0  0
 17 18  2  0  0  0  0
 17 19  1  0  0  0  0
 19 20  1  0  0  0  0
 20 21  1  0  0  0  0
 20 24  1  0  0  0  0
 20 27  1  0  0  0  0
 21 22  1  0  0  0  0
 22 23  2  0  0  0  0
 24 25  1  0  0  0  0
 25 26  1  0  0  0  0
 26 27  1  0  0  0  0
M  END
>  <Name_Molregno>
87828

>  <5-HT1A>
8.12

>  <Alpha-1A>
6.2

>  <Alpha-1B>
7.17

$$$$
87847
  Marvin  02231216192D 0   1.00000     0.00000     0

 28 31  0  0  0  0  0  0  0  0999 V2000
   -0.4114    1.6633    0.0000 F   0  0  0  0  0  0  0  0  0
    0.0011    0.9488    0.0000 C   0  0  0  0  0  0  0  0  0
    0.8261    0.9488    0.0000 C   0  0  0  0  0  0  0  0  0
    1.2386    0.2343    0.0000 C   0  0  0  0  0  0  0  0  0
    0.8261   -0.4801    0.0000 C   0  0  0  0  0  0  0  0  0
    1.2386   -1.1946    0.0000 F   0  0  0  0  0  0  0  0  0
    0.0011   -0.4801    0.0000 C   0  0  0  0  0  0  0  0  0
   -0.4114    0.2343    0.0000 C   0  0  0  0  0  0  0  0  0
   -1.2364    0.2343    0.0000 N   0  0  0  0  0  0  0  0  0
   -1.6489   -0.4801    0.0000 C   0  0  0  0  0  0  0  0  0
   -2.4739   -0.4801    0.0000 C   0  0  0  0  0  0  0  0  0
   -2.8864    0.2343    0.0000 N   0  0  0  0  0  0  0  0  0
   -2.4739    0.9488    0.0000 C   0  0  0  0  0  0  0  0  0
   -1.6489    0.9488    0.0000 C   0  0  0  0  0  0  0  0  0
   -3.7114    0.2343    0.0000 C   0  0  0  0  0  0  0  0  0
   -4.1239   -0.4801    0.0000 C   0  0  0  0  0  0  0  0  0
   -4.9489   -0.4801    0.0000 N   0  0  0  0  0  0  0  0  0
   -5.3614   -1.1946    0.0000 C   0  0  0  0  0  0  0  0  0
   -4.9489   -1.9091    0.0000 O   0  0  0  0  0  0  0  0  0
   -6.1864   -1.1946    0.0000 C   0  0  0  0  0  0  0  0  0
   -6.5989   -0.4801    0.0000 C   0  0  0  0  0  0  0  0  0
   -6.1864    0.2343    0.0000 C   0  0  0  0  0  0  0  0  0
   -5.3614    0.2343    0.0000 C   0  0  0  0  0  0  0  0  0
   -4.9489    0.9488    0.0000 O   0  0  0  0  0  0  0  0  0
   -7.0838   -1.1476    0.0000 C   0  0  0  0  0  0  0  0  0
   -7.8684   -0.8926    0.0000 C   0  0  0  0  0  0  0  0  0
   -7.8684   -0.0676    0.0000 C   0  0  0  0  0  0  0  0  0
   -7.0838    0.1873    0.0000 C   0  0  0  0  0  0  0  0  0
  1  2  1  0  0  0  0
  2  3  4  0  0  0  0
  2  8  4  0  0  0  0
  3  4  4  0  0  0  0
  4  5  4  0  0  0  0
  5  6  1  0  0  0  0
  5  7  4  0  0  0  0
  7  8  4  0  0  0  0
  8  9  1  0  0  0  0
  9 10  1  0  0  0  0
  9 14  1  0  0  0  0
 10 11  1  0  0  0  0
 11 12  1  0  0  0  0
 12 13  1  0  0  0  0
 12 15  1  0  0  0  0
 13 14  1  0  0  0  0
 15 16  1  0  0  0  0
 16 17  1  0  0  0  0
 17 18  1  0  0  0  0
 17 23  1  0  0  0  0
 18 19  2  0  0  0  0
 18 20  1  0  0  0  0
 20 21  1  0  0  0  0
 21 22  1  0  0  0  0
 21 25  1  0  0  0  0
 21 28  1  0  0  0  0
 22 23  1  0  0  0  0
 23 24  2  0  0  0  0
 25 26  1  0  0  0  0
 26 27  1  0  0  0  0
 27 28  1  0  0  0  0
M  END
>  <Name_Molregno>
87847

>  <5-HT1A>
7.6

>  <Alpha-1A>
6

>  <Alpha-1B>
7.27

$$$$
88463
  Marvin  02231216192D 0   1.00000     0.00000     0

 27 30  0  0  0  0  0  0  0  0999 V2000
   10.6629    0.6525    0.0000 F   0  0  0  0  0  0  0  0  0
    9.8379    0.6525    0.0000 C   0  0  0  0  0  0  0  0  0
    9.4254   -0.0620    0.0000 C   0  0  0  0  0  0  0  0  0
    8.6004   -0.0620    0.0000 C   0  0  0  0  0  0  0  0  0
    8.1879    0.6525    0.0000 C   0  0  0  0  0  0  0  0  0
    7.3629    0.6525    0.0000 N   0  0  0  0  0  0  0  0  0
    6.9504   -0.0620    0.0000 C   0  0  0  0  0  0  0  0  0
    6.1254   -0.0620    0.0000 C   0  0  0  0  0  0  0  0  0
    5.7129    0.6525    0.0000 N   0  0  0  0  0  0  0  0  0
    6.1254    1.3669    0.0000 C   0  0  0  0  0  0  0  0  0
    6.9504    1.3669    0.0000 C   0  0  0  0  0  0  0  0  0
    4.8879    0.6525    0.0000 C   0  0  0  0  0  0  0  0  0
    4.4754   -0.0620    0.0000 C   0  0  0  0  0  0  0  0  0
    3.6504   -0.0620    0.0000 N   0  0  0  0  0  0  0  0  0
    3.2379   -0.7765    0.0000 C   0  0  0  0  0  0  0  0  0
    3.6504   -1.4910    0.0000 O   0  0  0  0  0  0  0  0  0
    2.4129   -0.7765    0.0000 C   0  0  0  0  0  0  0  0  0
    2.0004   -0.0620    0.0000 C   0  0  0  0  0  0  0  0  0
    2.4129    0.6525    0.0000 C   0  0  0  0  0  0  0  0  0
    3.2379    0.6525    0.0000 C   0  0  0  0  0  0  0  0  0
    3.6504    1.3669    0.0000 O   0  0  0  0  0  0  0  0  0
    1.5155   -0.7295    0.0000 C   0  0  0  0  0  0  0  0  0
    0.7309   -0.4745    0.0000 C   0  0  0  0  0  0  0  0  0
    0.7309    0.3505    0.0000 C   0  0  0  0  0  0  0  0  0
    1.5155    0.6054    0.0000 C   0  0  0  0  0  0  0  0  0
    8.6004    1.3669    0.0000 C   0  0  0  0  0  0  0  0  0
    9.4254    1.3669    0.0000 C   0  0  0  0  0  0  0  0  0
  1  2  1  0  0  0  0
  2  3  4  0  0  0  0
  2 27  4  0  0  0  0
  3  4  4  0  0  0  0
  4  5  4  0  0  0  0
  5  6  1  0  0  0  0
  5 26  4  0  0  0  0
  6  7  1  0  0  0  0
  6 11  1  0  0  0  0
  7  8  1  0  0  0  0
  8  9  1  0  0  0  0
  9 10  1  0  0  0  0
  9 12  1  0  0  0  0
 10 11  1  0  0  0  0
 12 13  1  0  0  0  0
 13 14  1  0  0  0  0
 14 15  1  0  0  0  0
 14 20  1  0  0  0  0
 15 16  2  0  0  0  0
 15 17  1  0  0  0  0
 17 18  1  0  0  0  0
 18 19  1  0  0  0  0
 18 22  1  0  0  0  0
 18 25  1  0  0  0  0
 19 20  1  0  0  0  0
 20 21  2  0  0  0  0
 22 23  1  0  0  0  0
 23 24  1  0  0  0  0
 24 25  1  0  0  0  0
 26 27  4  0  0  0  0
M  END
>  <Name_Molregno>
88463

>  <5-HT1A>
7.27

>  <Alpha-1A>
6.21

>  <Alpha-1B>
6.59

$$$$
88815
  Marvin  02231216192D 0   1.00000     0.00000     0

 14 15  0  0  1  0  0  0  0  0999 V2000
   -3.2072   -0.1654    0.0000 S   0  0  0  0  0  0  0  0  0
   -2.4226   -0.4204    0.0000 C   0  0  0  0  0  0  0  0  0
   -1.7081   -0.0079    0.0000 C   0  0  0  0  0  0  0  0  0
   -0.9937   -0.4204    0.0000 C   0  0  0  0  0  0  0  0  0
   -0.2792   -0.0079    0.0000 N   0  0  0  0  0  0  0  0  0
    0.4353   -0.4204    0.0000 C   0  0  0  0  0  0  0  0  0
    1.1498   -0.0079    0.0000 C   0  0  0  0  0  0  0  0  0
    1.8642   -0.4204    0.0000 C   0  0  0  0  0  0  0  0  0
   -0.9937   -1.2454    0.0000 C   0  0  0  0  0  0  0  0  0
   -1.7081   -1.6579    0.0000 C   0  0  0  0  0  0  0  0  0
   -2.4226   -1.2454    0.0000 C   0  0  0  0  0  0  0  0  0
   -3.2072   -1.5003    0.0000 N   0  0  0  0  0  0  0  0  0
   -3.6921   -0.8329    0.0000 C   0  0  0  0  0  0  0  0  0
   -4.5171   -0.8329    0.0000 N   0  0  0  0  0  0  0  0  0
  1  2  4  0  0  0  0
  1 13  4  0  0  0  0
  2  3  1  0  0  0  0
  2 11  4  0  0  0  0
  3  4  1  0  0  0  0
  4  5  1  0  0  0  0
  4  9  1  0  0  0  0
  5  6  1  0  0  0  0
  6  7  1  0  0  0  0
  7  8  1  0  0  0  0
  9 10  1  0  0  0  0
 10 11  1  0  0  0  0
 11 12  4  0  0  0  0
 12 13  4  0  0  0  0
 13 14  1  0  0  0  0
M  END
>  <Name_Molregno>
88815

>  <5-HT1A>
5.67

>  <5-HT1B>
5.26

>  <5-HT1D>
5.39

>  <5-HT1E>
5

>  <5-HT2A>
5

>  <5-HT2C>
5

>  <5-HT3>
5

>  <5-HT5>
5

>  <5-HT6>
5

>  <5-HT7>
5.93

>  <Alpha-1A>
5

>  <Alpha-1B>
5

>  <Alpha-2A>
6.44

>  <Alpha-2B>
6.68

>  <Alpha-2C>
6.14

>  <Beta-1>
5

>  <Beta-2>
5

>  <DOPAMINE D1>
5

>  <DOPAMINE D2>
6.55

>  <DOPAMINE D3>
8.51

>  <DOPAMINE D4>
7.4

>  <DOPAMINE D5>
5

>  <Dopamine transporter>
5

>  <HISTAMINE H1>
5

>  <HISTAMINE H2>
5.57

>  <HISTAMINE H4>
5

>  <Muscarinic acetylcholine receptor M1>
5

>  <Muscarinic acetylcholine receptor M2>
5

>  <Muscarinic acetylcholine receptor M3>
5

>  <Muscarinic acetylcholine receptor M4>
5

>  <Muscarinic acetylcholine receptor M5>
5

>  <Norepinephrine transporter>
5

>  <Serotonin transporter>
5

$$$$
91855
  Marvin  02231216192D 0   1.00000     0.00000     0

 39 43  0  0  0  0  0  0  0  0999 V2000
    5.3565   -1.6661    0.0000 Cl  0  0  0  0  0  0  0  0  0
    5.4140   -2.4890    0.0000 C   0  0  0  0  0  0  0  0  0
    6.1555   -2.8507    0.0000 C   0  0  0  0  0  0  0  0  0
    6.2131   -3.6737    0.0000 C   0  0  0  0  0  0  0  0  0
    5.5291   -4.1350    0.0000 C   0  0  0  0  0  0  0  0  0
    4.7876   -3.7734    0.0000 C   0  0  0  0  0  0  0  0  0
    4.7301   -2.9504    0.0000 C   0  0  0  0  0  0  0  0  0
    3.9886   -2.5887    0.0000 C   0  0  0  0  0  0  0  0  0
    3.1681   -2.5025    0.0000 C   0  0  0  0  0  0  0  0  0
    2.8325   -1.7488    0.0000 C   0  0  0  0  0  0  0  0  0
    3.3174   -1.0814    0.0000 N   0  0  0  0  0  0  0  0  0
    4.1379   -1.1676    0.0000 C   0  0  0  0  0  0  0  0  0
    4.4735   -1.9213    0.0000 C   0  0  0  0  0  0  0  0  0
    2.9819   -0.3277    0.0000 C   0  0  0  0  0  0  0  0  0
    3.4668    0.3397    0.0000 C   0  0  0  0  0  0  0  0  0
    3.1313    1.0934    0.0000 C   0  0  0  0  0  0  0  0  0
    3.6162    1.7609    0.0000 N   0  0  0  0  0  0  0  0  0
    3.3612    2.5455    0.0000 C   0  0  0  0  0  0  0  0  0
    2.5766    2.8004    0.0000 O   0  0  0  0  0  0  0  0  0
    4.0287    3.0304    0.0000 C   0  0  0  0  0  0  0  0  0
    4.6961    2.5455    0.0000 C   0  0  0  0  0  0  0  0  0
    4.4412    1.7609    0.0000 C   0  0  0  0  0  0  0  0  0
    4.9261    1.0934    0.0000 S   0  0  0  0  0  0  0  0  0
    3.4214    3.5888    0.0000 C   0  0  0  0  0  0  0  0  0
    2.6341    3.3421    0.0000 C   0  0  0  0  0  0  0  0  0
    2.0269    3.9005    0.0000 C   0  0  0  0  0  0  0  0  0
    2.2068    4.7057    0.0000 C   0  0  0  0  0  0  0  0  0
    2.9941    4.9524    0.0000 C   0  0  0  0  0  0  0  0  0
    3.6014    4.3940    0.0000 C   0  0  0  0  0  0  0  0  0
    1.5996    5.2641    0.0000 C   0  0  0  0  0  0  0  0  0
    4.4337    3.7491    0.0000 C   0  0  0  0  0  0  0  0  0
    4.0137    4.4593    0.0000 C   0  0  0  0  0  0  0  0  0
    4.4187    5.1780    0.0000 C   0  0  0  0  0  0  0  0  0
    5.2437    5.1867    0.0000 C   0  0  0  0  0  0  0  0  0
    5.6636    4.4765    0.0000 C   0  0  0  0  0  0  0  0  0
    5.2586    3.7578    0.0000 C   0  0  0  0  0  0  0  0  0
    5.6487    5.9054    0.0000 C   0  0  0  0  0  0  0  0  0
    3.7612   -3.3818    0.0000 C   0  0  0  0  0  0  0  0  0
    3.5338   -4.1748    0.0000 N   0  0  0  0  0  0  0  0  0
  1  2  1  0  0  0  0
  2  3  4  0  0  0  0
  2  7  4  0  0  0  0
  3  4  4  0  0  0  0
  4  5  4  0  0  0  0
  5  6  4  0  0  0  0
  6  7  4  0  0  0  0
  7  8  1  0  0  0  0
  8  9  1  0  0  0  0
  8 13  1  0  0  0  0
  8 38  1  0  0  0  0
  9 10  1  0  0  0  0
 10 11  1  0  0  0  0
 11 12  1  0  0  0  0
 11 14  1  0  0  0  0
 12 13  1  0  0  0  0
 14 15  1  0  0  0  0
 15 16  1  0  0  0  0
 16 17  1  0  0  0  0
 17 18  1  0  0  0  0
 17 22  1  0  0  0  0
 18 19  2  0  0  0  0
 18 20  1  0  0  0  0
 20 21  1  0  0  0  0
 20 24  1  0  0  0  0
 20 31  1  0  0  0  0
 21 22  1  0  0  0  0
 22 23  2  0  0  0  0
 24 25  4  0  0  0  0
 24 29  4  0  0  0  0
 25 26  4  0  0  0  0
 26 27  4  0  0  0  0
 27 28  4  0  0  0  0
 27 30  1  0  0  0  0
 28 29  4  0  0  0  0
 31 32  4  0  0  0  0
 31 36  4  0  0  0  0
 32 33  4  0  0  0  0
 33 34  4  0  0  0  0
 34 35  4  0  0  0  0
 34 37  1  0  0  0  0
 35 36  4  0  0  0  0
 38 39  3  0  0  0  0
M  END
>  <Name_Molregno>
91855

>  <Alpha-1A>
6.66

>  <Alpha-1B>
5.7

$$$$
91857
  Marvin  02231216192D 0   1.00000     0.00000     0

 40 44  0  0  1  0  0  0  0  0999 V2000
   -3.2992    3.2779    0.0000 O   0  0  0  0  0  0  0  0  0
   -2.5145    3.0230    0.0000 C   0  0  0  0  0  0  0  0  0
   -2.2596    2.2383    0.0000 N   0  0  0  0  0  0  0  0  0
   -2.7445    1.5709    0.0000 C   0  0  0  0  0  0  0  0  0
   -2.4090    0.8172    0.0000 C   0  0  0  0  0  0  0  0  0
   -1.5885    0.7310    0.0000 O   0  0  0  0  0  0  0  0  0
   -2.8939    0.1498    0.0000 C   0  0  0  0  0  0  0  0  0
   -2.5583   -0.6039    0.0000 N   0  0  0  0  0  0  0  0  0
   -1.7379   -0.6901    0.0000 C   0  0  0  0  0  0  0  0  0
   -1.4023   -1.4438    0.0000 C   0  0  0  0  0  0  0  0  0
   -1.8872   -2.1112    0.0000 C   0  0  0  0  0  0  0  0  0
   -2.7077   -2.0250    0.0000 C   0  0  0  0  0  0  0  0  0
   -3.0433   -1.2713    0.0000 C   0  0  0  0  0  0  0  0  0
   -1.2371   -2.6192    0.0000 C   0  0  0  0  0  0  0  0  0
   -0.5870   -3.1271    0.0000 N   0  0  0  0  0  0  0  0  0
   -1.9448   -2.9342    0.0000 C   0  0  0  0  0  0  0  0  0
   -1.2608   -3.3956    0.0000 C   0  0  0  0  0  0  0  0  0
   -1.3184   -4.2186    0.0000 C   0  0  0  0  0  0  0  0  0
   -2.0599   -4.5802    0.0000 C   0  0  0  0  0  0  0  0  0
   -2.7438   -4.1189    0.0000 C   0  0  0  0  0  0  0  0  0
   -2.6863   -3.2959    0.0000 C   0  0  0  0  0  0  0  0  0
   -3.3702   -2.8345    0.0000 C   0  0  0  0  0  0  0  0  0
   -1.4346    2.2383    0.0000 C   0  0  0  0  0  0  0  0  0
   -0.9497    1.5709    0.0000 O   0  0  0  0  0  0  0  0  0
   -1.1797    3.0230    0.0000 C   0  0  0  0  0  0  0  0  0
   -1.8471    3.5079    0.0000 C   0  0  0  0  0  0  0  0  0
   -2.4544    4.0663    0.0000 C   0  0  0  0  0  0  0  0  0
   -3.2416    3.8196    0.0000 C   0  0  0  0  0  0  0  0  0
   -3.8489    4.3780    0.0000 C   0  0  0  0  0  0  0  0  0
   -3.6690    5.1832    0.0000 C   0  0  0  0  0  0  0  0  0
   -2.8817    5.4299    0.0000 C   0  0  0  0  0  0  0  0  0
   -2.2744    4.8714    0.0000 C   0  0  0  0  0  0  0  0  0
   -4.2762    5.7416    0.0000 C   0  0  0  0  0  0  0  0  0
   -1.4421    4.2266    0.0000 C   0  0  0  0  0  0  0  0  0
   -1.8621    4.9367    0.0000 C   0  0  0  0  0  0  0  0  0
   -1.4571    5.6555    0.0000 C   0  0  0  0  0  0  0  0  0
   -0.6321    5.6641    0.0000 C   0  0  0  0  0  0  0  0  0
   -0.2122    4.9540    0.0000 C   0  0  0  0  0  0  0  0  0
   -0.6172    4.2353    0.0000 C   0  0  0  0  0  0  0  0  0
   -0.2271    6.3829    0.0000 C   0  0  0  0  0  0  0  0  0
  1  2  2  0  0  0  0
  2  3  1  0  0  0  0
  2 26  1  0  0  0  0
  3  4  1  0  0  0  0
  3 23  1  0  0  0  0
  4  5  1  0  0  0  0
  5  6  1  0  0  0  0
  5  7  1  0  0  0  0
  7  8  1  0  0  0  0
  8  9  1  0  0  0  0
  8 13  1  0  0  0  0
  9 10  1  0  0  0  0
 10 11  1  0  0  0  0
 11 12  1  0  0  0  0
 11 14  1  0  0  0  0
 11 16  1  0  0  0  0
 12 13  1  0  0  0  0
 14 15  3  0  0  0  0
 16 17  4  0  0  0  0
 16 21  4  0  0  0  0
 17 18  4  0  0  0  0
 18 19  4  0  0  0  0
 19 20  4  0  0  0  0
 20 21  4  0  0  0  0
 21 22  1  0  0  0  0
 23 24  2  0  0  0  0
 23 25  1  0  0  0  0
 25 26  1  0  0  0  0
 26 27  1  0  0  0  0
 26 34  1  0  0  0  0
 27 28  4  0  0  0  0
 27 32  4  0  0  0  0
 28 29  4  0  0  0  0
 29 30  4  0  0  0  0
 30 31  4  0  0  0  0
 30 33  1  0  0  0  0
 31 32  4  0  0  0  0
 34 35  4  0  0  0  0
 34 39  4  0  0  0  0
 35 36  4  0  0  0  0
 36 37  4  0  0  0  0
 37 38  4  0  0  0  0
 37 40  1  0  0  0  0
 38 39  4  0  0  0  0
M  END
>  <Name_Molregno>
91857

>  <Alpha-1A>
8.01

>  <Alpha-1B>
5.82

$$$$
91858
  Marvin  02231216192D 0   1.00000     0.00000     0

 39 43  0  0  0  0  0  0  0  0999 V2000
    5.3565   -1.6661    0.0000 Cl  0  0  0  0  0  0  0  0  0
    5.4140   -2.4890    0.0000 C   0  0  0  0  0  0  0  0  0
    6.1555   -2.8507    0.0000 C   0  0  0  0  0  0  0  0  0
    6.2131   -3.6737    0.0000 C   0  0  0  0  0  0  0  0  0
    5.5291   -4.1350    0.0000 C   0  0  0  0  0  0  0  0  0
    4.7876   -3.7734    0.0000 C   0  0  0  0  0  0  0  0  0
    4.7301   -2.9504    0.0000 C   0  0  0  0  0  0  0  0  0
    3.9886   -2.5887    0.0000 C   0  0  0  0  0  0  0  0  0
    3.1681   -2.5025    0.0000 C   0  0  0  0  0  0  0  0  0
    2.8325   -1.7488    0.0000 C   0  0  0  0  0  0  0  0  0
    3.3174   -1.0814    0.0000 N   0  0  0  0  0  0  0  0  0
    4.1379   -1.1676    0.0000 C   0  0  0  0  0  0  0  0  0
    4.4735   -1.9213    0.0000 C   0  0  0  0  0  0  0  0  0
    2.9819   -0.3277    0.0000 C   0  0  0  0  0  0  0  0  0
    3.4668    0.3397    0.0000 C   0  0  0  0  0  0  0  0  0
    3.1313    1.0934    0.0000 C   0  0  0  0  0  0  0  0  0
    3.6162    1.7609    0.0000 N   0  0  0  0  0  0  0  0  0
    3.3612    2.5455    0.0000 C   0  0  0  0  0  0  0  0  0
    2.5766    2.8004    0.0000 O   0  0  0  0  0  0  0  0  0
    4.0287    3.0304    0.0000 C   0  0  0  0  0  0  0  0  0
    4.6961    2.5455    0.0000 C   0  0  0  0  0  0  0  0  0
    4.4412    1.7609    0.0000 C   0  0  0  0  0  0  0  0  0
    4.9261    1.0934    0.0000 O   0  0  0  0  0  0  0  0  0
    3.4214    3.5888    0.0000 C   0  0  0  0  0  0  0  0  0
    2.6341    3.3421    0.0000 C   0  0  0  0  0  0  0  0  0
    2.0269    3.9005    0.0000 C   0  0  0  0  0  0  0  0  0
    2.2068    4.7057    0.0000 C   0  0  0  0  0  0  0  0  0
    2.9941    4.9524    0.0000 C   0  0  0  0  0  0  0  0  0
    3.6014    4.3940    0.0000 C   0  0  0  0  0  0  0  0  0
    1.5996    5.2641    0.0000 C   0  0  0  0  0  0  0  0  0
    4.4337    3.7491    0.0000 C   0  0  0  0  0  0  0  0  0
    4.0137    4.4593    0.0000 C   0  0  0  0  0  0  0  0  0
    4.4187    5.1780    0.0000 C   0  0  0  0  0  0  0  0  0
    5.2437    5.1867    0.0000 C   0  0  0  0  0  0  0  0  0
    5.6636    4.4765    0.0000 C   0  0  0  0  0  0  0  0  0
    5.2586    3.7578    0.0000 C   0  0  0  0  0  0  0  0  0
    5.6487    5.9054    0.0000 C   0  0  0  0  0  0  0  0  0
    3.7612   -3.3818    0.0000 C   0  0  0  0  0  0  0  0  0
    3.5338   -4.1748    0.0000 N   0  0  0  0  0  0  0  0  0
  1  2  1  0  0  0  0
  2  3  4  0  0  0  0
  2  7  4  0  0  0  0
  3  4  4  0  0  0  0
  4  5  4  0  0  0  0
  5  6  4  0  0  0  0
  6  7  4  0  0  0  0
  7  8  1  0  0  0  0
  8  9  1  0  0  0  0
  8 13  1  0  0  0  0
  8 38  1  0  0  0  0
  9 10  1  0  0  0  0
 10 11  1  0  0  0  0
 11 12  1  0  0  0  0
 11 14  1  0  0  0  0
 12 13  1  0  0  0  0
 14 15  1  0  0  0  0
 15 16  1  0  0  0  0
 16 17  1  0  0  0  0
 17 18  1  0  0  0  0
 17 22  1  0  0  0  0
 18 19  2  0  0  0  0
 18 20  1  0  0  0  0
 20 21  1  0  0  0  0
 20 24  1  0  0  0  0
 20 31  1  0  0  0  0
 21 22  1  0  0  0  0
 22 23  2  0  0  0  0
 24 25  4  0  0  0  0
 24 29  4  0  0  0  0
 25 26  4  0  0  0  0
 26 27  4  0  0  0  0
 27 28  4  0  0  0  0
 27 30  1  0  0  0  0
 28 29  4  0  0  0  0
 31 32  4  0  0  0  0
 31 36  4  0  0  0  0
 32 33  4  0  0  0  0
 33 34  4  0  0  0  0
 34 35  4  0  0  0  0
 34 37  1  0  0  0  0
 35 36  4  0  0  0  0
 38 39  3  0  0  0  0
M  END
>  <Name_Molregno>
91858

>  <Alpha-1A>
9.32

>  <Alpha-1B>
7.01

$$$$
92035
  Marvin  02231216192D 0   1.00000     0.00000     0

 39 43  0  0  0  0  0  0  0  0999 V2000
   -1.8260    1.8504    0.0000 O   0  0  0  0  0  0  0  0  0
   -1.0414    1.5955    0.0000 C   0  0  0  0  0  0  0  0  0
   -0.7864    0.8108    0.0000 N   0  0  0  0  0  0  0  0  0
   -1.2713    0.1434    0.0000 C   0  0  0  0  0  0  0  0  0
   -0.9358   -0.6103    0.0000 C   0  0  0  0  0  0  0  0  0
   -1.4207   -1.2777    0.0000 C   0  0  0  0  0  0  0  0  0
   -1.0851   -2.0314    0.0000 N   0  0  0  0  0  0  0  0  0
   -0.2647   -2.1176    0.0000 C   0  0  0  0  0  0  0  0  0
    0.0709   -2.8713    0.0000 C   0  0  0  0  0  0  0  0  0
   -0.4140   -3.5387    0.0000 C   0  0  0  0  0  0  0  0  0
   -1.2345   -3.4525    0.0000 C   0  0  0  0  0  0  0  0  0
   -1.5701   -2.6988    0.0000 C   0  0  0  0  0  0  0  0  0
    0.2361   -4.0467    0.0000 C   0  0  0  0  0  0  0  0  0
    0.8862   -4.5546    0.0000 N   0  0  0  0  0  0  0  0  0
   -0.4716   -4.3617    0.0000 C   0  0  0  0  0  0  0  0  0
    0.2124   -4.8231    0.0000 C   0  0  0  0  0  0  0  0  0
    0.1548   -5.6460    0.0000 C   0  0  0  0  0  0  0  0  0
   -0.5867   -6.0077    0.0000 C   0  0  0  0  0  0  0  0  0
   -1.2706   -5.5464    0.0000 C   0  0  0  0  0  0  0  0  0
   -1.2131   -4.7234    0.0000 C   0  0  0  0  0  0  0  0  0
   -1.8970   -4.2620    0.0000 C   0  0  0  0  0  0  0  0  0
    0.0386    0.8108    0.0000 C   0  0  0  0  0  0  0  0  0
    0.5235    0.1434    0.0000 O   0  0  0  0  0  0  0  0  0
    0.2935    1.5955    0.0000 C   0  0  0  0  0  0  0  0  0
   -0.3739    2.0804    0.0000 C   0  0  0  0  0  0  0  0  0
   -0.9812    2.6388    0.0000 C   0  0  0  0  0  0  0  0  0
   -1.7684    2.3921    0.0000 C   0  0  0  0  0  0  0  0  0
   -2.3757    2.9505    0.0000 C   0  0  0  0  0  0  0  0  0
   -2.1958    3.7557    0.0000 C   0  0  0  0  0  0  0  0  0
   -1.4085    4.0024    0.0000 C   0  0  0  0  0  0  0  0  0
   -0.8012    3.4439    0.0000 C   0  0  0  0  0  0  0  0  0
   -2.8030    4.3141    0.0000 C   0  0  0  0  0  0  0  0  0
    0.0311    2.7991    0.0000 C   0  0  0  0  0  0  0  0  0
   -0.3889    3.5093    0.0000 C   0  0  0  0  0  0  0  0  0
    0.0161    4.2280    0.0000 C   0  0  0  0  0  0  0  0  0
    0.8411    4.2366    0.0000 C   0  0  0  0  0  0  0  0  0
    1.2610    3.5265    0.0000 C   0  0  0  0  0  0  0  0  0
    0.8560    2.8078    0.0000 C   0  0  0  0  0  0  0  0  0
    1.2461    4.9554    0.0000 C   0  0  0  0  0  0  0  0  0
  1  2  2  0  0  0  0
  2  3  1  0  0  0  0
  2 25  1  0  0  0  0
  3  4  1  0  0  0  0
  3 22  1  0  0  0  0
  4  5  1  0  0  0  0
  5  6  1  0  0  0  0
  6  7  1  0  0  0  0
  7  8  1  0  0  0  0
  7 12  1  0  0  0  0
  8  9  1  0  0  0  0
  9 10  1  0  0  0  0
 10 11  1  0  0  0  0
 10 13  1  0  0  0  0
 10 15  1  0  0  0  0
 11 12  1  0  0  0  0
 13 14  3  0  0  0  0
 15 16  4  0  0  0  0
 15 20  4  0  0  0  0
 16 17  4  0  0  0  0
 17 18  4  0  0  0  0
 18 19  4  0  0  0  0
 19 20  4  0  0  0  0
 20 21  1  0  0  0  0
 22 23  2  0  0  0  0
 22 24  1  0  0  0  0
 24 25  1  0  0  0  0
 25 26  1  0  0  0  0
 25 33  1  0  0  0  0
 26 27  4  0  0  0  0
 26 31  4  0  0  0  0
 27 28  4  0  0  0  0
 28 29  4  0  0  0  0
 29 30  4  0  0  0  0
 29 32  1  0  0  0  0
 30 31  4  0  0  0  0
 33 34  4  0  0  0  0
 33 38  4  0  0  0  0
 34 35  4  0  0  0  0
 35 36  4  0  0  0  0
 36 37  4  0  0  0  0
 36 39  1  0  0  0  0
 37 38  4  0  0  0  0
M  END
>  <Name_Molregno>
92035

>  <Alpha-1A>
8.77

>  <Alpha-1B>
5.72

$$$$
92039
  Marvin  02231216192D 0   1.00000     0.00000     0

 39 43  0  0  0  0  0  0  0  0999 V2000
    1.1884    2.0880    0.0000 O   0  0  0  0  0  0  0  0  0
    1.8558    2.5729    0.0000 C   0  0  0  0  0  0  0  0  0
    1.3038    3.1860    0.0000 C   0  0  0  0  0  0  0  0  0
    0.4968    3.0145    0.0000 C   0  0  0  0  0  0  0  0  0
   -0.0552    3.6276    0.0000 C   0  0  0  0  0  0  0  0  0
    0.1997    4.4122    0.0000 C   0  0  0  0  0  0  0  0  0
    1.0067    4.5837    0.0000 C   0  0  0  0  0  0  0  0  0
    1.5587    3.9706    0.0000 C   0  0  0  0  0  0  0  0  0
   -0.3523    5.0253    0.0000 C   0  0  0  0  0  0  0  0  0
    2.4079    3.1860    0.0000 C   0  0  0  0  0  0  0  0  0
    2.1529    3.9706    0.0000 C   0  0  0  0  0  0  0  0  0
    2.7050    4.5837    0.0000 C   0  0  0  0  0  0  0  0  0
    3.5119    4.4122    0.0000 C   0  0  0  0  0  0  0  0  0
    3.7669    3.6276    0.0000 C   0  0  0  0  0  0  0  0  0
    3.2148    3.0145    0.0000 C   0  0  0  0  0  0  0  0  0
    4.0640    5.0253    0.0000 C   0  0  0  0  0  0  0  0  0
    2.5233    2.0880    0.0000 C   0  0  0  0  0  0  0  0  0
    3.3079    2.3429    0.0000 O   0  0  0  0  0  0  0  0  0
    2.2683    1.3034    0.0000 N   0  0  0  0  0  0  0  0  0
    2.7533    0.6359    0.0000 C   0  0  0  0  0  0  0  0  0
    2.4177   -0.1177    0.0000 C   0  0  0  0  0  0  0  0  0
    2.9026   -0.7852    0.0000 C   0  0  0  0  0  0  0  0  0
    2.5671   -1.5388    0.0000 N   0  0  0  0  0  0  0  0  0
    3.0520   -2.2063    0.0000 C   0  0  0  0  0  0  0  0  0
    2.7164   -2.9600    0.0000 C   0  0  0  0  0  0  0  0  0
    1.8960   -3.0462    0.0000 C   0  0  0  0  0  0  0  0  0
    1.4110   -2.3788    0.0000 C   0  0  0  0  0  0  0  0  0
    1.7466   -1.6251    0.0000 C   0  0  0  0  0  0  0  0  0
    1.9535   -3.8692    0.0000 C   0  0  0  0  0  0  0  0  0
    2.0111   -4.6922    0.0000 N   0  0  0  0  0  0  0  0  0
    1.2458   -3.5541    0.0000 C   0  0  0  0  0  0  0  0  0
    1.3607   -4.3711    0.0000 C   0  0  0  0  0  0  0  0  0
    0.7106   -4.8790    0.0000 C   0  0  0  0  0  0  0  0  0
   -0.0544   -4.5700    0.0000 C   0  0  0  0  0  0  0  0  0
   -0.1692   -3.7530    0.0000 C   0  0  0  0  0  0  0  0  0
    0.4809   -3.2451    0.0000 C   0  0  0  0  0  0  0  0  0
    0.3661   -2.4281    0.0000 C   0  0  0  0  0  0  0  0  0
    1.4433    1.3034    0.0000 C   0  0  0  0  0  0  0  0  0
    0.9584    0.6359    0.0000 O   0  0  0  0  0  0  0  0  0
  1  2  1  0  0  0  0
  1 38  1  0  0  0  0
  2  3  1  0  0  0  0
  2 10  1  0  0  0  0
  2 17  1  0  0  0  0
  3  4  4  0  0  0  0
  3  8  4  0  0  0  0
  4  5  4  0  0  0  0
  5  6  4  0  0  0  0
  6  7  4  0  0  0  0
  6  9  1  0  0  0  0
  7  8  4  0  0  0  0
 10 11  4  0  0  0  0
 10 15  4  0  0  0  0
 11 12  4  0  0  0  0
 12 13  4  0  0  0  0
 13 14  4  0  0  0  0
 13 16  1  0  0  0  0
 14 15  4  0  0  0  0
 17 18  2  0  0  0  0
 17 19  1  0  0  0  0
 19 20  1  0  0  0  0
 19 38  1  0  0  0  0
 20 21  1  0  0  0  0
 21 22  1  0  0  0  0
 22 23  1  0  0  0  0
 23 24  1  0  0  0  0
 23 28  1  0  0  0  0
 24 25  1  0  0  0  0
 25 26  1  0  0  0  0
 26 27  1  0  0  0  0
 26 29  1  0  0  0  0
 26 31  1  0  0  0  0
 27 28  1  0  0  0  0
 29 30  3  0  0  0  0
 31 32  4  0  0  0  0
 31 36  4  0  0  0  0
 32 33  4  0  0  0  0
 33 34  4  0  0  0  0
 34 35  4  0  0  0  0
 35 36  4  0  0  0  0
 36 37  1  0  0  0  0
 38 39  2  0  0  0  0
M  END
>  <Name_Molregno>
92039

>  <Alpha-1A>
7.11

>  <Alpha-1B>
5.7

$$$$
92040
  Marvin  02231216192D 0   1.00000     0.00000     0

 36 39  0  0  0  0  0  0  0  0999 V2000
   -1.2230   -2.0326    0.0000 O   0  0  0  0  0  0  0  0  0
   -0.8105   -1.3182    0.0000 C   0  0  0  0  0  0  0  0  0
   -0.0960   -1.7307    0.0000 C   0  0  0  0  0  0  0  0  0
   -0.0960   -2.5557    0.0000 O   0  0  0  0  0  0  0  0  0
    0.6184   -1.3182    0.0000 N   0  0  0  0  0  0  0  0  0
    1.3329   -1.7307    0.0000 C   0  0  0  0  0  0  0  0  0
    2.0474   -1.3182    0.0000 C   0  0  0  0  0  0  0  0  0
    2.7618   -1.7307    0.0000 C   0  0  0  0  0  0  0  0  0
    3.4763   -1.3182    0.0000 N   0  0  0  0  0  0  0  0  0
    3.4763   -0.4932    0.0000 C   0  0  0  0  0  0  0  0  0
    4.1908   -0.0807    0.0000 C   0  0  0  0  0  0  0  0  0
    4.9053   -0.4932    0.0000 C   0  0  0  0  0  0  0  0  0
    4.9053   -1.3182    0.0000 C   0  0  0  0  0  0  0  0  0
    4.1908   -1.7307    0.0000 C   0  0  0  0  0  0  0  0  0
    5.3424    0.2065    0.0000 C   0  0  0  0  0  0  0  0  0
    5.7796    0.9061    0.0000 N   0  0  0  0  0  0  0  0  0
    5.7298   -0.4644    0.0000 C   0  0  0  0  0  0  0  0  0
    6.1171    0.2641    0.0000 C   0  0  0  0  0  0  0  0  0
    6.9416    0.2929    0.0000 C   0  0  0  0  0  0  0  0  0
    7.3788   -0.4068    0.0000 C   0  0  0  0  0  0  0  0  0
    6.9914   -1.1352    0.0000 C   0  0  0  0  0  0  0  0  0
    6.1669   -1.1640    0.0000 C   0  0  0  0  0  0  0  0  0
   -1.5250   -0.9057    0.0000 C   0  0  0  0  0  0  0  0  0
   -2.2394   -1.3182    0.0000 C   0  0  0  0  0  0  0  0  0
   -2.9539   -0.9057    0.0000 C   0  0  0  0  0  0  0  0  0
   -2.9539   -0.0807    0.0000 C   0  0  0  0  0  0  0  0  0
   -2.2394    0.3318    0.0000 C   0  0  0  0  0  0  0  0  0
   -1.5250   -0.0807    0.0000 C   0  0  0  0  0  0  0  0  0
   -3.6684    0.3318    0.0000 C   0  0  0  0  0  0  0  0  0
   -0.3980   -0.6037    0.0000 C   0  0  0  0  0  0  0  0  0
   -0.8105    0.1108    0.0000 C   0  0  0  0  0  0  0  0  0
   -0.3980    0.8253    0.0000 C   0  0  0  0  0  0  0  0  0
    0.4270    0.8253    0.0000 C   0  0  0  0  0  0  0  0  0
    0.8395    0.1108    0.0000 C   0  0  0  0  0  0  0  0  0
    0.4270   -0.6037    0.0000 C   0  0  0  0  0  0  0  0  0
    0.8395    1.5397    0.0000 C   0  0  0  0  0  0  0  0  0
  1  2  1  0  0  0  0
  2  3  1  0  0  0  0
  2 23  1  0  0  0  0
  2 30  1  0  0  0  0
  3  4  2  0  0  0  0
  3  5  1  0  0  0  0
  5  6  1  0  0  0  0
  6  7  1  0  0  0  0
  7  8  1  0  0  0  0
  8  9  1  0  0  0  0
  9 10  1  0  0  0  0
  9 14  1  0  0  0  0
 10 11  1  0  0  0  0
 11 12  1  0  0  0  0
 12 13  1  0  0  0  0
 12 15  1  0  0  0  0
 12 17  1  0  0  0  0
 13 14  1  0  0  0  0
 15 16  3  0  0  0  0
 17 18  4  0  0  0  0
 17 22  4  0  0  0  0
 18 19  4  0  0  0  0
 19 20  4  0  0  0  0
 20 21  4  0  0  0  0
 21 22  4  0  0  0  0
 23 24  4  0  0  0  0
 23 28  4  0  0  0  0
 24 25  4  0  0  0  0
 25 26  4  0  0  0  0
 26 27  4  0  0  0  0
 26 29  1  0  0  0  0
 27 28  4  0  0  0  0
 30 31  4  0  0  0  0
 30 35  4  0  0  0  0
 31 32  4  0  0  0  0
 32 33  4  0  0  0  0
 33 34  4  0  0  0  0
 33 36  1  0  0  0  0
 34 35  4  0  0  0  0
M  END
>  <Name_Molregno>
92040

>  <Alpha-1A>
8.24

>  <Alpha-1B>
5.74

$$$$
92612
  Marvin  02231216192D 0   1.00000     0.00000     0

 37 40  0  0  0  0  0  0  0  0999 V2000
   -1.2955   -2.2197    0.0000 O   0  0  0  0  0  0  0  0  0
   -0.8830   -1.5052    0.0000 C   0  0  0  0  0  0  0  0  0
   -0.1685   -1.9177    0.0000 C   0  0  0  0  0  0  0  0  0
   -0.1685   -2.7427    0.0000 O   0  0  0  0  0  0  0  0  0
    0.5460   -1.5052    0.0000 N   0  0  0  0  0  0  0  0  0
    1.2605   -1.9177    0.0000 C   0  0  0  0  0  0  0  0  0
    1.9749   -1.5052    0.0000 C   0  0  0  0  0  0  0  0  0
    2.6894   -1.9177    0.0000 C   0  0  0  0  0  0  0  0  0
    3.4039   -1.5052    0.0000 N   0  0  0  0  0  0  0  0  0
    3.4039   -0.6802    0.0000 C   0  0  0  0  0  0  0  0  0
    4.1183   -0.2677    0.0000 C   0  0  0  0  0  0  0  0  0
    4.8328   -0.6802    0.0000 C   0  0  0  0  0  0  0  0  0
    4.8328   -1.5052    0.0000 C   0  0  0  0  0  0  0  0  0
    4.1183   -1.9177    0.0000 C   0  0  0  0  0  0  0  0  0
    5.2700    0.0194    0.0000 C   0  0  0  0  0  0  0  0  0
    5.7072    0.7191    0.0000 N   0  0  0  0  0  0  0  0  0
    5.6573   -0.6514    0.0000 C   0  0  0  0  0  0  0  0  0
    6.0446    0.0770    0.0000 C   0  0  0  0  0  0  0  0  0
    6.8691    0.1058    0.0000 C   0  0  0  0  0  0  0  0  0
    7.3063   -0.5938    0.0000 C   0  0  0  0  0  0  0  0  0
    6.9190   -1.3223    0.0000 C   0  0  0  0  0  0  0  0  0
    6.0945   -1.3510    0.0000 C   0  0  0  0  0  0  0  0  0
    5.7072   -2.0795    0.0000 C   0  0  0  0  0  0  0  0  0
   -1.5974   -1.0927    0.0000 C   0  0  0  0  0  0  0  0  0
   -2.3119   -1.5052    0.0000 C   0  0  0  0  0  0  0  0  0
   -3.0264   -1.0927    0.0000 C   0  0  0  0  0  0  0  0  0
   -3.0264   -0.2677    0.0000 C   0  0  0  0  0  0  0  0  0
   -2.3119    0.1448    0.0000 C   0  0  0  0  0  0  0  0  0
   -1.5974   -0.2677    0.0000 C   0  0  0  0  0  0  0  0  0
   -3.7408    0.1448    0.0000 C   0  0  0  0  0  0  0  0  0
   -0.4705   -0.7907    0.0000 C   0  0  0  0  0  0  0  0  0
   -0.8830   -0.0763    0.0000 C   0  0  0  0  0  0  0  0  0
   -0.4705    0.6382    0.0000 C   0  0  0  0  0  0  0  0  0
    0.3545    0.6382    0.0000 C   0  0  0  0  0  0  0  0  0
    0.7670   -0.0763    0.0000 C   0  0  0  0  0  0  0  0  0
    0.3545   -0.7907    0.0000 C   0  0  0  0  0  0  0  0  0
    0.7670    1.3527    0.0000 C   0  0  0  0  0  0  0  0  0
  1  2  1  0  0  0  0
  2  3  1  0  0  0  0
  2 24  1  0  0  0  0
  2 31  1  0  0  0  0
  3  4  2  0  0  0  0
  3  5  1  0  0  0  0
  5  6  1  0  0  0  0
  6  7  1  0  0  0  0
  7  8  1  0  0  0  0
  8  9  1  0  0  0  0
  9 10  1  0  0  0  0
  9 14  1  0  0  0  0
 10 11  1  0  0  0  0
 11 12  1  0  0  0  0
 12 13  1  0  0  0  0
 12 15  1  0  0  0  0
 12 17  1  0  0  0  0
 13 14  1  0  0  0  0
 15 16  3  0  0  0  0
 17 18  4  0  0  0  0
 17 22  4  0  0  0  0
 18 19  4  0  0  0  0
 19 20  4  0  0  0  0
 20 21  4  0  0  0  0
 21 22  4  0  0  0  0
 22 23  1  0  0  0  0
 24 25  4  0  0  0  0
 24 29  4  0  0  0  0
 25 26  4  0  0  0  0
 26 27  4  0  0  0  0
 27 28  4  0  0  0  0
 27 30  1  0  0  0  0
 28 29  4  0  0  0  0
 31 32  4  0  0  0  0
 31 36  4  0  0  0  0
 32 33  4  0  0  0  0
 33 34  4  0  0  0  0
 34 35  4  0  0  0  0
 34 37  1  0  0  0  0
 35 36  4  0  0  0  0
M  END
>  <Name_Molregno>
92612

>  <Alpha-1A>
8.7

>  <Alpha-1B>
6.24

$$$$
107062
  Marvin  02231216192D 0   1.00000     0.00000     0

 28 31  0  0  0  0  0  0  0  0999 V2000
    3.2978   -1.8990    0.0000 S   0  0  0  0  0  0  0  0  0
    3.0429   -2.6836    0.0000 C   0  0  0  0  0  0  0  0  0
    2.2179   -2.6836    0.0000 C   0  0  0  0  0  0  0  0  0
    1.9630   -1.8990    0.0000 C   0  0  0  0  0  0  0  0  0
    2.6304   -1.4141    0.0000 C   0  0  0  0  0  0  0  0  0
    2.6304   -0.5891    0.0000 C   0  0  0  0  0  0  0  0  0
    1.9159   -0.1766    0.0000 N   0  0  0  0  0  0  0  0  0
    1.2015   -0.5891    0.0000 C   0  0  0  0  0  0  0  0  0
    0.4870   -0.1766    0.0000 C   0  0  0  0  0  0  0  0  0
    0.4870    0.6484    0.0000 N   0  0  0  0  0  0  0  0  0
    1.2015    1.0609    0.0000 C   0  0  0  0  0  0  0  0  0
    1.9159    0.6484    0.0000 C   0  0  0  0  0  0  0  0  0
   -0.2275    1.0609    0.0000 C   0  0  0  0  0  0  0  0  0
   -0.9419    0.6484    0.0000 C   0  0  0  0  0  0  0  0  0
   -1.6564    1.0609    0.0000 C   0  0  0  0  0  0  0  0  0
   -1.6564    1.8859    0.0000 C   0  0  0  0  0  0  0  0  0
   -0.9419    2.2984    0.0000 C   0  0  0  0  0  0  0  0  0
   -0.2275    1.8859    0.0000 C   0  0  0  0  0  0  0  0  0
    0.4870    2.2984    0.0000 O   0  0  0  0  0  0  0  0  0
    0.4870    3.1234    0.0000 C   0  0  0  0  0  0  0  0  0
    3.5278   -3.3510    0.0000 C   0  0  0  0  0  0  0  0  0
    3.1923   -4.1047    0.0000 N   0  0  0  0  0  0  0  0  0
    3.6772   -4.7722    0.0000 C   0  0  0  0  0  0  0  0  0
    3.3416   -5.5258    0.0000 C   0  0  0  0  0  0  0  0  0
    2.5212   -5.6121    0.0000 C   0  0  0  0  0  0  0  0  0
    2.0362   -4.9446    0.0000 C   0  0  0  0  0  0  0  0  0
    2.3718   -4.1910    0.0000 C   0  0  0  0  0  0  0  0  0
    1.8869   -3.5235    0.0000 O   0  0  0  0  0  0  0  0  0
  1  2  4  0  0  0  0
  1  5  4  0  0  0  0
  2  3  4  0  0  0  0
  2 21  1  0  0  0  0
  3  4  4  0  0  0  0
  4  5  4  0  0  0  0
  5  6  1  0  0  0  0
  6  7  1  0  0  0  0
  7  8  1  0  0  0  0
  7 12  1  0  0  0  0
  8  9  1  0  0  0  0
  9 10  1  0  0  0  0
 10 11  1  0  0  0  0
 10 13  1  0  0  0  0
 11 12  1  0  0  0  0
 13 14  4  0  0  0  0
 13 18  4  0  0  0  0
 14 15  4  0  0  0  0
 15 16  4  0  0  0  0
 16 17  4  0  0  0  0
 17 18  4  0  0  0  0
 18 19  1  0  0  0  0
 19 20  1  0  0  0  0
 21 22  1  0  0  0  0
 22 23  1  0  0  0  0
 22 27  1  0  0  0  0
 23 24  1  0  0  0  0
 24 25  1  0  0  0  0
 25 26  1  0  0  0  0
 26 27  1  0  0  0  0
 27 28  2  0  0  0  0
M  END
>  <Name_Molregno>
107062

>  <Alpha-1A>
7.85

>  <Alpha-1B>
5.3

$$$$
107063
  Marvin  02231216192D 0   1.00000     0.00000     0

 29 32  0  0  0  0  0  0  0  0999 V2000
    3.0904   -1.8182    0.0000 S   0  0  0  0  0  0  0  0  0
    2.8355   -2.6029    0.0000 C   0  0  0  0  0  0  0  0  0
    2.0105   -2.6029    0.0000 C   0  0  0  0  0  0  0  0  0
    1.7555   -1.8182    0.0000 C   0  0  0  0  0  0  0  0  0
    2.4230   -1.3333    0.0000 C   0  0  0  0  0  0  0  0  0
    2.4230   -0.5083    0.0000 C   0  0  0  0  0  0  0  0  0
    1.7085   -0.0958    0.0000 N   0  0  0  0  0  0  0  0  0
    0.9940   -0.5083    0.0000 C   0  0  0  0  0  0  0  0  0
    0.2796   -0.0958    0.0000 C   0  0  0  0  0  0  0  0  0
    0.2796    0.7292    0.0000 N   0  0  0  0  0  0  0  0  0
    0.9940    1.1417    0.0000 C   0  0  0  0  0  0  0  0  0
    1.7085    0.7292    0.0000 C   0  0  0  0  0  0  0  0  0
   -0.4349    1.1417    0.0000 C   0  0  0  0  0  0  0  0  0
   -1.1494    0.7292    0.0000 C   0  0  0  0  0  0  0  0  0
   -1.8639    1.1417    0.0000 C   0  0  0  0  0  0  0  0  0
   -1.8639    1.9667    0.0000 C   0  0  0  0  0  0  0  0  0
   -1.1494    2.3792    0.0000 C   0  0  0  0  0  0  0  0  0
   -0.4349    1.9667    0.0000 C   0  0  0  0  0  0  0  0  0
    0.2796    2.3792    0.0000 O   0  0  0  0  0  0  0  0  0
    0.2796    3.2042    0.0000 C   0  0  0  0  0  0  0  0  0
    3.3204   -3.2703    0.0000 C   0  0  0  0  0  0  0  0  0
    2.9848   -4.0240    0.0000 N   0  0  0  0  0  0  0  0  0
    3.5183   -4.6533    0.0000 C   0  0  0  0  0  0  0  0  0
    3.3588   -5.4628    0.0000 C   0  0  0  0  0  0  0  0  0
    2.6266   -5.8428    0.0000 C   0  0  0  0  0  0  0  0  0
    1.8729   -5.5072    0.0000 C   0  0  0  0  0  0  0  0  0
    1.6653   -4.7088    0.0000 C   0  0  0  0  0  0  0  0  0
    2.1602   -4.0487    0.0000 C   0  0  0  0  0  0  0  0  0
    1.7802   -3.3164    0.0000 O   0  0  0  0  0  0  0  0  0
  1  2  4  0  0  0  0
  1  5  4  0  0  0  0
  2  3  4  0  0  0  0
  2 21  1  0  0  0  0
  3  4  4  0  0  0  0
  4  5  4  0  0  0  0
  5  6  1  0  0  0  0
  6  7  1  0  0  0  0
  7  8  1  0  0  0  0
  7 12  1  0  0  0  0
  8  9  1  0  0  0  0
  9 10  1  0  0  0  0
 10 11  1  0  0  0  0
 10 13  1  0  0  0  0
 11 12  1  0  0  0  0
 13 14  4  0  0  0  0
 13 18  4  0  0  0  0
 14 15  4  0  0  0  0
 15 16  4  0  0  0  0
 16 17  4  0  0  0  0
 17 18  4  0  0  0  0
 18 19  1  0  0  0  0
 19 20  1  0  0  0  0
 21 22  1  0  0  0  0
 22 23  1  0  0  0  0
 22 28  1  0  0  0  0
 23 24  1  0  0  0  0
 24 25  1  0  0  0  0
 25 26  1  0  0  0  0
 26 27  1  0  0  0  0
 27 28  1  0  0  0  0
 28 29  2  0  0  0  0
M  END
>  <Name_Molregno>
107063

>  <Alpha-1A>
7.74

>  <Alpha-1B>
5.3

$$$$
107129
  Marvin  02231216192D 0   1.00000     0.00000     0

 30 33  0  0  1  0  0  0  0  0999 V2000
    2.3229    0.1540    0.0000 S   0  0  0  0  0  0  0  0  0
    2.0680   -0.6306    0.0000 C   0  0  0  0  0  0  0  0  0
    1.2430   -0.6306    0.0000 C   0  0  0  0  0  0  0  0  0
    0.9880    0.1540    0.0000 C   0  0  0  0  0  0  0  0  0
    1.6555    0.6390    0.0000 C   0  0  0  0  0  0  0  0  0
    1.6555    1.4640    0.0000 C   0  0  0  0  0  0  0  0  0
    0.9410    1.8765    0.0000 N   0  0  0  0  0  0  0  0  0
    0.2265    1.4640    0.0000 C   0  0  0  0  0  0  0  0  0
   -0.4879    1.8765    0.0000 C   0  0  0  0  0  0  0  0  0
   -0.4879    2.7015    0.0000 N   0  0  0  0  0  0  0  0  0
    0.2265    3.1140    0.0000 C   0  0  0  0  0  0  0  0  0
    0.9410    2.7015    0.0000 C   0  0  0  0  0  0  0  0  0
   -1.2024    3.1140    0.0000 C   0  0  0  0  0  0  0  0  0
   -1.9169    2.7015    0.0000 C   0  0  0  0  0  0  0  0  0
   -2.6314    3.1140    0.0000 C   0  0  0  0  0  0  0  0  0
   -2.6314    3.9390    0.0000 C   0  0  0  0  0  0  0  0  0
   -1.9169    4.3515    0.0000 C   0  0  0  0  0  0  0  0  0
   -1.2024    3.9390    0.0000 C   0  0  0  0  0  0  0  0  0
   -0.4879    4.3515    0.0000 O   0  0  0  0  0  0  0  0  0
   -0.4879    5.1765    0.0000 C   0  0  0  0  0  0  0  0  0
    2.5529   -1.2980    0.0000 C   0  0  0  0  0  0  0  0  0
    3.3734   -1.2118    0.0000 N   0  0  0  0  0  0  0  0  0
    3.7859   -0.4973    0.0000 C   0  0  0  0  0  0  0  0  0
    4.5928   -0.6688    0.0000 C   0  0  0  0  0  0  0  0  0
    4.6791   -1.4893    0.0000 C   0  0  0  0  0  0  0  0  0
    3.9254   -1.8249    0.0000 C   0  0  0  0  0  0  0  0  0
    3.7539   -2.6318    0.0000 C   0  0  0  0  0  0  0  0  0
    2.9693   -2.8868    0.0000 O   0  0  0  0  0  0  0  0  0
    2.7977   -3.6938    0.0000 C   0  0  0  0  0  0  0  0  0
    4.3670   -3.1839    0.0000 O   0  0  0  0  0  0  0  0  0
  1  2  4  0  0  0  0
  1  5  4  0  0  0  0
  2  3  4  0  0  0  0
  2 21  1  0  0  0  0
  3  4  4  0  0  0  0
  4  5  4  0  0  0  0
  5  6  1  0  0  0  0
  6  7  1  0  0  0  0
  7  8  1  0  0  0  0
  7 12  1  0  0  0  0
  8  9  1  0  0  0  0
  9 10  1  0  0  0  0
 10 11  1  0  0  0  0
 10 13  1  0  0  0  0
 11 12  1  0  0  0  0
 13 14  4  0  0  0  0
 13 18  4  0  0  0  0
 14 15  4  0  0  0  0
 15 16  4  0  0  0  0
 16 17  4  0  0  0  0
 17 18  4  0  0  0  0
 18 19  1  0  0  0  0
 19 20  1  0  0  0  0
 21 22  1  0  0  0  0
 22 23  1  0  0  0  0
 22 26  1  0  0  0  0
 23 24  1  0  0  0  0
 24 25  1  0  0  0  0
 25 26  1  0  0  0  0
 26 27  1  0  0  0  0
 27 28  1  0  0  0  0
 27 30  2  0  0  0  0
 28 29  1  0  0  0  0
M  END
>  <Name_Molregno>
107129

>  <Alpha-1A>
7.92

>  <Alpha-1B>
6.23

$$$$
107160
  Marvin  02231216192D 0   1.00000     0.00000     0

 24 26  0  0  0  0  0  0  0  0999 V2000
    0.9373   -1.7284    0.0000 S   0  0  0  0  0  0  0  0  0
    0.6824   -2.5130    0.0000 C   0  0  0  0  0  0  0  0  0
   -0.1426   -2.5130    0.0000 C   0  0  0  0  0  0  0  0  0
   -0.3976   -1.7284    0.0000 C   0  0  0  0  0  0  0  0  0
    0.2699   -1.2435    0.0000 C   0  0  0  0  0  0  0  0  0
    0.2699   -0.4185    0.0000 C   0  0  0  0  0  0  0  0  0
    0.9843   -0.0060    0.0000 N   0  0  0  0  0  0  0  0  0
    0.9843    0.8190    0.0000 C   0  0  0  0  0  0  0  0  0
    1.6988    1.2315    0.0000 C   0  0  0  0  0  0  0  0  0
    2.4133    0.8190    0.0000 N   0  0  0  0  0  0  0  0  0
    2.4133   -0.0060    0.0000 C   0  0  0  0  0  0  0  0  0
    1.6988   -0.4185    0.0000 C   0  0  0  0  0  0  0  0  0
    3.1278    1.2315    0.0000 C   0  0  0  0  0  0  0  0  0
    3.1278    2.0565    0.0000 C   0  0  0  0  0  0  0  0  0
    3.8422    2.4690    0.0000 C   0  0  0  0  0  0  0  0  0
    4.5567    2.0565    0.0000 C   0  0  0  0  0  0  0  0  0
    4.5567    1.2315    0.0000 C   0  0  0  0  0  0  0  0  0
    3.8422    0.8190    0.0000 C   0  0  0  0  0  0  0  0  0
    3.8422   -0.0060    0.0000 O   0  0  0  0  0  0  0  0  0
    4.5567   -0.4185    0.0000 C   0  0  0  0  0  0  0  0  0
    4.5567   -1.2435    0.0000 C   0  0  0  0  0  0  0  0  0
    5.2712   -0.0060    0.0000 C   0  0  0  0  0  0  0  0  0
   -0.6276   -3.1805    0.0000 C   0  0  0  0  0  0  0  0  0
   -0.2920   -3.9341    0.0000 O   0  0  0  0  0  0  0  0  0
  1  2  4  0  0  0  0
  1  5  4  0  0  0  0
  2  3  4  0  0  0  0
  3  4  4  0  0  0  0
  3 23  1  0  0  0  0
  4  5  4  0  0  0  0
  5  6  1  0  0  0  0
  6  7  1  0  0  0  0
  7  8  1  0  0  0  0
  7 12  1  0  0  0  0
  8  9  1  0  0  0  0
  9 10  1  0  0  0  0
 10 11  1  0  0  0  0
 10 13  1  0  0  0  0
 11 12  1  0  0  0  0
 13 14  4  0  0  0  0
 13 18  4  0  0  0  0
 14 15  4  0  0  0  0
 15 16  4  0  0  0  0
 16 17  4  0  0  0  0
 17 18  4  0  0  0  0
 18 19  1  0  0  0  0
 19 20  1  0  0  0  0
 20 21  1  0  0  0  0
 20 22  1  0  0  0  0
 23 24  1  0  0  0  0
M  END
>  <Name_Molregno>
107160

>  <Alpha-1A>
6.48

>  <Alpha-1B>
5.3

$$$$
107193
  Marvin  02231216192D 0   1.00000     0.00000     0

 21 23  0  0  0  0  0  0  0  0999 V2000
    4.4208    3.8082    0.0000 Br  0  0  0  0  0  0  0  0  0
    4.4208    2.9832    0.0000 C   0  0  0  0  0  0  0  0  0
    5.0882    2.4983    0.0000 S   0  0  0  0  0  0  0  0  0
    4.8333    1.7136    0.0000 C   0  0  0  0  0  0  0  0  0
    4.0083    1.7136    0.0000 C   0  0  0  0  0  0  0  0  0
    3.7533    2.4983    0.0000 C   0  0  0  0  0  0  0  0  0
    5.3182    1.0462    0.0000 C   0  0  0  0  0  0  0  0  0
    4.9826    0.2925    0.0000 N   0  0  0  0  0  0  0  0  0
    5.4676   -0.3749    0.0000 C   0  0  0  0  0  0  0  0  0
    5.1320   -1.1286    0.0000 C   0  0  0  0  0  0  0  0  0
    4.3115   -1.2148    0.0000 N   0  0  0  0  0  0  0  0  0
    3.8266   -0.5474    0.0000 C   0  0  0  0  0  0  0  0  0
    4.1621    0.2063    0.0000 C   0  0  0  0  0  0  0  0  0
    3.9760   -1.9685    0.0000 C   0  0  0  0  0  0  0  0  0
    4.4609   -2.6359    0.0000 C   0  0  0  0  0  0  0  0  0
    4.1253   -3.3896    0.0000 C   0  0  0  0  0  0  0  0  0
    3.3048   -3.4759    0.0000 C   0  0  0  0  0  0  0  0  0
    2.8199   -2.8084    0.0000 C   0  0  0  0  0  0  0  0  0
    3.1555   -2.0547    0.0000 C   0  0  0  0  0  0  0  0  0
    2.6706   -1.3873    0.0000 O   0  0  0  0  0  0  0  0  0
    1.8501   -1.4735    0.0000 C   0  0  0  0  0  0  0  0  0
  1  2  1  0  0  0  0
  2  3  4  0  0  0  0
  2  6  4  0  0  0  0
  3  4  4  0  0  0  0
  4  5  4  0  0  0  0
  4  7  1  0  0  0  0
  5  6  4  0  0  0  0
  7  8  1  0  0  0  0
  8  9  1  0  0  0  0
  8 13  1  0  0  0  0
  9 10  1  0  0  0  0
 10 11  1  0  0  0  0
 11 12  1  0  0  0  0
 11 14  1  0  0  0  0
 12 13  1  0  0  0  0
 14 15  4  0  0  0  0
 14 19  4  0  0  0  0
 15 16  4  0  0  0  0
 16 17  4  0  0  0  0
 17 18  4  0  0  0  0
 18 19  4  0  0  0  0
 19 20  1  0  0  0  0
 20 21  1  0  0  0  0
M  END
>  <Name_Molregno>
107193

>  <Alpha-1A>
6.89

>  <Alpha-1B>
6.12

$$$$
107194
  Marvin  02231216192D 0   1.00000     0.00000     0

 22 24  0  0  0  0  0  0  0  0999 V2000
   -1.6843    2.9406    0.0000 S   0  0  0  0  0  0  0  0  0
   -1.9392    2.1560    0.0000 C   0  0  0  0  0  0  0  0  0
   -2.7642    2.1560    0.0000 C   0  0  0  0  0  0  0  0  0
   -3.0192    2.9406    0.0000 C   0  0  0  0  0  0  0  0  0
   -2.3517    3.4256    0.0000 C   0  0  0  0  0  0  0  0  0
   -2.3517    4.2506    0.0000 C   0  0  0  0  0  0  0  0  0
   -3.0662    4.6631    0.0000 O   0  0  0  0  0  0  0  0  0
   -1.4543    1.4886    0.0000 C   0  0  0  0  0  0  0  0  0
   -1.7899    0.7349    0.0000 N   0  0  0  0  0  0  0  0  0
   -1.3049    0.0675    0.0000 C   0  0  0  0  0  0  0  0  0
   -1.6405   -0.6862    0.0000 C   0  0  0  0  0  0  0  0  0
   -2.4610   -0.7724    0.0000 N   0  0  0  0  0  0  0  0  0
   -2.9459   -0.1050    0.0000 C   0  0  0  0  0  0  0  0  0
   -2.6103    0.6487    0.0000 C   0  0  0  0  0  0  0  0  0
   -2.7965   -1.5261    0.0000 C   0  0  0  0  0  0  0  0  0
   -2.3116   -2.1936    0.0000 C   0  0  0  0  0  0  0  0  0
   -2.6472   -2.9472    0.0000 C   0  0  0  0  0  0  0  0  0
   -3.4676   -3.0335    0.0000 C   0  0  0  0  0  0  0  0  0
   -3.9526   -2.3660    0.0000 C   0  0  0  0  0  0  0  0  0
   -3.6170   -1.6124    0.0000 C   0  0  0  0  0  0  0  0  0
   -4.1019   -0.9449    0.0000 O   0  0  0  0  0  0  0  0  0
   -4.9224   -1.0311    0.0000 C   0  0  0  0  0  0  0  0  0
  1  2  4  0  0  0  0
  1  5  4  0  0  0  0
  2  3  4  0  0  0  0
  2  8  1  0  0  0  0
  3  4  4  0  0  0  0
  4  5  4  0  0  0  0
  5  6  1  0  0  0  0
  6  7  2  0  0  0  0
  8  9  1  0  0  0  0
  9 10  1  0  0  0  0
  9 14  1  0  0  0  0
 10 11  1  0  0  0  0
 11 12  1  0  0  0  0
 12 13  1  0  0  0  0
 12 15  1  0  0  0  0
 13 14  1  0  0  0  0
 15 16  4  0  0  0  0
 15 20  4  0  0  0  0
 16 17  4  0  0  0  0
 17 18  4  0  0  0  0
 18 19  4  0  0  0  0
 19 20  4  0  0  0  0
 20 21  1  0  0  0  0
 21 22  1  0  0  0  0
M  END
>  <Name_Molregno>
107194

>  <Alpha-1A>
6.24

>  <Alpha-1B>
5.73

$$$$
107195
  Marvin  02231216192D 0   1.00000     0.00000     0

 30 33  0  0  0  0  0  0  0  0999 V2000
    3.6514   -0.3824    0.0000 S   0  0  0  0  0  0  0  0  0
    3.3964   -1.1670    0.0000 C   0  0  0  0  0  0  0  0  0
    2.5714   -1.1670    0.0000 C   0  0  0  0  0  0  0  0  0
    2.3165   -0.3824    0.0000 C   0  0  0  0  0  0  0  0  0
    2.9839    0.1026    0.0000 C   0  0  0  0  0  0  0  0  0
    2.9839    0.9276    0.0000 C   0  0  0  0  0  0  0  0  0
    2.2695    1.3401    0.0000 N   0  0  0  0  0  0  0  0  0
    1.5550    0.9276    0.0000 C   0  0  0  0  0  0  0  0  0
    0.8405    1.3401    0.0000 C   0  0  0  0  0  0  0  0  0
    0.8405    2.1651    0.0000 N   0  0  0  0  0  0  0  0  0
    1.5550    2.5776    0.0000 C   0  0  0  0  0  0  0  0  0
    2.2695    2.1651    0.0000 C   0  0  0  0  0  0  0  0  0
    0.1260    2.5776    0.0000 C   0  0  0  0  0  0  0  0  0
   -0.5884    2.1651    0.0000 C   0  0  0  0  0  0  0  0  0
   -1.3029    2.5776    0.0000 C   0  0  0  0  0  0  0  0  0
   -1.3029    3.4026    0.0000 C   0  0  0  0  0  0  0  0  0
   -0.5884    3.8151    0.0000 C   0  0  0  0  0  0  0  0  0
    0.1260    3.4026    0.0000 C   0  0  0  0  0  0  0  0  0
    0.8405    3.8151    0.0000 O   0  0  0  0  0  0  0  0  0
    0.8405    4.6401    0.0000 C   0  0  0  0  0  0  0  0  0
    1.5550    5.0526    0.0000 C   0  0  0  0  0  0  0  0  0
    0.1260    5.0526    0.0000 C   0  0  0  0  0  0  0  0  0
    3.8813   -1.8344    0.0000 C   0  0  0  0  0  0  0  0  0
    3.5458   -2.5881    0.0000 N   0  0  0  0  0  0  0  0  0
    4.0307   -3.2555    0.0000 C   0  0  0  0  0  0  0  0  0
    3.6952   -4.0092    0.0000 C   0  0  0  0  0  0  0  0  0
    2.8747   -4.0954    0.0000 C   0  0  0  0  0  0  0  0  0
    2.3898   -3.4280    0.0000 C   0  0  0  0  0  0  0  0  0
    2.7253   -2.6743    0.0000 C   0  0  0  0  0  0  0  0  0
    2.2404   -2.0069    0.0000 O   0  0  0  0  0  0  0  0  0
  1  2  4  0  0  0  0
  1  5  4  0  0  0  0
  2  3  4  0  0  0  0
  2 23  1  0  0  0  0
  3  4  4  0  0  0  0
  4  5  4  0  0  0  0
  5  6  1  0  0  0  0
  6  7  1  0  0  0  0
  7  8  1  0  0  0  0
  7 12  1  0  0  0  0
  8  9  1  0  0  0  0
  9 10  1  0  0  0  0
 10 11  1  0  0  0  0
 10 13  1  0  0  0  0
 11 12  1  0  0  0  0
 13 14  4  0  0  0  0
 13 18  4  0  0  0  0
 14 15  4  0  0  0  0
 15 16  4  0  0  0  0
 16 17  4  0  0  0  0
 17 18  4  0  0  0  0
 18 19  1  0  0  0  0
 19 20  1  0  0  0  0
 20 21  1  0  0  0  0
 20 22  1  0  0  0  0
 23 24  1  0  0  0  0
 24 25  1  0  0  0  0
 24 29  1  0  0  0  0
 25 26  1  0  0  0  0
 26 27  1  0  0  0  0
 27 28  1  0  0  0  0
 28 29  1  0  0  0  0
 29 30  2  0  0  0  0
M  END
>  <Name_Molregno>
107195

>  <Alpha-1A>
9.52

>  <Alpha-1B>
6.38

$$$$
107406
  Marvin  02231216192D 0   1.00000     0.00000     0

 30 33  0  0  0  0  0  0  0  0999 V2000
    0.8565   -1.6441    0.0000 S   0  0  0  0  0  0  0  0  0
    0.6015   -2.4288    0.0000 C   0  0  0  0  0  0  0  0  0
   -0.2235   -2.4288    0.0000 C   0  0  0  0  0  0  0  0  0
   -0.4784   -1.6441    0.0000 C   0  0  0  0  0  0  0  0  0
    0.1890   -1.1592    0.0000 C   0  0  0  0  0  0  0  0  0
    0.1890   -0.3342    0.0000 C   0  0  0  0  0  0  0  0  0
    0.9035    0.0783    0.0000 N   0  0  0  0  0  0  0  0  0
    0.9035    0.9033    0.0000 C   0  0  0  0  0  0  0  0  0
    1.6180    1.3158    0.0000 C   0  0  0  0  0  0  0  0  0
    2.3324    0.9033    0.0000 N   0  0  0  0  0  0  0  0  0
    2.3324    0.0783    0.0000 C   0  0  0  0  0  0  0  0  0
    1.6180   -0.3342    0.0000 C   0  0  0  0  0  0  0  0  0
    3.0469    1.3158    0.0000 C   0  0  0  0  0  0  0  0  0
    3.0469    2.1408    0.0000 C   0  0  0  0  0  0  0  0  0
    3.7614    2.5533    0.0000 C   0  0  0  0  0  0  0  0  0
    4.4758    2.1408    0.0000 C   0  0  0  0  0  0  0  0  0
    4.4758    1.3158    0.0000 C   0  0  0  0  0  0  0  0  0
    3.7614    0.9033    0.0000 C   0  0  0  0  0  0  0  0  0
    3.7614    0.0783    0.0000 O   0  0  0  0  0  0  0  0  0
    4.4758   -0.3342    0.0000 C   0  0  0  0  0  0  0  0  0
    4.4758   -1.1592    0.0000 C   0  0  0  0  0  0  0  0  0
    5.1903    0.0783    0.0000 C   0  0  0  0  0  0  0  0  0
   -0.7084   -3.0962    0.0000 C   0  0  0  0  0  0  0  0  0
   -1.5289   -3.0100    0.0000 N   0  0  0  0  0  0  0  0  0
   -2.0138   -3.6774    0.0000 C   0  0  0  0  0  0  0  0  0
   -2.8343   -3.5912    0.0000 C   0  0  0  0  0  0  0  0  0
   -3.1698   -2.8375    0.0000 C   0  0  0  0  0  0  0  0  0
   -2.6849   -2.1700    0.0000 C   0  0  0  0  0  0  0  0  0
   -1.8644   -2.2563    0.0000 C   0  0  0  0  0  0  0  0  0
   -1.3795   -1.5888    0.0000 O   0  0  0  0  0  0  0  0  0
  1  2  4  0  0  0  0
  1  5  4  0  0  0  0
  2  3  4  0  0  0  0
  3  4  4  0  0  0  0
  3 23  1  0  0  0  0
  4  5  4  0  0  0  0
  5  6  1  0  0  0  0
  6  7  1  0  0  0  0
  7  8  1  0  0  0  0
  7 12  1  0  0  0  0
  8  9  1  0  0  0  0
  9 10  1  0  0  0  0
 10 11  1  0  0  0  0
 10 13  1  0  0  0  0
 11 12  1  0  0  0  0
 13 14  4  0  0  0  0
 13 18  4  0  0  0  0
 14 15  4  0  0  0  0
 15 16  4  0  0  0  0
 16 17  4  0  0  0  0
 17 18  4  0  0  0  0
 18 19  1  0  0  0  0
 19 20  1  0  0  0  0
 20 21  1  0  0  0  0
 20 22  1  0  0  0  0
 23 24  1  0  0  0  0
 24 25  1  0  0  0  0
 24 29  1  0  0  0  0
 25 26  1  0  0  0  0
 26 27  1  0  0  0  0
 27 28  1  0  0  0  0
 28 29  1  0  0  0  0
 29 30  2  0  0  0  0
M  END
>  <Name_Molregno>
107406

>  <Alpha-1A>
9.3

>  <Alpha-1B>
6.42

$$$$
107478
  Marvin  02231216192D 0   1.00000     0.00000     0

 29 32  0  0  0  0  0  0  0  0999 V2000
    0.8578   -1.6617    0.0000 S   0  0  0  0  0  0  0  0  0
    0.6029   -2.4464    0.0000 C   0  0  0  0  0  0  0  0  0
   -0.2221   -2.4464    0.0000 C   0  0  0  0  0  0  0  0  0
   -0.4771   -1.6617    0.0000 C   0  0  0  0  0  0  0  0  0
    0.1904   -1.1768    0.0000 C   0  0  0  0  0  0  0  0  0
    0.1904   -0.3518    0.0000 C   0  0  0  0  0  0  0  0  0
    0.9048    0.0607    0.0000 N   0  0  0  0  0  0  0  0  0
    0.9048    0.8857    0.0000 C   0  0  0  0  0  0  0  0  0
    1.6193    1.2982    0.0000 C   0  0  0  0  0  0  0  0  0
    2.3338    0.8857    0.0000 N   0  0  0  0  0  0  0  0  0
    2.3338    0.0607    0.0000 C   0  0  0  0  0  0  0  0  0
    1.6193   -0.3518    0.0000 C   0  0  0  0  0  0  0  0  0
    3.0482    1.2982    0.0000 C   0  0  0  0  0  0  0  0  0
    3.0482    2.1232    0.0000 C   0  0  0  0  0  0  0  0  0
    3.7627    2.5357    0.0000 C   0  0  0  0  0  0  0  0  0
    4.4772    2.1232    0.0000 C   0  0  0  0  0  0  0  0  0
    4.4772    1.2982    0.0000 C   0  0  0  0  0  0  0  0  0
    3.7627    0.8857    0.0000 C   0  0  0  0  0  0  0  0  0
    3.7627    0.0607    0.0000 O   0  0  0  0  0  0  0  0  0
    4.4772   -0.3518    0.0000 C   0  0  0  0  0  0  0  0  0
    4.4772   -1.1768    0.0000 C   0  0  0  0  0  0  0  0  0
    5.1917    0.0607    0.0000 C   0  0  0  0  0  0  0  0  0
   -0.7071   -3.1138    0.0000 C   0  0  0  0  0  0  0  0  0
   -1.5275   -3.0276    0.0000 N   0  0  0  0  0  0  0  0  0
   -2.0796   -3.6407    0.0000 C   0  0  0  0  0  0  0  0  0
   -2.8333   -3.3051    0.0000 C   0  0  0  0  0  0  0  0  0
   -2.7470   -2.4846    0.0000 C   0  0  0  0  0  0  0  0  0
   -1.9400   -2.3131    0.0000 C   0  0  0  0  0  0  0  0  0
   -1.6045   -1.5594    0.0000 O   0  0  0  0  0  0  0  0  0
  1  2  4  0  0  0  0
  1  5  4  0  0  0  0
  2  3  4  0  0  0  0
  3  4  4  0  0  0  0
  3 23  1  0  0  0  0
  4  5  4  0  0  0  0
  5  6  1  0  0  0  0
  6  7  1  0  0  0  0
  7  8  1  0  0  0  0
  7 12  1  0  0  0  0
  8  9  1  0  0  0  0
  9 10  1  0  0  0  0
 10 11  1  0  0  0  0
 10 13  1  0  0  0  0
 11 12  1  0  0  0  0
 13 14  4  0  0  0  0
 13 18  4  0  0  0  0
 14 15  4  0  0  0  0
 15 16  4  0  0  0  0
 16 17  4  0  0  0  0
 17 18  4  0  0  0  0
 18 19  1  0  0  0  0
 19 20  1  0  0  0  0
 20 21  1  0  0  0  0
 20 22  1  0  0  0  0
 23 24  1  0  0  0  0
 24 25  1  0  0  0  0
 24 28  1  0  0  0  0
 25 26  1  0  0  0  0
 26 27  1  0  0  0  0
 27 28  1  0  0  0  0
 28 29  2  0  0  0  0
M  END
>  <Name_Molregno>
107478

>  <Alpha-1A>
9.7

>  <Alpha-1B>
6.59

$$$$
107479
  Marvin  02231216192D 0   1.00000     0.00000     0

 31 34  0  0  0  0  0  0  0  0999 V2000
    0.8612   -1.6400    0.0000 S   0  0  0  0  0  0  0  0  0
    0.6063   -2.4246    0.0000 C   0  0  0  0  0  0  0  0  0
   -0.2187   -2.4246    0.0000 C   0  0  0  0  0  0  0  0  0
   -0.4737   -1.6400    0.0000 C   0  0  0  0  0  0  0  0  0
    0.1938   -1.1550    0.0000 C   0  0  0  0  0  0  0  0  0
    0.1938   -0.3300    0.0000 C   0  0  0  0  0  0  0  0  0
    0.9082    0.0825    0.0000 N   0  0  0  0  0  0  0  0  0
    0.9082    0.9075    0.0000 C   0  0  0  0  0  0  0  0  0
    1.6227    1.3200    0.0000 C   0  0  0  0  0  0  0  0  0
    2.3372    0.9075    0.0000 N   0  0  0  0  0  0  0  0  0
    2.3372    0.0825    0.0000 C   0  0  0  0  0  0  0  0  0
    1.6227   -0.3300    0.0000 C   0  0  0  0  0  0  0  0  0
    3.0516    1.3200    0.0000 C   0  0  0  0  0  0  0  0  0
    3.0516    2.1450    0.0000 C   0  0  0  0  0  0  0  0  0
    3.7661    2.5575    0.0000 C   0  0  0  0  0  0  0  0  0
    4.4806    2.1450    0.0000 C   0  0  0  0  0  0  0  0  0
    4.4806    1.3200    0.0000 C   0  0  0  0  0  0  0  0  0
    3.7661    0.9075    0.0000 C   0  0  0  0  0  0  0  0  0
    3.7661    0.0825    0.0000 O   0  0  0  0  0  0  0  0  0
    4.4806   -0.3300    0.0000 C   0  0  0  0  0  0  0  0  0
    4.4806   -1.1550    0.0000 C   0  0  0  0  0  0  0  0  0
    5.1950    0.0825    0.0000 C   0  0  0  0  0  0  0  0  0
   -0.7037   -3.0920    0.0000 C   0  0  0  0  0  0  0  0  0
   -1.5242   -3.0058    0.0000 N   0  0  0  0  0  0  0  0  0
   -1.9578   -3.7076    0.0000 C   0  0  0  0  0  0  0  0  0
   -2.7769   -3.8061    0.0000 C   0  0  0  0  0  0  0  0  0
   -3.3647   -3.2271    0.0000 C   0  0  0  0  0  0  0  0  0
   -3.2784   -2.4066    0.0000 C   0  0  0  0  0  0  0  0  0
   -2.5832   -1.9625    0.0000 C   0  0  0  0  0  0  0  0  0
   -1.8024   -2.2291    0.0000 C   0  0  0  0  0  0  0  0  0
   -1.2235   -1.6414    0.0000 O   0  0  0  0  0  0  0  0  0
  1  2  4  0  0  0  0
  1  5  4  0  0  0  0
  2  3  4  0  0  0  0
  3  4  4  0  0  0  0
  3 23  1  0  0  0  0
  4  5  4  0  0  0  0
  5  6  1  0  0  0  0
  6  7  1  0  0  0  0
  7  8  1  0  0  0  0
  7 12  1  0  0  0  0
  8  9  1  0  0  0  0
  9 10  1  0  0  0  0
 10 11  1  0  0  0  0
 10 13  1  0  0  0  0
 11 12  1  0  0  0  0
 13 14  4  0  0  0  0
 13 18  4  0  0  0  0
 14 15  4  0  0  0  0
 15 16  4  0  0  0  0
 16 17  4  0  0  0  0
 17 18  4  0  0  0  0
 18 19  1  0  0  0  0
 19 20  1  0  0  0  0
 20 21  1  0  0  0  0
 20 22  1  0  0  0  0
 23 24  1  0  0  0  0
 24 25  1  0  0  0  0
 24 30  1  0  0  0  0
 25 26  1  0  0  0  0
 26 27  1  0  0  0  0
 27 28  1  0  0  0  0
 28 29  1  0  0  0  0
 29 30  1  0  0  0  0
 30 31  2  0  0  0  0
M  END
>  <Name_Molregno>
107479

>  <Alpha-1A>
8.74

>  <Alpha-1B>
6.21

$$$$
107601
  Marvin  02231216192D 0   1.00000     0.00000     0

 28 31  0  0  1  0  0  0  0  0999 V2000
    3.2978   -1.8990    0.0000 S   0  0  0  0  0  0  0  0  0
    3.0429   -2.6836    0.0000 C   0  0  0  0  0  0  0  0  0
    2.2179   -2.6836    0.0000 C   0  0  0  0  0  0  0  0  0
    1.9630   -1.8990    0.0000 C   0  0  0  0  0  0  0  0  0
    2.6304   -1.4141    0.0000 C   0  0  0  0  0  0  0  0  0
    2.6304   -0.5891    0.0000 C   0  0  0  0  0  0  0  0  0
    1.9159   -0.1766    0.0000 N   0  0  0  0  0  0  0  0  0
    1.2015   -0.5891    0.0000 C   0  0  0  0  0  0  0  0  0
    0.4870   -0.1766    0.0000 C   0  0  0  0  0  0  0  0  0
    0.4870    0.6484    0.0000 N   0  0  0  0  0  0  0  0  0
    1.2015    1.0609    0.0000 C   0  0  0  0  0  0  0  0  0
    1.9159    0.6484    0.0000 C   0  0  0  0  0  0  0  0  0
   -0.2275    1.0609    0.0000 C   0  0  0  0  0  0  0  0  0
   -0.9419    0.6484    0.0000 C   0  0  0  0  0  0  0  0  0
   -1.6564    1.0609    0.0000 C   0  0  0  0  0  0  0  0  0
   -1.6564    1.8859    0.0000 C   0  0  0  0  0  0  0  0  0
   -0.9419    2.2984    0.0000 C   0  0  0  0  0  0  0  0  0
   -0.2275    1.8859    0.0000 C   0  0  0  0  0  0  0  0  0
    0.4870    2.2984    0.0000 O   0  0  0  0  0  0  0  0  0
    0.4870    3.1234    0.0000 C   0  0  0  0  0  0  0  0  0
    3.5278   -3.3510    0.0000 C   0  0  0  0  0  0  0  0  0
    3.1923   -4.1047    0.0000 N   0  0  0  0  0  0  0  0  0
    3.6772   -4.7722    0.0000 C   0  0  0  0  0  0  0  0  0
    3.3416   -5.5258    0.0000 C   0  0  0  0  0  0  0  0  0
    2.5212   -5.6121    0.0000 C   0  0  0  0  0  0  0  0  0
    2.0362   -4.9446    0.0000 C   0  0  0  0  0  0  0  0  0
    2.3718   -4.1910    0.0000 C   0  0  0  0  0  0  0  0  0
    1.8869   -3.5235    0.0000 O   0  0  0  0  0  0  0  0  0
  1  2  4  0  0  0  0
  1  5  4  0  0  0  0
  2  3  4  0  0  0  0
  2 21  1  0  0  0  0
  3  4  4  0  0  0  0
  4  5  4  0  0  0  0
  5  6  1  0  0  0  0
  6  7  1  0  0  0  0
  7  8  1  0  0  0  0
  7 12  1  0  0  0  0
  8  9  1  0  0  0  0
  9 10  1  0  0  0  0
 10 11  1  0  0  0  0
 10 13  1  0  0  0  0
 11 12  1  0  0  0  0
 13 14  4  0  0  0  0
 13 18  4  0  0  0  0
 14 15  4  0  0  0  0
 15 16  4  0  0  0  0
 16 17  4  0  0  0  0
 17 18  4  0  0  0  0
 18 19  1  0  0  0  0
 19 20  1  0  0  0  0
 21 22  1  0  0  0  0
 22 23  1  0  0  0  0
 22 27  1  0  0  0  0
 23 24  1  0  0  0  0
 24 25  1  0  0  0  0
 25 26  1  0  0  0  0
 26 27  1  0  0  0  0
 27 28  1  0  0  0  0
M  END
>  <Name_Molregno>
107601

>  <Alpha-1A>
6.38

>  <Alpha-1B>
5.59

$$$$
107928
  Marvin  02231216192D 0   1.00000     0.00000     0

 27 30  0  0  0  0  0  0  0  0999 V2000
    3.8181   -1.0941    0.0000 S   0  0  0  0  0  0  0  0  0
    3.5632   -1.8787    0.0000 C   0  0  0  0  0  0  0  0  0
    2.7382   -1.8787    0.0000 C   0  0  0  0  0  0  0  0  0
    2.4833   -1.0941    0.0000 C   0  0  0  0  0  0  0  0  0
    3.1507   -0.6092    0.0000 C   0  0  0  0  0  0  0  0  0
    3.1507    0.2158    0.0000 C   0  0  0  0  0  0  0  0  0
    2.4362    0.6283    0.0000 N   0  0  0  0  0  0  0  0  0
    1.7218    0.2158    0.0000 C   0  0  0  0  0  0  0  0  0
    1.0073    0.6283    0.0000 C   0  0  0  0  0  0  0  0  0
    1.0073    1.4533    0.0000 N   0  0  0  0  0  0  0  0  0
    1.7218    1.8658    0.0000 C   0  0  0  0  0  0  0  0  0
    2.4362    1.4533    0.0000 C   0  0  0  0  0  0  0  0  0
    0.2928    1.8658    0.0000 C   0  0  0  0  0  0  0  0  0
   -0.4217    1.4533    0.0000 C   0  0  0  0  0  0  0  0  0
   -1.1361    1.8658    0.0000 C   0  0  0  0  0  0  0  0  0
   -1.1361    2.6908    0.0000 C   0  0  0  0  0  0  0  0  0
   -0.4217    3.1033    0.0000 C   0  0  0  0  0  0  0  0  0
    0.2928    2.6908    0.0000 C   0  0  0  0  0  0  0  0  0
    1.0073    3.1033    0.0000 O   0  0  0  0  0  0  0  0  0
    1.0073    3.9283    0.0000 C   0  0  0  0  0  0  0  0  0
    4.0481   -2.5462    0.0000 C   0  0  0  0  0  0  0  0  0
    3.7126   -3.2998    0.0000 N   0  0  0  0  0  0  0  0  0
    4.1251   -4.0143    0.0000 C   0  0  0  0  0  0  0  0  0
    3.5730   -4.6274    0.0000 C   0  0  0  0  0  0  0  0  0
    2.8194   -4.2918    0.0000 C   0  0  0  0  0  0  0  0  0
    2.9056   -3.4714    0.0000 C   0  0  0  0  0  0  0  0  0
    2.2925   -2.9193    0.0000 O   0  0  0  0  0  0  0  0  0
  1  2  4  0  0  0  0
  1  5  4  0  0  0  0
  2  3  4  0  0  0  0
  2 21  1  0  0  0  0
  3  4  4  0  0  0  0
  4  5  4  0  0  0  0
  5  6  1  0  0  0  0
  6  7  1  0  0  0  0
  7  8  1  0  0  0  0
  7 12  1  0  0  0  0
  8  9  1  0  0  0  0
  9 10  1  0  0  0  0
 10 11  1  0  0  0  0
 10 13  1  0  0  0  0
 11 12  1  0  0  0  0
 13 14  4  0  0  0  0
 13 18  4  0  0  0  0
 14 15  4  0  0  0  0
 15 16  4  0  0  0  0
 16 17  4  0  0  0  0
 17 18  4  0  0  0  0
 18 19  1  0  0  0  0
 19 20  1  0  0  0  0
 21 22  1  0  0  0  0
 22 23  1  0  0  0  0
 22 26  1  0  0  0  0
 23 24  1  0  0  0  0
 24 25  1  0  0  0  0
 25 26  1  0  0  0  0
 26 27  2  0  0  0  0
M  END
>  <Name_Molregno>
107928

>  <Alpha-1A>
7.4

>  <Alpha-1B>
5.3

$$$$
108453
  Marvin  02231216192D 0   1.00000     0.00000     0

 22 24  0  0  0  0  0  0  0  0999 V2000
   -1.6843    2.9406    0.0000 S   0  0  0  0  0  0  0  0  0
   -1.9392    2.1560    0.0000 C   0  0  0  0  0  0  0  0  0
   -2.7642    2.1560    0.0000 C   0  0  0  0  0  0  0  0  0
   -3.0192    2.9406    0.0000 C   0  0  0  0  0  0  0  0  0
   -2.3517    3.4256    0.0000 C   0  0  0  0  0  0  0  0  0
   -2.3517    4.2506    0.0000 C   0  0  0  0  0  0  0  0  0
   -3.0662    4.6631    0.0000 O   0  0  0  0  0  0  0  0  0
   -1.4543    1.4886    0.0000 C   0  0  0  0  0  0  0  0  0
   -1.7899    0.7349    0.0000 N   0  0  0  0  0  0  0  0  0
   -1.3049    0.0675    0.0000 C   0  0  0  0  0  0  0  0  0
   -1.6405   -0.6862    0.0000 C   0  0  0  0  0  0  0  0  0
   -2.4610   -0.7724    0.0000 N   0  0  0  0  0  0  0  0  0
   -2.9459   -0.1050    0.0000 C   0  0  0  0  0  0  0  0  0
   -2.6103    0.6487    0.0000 C   0  0  0  0  0  0  0  0  0
   -2.7965   -1.5261    0.0000 C   0  0  0  0  0  0  0  0  0
   -2.3116   -2.1936    0.0000 C   0  0  0  0  0  0  0  0  0
   -2.6472   -2.9472    0.0000 C   0  0  0  0  0  0  0  0  0
   -3.4676   -3.0335    0.0000 C   0  0  0  0  0  0  0  0  0
   -3.9526   -2.3660    0.0000 C   0  0  0  0  0  0  0  0  0
   -3.6170   -1.6124    0.0000 C   0  0  0  0  0  0  0  0  0
   -4.1019   -0.9449    0.0000 O   0  0  0  0  0  0  0  0  0
   -4.9224   -1.0311    0.0000 C   0  0  0  0  0  0  0  0  0
  1  2  4  0  0  0  0
  1  5  4  0  0  0  0
  2  3  4  0  0  0  0
  2  8  1  0  0  0  0
  3  4  4  0  0  0  0
  4  5  4  0  0  0  0
  5  6  1  0  0  0  0
  6  7  1  0  0  0  0
  8  9  1  0  0  0  0
  9 10  1  0  0  0  0
  9 14  1  0  0  0  0
 10 11  1  0  0  0  0
 11 12  1  0  0  0  0
 12 13  1  0  0  0  0
 12 15  1  0  0  0  0
 13 14  1  0  0  0  0
 15 16  4  0  0  0  0
 15 20  4  0  0  0  0
 16 17  4  0  0  0  0
 17 18  4  0  0  0  0
 18 19  4  0  0  0  0
 19 20  4  0  0  0  0
 20 21  1  0  0  0  0
 21 22  1  0  0  0  0
M  END
>  <Name_Molregno>
108453

>  <Alpha-1A>
6.69

>  <Alpha-1B>
5.97

$$$$
114780
  Marvin  02231216192D 0   1.00000     0.00000     0

 21 24  0  0  1  0  0  0  0  0999 V2000
   -1.5970   -1.1544    0.0000 Br  0  0  0  0  0  0  0  0  0
   -2.4220   -1.1544    0.0000 C   0  0  0  0  0  0  0  0  0
   -2.8345   -1.8688    0.0000 C   0  0  0  0  0  0  0  0  0
   -2.4220   -2.5833    0.0000 N   0  0  0  0  0  0  0  0  0
   -2.8345   -3.2978    0.0000 C   0  0  0  0  0  0  0  0  0
   -3.6595   -3.2978    0.0000 C   0  0  0  0  0  0  0  0  0
   -4.0720   -2.5833    0.0000 N   0  0  0  0  0  0  0  0  0
   -3.6595   -1.8688    0.0000 C   0  0  0  0  0  0  0  0  0
   -4.0720   -1.1544    0.0000 C   0  0  0  0  0  0  0  0  0
   -3.6595   -0.4399    0.0000 C   0  0  0  0  0  0  0  0  0
   -2.8345   -0.4399    0.0000 C   0  0  0  0  0  0  0  0  0
   -2.4220    0.2746    0.0000 N   0  0  0  0  0  0  0  0  0
   -1.5970    0.2746    0.0000 C   0  0  0  0  0  0  0  0  0
   -1.1121   -0.3929    0.0000 N   0  0  0  0  0  0  0  0  0
   -0.3275   -0.1379    0.0000 C   0  0  0  0  0  0  0  0  0
   -0.3275    0.6871    0.0000 C   0  0  0  0  0  0  0  0  0
   -1.1121    0.9420    0.0000 N   0  0  0  0  0  0  0  0  0
    0.3870    1.0996    0.0000 C   0  0  0  0  0  0  0  0  0
    1.1014    0.6871    0.0000 C   0  0  0  0  0  0  0  0  0
    1.1014   -0.1379    0.0000 C   0  0  0  0  0  0  0  0  0
    0.3870   -0.5504    0.0000 C   0  0  0  0  0  0  0  0  0
  1  2  1  0  0  0  0
  2  3  4  0  0  0  0
  2 11  4  0  0  0  0
  3  4  4  0  0  0  0
  3  8  4  0  0  0  0
  4  5  4  0  0  0  0
  5  6  4  0  0  0  0
  6  7  4  0  0  0  0
  7  8  4  0  0  0  0
  8  9  4  0  0  0  0
  9 10  4  0  0  0  0
 10 11  4  0  0  0  0
 11 12  1  0  0  0  0
 12 13  1  0  0  0  0
 13 14  1  0  0  0  0
 13 17  2  0  0  0  0
 14 15  1  0  0  0  0
 15 16  1  0  0  0  0
 15 21  1  0  0  0  0
 16 17  1  0  0  0  0
 16 18  1  0  0  0  0
 18 19  1  0  0  0  0
 19 20  1  0  0  0  0
 20 21  1  0  0  0  0
M  END
>  <Name_Molregno>
114780

>  <Alpha-1A>
4.85

>  <Alpha-1B>
3.98

>  <Alpha-2A>
4.83

>  <Alpha-2B>
4.74

>  <Alpha-2C>
4.94

$$$$
114822
  Marvin  02231216192D 0   1.00000     0.00000     0

 18 20  0  0  0  0  0  0  0  0999 V2000
   -0.2200    0.1010    0.0000 Br  0  0  0  0  0  0  0  0  0
   -0.2200   -0.7240    0.0000 C   0  0  0  0  0  0  0  0  0
    0.4945   -1.1365    0.0000 C   0  0  0  0  0  0  0  0  0
    1.2089   -0.7240    0.0000 N   0  0  0  0  0  0  0  0  0
    1.9234   -1.1365    0.0000 C   0  0  0  0  0  0  0  0  0
    1.9234   -1.9615    0.0000 C   0  0  0  0  0  0  0  0  0
    1.2089   -2.3740    0.0000 N   0  0  0  0  0  0  0  0  0
    0.4945   -1.9615    0.0000 C   0  0  0  0  0  0  0  0  0
   -0.2200   -2.3740    0.0000 C   0  0  0  0  0  0  0  0  0
   -0.9345   -1.9615    0.0000 C   0  0  0  0  0  0  0  0  0
   -0.9345   -1.1365    0.0000 C   0  0  0  0  0  0  0  0  0
   -1.6490   -0.7240    0.0000 N   0  0  0  0  0  0  0  0  0
   -2.3634   -1.1365    0.0000 C   0  0  0  0  0  0  0  0  0
   -2.4497   -1.9570    0.0000 N   0  0  0  0  0  0  0  0  0
   -3.2566   -2.1285    0.0000 C   0  0  0  0  0  0  0  0  0
   -3.6691   -1.4140    0.0000 C   0  0  0  0  0  0  0  0  0
   -3.1171   -0.8009    0.0000 N   0  0  0  0  0  0  0  0  0
    2.6379   -2.3740    0.0000 C   0  0  0  0  0  0  0  0  0
  1  2  1  0  0  0  0
  2  3  4  0  0  0  0
  2 11  4  0  0  0  0
  3  4  4  0  0  0  0
  3  8  4  0  0  0  0
  4  5  4  0  0  0  0
  5  6  4  0  0  0  0
  6  7  4  0  0  0  0
  6 18  1  0  0  0  0
  7  8  4  0  0  0  0
  8  9  4  0  0  0  0
  9 10  4  0  0  0  0
 10 11  4  0  0  0  0
 11 12  1  0  0  0  0
 12 13  1  0  0  0  0
 13 14  1  0  0  0  0
 13 17  2  0  0  0  0
 14 15  1  0  0  0  0
 15 16  1  0  0  0  0
 16 17  1  0  0  0  0
M  END
>  <Name_Molregno>
114822

>  <Alpha-1A>
4

>  <Alpha-1B>
4

>  <Alpha-2A>
7.13

>  <Alpha-2B>
6.49

>  <Alpha-2C>
6.19

$$$$
115364
  Marvin  02231216192D 0   1.00000     0.00000     0

 17 19  0  0  0  0  0  0  0  0999 V2000
   -0.2386   -0.6719    0.0000 Br  0  0  0  0  0  0  0  0  0
   -0.2386   -1.4969    0.0000 C   0  0  0  0  0  0  0  0  0
    0.4759   -1.9094    0.0000 C   0  0  0  0  0  0  0  0  0
    1.1904   -1.4969    0.0000 N   0  0  0  0  0  0  0  0  0
    1.9048   -1.9094    0.0000 C   0  0  0  0  0  0  0  0  0
    1.9048   -2.7344    0.0000 C   0  0  0  0  0  0  0  0  0
    1.1904   -3.1469    0.0000 N   0  0  0  0  0  0  0  0  0
    0.4759   -2.7344    0.0000 C   0  0  0  0  0  0  0  0  0
   -0.2386   -3.1469    0.0000 C   0  0  0  0  0  0  0  0  0
   -0.9530   -2.7344    0.0000 C   0  0  0  0  0  0  0  0  0
   -0.9530   -1.9094    0.0000 C   0  0  0  0  0  0  0  0  0
   -1.6675   -1.4969    0.0000 N   0  0  0  0  0  0  0  0  0
   -1.6675   -0.6719    0.0000 C   0  0  0  0  0  0  0  0  0
   -2.3350   -0.1870    0.0000 N   0  0  0  0  0  0  0  0  0
   -2.0800    0.5976    0.0000 C   0  0  0  0  0  0  0  0  0
   -1.2550    0.5976    0.0000 C   0  0  0  0  0  0  0  0  0
   -1.0001   -0.1870    0.0000 N   0  0  0  0  0  0  0  0  0
  1  2  1  0  0  0  0
  2  3  4  0  0  0  0
  2 11  4  0  0  0  0
  3  4  4  0  0  0  0
  3  8  4  0  0  0  0
  4  5  4  0  0  0  0
  5  6  4  0  0  0  0
  6  7  4  0  0  0  0
  7  8  4  0  0  0  0
  8  9  4  0  0  0  0
  9 10  4  0  0  0  0
 10 11  4  0  0  0  0
 11 12  1  0  0  0  0
 12 13  1  0  0  0  0
 13 14  1  0  0  0  0
 13 17  2  0  0  0  0
 14 15  1  0  0  0  0
 15 16  1  0  0  0  0
 16 17  1  0  0  0  0
M  END
>  <Name_Molregno>
115364

>  <Alpha-1A>
5.74

>  <Alpha-1B>
5.52

>  <Alpha-2A>
7.9

>  <Alpha-2B>
6.93

>  <Alpha-2C>
6.71

$$$$
115365
  Marvin  02231216192D 0   1.00000     0.00000     0

 18 20  0  0  1  0  0  0  0  0999 V2000
    0.0660   -0.9243    0.0000 Br  0  0  0  0  0  0  0  0  0
    0.0660   -1.7493    0.0000 C   0  0  0  0  0  0  0  0  0
    0.7805   -2.1618    0.0000 C   0  0  0  0  0  0  0  0  0
    1.4950   -1.7493    0.0000 N   0  0  0  0  0  0  0  0  0
    2.2095   -2.1618    0.0000 C   0  0  0  0  0  0  0  0  0
    2.2095   -2.9868    0.0000 C   0  0  0  0  0  0  0  0  0
    1.4950   -3.3993    0.0000 N   0  0  0  0  0  0  0  0  0
    0.7805   -2.9868    0.0000 C   0  0  0  0  0  0  0  0  0
    0.0660   -3.3993    0.0000 C   0  0  0  0  0  0  0  0  0
   -0.6484   -2.9868    0.0000 C   0  0  0  0  0  0  0  0  0
   -0.6484   -2.1618    0.0000 C   0  0  0  0  0  0  0  0  0
   -1.3629   -1.7493    0.0000 N   0  0  0  0  0  0  0  0  0
   -1.3629   -0.9243    0.0000 C   0  0  0  0  0  0  0  0  0
   -2.0303   -0.4394    0.0000 N   0  0  0  0  0  0  0  0  0
   -1.7754    0.3452    0.0000 C   0  0  0  0  0  0  0  0  0
   -0.9504    0.3452    0.0000 C   0  0  0  0  0  0  0  0  0
   -0.6955   -0.4394    0.0000 N   0  0  0  0  0  0  0  0  0
   -2.2603    1.0126    0.0000 C   0  0  0  0  0  0  0  0  0
  1  2  1  0  0  0  0
  2  3  4  0  0  0  0
  2 11  4  0  0  0  0
  3  4  4  0  0  0  0
  3  8  4  0  0  0  0
  4  5  4  0  0  0  0
  5  6  4  0  0  0  0
  6  7  4  0  0  0  0
  7  8  4  0  0  0  0
  8  9  4  0  0  0  0
  9 10  4  0  0  0  0
 10 11  4  0  0  0  0
 11 12  1  0  0  0  0
 12 13  1  0  0  0  0
 13 14  1  0  0  0  0
 13 17  2  0  0  0  0
 14 15  1  0  0  0  0
 15 16  1  0  0  0  0
 15 18  1  0  0  0  0
 16 17  1  0  0  0  0
M  END
>  <Name_Molregno>
115365

>  <Alpha-1A>
4

>  <Alpha-1B>
4

>  <Alpha-2A>
5.42

>  <Alpha-2B>
5.49

>  <Alpha-2C>
6.19

$$$$
115370
  Marvin  02231216192D 0   1.00000     0.00000     0

 17 19  0  0  0  0  0  0  0  0999 V2000
   -0.2386   -0.6719    0.0000 Br  0  0  0  0  0  0  0  0  0
   -0.2386   -1.4969    0.0000 C   0  0  0  0  0  0  0  0  0
    0.4759   -1.9094    0.0000 C   0  0  0  0  0  0  0  0  0
    1.1904   -1.4969    0.0000 N   0  0  0  0  0  0  0  0  0
    1.9048   -1.9094    0.0000 C   0  0  0  0  0  0  0  0  0
    1.9048   -2.7344    0.0000 C   0  0  0  0  0  0  0  0  0
    1.1904   -3.1469    0.0000 N   0  0  0  0  0  0  0  0  0
    0.4759   -2.7344    0.0000 C   0  0  0  0  0  0  0  0  0
   -0.2386   -3.1469    0.0000 C   0  0  0  0  0  0  0  0  0
   -0.9530   -2.7344    0.0000 C   0  0  0  0  0  0  0  0  0
   -0.9530   -1.9094    0.0000 C   0  0  0  0  0  0  0  0  0
   -1.6675   -1.4969    0.0000 N   0  0  0  0  0  0  0  0  0
   -1.6675   -0.6719    0.0000 C   0  0  0  0  0  0  0  0  0
   -2.3350   -0.1870    0.0000 S   0  0  0  0  0  0  0  0  0
   -2.0800    0.5976    0.0000 C   0  0  0  0  0  0  0  0  0
   -1.2550    0.5976    0.0000 C   0  0  0  0  0  0  0  0  0
   -1.0001   -0.1870    0.0000 N   0  0  0  0  0  0  0  0  0
  1  2  1  0  0  0  0
  2  3  4  0  0  0  0
  2 11  4  0  0  0  0
  3  4  4  0  0  0  0
  3  8  4  0  0  0  0
  4  5  4  0  0  0  0
  5  6  4  0  0  0  0
  6  7  4  0  0  0  0
  7  8  4  0  0  0  0
  8  9  4  0  0  0  0
  9 10  4  0  0  0  0
 10 11  4  0  0  0  0
 11 12  1  0  0  0  0
 12 13  1  0  0  0  0
 13 14  1  0  0  0  0
 13 17  2  0  0  0  0
 14 15  1  0  0  0  0
 15 16  1  0  0  0  0
 16 17  1  0  0  0  0
M  END
>  <Name_Molregno>
115370

>  <Alpha-1A>
4.67

>  <Alpha-1B>
4.22

>  <Alpha-2A>
4.99

>  <Alpha-2B>
4.76

>  <Alpha-2C>
4.55

$$$$
115505
  Marvin  02231216192D 0   1.00000     0.00000     0

 17 19  0  0  0  0  0  0  0  0999 V2000
   -0.2386   -0.6719    0.0000 I   0  0  0  0  0  0  0  0  0
   -0.2386   -1.4969    0.0000 C   0  0  0  0  0  0  0  0  0
    0.4759   -1.9094    0.0000 C   0  0  0  0  0  0  0  0  0
    1.1904   -1.4969    0.0000 N   0  0  0  0  0  0  0  0  0
    1.9048   -1.9094    0.0000 C   0  0  0  0  0  0  0  0  0
    1.9048   -2.7344    0.0000 C   0  0  0  0  0  0  0  0  0
    1.1904   -3.1469    0.0000 N   0  0  0  0  0  0  0  0  0
    0.4759   -2.7344    0.0000 C   0  0  0  0  0  0  0  0  0
   -0.2386   -3.1469    0.0000 C   0  0  0  0  0  0  0  0  0
   -0.9530   -2.7344    0.0000 C   0  0  0  0  0  0  0  0  0
   -0.9530   -1.9094    0.0000 C   0  0  0  0  0  0  0  0  0
   -1.6675   -1.4969    0.0000 N   0  0  0  0  0  0  0  0  0
   -1.6675   -0.6719    0.0000 C   0  0  0  0  0  0  0  0  0
   -2.3350   -0.1870    0.0000 N   0  0  0  0  0  0  0  0  0
   -2.0800    0.5976    0.0000 C   0  0  0  0  0  0  0  0  0
   -1.2550    0.5976    0.0000 C   0  0  0  0  0  0  0  0  0
   -1.0001   -0.1870    0.0000 N   0  0  0  0  0  0  0  0  0
  1  2  1  0  0  0  0
  2  3  4  0  0  0  0
  2 11  4  0  0  0  0
  3  4  4  0  0  0  0
  3  8  4  0  0  0  0
  4  5  4  0  0  0  0
  5  6  4  0  0  0  0
  6  7  4  0  0  0  0
  7  8  4  0  0  0  0
  8  9  4  0  0  0  0
  9 10  4  0  0  0  0
 10 11  4  0  0  0  0
 11 12  1  0  0  0  0
 12 13  1  0  0  0  0
 13 14  1  0  0  0  0
 13 17  2  0  0  0  0
 14 15  1  0  0  0  0
 15 16  1  0  0  0  0
 16 17  1  0  0  0  0
M  END
>  <Name_Molregno>
115505

>  <Alpha-1A>
6.01

>  <Alpha-1B>
5.72

>  <Alpha-2A>
8.17

>  <Alpha-2B>
7.37

>  <Alpha-2C>
6.39

$$$$
115579
  Marvin  02231216192D 0   1.00000     0.00000     0

 17 19  0  0  0  0  0  0  0  0999 V2000
   -0.2386   -0.6719    0.0000 Cl  0  0  0  0  0  0  0  0  0
   -0.2386   -1.4969    0.0000 C   0  0  0  0  0  0  0  0  0
    0.4759   -1.9094    0.0000 C   0  0  0  0  0  0  0  0  0
    1.1904   -1.4969    0.0000 N   0  0  0  0  0  0  0  0  0
    1.9048   -1.9094    0.0000 C   0  0  0  0  0  0  0  0  0
    1.9048   -2.7344    0.0000 C   0  0  0  0  0  0  0  0  0
    1.1904   -3.1469    0.0000 N   0  0  0  0  0  0  0  0  0
    0.4759   -2.7344    0.0000 C   0  0  0  0  0  0  0  0  0
   -0.2386   -3.1469    0.0000 C   0  0  0  0  0  0  0  0  0
   -0.9530   -2.7344    0.0000 C   0  0  0  0  0  0  0  0  0
   -0.9530   -1.9094    0.0000 C   0  0  0  0  0  0  0  0  0
   -1.6675   -1.4969    0.0000 N   0  0  0  0  0  0  0  0  0
   -1.6675   -0.6719    0.0000 C   0  0  0  0  0  0  0  0  0
   -2.3350   -0.1870    0.0000 N   0  0  0  0  0  0  0  0  0
   -2.0800    0.5976    0.0000 C   0  0  0  0  0  0  0  0  0
   -1.2550    0.5976    0.0000 C   0  0  0  0  0  0  0  0  0
   -1.0001   -0.1870    0.0000 N   0  0  0  0  0  0  0  0  0
  1  2  1  0  0  0  0
  2  3  4  0  0  0  0
  2 11  4  0  0  0  0
  3  4  4  0  0  0  0
  3  8  4  0  0  0  0
  4  5  4  0  0  0  0
  5  6  4  0  0  0  0
  6  7  4  0  0  0  0
  7  8  4  0  0  0  0
  8  9  4  0  0  0  0
  9 10  4  0  0  0  0
 10 11  4  0  0  0  0
 11 12  1  0  0  0  0
 12 13  1  0  0  0  0
 13 14  1  0  0  0  0
 13 17  2  0  0  0  0
 14 15  1  0  0  0  0
 15 16  1  0  0  0  0
 16 17  1  0  0  0  0
M  END
>  <Name_Molregno>
115579

>  <Alpha-1A>
5.29

>  <Alpha-1B>
4.98

>  <Alpha-2A>
7.43

>  <Alpha-2B>
7.16

>  <Alpha-2C>
6.71

$$$$
115674
  Marvin  02231216192D 0   1.00000     0.00000     0

 17 19  0  0  0  0  0  0  0  0999 V2000
   -0.2386   -0.6719    0.0000 Br  0  0  0  0  0  0  0  0  0
   -0.2386   -1.4969    0.0000 C   0  0  0  0  0  0  0  0  0
    0.4759   -1.9094    0.0000 C   0  0  0  0  0  0  0  0  0
    1.1904   -1.4969    0.0000 N   0  0  0  0  0  0  0  0  0
    1.9048   -1.9094    0.0000 C   0  0  0  0  0  0  0  0  0
    1.9048   -2.7344    0.0000 C   0  0  0  0  0  0  0  0  0
    1.1904   -3.1469    0.0000 N   0  0  0  0  0  0  0  0  0
    0.4759   -2.7344    0.0000 C   0  0  0  0  0  0  0  0  0
   -0.2386   -3.1469    0.0000 C   0  0  0  0  0  0  0  0  0
   -0.9530   -2.7344    0.0000 C   0  0  0  0  0  0  0  0  0
   -0.9530   -1.9094    0.0000 C   0  0  0  0  0  0  0  0  0
   -1.6675   -1.4969    0.0000 N   0  0  0  0  0  0  0  0  0
   -1.6675   -0.6719    0.0000 C   0  0  0  0  0  0  0  0  0
   -2.3350   -0.1870    0.0000 O   0  0  0  0  0  0  0  0  0
   -2.0800    0.5976    0.0000 C   0  0  0  0  0  0  0  0  0
   -1.2550    0.5976    0.0000 C   0  0  0  0  0  0  0  0  0
   -1.0001   -0.1870    0.0000 N   0  0  0  0  0  0  0  0  0
  1  2  1  0  0  0  0
  2  3  4  0  0  0  0
  2 11  4  0  0  0  0
  3  4  4  0  0  0  0
  3  8  4  0  0  0  0
  4  5  4  0  0  0  0
  5  6  4  0  0  0  0
  6  7  4  0  0  0  0
  7  8  4  0  0  0  0
  8  9  4  0  0  0  0
  9 10  4  0  0  0  0
 10 11  4  0  0  0  0
 11 12  1  0  0  0  0
 12 13  1  0  0  0  0
 13 14  1  0  0  0  0
 13 17  2  0  0  0  0
 14 15  1  0  0  0  0
 15 16  1  0  0  0  0
 16 17  1  0  0  0  0
M  END
>  <Name_Molregno>
115674

>  <Alpha-1A>
4.04

>  <Alpha-1B>
3.85

>  <Alpha-2A>
4.58

>  <Alpha-2B>
4.07

>  <Alpha-2C>
4.31

$$$$
118306
  Marvin  02231216192D 0   1.00000     0.00000     0

 17 19  0  0  0  0  0  0  0  0999 V2000
    1.6725   -1.9116    0.0000 N   0  0  0  0  0  0  0  0  0
    1.4175   -2.6962    0.0000 C   0  0  0  0  0  0  0  0  0
    0.5925   -2.6962    0.0000 C   0  0  0  0  0  0  0  0  0
    0.3376   -1.9116    0.0000 N   0  0  0  0  0  0  0  0  0
    1.0050   -1.4267    0.0000 C   0  0  0  0  0  0  0  0  0
    1.0050   -0.6017    0.0000 N   0  0  0  0  0  0  0  0  0
    1.7195   -0.1892    0.0000 C   0  0  0  0  0  0  0  0  0
    1.7195    0.6358    0.0000 C   0  0  0  0  0  0  0  0  0
    2.4340    1.0483    0.0000 C   0  0  0  0  0  0  0  0  0
    3.1485    0.6358    0.0000 C   0  0  0  0  0  0  0  0  0
    3.8629    1.0483    0.0000 N   0  0  0  0  0  0  0  0  0
    4.5774    0.6358    0.0000 C   0  0  0  0  0  0  0  0  0
    4.5774   -0.1892    0.0000 C   0  0  0  0  0  0  0  0  0
    3.8629   -0.6017    0.0000 N   0  0  0  0  0  0  0  0  0
    3.1485   -0.1892    0.0000 C   0  0  0  0  0  0  0  0  0
    2.4340   -0.6017    0.0000 C   0  0  0  0  0  0  0  0  0
    2.4340   -1.4267    0.0000 C   0  0  0  0  0  0  0  0  0
  1  2  4  0  0  0  0
  1  5  4  0  0  0  0
  2  3  4  0  0  0  0
  3  4  4  0  0  0  0
  4  5  4  0  0  0  0
  5  6  1  0  0  0  0
  6  7  1  0  0  0  0
  7  8  4  0  0  0  0
  7 16  4  0  0  0  0
  8  9  4  0  0  0  0
  9 10  4  0  0  0  0
 10 11  4  0  0  0  0
 10 15  4  0  0  0  0
 11 12  4  0  0  0  0
 12 13  4  0  0  0  0
 13 14  4  0  0  0  0
 14 15  4  0  0  0  0
 15 16  4  0  0  0  0
 16 17  1  0  0  0  0
M  STY  1   1 DAT
M  SAL   1  1   1
M  SDT   1 MRV_IMPLICIT_H                                        
M  SDD   1     0.0000    0.0000    DR    ALL  0       0  
M  SED   1 IMPL_H1
M  END
>  <Name_Molregno>
118306

>  <Alpha-1A>
4.55

>  <Alpha-1B>
4.55

>  <Alpha-2A>
7.51

>  <Alpha-2C>
6.47

$$$$
118307
  Marvin  02231216192D 0   1.00000     0.00000     0

 15 17  0  0  0  0  0  0  0  0999 V2000
    3.1006    0.0054    0.0000 N   0  0  0  0  0  0  0  0  0
    3.9076    0.1769    0.0000 C   0  0  0  0  0  0  0  0  0
    4.3201   -0.5376    0.0000 C   0  0  0  0  0  0  0  0  0
    3.7681   -1.1507    0.0000 N   0  0  0  0  0  0  0  0  0
    3.0144   -0.8151    0.0000 C   0  0  0  0  0  0  0  0  0
    2.2999   -1.2276    0.0000 N   0  0  0  0  0  0  0  0  0
    1.5855   -0.8151    0.0000 C   0  0  0  0  0  0  0  0  0
    0.8710   -1.2276    0.0000 C   0  0  0  0  0  0  0  0  0
    0.1565   -0.8151    0.0000 C   0  0  0  0  0  0  0  0  0
   -0.6281   -1.0700    0.0000 N   0  0  0  0  0  0  0  0  0
   -1.1130   -0.4026    0.0000 C   0  0  0  0  0  0  0  0  0
   -0.6281    0.2648    0.0000 N   0  0  0  0  0  0  0  0  0
    0.1565    0.0099    0.0000 C   0  0  0  0  0  0  0  0  0
    0.8710    0.4224    0.0000 C   0  0  0  0  0  0  0  0  0
    1.5855    0.0099    0.0000 C   0  0  0  0  0  0  0  0  0
  1  2  4  0  0  0  0
  1  5  4  0  0  0  0
  2  3  4  0  0  0  0
  3  4  4  0  0  0  0
  4  5  4  0  0  0  0
  5  6  1  0  0  0  0
  6  7  1  0  0  0  0
  7  8  4  0  0  0  0
  7 15  4  0  0  0  0
  8  9  4  0  0  0  0
  9 10  4  0  0  0  0
  9 13  4  0  0  0  0
 10 11  4  0  0  0  0
 11 12  4  0  0  0  0
 12 13  4  0  0  0  0
 13 14  4  0  0  0  0
 14 15  4  0  0  0  0
M  STY  2   1 DAT   2 DAT
M  SAL   1  1   1
M  SDT   1 MRV_IMPLICIT_H                                        
M  SDD   1     0.0000    0.0000    DR    ALL  0       0  
M  SED   1 IMPL_H1
M  SAL   2  1  12
M  SDT   2 MRV_IMPLICIT_H                                        
M  SDD   2     0.0000    0.0000    DR    ALL  0       0  
M  SED   2 IMPL_H1
M  END
>  <Name_Molregno>
118307

>  <Alpha-1A>
4.62

>  <Alpha-1B>
4.62

>  <Alpha-2A>
7.12

>  <Alpha-2C>
6.4

$$$$
118382
  Marvin  02231216192D 0   1.00000     0.00000     0

 17 19  0  0  0  0  0  0  0  0999 V2000
   -0.2472   -0.7115    0.0000 Br  0  0  0  0  0  0  0  0  0
   -0.2472   -1.5365    0.0000 C   0  0  0  0  0  0  0  0  0
    0.4673   -1.9490    0.0000 C   0  0  0  0  0  0  0  0  0
    1.1818   -1.5365    0.0000 N   0  0  0  0  0  0  0  0  0
    1.8962   -1.9490    0.0000 C   0  0  0  0  0  0  0  0  0
    1.8962   -2.7740    0.0000 C   0  0  0  0  0  0  0  0  0
    1.1818   -3.1865    0.0000 N   0  0  0  0  0  0  0  0  0
    0.4673   -2.7740    0.0000 C   0  0  0  0  0  0  0  0  0
   -0.2472   -3.1865    0.0000 C   0  0  0  0  0  0  0  0  0
   -0.9616   -2.7740    0.0000 C   0  0  0  0  0  0  0  0  0
   -0.9616   -1.9490    0.0000 C   0  0  0  0  0  0  0  0  0
   -1.6761   -1.5365    0.0000 N   0  0  0  0  0  0  0  0  0
   -1.6761   -0.7115    0.0000 C   0  0  0  0  0  0  0  0  0
   -2.3436   -0.2266    0.0000 N   0  0  0  0  0  0  0  0  0
   -2.0886    0.5580    0.0000 C   0  0  0  0  0  0  0  0  0
   -1.2636    0.5580    0.0000 C   0  0  0  0  0  0  0  0  0
   -1.0087   -0.2266    0.0000 N   0  0  0  0  0  0  0  0  0
  1  2  1  0  0  0  0
  2  3  4  0  0  0  0
  2 11  4  0  0  0  0
  3  4  4  0  0  0  0
  3  8  4  0  0  0  0
  4  5  4  0  0  0  0
  5  6  4  0  0  0  0
  6  7  4  0  0  0  0
  7  8  4  0  0  0  0
  8  9  4  0  0  0  0
  9 10  4  0  0  0  0
 10 11  4  0  0  0  0
 11 12  1  0  0  0  0
 12 13  1  0  0  0  0
 13 14  4  0  0  0  0
 13 17  4  0  0  0  0
 14 15  4  0  0  0  0
 15 16  4  0  0  0  0
 16 17  4  0  0  0  0
M  STY  1   1 DAT
M  SAL   1  1  14
M  SDT   1 MRV_IMPLICIT_H                                        
M  SDD   1     0.0000    0.0000    DR    ALL  0       0  
M  SED   1 IMPL_H1
M  END
>  <Name_Molregno>
118382

>  <Alpha-1A>
4

>  <Alpha-1B>
4

>  <Alpha-2A>
6.29

>  <Alpha-2C>
5

$$$$
119095
  Marvin  02231216192D 0   1.00000     0.00000     0

 13 14  0  0  0  0  0  0  0  0999 V2000
   -2.3845   -1.2262    0.0000 Br  0  0  0  0  0  0  0  0  0
   -2.3845   -0.4012    0.0000 C   0  0  0  0  0  0  0  0  0
   -3.0990    0.0113    0.0000 C   0  0  0  0  0  0  0  0  0
   -3.0990    0.8363    0.0000 C   0  0  0  0  0  0  0  0  0
   -2.3845    1.2488    0.0000 C   0  0  0  0  0  0  0  0  0
   -1.6700    0.8363    0.0000 C   0  0  0  0  0  0  0  0  0
   -1.6700    0.0113    0.0000 C   0  0  0  0  0  0  0  0  0
   -0.9555   -0.4012    0.0000 N   0  0  0  0  0  0  0  0  0
   -0.9555   -1.2262    0.0000 C   0  0  0  0  0  0  0  0  0
   -0.2881   -1.7112    0.0000 N   0  0  0  0  0  0  0  0  0
   -0.5430   -2.4958    0.0000 C   0  0  0  0  0  0  0  0  0
   -1.3680   -2.4958    0.0000 C   0  0  0  0  0  0  0  0  0
   -1.6230   -1.7112    0.0000 N   0  0  0  0  0  0  0  0  0
  1  2  1  0  0  0  0
  2  3  4  0  0  0  0
  2  7  4  0  0  0  0
  3  4  4  0  0  0  0
  4  5  4  0  0  0  0
  5  6  4  0  0  0  0
  6  7  4  0  0  0  0
  7  8  1  0  0  0  0
  8  9  1  0  0  0  0
  9 10  4  0  0  0  0
  9 13  4  0  0  0  0
 10 11  4  0  0  0  0
 11 12  4  0  0  0  0
 12 13  4  0  0  0  0
M  STY  1   1 DAT
M  SAL   1  1  10
M  SDT   1 MRV_IMPLICIT_H                                        
M  SDD   1     0.0000    0.0000    DR    ALL  0       0  
M  SED   1 IMPL_H1
M  END
>  <Name_Molregno>
119095

>  <Alpha-1A>
4.96

>  <Alpha-1B>
4.96

>  <Alpha-2A>
6.68

>  <Alpha-2C>
5.62

$$$$
119223
  Marvin  02231216192D 0   1.00000     0.00000     0

 14 15  0  0  0  0  0  0  0  0999 V2000
   -2.4917   -1.4203    0.0000 Cl  0  0  0  0  0  0  0  0  0
   -2.4917   -0.5953    0.0000 C   0  0  0  0  0  0  0  0  0
   -3.2061   -0.1828    0.0000 C   0  0  0  0  0  0  0  0  0
   -3.2061    0.6422    0.0000 C   0  0  0  0  0  0  0  0  0
   -2.4917    1.0547    0.0000 C   0  0  0  0  0  0  0  0  0
   -1.7772    0.6422    0.0000 C   0  0  0  0  0  0  0  0  0
   -1.0627    1.0547    0.0000 Cl  0  0  0  0  0  0  0  0  0
   -1.7772   -0.1828    0.0000 C   0  0  0  0  0  0  0  0  0
   -1.0627   -0.5953    0.0000 N   0  0  0  0  0  0  0  0  0
   -1.0627   -1.4203    0.0000 C   0  0  0  0  0  0  0  0  0
   -0.3953   -1.9052    0.0000 N   0  0  0  0  0  0  0  0  0
   -0.6502   -2.6898    0.0000 C   0  0  0  0  0  0  0  0  0
   -1.4752   -2.6898    0.0000 C   0  0  0  0  0  0  0  0  0
   -1.7302   -1.9052    0.0000 N   0  0  0  0  0  0  0  0  0
  1  2  1  0  0  0  0
  2  3  4  0  0  0  0
  2  8  4  0  0  0  0
  3  4  4  0  0  0  0
  4  5  4  0  0  0  0
  5  6  4  0  0  0  0
  6  7  1  0  0  0  0
  6  8  4  0  0  0  0
  8  9  1  0  0  0  0
  9 10  1  0  0  0  0
 10 11  4  0  0  0  0
 10 14  4  0  0  0  0
 11 12  4  0  0  0  0
 12 13  4  0  0  0  0
 13 14  4  0  0  0  0
M  STY  1   1 DAT
M  SAL   1  1  11
M  SDT   1 MRV_IMPLICIT_H                                        
M  SDD   1     0.0000    0.0000    DR    ALL  0       0  
M  SED   1 IMPL_H1
M  END
>  <Name_Molregno>
119223

>  <Alpha-1A>
5.22

>  <Alpha-1B>
5.22

>  <Alpha-2A>
7.02

>  <Alpha-2C>
5.96

$$$$
119340
  Marvin  02231216192D 0   1.00000     0.00000     0

 17 19  0  0  0  0  0  0  0  0999 V2000
    0.5729    1.7513    0.0000 O   0  0  0  0  0  0  0  0  0
   -0.1415    1.3388    0.0000 C   0  0  0  0  0  0  0  0  0
   -0.1415    0.5138    0.0000 C   0  0  0  0  0  0  0  0  0
    0.5729    0.1013    0.0000 N   0  0  0  0  0  0  0  0  0
    1.2874    0.5138    0.0000 C   0  0  0  0  0  0  0  0  0
    1.2874    1.3388    0.0000 C   0  0  0  0  0  0  0  0  0
    2.0019    1.7513    0.0000 C   0  0  0  0  0  0  0  0  0
    2.7164    1.3388    0.0000 C   0  0  0  0  0  0  0  0  0
    2.7164    0.5138    0.0000 C   0  0  0  0  0  0  0  0  0
    3.4308    0.1013    0.0000 N   0  0  0  0  0  0  0  0  0
    3.4308   -0.7237    0.0000 C   0  0  0  0  0  0  0  0  0
    4.0983   -1.2086    0.0000 N   0  0  0  0  0  0  0  0  0
    3.8433   -1.9932    0.0000 C   0  0  0  0  0  0  0  0  0
    3.0183   -1.9932    0.0000 C   0  0  0  0  0  0  0  0  0
    2.7634   -1.2086    0.0000 N   0  0  0  0  0  0  0  0  0
    2.0019    0.1013    0.0000 C   0  0  0  0  0  0  0  0  0
    2.0019   -0.7237    0.0000 C   0  0  0  0  0  0  0  0  0
  1  2  1  0  0  0  0
  1  6  1  0  0  0  0
  2  3  1  0  0  0  0
  3  4  1  0  0  0  0
  4  5  1  0  0  0  0
  5  6  4  0  0  0  0
  5 16  4  0  0  0  0
  6  7  4  0  0  0  0
  7  8  4  0  0  0  0
  8  9  4  0  0  0  0
  9 10  1  0  0  0  0
  9 16  4  0  0  0  0
 10 11  1  0  0  0  0
 11 12  4  0  0  0  0
 11 15  4  0  0  0  0
 12 13  4  0  0  0  0
 13 14  4  0  0  0  0
 14 15  4  0  0  0  0
 16 17  1  0  0  0  0
M  STY  1   1 DAT
M  SAL   1  1  12
M  SDT   1 MRV_IMPLICIT_H                                        
M  SDD   1     0.0000    0.0000    DR    ALL  0       0  
M  SED   1 IMPL_H1
M  END
>  <Name_Molregno>
119340

>  <Alpha-1A>
4.8

>  <Alpha-1B>
4.8

>  <Alpha-2A>
8.22

>  <Alpha-2C>
6.64

$$$$
119342
  Marvin  02231216192D 0   1.00000     0.00000     0

 19 20  0  0  0  0  0  0  0  0999 V2000
    0.5235    2.1643    0.0000 O   0  0  0  0  0  0  0  0  0
   -0.1910    1.7518    0.0000 C   0  0  0  0  0  0  0  0  0
    1.2379    1.7518    0.0000 C   0  0  0  0  0  0  0  0  0
    1.9524    2.1643    0.0000 C   0  0  0  0  0  0  0  0  0
    2.6669    1.7518    0.0000 C   0  0  0  0  0  0  0  0  0
    3.3813    2.1643    0.0000 C   0  0  0  0  0  0  0  0  0
    2.6669    0.9268    0.0000 C   0  0  0  0  0  0  0  0  0
    3.3813    0.5143    0.0000 N   0  0  0  0  0  0  0  0  0
    3.3813   -0.3107    0.0000 C   0  0  0  0  0  0  0  0  0
    4.0488   -0.7956    0.0000 N   0  0  0  0  0  0  0  0  0
    3.7938   -1.5802    0.0000 C   0  0  0  0  0  0  0  0  0
    2.9688   -1.5802    0.0000 C   0  0  0  0  0  0  0  0  0
    2.7139   -0.7956    0.0000 N   0  0  0  0  0  0  0  0  0
    1.9524    0.5143    0.0000 C   0  0  0  0  0  0  0  0  0
    1.2379    0.9268    0.0000 C   0  0  0  0  0  0  0  0  0
    0.5235    0.5143    0.0000 C   0  0  0  0  0  0  0  0  0
   -0.1910    0.1018    0.0000 C   0  0  0  0  0  0  0  0  0
    0.9360   -0.2002    0.0000 C   0  0  0  0  0  0  0  0  0
    0.1110    1.2288    0.0000 C   0  0  0  0  0  0  0  0  0
  1  2  1  0  0  0  0
  1  3  1  0  0  0  0
  3  4  4  0  0  0  0
  3 15  4  0  0  0  0
  4  5  4  0  0  0  0
  5  6  1  0  0  0  0
  5  7  4  0  0  0  0
  7  8  1  0  0  0  0
  7 14  4  0  0  0  0
  8  9  1  0  0  0  0
  9 10  4  0  0  0  0
  9 13  4  0  0  0  0
 10 11  4  0  0  0  0
 11 12  4  0  0  0  0
 12 13  4  0  0  0  0
 14 15  4  0  0  0  0
 15 16  1  0  0  0  0
 16 17  1  0  0  0  0
 16 18  1  0  0  0  0
 16 19  1  0  0  0  0
M  STY  1   1 DAT
M  SAL   1  1  10
M  SDT   1 MRV_IMPLICIT_H                                        
M  SDD   1     0.0000    0.0000    DR    ALL  0       0  
M  SED   1 IMPL_H1
M  END
>  <Name_Molregno>
119342

>  <Alpha-1A>
4.8

>  <Alpha-1B>
4.8

>  <Alpha-2A>
7.41

>  <Alpha-2C>
6.54

$$$$
119343
  Marvin  02231216192D 0   1.00000     0.00000     0

 20 21  0  0  0  0  0  0  0  0999 V2000
    0.9350    3.4975    0.0000 O   0  0  0  0  0  0  0  0  0
    0.2205    3.9100    0.0000 C   0  0  0  0  0  0  0  0  0
    0.9350    2.6725    0.0000 C   0  0  0  0  0  0  0  0  0
    1.6495    2.2600    0.0000 C   0  0  0  0  0  0  0  0  0
    2.3639    2.6725    0.0000 C   0  0  0  0  0  0  0  0  0
    1.6495    1.4350    0.0000 C   0  0  0  0  0  0  0  0  0
    2.3639    1.0225    0.0000 N   0  0  0  0  0  0  0  0  0
    2.3639    0.1975    0.0000 C   0  0  0  0  0  0  0  0  0
    3.0314   -0.2875    0.0000 N   0  0  0  0  0  0  0  0  0
    2.7764   -1.0721    0.0000 C   0  0  0  0  0  0  0  0  0
    1.9514   -1.0721    0.0000 C   0  0  0  0  0  0  0  0  0
    1.6965   -0.2875    0.0000 N   0  0  0  0  0  0  0  0  0
    0.9350    1.0225    0.0000 C   0  0  0  0  0  0  0  0  0
    0.2205    1.4350    0.0000 C   0  0  0  0  0  0  0  0  0
    0.2205    2.2600    0.0000 C   0  0  0  0  0  0  0  0  0
   -0.4940    2.6725    0.0000 C   0  0  0  0  0  0  0  0  0
   -1.2084    3.0850    0.0000 C   0  0  0  0  0  0  0  0  0
   -0.0815    3.3869    0.0000 C   0  0  0  0  0  0  0  0  0
   -0.9065    1.9580    0.0000 C   0  0  0  0  0  0  0  0  0
    0.9350    0.1975    0.0000 C   0  0  0  0  0  0  0  0  0
  1  2  1  0  0  0  0
  1  3  1  0  0  0  0
  3  4  4  0  0  0  0
  3 15  4  0  0  0  0
  4  5  1  0  0  0  0
  4  6  4  0  0  0  0
  6  7  1  0  0  0  0
  6 13  4  0  0  0  0
  7  8  1  0  0  0  0
  8  9  4  0  0  0  0
  8 12  4  0  0  0  0
  9 10  4  0  0  0  0
 10 11  4  0  0  0  0
 11 12  4  0  0  0  0
 13 14  4  0  0  0  0
 13 20  1  0  0  0  0
 14 15  4  0  0  0  0
 15 16  1  0  0  0  0
 16 17  1  0  0  0  0
 16 18  1  0  0  0  0
 16 19  1  0  0  0  0
M  STY  1   1 DAT
M  SAL   1  1   9
M  SDT   1 MRV_IMPLICIT_H                                        
M  SDD   1     0.0000    0.0000    DR    ALL  0       0  
M  SED   1 IMPL_H1
M  END
>  <Name_Molregno>
119343

>  <Alpha-1A>
5.38

>  <Alpha-1B>
5.38

>  <Alpha-2A>
8.31

>  <Alpha-2C>
7.06

$$$$
119344
  Marvin  02231216192D 0   1.00000     0.00000     0

 17 19  0  0  0  0  0  0  0  0999 V2000
   -0.2285    1.4943    0.0000 O   0  0  0  0  0  0  0  0  0
    0.4860    1.9068    0.0000 C   0  0  0  0  0  0  0  0  0
    0.4860    2.7318    0.0000 C   0  0  0  0  0  0  0  0  0
   -0.2285    3.1443    0.0000 O   0  0  0  0  0  0  0  0  0
   -0.9430    2.7318    0.0000 C   0  0  0  0  0  0  0  0  0
   -0.9430    1.9068    0.0000 C   0  0  0  0  0  0  0  0  0
    1.2005    3.1443    0.0000 C   0  0  0  0  0  0  0  0  0
    1.9149    2.7318    0.0000 C   0  0  0  0  0  0  0  0  0
    1.9149    1.9068    0.0000 C   0  0  0  0  0  0  0  0  0
    2.6294    1.4943    0.0000 N   0  0  0  0  0  0  0  0  0
    2.6294    0.6693    0.0000 C   0  0  0  0  0  0  0  0  0
    3.2968    0.1844    0.0000 N   0  0  0  0  0  0  0  0  0
    3.0419   -0.6002    0.0000 C   0  0  0  0  0  0  0  0  0
    2.2169   -0.6002    0.0000 C   0  0  0  0  0  0  0  0  0
    1.9620    0.1844    0.0000 N   0  0  0  0  0  0  0  0  0
    1.2005    1.4943    0.0000 C   0  0  0  0  0  0  0  0  0
    1.2005    0.6693    0.0000 C   0  0  0  0  0  0  0  0  0
  1  2  1  0  0  0  0
  1  6  1  0  0  0  0
  2  3  4  0  0  0  0
  2 16  4  0  0  0  0
  3  4  1  0  0  0  0
  3  7  4  0  0  0  0
  4  5  1  0  0  0  0
  5  6  1  0  0  0  0
  7  8  4  0  0  0  0
  8  9  4  0  0  0  0
  9 10  1  0  0  0  0
  9 16  4  0  0  0  0
 10 11  1  0  0  0  0
 11 12  4  0  0  0  0
 11 15  4  0  0  0  0
 12 13  4  0  0  0  0
 13 14  4  0  0  0  0
 14 15  4  0  0  0  0
 16 17  1  0  0  0  0
M  STY  1   1 DAT
M  SAL   1  1  12
M  SDT   1 MRV_IMPLICIT_H                                        
M  SDD   1     0.0000    0.0000    DR    ALL  0       0  
M  SED   1 IMPL_H1
M  END
>  <Name_Molregno>
119344

>  <Alpha-1A>
5.68

>  <Alpha-1B>
5.68

>  <Alpha-2A>
8.77

>  <Alpha-2C>
7.72

$$$$
119851
  Marvin  02231216192D 0   1.00000     0.00000     0

 15 16  0  0  0  0  0  0  0  0999 V2000
   -4.1684    1.8130    0.0000 O   0  0  0  0  0  0  0  0  0
   -4.8829    1.4005    0.0000 C   0  0  0  0  0  0  0  0  0
   -3.4539    1.4005    0.0000 C   0  0  0  0  0  0  0  0  0
   -2.7395    1.8130    0.0000 C   0  0  0  0  0  0  0  0  0
   -2.0250    1.4005    0.0000 C   0  0  0  0  0  0  0  0  0
   -1.3105    1.8130    0.0000 C   0  0  0  0  0  0  0  0  0
   -2.0250    0.5755    0.0000 C   0  0  0  0  0  0  0  0  0
   -1.3105    0.1630    0.0000 N   0  0  0  0  0  0  0  0  0
   -1.3105   -0.6620    0.0000 C   0  0  0  0  0  0  0  0  0
   -0.6431   -1.1469    0.0000 N   0  0  0  0  0  0  0  0  0
   -0.8980   -1.9315    0.0000 C   0  0  0  0  0  0  0  0  0
   -1.7230   -1.9315    0.0000 C   0  0  0  0  0  0  0  0  0
   -1.9780   -1.1469    0.0000 N   0  0  0  0  0  0  0  0  0
   -2.7395    0.1630    0.0000 C   0  0  0  0  0  0  0  0  0
   -3.4539    0.5755    0.0000 C   0  0  0  0  0  0  0  0  0
  1  2  1  0  0  0  0
  1  3  1  0  0  0  0
  3  4  4  0  0  0  0
  3 15  4  0  0  0  0
  4  5  4  0  0  0  0
  5  6  1  0  0  0  0
  5  7  4  0  0  0  0
  7  8  1  0  0  0  0
  7 14  4  0  0  0  0
  8  9  1  0  0  0  0
  9 10  4  0  0  0  0
  9 13  4  0  0  0  0
 10 11  4  0  0  0  0
 11 12  4  0  0  0  0
 12 13  4  0  0  0  0
 14 15  4  0  0  0  0
M  STY  1   1 DAT
M  SAL   1  1  10
M  SDT   1 MRV_IMPLICIT_H                                        
M  SDD   1     0.0000    0.0000    DR    ALL  0       0  
M  SED   1 IMPL_H1
M  END
>  <Name_Molregno>
119851

>  <Alpha-1A>
5.08

>  <Alpha-1B>
5.08

>  <Alpha-2A>
8

>  <Alpha-2C>
6.29

$$$$
119882
  Marvin  02231216192D 0   1.00000     0.00000     0

 16 18  0  0  0  0  0  0  0  0999 V2000
    0.0018   -0.9509    0.0000 N   0  0  0  0  0  0  0  0  0
   -0.8052   -1.1224    0.0000 C   0  0  0  0  0  0  0  0  0
   -1.2177   -0.4080    0.0000 C   0  0  0  0  0  0  0  0  0
   -0.6656    0.2051    0.0000 N   0  0  0  0  0  0  0  0  0
    0.0880   -0.1304    0.0000 C   0  0  0  0  0  0  0  0  0
    0.8025    0.2821    0.0000 N   0  0  0  0  0  0  0  0  0
    1.5170   -0.1304    0.0000 C   0  0  0  0  0  0  0  0  0
    2.2315    0.2821    0.0000 C   0  0  0  0  0  0  0  0  0
    2.9459   -0.1304    0.0000 C   0  0  0  0  0  0  0  0  0
    3.6604    0.2821    0.0000 N   0  0  0  0  0  0  0  0  0
    4.3749   -0.1304    0.0000 C   0  0  0  0  0  0  0  0  0
    4.3749   -0.9554    0.0000 C   0  0  0  0  0  0  0  0  0
    3.6604   -1.3679    0.0000 N   0  0  0  0  0  0  0  0  0
    2.9459   -0.9554    0.0000 C   0  0  0  0  0  0  0  0  0
    2.2315   -1.3679    0.0000 C   0  0  0  0  0  0  0  0  0
    1.5170   -0.9554    0.0000 C   0  0  0  0  0  0  0  0  0
  1  2  4  0  0  0  0
  1  5  4  0  0  0  0
  2  3  4  0  0  0  0
  3  4  4  0  0  0  0
  4  5  4  0  0  0  0
  5  6  1  0  0  0  0
  6  7  1  0  0  0  0
  7  8  4  0  0  0  0
  7 16  4  0  0  0  0
  8  9  4  0  0  0  0
  9 10  4  0  0  0  0
  9 14  4  0  0  0  0
 10 11  4  0  0  0  0
 11 12  4  0  0  0  0
 12 13  4  0  0  0  0
 13 14  4  0  0  0  0
 14 15  4  0  0  0  0
 15 16  4  0  0  0  0
M  STY  1   1 DAT
M  SAL   1  1   1
M  SDT   1 MRV_IMPLICIT_H                                        
M  SDD   1     0.0000    0.0000    DR    ALL  0       0  
M  SED   1 IMPL_H1
M  END
>  <Name_Molregno>
119882

>  <Alpha-1A>
4

>  <Alpha-1B>
4

>  <Alpha-2A>
5.51

>  <Alpha-2C>
5.06

$$$$
119917
  Marvin  02231216192D 0   1.00000     0.00000     0

 17 18  0  0  0  0  0  0  0  0999 V2000
    1.0216    3.5714    0.0000 O   0  0  0  0  0  0  0  0  0
    0.3071    3.9839    0.0000 C   0  0  0  0  0  0  0  0  0
    1.0216    2.7464    0.0000 C   0  0  0  0  0  0  0  0  0
    1.7361    2.3339    0.0000 C   0  0  0  0  0  0  0  0  0
    2.4505    2.7464    0.0000 C   0  0  0  0  0  0  0  0  0
    1.7361    1.5089    0.0000 C   0  0  0  0  0  0  0  0  0
    2.4505    1.0964    0.0000 N   0  0  0  0  0  0  0  0  0
    2.4505    0.2714    0.0000 C   0  0  0  0  0  0  0  0  0
    3.1180   -0.2135    0.0000 N   0  0  0  0  0  0  0  0  0
    2.8630   -0.9981    0.0000 C   0  0  0  0  0  0  0  0  0
    2.0380   -0.9981    0.0000 C   0  0  0  0  0  0  0  0  0
    1.7831   -0.2135    0.0000 N   0  0  0  0  0  0  0  0  0
    1.0216    1.0964    0.0000 C   0  0  0  0  0  0  0  0  0
    0.3071    1.5089    0.0000 C   0  0  0  0  0  0  0  0  0
    0.3071    2.3339    0.0000 C   0  0  0  0  0  0  0  0  0
   -0.4073    2.7464    0.0000 O   0  0  0  0  0  0  0  0  0
   -1.1218    2.3339    0.0000 C   0  0  0  0  0  0  0  0  0
  1  2  1  0  0  0  0
  1  3  1  0  0  0  0
  3  4  4  0  0  0  0
  3 15  4  0  0  0  0
  4  5  1  0  0  0  0
  4  6  4  0  0  0  0
  6  7  1  0  0  0  0
  6 13  4  0  0  0  0
  7  8  1  0  0  0  0
  8  9  4  0  0  0  0
  8 12  4  0  0  0  0
  9 10  4  0  0  0  0
 10 11  4  0  0  0  0
 11 12  4  0  0  0  0
 13 14  4  0  0  0  0
 14 15  4  0  0  0  0
 15 16  1  0  0  0  0
 16 17  1  0  0  0  0
M  STY  1   1 DAT
M  SAL   1  1   9
M  SDT   1 MRV_IMPLICIT_H                                        
M  SDD   1     0.0000    0.0000    DR    ALL  0       0  
M  SED   1 IMPL_H1
M  END
>  <Name_Molregno>
119917

>  <Alpha-1A>
5.18

>  <Alpha-1B>
5.18

>  <Alpha-2A>
6.89

>  <Alpha-2C>
5.82

$$$$
120674
  Marvin  02231216192D 0   1.00000     0.00000     0

 27 29  0  0  1  0  0  0  0  0999 V2000
    4.4208    6.3587    0.0000 F   0  0  0  0  0  0  0  0  0
    4.4208    5.5337    0.0000 C   0  0  0  0  0  0  0  0  0
    5.1353    5.1212    0.0000 C   0  0  0  0  0  0  0  0  0
    5.1353    4.2962    0.0000 C   0  0  0  0  0  0  0  0  0
    4.4208    3.8837    0.0000 C   0  0  0  0  0  0  0  0  0
    3.7063    4.2962    0.0000 C   0  0  0  0  0  0  0  0  0
    3.7063    5.1212    0.0000 C   0  0  0  0  0  0  0  0  0
    4.4208    3.0587    0.0000 C   0  0  0  0  0  0  0  0  0
    5.1353    2.6462    0.0000 C   0  0  0  0  0  0  0  0  0
    5.1353    1.8212    0.0000 N   0  0  0  0  0  0  0  0  0
    5.8497    1.4087    0.0000 C   0  0  0  0  0  0  0  0  0
    5.8497    0.5837    0.0000 C   0  0  0  0  0  0  0  0  0
    5.1353    0.1712    0.0000 C   0  0  0  0  0  0  0  0  0
    4.4208    0.5837    0.0000 C   0  0  0  0  0  0  0  0  0
    4.4208    1.4087    0.0000 C   0  0  0  0  0  0  0  0  0
    5.1353   -0.6538    0.0000 C   0  0  0  0  0  0  0  0  0
    4.4208   -1.0663    0.0000 O   0  0  0  0  0  0  0  0  0
    5.8497   -1.0663    0.0000 C   0  0  0  0  0  0  0  0  0
    6.5642   -0.6538    0.0000 C   0  0  0  0  0  0  0  0  0
    7.2787   -1.0663    0.0000 C   0  0  0  0  0  0  0  0  0
    7.2787   -1.8913    0.0000 C   0  0  0  0  0  0  0  0  0
    6.5642   -2.3038    0.0000 C   0  0  0  0  0  0  0  0  0
    6.5642   -3.1288    0.0000 O   0  0  0  0  0  0  0  0  0
    7.2787   -3.5413    0.0000 C   0  0  0  0  0  0  0  0  0
    5.8497   -1.8913    0.0000 C   0  0  0  0  0  0  0  0  0
    5.1353   -2.3038    0.0000 O   0  0  0  0  0  0  0  0  0
    5.1353   -3.1288    0.0000 C   0  0  0  0  0  0  0  0  0
  1  2  1  0  0  0  0
  2  3  4  0  0  0  0
  2  7  4  0  0  0  0
  3  4  4  0  0  0  0
  4  5  4  0  0  0  0
  5  6  4  0  0  0  0
  5  8  1  0  0  0  0
  6  7  4  0  0  0  0
  8  9  1  0  0  0  0
  9 10  1  0  0  0  0
 10 11  1  0  0  0  0
 10 15  1  0  0  0  0
 11 12  1  0  0  0  0
 12 13  1  0  0  0  0
 13 14  1  0  0  0  0
 13 16  1  0  0  0  0
 14 15  1  0  0  0  0
 16 17  1  0  0  0  0
 16 18  1  0  0  0  0
 18 19  4  0  0  0  0
 18 25  4  0  0  0  0
 19 20  4  0  0  0  0
 20 21  4  0  0  0  0
 21 22  4  0  0  0  0
 22 23  1  0  0  0  0
 22 25  4  0  0  0  0
 23 24  1  0  0  0  0
 25 26  1  0  0  0  0
 26 27  1  0  0  0  0
M  END
>  <Name_Molregno>
120674

>  <5-HT1A>
5

>  <5-HT1E>
5

>  <5-HT2A>
9.16

>  <5-HT2C>
7.37

>  <5-HT3>
5

>  <5-HT5>
5

>  <5-HT6>
5.46

>  <Alpha-1A>
6.41

>  <Alpha-1B>
6.37

>  <Alpha-2A>
5.72

>  <Alpha-2B>
6.57

>  <Alpha-2C>
5.84

>  <Beta-1>
5

>  <Beta-2>
5

>  <DOPAMINE D1>
5.67

>  <DOPAMINE D2>
5.23

>  <DOPAMINE D4>
5.42

>  <DOPAMINE D5>
5

>  <Dopamine transporter>
5

>  <HISTAMINE H1>
7.18

>  <HISTAMINE H4>
5

>  <Muscarinic acetylcholine receptor M1>
5

>  <Muscarinic acetylcholine receptor M2>
5

>  <Muscarinic acetylcholine receptor M3>
5

>  <Muscarinic acetylcholine receptor M4>
5

>  <Muscarinic acetylcholine receptor M5>
5

>  <Norepinephrine transporter>
5

>  <Serotonin transporter>
5

$$$$
128511
  Marvin  02231216192D 0   1.00000     0.00000     0

 35 39  0  0  0  0  0  0  0  0999 V2000
    0.9002   -0.7596    0.0000 O   0  0  0  0  0  0  0  0  0
    0.7286   -1.5666    0.0000 C   0  0  0  0  0  0  0  0  0
   -0.0918   -1.6528    0.0000 C   0  0  0  0  0  0  0  0  0
   -0.4274   -0.8991    0.0000 N   0  0  0  0  0  0  0  0  0
    0.1857   -0.3471    0.0000 C   0  0  0  0  0  0  0  0  0
    0.0995    0.4734    0.0000 C   0  0  0  0  0  0  0  0  0
    0.7669    0.9583    0.0000 N   0  0  0  0  0  0  0  0  0
    0.6807    1.7788    0.0000 C   0  0  0  0  0  0  0  0  0
    1.3481    2.2637    0.0000 C   0  0  0  0  0  0  0  0  0
    2.1018    1.9281    0.0000 N   0  0  0  0  0  0  0  0  0
    2.1880    1.1077    0.0000 C   0  0  0  0  0  0  0  0  0
    1.5206    0.6227    0.0000 C   0  0  0  0  0  0  0  0  0
    2.7692    2.4131    0.0000 C   0  0  0  0  0  0  0  0  0
    2.6830    3.2336    0.0000 C   0  0  0  0  0  0  0  0  0
    3.3504    3.7185    0.0000 C   0  0  0  0  0  0  0  0  0
    4.1041    3.3829    0.0000 C   0  0  0  0  0  0  0  0  0
    4.1903    2.5624    0.0000 C   0  0  0  0  0  0  0  0  0
    3.5229    2.0775    0.0000 C   0  0  0  0  0  0  0  0  0
    3.6091    1.2570    0.0000 O   0  0  0  0  0  0  0  0  0
    4.3628    0.9215    0.0000 C   0  0  0  0  0  0  0  0  0
    4.4490    0.1010    0.0000 C   0  0  0  0  0  0  0  0  0
    5.0302    1.4064    0.0000 C   0  0  0  0  0  0  0  0  0
   -0.5043   -2.3673    0.0000 C   0  0  0  0  0  0  0  0  0
   -1.3293   -2.3673    0.0000 N   0  0  0  0  0  0  0  0  0
   -1.7418   -3.0817    0.0000 C   0  0  0  0  0  0  0  0  0
   -1.3293   -3.7962    0.0000 O   0  0  0  0  0  0  0  0  0
   -2.5668   -3.0817    0.0000 C   0  0  0  0  0  0  0  0  0
   -2.9793   -2.3673    0.0000 C   0  0  0  0  0  0  0  0  0
   -2.5668   -1.6528    0.0000 C   0  0  0  0  0  0  0  0  0
   -1.7418   -1.6528    0.0000 C   0  0  0  0  0  0  0  0  0
   -1.3293   -0.9383    0.0000 O   0  0  0  0  0  0  0  0  0
   -3.4643   -3.0347    0.0000 C   0  0  0  0  0  0  0  0  0
   -4.2489   -2.7798    0.0000 C   0  0  0  0  0  0  0  0  0
   -4.2489   -1.9548    0.0000 C   0  0  0  0  0  0  0  0  0
   -3.4643   -1.6998    0.0000 C   0  0  0  0  0  0  0  0  0
  1  2  4  0  0  0  0
  1  5  4  0  0  0  0
  2  3  4  0  0  0  0
  3  4  4  0  0  0  0
  3 23  1  0  0  0  0
  4  5  4  0  0  0  0
  5  6  1  0  0  0  0
  6  7  1  0  0  0  0
  7  8  1  0  0  0  0
  7 12  1  0  0  0  0
  8  9  1  0  0  0  0
  9 10  1  0  0  0  0
 10 11  1  0  0  0  0
 10 13  1  0  0  0  0
 11 12  1  0  0  0  0
 13 14  4  0  0  0  0
 13 18  4  0  0  0  0
 14 15  4  0  0  0  0
 15 16  4  0  0  0  0
 16 17  4  0  0  0  0
 17 18  4  0  0  0  0
 18 19  1  0  0  0  0
 19 20  1  0  0  0  0
 20 21  1  0  0  0  0
 20 22  1  0  0  0  0
 23 24  1  0  0  0  0
 24 25  1  0  0  0  0
 24 30  1  0  0  0  0
 25 26  2  0  0  0  0
 25 27  1  0  0  0  0
 27 28  1  0  0  0  0
 28 29  1  0  0  0  0
 28 32  1  0  0  0  0
 28 35  1  0  0  0  0
 29 30  1  0  0  0  0
 30 31  2  0  0  0  0
 32 33  1  0  0  0  0
 33 34  1  0  0  0  0
 34 35  1  0  0  0  0
M  END
>  <Name_Molregno>
128511

>  <Alpha-1A>
7.09

>  <Alpha-1B>
5.3

$$$$
128514
  Marvin  02231216192D 0   1.00000     0.00000     0

 30 33  0  0  0  0  0  0  0  0999 V2000
    0.8565   -1.6441    0.0000 S   0  0  0  0  0  0  0  0  0
    0.6015   -2.4288    0.0000 C   0  0  0  0  0  0  0  0  0
   -0.2235   -2.4288    0.0000 C   0  0  0  0  0  0  0  0  0
   -0.4784   -1.6441    0.0000 N   0  0  0  0  0  0  0  0  0
    0.1890   -1.1592    0.0000 C   0  0  0  0  0  0  0  0  0
    0.1890   -0.3342    0.0000 C   0  0  0  0  0  0  0  0  0
    0.9035    0.0783    0.0000 N   0  0  0  0  0  0  0  0  0
    0.9035    0.9033    0.0000 C   0  0  0  0  0  0  0  0  0
    1.6180    1.3158    0.0000 C   0  0  0  0  0  0  0  0  0
    2.3324    0.9033    0.0000 N   0  0  0  0  0  0  0  0  0
    2.3324    0.0783    0.0000 C   0  0  0  0  0  0  0  0  0
    1.6180   -0.3342    0.0000 C   0  0  0  0  0  0  0  0  0
    3.0469    1.3158    0.0000 C   0  0  0  0  0  0  0  0  0
    3.0469    2.1408    0.0000 C   0  0  0  0  0  0  0  0  0
    3.7614    2.5533    0.0000 C   0  0  0  0  0  0  0  0  0
    4.4758    2.1408    0.0000 C   0  0  0  0  0  0  0  0  0
    4.4758    1.3158    0.0000 C   0  0  0  0  0  0  0  0  0
    3.7614    0.9033    0.0000 C   0  0  0  0  0  0  0  0  0
    3.7614    0.0783    0.0000 O   0  0  0  0  0  0  0  0  0
    4.4758   -0.3342    0.0000 C   0  0  0  0  0  0  0  0  0
    4.4758   -1.1592    0.0000 C   0  0  0  0  0  0  0  0  0
    5.1903    0.0783    0.0000 C   0  0  0  0  0  0  0  0  0
   -0.7084   -3.0962    0.0000 C   0  0  0  0  0  0  0  0  0
   -1.5289   -3.0100    0.0000 N   0  0  0  0  0  0  0  0  0
   -2.0138   -3.6774    0.0000 C   0  0  0  0  0  0  0  0  0
   -2.8343   -3.5912    0.0000 C   0  0  0  0  0  0  0  0  0
   -3.1698   -2.8375    0.0000 C   0  0  0  0  0  0  0  0  0
   -2.6849   -2.1700    0.0000 C   0  0  0  0  0  0  0  0  0
   -1.8644   -2.2563    0.0000 C   0  0  0  0  0  0  0  0  0
   -1.3795   -1.5888    0.0000 O   0  0  0  0  0  0  0  0  0
  1  2  4  0  0  0  0
  1  5  4  0  0  0  0
  2  3  4  0  0  0  0
  3  4  4  0  0  0  0
  3 23  1  0  0  0  0
  4  5  4  0  0  0  0
  5  6  1  0  0  0  0
  6  7  1  0  0  0  0
  7  8  1  0  0  0  0
  7 12  1  0  0  0  0
  8  9  1  0  0  0  0
  9 10  1  0  0  0  0
 10 11  1  0  0  0  0
 10 13  1  0  0  0  0
 11 12  1  0  0  0  0
 13 14  4  0  0  0  0
 13 18  4  0  0  0  0
 14 15  4  0  0  0  0
 15 16  4  0  0  0  0
 16 17  4  0  0  0  0
 17 18  4  0  0  0  0
 18 19  1  0  0  0  0
 19 20  1  0  0  0  0
 20 21  1  0  0  0  0
 20 22  1  0  0  0  0
 23 24  1  0  0  0  0
 24 25  1  0  0  0  0
 24 29  1  0  0  0  0
 25 26  1  0  0  0  0
 26 27  1  0  0  0  0
 27 28  1  0  0  0  0
 28 29  1  0  0  0  0
 29 30  2  0  0  0  0
M  END
>  <Name_Molregno>
128514

>  <Alpha-1A>
8.92

>  <Alpha-1B>
5.76

$$$$
128554
  Marvin  02231216192D 0   1.00000     0.00000     0

 27 30  0  0  0  0  0  0  0  0999 V2000
    0.9752   -1.8286    0.0000 O   0  0  0  0  0  0  0  0  0
    0.7202   -2.6132    0.0000 N   0  0  0  0  0  0  0  0  0
   -0.1048   -2.6132    0.0000 C   0  0  0  0  0  0  0  0  0
   -0.3597   -1.8286    0.0000 C   0  0  0  0  0  0  0  0  0
    0.3077   -1.3436    0.0000 C   0  0  0  0  0  0  0  0  0
    0.3077   -0.5186    0.0000 C   0  0  0  0  0  0  0  0  0
    1.0222   -0.1061    0.0000 N   0  0  0  0  0  0  0  0  0
    1.0222    0.7189    0.0000 C   0  0  0  0  0  0  0  0  0
    1.7367    1.1314    0.0000 C   0  0  0  0  0  0  0  0  0
    2.4511    0.7189    0.0000 N   0  0  0  0  0  0  0  0  0
    2.4511   -0.1061    0.0000 C   0  0  0  0  0  0  0  0  0
    1.7367   -0.5186    0.0000 C   0  0  0  0  0  0  0  0  0
    3.1656    1.1314    0.0000 C   0  0  0  0  0  0  0  0  0
    3.1656    1.9564    0.0000 C   0  0  0  0  0  0  0  0  0
    3.8801    2.3689    0.0000 C   0  0  0  0  0  0  0  0  0
    4.5946    1.9564    0.0000 C   0  0  0  0  0  0  0  0  0
    4.5946    1.1314    0.0000 C   0  0  0  0  0  0  0  0  0
    3.8801    0.7189    0.0000 C   0  0  0  0  0  0  0  0  0
    3.8801   -0.1061    0.0000 O   0  0  0  0  0  0  0  0  0
    4.5946   -0.5186    0.0000 C   0  0  0  0  0  0  0  0  0
    5.3090   -0.1061    0.0000 C   0  0  0  0  0  0  0  0  0
    6.0235   -0.5186    0.0000 C   0  0  0  0  0  0  0  0  0
    6.0235   -1.3436    0.0000 C   0  0  0  0  0  0  0  0  0
    5.3090   -1.7561    0.0000 C   0  0  0  0  0  0  0  0  0
    4.5946   -1.3436    0.0000 C   0  0  0  0  0  0  0  0  0
   -0.5897   -3.2806    0.0000 C   0  0  0  0  0  0  0  0  0
   -0.2541   -4.0343    0.0000 O   0  0  0  0  0  0  0  0  0
  1  2  4  0  0  0  0
  1  5  4  0  0  0  0
  2  3  4  0  0  0  0
  3  4  4  0  0  0  0
  3 26  1  0  0  0  0
  4  5  4  0  0  0  0
  5  6  1  0  0  0  0
  6  7  1  0  0  0  0
  7  8  1  0  0  0  0
  7 12  1  0  0  0  0
  8  9  1  0  0  0  0
  9 10  1  0  0  0  0
 10 11  1  0  0  0  0
 10 13  1  0  0  0  0
 11 12  1  0  0  0  0
 13 14  4  0  0  0  0
 13 18  4  0  0  0  0
 14 15  4  0  0  0  0
 15 16  4  0  0  0  0
 16 17  4  0  0  0  0
 17 18  4  0  0  0  0
 18 19  1  0  0  0  0
 19 20  1  0  0  0  0
 20 21  4  0  0  0  0
 20 25  4  0  0  0  0
 21 22  4  0  0  0  0
 22 23  4  0  0  0  0
 23 24  4  0  0  0  0
 24 25  4  0  0  0  0
 26 27  1  0  0  0  0
M  END
>  <Name_Molregno>
128554

>  <Alpha-1A>
5.82

>  <Alpha-1B>
5.43

$$$$
128586
  Marvin  02231216192D 0   1.00000     0.00000     0

 30 33  0  0  0  0  0  0  0  0999 V2000
    0.8565   -1.6441    0.0000 O   0  0  0  0  0  0  0  0  0
    0.6015   -2.4288    0.0000 N   0  0  0  0  0  0  0  0  0
   -0.2235   -2.4288    0.0000 C   0  0  0  0  0  0  0  0  0
   -0.4784   -1.6441    0.0000 C   0  0  0  0  0  0  0  0  0
    0.1890   -1.1592    0.0000 C   0  0  0  0  0  0  0  0  0
    0.1890   -0.3342    0.0000 C   0  0  0  0  0  0  0  0  0
    0.9035    0.0783    0.0000 N   0  0  0  0  0  0  0  0  0
    0.9035    0.9033    0.0000 C   0  0  0  0  0  0  0  0  0
    1.6180    1.3158    0.0000 C   0  0  0  0  0  0  0  0  0
    2.3324    0.9033    0.0000 N   0  0  0  0  0  0  0  0  0
    2.3324    0.0783    0.0000 C   0  0  0  0  0  0  0  0  0
    1.6180   -0.3342    0.0000 C   0  0  0  0  0  0  0  0  0
    3.0469    1.3158    0.0000 C   0  0  0  0  0  0  0  0  0
    3.0469    2.1408    0.0000 C   0  0  0  0  0  0  0  0  0
    3.7614    2.5533    0.0000 C   0  0  0  0  0  0  0  0  0
    4.4758    2.1408    0.0000 C   0  0  0  0  0  0  0  0  0
    4.4758    1.3158    0.0000 C   0  0  0  0  0  0  0  0  0
    3.7614    0.9033    0.0000 C   0  0  0  0  0  0  0  0  0
    3.7614    0.0783    0.0000 O   0  0  0  0  0  0  0  0  0
    4.4758   -0.3342    0.0000 C   0  0  0  0  0  0  0  0  0
    4.4758   -1.1592    0.0000 C   0  0  0  0  0  0  0  0  0
    5.1903    0.0783    0.0000 C   0  0  0  0  0  0  0  0  0
   -0.7084   -3.0962    0.0000 C   0  0  0  0  0  0  0  0  0
   -1.5289   -3.0100    0.0000 N   0  0  0  0  0  0  0  0  0
   -2.0138   -3.6774    0.0000 C   0  0  0  0  0  0  0  0  0
   -2.8343   -3.5912    0.0000 C   0  0  0  0  0  0  0  0  0
   -3.1698   -2.8375    0.0000 C   0  0  0  0  0  0  0  0  0
   -2.6849   -2.1700    0.0000 C   0  0  0  0  0  0  0  0  0
   -1.8644   -2.2563    0.0000 C   0  0  0  0  0  0  0  0  0
   -1.3795   -1.5888    0.0000 O   0  0  0  0  0  0  0  0  0
  1  2  4  0  0  0  0
  1  5  4  0  0  0  0
  2  3  4  0  0  0  0
  3  4  4  0  0  0  0
  3 23  1  0  0  0  0
  4  5  4  0  0  0  0
  5  6  1  0  0  0  0
  6  7  1  0  0  0  0
  7  8  1  0  0  0  0
  7 12  1  0  0  0  0
  8  9  1  0  0  0  0
  9 10  1  0  0  0  0
 10 11  1  0  0  0  0
 10 13  1  0  0  0  0
 11 12  1  0  0  0  0
 13 14  4  0  0  0  0
 13 18  4  0  0  0  0
 14 15  4  0  0  0  0
 15 16  4  0  0  0  0
 16 17  4  0  0  0  0
 17 18  4  0  0  0  0
 18 19  1  0  0  0  0
 19 20  1  0  0  0  0
 20 21  1  0  0  0  0
 20 22  1  0  0  0  0
 23 24  1  0  0  0  0
 24 25  1  0  0  0  0
 24 29  1  0  0  0  0
 25 26  1  0  0  0  0
 26 27  1  0  0  0  0
 27 28  1  0  0  0  0
 28 29  1  0  0  0  0
 29 30  2  0  0  0  0
M  END
>  <Name_Molregno>
128586

>  <Alpha-1A>
8.08

>  <Alpha-1B>
5.3

$$$$
128674
  Marvin  02231216192D 0   1.00000     0.00000     0

 30 33  0  0  0  0  0  0  0  0999 V2000
    0.8565   -1.6441    0.0000 O   0  0  0  0  0  0  0  0  0
    0.6015   -2.4288    0.0000 C   0  0  0  0  0  0  0  0  0
   -0.2235   -2.4288    0.0000 C   0  0  0  0  0  0  0  0  0
   -0.4784   -1.6441    0.0000 N   0  0  0  0  0  0  0  0  0
    0.1890   -1.1592    0.0000 C   0  0  0  0  0  0  0  0  0
    0.1890   -0.3342    0.0000 C   0  0  0  0  0  0  0  0  0
    0.9035    0.0783    0.0000 N   0  0  0  0  0  0  0  0  0
    0.9035    0.9033    0.0000 C   0  0  0  0  0  0  0  0  0
    1.6180    1.3158    0.0000 C   0  0  0  0  0  0  0  0  0
    2.3324    0.9033    0.0000 N   0  0  0  0  0  0  0  0  0
    2.3324    0.0783    0.0000 C   0  0  0  0  0  0  0  0  0
    1.6180   -0.3342    0.0000 C   0  0  0  0  0  0  0  0  0
    3.0469    1.3158    0.0000 C   0  0  0  0  0  0  0  0  0
    3.0469    2.1408    0.0000 C   0  0  0  0  0  0  0  0  0
    3.7614    2.5533    0.0000 C   0  0  0  0  0  0  0  0  0
    4.4758    2.1408    0.0000 C   0  0  0  0  0  0  0  0  0
    4.4758    1.3158    0.0000 C   0  0  0  0  0  0  0  0  0
    3.7614    0.9033    0.0000 C   0  0  0  0  0  0  0  0  0
    3.7614    0.0783    0.0000 O   0  0  0  0  0  0  0  0  0
    4.4758   -0.3342    0.0000 C   0  0  0  0  0  0  0  0  0
    4.4758   -1.1592    0.0000 C   0  0  0  0  0  0  0  0  0
    5.1903    0.0783    0.0000 C   0  0  0  0  0  0  0  0  0
   -0.7084   -3.0962    0.0000 C   0  0  0  0  0  0  0  0  0
   -1.5289   -3.0100    0.0000 N   0  0  0  0  0  0  0  0  0
   -2.0138   -3.6774    0.0000 C   0  0  0  0  0  0  0  0  0
   -2.8343   -3.5912    0.0000 C   0  0  0  0  0  0  0  0  0
   -3.1698   -2.8375    0.0000 C   0  0  0  0  0  0  0  0  0
   -2.6849   -2.1700    0.0000 C   0  0  0  0  0  0  0  0  0
   -1.8644   -2.2563    0.0000 C   0  0  0  0  0  0  0  0  0
   -1.3795   -1.5888    0.0000 O   0  0  0  0  0  0  0  0  0
  1  2  4  0  0  0  0
  1  5  4  0  0  0  0
  2  3  4  0  0  0  0
  3  4  4  0  0  0  0
  3 23  1  0  0  0  0
  4  5  4  0  0  0  0
  5  6  1  0  0  0  0
  6  7  1  0  0  0  0
  7  8  1  0  0  0  0
  7 12  1  0  0  0  0
  8  9  1  0  0  0  0
  9 10  1  0  0  0  0
 10 11  1  0  0  0  0
 10 13  1  0  0  0  0
 11 12  1  0  0  0  0
 13 14  4  0  0  0  0
 13 18  4  0  0  0  0
 14 15  4  0  0  0  0
 15 16  4  0  0  0  0
 16 17  4  0  0  0  0
 17 18  4  0  0  0  0
 18 19  1  0  0  0  0
 19 20  1  0  0  0  0
 20 21  1  0  0  0  0
 20 22  1  0  0  0  0
 23 24  1  0  0  0  0
 24 25  1  0  0  0  0
 24 29  1  0  0  0  0
 25 26  1  0  0  0  0
 26 27  1  0  0  0  0
 27 28  1  0  0  0  0
 28 29  1  0  0  0  0
 29 30  2  0  0  0  0
M  END
>  <Name_Molregno>
128674

>  <Alpha-1A>
5.63

>  <Alpha-1B>
5.3

$$$$
128712
  Marvin  02231216192D 0   1.00000     0.00000     0

 34 38  0  0  0  0  0  0  0  0999 V2000
    0.8421   -0.6751    0.0000 O   0  0  0  0  0  0  0  0  0
    0.5872   -1.4598    0.0000 N   0  0  0  0  0  0  0  0  0
   -0.2378   -1.4598    0.0000 C   0  0  0  0  0  0  0  0  0
   -0.4928   -0.6751    0.0000 C   0  0  0  0  0  0  0  0  0
    0.1747   -0.1902    0.0000 C   0  0  0  0  0  0  0  0  0
    0.1747    0.6348    0.0000 C   0  0  0  0  0  0  0  0  0
    0.8891    1.0473    0.0000 N   0  0  0  0  0  0  0  0  0
    0.8891    1.8723    0.0000 C   0  0  0  0  0  0  0  0  0
    1.6036    2.2848    0.0000 C   0  0  0  0  0  0  0  0  0
    2.3181    1.8723    0.0000 N   0  0  0  0  0  0  0  0  0
    2.3181    1.0473    0.0000 C   0  0  0  0  0  0  0  0  0
    1.6036    0.6348    0.0000 C   0  0  0  0  0  0  0  0  0
    3.0326    2.2848    0.0000 C   0  0  0  0  0  0  0  0  0
    3.0326    3.1098    0.0000 C   0  0  0  0  0  0  0  0  0
    3.7470    3.5223    0.0000 C   0  0  0  0  0  0  0  0  0
    4.4615    3.1098    0.0000 C   0  0  0  0  0  0  0  0  0
    4.4615    2.2848    0.0000 C   0  0  0  0  0  0  0  0  0
    3.7470    1.8723    0.0000 C   0  0  0  0  0  0  0  0  0
    3.7470    1.0473    0.0000 O   0  0  0  0  0  0  0  0  0
    4.4615    0.6348    0.0000 C   0  0  0  0  0  0  0  0  0
    5.1760    1.0473    0.0000 C   0  0  0  0  0  0  0  0  0
    5.8904    0.6348    0.0000 C   0  0  0  0  0  0  0  0  0
    5.8904   -0.1902    0.0000 C   0  0  0  0  0  0  0  0  0
    5.1760   -0.6027    0.0000 C   0  0  0  0  0  0  0  0  0
    4.4615   -0.1902    0.0000 C   0  0  0  0  0  0  0  0  0
   -0.7227   -2.1272    0.0000 C   0  0  0  0  0  0  0  0  0
   -1.5432   -2.0410    0.0000 N   0  0  0  0  0  0  0  0  0
   -1.9769   -2.7428    0.0000 C   0  0  0  0  0  0  0  0  0
   -2.7960   -2.8413    0.0000 C   0  0  0  0  0  0  0  0  0
   -3.3837   -2.2623    0.0000 C   0  0  0  0  0  0  0  0  0
   -3.2975   -1.4418    0.0000 C   0  0  0  0  0  0  0  0  0
   -2.6022   -0.9977    0.0000 C   0  0  0  0  0  0  0  0  0
   -1.8215   -1.2643    0.0000 C   0  0  0  0  0  0  0  0  0
   -1.2425   -0.6766    0.0000 O   0  0  0  0  0  0  0  0  0
  1  2  4  0  0  0  0
  1  5  4  0  0  0  0
  2  3  4  0  0  0  0
  3  4  4  0  0  0  0
  3 26  1  0  0  0  0
  4  5  4  0  0  0  0
  5  6  1  0  0  0  0
  6  7  1  0  0  0  0
  7  8  1  0  0  0  0
  7 12  1  0  0  0  0
  8  9  1  0  0  0  0
  9 10  1  0  0  0  0
 10 11  1  0  0  0  0
 10 13  1  0  0  0  0
 11 12  1  0  0  0  0
 13 14  4  0  0  0  0
 13 18  4  0  0  0  0
 14 15  4  0  0  0  0
 15 16  4  0  0  0  0
 16 17  4  0  0  0  0
 17 18  4  0  0  0  0
 18 19  1  0  0  0  0
 19 20  1  0  0  0  0
 20 21  4  0  0  0  0
 20 25  4  0  0  0  0
 21 22  4  0  0  0  0
 22 23  4  0  0  0  0
 23 24  4  0  0  0  0
 24 25  4  0  0  0  0
 26 27  1  0  0  0  0
 27 28  1  0  0  0  0
 27 33  1  0  0  0  0
 28 29  1  0  0  0  0
 29 30  1  0  0  0  0
 30 31  1  0  0  0  0
 31 32  1  0  0  0  0
 32 33  1  0  0  0  0
 33 34  2  0  0  0  0
M  END
>  <Name_Molregno>
128712

>  <Alpha-1A>
7.07

>  <Alpha-1B>
5.3

$$$$
129159
  Marvin  02231216192D 0   1.00000     0.00000     0

 29 32  0  0  0  0  0  0  0  0999 V2000
    0.8578   -1.6617    0.0000 O   0  0  0  0  0  0  0  0  0
    0.6029   -2.4464    0.0000 C   0  0  0  0  0  0  0  0  0
   -0.2221   -2.4464    0.0000 C   0  0  0  0  0  0  0  0  0
   -0.4771   -1.6617    0.0000 N   0  0  0  0  0  0  0  0  0
    0.1904   -1.1768    0.0000 C   0  0  0  0  0  0  0  0  0
    0.1904   -0.3518    0.0000 C   0  0  0  0  0  0  0  0  0
    0.9048    0.0607    0.0000 N   0  0  0  0  0  0  0  0  0
    0.9048    0.8857    0.0000 C   0  0  0  0  0  0  0  0  0
    1.6193    1.2982    0.0000 C   0  0  0  0  0  0  0  0  0
    2.3338    0.8857    0.0000 N   0  0  0  0  0  0  0  0  0
    2.3338    0.0607    0.0000 C   0  0  0  0  0  0  0  0  0
    1.6193   -0.3518    0.0000 C   0  0  0  0  0  0  0  0  0
    3.0482    1.2982    0.0000 C   0  0  0  0  0  0  0  0  0
    3.0482    2.1232    0.0000 C   0  0  0  0  0  0  0  0  0
    3.7627    2.5357    0.0000 C   0  0  0  0  0  0  0  0  0
    4.4772    2.1232    0.0000 C   0  0  0  0  0  0  0  0  0
    4.4772    1.2982    0.0000 C   0  0  0  0  0  0  0  0  0
    3.7627    0.8857    0.0000 C   0  0  0  0  0  0  0  0  0
    3.7627    0.0607    0.0000 O   0  0  0  0  0  0  0  0  0
    4.4772   -0.3518    0.0000 C   0  0  0  0  0  0  0  0  0
    4.4772   -1.1768    0.0000 C   0  0  0  0  0  0  0  0  0
    5.1917    0.0607    0.0000 C   0  0  0  0  0  0  0  0  0
   -0.7071   -3.1138    0.0000 C   0  0  0  0  0  0  0  0  0
   -1.5275   -3.0276    0.0000 N   0  0  0  0  0  0  0  0  0
   -2.0796   -3.6407    0.0000 C   0  0  0  0  0  0  0  0  0
   -2.8333   -3.3051    0.0000 C   0  0  0  0  0  0  0  0  0
   -2.7470   -2.4846    0.0000 C   0  0  0  0  0  0  0  0  0
   -1.9400   -2.3131    0.0000 C   0  0  0  0  0  0  0  0  0
   -1.6045   -1.5594    0.0000 O   0  0  0  0  0  0  0  0  0
  1  2  4  0  0  0  0
  1  5  4  0  0  0  0
  2  3  4  0  0  0  0
  3  4  4  0  0  0  0
  3 23  1  0  0  0  0
  4  5  4  0  0  0  0
  5  6  1  0  0  0  0
  6  7  1  0  0  0  0
  7  8  1  0  0  0  0
  7 12  1  0  0  0  0
  8  9  1  0  0  0  0
  9 10  1  0  0  0  0
 10 11  1  0  0  0  0
 10 13  1  0  0  0  0
 11 12  1  0  0  0  0
 13 14  4  0  0  0  0
 13 18  4  0  0  0  0
 14 15  4  0  0  0  0
 15 16  4  0  0  0  0
 16 17  4  0  0  0  0
 17 18  4  0  0  0  0
 18 19  1  0  0  0  0
 19 20  1  0  0  0  0
 20 21  1  0  0  0  0
 20 22  1  0  0  0  0
 23 24  1  0  0  0  0
 24 25  1  0  0  0  0
 24 28  1  0  0  0  0
 25 26  1  0  0  0  0
 26 27  1  0  0  0  0
 27 28  1  0  0  0  0
 28 29  2  0  0  0  0
M  END
>  <Name_Molregno>
129159

>  <Alpha-1A>
5.89

>  <Alpha-1B>
5.3

$$$$
129194
  Marvin  02231216192D 0   1.00000     0.00000     0

 29 32  0  0  0  0  0  0  0  0999 V2000
    0.8578   -1.6617    0.0000 O   0  0  0  0  0  0  0  0  0
    0.6029   -2.4464    0.0000 N   0  0  0  0  0  0  0  0  0
   -0.2221   -2.4464    0.0000 C   0  0  0  0  0  0  0  0  0
   -0.4771   -1.6617    0.0000 C   0  0  0  0  0  0  0  0  0
    0.1904   -1.1768    0.0000 C   0  0  0  0  0  0  0  0  0
    0.1904   -0.3518    0.0000 C   0  0  0  0  0  0  0  0  0
    0.9048    0.0607    0.0000 N   0  0  0  0  0  0  0  0  0
    0.9048    0.8857    0.0000 C   0  0  0  0  0  0  0  0  0
    1.6193    1.2982    0.0000 C   0  0  0  0  0  0  0  0  0
    2.3338    0.8857    0.0000 N   0  0  0  0  0  0  0  0  0
    2.3338    0.0607    0.0000 C   0  0  0  0  0  0  0  0  0
    1.6193   -0.3518    0.0000 C   0  0  0  0  0  0  0  0  0
    3.0482    1.2982    0.0000 C   0  0  0  0  0  0  0  0  0
    3.0482    2.1232    0.0000 C   0  0  0  0  0  0  0  0  0
    3.7627    2.5357    0.0000 C   0  0  0  0  0  0  0  0  0
    4.4772    2.1232    0.0000 C   0  0  0  0  0  0  0  0  0
    4.4772    1.2982    0.0000 C   0  0  0  0  0  0  0  0  0
    3.7627    0.8857    0.0000 C   0  0  0  0  0  0  0  0  0
    3.7627    0.0607    0.0000 O   0  0  0  0  0  0  0  0  0
    4.4772   -0.3518    0.0000 C   0  0  0  0  0  0  0  0  0
    4.4772   -1.1768    0.0000 C   0  0  0  0  0  0  0  0  0
    5.1917    0.0607    0.0000 C   0  0  0  0  0  0  0  0  0
   -0.7071   -3.1138    0.0000 C   0  0  0  0  0  0  0  0  0
   -1.5275   -3.0276    0.0000 N   0  0  0  0  0  0  0  0  0
   -2.0796   -3.6407    0.0000 C   0  0  0  0  0  0  0  0  0
   -2.8333   -3.3051    0.0000 C   0  0  0  0  0  0  0  0  0
   -2.7470   -2.4846    0.0000 C   0  0  0  0  0  0  0  0  0
   -1.9400   -2.3131    0.0000 C   0  0  0  0  0  0  0  0  0
   -1.6045   -1.5594    0.0000 O   0  0  0  0  0  0  0  0  0
  1  2  4  0  0  0  0
  1  5  4  0  0  0  0
  2  3  4  0  0  0  0
  3  4  4  0  0  0  0
  3 23  1  0  0  0  0
  4  5  4  0  0  0  0
  5  6  1  0  0  0  0
  6  7  1  0  0  0  0
  7  8  1  0  0  0  0
  7 12  1  0  0  0  0
  8  9  1  0  0  0  0
  9 10  1  0  0  0  0
 10 11  1  0  0  0  0
 10 13  1  0  0  0  0
 11 12  1  0  0  0  0
 13 14  4  0  0  0  0
 13 18  4  0  0  0  0
 14 15  4  0  0  0  0
 15 16  4  0  0  0  0
 16 17  4  0  0  0  0
 17 18  4  0  0  0  0
 18 19  1  0  0  0  0
 19 20  1  0  0  0  0
 20 21  1  0  0  0  0
 20 22  1  0  0  0  0
 23 24  1  0  0  0  0
 24 25  1  0  0  0  0
 24 28  1  0  0  0  0
 25 26  1  0  0  0  0
 26 27  1  0  0  0  0
 27 28  1  0  0  0  0
 28 29  2  0  0  0  0
M  END
>  <Name_Molregno>
129194

>  <Alpha-1A>
8.96

>  <Alpha-1B>
5.52

$$$$
129215
  Marvin  02231216192D 0   1.00000     0.00000     0

 29 32  0  0  0  0  0  0  0  0999 V2000
    0.8578   -1.6617    0.0000 S   0  0  0  0  0  0  0  0  0
    0.6029   -2.4464    0.0000 C   0  0  0  0  0  0  0  0  0
   -0.2221   -2.4464    0.0000 C   0  0  0  0  0  0  0  0  0
   -0.4771   -1.6617    0.0000 N   0  0  0  0  0  0  0  0  0
    0.1904   -1.1768    0.0000 C   0  0  0  0  0  0  0  0  0
    0.1904   -0.3518    0.0000 C   0  0  0  0  0  0  0  0  0
    0.9048    0.0607    0.0000 N   0  0  0  0  0  0  0  0  0
    0.9048    0.8857    0.0000 C   0  0  0  0  0  0  0  0  0
    1.6193    1.2982    0.0000 C   0  0  0  0  0  0  0  0  0
    2.3338    0.8857    0.0000 N   0  0  0  0  0  0  0  0  0
    2.3338    0.0607    0.0000 C   0  0  0  0  0  0  0  0  0
    1.6193   -0.3518    0.0000 C   0  0  0  0  0  0  0  0  0
    3.0482    1.2982    0.0000 C   0  0  0  0  0  0  0  0  0
    3.0482    2.1232    0.0000 C   0  0  0  0  0  0  0  0  0
    3.7627    2.5357    0.0000 C   0  0  0  0  0  0  0  0  0
    4.4772    2.1232    0.0000 C   0  0  0  0  0  0  0  0  0
    4.4772    1.2982    0.0000 C   0  0  0  0  0  0  0  0  0
    3.7627    0.8857    0.0000 C   0  0  0  0  0  0  0  0  0
    3.7627    0.0607    0.0000 O   0  0  0  0  0  0  0  0  0
    4.4772   -0.3518    0.0000 C   0  0  0  0  0  0  0  0  0
    4.4772   -1.1768    0.0000 C   0  0  0  0  0  0  0  0  0
    5.1917    0.0607    0.0000 C   0  0  0  0  0  0  0  0  0
   -0.7071   -3.1138    0.0000 C   0  0  0  0  0  0  0  0  0
   -1.5275   -3.0276    0.0000 N   0  0  0  0  0  0  0  0  0
   -2.0796   -3.6407    0.0000 C   0  0  0  0  0  0  0  0  0
   -2.8333   -3.3051    0.0000 C   0  0  0  0  0  0  0  0  0
   -2.7470   -2.4846    0.0000 C   0  0  0  0  0  0  0  0  0
   -1.9400   -2.3131    0.0000 C   0  0  0  0  0  0  0  0  0
   -1.6045   -1.5594    0.0000 O   0  0  0  0  0  0  0  0  0
  1  2  4  0  0  0  0
  1  5  4  0  0  0  0
  2  3  4  0  0  0  0
  3  4  4  0  0  0  0
  3 23  1  0  0  0  0
  4  5  4  0  0  0  0
  5  6  1  0  0  0  0
  6  7  1  0  0  0  0
  7  8  1  0  0  0  0
  7 12  1  0  0  0  0
  8  9  1  0  0  0  0
  9 10  1  0  0  0  0
 10 11  1  0  0  0  0
 10 13  1  0  0  0  0
 11 12  1  0  0  0  0
 13 14  4  0  0  0  0
 13 18  4  0  0  0  0
 14 15  4  0  0  0  0
 15 16  4  0  0  0  0
 16 17  4  0  0  0  0
 17 18  4  0  0  0  0
 18 19  1  0  0  0  0
 19 20  1  0  0  0  0
 20 21  1  0  0  0  0
 20 22  1  0  0  0  0
 23 24  1  0  0  0  0
 24 25  1  0  0  0  0
 24 28  1  0  0  0  0
 25 26  1  0  0  0  0
 26 27  1  0  0  0  0
 27 28  1  0  0  0  0
 28 29  2  0  0  0  0
M  END
>  <Name_Molregno>
129215

>  <Alpha-1A>
9.05

>  <Alpha-1B>
5.37

$$$$
129233
  Marvin  02231216192D 0   1.00000     0.00000     0

 33 37  0  0  0  0  0  0  0  0999 V2000
    0.8456   -0.6736    0.0000 O   0  0  0  0  0  0  0  0  0
    0.5906   -1.4582    0.0000 N   0  0  0  0  0  0  0  0  0
   -0.2344   -1.4582    0.0000 C   0  0  0  0  0  0  0  0  0
   -0.4893   -0.6736    0.0000 C   0  0  0  0  0  0  0  0  0
    0.1781   -0.1887    0.0000 C   0  0  0  0  0  0  0  0  0
    0.1781    0.6363    0.0000 C   0  0  0  0  0  0  0  0  0
    0.8926    1.0488    0.0000 N   0  0  0  0  0  0  0  0  0
    0.8926    1.8738    0.0000 C   0  0  0  0  0  0  0  0  0
    1.6071    2.2863    0.0000 C   0  0  0  0  0  0  0  0  0
    2.3215    1.8738    0.0000 N   0  0  0  0  0  0  0  0  0
    2.3215    1.0488    0.0000 C   0  0  0  0  0  0  0  0  0
    1.6071    0.6363    0.0000 C   0  0  0  0  0  0  0  0  0
    3.0360    2.2863    0.0000 C   0  0  0  0  0  0  0  0  0
    3.0360    3.1113    0.0000 C   0  0  0  0  0  0  0  0  0
    3.7505    3.5238    0.0000 C   0  0  0  0  0  0  0  0  0
    4.4650    3.1113    0.0000 C   0  0  0  0  0  0  0  0  0
    4.4650    2.2863    0.0000 C   0  0  0  0  0  0  0  0  0
    3.7505    1.8738    0.0000 C   0  0  0  0  0  0  0  0  0
    3.7505    1.0488    0.0000 O   0  0  0  0  0  0  0  0  0
    4.4650    0.6363    0.0000 C   0  0  0  0  0  0  0  0  0
    5.1794    1.0488    0.0000 C   0  0  0  0  0  0  0  0  0
    5.8939    0.6363    0.0000 C   0  0  0  0  0  0  0  0  0
    5.8939   -0.1887    0.0000 C   0  0  0  0  0  0  0  0  0
    5.1794   -0.6012    0.0000 C   0  0  0  0  0  0  0  0  0
    4.4650   -0.1887    0.0000 C   0  0  0  0  0  0  0  0  0
   -0.7193   -2.1257    0.0000 C   0  0  0  0  0  0  0  0  0
   -1.5398   -2.0394    0.0000 N   0  0  0  0  0  0  0  0  0
   -2.0247   -2.7069    0.0000 C   0  0  0  0  0  0  0  0  0
   -2.8452   -2.6206    0.0000 C   0  0  0  0  0  0  0  0  0
   -3.1807   -1.8670    0.0000 C   0  0  0  0  0  0  0  0  0
   -2.6958   -1.1995    0.0000 C   0  0  0  0  0  0  0  0  0
   -1.8753   -1.2858    0.0000 C   0  0  0  0  0  0  0  0  0
   -1.3904   -0.6183    0.0000 O   0  0  0  0  0  0  0  0  0
  1  2  4  0  0  0  0
  1  5  4  0  0  0  0
  2  3  4  0  0  0  0
  3  4  4  0  0  0  0
  3 26  1  0  0  0  0
  4  5  4  0  0  0  0
  5  6  1  0  0  0  0
  6  7  1  0  0  0  0
  7  8  1  0  0  0  0
  7 12  1  0  0  0  0
  8  9  1  0  0  0  0
  9 10  1  0  0  0  0
 10 11  1  0  0  0  0
 10 13  1  0  0  0  0
 11 12  1  0  0  0  0
 13 14  4  0  0  0  0
 13 18  4  0  0  0  0
 14 15  4  0  0  0  0
 15 16  4  0  0  0  0
 16 17  4  0  0  0  0
 17 18  4  0  0  0  0
 18 19  1  0  0  0  0
 19 20  1  0  0  0  0
 20 21  4  0  0  0  0
 20 25  4  0  0  0  0
 21 22  4  0  0  0  0
 22 23  4  0  0  0  0
 23 24  4  0  0  0  0
 24 25  4  0  0  0  0
 26 27  1  0  0  0  0
 27 28  1  0  0  0  0
 27 32  1  0  0  0  0
 28 29  1  0  0  0  0
 29 30  1  0  0  0  0
 30 31  1  0  0  0  0
 31 32  1  0  0  0  0
 32 33  2  0  0  0  0
M  END
>  <Name_Molregno>
129233

>  <Alpha-1A>
7.82

>  <Alpha-1B>
5.66

$$$$
129280
  Marvin  02231216192D 0   1.00000     0.00000     0

 31 34  0  0  0  0  0  0  0  0999 V2000
    0.8612   -1.6400    0.0000 O   0  0  0  0  0  0  0  0  0
    0.6063   -2.4246    0.0000 C   0  0  0  0  0  0  0  0  0
   -0.2187   -2.4246    0.0000 C   0  0  0  0  0  0  0  0  0
   -0.4737   -1.6400    0.0000 N   0  0  0  0  0  0  0  0  0
    0.1938   -1.1550    0.0000 C   0  0  0  0  0  0  0  0  0
    0.1938   -0.3300    0.0000 C   0  0  0  0  0  0  0  0  0
    0.9082    0.0825    0.0000 N   0  0  0  0  0  0  0  0  0
    0.9082    0.9075    0.0000 C   0  0  0  0  0  0  0  0  0
    1.6227    1.3200    0.0000 C   0  0  0  0  0  0  0  0  0
    2.3372    0.9075    0.0000 N   0  0  0  0  0  0  0  0  0
    2.3372    0.0825    0.0000 C   0  0  0  0  0  0  0  0  0
    1.6227   -0.3300    0.0000 C   0  0  0  0  0  0  0  0  0
    3.0516    1.3200    0.0000 C   0  0  0  0  0  0  0  0  0
    3.0516    2.1450    0.0000 C   0  0  0  0  0  0  0  0  0
    3.7661    2.5575    0.0000 C   0  0  0  0  0  0  0  0  0
    4.4806    2.1450    0.0000 C   0  0  0  0  0  0  0  0  0
    4.4806    1.3200    0.0000 C   0  0  0  0  0  0  0  0  0
    3.7661    0.9075    0.0000 C   0  0  0  0  0  0  0  0  0
    3.7661    0.0825    0.0000 O   0  0  0  0  0  0  0  0  0
    4.4806   -0.3300    0.0000 C   0  0  0  0  0  0  0  0  0
    4.4806   -1.1550    0.0000 C   0  0  0  0  0  0  0  0  0
    5.1950    0.0825    0.0000 C   0  0  0  0  0  0  0  0  0
   -0.7037   -3.0920    0.0000 C   0  0  0  0  0  0  0  0  0
   -1.5242   -3.0058    0.0000 N   0  0  0  0  0  0  0  0  0
   -1.9578   -3.7076    0.0000 C   0  0  0  0  0  0  0  0  0
   -2.7769   -3.8061    0.0000 C   0  0  0  0  0  0  0  0  0
   -3.3647   -3.2271    0.0000 C   0  0  0  0  0  0  0  0  0
   -3.2784   -2.4066    0.0000 C   0  0  0  0  0  0  0  0  0
   -2.5832   -1.9625    0.0000 C   0  0  0  0  0  0  0  0  0
   -1.8024   -2.2291    0.0000 C   0  0  0  0  0  0  0  0  0
   -1.2235   -1.6414    0.0000 O   0  0  0  0  0  0  0  0  0
  1  2  4  0  0  0  0
  1  5  4  0  0  0  0
  2  3  4  0  0  0  0
  3  4  4  0  0  0  0
  3 23  1  0  0  0  0
  4  5  4  0  0  0  0
  5  6  1  0  0  0  0
  6  7  1  0  0  0  0
  7  8  1  0  0  0  0
  7 12  1  0  0  0  0
  8  9  1  0  0  0  0
  9 10  1  0  0  0  0
 10 11  1  0  0  0  0
 10 13  1  0  0  0  0
 11 12  1  0  0  0  0
 13 14  4  0  0  0  0
 13 18  4  0  0  0  0
 14 15  4  0  0  0  0
 15 16  4  0  0  0  0
 16 17  4  0  0  0  0
 17 18  4  0  0  0  0
 18 19  1  0  0  0  0
 19 20  1  0  0  0  0
 20 21  1  0  0  0  0
 20 22  1  0  0  0  0
 23 24  1  0  0  0  0
 24 25  1  0  0  0  0
 24 30  1  0  0  0  0
 25 26  1  0  0  0  0
 26 27  1  0  0  0  0
 27 28  1  0  0  0  0
 28 29  1  0  0  0  0
 29 30  1  0  0  0  0
 30 31  2  0  0  0  0
M  END
>  <Name_Molregno>
129280

>  <Alpha-1A>
5.46

>  <Alpha-1B>
5.3

$$$$
129334
  Marvin  02231216192D 0   1.00000     0.00000     0

 32 36  0  0  0  0  0  0  0  0999 V2000
    0.8591   -1.3242    0.0000 O   0  0  0  0  0  0  0  0  0
    0.6041   -2.1089    0.0000 N   0  0  0  0  0  0  0  0  0
   -0.2209   -2.1089    0.0000 C   0  0  0  0  0  0  0  0  0
   -0.4758   -1.3242    0.0000 C   0  0  0  0  0  0  0  0  0
    0.1916   -0.8393    0.0000 C   0  0  0  0  0  0  0  0  0
    0.1916   -0.0143    0.0000 C   0  0  0  0  0  0  0  0  0
    0.9061    0.3982    0.0000 N   0  0  0  0  0  0  0  0  0
    0.9061    1.2232    0.0000 C   0  0  0  0  0  0  0  0  0
    1.6206    1.6357    0.0000 C   0  0  0  0  0  0  0  0  0
    2.3350    1.2232    0.0000 N   0  0  0  0  0  0  0  0  0
    2.3350    0.3982    0.0000 C   0  0  0  0  0  0  0  0  0
    1.6206   -0.0143    0.0000 C   0  0  0  0  0  0  0  0  0
    3.0495    1.6357    0.0000 C   0  0  0  0  0  0  0  0  0
    3.0495    2.4607    0.0000 C   0  0  0  0  0  0  0  0  0
    3.7640    2.8732    0.0000 C   0  0  0  0  0  0  0  0  0
    4.4784    2.4607    0.0000 C   0  0  0  0  0  0  0  0  0
    4.4784    1.6357    0.0000 C   0  0  0  0  0  0  0  0  0
    3.7640    1.2232    0.0000 C   0  0  0  0  0  0  0  0  0
    3.7640    0.3982    0.0000 O   0  0  0  0  0  0  0  0  0
    4.4784   -0.0143    0.0000 C   0  0  0  0  0  0  0  0  0
    5.1929    0.3982    0.0000 C   0  0  0  0  0  0  0  0  0
    5.9074   -0.0143    0.0000 C   0  0  0  0  0  0  0  0  0
    5.9074   -0.8393    0.0000 C   0  0  0  0  0  0  0  0  0
    5.1929   -1.2518    0.0000 C   0  0  0  0  0  0  0  0  0
    4.4784   -0.8393    0.0000 C   0  0  0  0  0  0  0  0  0
   -0.7058   -2.7763    0.0000 C   0  0  0  0  0  0  0  0  0
   -1.5263   -2.6901    0.0000 N   0  0  0  0  0  0  0  0  0
   -2.0783   -3.3032    0.0000 C   0  0  0  0  0  0  0  0  0
   -2.8320   -2.9676    0.0000 C   0  0  0  0  0  0  0  0  0
   -2.7458   -2.1471    0.0000 C   0  0  0  0  0  0  0  0  0
   -1.9388   -1.9756    0.0000 C   0  0  0  0  0  0  0  0  0
   -1.6032   -1.2219    0.0000 O   0  0  0  0  0  0  0  0  0
  1  2  4  0  0  0  0
  1  5  4  0  0  0  0
  2  3  4  0  0  0  0
  3  4  4  0  0  0  0
  3 26  1  0  0  0  0
  4  5  4  0  0  0  0
  5  6  1  0  0  0  0
  6  7  1  0  0  0  0
  7  8  1  0  0  0  0
  7 12  1  0  0  0  0
  8  9  1  0  0  0  0
  9 10  1  0  0  0  0
 10 11  1  0  0  0  0
 10 13  1  0  0  0  0
 11 12  1  0  0  0  0
 13 14  4  0  0  0  0
 13 18  4  0  0  0  0
 14 15  4  0  0  0  0
 15 16  4  0  0  0  0
 16 17  4  0  0  0  0
 17 18  4  0  0  0  0
 18 19  1  0  0  0  0
 19 20  1  0  0  0  0
 20 21  4  0  0  0  0
 20 25  4  0  0  0  0
 21 22  4  0  0  0  0
 22 23  4  0  0  0  0
 23 24  4  0  0  0  0
 24 25  4  0  0  0  0
 26 27  1  0  0  0  0
 27 28  1  0  0  0  0
 27 31  1  0  0  0  0
 28 29  1  0  0  0  0
 29 30  1  0  0  0  0
 30 31  1  0  0  0  0
 31 32  2  0  0  0  0
M  END
>  <Name_Molregno>
129334

>  <Alpha-1A>
7.55

>  <Alpha-1B>
5.3

$$$$
129427
  Marvin  02231216192D 0   1.00000     0.00000     0

 34 38  0  0  0  0  0  0  0  0999 V2000
    0.2641    0.5268    0.0000 O   0  0  0  0  0  0  0  0  0
    0.4356    1.3338    0.0000 C   0  0  0  0  0  0  0  0  0
    1.2561    1.4200    0.0000 C   0  0  0  0  0  0  0  0  0
    1.5916    0.6664    0.0000 N   0  0  0  0  0  0  0  0  0
    0.9785    0.1143    0.0000 C   0  0  0  0  0  0  0  0  0
    1.0648   -0.7062    0.0000 C   0  0  0  0  0  0  0  0  0
    0.3973   -1.1911    0.0000 N   0  0  0  0  0  0  0  0  0
    0.4836   -2.0116    0.0000 C   0  0  0  0  0  0  0  0  0
   -0.1839   -2.4965    0.0000 C   0  0  0  0  0  0  0  0  0
   -0.9376   -2.1609    0.0000 N   0  0  0  0  0  0  0  0  0
   -1.0238   -1.3404    0.0000 C   0  0  0  0  0  0  0  0  0
   -0.3564   -0.8555    0.0000 C   0  0  0  0  0  0  0  0  0
   -1.6050   -2.6458    0.0000 C   0  0  0  0  0  0  0  0  0
   -1.5188   -3.4663    0.0000 C   0  0  0  0  0  0  0  0  0
   -2.1862   -3.9512    0.0000 C   0  0  0  0  0  0  0  0  0
   -2.9399   -3.6157    0.0000 C   0  0  0  0  0  0  0  0  0
   -3.0261   -2.7952    0.0000 C   0  0  0  0  0  0  0  0  0
   -2.3587   -2.3103    0.0000 C   0  0  0  0  0  0  0  0  0
   -2.4449   -1.4898    0.0000 O   0  0  0  0  0  0  0  0  0
   -3.1986   -1.1542    0.0000 C   0  0  0  0  0  0  0  0  0
   -3.2848   -0.3338    0.0000 C   0  0  0  0  0  0  0  0  0
   -3.8660   -1.6392    0.0000 C   0  0  0  0  0  0  0  0  0
    1.6686    2.1345    0.0000 C   0  0  0  0  0  0  0  0  0
    2.4936    2.1345    0.0000 N   0  0  0  0  0  0  0  0  0
    2.9785    1.4671    0.0000 C   0  0  0  0  0  0  0  0  0
    2.7235    0.6824    0.0000 O   0  0  0  0  0  0  0  0  0
    3.7631    1.7220    0.0000 C   0  0  0  0  0  0  0  0  0
    3.7631    2.5470    0.0000 C   0  0  0  0  0  0  0  0  0
    4.4776    2.9595    0.0000 C   0  0  0  0  0  0  0  0  0
    5.1920    2.5470    0.0000 C   0  0  0  0  0  0  0  0  0
    5.1920    1.7220    0.0000 C   0  0  0  0  0  0  0  0  0
    4.4776    1.3095    0.0000 C   0  0  0  0  0  0  0  0  0
    2.9785    2.8019    0.0000 C   0  0  0  0  0  0  0  0  0
    2.7235    3.5866    0.0000 O   0  0  0  0  0  0  0  0  0
  1  2  4  0  0  0  0
  1  5  4  0  0  0  0
  2  3  4  0  0  0  0
  3  4  4  0  0  0  0
  3 23  1  0  0  0  0
  4  5  4  0  0  0  0
  5  6  1  0  0  0  0
  6  7  1  0  0  0  0
  7  8  1  0  0  0  0
  7 12  1  0  0  0  0
  8  9  1  0  0  0  0
  9 10  1  0  0  0  0
 10 11  1  0  0  0  0
 10 13  1  0  0  0  0
 11 12  1  0  0  0  0
 13 14  4  0  0  0  0
 13 18  4  0  0  0  0
 14 15  4  0  0  0  0
 15 16  4  0  0  0  0
 16 17  4  0  0  0  0
 17 18  4  0  0  0  0
 18 19  1  0  0  0  0
 19 20  1  0  0  0  0
 20 21  1  0  0  0  0
 20 22  1  0  0  0  0
 23 24  1  0  0  0  0
 24 25  1  0  0  0  0
 24 33  1  0  0  0  0
 25 26  2  0  0  0  0
 25 27  1  0  0  0  0
 27 28  4  0  0  0  0
 27 32  4  0  0  0  0
 28 29  4  0  0  0  0
 28 33  1  0  0  0  0
 29 30  4  0  0  0  0
 30 31  4  0  0  0  0
 31 32  4  0  0  0  0
 33 34  2  0  0  0  0
M  END
>  <Name_Molregno>
129427

>  <Alpha-1A>
6.53

>  <Alpha-1B>
5.3

$$$$
131346
  Marvin  02231216192D 0   1.00000     0.00000     0

 31 35  0  0  1  0  0  0  0  0999 V2000
    2.5980    4.3890    0.0000 F   0  0  0  0  0  0  0  0  0
    3.1500    3.7759    0.0000 C   0  0  0  0  0  0  0  0  0
    3.9570    3.9474    0.0000 C   0  0  0  0  0  0  0  0  0
    4.5090    3.3343    0.0000 C   0  0  0  0  0  0  0  0  0
    5.3340    3.3343    0.0000 N   0  0  0  0  0  0  0  0  0
    5.5890    2.5497    0.0000 C   0  0  0  0  0  0  0  0  0
    4.9215    2.0648    0.0000 C   0  0  0  0  0  0  0  0  0
    4.2541    2.5497    0.0000 C   0  0  0  0  0  0  0  0  0
    3.4471    2.3782    0.0000 C   0  0  0  0  0  0  0  0  0
    2.8951    2.9912    0.0000 C   0  0  0  0  0  0  0  0  0
    4.9215    1.2398    0.0000 C   0  0  0  0  0  0  0  0  0
    5.6360    0.8273    0.0000 C   0  0  0  0  0  0  0  0  0
    5.6360    0.0023    0.0000 C   0  0  0  0  0  0  0  0  0
    4.9215   -0.4102    0.0000 N   0  0  0  0  0  0  0  0  0
    4.2071    0.0023    0.0000 C   0  0  0  0  0  0  0  0  0
    4.2071    0.8273    0.0000 C   0  0  0  0  0  0  0  0  0
    4.9215   -1.2352    0.0000 C   0  0  0  0  0  0  0  0  0
    5.6360   -1.6477    0.0000 C   0  0  0  0  0  0  0  0  0
    5.6360   -2.4727    0.0000 C   0  0  0  0  0  0  0  0  0
    4.9215   -2.8852    0.0000 O   0  0  0  0  0  0  0  0  0
    4.9215   -3.7102    0.0000 C   0  0  0  0  0  0  0  0  0
    5.6360   -4.1227    0.0000 C   0  0  0  0  0  0  0  0  0
    6.3505   -3.7102    0.0000 C   0  0  0  0  0  0  0  0  0
    6.3505   -2.8852    0.0000 C   0  0  0  0  0  0  0  0  0
    7.0649   -2.4727    0.0000 C   0  0  0  0  0  0  0  0  0
    7.7794   -2.8852    0.0000 C   0  0  0  0  0  0  0  0  0
    7.7794   -3.7102    0.0000 C   0  0  0  0  0  0  0  0  0
    7.0649   -4.1227    0.0000 C   0  0  0  0  0  0  0  0  0
    8.4939   -4.1227    0.0000 C   0  0  0  0  0  0  0  0  0
    9.2084   -3.7102    0.0000 O   0  0  0  0  0  0  0  0  0
    8.4939   -4.9477    0.0000 N   0  0  0  0  0  0  0  0  0
  1  2  1  0  0  0  0
  2  3  4  0  0  0  0
  2 10  4  0  0  0  0
  3  4  4  0  0  0  0
  4  5  4  0  0  0  0
  4  8  4  0  0  0  0
  5  6  4  0  0  0  0
  6  7  4  0  0  0  0
  7  8  4  0  0  0  0
  7 11  1  0  0  0  0
  8  9  4  0  0  0  0
  9 10  4  0  0  0  0
 11 12  1  0  0  0  0
 11 16  2  0  0  0  0
 12 13  1  0  0  0  0
 13 14  1  0  0  0  0
 14 15  1  0  0  0  0
 14 17  1  0  0  0  0
 15 16  1  0  0  0  0
 17 18  1  0  0  0  0
 18 19  1  0  0  0  0
 19 20  1  0  0  0  0
 19 24  1  0  0  0  0
 20 21  1  0  0  0  0
 21 22  1  0  0  0  0
 22 23  1  0  0  0  0
 23 24  4  0  0  0  0
 23 28  4  0  0  0  0
 24 25  4  0  0  0  0
 25 26  4  0  0  0  0
 26 27  4  0  0  0  0
 27 28  4  0  0  0  0
 27 29  1  0  0  0  0
 29 30  2  0  0  0  0
 29 31  1  0  0  0  0
M  STY  1   1 DAT
M  SAL   1  1   5
M  SDT   1 MRV_IMPLICIT_H                                        
M  SDD   1     0.0000    0.0000    DR    ALL  0       0  
M  SED   1 IMPL_H1
M  END
>  <Name_Molregno>
131346

>  <5-HT1B>
6.62

>  <5-HT1D>
7.68

>  <Alpha-1A>
7.8

>  <Alpha-1B>
7.8

>  <DOPAMINE D2>
8.33

>  <Serotonin transporter>
10

$$$$
162789
  Marvin  02231216192D 0   1.00000     0.00000     0

 24 27  0  0  0  0  0  0  0  0999 V2000
    2.6396    0.7432    0.0000 O   0  0  0  0  0  0  0  0  0
    3.4405    0.9413    0.0000 C   0  0  0  0  0  0  0  0  0
    3.6693    1.7339    0.0000 C   0  0  0  0  0  0  0  0  0
    4.4701    1.9321    0.0000 C   0  0  0  0  0  0  0  0  0
    5.0422    1.3376    0.0000 C   0  0  0  0  0  0  0  0  0
    4.8133    0.5450    0.0000 C   0  0  0  0  0  0  0  0  0
    4.0125    0.3468    0.0000 C   0  0  0  0  0  0  0  0  0
    3.0972    2.3284    0.0000 C   0  0  0  0  0  0  0  0  0
    3.3261    3.1211    0.0000 O   0  0  0  0  0  0  0  0  0
    2.2964    2.1303    0.0000 C   0  0  0  0  0  0  0  0  0
    2.0676    1.3376    0.0000 C   0  0  0  0  0  0  0  0  0
    1.8388    0.5450    0.0000 C   0  0  0  0  0  0  0  0  0
    1.0379    0.3468    0.0000 C   0  0  0  0  0  0  0  0  0
    0.4659    0.9413    0.0000 N   0  0  0  0  0  0  0  0  0
    0.6947    1.7339    0.0000 C   0  0  0  0  0  0  0  0  0
    1.4955    1.9321    0.0000 C   0  0  0  0  0  0  0  0  0
   -0.3350    0.7432    0.0000 C   0  0  0  0  0  0  0  0  0
   -0.5638   -0.0495    0.0000 C   0  0  0  0  0  0  0  0  0
   -1.3646   -0.2476    0.0000 C   0  0  0  0  0  0  0  0  0
   -1.5934   -1.0403    0.0000 N   0  0  0  0  0  0  0  0  0
   -2.3943   -1.2384    0.0000 C   0  0  0  0  0  0  0  0  0
   -2.9663   -0.6440    0.0000 C   0  0  0  0  0  0  0  0  0
   -2.7375    0.1487    0.0000 C   0  0  0  0  0  0  0  0  0
   -1.9367    0.3468    0.0000 C   0  0  0  0  0  0  0  0  0
  1  2  1  0  0  0  0
  1 11  1  0  0  0  0
  2  3  4  0  0  0  0
  2  7  4  0  0  0  0
  3  4  4  0  0  0  0
  3  8  1  0  0  0  0
  4  5  4  0  0  0  0
  5  6  4  0  0  0  0
  6  7  4  0  0  0  0
  8  9  2  0  0  0  0
  8 10  1  0  0  0  0
 10 11  1  0  0  0  0
 11 12  1  0  0  0  0
 11 16  1  0  0  0  0
 12 13  1  0  0  0  0
 13 14  1  0  0  0  0
 14 15  1  0  0  0  0
 14 17  1  0  0  0  0
 15 16  1  0  0  0  0
 17 18  1  0  0  0  0
 18 19  1  0  0  0  0
 19 20  4  0  0  0  0
 19 24  4  0  0  0  0
 20 21  4  0  0  0  0
 21 22  4  0  0  0  0
 22 23  4  0  0  0  0
 23 24  4  0  0  0  0
M  END
>  <Name_Molregno>
162789

>  <Alpha-1A>
6.1

>  <Alpha-1B>
5.89

$$$$
162790
  Marvin  02231216192D 0   1.00000     0.00000     0

 28 32  0  0  0  0  0  0  0  0999 V2000
    2.0251   -2.0419    0.0000 O   0  0  0  0  0  0  0  0  0
    1.3106   -1.6294    0.0000 C   0  0  0  0  0  0  0  0  0
    0.5961   -2.0419    0.0000 C   0  0  0  0  0  0  0  0  0
    0.5961   -2.8669    0.0000 C   0  0  0  0  0  0  0  0  0
    1.3106   -3.2794    0.0000 C   0  0  0  0  0  0  0  0  0
    1.3106   -4.1044    0.0000 C   0  0  0  0  0  0  0  0  0
    0.5961   -4.5169    0.0000 C   0  0  0  0  0  0  0  0  0
   -0.1183   -4.1044    0.0000 C   0  0  0  0  0  0  0  0  0
   -0.1183   -3.2794    0.0000 C   0  0  0  0  0  0  0  0  0
    2.0251   -2.8669    0.0000 C   0  0  0  0  0  0  0  0  0
    2.7396   -3.2794    0.0000 O   0  0  0  0  0  0  0  0  0
    0.5961   -1.2169    0.0000 C   0  0  0  0  0  0  0  0  0
    0.5961   -0.3919    0.0000 C   0  0  0  0  0  0  0  0  0
    1.3106    0.0206    0.0000 N   0  0  0  0  0  0  0  0  0
    2.0251   -0.3919    0.0000 C   0  0  0  0  0  0  0  0  0
    2.0251   -1.2169    0.0000 C   0  0  0  0  0  0  0  0  0
    1.3106    0.8456    0.0000 C   0  0  0  0  0  0  0  0  0
    2.0251    1.2581    0.0000 C   0  0  0  0  0  0  0  0  0
    2.0251    2.0831    0.0000 C   0  0  0  0  0  0  0  0  0
    2.7396    2.4956    0.0000 C   0  0  0  0  0  0  0  0  0
    2.7396    3.3206    0.0000 C   0  0  0  0  0  0  0  0  0
    2.0251    3.7331    0.0000 C   0  0  0  0  0  0  0  0  0
    1.3106    3.3206    0.0000 C   0  0  0  0  0  0  0  0  0
    1.3106    2.4956    0.0000 C   0  0  0  0  0  0  0  0  0
    3.4540    3.7331    0.0000 C   0  0  0  0  0  0  0  0  0
    4.1685    3.3206    0.0000 C   0  0  0  0  0  0  0  0  0
    4.1685    2.4956    0.0000 C   0  0  0  0  0  0  0  0  0
    3.4540    2.0831    0.0000 C   0  0  0  0  0  0  0  0  0
  1  2  1  0  0  0  0
  1 10  1  0  0  0  0
  2  3  1  0  0  0  0
  2 12  1  0  0  0  0
  2 16  1  0  0  0  0
  3  4  1  0  0  0  0
  4  5  4  0  0  0  0
  4  9  4  0  0  0  0
  5  6  4  0  0  0  0
  5 10  1  0  0  0  0
  6  7  4  0  0  0  0
  7  8  4  0  0  0  0
  8  9  4  0  0  0  0
 10 11  2  0  0  0  0
 12 13  1  0  0  0  0
 13 14  1  0  0  0  0
 14 15  1  0  0  0  0
 14 17  1  0  0  0  0
 15 16  1  0  0  0  0
 17 18  1  0  0  0  0
 18 19  1  0  0  0  0
 19 20  4  0  0  0  0
 19 24  4  0  0  0  0
 20 21  4  0  0  0  0
 20 28  4  0  0  0  0
 21 22  4  0  0  0  0
 21 25  4  0  0  0  0
 22 23  4  0  0  0  0
 23 24  4  0  0  0  0
 25 26  4  0  0  0  0
 26 27  4  0  0  0  0
 27 28  4  0  0  0  0
M  END
>  <Name_Molregno>
162790

>  <Alpha-1A>
7.35

>  <Alpha-1B>
6.86

$$$$
163263
  Marvin  02231216192D 0   1.00000     0.00000     0

 27 31  0  0  0  0  0  0  0  0999 V2000
    0.7508   -0.8111    0.0000 O   0  0  0  0  0  0  0  0  0
    0.7508   -1.6361    0.0000 C   0  0  0  0  0  0  0  0  0
    1.4653   -2.0486    0.0000 C   0  0  0  0  0  0  0  0  0
    2.1798   -1.6361    0.0000 C   0  0  0  0  0  0  0  0  0
    2.1798   -0.8111    0.0000 C   0  0  0  0  0  0  0  0  0
    1.4653   -0.3986    0.0000 C   0  0  0  0  0  0  0  0  0
    0.7508    0.0139    0.0000 C   0  0  0  0  0  0  0  0  0
    0.7508    0.8389    0.0000 C   0  0  0  0  0  0  0  0  0
    1.4653    1.2514    0.0000 N   0  0  0  0  0  0  0  0  0
    2.1798    0.8389    0.0000 C   0  0  0  0  0  0  0  0  0
    2.1798    0.0139    0.0000 C   0  0  0  0  0  0  0  0  0
    1.4653    2.0764    0.0000 C   0  0  0  0  0  0  0  0  0
    2.1798    2.4889    0.0000 C   0  0  0  0  0  0  0  0  0
    2.1798    3.3139    0.0000 C   0  0  0  0  0  0  0  0  0
    2.8942    3.7264    0.0000 C   0  0  0  0  0  0  0  0  0
    2.8942    4.5514    0.0000 C   0  0  0  0  0  0  0  0  0
    2.1798    4.9639    0.0000 C   0  0  0  0  0  0  0  0  0
    1.4653    4.5514    0.0000 C   0  0  0  0  0  0  0  0  0
    1.4653    3.7264    0.0000 C   0  0  0  0  0  0  0  0  0
    3.6087    4.9639    0.0000 C   0  0  0  0  0  0  0  0  0
    4.3232    4.5514    0.0000 C   0  0  0  0  0  0  0  0  0
    4.3232    3.7264    0.0000 C   0  0  0  0  0  0  0  0  0
    3.6087    3.3139    0.0000 C   0  0  0  0  0  0  0  0  0
    1.4653   -2.8736    0.0000 C   0  0  0  0  0  0  0  0  0
    0.7508   -3.2861    0.0000 C   0  0  0  0  0  0  0  0  0
    0.0363   -2.8736    0.0000 C   0  0  0  0  0  0  0  0  0
    0.0363   -2.0486    0.0000 C   0  0  0  0  0  0  0  0  0
  1  2  1  0  0  0  0
  1  6  1  0  0  0  0
  2  3  4  0  0  0  0
  2 27  4  0  0  0  0
  3  4  1  0  0  0  0
  3 24  4  0  0  0  0
  4  5  2  0  0  0  0
  5  6  1  0  0  0  0
  6  7  1  0  0  0  0
  6 11  1  0  0  0  0
  7  8  1  0  0  0  0
  8  9  1  0  0  0  0
  9 10  1  0  0  0  0
  9 12  1  0  0  0  0
 10 11  1  0  0  0  0
 12 13  1  0  0  0  0
 13 14  1  0  0  0  0
 14 15  4  0  0  0  0
 14 19  4  0  0  0  0
 15 16  4  0  0  0  0
 15 23  4  0  0  0  0
 16 17  4  0  0  0  0
 16 20  4  0  0  0  0
 17 18  4  0  0  0  0
 18 19  4  0  0  0  0
 20 21  4  0  0  0  0
 21 22  4  0  0  0  0
 22 23  4  0  0  0  0
 24 25  4  0  0  0  0
 25 26  4  0  0  0  0
 26 27  4  0  0  0  0
M  END
>  <Name_Molregno>
163263

>  <Alpha-1A>
7.15

>  <Alpha-1B>
7.28

$$$$
163294
  Marvin  02231216192D 0   1.00000     0.00000     0

 33 37  0  0  0  0  0  0  0  0999 V2000
   -6.9597   -4.5944    0.0000 S   0  0  0  0  0  0  0  0  0
   -6.9597   -5.4194    0.0000 O   0  0  0  0  0  0  0  0  0
   -6.1347   -4.5944    0.0000 O   0  0  0  0  0  0  0  0  0
   -6.9597   -3.7694    0.0000 N   0  0  0  0  0  0  0  0  0
   -6.2453   -3.3569    0.0000 C   0  0  0  0  0  0  0  0  0
   -6.2453   -2.5319    0.0000 C   0  0  0  0  0  0  0  0  0
   -5.5308   -2.1194    0.0000 C   0  0  0  0  0  0  0  0  0
   -5.5308   -1.2944    0.0000 O   0  0  0  0  0  0  0  0  0
   -4.8163   -0.8819    0.0000 C   0  0  0  0  0  0  0  0  0
   -4.1019   -1.2944    0.0000 C   0  0  0  0  0  0  0  0  0
   -4.1019   -2.1194    0.0000 C   0  0  0  0  0  0  0  0  0
   -3.3874   -2.5319    0.0000 O   0  0  0  0  0  0  0  0  0
   -4.8163   -2.5319    0.0000 C   0  0  0  0  0  0  0  0  0
   -4.8163   -3.3569    0.0000 C   0  0  0  0  0  0  0  0  0
   -5.5308   -3.7694    0.0000 C   0  0  0  0  0  0  0  0  0
   -5.5308   -0.4694    0.0000 C   0  0  0  0  0  0  0  0  0
   -5.5308    0.3556    0.0000 C   0  0  0  0  0  0  0  0  0
   -4.8163    0.7681    0.0000 N   0  0  0  0  0  0  0  0  0
   -4.1019    0.3556    0.0000 C   0  0  0  0  0  0  0  0  0
   -4.1019   -0.4694    0.0000 C   0  0  0  0  0  0  0  0  0
   -4.8163    1.5931    0.0000 C   0  0  0  0  0  0  0  0  0
   -4.1019    2.0056    0.0000 C   0  0  0  0  0  0  0  0  0
   -4.1019    2.8306    0.0000 C   0  0  0  0  0  0  0  0  0
   -3.3874    3.2431    0.0000 C   0  0  0  0  0  0  0  0  0
   -3.3874    4.0681    0.0000 C   0  0  0  0  0  0  0  0  0
   -4.1019    4.4806    0.0000 C   0  0  0  0  0  0  0  0  0
   -4.8163    4.0681    0.0000 C   0  0  0  0  0  0  0  0  0
   -4.8163    3.2431    0.0000 C   0  0  0  0  0  0  0  0  0
   -2.6729    4.4806    0.0000 C   0  0  0  0  0  0  0  0  0
   -1.9584    4.0681    0.0000 C   0  0  0  0  0  0  0  0  0
   -1.9584    3.2431    0.0000 C   0  0  0  0  0  0  0  0  0
   -2.6729    2.8306    0.0000 C   0  0  0  0  0  0  0  0  0
   -7.7847   -4.5944    0.0000 C   0  0  0  0  0  0  0  0  0
  1  2  2  0  0  0  0
  1  3  2  0  0  0  0
  1  4  1  0  0  0  0
  1 33  1  0  0  0  0
  4  5  1  0  0  0  0
  5  6  4  0  0  0  0
  5 15  4  0  0  0  0
  6  7  4  0  0  0  0
  7  8  1  0  0  0  0
  7 13  4  0  0  0  0
  8  9  1  0  0  0  0
  9 10  1  0  0  0  0
  9 16  1  0  0  0  0
  9 20  1  0  0  0  0
 10 11  1  0  0  0  0
 11 12  2  0  0  0  0
 11 13  1  0  0  0  0
 13 14  4  0  0  0  0
 14 15  4  0  0  0  0
 16 17  1  0  0  0  0
 17 18  1  0  0  0  0
 18 19  1  0  0  0  0
 18 21  1  0  0  0  0
 19 20  1  0  0  0  0
 21 22  1  0  0  0  0
 22 23  1  0  0  0  0
 23 24  4  0  0  0  0
 23 28  4  0  0  0  0
 24 25  4  0  0  0  0
 24 32  4  0  0  0  0
 25 26  4  0  0  0  0
 25 29  4  0  0  0  0
 26 27  4  0  0  0  0
 27 28  4  0  0  0  0
 29 30  4  0  0  0  0
 30 31  4  0  0  0  0
 31 32  4  0  0  0  0
M  END
>  <Name_Molregno>
163294

>  <Alpha-1A>
7.7

>  <Alpha-1B>
6.83

$$$$
163372
  Marvin  02231216192D 0   1.00000     0.00000     0

 29 32  0  0  0  0  0  0  0  0999 V2000
    0.0685    0.3121    0.0000 S   0  0  0  0  0  0  0  0  0
   -0.7324    0.1139    0.0000 O   0  0  0  0  0  0  0  0  0
    0.2666   -0.4888    0.0000 O   0  0  0  0  0  0  0  0  0
    0.8693    0.5102    0.0000 N   0  0  0  0  0  0  0  0  0
    1.4414   -0.0842    0.0000 C   0  0  0  0  0  0  0  0  0
    2.2422    0.1139    0.0000 C   0  0  0  0  0  0  0  0  0
    2.8142   -0.4806    0.0000 C   0  0  0  0  0  0  0  0  0
    3.6151   -0.2824    0.0000 O   0  0  0  0  0  0  0  0  0
    4.1871   -0.8769    0.0000 C   0  0  0  0  0  0  0  0  0
    3.9583   -1.6695    0.0000 C   0  0  0  0  0  0  0  0  0
    3.1575   -1.8677    0.0000 C   0  0  0  0  0  0  0  0  0
    2.9287   -2.6603    0.0000 O   0  0  0  0  0  0  0  0  0
    2.5854   -1.2732    0.0000 C   0  0  0  0  0  0  0  0  0
    1.7846   -1.4714    0.0000 C   0  0  0  0  0  0  0  0  0
    1.2125   -0.8769    0.0000 C   0  0  0  0  0  0  0  0  0
    4.4159   -0.0842    0.0000 C   0  0  0  0  0  0  0  0  0
    5.2168    0.1139    0.0000 C   0  0  0  0  0  0  0  0  0
    5.7888   -0.4806    0.0000 N   0  0  0  0  0  0  0  0  0
    5.5600   -1.2732    0.0000 C   0  0  0  0  0  0  0  0  0
    4.7592   -1.4714    0.0000 C   0  0  0  0  0  0  0  0  0
    6.5897   -0.2824    0.0000 C   0  0  0  0  0  0  0  0  0
    6.8185    0.5102    0.0000 C   0  0  0  0  0  0  0  0  0
    7.6193    0.7084    0.0000 C   0  0  0  0  0  0  0  0  0
    7.8482    1.5010    0.0000 N   0  0  0  0  0  0  0  0  0
    8.6490    1.6992    0.0000 C   0  0  0  0  0  0  0  0  0
    9.2210    1.1047    0.0000 C   0  0  0  0  0  0  0  0  0
    8.9922    0.3121    0.0000 C   0  0  0  0  0  0  0  0  0
    8.1914    0.1139    0.0000 C   0  0  0  0  0  0  0  0  0
   -0.1297    1.1129    0.0000 C   0  0  0  0  0  0  0  0  0
  1  2  2  0  0  0  0
  1  3  2  0  0  0  0
  1  4  1  0  0  0  0
  1 29  1  0  0  0  0
  4  5  1  0  0  0  0
  5  6  4  0  0  0  0
  5 15  4  0  0  0  0
  6  7  4  0  0  0  0
  7  8  1  0  0  0  0
  7 13  4  0  0  0  0
  8  9  1  0  0  0  0
  9 10  1  0  0  0  0
  9 16  1  0  0  0  0
  9 20  1  0  0  0  0
 10 11  1  0  0  0  0
 11 12  2  0  0  0  0
 11 13  1  0  0  0  0
 13 14  4  0  0  0  0
 14 15  4  0  0  0  0
 16 17  1  0  0  0  0
 17 18  1  0  0  0  0
 18 19  1  0  0  0  0
 18 21  1  0  0  0  0
 19 20  1  0  0  0  0
 21 22  1  0  0  0  0
 22 23  1  0  0  0  0
 23 24  4  0  0  0  0
 23 28  4  0  0  0  0
 24 25  4  0  0  0  0
 25 26  4  0  0  0  0
 26 27  4  0  0  0  0
 27 28  4  0  0  0  0
M  END
>  <Name_Molregno>
163372

>  <Alpha-1A>
5.78

>  <Alpha-1B>
5.7

$$$$
163433
  Marvin  02231216192D 0   1.00000     0.00000     0

 39 44  0  0  0  0  0  0  0  0999 V2000
   -4.9801   -4.7675    0.0000 S   0  0  0  0  0  0  0  0  0
   -5.3926   -4.0530    0.0000 O   0  0  0  0  0  0  0  0  0
   -4.5676   -5.4820    0.0000 O   0  0  0  0  0  0  0  0  0
   -4.2657   -4.3550    0.0000 N   0  0  0  0  0  0  0  0  0
   -4.2657   -3.5300    0.0000 C   0  0  0  0  0  0  0  0  0
   -3.5512   -3.1175    0.0000 C   0  0  0  0  0  0  0  0  0
   -3.5512   -2.2925    0.0000 C   0  0  0  0  0  0  0  0  0
   -4.2657   -1.8800    0.0000 C   0  0  0  0  0  0  0  0  0
   -4.2657   -1.0550    0.0000 O   0  0  0  0  0  0  0  0  0
   -3.5512   -0.6425    0.0000 C   0  0  0  0  0  0  0  0  0
   -2.8367   -1.0550    0.0000 C   0  0  0  0  0  0  0  0  0
   -2.8367   -1.8800    0.0000 C   0  0  0  0  0  0  0  0  0
   -2.1222   -2.2925    0.0000 O   0  0  0  0  0  0  0  0  0
   -4.2657   -0.2300    0.0000 C   0  0  0  0  0  0  0  0  0
   -4.2657    0.5950    0.0000 C   0  0  0  0  0  0  0  0  0
   -3.5512    1.0075    0.0000 N   0  0  0  0  0  0  0  0  0
   -2.8367    0.5950    0.0000 C   0  0  0  0  0  0  0  0  0
   -2.8367   -0.2300    0.0000 C   0  0  0  0  0  0  0  0  0
   -3.5512    1.8325    0.0000 C   0  0  0  0  0  0  0  0  0
   -2.8367    2.2450    0.0000 C   0  0  0  0  0  0  0  0  0
   -2.8367    3.0700    0.0000 C   0  0  0  0  0  0  0  0  0
   -2.1222    3.4825    0.0000 C   0  0  0  0  0  0  0  0  0
   -2.1222    4.3075    0.0000 C   0  0  0  0  0  0  0  0  0
   -2.8367    4.7200    0.0000 C   0  0  0  0  0  0  0  0  0
   -3.5512    4.3075    0.0000 C   0  0  0  0  0  0  0  0  0
   -3.5512    3.4825    0.0000 C   0  0  0  0  0  0  0  0  0
   -1.4078    4.7200    0.0000 C   0  0  0  0  0  0  0  0  0
   -0.6933    4.3075    0.0000 C   0  0  0  0  0  0  0  0  0
   -0.6933    3.4825    0.0000 C   0  0  0  0  0  0  0  0  0
   -1.4078    3.0700    0.0000 C   0  0  0  0  0  0  0  0  0
   -4.9801   -2.2925    0.0000 C   0  0  0  0  0  0  0  0  0
   -4.9801   -3.1175    0.0000 C   0  0  0  0  0  0  0  0  0
   -5.6946   -5.1800    0.0000 C   0  0  0  0  0  0  0  0  0
   -5.7808   -6.0005    0.0000 C   0  0  0  0  0  0  0  0  0
   -6.5878   -6.1720    0.0000 N   0  0  0  0  0  0  0  0  0
   -7.0003   -5.4575    0.0000 O   0  0  0  0  0  0  0  0  0
   -6.4483   -4.8444    0.0000 C   0  0  0  0  0  0  0  0  0
   -6.6198   -4.0375    0.0000 C   0  0  0  0  0  0  0  0  0
   -5.1677   -6.5525    0.0000 C   0  0  0  0  0  0  0  0  0
  1  2  2  0  0  0  0
  1  3  2  0  0  0  0
  1  4  1  0  0  0  0
  1 33  1  0  0  0  0
  4  5  1  0  0  0  0
  5  6  4  0  0  0  0
  5 32  4  0  0  0  0
  6  7  4  0  0  0  0
  7  8  4  0  0  0  0
  7 12  1  0  0  0  0
  8  9  1  0  0  0  0
  8 31  4  0  0  0  0
  9 10  1  0  0  0  0
 10 11  1  0  0  0  0
 10 14  1  0  0  0  0
 10 18  1  0  0  0  0
 11 12  1  0  0  0  0
 12 13  2  0  0  0  0
 14 15  1  0  0  0  0
 15 16  1  0  0  0  0
 16 17  1  0  0  0  0
 16 19  1  0  0  0  0
 17 18  1  0  0  0  0
 19 20  1  0  0  0  0
 20 21  1  0  0  0  0
 21 22  4  0  0  0  0
 21 26  4  0  0  0  0
 22 23  4  0  0  0  0
 22 30  4  0  0  0  0
 23 24  4  0  0  0  0
 23 27  4  0  0  0  0
 24 25  4  0  0  0  0
 25 26  4  0  0  0  0
 27 28  4  0  0  0  0
 28 29  4  0  0  0  0
 29 30  4  0  0  0  0
 31 32  4  0  0  0  0
 33 34  4  0  0  0  0
 33 37  4  0  0  0  0
 34 35  4  0  0  0  0
 34 39  1  0  0  0  0
 35 36  4  0  0  0  0
 36 37  4  0  0  0  0
 37 38  1  0  0  0  0
M  END
>  <Name_Molregno>
163433

>  <Alpha-1B>
7.62

$$$$
163437
  Marvin  02231216192D 0   1.00000     0.00000     0

 39 44  0  0  0  0  0  0  0  0999 V2000
   -4.1340   -4.3955    0.0000 S   0  0  0  0  0  0  0  0  0
   -4.5465   -5.1100    0.0000 O   0  0  0  0  0  0  0  0  0
   -3.7215   -3.6810    0.0000 O   0  0  0  0  0  0  0  0  0
   -4.8485   -3.9830    0.0000 N   0  0  0  0  0  0  0  0  0
   -4.8485   -3.1580    0.0000 C   0  0  0  0  0  0  0  0  0
   -4.1340   -2.7455    0.0000 C   0  0  0  0  0  0  0  0  0
   -4.1340   -1.9205    0.0000 C   0  0  0  0  0  0  0  0  0
   -4.8485   -1.5080    0.0000 C   0  0  0  0  0  0  0  0  0
   -4.8485   -0.6830    0.0000 O   0  0  0  0  0  0  0  0  0
   -4.1340   -0.2705    0.0000 C   0  0  0  0  0  0  0  0  0
   -3.4195   -0.6830    0.0000 C   0  0  0  0  0  0  0  0  0
   -3.4195   -1.5080    0.0000 C   0  0  0  0  0  0  0  0  0
   -2.7051   -1.9205    0.0000 O   0  0  0  0  0  0  0  0  0
   -4.8485    0.1420    0.0000 C   0  0  0  0  0  0  0  0  0
   -4.8485    0.9670    0.0000 C   0  0  0  0  0  0  0  0  0
   -4.1340    1.3795    0.0000 N   0  0  0  0  0  0  0  0  0
   -3.4195    0.9670    0.0000 C   0  0  0  0  0  0  0  0  0
   -3.4195    0.1420    0.0000 C   0  0  0  0  0  0  0  0  0
   -4.1340    2.2045    0.0000 C   0  0  0  0  0  0  0  0  0
   -3.4195    2.6170    0.0000 C   0  0  0  0  0  0  0  0  0
   -3.4195    3.4420    0.0000 C   0  0  0  0  0  0  0  0  0
   -2.7051    3.8545    0.0000 C   0  0  0  0  0  0  0  0  0
   -2.7051    4.6795    0.0000 C   0  0  0  0  0  0  0  0  0
   -3.4195    5.0920    0.0000 C   0  0  0  0  0  0  0  0  0
   -4.1340    4.6795    0.0000 C   0  0  0  0  0  0  0  0  0
   -4.1340    3.8545    0.0000 C   0  0  0  0  0  0  0  0  0
   -1.9906    5.0920    0.0000 C   0  0  0  0  0  0  0  0  0
   -1.2761    4.6795    0.0000 C   0  0  0  0  0  0  0  0  0
   -1.2761    3.8545    0.0000 C   0  0  0  0  0  0  0  0  0
   -1.9906    3.4420    0.0000 C   0  0  0  0  0  0  0  0  0
   -5.5630   -1.9205    0.0000 C   0  0  0  0  0  0  0  0  0
   -5.5630   -2.7455    0.0000 C   0  0  0  0  0  0  0  0  0
   -3.4195   -4.8080    0.0000 C   0  0  0  0  0  0  0  0  0
   -3.4195   -5.6330    0.0000 C   0  0  0  0  0  0  0  0  0
   -2.7051   -6.0455    0.0000 C   0  0  0  0  0  0  0  0  0
   -2.7051   -6.8705    0.0000 C   0  0  0  0  0  0  0  0  0
   -3.4195   -7.2830    0.0000 C   0  0  0  0  0  0  0  0  0
   -4.1340   -6.8705    0.0000 C   0  0  0  0  0  0  0  0  0
   -4.1340   -6.0455    0.0000 C   0  0  0  0  0  0  0  0  0
  1  2  2  0  0  0  0
  1  3  2  0  0  0  0
  1  4  1  0  0  0  0
  1 33  1  0  0  0  0
  4  5  1  0  0  0  0
  5  6  4  0  0  0  0
  5 32  4  0  0  0  0
  6  7  4  0  0  0  0
  7  8  4  0  0  0  0
  7 12  1  0  0  0  0
  8  9  1  0  0  0  0
  8 31  4  0  0  0  0
  9 10  1  0  0  0  0
 10 11  1  0  0  0  0
 10 14  1  0  0  0  0
 10 18  1  0  0  0  0
 11 12  1  0  0  0  0
 12 13  2  0  0  0  0
 14 15  1  0  0  0  0
 15 16  1  0  0  0  0
 16 17  1  0  0  0  0
 16 19  1  0  0  0  0
 17 18  1  0  0  0  0
 19 20  1  0  0  0  0
 20 21  1  0  0  0  0
 21 22  4  0  0  0  0
 21 26  4  0  0  0  0
 22 23  4  0  0  0  0
 22 30  4  0  0  0  0
 23 24  4  0  0  0  0
 23 27  4  0  0  0  0
 24 25  4  0  0  0  0
 25 26  4  0  0  0  0
 27 28  4  0  0  0  0
 28 29  4  0  0  0  0
 29 30  4  0  0  0  0
 31 32  4  0  0  0  0
 33 34  1  0  0  0  0
 34 35  4  0  0  0  0
 34 39  4  0  0  0  0
 35 36  4  0  0  0  0
 36 37  4  0  0  0  0
 37 38  4  0  0  0  0
 38 39  4  0  0  0  0
M  END
>  <Name_Molregno>
163437

>  <Alpha-1A>
7.89

>  <Alpha-1B>
7.62

$$$$
163465
  Marvin  02231216192D 0   1.00000     0.00000     0

 38 43  0  0  0  0  0  0  0  0999 V2000
   -4.4517   -3.0608    0.0000 S   0  0  0  0  0  0  0  0  0
   -4.8642   -3.7752    0.0000 O   0  0  0  0  0  0  0  0  0
   -4.0392   -2.3463    0.0000 O   0  0  0  0  0  0  0  0  0
   -5.1662   -2.6483    0.0000 N   0  0  0  0  0  0  0  0  0
   -5.1662   -1.8233    0.0000 C   0  0  0  0  0  0  0  0  0
   -4.4517   -1.4108    0.0000 C   0  0  0  0  0  0  0  0  0
   -4.4517   -0.5858    0.0000 C   0  0  0  0  0  0  0  0  0
   -5.1662   -0.1733    0.0000 C   0  0  0  0  0  0  0  0  0
   -5.1662    0.6517    0.0000 O   0  0  0  0  0  0  0  0  0
   -4.4517    1.0642    0.0000 C   0  0  0  0  0  0  0  0  0
   -3.7372    0.6517    0.0000 C   0  0  0  0  0  0  0  0  0
   -3.7372   -0.1733    0.0000 C   0  0  0  0  0  0  0  0  0
   -3.0228   -0.5858    0.0000 O   0  0  0  0  0  0  0  0  0
   -5.1662    1.4767    0.0000 C   0  0  0  0  0  0  0  0  0
   -5.1662    2.3017    0.0000 C   0  0  0  0  0  0  0  0  0
   -4.4517    2.7142    0.0000 N   0  0  0  0  0  0  0  0  0
   -3.7372    2.3017    0.0000 C   0  0  0  0  0  0  0  0  0
   -3.7372    1.4767    0.0000 C   0  0  0  0  0  0  0  0  0
   -4.4517    3.5392    0.0000 C   0  0  0  0  0  0  0  0  0
   -3.7372    3.9517    0.0000 C   0  0  0  0  0  0  0  0  0
   -3.7372    4.7767    0.0000 C   0  0  0  0  0  0  0  0  0
   -3.0228    5.1892    0.0000 C   0  0  0  0  0  0  0  0  0
   -3.0228    6.0142    0.0000 C   0  0  0  0  0  0  0  0  0
   -3.7372    6.4267    0.0000 C   0  0  0  0  0  0  0  0  0
   -4.4517    6.0142    0.0000 C   0  0  0  0  0  0  0  0  0
   -4.4517    5.1892    0.0000 C   0  0  0  0  0  0  0  0  0
   -2.3083    6.4267    0.0000 C   0  0  0  0  0  0  0  0  0
   -1.5938    6.0142    0.0000 C   0  0  0  0  0  0  0  0  0
   -1.5938    5.1892    0.0000 C   0  0  0  0  0  0  0  0  0
   -2.3083    4.7767    0.0000 C   0  0  0  0  0  0  0  0  0
   -5.8807   -0.5858    0.0000 C   0  0  0  0  0  0  0  0  0
   -5.8807   -1.4108    0.0000 C   0  0  0  0  0  0  0  0  0
   -3.7372   -3.4733    0.0000 C   0  0  0  0  0  0  0  0  0
   -2.9836   -3.1377    0.0000 N   0  0  0  0  0  0  0  0  0
   -2.4315   -3.7508    0.0000 C   0  0  0  0  0  0  0  0  0
   -2.8440   -4.4653    0.0000 N   0  0  0  0  0  0  0  0  0
   -3.6510   -4.2937    0.0000 C   0  0  0  0  0  0  0  0  0
   -2.5085   -5.2189    0.0000 C   0  0  0  0  0  0  0  0  0
  1  2  2  0  0  0  0
  1  3  2  0  0  0  0
  1  4  1  0  0  0  0
  1 33  1  0  0  0  0
  4  5  1  0  0  0  0
  5  6  4  0  0  0  0
  5 32  4  0  0  0  0
  6  7  4  0  0  0  0
  7  8  4  0  0  0  0
  7 12  1  0  0  0  0
  8  9  1  0  0  0  0
  8 31  4  0  0  0  0
  9 10  1  0  0  0  0
 10 11  1  0  0  0  0
 10 14  1  0  0  0  0
 10 18  1  0  0  0  0
 11 12  1  0  0  0  0
 12 13  2  0  0  0  0
 14 15  1  0  0  0  0
 15 16  1  0  0  0  0
 16 17  1  0  0  0  0
 16 19  1  0  0  0  0
 17 18  1  0  0  0  0
 19 20  1  0  0  0  0
 20 21  1  0  0  0  0
 21 22  4  0  0  0  0
 21 26  4  0  0  0  0
 22 23  4  0  0  0  0
 22 30  4  0  0  0  0
 23 24  4  0  0  0  0
 23 27  4  0  0  0  0
 24 25  4  0  0  0  0
 25 26  4  0  0  0  0
 27 28  4  0  0  0  0
 28 29  4  0  0  0  0
 29 30  4  0  0  0  0
 31 32  4  0  0  0  0
 33 34  4  0  0  0  0
 33 37  4  0  0  0  0
 34 35  4  0  0  0  0
 35 36  4  0  0  0  0
 36 37  4  0  0  0  0
 36 38  1  0  0  0  0
M  END
>  <Name_Molregno>
163465

>  <Alpha-1A>
8.1

>  <Alpha-1B>
7.28

$$$$
163466
  Marvin  02231216192D 0   1.00000     0.00000     0

 29 32  0  0  0  0  0  0  0  0999 V2000
    8.3875   -0.8552    0.0000 S   0  0  0  0  0  0  0  0  0
    8.9595   -1.4496    0.0000 O   0  0  0  0  0  0  0  0  0
    8.9819   -0.2831    0.0000 O   0  0  0  0  0  0  0  0  0
    7.8154   -0.2607    0.0000 N   0  0  0  0  0  0  0  0  0
    7.0146   -0.4589    0.0000 C   0  0  0  0  0  0  0  0  0
    6.4426    0.1356    0.0000 C   0  0  0  0  0  0  0  0  0
    5.6417   -0.0625    0.0000 C   0  0  0  0  0  0  0  0  0
    5.4129   -0.8552    0.0000 C   0  0  0  0  0  0  0  0  0
    4.6120   -1.0533    0.0000 O   0  0  0  0  0  0  0  0  0
    4.0400   -0.4589    0.0000 C   0  0  0  0  0  0  0  0  0
    4.2688    0.3338    0.0000 C   0  0  0  0  0  0  0  0  0
    5.0697    0.5319    0.0000 C   0  0  0  0  0  0  0  0  0
    5.2985    1.3246    0.0000 O   0  0  0  0  0  0  0  0  0
    3.8112   -1.2515    0.0000 C   0  0  0  0  0  0  0  0  0
    3.0103   -1.4496    0.0000 C   0  0  0  0  0  0  0  0  0
    2.4383   -0.8552    0.0000 N   0  0  0  0  0  0  0  0  0
    2.6671   -0.0625    0.0000 C   0  0  0  0  0  0  0  0  0
    3.4680    0.1356    0.0000 C   0  0  0  0  0  0  0  0  0
    1.6375   -1.0533    0.0000 C   0  0  0  0  0  0  0  0  0
    1.4086   -1.8460    0.0000 C   0  0  0  0  0  0  0  0  0
    0.6078   -2.0441    0.0000 C   0  0  0  0  0  0  0  0  0
    0.3790   -2.8368    0.0000 N   0  0  0  0  0  0  0  0  0
   -0.4219   -3.0349    0.0000 C   0  0  0  0  0  0  0  0  0
   -0.9939   -2.4404    0.0000 C   0  0  0  0  0  0  0  0  0
   -0.7651   -1.6478    0.0000 C   0  0  0  0  0  0  0  0  0
    0.0358   -1.4496    0.0000 C   0  0  0  0  0  0  0  0  0
    5.9849   -1.4496    0.0000 C   0  0  0  0  0  0  0  0  0
    6.7858   -1.2515    0.0000 C   0  0  0  0  0  0  0  0  0
    7.7930   -1.4272    0.0000 C   0  0  0  0  0  0  0  0  0
  1  2  2  0  0  0  0
  1  3  2  0  0  0  0
  1  4  1  0  0  0  0
  1 29  1  0  0  0  0
  4  5  1  0  0  0  0
  5  6  4  0  0  0  0
  5 28  4  0  0  0  0
  6  7  4  0  0  0  0
  7  8  4  0  0  0  0
  7 12  1  0  0  0  0
  8  9  1  0  0  0  0
  8 27  4  0  0  0  0
  9 10  1  0  0  0  0
 10 11  1  0  0  0  0
 10 14  1  0  0  0  0
 10 18  1  0  0  0  0
 11 12  1  0  0  0  0
 12 13  2  0  0  0  0
 14 15  1  0  0  0  0
 15 16  1  0  0  0  0
 16 17  1  0  0  0  0
 16 19  1  0  0  0  0
 17 18  1  0  0  0  0
 19 20  1  0  0  0  0
 20 21  1  0  0  0  0
 21 22  4  0  0  0  0
 21 26  4  0  0  0  0
 22 23  4  0  0  0  0
 23 24  4  0  0  0  0
 24 25  4  0  0  0  0
 25 26  4  0  0  0  0
 27 28  4  0  0  0  0
M  END
>  <Name_Molregno>
163466

>  <Alpha-1A>
5.7

>  <Alpha-1B>
5.7

$$$$
163496
  Marvin  02231216192D 0   1.00000     0.00000     0

 33 37  0  0  0  0  0  0  0  0999 V2000
    1.3472   -3.7793    0.0000 S   0  0  0  0  0  0  0  0  0
    1.0923   -4.5639    0.0000 O   0  0  0  0  0  0  0  0  0
    2.1319   -4.0342    0.0000 O   0  0  0  0  0  0  0  0  0
    1.6022   -2.9946    0.0000 N   0  0  0  0  0  0  0  0  0
    2.4092   -2.8231    0.0000 C   0  0  0  0  0  0  0  0  0
    2.6641   -2.0385    0.0000 C   0  0  0  0  0  0  0  0  0
    3.4711   -1.8670    0.0000 C   0  0  0  0  0  0  0  0  0
    3.7260   -1.0823    0.0000 O   0  0  0  0  0  0  0  0  0
    4.5330   -0.9108    0.0000 C   0  0  0  0  0  0  0  0  0
    5.0850   -1.5239    0.0000 C   0  0  0  0  0  0  0  0  0
    4.8301   -2.3085    0.0000 C   0  0  0  0  0  0  0  0  0
    5.3821   -2.9216    0.0000 O   0  0  0  0  0  0  0  0  0
    4.0231   -2.4801    0.0000 C   0  0  0  0  0  0  0  0  0
    3.7682   -3.2647    0.0000 C   0  0  0  0  0  0  0  0  0
    2.9612   -3.4362    0.0000 C   0  0  0  0  0  0  0  0  0
    3.9809   -0.2977    0.0000 C   0  0  0  0  0  0  0  0  0
    4.2359    0.4869    0.0000 C   0  0  0  0  0  0  0  0  0
    5.0429    0.6584    0.0000 N   0  0  0  0  0  0  0  0  0
    5.5949    0.0453    0.0000 C   0  0  0  0  0  0  0  0  0
    5.3399   -0.7393    0.0000 C   0  0  0  0  0  0  0  0  0
    5.2978    1.4430    0.0000 C   0  0  0  0  0  0  0  0  0
    6.1048    1.6146    0.0000 C   0  0  0  0  0  0  0  0  0
    6.3597    2.3992    0.0000 C   0  0  0  0  0  0  0  0  0
    7.1443    2.6541    0.0000 C   0  0  0  0  0  0  0  0  0
    7.1443    3.4791    0.0000 C   0  0  0  0  0  0  0  0  0
    6.3597    3.7341    0.0000 N   0  0  0  0  0  0  0  0  0
    5.8748    3.0666    0.0000 C   0  0  0  0  0  0  0  0  0
    5.0498    3.0666    0.0000 C   0  0  0  0  0  0  0  0  0
    7.8588    3.8916    0.0000 C   0  0  0  0  0  0  0  0  0
    8.5733    3.4791    0.0000 C   0  0  0  0  0  0  0  0  0
    8.5733    2.6541    0.0000 C   0  0  0  0  0  0  0  0  0
    7.8588    2.2416    0.0000 C   0  0  0  0  0  0  0  0  0
    0.5626   -3.5243    0.0000 C   0  0  0  0  0  0  0  0  0
  1  2  2  0  0  0  0
  1  3  2  0  0  0  0
  1  4  1  0  0  0  0
  1 33  1  0  0  0  0
  4  5  1  0  0  0  0
  5  6  4  0  0  0  0
  5 15  4  0  0  0  0
  6  7  4  0  0  0  0
  7  8  1  0  0  0  0
  7 13  4  0  0  0  0
  8  9  1  0  0  0  0
  9 10  1  0  0  0  0
  9 16  1  0  0  0  0
  9 20  1  0  0  0  0
 10 11  1  0  0  0  0
 11 12  2  0  0  0  0
 11 13  1  0  0  0  0
 13 14  4  0  0  0  0
 14 15  4  0  0  0  0
 16 17  1  0  0  0  0
 17 18  1  0  0  0  0
 18 19  1  0  0  0  0
 18 21  1  0  0  0  0
 19 20  1  0  0  0  0
 21 22  1  0  0  0  0
 22 23  1  0  0  0  0
 23 24  4  0  0  0  0
 23 27  4  0  0  0  0
 24 25  4  0  0  0  0
 24 32  4  0  0  0  0
 25 26  4  0  0  0  0
 25 29  4  0  0  0  0
 26 27  4  0  0  0  0
 27 28  1  0  0  0  0
 29 30  4  0  0  0  0
 30 31  4  0  0  0  0
 31 32  4  0  0  0  0
M  STY  1   1 DAT
M  SAL   1  1  26
M  SDT   1 MRV_IMPLICIT_H                                        
M  SDD   1     0.0000    0.0000    DR    ALL  0       0  
M  SED   1 IMPL_H1
M  END
>  <Name_Molregno>
163496

>  <Alpha-1A>
8.1

>  <Alpha-1B>
6.66

$$$$
163498
  Marvin  02231216192D 0   1.00000     0.00000     0

 31 34  0  0  0  0  0  0  0  0999 V2000
    0.0984    0.8110    0.0000 S   0  0  0  0  0  0  0  0  0
   -0.7025    0.6128    0.0000 O   0  0  0  0  0  0  0  0  0
    0.2965    0.0102    0.0000 O   0  0  0  0  0  0  0  0  0
    0.8992    1.0092    0.0000 N   0  0  0  0  0  0  0  0  0
    1.4713    0.4147    0.0000 C   0  0  0  0  0  0  0  0  0
    2.2721    0.6128    0.0000 C   0  0  0  0  0  0  0  0  0
    2.8441    0.0184    0.0000 C   0  0  0  0  0  0  0  0  0
    3.6450    0.2165    0.0000 O   0  0  0  0  0  0  0  0  0
    4.2170   -0.3779    0.0000 C   0  0  0  0  0  0  0  0  0
    3.9882   -1.1706    0.0000 C   0  0  0  0  0  0  0  0  0
    3.1874   -1.3687    0.0000 C   0  0  0  0  0  0  0  0  0
    2.9586   -2.1614    0.0000 O   0  0  0  0  0  0  0  0  0
    2.6153   -0.7743    0.0000 C   0  0  0  0  0  0  0  0  0
    1.8145   -0.9724    0.0000 C   0  0  0  0  0  0  0  0  0
    1.2425   -0.3779    0.0000 C   0  0  0  0  0  0  0  0  0
    4.4458    0.4147    0.0000 C   0  0  0  0  0  0  0  0  0
    5.2467    0.6128    0.0000 C   0  0  0  0  0  0  0  0  0
    5.8187    0.0184    0.0000 N   0  0  0  0  0  0  0  0  0
    5.5899   -0.7743    0.0000 C   0  0  0  0  0  0  0  0  0
    4.7891   -0.9724    0.0000 C   0  0  0  0  0  0  0  0  0
    6.6196    0.2165    0.0000 C   0  0  0  0  0  0  0  0  0
    6.8484    1.0092    0.0000 C   0  0  0  0  0  0  0  0  0
    7.6492    1.2073    0.0000 C   0  0  0  0  0  0  0  0  0
    7.8781    2.0000    0.0000 C   0  0  0  0  0  0  0  0  0
    8.6789    2.1981    0.0000 C   0  0  0  0  0  0  0  0  0
    9.2509    1.6036    0.0000 C   0  0  0  0  0  0  0  0  0
    9.0221    0.8110    0.0000 C   0  0  0  0  0  0  0  0  0
    8.2213    0.6128    0.0000 C   0  0  0  0  0  0  0  0  0
    7.9925   -0.1798    0.0000 O   0  0  0  0  0  0  0  0  0
    8.5645   -0.7743    0.0000 C   0  0  0  0  0  0  0  0  0
   -0.0998    1.6119    0.0000 C   0  0  0  0  0  0  0  0  0
  1  2  2  0  0  0  0
  1  3  2  0  0  0  0
  1  4  1  0  0  0  0
  1 31  1  0  0  0  0
  4  5  1  0  0  0  0
  5  6  4  0  0  0  0
  5 15  4  0  0  0  0
  6  7  4  0  0  0  0
  7  8  1  0  0  0  0
  7 13  4  0  0  0  0
  8  9  1  0  0  0  0
  9 10  1  0  0  0  0
  9 16  1  0  0  0  0
  9 20  1  0  0  0  0
 10 11  1  0  0  0  0
 11 12  2  0  0  0  0
 11 13  1  0  0  0  0
 13 14  4  0  0  0  0
 14 15  4  0  0  0  0
 16 17  1  0  0  0  0
 17 18  1  0  0  0  0
 18 19  1  0  0  0  0
 18 21  1  0  0  0  0
 19 20  1  0  0  0  0
 21 22  1  0  0  0  0
 22 23  1  0  0  0  0
 23 24  4  0  0  0  0
 23 28  4  0  0  0  0
 24 25  4  0  0  0  0
 25 26  4  0  0  0  0
 26 27  4  0  0  0  0
 27 28  4  0  0  0  0
 28 29  1  0  0  0  0
 29 30  1  0  0  0  0
M  END
>  <Name_Molregno>
163498

>  <Alpha-1A>
8.19

>  <Alpha-1B>
6.76

$$$$
163503
  Marvin  02231216192D 0   1.00000     0.00000     0

 27 31  0  0  0  0  0  0  0  0999 V2000
    0.2408   -3.1868    0.0000 O   0  0  0  0  0  0  0  0  0
    1.0254   -3.4418    0.0000 C   0  0  0  0  0  0  0  0  0
    1.2804   -4.2264    0.0000 C   0  0  0  0  0  0  0  0  0
    2.1054   -4.2264    0.0000 C   0  0  0  0  0  0  0  0  0
    2.3603   -3.4418    0.0000 C   0  0  0  0  0  0  0  0  0
    1.6929   -2.9569    0.0000 C   0  0  0  0  0  0  0  0  0
    0.9784   -2.5444    0.0000 C   0  0  0  0  0  0  0  0  0
    0.9784   -1.7194    0.0000 C   0  0  0  0  0  0  0  0  0
    1.6929   -1.3069    0.0000 N   0  0  0  0  0  0  0  0  0
    2.4074   -1.7194    0.0000 C   0  0  0  0  0  0  0  0  0
    2.4074   -2.5444    0.0000 C   0  0  0  0  0  0  0  0  0
    1.6929   -0.4819    0.0000 C   0  0  0  0  0  0  0  0  0
    2.4074   -0.0694    0.0000 C   0  0  0  0  0  0  0  0  0
    2.4074    0.7556    0.0000 C   0  0  0  0  0  0  0  0  0
    3.1218    1.1681    0.0000 C   0  0  0  0  0  0  0  0  0
    3.1218    1.9931    0.0000 C   0  0  0  0  0  0  0  0  0
    2.4074    2.4056    0.0000 C   0  0  0  0  0  0  0  0  0
    1.6929    1.9931    0.0000 C   0  0  0  0  0  0  0  0  0
    1.6929    1.1681    0.0000 C   0  0  0  0  0  0  0  0  0
    3.8363    2.4056    0.0000 C   0  0  0  0  0  0  0  0  0
    4.5508    1.9931    0.0000 C   0  0  0  0  0  0  0  0  0
    4.5508    1.1681    0.0000 C   0  0  0  0  0  0  0  0  0
    3.8363    0.7556    0.0000 C   0  0  0  0  0  0  0  0  0
    2.5179   -4.9409    0.0000 C   0  0  0  0  0  0  0  0  0
    2.1054   -5.6553    0.0000 C   0  0  0  0  0  0  0  0  0
    1.2804   -5.6553    0.0000 C   0  0  0  0  0  0  0  0  0
    0.8679   -4.9409    0.0000 C   0  0  0  0  0  0  0  0  0
  1  2  2  0  0  0  0
  2  3  1  0  0  0  0
  2  6  1  0  0  0  0
  3  4  4  0  0  0  0
  3 27  4  0  0  0  0
  4  5  1  0  0  0  0
  4 24  4  0  0  0  0
  5  6  1  0  0  0  0
  6  7  1  0  0  0  0
  6 11  1  0  0  0  0
  7  8  1  0  0  0  0
  8  9  1  0  0  0  0
  9 10  1  0  0  0  0
  9 12  1  0  0  0  0
 10 11  1  0  0  0  0
 12 13  1  0  0  0  0
 13 14  1  0  0  0  0
 14 15  4  0  0  0  0
 14 19  4  0  0  0  0
 15 16  4  0  0  0  0
 15 23  4  0  0  0  0
 16 17  4  0  0  0  0
 16 20  4  0  0  0  0
 17 18  4  0  0  0  0
 18 19  4  0  0  0  0
 20 21  4  0  0  0  0
 21 22  4  0  0  0  0
 22 23  4  0  0  0  0
 24 25  4  0  0  0  0
 25 26  4  0  0  0  0
 26 27  4  0  0  0  0
M  END
>  <Name_Molregno>
163503

>  <Alpha-1A>
7.51

>  <Alpha-1B>
7.31

$$$$
163553
  Marvin  02231216192D 0   1.00000     0.00000     0

 27 31  0  0  0  0  0  0  0  0999 V2000
    0.7508   -0.8111    0.0000 O   0  0  0  0  0  0  0  0  0
    0.7508   -1.6361    0.0000 C   0  0  0  0  0  0  0  0  0
    1.4653   -2.0486    0.0000 C   0  0  0  0  0  0  0  0  0
    2.1798   -1.6361    0.0000 C   0  0  0  0  0  0  0  0  0
    2.1798   -0.8111    0.0000 C   0  0  0  0  0  0  0  0  0
    1.4653   -0.3986    0.0000 C   0  0  0  0  0  0  0  0  0
    0.7508    0.0139    0.0000 C   0  0  0  0  0  0  0  0  0
    0.7508    0.8389    0.0000 C   0  0  0  0  0  0  0  0  0
    1.4653    1.2514    0.0000 N   0  0  0  0  0  0  0  0  0
    2.1798    0.8389    0.0000 C   0  0  0  0  0  0  0  0  0
    2.1798    0.0139    0.0000 C   0  0  0  0  0  0  0  0  0
    1.4653    2.0764    0.0000 C   0  0  0  0  0  0  0  0  0
    2.1798    2.4889    0.0000 C   0  0  0  0  0  0  0  0  0
    2.1798    3.3139    0.0000 C   0  0  0  0  0  0  0  0  0
    2.8942    3.7264    0.0000 C   0  0  0  0  0  0  0  0  0
    2.8942    4.5514    0.0000 C   0  0  0  0  0  0  0  0  0
    2.1798    4.9639    0.0000 C   0  0  0  0  0  0  0  0  0
    1.4653    4.5514    0.0000 C   0  0  0  0  0  0  0  0  0
    1.4653    3.7264    0.0000 C   0  0  0  0  0  0  0  0  0
    3.6087    4.9639    0.0000 C   0  0  0  0  0  0  0  0  0
    4.3232    4.5514    0.0000 C   0  0  0  0  0  0  0  0  0
    4.3232    3.7264    0.0000 C   0  0  0  0  0  0  0  0  0
    3.6087    3.3139    0.0000 C   0  0  0  0  0  0  0  0  0
    1.4653   -2.8736    0.0000 C   0  0  0  0  0  0  0  0  0
    0.7508   -3.2861    0.0000 C   0  0  0  0  0  0  0  0  0
    0.0363   -2.8736    0.0000 C   0  0  0  0  0  0  0  0  0
    0.0363   -2.0486    0.0000 C   0  0  0  0  0  0  0  0  0
  1  2  1  0  0  0  0
  1  6  1  0  0  0  0
  2  3  4  0  0  0  0
  2 27  4  0  0  0  0
  3  4  1  0  0  0  0
  3 24  4  0  0  0  0
  4  5  1  0  0  0  0
  5  6  1  0  0  0  0
  6  7  1  0  0  0  0
  6 11  1  0  0  0  0
  7  8  1  0  0  0  0
  8  9  1  0  0  0  0
  9 10  1  0  0  0  0
  9 12  1  0  0  0  0
 10 11  1  0  0  0  0
 12 13  1  0  0  0  0
 13 14  1  0  0  0  0
 14 15  4  0  0  0  0
 14 19  4  0  0  0  0
 15 16  4  0  0  0  0
 15 23  4  0  0  0  0
 16 17  4  0  0  0  0
 16 20  4  0  0  0  0
 17 18  4  0  0  0  0
 18 19  4  0  0  0  0
 20 21  4  0  0  0  0
 21 22  4  0  0  0  0
 22 23  4  0  0  0  0
 24 25  4  0  0  0  0
 25 26  4  0  0  0  0
 26 27  4  0  0  0  0
M  END
>  <Name_Molregno>
163553

>  <Alpha-1A>
7.25

>  <Alpha-1B>
7.26

$$$$
163722
  Marvin  02231216192D 0   1.00000     0.00000     0

 28 32  0  0  0  0  0  0  0  0999 V2000
   -2.9439   -0.6501    0.0000 O   0  0  0  0  0  0  0  0  0
   -2.9439   -1.4751    0.0000 C   0  0  0  0  0  0  0  0  0
   -2.2294   -1.8876    0.0000 C   0  0  0  0  0  0  0  0  0
   -2.2294   -2.7126    0.0000 C   0  0  0  0  0  0  0  0  0
   -2.9439   -3.1251    0.0000 C   0  0  0  0  0  0  0  0  0
   -3.6584   -2.7126    0.0000 C   0  0  0  0  0  0  0  0  0
   -3.6584   -1.8876    0.0000 C   0  0  0  0  0  0  0  0  0
   -1.5149   -1.4751    0.0000 C   0  0  0  0  0  0  0  0  0
   -0.8005   -1.8876    0.0000 O   0  0  0  0  0  0  0  0  0
   -1.5149   -0.6501    0.0000 C   0  0  0  0  0  0  0  0  0
   -2.2294   -0.2376    0.0000 C   0  0  0  0  0  0  0  0  0
   -2.9439    0.1749    0.0000 C   0  0  0  0  0  0  0  0  0
   -2.9439    0.9999    0.0000 C   0  0  0  0  0  0  0  0  0
   -2.2294    1.4124    0.0000 N   0  0  0  0  0  0  0  0  0
   -1.5149    0.9999    0.0000 C   0  0  0  0  0  0  0  0  0
   -1.5149    0.1749    0.0000 C   0  0  0  0  0  0  0  0  0
   -2.2294    2.2374    0.0000 C   0  0  0  0  0  0  0  0  0
   -1.5149    2.6499    0.0000 C   0  0  0  0  0  0  0  0  0
   -1.5149    3.4749    0.0000 C   0  0  0  0  0  0  0  0  0
   -0.8005    3.8874    0.0000 C   0  0  0  0  0  0  0  0  0
   -0.8005    4.7124    0.0000 C   0  0  0  0  0  0  0  0  0
   -1.5149    5.1249    0.0000 C   0  0  0  0  0  0  0  0  0
   -2.2294    4.7124    0.0000 C   0  0  0  0  0  0  0  0  0
   -2.2294    3.8874    0.0000 C   0  0  0  0  0  0  0  0  0
   -0.0860    5.1249    0.0000 C   0  0  0  0  0  0  0  0  0
    0.6285    4.7124    0.0000 C   0  0  0  0  0  0  0  0  0
    0.6285    3.8874    0.0000 C   0  0  0  0  0  0  0  0  0
   -0.0860    3.4749    0.0000 C   0  0  0  0  0  0  0  0  0
  1  2  1  0  0  0  0
  1 11  1  0  0  0  0
  2  3  4  0  0  0  0
  2  7  4  0  0  0  0
  3  4  4  0  0  0  0
  3  8  1  0  0  0  0
  4  5  4  0  0  0  0
  5  6  4  0  0  0  0
  6  7  4  0  0  0  0
  8  9  2  0  0  0  0
  8 10  1  0  0  0  0
 10 11  1  0  0  0  0
 11 12  1  0  0  0  0
 11 16  1  0  0  0  0
 12 13  1  0  0  0  0
 13 14  1  0  0  0  0
 14 15  1  0  0  0  0
 14 17  1  0  0  0  0
 15 16  1  0  0  0  0
 17 18  1  0  0  0  0
 18 19  1  0  0  0  0
 19 20  4  0  0  0  0
 19 24  4  0  0  0  0
 20 21  4  0  0  0  0
 20 28  4  0  0  0  0
 21 22  4  0  0  0  0
 21 25  4  0  0  0  0
 22 23  4  0  0  0  0
 23 24  4  0  0  0  0
 25 26  4  0  0  0  0
 26 27  4  0  0  0  0
 27 28  4  0  0  0  0
M  END
>  <Name_Molregno>
163722

>  <Alpha-1A>
7.28

>  <Alpha-1B>
7.32

$$$$
164041
  Marvin  02231216192D 0   1.00000     0.00000     0

 31 34  0  0  1  0  0  0  0  0999 V2000
   -5.5960   -0.0028    0.0000 O   0  0  0  0  0  0  0  0  0
   -5.5960   -0.8278    0.0000 C   0  0  0  0  0  0  0  0  0
   -4.8816   -1.2403    0.0000 C   0  0  0  0  0  0  0  0  0
   -4.1671   -0.8278    0.0000 C   0  0  0  0  0  0  0  0  0
   -4.1671   -0.0028    0.0000 C   0  0  0  0  0  0  0  0  0
   -3.4526    0.4097    0.0000 C   0  0  0  0  0  0  0  0  0
   -2.7381   -0.0028    0.0000 N   0  0  0  0  0  0  0  0  0
   -2.0237    0.4097    0.0000 C   0  0  0  0  0  0  0  0  0
   -1.3092   -0.0028    0.0000 C   0  0  0  0  0  0  0  0  0
   -0.5947    0.4097    0.0000 O   0  0  0  0  0  0  0  0  0
    0.1197   -0.0028    0.0000 C   0  0  0  0  0  0  0  0  0
    0.8342    0.4097    0.0000 C   0  0  0  0  0  0  0  0  0
    0.8342    1.2347    0.0000 O   0  0  0  0  0  0  0  0  0
    1.5487    1.6472    0.0000 C   0  0  0  0  0  0  0  0  0
    1.5487   -0.0028    0.0000 C   0  0  0  0  0  0  0  0  0
    1.5487   -0.8278    0.0000 C   0  0  0  0  0  0  0  0  0
    0.8342   -1.2403    0.0000 C   0  0  0  0  0  0  0  0  0
    0.1197   -0.8278    0.0000 C   0  0  0  0  0  0  0  0  0
   -0.5947   -1.2403    0.0000 O   0  0  0  0  0  0  0  0  0
   -0.5947   -2.0653    0.0000 C   0  0  0  0  0  0  0  0  0
   -4.8816    0.4097    0.0000 C   0  0  0  0  0  0  0  0  0
   -4.8816    1.2347    0.0000 C   0  0  0  0  0  0  0  0  0
   -5.5960    1.6472    0.0000 C   0  0  0  0  0  0  0  0  0
   -5.5960    2.4722    0.0000 C   0  0  0  0  0  0  0  0  0
   -4.8816    2.8847    0.0000 C   0  0  0  0  0  0  0  0  0
   -4.1671    2.4722    0.0000 C   0  0  0  0  0  0  0  0  0
   -4.1671    1.6472    0.0000 C   0  0  0  0  0  0  0  0  0
   -4.8816   -2.0653    0.0000 C   0  0  0  0  0  0  0  0  0
   -5.5960   -2.4778    0.0000 C   0  0  0  0  0  0  0  0  0
   -6.3105   -2.0653    0.0000 C   0  0  0  0  0  0  0  0  0
   -6.3105   -1.2403    0.0000 C   0  0  0  0  0  0  0  0  0
  1  2  1  0  0  0  0
  1 21  1  0  0  0  0
  2  3  4  0  0  0  0
  2 31  4  0  0  0  0
  3  4  1  0  0  0  0
  3 28  4  0  0  0  0
  4  5  2  0  0  0  0
  5  6  1  0  0  0  0
  5 21  1  0  0  0  0
  6  7  1  0  0  0  0
  7  8  1  0  0  0  0
  8  9  1  0  0  0  0
  9 10  1  0  0  0  0
 10 11  1  0  0  0  0
 11 12  4  0  0  0  0
 11 18  4  0  0  0  0
 12 13  1  0  0  0  0
 12 15  4  0  0  0  0
 13 14  1  0  0  0  0
 15 16  4  0  0  0  0
 16 17  4  0  0  0  0
 17 18  4  0  0  0  0
 18 19  1  0  0  0  0
 19 20  1  0  0  0  0
 21 22  1  0  0  0  0
 22 23  4  0  0  0  0
 22 27  4  0  0  0  0
 23 24  4  0  0  0  0
 24 25  4  0  0  0  0
 25 26  4  0  0  0  0
 26 27  4  0  0  0  0
 28 29  4  0  0  0  0
 29 30  4  0  0  0  0
 30 31  4  0  0  0  0
M  END
>  <Name_Molregno>
164041

>  <5-HT1A>
8.08

>  <Alpha-1A>
7.14

>  <Alpha-1B>
6.84

$$$$
164045
  Marvin  02231216192D 0   1.00000     0.00000     0

 31 34  0  0  1  0  0  0  0  0999 V2000
   -0.6165   -0.5469    0.0000 O   0  0  0  0  0  0  0  0  0
   -1.3309   -0.1344    0.0000 C   0  0  0  0  0  0  0  0  0
   -2.0454   -0.5469    0.0000 C   0  0  0  0  0  0  0  0  0
   -2.0454   -1.3719    0.0000 C   0  0  0  0  0  0  0  0  0
   -1.3309   -1.7844    0.0000 C   0  0  0  0  0  0  0  0  0
   -0.6165   -1.3719    0.0000 C   0  0  0  0  0  0  0  0  0
    0.0980   -1.7844    0.0000 C   0  0  0  0  0  0  0  0  0
    0.8125   -1.3719    0.0000 N   0  0  0  0  0  0  0  0  0
    1.5270   -1.7844    0.0000 C   0  0  0  0  0  0  0  0  0
    2.2414   -1.3719    0.0000 C   0  0  0  0  0  0  0  0  0
    2.9559   -1.7844    0.0000 O   0  0  0  0  0  0  0  0  0
    3.6704   -1.3719    0.0000 C   0  0  0  0  0  0  0  0  0
    3.6704   -0.5469    0.0000 C   0  0  0  0  0  0  0  0  0
    2.9559   -0.1344    0.0000 O   0  0  0  0  0  0  0  0  0
    2.9559    0.6906    0.0000 C   0  0  0  0  0  0  0  0  0
    4.3848   -0.1344    0.0000 C   0  0  0  0  0  0  0  0  0
    5.0993   -0.5469    0.0000 C   0  0  0  0  0  0  0  0  0
    5.0993   -1.3719    0.0000 C   0  0  0  0  0  0  0  0  0
    4.3848   -1.7844    0.0000 C   0  0  0  0  0  0  0  0  0
    4.3848   -2.6094    0.0000 O   0  0  0  0  0  0  0  0  0
    5.0993   -3.0219    0.0000 C   0  0  0  0  0  0  0  0  0
   -1.3309   -2.6094    0.0000 C   0  0  0  0  0  0  0  0  0
   -0.6165   -3.0219    0.0000 C   0  0  0  0  0  0  0  0  0
   -0.6165   -3.8469    0.0000 C   0  0  0  0  0  0  0  0  0
   -1.3309   -4.2594    0.0000 C   0  0  0  0  0  0  0  0  0
   -2.0454   -3.8469    0.0000 C   0  0  0  0  0  0  0  0  0
   -2.0454   -3.0219    0.0000 C   0  0  0  0  0  0  0  0  0
   -2.7599   -0.1344    0.0000 C   0  0  0  0  0  0  0  0  0
   -2.7599    0.6906    0.0000 C   0  0  0  0  0  0  0  0  0
   -2.0454    1.1031    0.0000 C   0  0  0  0  0  0  0  0  0
   -1.3309    0.6906    0.0000 C   0  0  0  0  0  0  0  0  0
  1  2  1  0  0  0  0
  1  6  1  0  0  0  0
  2  3  4  0  0  0  0
  2 31  4  0  0  0  0
  3  4  1  0  0  0  0
  3 28  4  0  0  0  0
  4  5  1  0  0  0  0
  5  6  1  0  0  0  0
  5 22  1  0  0  0  0
  6  7  1  0  0  0  0
  7  8  1  0  0  0  0
  8  9  1  0  0  0  0
  9 10  1  0  0  0  0
 10 11  1  0  0  0  0
 11 12  1  0  0  0  0
 12 13  4  0  0  0  0
 12 19  4  0  0  0  0
 13 14  1  0  0  0  0
 13 16  4  0  0  0  0
 14 15  1  0  0  0  0
 16 17  4  0  0  0  0
 17 18  4  0  0  0  0
 18 19  4  0  0  0  0
 19 20  1  0  0  0  0
 20 21  1  0  0  0  0
 22 23  4  0  0  0  0
 22 27  4  0  0  0  0
 23 24  4  0  0  0  0
 24 25  4  0  0  0  0
 25 26  4  0  0  0  0
 26 27  4  0  0  0  0
 28 29  4  0  0  0  0
 29 30  4  0  0  0  0
 30 31  4  0  0  0  0
M  END
>  <Name_Molregno>
164045

>  <5-HT1A>
6.8

>  <Alpha-1A>
7.64

>  <Alpha-1B>
6.55

$$$$
164312
  Marvin  02231216192D 0   1.00000     0.00000     0

 32 35  0  0  1  0  0  0  0  0999 V2000
   -0.0585   -0.8734    0.0000 O   0  0  0  0  0  0  0  0  0
    0.6560   -0.4609    0.0000 C   0  0  0  0  0  0  0  0  0
    1.3705   -0.8734    0.0000 C   0  0  0  0  0  0  0  0  0
    2.0849   -0.4609    0.0000 N   0  0  0  0  0  0  0  0  0
    2.7994   -0.8734    0.0000 C   0  0  0  0  0  0  0  0  0
    3.5139   -0.4609    0.0000 C   0  0  0  0  0  0  0  0  0
    4.2284   -0.8734    0.0000 C   0  0  0  0  0  0  0  0  0
    4.9428   -0.4609    0.0000 C   0  0  0  0  0  0  0  0  0
    4.9428    0.3641    0.0000 C   0  0  0  0  0  0  0  0  0
    4.2284    0.7766    0.0000 C   0  0  0  0  0  0  0  0  0
    4.2284    1.6016    0.0000 C   0  0  0  0  0  0  0  0  0
    4.9428    2.0141    0.0000 C   0  0  0  0  0  0  0  0  0
    5.6573    1.6016    0.0000 C   0  0  0  0  0  0  0  0  0
    5.6573    0.7766    0.0000 C   0  0  0  0  0  0  0  0  0
    3.5139    0.3641    0.0000 C   0  0  0  0  0  0  0  0  0
    2.7994    0.7766    0.0000 O   0  0  0  0  0  0  0  0  0
    4.2284   -1.6984    0.0000 C   0  0  0  0  0  0  0  0  0
    4.9428   -2.1109    0.0000 C   0  0  0  0  0  0  0  0  0
    4.9428   -2.9359    0.0000 C   0  0  0  0  0  0  0  0  0
    4.2284   -3.3484    0.0000 C   0  0  0  0  0  0  0  0  0
    3.5139   -2.9359    0.0000 C   0  0  0  0  0  0  0  0  0
    3.5139   -2.1109    0.0000 C   0  0  0  0  0  0  0  0  0
   -0.7729   -0.4609    0.0000 C   0  0  0  0  0  0  0  0  0
   -1.4874   -0.8734    0.0000 C   0  0  0  0  0  0  0  0  0
   -1.4874   -1.6984    0.0000 O   0  0  0  0  0  0  0  0  0
   -2.2019   -2.1109    0.0000 C   0  0  0  0  0  0  0  0  0
   -2.2019   -0.4609    0.0000 C   0  0  0  0  0  0  0  0  0
   -2.2019    0.3641    0.0000 C   0  0  0  0  0  0  0  0  0
   -1.4874    0.7766    0.0000 C   0  0  0  0  0  0  0  0  0
   -0.7729    0.3641    0.0000 C   0  0  0  0  0  0  0  0  0
   -0.0585    0.7766    0.0000 O   0  0  0  0  0  0  0  0  0
   -0.0585    1.6016    0.0000 C   0  0  0  0  0  0  0  0  0
  1  2  1  0  0  0  0
  1 23  1  0  0  0  0
  2  3  1  0  0  0  0
  3  4  1  0  0  0  0
  4  5  1  0  0  0  0
  5  6  1  0  0  0  0
  6  7  1  0  0  0  0
  6 15  1  0  0  0  0
  7  8  1  0  0  0  0
  7 17  1  0  0  0  0
  8  9  1  0  0  0  0
  9 10  4  0  0  0  0
  9 14  4  0  0  0  0
 10 11  4  0  0  0  0
 10 15  1  0  0  0  0
 11 12  4  0  0  0  0
 12 13  4  0  0  0  0
 13 14  4  0  0  0  0
 15 16  2  0  0  0  0
 17 18  4  0  0  0  0
 17 22  4  0  0  0  0
 18 19  4  0  0  0  0
 19 20  4  0  0  0  0
 20 21  4  0  0  0  0
 21 22  4  0  0  0  0
 23 24  4  0  0  0  0
 23 30  4  0  0  0  0
 24 25  1  0  0  0  0
 24 27  4  0  0  0  0
 25 26  1  0  0  0  0
 27 28  4  0  0  0  0
 28 29  4  0  0  0  0
 29 30  4  0  0  0  0
 30 31  1  0  0  0  0
 31 32  1  0  0  0  0
M  END
>  <Name_Molregno>
164312

>  <5-HT1A>
6.83

>  <Alpha-1A>
8.06

>  <Alpha-1B>
6.11

$$$$
164487
  Marvin  02231216192D 0   1.00000     0.00000     0

 32 35  0  0  1  0  0  0  0  0999 V2000
   -5.5535    0.0112    0.0000 S   0  0  0  0  0  0  0  0  0
   -5.5535   -0.8138    0.0000 C   0  0  0  0  0  0  0  0  0
   -4.8390   -1.2263    0.0000 C   0  0  0  0  0  0  0  0  0
   -4.8390   -2.0513    0.0000 C   0  0  0  0  0  0  0  0  0
   -5.5535   -2.4638    0.0000 C   0  0  0  0  0  0  0  0  0
   -6.2679   -2.0513    0.0000 C   0  0  0  0  0  0  0  0  0
   -6.2679   -1.2263    0.0000 C   0  0  0  0  0  0  0  0  0
   -4.1245   -0.8138    0.0000 C   0  0  0  0  0  0  0  0  0
   -3.4100   -1.2263    0.0000 O   0  0  0  0  0  0  0  0  0
   -4.1245    0.0112    0.0000 C   0  0  0  0  0  0  0  0  0
   -3.4100    0.4237    0.0000 C   0  0  0  0  0  0  0  0  0
   -2.6956    0.0112    0.0000 N   0  0  0  0  0  0  0  0  0
   -1.9811    0.4237    0.0000 C   0  0  0  0  0  0  0  0  0
   -1.2666    0.0112    0.0000 C   0  0  0  0  0  0  0  0  0
   -0.5522    0.4237    0.0000 O   0  0  0  0  0  0  0  0  0
    0.1623    0.0112    0.0000 C   0  0  0  0  0  0  0  0  0
    0.8768    0.4237    0.0000 C   0  0  0  0  0  0  0  0  0
    0.8768    1.2487    0.0000 O   0  0  0  0  0  0  0  0  0
    1.5913    1.6612    0.0000 C   0  0  0  0  0  0  0  0  0
    1.5913    0.0112    0.0000 C   0  0  0  0  0  0  0  0  0
    1.5913   -0.8138    0.0000 C   0  0  0  0  0  0  0  0  0
    0.8768   -1.2263    0.0000 C   0  0  0  0  0  0  0  0  0
    0.1623   -0.8138    0.0000 C   0  0  0  0  0  0  0  0  0
   -0.5522   -1.2263    0.0000 O   0  0  0  0  0  0  0  0  0
   -0.5522   -2.0513    0.0000 C   0  0  0  0  0  0  0  0  0
   -4.8390    0.4237    0.0000 C   0  0  0  0  0  0  0  0  0
   -4.8390    1.2487    0.0000 C   0  0  0  0  0  0  0  0  0
   -5.5535    1.6612    0.0000 C   0  0  0  0  0  0  0  0  0
   -5.5535    2.4862    0.0000 C   0  0  0  0  0  0  0  0  0
   -4.8390    2.8987    0.0000 C   0  0  0  0  0  0  0  0  0
   -4.1245    2.4862    0.0000 C   0  0  0  0  0  0  0  0  0
   -4.1245    1.6612    0.0000 C   0  0  0  0  0  0  0  0  0
  1  2  1  0  0  0  0
  1 26  1  0  0  0  0
  2  3  4  0  0  0  0
  2  7  4  0  0  0  0
  3  4  4  0  0  0  0
  3  8  1  0  0  0  0
  4  5  4  0  0  0  0
  5  6  4  0  0  0  0
  6  7  4  0  0  0  0
  8  9  2  0  0  0  0
  8 10  1  0  0  0  0
 10 11  1  0  0  0  0
 10 26  1  0  0  0  0
 11 12  1  0  0  0  0
 12 13  1  0  0  0  0
 13 14  1  0  0  0  0
 14 15  1  0  0  0  0
 15 16  1  0  0  0  0
 16 17  4  0  0  0  0
 16 23  4  0  0  0  0
 17 18  1  0  0  0  0
 17 20  4  0  0  0  0
 18 19  1  0  0  0  0
 20 21  4  0  0  0  0
 21 22  4  0  0  0  0
 22 23  4  0  0  0  0
 23 24  1  0  0  0  0
 24 25  1  0  0  0  0
 26 27  1  0  0  0  0
 27 28  4  0  0  0  0
 27 32  4  0  0  0  0
 28 29  4  0  0  0  0
 29 30  4  0  0  0  0
 30 31  4  0  0  0  0
 31 32  4  0  0  0  0
M  END
>  <Name_Molregno>
164487

>  <5-HT1A>
7.36

>  <Alpha-1A>
7.42

>  <Alpha-1B>
6

$$$$
164488
  Marvin  02231216192D 0   1.00000     0.00000     0

 32 35  0  0  1  0  0  0  0  0999 V2000
   -5.5535    0.0112    0.0000 O   0  0  0  0  0  0  0  0  0
   -5.5535   -0.8138    0.0000 C   0  0  0  0  0  0  0  0  0
   -4.8390   -1.2263    0.0000 C   0  0  0  0  0  0  0  0  0
   -4.8390   -2.0513    0.0000 C   0  0  0  0  0  0  0  0  0
   -5.5535   -2.4638    0.0000 C   0  0  0  0  0  0  0  0  0
   -6.2679   -2.0513    0.0000 C   0  0  0  0  0  0  0  0  0
   -6.2679   -1.2263    0.0000 C   0  0  0  0  0  0  0  0  0
   -4.1245   -0.8138    0.0000 C   0  0  0  0  0  0  0  0  0
   -3.4100   -1.2263    0.0000 O   0  0  0  0  0  0  0  0  0
   -4.1245    0.0112    0.0000 C   0  0  0  0  0  0  0  0  0
   -3.4100    0.4237    0.0000 C   0  0  0  0  0  0  0  0  0
   -2.6956    0.0112    0.0000 N   0  0  0  0  0  0  0  0  0
   -1.9811    0.4237    0.0000 C   0  0  0  0  0  0  0  0  0
   -1.2666    0.0112    0.0000 C   0  0  0  0  0  0  0  0  0
   -0.5522    0.4237    0.0000 O   0  0  0  0  0  0  0  0  0
    0.1623    0.0112    0.0000 C   0  0  0  0  0  0  0  0  0
    0.8768    0.4237    0.0000 C   0  0  0  0  0  0  0  0  0
    0.8768    1.2487    0.0000 O   0  0  0  0  0  0  0  0  0
    1.5913    1.6612    0.0000 C   0  0  0  0  0  0  0  0  0
    1.5913    0.0112    0.0000 C   0  0  0  0  0  0  0  0  0
    1.5913   -0.8138    0.0000 C   0  0  0  0  0  0  0  0  0
    0.8768   -1.2263    0.0000 C   0  0  0  0  0  0  0  0  0
    0.1623   -0.8138    0.0000 C   0  0  0  0  0  0  0  0  0
   -0.5522   -1.2263    0.0000 O   0  0  0  0  0  0  0  0  0
   -0.5522   -2.0513    0.0000 C   0  0  0  0  0  0  0  0  0
   -4.8390    0.4237    0.0000 C   0  0  0  0  0  0  0  0  0
   -4.8390    1.2487    0.0000 C   0  0  0  0  0  0  0  0  0
   -5.5535    1.6612    0.0000 C   0  0  0  0  0  0  0  0  0
   -5.5535    2.4862    0.0000 C   0  0  0  0  0  0  0  0  0
   -4.8390    2.8987    0.0000 C   0  0  0  0  0  0  0  0  0
   -4.1245    2.4862    0.0000 C   0  0  0  0  0  0  0  0  0
   -4.1245    1.6612    0.0000 C   0  0  0  0  0  0  0  0  0
  1  2  1  0  0  0  0
  1 26  1  0  0  0  0
  2  3  4  0  0  0  0
  2  7  4  0  0  0  0
  3  4  4  0  0  0  0
  3  8  1  0  0  0  0
  4  5  4  0  0  0  0
  5  6  4  0  0  0  0
  6  7  4  0  0  0  0
  8  9  2  0  0  0  0
  8 10  1  0  0  0  0
 10 11  1  0  0  0  0
 10 26  1  0  0  0  0
 11 12  1  0  0  0  0
 12 13  1  0  0  0  0
 13 14  1  0  0  0  0
 14 15  1  0  0  0  0
 15 16  1  0  0  0  0
 16 17  4  0  0  0  0
 16 23  4  0  0  0  0
 17 18  1  0  0  0  0
 17 20  4  0  0  0  0
 18 19  1  0  0  0  0
 20 21  4  0  0  0  0
 21 22  4  0  0  0  0
 22 23  4  0  0  0  0
 23 24  1  0  0  0  0
 24 25  1  0  0  0  0
 26 27  1  0  0  0  0
 27 28  4  0  0  0  0
 27 32  4  0  0  0  0
 28 29  4  0  0  0  0
 29 30  4  0  0  0  0
 30 31  4  0  0  0  0
 31 32  4  0  0  0  0
M  END
>  <Name_Molregno>
164488

>  <5-HT1A>
6.73

>  <Alpha-1A>
9.22

>  <Alpha-1B>
6.84

$$$$
172234
  Marvin  02231216192D 0   1.00000     0.00000     0

 27 31  0  0  0  0  0  0  0  0999 V2000
    0.1292    0.6057    0.0000 O   0  0  0  0  0  0  0  0  0
    0.8437    0.1932    0.0000 C   0  0  0  0  0  0  0  0  0
    0.8437   -0.6318    0.0000 C   0  0  0  0  0  0  0  0  0
    1.5581   -1.0443    0.0000 N   0  0  0  0  0  0  0  0  0
    2.2726   -0.6318    0.0000 C   0  0  0  0  0  0  0  0  0
    2.9871   -1.0443    0.0000 C   0  0  0  0  0  0  0  0  0
    2.9871   -1.8693    0.0000 C   0  0  0  0  0  0  0  0  0
    2.2726   -2.2818    0.0000 C   0  0  0  0  0  0  0  0  0
    1.5581   -1.8693    0.0000 C   0  0  0  0  0  0  0  0  0
    3.7015   -2.2818    0.0000 C   0  0  0  0  0  0  0  0  0
    4.4552   -1.9463    0.0000 C   0  0  0  0  0  0  0  0  0
    4.7102   -1.1617    0.0000 C   0  0  0  0  0  0  0  0  0
    5.5171   -0.9901    0.0000 C   0  0  0  0  0  0  0  0  0
    6.0692   -1.6032    0.0000 C   0  0  0  0  0  0  0  0  0
    5.8142   -2.3879    0.0000 N   0  0  0  0  0  0  0  0  0
    5.0073   -2.5594    0.0000 C   0  0  0  0  0  0  0  0  0
    4.5948   -3.2739    0.0000 N   0  0  0  0  0  0  0  0  0
    3.7878   -3.1023    0.0000 C   0  0  0  0  0  0  0  0  0
    0.1292    1.4307    0.0000 C   0  0  0  0  0  0  0  0  0
   -0.5853    1.8432    0.0000 C   0  0  0  0  0  0  0  0  0
   -0.5853    2.6682    0.0000 C   0  0  0  0  0  0  0  0  0
   -1.3699    2.9231    0.0000 N   0  0  0  0  0  0  0  0  0
   -1.8548    2.2557    0.0000 C   0  0  0  0  0  0  0  0  0
   -1.3699    1.5882    0.0000 C   0  0  0  0  0  0  0  0  0
    0.1292    3.0807    0.0000 C   0  0  0  0  0  0  0  0  0
    0.8437    2.6682    0.0000 C   0  0  0  0  0  0  0  0  0
    0.8437    1.8432    0.0000 C   0  0  0  0  0  0  0  0  0
  1  2  1  0  0  0  0
  1 19  1  0  0  0  0
  2  3  1  0  0  0  0
  3  4  1  0  0  0  0
  4  5  1  0  0  0  0
  4  9  1  0  0  0  0
  5  6  1  0  0  0  0
  6  7  1  0  0  0  0
  7  8  2  0  0  0  0
  7 10  1  0  0  0  0
  8  9  1  0  0  0  0
 10 11  4  0  0  0  0
 10 18  4  0  0  0  0
 11 12  4  0  0  0  0
 11 16  4  0  0  0  0
 12 13  4  0  0  0  0
 13 14  4  0  0  0  0
 14 15  4  0  0  0  0
 15 16  4  0  0  0  0
 16 17  4  0  0  0  0
 17 18  4  0  0  0  0
 19 20  4  0  0  0  0
 19 27  4  0  0  0  0
 20 21  4  0  0  0  0
 20 24  4  0  0  0  0
 21 22  4  0  0  0  0
 21 25  4  0  0  0  0
 22 23  4  0  0  0  0
 23 24  4  0  0  0  0
 25 26  4  0  0  0  0
 26 27  4  0  0  0  0
M  STY  2   1 DAT   2 DAT
M  SAL   1  1  17
M  SDT   1 MRV_IMPLICIT_H                                        
M  SDD   1     0.0000    0.0000    DR    ALL  0       0  
M  SED   1 IMPL_H1
M  SAL   2  1  22
M  SDT   2 MRV_IMPLICIT_H                                        
M  SDD   2     0.0000    0.0000    DR    ALL  0       0  
M  SED   2 IMPL_H1
M  END
>  <Name_Molregno>
172234

>  <5-HT1A>
7.96

>  <Alpha-1A>
9

>  <Alpha-1B>
9

>  <Serotonin transporter>
8.82

$$$$
190658
  Marvin  02231216192D 0   1.00000     0.00000     0

 19 20  0  0  0  0  0  0  0  0999 V2000
    0.5558   -4.6925    0.0000 Cl  0  0  0  0  0  0  0  0  0
    0.5558   -3.8675    0.0000 C   0  0  0  0  0  0  0  0  0
    1.2703   -3.4550    0.0000 C   0  0  0  0  0  0  0  0  0
    1.2703   -2.6300    0.0000 C   0  0  0  0  0  0  0  0  0
    1.9153   -2.1156    0.0000 C   0  0  0  0  0  0  0  0  0
    2.7196   -2.2992    0.0000 C   0  0  0  0  0  0  0  0  0
    3.0775   -3.0425    0.0000 N   0  0  0  0  0  0  0  0  0
    2.7196   -3.7858    0.0000 C   0  0  0  0  0  0  0  0  0
    1.9153   -3.9694    0.0000 C   0  0  0  0  0  0  0  0  0
    3.9025   -3.0425    0.0000 C   0  0  0  0  0  0  0  0  0
    0.5558   -2.2175    0.0000 C   0  0  0  0  0  0  0  0  0
    0.5558   -1.3925    0.0000 O   0  0  0  0  0  0  0  0  0
   -0.1587   -0.9800    0.0000 C   0  0  0  0  0  0  0  0  0
   -0.1587   -0.1550    0.0000 C   0  0  0  0  0  0  0  0  0
   -0.8732    0.2575    0.0000 C   0  0  0  0  0  0  0  0  0
   -1.5876   -0.1550    0.0000 C   0  0  0  0  0  0  0  0  0
   -0.8732    1.0825    0.0000 C   0  0  0  0  0  0  0  0  0
   -0.1587   -2.6300    0.0000 C   0  0  0  0  0  0  0  0  0
   -0.1587   -3.4550    0.0000 C   0  0  0  0  0  0  0  0  0
  1  2  1  0  0  0  0
  2  3  4  0  0  0  0
  2 19  4  0  0  0  0
  3  4  4  0  0  0  0
  3  9  1  0  0  0  0
  4  5  1  0  0  0  0
  4 11  4  0  0  0  0
  5  6  1  0  0  0  0
  6  7  1  0  0  0  0
  7  8  1  0  0  0  0
  7 10  1  0  0  0  0
  8  9  1  0  0  0  0
 11 12  1  0  0  0  0
 11 18  4  0  0  0  0
 12 13  1  0  0  0  0
 13 14  1  0  0  0  0
 14 15  2  0  0  0  0
 15 16  1  0  0  0  0
 15 17  1  0  0  0  0
 18 19  4  0  0  0  0
M  END
>  <Name_Molregno>
190658

>  <Alpha-1A>
7.48

>  <Alpha-1B>
7.06

>  <Alpha-2A>
7.23

>  <Alpha-2B>
6.85

>  <Alpha-2C>
7.19

$$$$
202352
  Marvin  02231216192D 0   1.00000     0.00000     0

 45 49  0  0  0  0  0  0  0  0999 V2000
   -2.2839   -0.6553    0.0000 O   0  0  0  0  0  0  0  0  0
   -2.9984   -1.0678    0.0000 C   0  0  0  0  0  0  0  0  0
   -3.7129   -0.6553    0.0000 O   0  0  0  0  0  0  0  0  0
   -2.9984   -1.8928    0.0000 C   0  0  0  0  0  0  0  0  0
   -2.2839   -2.3053    0.0000 C   0  0  0  0  0  0  0  0  0
   -1.5695   -1.8928    0.0000 C   0  0  0  0  0  0  0  0  0
   -0.8550   -2.3053    0.0000 C   0  0  0  0  0  0  0  0  0
   -0.1405   -1.8928    0.0000 C   0  0  0  0  0  0  0  0  0
    0.5739   -2.3053    0.0000 N   0  3  0  0  0  0  0  0  0
    1.2884   -1.8928    0.0000 O   0  5  0  0  0  0  0  0  0
    0.5739   -3.1303    0.0000 O   0  5  0  0  0  0  0  0  0
   -0.1405   -1.0678    0.0000 C   0  0  0  0  0  0  0  0  0
   -0.8550   -0.6553    0.0000 C   0  0  0  0  0  0  0  0  0
   -1.5695   -1.0678    0.0000 C   0  0  0  0  0  0  0  0  0
   -2.2839   -3.1303    0.0000 C   0  0  0  0  0  0  0  0  0
   -1.5695   -3.5428    0.0000 C   0  0  0  0  0  0  0  0  0
   -0.8550   -3.1303    0.0000 O   0  0  0  0  0  0  0  0  0
   -0.1405   -3.5428    0.0000 C   0  0  0  0  0  0  0  0  0
   -1.5695   -4.3678    0.0000 O   0  0  0  0  0  0  0  0  0
   -2.9984   -3.5428    0.0000 C   0  0  0  0  0  0  0  0  0
   -3.7129   -3.1303    0.0000 N   0  0  0  0  0  0  0  0  0
   -3.7129   -2.3053    0.0000 C   0  0  0  0  0  0  0  0  0
   -4.4274   -1.8928    0.0000 C   0  0  0  0  0  0  0  0  0
   -2.9984   -4.3678    0.0000 C   0  0  0  0  0  0  0  0  0
   -2.2839    0.1697    0.0000 C   0  0  0  0  0  0  0  0  0
   -1.5695    0.5822    0.0000 C   0  0  0  0  0  0  0  0  0
   -1.5695    1.4072    0.0000 C   0  0  0  0  0  0  0  0  0
   -0.8550    1.8197    0.0000 N   0  0  0  0  0  0  0  0  0
   -0.8550    2.6447    0.0000 C   0  0  0  0  0  0  0  0  0
   -0.1405    3.0572    0.0000 C   0  0  0  0  0  0  0  0  0
    0.5739    2.6447    0.0000 C   0  0  0  0  0  0  0  0  0
    0.5739    1.8197    0.0000 C   0  0  0  0  0  0  0  0  0
   -0.1405    1.4072    0.0000 C   0  0  0  0  0  0  0  0  0
    0.7735    3.4452    0.0000 C   0  0  0  0  0  0  0  0  0
    0.1801    4.0183    0.0000 C   0  0  0  0  0  0  0  0  0
    0.3797    4.8188    0.0000 C   0  0  0  0  0  0  0  0  0
    1.1727    5.0462    0.0000 C   0  0  0  0  0  0  0  0  0
    1.7661    4.4731    0.0000 C   0  0  0  0  0  0  0  0  0
    1.5666    3.6726    0.0000 C   0  0  0  0  0  0  0  0  0
    1.3984    2.6735    0.0000 C   0  0  0  0  0  0  0  0  0
    1.7857    3.4020    0.0000 C   0  0  0  0  0  0  0  0  0
    2.6102    3.4308    0.0000 C   0  0  0  0  0  0  0  0  0
    3.0474    2.7311    0.0000 C   0  0  0  0  0  0  0  0  0
    2.6601    2.0027    0.0000 C   0  0  0  0  0  0  0  0  0
    1.8356    1.9739    0.0000 C   0  0  0  0  0  0  0  0  0
  1  2  1  0  0  0  0
  1 25  1  0  0  0  0
  2  3  2  0  0  0  0
  2  4  1  0  0  0  0
  4  5  4  0  0  0  0
  4 22  4  0  0  0  0
  5  6  1  0  0  0  0
  5 15  4  0  0  0  0
  6  7  4  0  0  0  0
  6 14  4  0  0  0  0
  7  8  4  0  0  0  0
  8  9  1  0  0  0  0
  8 12  4  0  0  0  0
  9 10  1  0  0  0  0
  9 11  1  0  0  0  0
 12 13  4  0  0  0  0
 13 14  4  0  0  0  0
 15 16  1  0  0  0  0
 15 20  4  0  0  0  0
 16 17  1  0  0  0  0
 16 19  2  0  0  0  0
 17 18  1  0  0  0  0
 20 21  4  0  0  0  0
 20 24  1  0  0  0  0
 21 22  4  0  0  0  0
 22 23  1  0  0  0  0
 25 26  1  0  0  0  0
 26 27  1  0  0  0  0
 27 28  1  0  0  0  0
 28 29  1  0  0  0  0
 28 33  1  0  0  0  0
 29 30  1  0  0  0  0
 30 31  1  0  0  0  0
 31 32  1  0  0  0  0
 31 34  1  0  0  0  0
 31 40  1  0  0  0  0
 32 33  1  0  0  0  0
 34 35  4  0  0  0  0
 34 39  4  0  0  0  0
 35 36  4  0  0  0  0
 36 37  4  0  0  0  0
 37 38  4  0  0  0  0
 38 39  4  0  0  0  0
 40 41  4  0  0  0  0
 40 45  4  0  0  0  0
 41 42  4  0  0  0  0
 42 43  4  0  0  0  0
 43 44  4  0  0  0  0
 44 45  4  0  0  0  0
M  CHG  3   9   1  10  -1  11  -1
M  END
>  <Name_Molregno>
202352

>  <Alpha-1A>
8.74

>  <Alpha-1B>
7.07

$$$$
202353
  Marvin  02231216192D 0   1.00000     0.00000     0

 17 19  0  0  0  0  0  0  0  0999 V2000
    1.1754   -2.2928    0.0000 Cl  0  0  0  0  0  0  0  0  0
    1.2134   -1.4687    0.0000 C   0  0  0  0  0  0  0  0  0
    1.9903   -1.0799    0.0000 C   0  0  0  0  0  0  0  0  0
    2.6491   -1.5765    0.0000 C   0  0  0  0  0  0  0  0  0
    3.4481   -1.3711    0.0000 C   0  0  0  0  0  0  0  0  0
    3.7857   -0.6183    0.0000 N   0  0  0  0  0  0  0  0  0
    3.4076    0.1150    0.0000 C   0  0  0  0  0  0  0  0  0
    2.5986    0.2766    0.0000 C   0  0  0  0  0  0  0  0  0
    1.9679   -0.2552    0.0000 C   0  0  0  0  0  0  0  0  0
    1.2672    0.1804    0.0000 C   0  0  0  0  0  0  0  0  0
    1.4649    0.9814    0.0000 S   0  0  0  0  0  0  0  0  0
    2.2878    1.0408    0.0000 C   0  0  0  0  0  0  0  0  0
    2.7234    1.7415    0.0000 C   0  0  0  0  0  0  0  0  0
    2.3344    2.4690    0.0000 C   0  0  0  0  0  0  0  0  0
    0.5397   -0.2086    0.0000 C   0  0  0  0  0  0  0  0  0
    0.5128   -1.0332    0.0000 C   0  0  0  0  0  0  0  0  0
    4.6104   -0.5958    0.0000 C   0  0  0  0  0  0  0  0  0
  1  2  1  0  0  0  0
  2  3  4  0  0  0  0
  2 16  4  0  0  0  0
  3  4  1  0  0  0  0
  3  9  4  0  0  0  0
  4  5  1  0  0  0  0
  5  6  1  0  0  0  0
  6  7  1  0  0  0  0
  6 17  1  0  0  0  0
  7  8  1  0  0  0  0
  8  9  4  0  0  0  0
  8 12  4  0  0  0  0
  9 10  4  0  0  0  0
 10 11  4  0  0  0  0
 10 15  4  0  0  0  0
 11 12  4  0  0  0  0
 12 13  1  0  0  0  0
 13 14  1  0  0  0  0
 15 16  4  0  0  0  0
M  END
>  <Name_Molregno>
202353

>  <Alpha-1A>
7.24

>  <Alpha-1B>
7.82

$$$$
202354
  Marvin  02231216192D 0   1.00000     0.00000     0

 16 18  0  0  0  0  0  0  0  0999 V2000
    1.8251   -0.4512    0.0000 Br  0  0  0  0  0  0  0  0  0
    1.3895    0.2494    0.0000 C   0  0  0  0  0  0  0  0  0
    0.5667    0.3089    0.0000 O   0  0  0  0  0  0  0  0  0
    0.3689    1.1098    0.0000 C   0  0  0  0  0  0  0  0  0
    1.0696    1.5454    0.0000 C   0  0  0  0  0  0  0  0  0
    1.0921    2.3701    0.0000 C   0  0  0  0  0  0  0  0  0
    1.7508    2.8667    0.0000 C   0  0  0  0  0  0  0  0  0
    2.5498    2.6613    0.0000 C   0  0  0  0  0  0  0  0  0
    2.8874    1.9085    0.0000 N   0  0  0  0  0  0  0  0  0
    2.5094    1.1752    0.0000 C   0  0  0  0  0  0  0  0  0
    1.7003    1.0136    0.0000 C   0  0  0  0  0  0  0  0  0
    3.7121    1.8860    0.0000 C   0  0  0  0  0  0  0  0  0
    0.3152    2.7589    0.0000 C   0  0  0  0  0  0  0  0  0
    0.2772    3.5831    0.0000 Cl  0  0  0  0  0  0  0  0  0
   -0.3855    2.3234    0.0000 C   0  0  0  0  0  0  0  0  0
   -0.3586    1.4988    0.0000 C   0  0  0  0  0  0  0  0  0
  1  2  1  0  0  0  0
  2  3  4  0  0  0  0
  2 11  4  0  0  0  0
  3  4  4  0  0  0  0
  4  5  4  0  0  0  0
  4 16  4  0  0  0  0
  5  6  4  0  0  0  0
  5 11  4  0  0  0  0
  6  7  1  0  0  0  0
  6 13  4  0  0  0  0
  7  8  1  0  0  0  0
  8  9  1  0  0  0  0
  9 10  1  0  0  0  0
  9 12  1  0  0  0  0
 10 11  1  0  0  0  0
 13 14  1  0  0  0  0
 13 15  4  0  0  0  0
 15 16  4  0  0  0  0
M  END
>  <Name_Molregno>
202354

>  <Alpha-1A>
5.48

>  <Alpha-1B>
6.11

$$$$
202660
  Marvin  02231216192D 0   1.00000     0.00000     0

 45 49  0  0  0  0  0  0  0  0999 V2000
   -1.4888   -1.6682    0.0000 O   0  0  0  0  0  0  0  0  0
   -2.2032   -1.2557    0.0000 C   0  0  0  0  0  0  0  0  0
   -2.2032   -0.4307    0.0000 N   0  0  0  0  0  0  0  0  0
   -1.4888   -0.0182    0.0000 C   0  0  0  0  0  0  0  0  0
   -1.4888    0.8068    0.0000 C   0  0  0  0  0  0  0  0  0
   -0.7743    1.2193    0.0000 C   0  0  0  0  0  0  0  0  0
   -0.7743    2.0443    0.0000 N   0  0  0  0  0  0  0  0  0
   -1.4888    2.4568    0.0000 C   0  0  0  0  0  0  0  0  0
   -1.4888    3.2818    0.0000 C   0  0  0  0  0  0  0  0  0
   -0.7743    3.6943    0.0000 C   0  0  0  0  0  0  0  0  0
   -0.0598    3.2818    0.0000 C   0  0  0  0  0  0  0  0  0
   -0.0598    2.4568    0.0000 C   0  0  0  0  0  0  0  0  0
   -1.3678    4.2674    0.0000 C   0  0  0  0  0  0  0  0  0
   -2.1608    4.0400    0.0000 C   0  0  0  0  0  0  0  0  0
   -2.7543    4.6131    0.0000 C   0  0  0  0  0  0  0  0  0
   -2.5547    5.4136    0.0000 C   0  0  0  0  0  0  0  0  0
   -1.7616    5.6410    0.0000 C   0  0  0  0  0  0  0  0  0
   -1.1682    5.0679    0.0000 C   0  0  0  0  0  0  0  0  0
   -0.3870    4.4227    0.0000 C   0  0  0  0  0  0  0  0  0
   -0.8242    5.1224    0.0000 C   0  0  0  0  0  0  0  0  0
   -0.4369    5.8508    0.0000 C   0  0  0  0  0  0  0  0  0
    0.3876    5.8796    0.0000 C   0  0  0  0  0  0  0  0  0
    0.8248    5.1800    0.0000 C   0  0  0  0  0  0  0  0  0
    0.4375    4.4515    0.0000 C   0  0  0  0  0  0  0  0  0
   -2.9177   -1.6682    0.0000 C   0  0  0  0  0  0  0  0  0
   -2.9177   -2.4932    0.0000 C   0  0  0  0  0  0  0  0  0
   -2.2032   -2.9057    0.0000 C   0  0  0  0  0  0  0  0  0
   -1.4888   -2.4932    0.0000 C   0  0  0  0  0  0  0  0  0
   -0.7743   -2.9057    0.0000 C   0  0  0  0  0  0  0  0  0
   -0.7743   -3.7307    0.0000 C   0  0  0  0  0  0  0  0  0
   -0.0598   -4.1432    0.0000 N   0  3  0  0  0  0  0  0  0
   -0.0598   -4.9682    0.0000 O   0  5  0  0  0  0  0  0  0
    0.6546   -3.7307    0.0000 O   0  5  0  0  0  0  0  0  0
   -1.4888   -4.1432    0.0000 C   0  0  0  0  0  0  0  0  0
   -2.2032   -3.7307    0.0000 C   0  0  0  0  0  0  0  0  0
   -3.6322   -2.9057    0.0000 C   0  0  0  0  0  0  0  0  0
   -3.6322   -3.7307    0.0000 C   0  0  0  0  0  0  0  0  0
   -2.9177   -4.1432    0.0000 O   0  0  0  0  0  0  0  0  0
   -4.3467   -4.1432    0.0000 N   0  0  0  0  0  0  0  0  0
   -4.3467   -4.9682    0.0000 C   0  0  0  0  0  0  0  0  0
   -4.3467   -2.4932    0.0000 C   0  0  0  0  0  0  0  0  0
   -4.3467   -1.6682    0.0000 N   0  0  0  0  0  0  0  0  0
   -3.6322   -1.2557    0.0000 C   0  0  0  0  0  0  0  0  0
   -3.6322   -0.4307    0.0000 C   0  0  0  0  0  0  0  0  0
   -5.0611   -2.9057    0.0000 C   0  0  0  0  0  0  0  0  0
  1  2  2  0  0  0  0
  2  3  1  0  0  0  0
  2 25  1  0  0  0  0
  3  4  1  0  0  0  0
  4  5  1  0  0  0  0
  5  6  1  0  0  0  0
  6  7  1  0  0  0  0
  7  8  1  0  0  0  0
  7 12  1  0  0  0  0
  8  9  1  0  0  0  0
  9 10  1  0  0  0  0
 10 11  1  0  0  0  0
 10 13  1  0  0  0  0
 10 19  1  0  0  0  0
 11 12  1  0  0  0  0
 13 14  4  0  0  0  0
 13 18  4  0  0  0  0
 14 15  4  0  0  0  0
 15 16  4  0  0  0  0
 16 17  4  0  0  0  0
 17 18  4  0  0  0  0
 19 20  4  0  0  0  0
 19 24  4  0  0  0  0
 20 21  4  0  0  0  0
 21 22  4  0  0  0  0
 22 23  4  0  0  0  0
 23 24  4  0  0  0  0
 25 26  4  0  0  0  0
 25 43  4  0  0  0  0
 26 27  1  0  0  0  0
 26 36  4  0  0  0  0
 27 28  4  0  0  0  0
 27 35  4  0  0  0  0
 28 29  4  0  0  0  0
 29 30  4  0  0  0  0
 30 31  1  0  0  0  0
 30 34  4  0  0  0  0
 31 32  1  0  0  0  0
 31 33  1  0  0  0  0
 34 35  4  0  0  0  0
 36 37  1  0  0  0  0
 36 41  4  0  0  0  0
 37 38  2  0  0  0  0
 37 39  1  0  0  0  0
 39 40  1  0  0  0  0
 41 42  4  0  0  0  0
 41 45  1  0  0  0  0
 42 43  4  0  0  0  0
 43 44  1  0  0  0  0
M  CHG  3  31   1  32  -1  33  -1
M  END
>  <Name_Molregno>
202660

>  <Alpha-1A>
8.51

>  <Alpha-1B>
6.38

$$$$
202693
  Marvin  02231216192D 0   1.00000     0.00000     0

 44 48  0  0  0  0  0  0  0  0999 V2000
   -1.6609   -1.8146    0.0000 O   0  0  0  0  0  0  0  0  0
   -2.3754   -1.4021    0.0000 C   0  0  0  0  0  0  0  0  0
   -2.3754   -0.5771    0.0000 N   0  0  0  0  0  0  0  0  0
   -1.6609   -0.1646    0.0000 C   0  0  0  0  0  0  0  0  0
   -1.6609    0.6604    0.0000 C   0  0  0  0  0  0  0  0  0
   -0.9464    1.0729    0.0000 C   0  0  0  0  0  0  0  0  0
   -0.9464    1.8979    0.0000 N   0  0  0  0  0  0  0  0  0
   -1.6609    2.3104    0.0000 C   0  0  0  0  0  0  0  0  0
   -1.6609    3.1354    0.0000 C   0  0  0  0  0  0  0  0  0
   -0.9464    3.5479    0.0000 C   0  0  0  0  0  0  0  0  0
   -0.2320    3.1354    0.0000 C   0  0  0  0  0  0  0  0  0
   -0.2320    2.3104    0.0000 C   0  0  0  0  0  0  0  0  0
   -1.5399    4.1210    0.0000 C   0  0  0  0  0  0  0  0  0
   -2.3329    3.8936    0.0000 C   0  0  0  0  0  0  0  0  0
   -2.9264    4.4666    0.0000 C   0  0  0  0  0  0  0  0  0
   -2.7268    5.2671    0.0000 C   0  0  0  0  0  0  0  0  0
   -1.9338    5.4945    0.0000 C   0  0  0  0  0  0  0  0  0
   -1.3403    4.9215    0.0000 C   0  0  0  0  0  0  0  0  0
   -0.5591    4.2763    0.0000 C   0  0  0  0  0  0  0  0  0
   -0.9963    4.9759    0.0000 C   0  0  0  0  0  0  0  0  0
   -0.6090    5.7044    0.0000 C   0  0  0  0  0  0  0  0  0
    0.2155    5.7332    0.0000 C   0  0  0  0  0  0  0  0  0
    0.6527    5.0335    0.0000 C   0  0  0  0  0  0  0  0  0
    0.2654    4.3051    0.0000 C   0  0  0  0  0  0  0  0  0
   -3.0899   -1.8146    0.0000 C   0  0  0  0  0  0  0  0  0
   -3.0899   -2.6396    0.0000 C   0  0  0  0  0  0  0  0  0
   -2.3754   -3.0521    0.0000 C   0  0  0  0  0  0  0  0  0
   -1.6609   -2.6396    0.0000 C   0  0  0  0  0  0  0  0  0
   -0.9464   -3.0521    0.0000 C   0  0  0  0  0  0  0  0  0
   -0.9464   -3.8771    0.0000 C   0  0  0  0  0  0  0  0  0
   -0.2320   -4.2896    0.0000 N   0  3  0  0  0  0  0  0  0
   -0.2320   -5.1146    0.0000 O   0  5  0  0  0  0  0  0  0
    0.4825   -3.8771    0.0000 O   0  5  0  0  0  0  0  0  0
   -1.6609   -4.2896    0.0000 C   0  0  0  0  0  0  0  0  0
   -2.3754   -3.8771    0.0000 C   0  0  0  0  0  0  0  0  0
   -3.8043   -3.0521    0.0000 C   0  0  0  0  0  0  0  0  0
   -3.8043   -3.8771    0.0000 C   0  0  0  0  0  0  0  0  0
   -3.0899   -4.2896    0.0000 O   0  0  0  0  0  0  0  0  0
   -4.5188   -4.2896    0.0000 N   0  0  0  0  0  0  0  0  0
   -4.5188   -2.6396    0.0000 C   0  0  0  0  0  0  0  0  0
   -4.5188   -1.8146    0.0000 N   0  0  0  0  0  0  0  0  0
   -3.8043   -1.4021    0.0000 C   0  0  0  0  0  0  0  0  0
   -3.8043   -0.5771    0.0000 C   0  0  0  0  0  0  0  0  0
   -5.2333   -3.0521    0.0000 C   0  0  0  0  0  0  0  0  0
  1  2  2  0  0  0  0
  2  3  1  0  0  0  0
  2 25  1  0  0  0  0
  3  4  1  0  0  0  0
  4  5  1  0  0  0  0
  5  6  1  0  0  0  0
  6  7  1  0  0  0  0
  7  8  1  0  0  0  0
  7 12  1  0  0  0  0
  8  9  1  0  0  0  0
  9 10  1  0  0  0  0
 10 11  1  0  0  0  0
 10 13  1  0  0  0  0
 10 19  1  0  0  0  0
 11 12  1  0  0  0  0
 13 14  4  0  0  0  0
 13 18  4  0  0  0  0
 14 15  4  0  0  0  0
 15 16  4  0  0  0  0
 16 17  4  0  0  0  0
 17 18  4  0  0  0  0
 19 20  4  0  0  0  0
 19 24  4  0  0  0  0
 20 21  4  0  0  0  0
 21 22  4  0  0  0  0
 22 23  4  0  0  0  0
 23 24  4  0  0  0  0
 25 26  4  0  0  0  0
 25 42  4  0  0  0  0
 26 27  1  0  0  0  0
 26 36  4  0  0  0  0
 27 28  4  0  0  0  0
 27 35  4  0  0  0  0
 28 29  4  0  0  0  0
 29 30  4  0  0  0  0
 30 31  1  0  0  0  0
 30 34  4  0  0  0  0
 31 32  1  0  0  0  0
 31 33  1  0  0  0  0
 34 35  4  0  0  0  0
 36 37  1  0  0  0  0
 36 40  4  0  0  0  0
 37 38  2  0  0  0  0
 37 39  1  0  0  0  0
 40 41  4  0  0  0  0
 40 44  1  0  0  0  0
 41 42  4  0  0  0  0
 42 43  1  0  0  0  0
M  CHG  3  31   1  32  -1  33  -1
M  END
>  <Name_Molregno>
202693

>  <Alpha-1A>
8.89

>  <Alpha-1B>
6.39

$$$$
202694
  Marvin  02231216192D 0   1.00000     0.00000     0

 13 14  0  0  0  0  0  0  0  0999 V2000
   -0.0160    0.0460    0.0000 Cl  0  0  0  0  0  0  0  0  0
   -0.0160   -0.7790    0.0000 C   0  0  0  0  0  0  0  0  0
    0.6984   -1.1915    0.0000 C   0  0  0  0  0  0  0  0  0
    1.3434   -0.6771    0.0000 C   0  0  0  0  0  0  0  0  0
    2.1478   -0.8607    0.0000 C   0  0  0  0  0  0  0  0  0
    2.5057   -1.6040    0.0000 N   0  0  0  0  0  0  0  0  0
    2.1478   -2.3473    0.0000 C   0  0  0  0  0  0  0  0  0
    1.3434   -2.5308    0.0000 C   0  0  0  0  0  0  0  0  0
    0.6984   -2.0165    0.0000 C   0  0  0  0  0  0  0  0  0
   -0.0160   -2.4290    0.0000 C   0  0  0  0  0  0  0  0  0
   -0.7305   -2.0165    0.0000 C   0  0  0  0  0  0  0  0  0
   -0.7305   -1.1915    0.0000 C   0  0  0  0  0  0  0  0  0
    3.3307   -1.6040    0.0000 C   0  0  0  0  0  0  0  0  0
  1  2  1  0  0  0  0
  2  3  4  0  0  0  0
  2 12  4  0  0  0  0
  3  4  1  0  0  0  0
  3  9  4  0  0  0  0
  4  5  1  0  0  0  0
  5  6  1  0  0  0  0
  6  7  1  0  0  0  0
  6 13  1  0  0  0  0
  7  8  1  0  0  0  0
  8  9  1  0  0  0  0
  9 10  4  0  0  0  0
 10 11  4  0  0  0  0
 11 12  4  0  0  0  0
M  END
>  <Name_Molregno>
202694

>  <Alpha-1A>
6.35

>  <Alpha-1B>
6.31

$$$$
202908
  Marvin  02231216192D 0   1.00000     0.00000     0

 45 49  0  0  0  0  0  0  0  0999 V2000
    1.5256    3.1397    0.0000 O   0  0  0  0  0  0  0  0  0
    2.2401    2.7272    0.0000 C   0  0  0  0  0  0  0  0  0
    2.9546    3.1397    0.0000 O   0  0  0  0  0  0  0  0  0
    2.2401    1.9022    0.0000 C   0  0  0  0  0  0  0  0  0
    2.9546    1.4897    0.0000 C   0  0  0  0  0  0  0  0  0
    3.6690    1.9022    0.0000 C   0  0  0  0  0  0  0  0  0
    3.6690    2.7272    0.0000 C   0  0  0  0  0  0  0  0  0
    4.3835    3.1397    0.0000 C   0  0  0  0  0  0  0  0  0
    5.0980    2.7272    0.0000 C   0  0  0  0  0  0  0  0  0
    5.8124    3.1397    0.0000 N   0  3  0  0  0  0  0  0  0
    6.5269    2.7272    0.0000 O   0  5  0  0  0  0  0  0  0
    5.8124    3.9647    0.0000 O   0  5  0  0  0  0  0  0  0
    5.0980    1.9022    0.0000 C   0  0  0  0  0  0  0  0  0
    4.3835    1.4897    0.0000 C   0  0  0  0  0  0  0  0  0
    2.9546    0.6647    0.0000 C   0  0  0  0  0  0  0  0  0
    3.6690    0.2522    0.0000 C   0  0  0  0  0  0  0  0  0
    4.3835    0.6647    0.0000 O   0  0  0  0  0  0  0  0  0
    3.6690   -0.5728    0.0000 N   0  0  0  0  0  0  0  0  0
    4.3835   -0.9853    0.0000 C   0  0  0  0  0  0  0  0  0
    4.3835   -1.8103    0.0000 C   0  0  0  0  0  0  0  0  0
    5.0980   -2.2228    0.0000 C   0  0  0  0  0  0  0  0  0
    5.0980   -3.0478    0.0000 N   0  0  0  0  0  0  0  0  0
    5.8124   -3.4603    0.0000 C   0  0  0  0  0  0  0  0  0
    5.8124   -4.2853    0.0000 C   0  0  0  0  0  0  0  0  0
    5.0980   -4.6978    0.0000 C   0  0  0  0  0  0  0  0  0
    4.3835   -4.2853    0.0000 C   0  0  0  0  0  0  0  0  0
    4.3835   -3.4603    0.0000 C   0  0  0  0  0  0  0  0  0
    5.6914   -5.2709    0.0000 C   0  0  0  0  0  0  0  0  0
    6.4845   -5.0435    0.0000 C   0  0  0  0  0  0  0  0  0
    7.0779   -5.6166    0.0000 C   0  0  0  0  0  0  0  0  0
    6.8783   -6.4171    0.0000 C   0  0  0  0  0  0  0  0  0
    6.0853   -6.6445    0.0000 C   0  0  0  0  0  0  0  0  0
    5.4918   -6.0714    0.0000 C   0  0  0  0  0  0  0  0  0
    4.7107   -5.4263    0.0000 C   0  0  0  0  0  0  0  0  0
    5.1478   -6.1259    0.0000 C   0  0  0  0  0  0  0  0  0
    4.7605   -6.8543    0.0000 C   0  0  0  0  0  0  0  0  0
    3.9360   -6.8831    0.0000 C   0  0  0  0  0  0  0  0  0
    3.4989   -6.1835    0.0000 C   0  0  0  0  0  0  0  0  0
    3.8862   -5.4550    0.0000 C   0  0  0  0  0  0  0  0  0
    2.2401    0.2522    0.0000 C   0  0  0  0  0  0  0  0  0
    1.5256    0.6647    0.0000 N   0  0  0  0  0  0  0  0  0
    1.5256    1.4897    0.0000 C   0  0  0  0  0  0  0  0  0
    0.8112    1.9022    0.0000 C   0  0  0  0  0  0  0  0  0
    2.2401   -0.5728    0.0000 C   0  0  0  0  0  0  0  0  0
    1.5256    3.9647    0.0000 C   0  0  0  0  0  0  0  0  0
  1  2  1  0  0  0  0
  1 45  1  0  0  0  0
  2  3  2  0  0  0  0
  2  4  1  0  0  0  0
  4  5  4  0  0  0  0
  4 42  4  0  0  0  0
  5  6  1  0  0  0  0
  5 15  4  0  0  0  0
  6  7  4  0  0  0  0
  6 14  4  0  0  0  0
  7  8  4  0  0  0  0
  8  9  4  0  0  0  0
  9 10  1  0  0  0  0
  9 13  4  0  0  0  0
 10 11  1  0  0  0  0
 10 12  1  0  0  0  0
 13 14  4  0  0  0  0
 15 16  1  0  0  0  0
 15 40  4  0  0  0  0
 16 17  2  0  0  0  0
 16 18  1  0  0  0  0
 18 19  1  0  0  0  0
 19 20  1  0  0  0  0
 20 21  1  0  0  0  0
 21 22  1  0  0  0  0
 22 23  1  0  0  0  0
 22 27  1  0  0  0  0
 23 24  1  0  0  0  0
 24 25  1  0  0  0  0
 25 26  1  0  0  0  0
 25 28  1  0  0  0  0
 25 34  1  0  0  0  0
 26 27  1  0  0  0  0
 28 29  4  0  0  0  0
 28 33  4  0  0  0  0
 29 30  4  0  0  0  0
 30 31  4  0  0  0  0
 31 32  4  0  0  0  0
 32 33  4  0  0  0  0
 34 35  4  0  0  0  0
 34 39  4  0  0  0  0
 35 36  4  0  0  0  0
 36 37  4  0  0  0  0
 37 38  4  0  0  0  0
 38 39  4  0  0  0  0
 40 41  4  0  0  0  0
 40 44  1  0  0  0  0
 41 42  4  0  0  0  0
 42 43  1  0  0  0  0
M  CHG  3  10   1  11  -1  12  -1
M  END
>  <Name_Molregno>
202908

>  <Alpha-1A>
8.89

>  <Alpha-1B>
6.57

$$$$
202950
  Marvin  02231216192D 0   1.00000     0.00000     0

 45 49  0  0  0  0  0  0  0  0999 V2000
   -2.3923   -0.7208    0.0000 O   0  0  0  0  0  0  0  0  0
   -3.1067   -1.1333    0.0000 C   0  0  0  0  0  0  0  0  0
   -3.8212   -0.7208    0.0000 O   0  0  0  0  0  0  0  0  0
   -3.1067   -1.9583    0.0000 C   0  0  0  0  0  0  0  0  0
   -2.3923   -2.3708    0.0000 C   0  0  0  0  0  0  0  0  0
   -1.6778   -1.9583    0.0000 C   0  0  0  0  0  0  0  0  0
   -1.6778   -1.1333    0.0000 C   0  0  0  0  0  0  0  0  0
   -0.9633   -0.7208    0.0000 C   0  0  0  0  0  0  0  0  0
   -0.2489   -1.1333    0.0000 C   0  0  0  0  0  0  0  0  0
    0.4656   -0.7208    0.0000 N   0  3  0  0  0  0  0  0  0
    1.1801   -1.1333    0.0000 O   0  5  0  0  0  0  0  0  0
    0.4656    0.1042    0.0000 O   0  5  0  0  0  0  0  0  0
   -0.2489   -1.9583    0.0000 C   0  0  0  0  0  0  0  0  0
   -0.9633   -2.3708    0.0000 C   0  0  0  0  0  0  0  0  0
   -2.3923   -3.1958    0.0000 C   0  0  0  0  0  0  0  0  0
   -1.6778   -3.6083    0.0000 C   0  0  0  0  0  0  0  0  0
   -0.9633   -3.1958    0.0000 O   0  0  0  0  0  0  0  0  0
   -0.2489   -3.6083    0.0000 C   0  0  0  0  0  0  0  0  0
   -1.6778   -4.4333    0.0000 O   0  0  0  0  0  0  0  0  0
   -3.1067   -3.6083    0.0000 C   0  0  0  0  0  0  0  0  0
   -3.8212   -3.1958    0.0000 N   0  0  0  0  0  0  0  0  0
   -3.8212   -2.3708    0.0000 C   0  0  0  0  0  0  0  0  0
   -4.5357   -1.9583    0.0000 C   0  0  0  0  0  0  0  0  0
   -3.1067   -4.4333    0.0000 C   0  0  0  0  0  0  0  0  0
   -2.3923    0.1042    0.0000 C   0  0  0  0  0  0  0  0  0
   -1.6778    0.5167    0.0000 C   0  0  0  0  0  0  0  0  0
   -1.6778    1.3417    0.0000 C   0  0  0  0  0  0  0  0  0
   -0.9633    1.7542    0.0000 N   0  0  0  0  0  0  0  0  0
   -0.9633    2.5792    0.0000 C   0  0  0  0  0  0  0  0  0
   -0.2489    2.9917    0.0000 C   0  0  0  0  0  0  0  0  0
    0.4656    2.5792    0.0000 C   0  0  0  0  0  0  0  0  0
    0.4656    1.7542    0.0000 C   0  0  0  0  0  0  0  0  0
   -0.2489    1.3417    0.0000 C   0  0  0  0  0  0  0  0  0
    0.6652    3.3796    0.0000 C   0  0  0  0  0  0  0  0  0
    0.0717    3.9527    0.0000 C   0  0  0  0  0  0  0  0  0
    0.2713    4.7532    0.0000 C   0  0  0  0  0  0  0  0  0
    1.0644    4.9806    0.0000 C   0  0  0  0  0  0  0  0  0
    1.6578    4.4075    0.0000 C   0  0  0  0  0  0  0  0  0
    1.4582    3.6070    0.0000 C   0  0  0  0  0  0  0  0  0
    1.2901    2.6079    0.0000 C   0  0  0  0  0  0  0  0  0
    1.6774    3.3364    0.0000 C   0  0  0  0  0  0  0  0  0
    2.5019    3.3652    0.0000 C   0  0  0  0  0  0  0  0  0
    2.9391    2.6655    0.0000 C   0  0  0  0  0  0  0  0  0
    2.5518    1.9371    0.0000 C   0  0  0  0  0  0  0  0  0
    1.7273    1.9083    0.0000 C   0  0  0  0  0  0  0  0  0
  1  2  1  0  0  0  0
  1 25  1  0  0  0  0
  2  3  2  0  0  0  0
  2  4  1  0  0  0  0
  4  5  4  0  0  0  0
  4 22  4  0  0  0  0
  5  6  1  0  0  0  0
  5 15  4  0  0  0  0
  6  7  4  0  0  0  0
  6 14  4  0  0  0  0
  7  8  4  0  0  0  0
  8  9  4  0  0  0  0
  9 10  1  0  0  0  0
  9 13  4  0  0  0  0
 10 11  1  0  0  0  0
 10 12  1  0  0  0  0
 13 14  4  0  0  0  0
 15 16  1  0  0  0  0
 15 20  4  0  0  0  0
 16 17  1  0  0  0  0
 16 19  2  0  0  0  0
 17 18  1  0  0  0  0
 20 21  4  0  0  0  0
 20 24  1  0  0  0  0
 21 22  4  0  0  0  0
 22 23  1  0  0  0  0
 25 26  1  0  0  0  0
 26 27  1  0  0  0  0
 27 28  1  0  0  0  0
 28 29  1  0  0  0  0
 28 33  1  0  0  0  0
 29 30  1  0  0  0  0
 30 31  1  0  0  0  0
 31 32  1  0  0  0  0
 31 34  1  0  0  0  0
 31 40  1  0  0  0  0
 32 33  1  0  0  0  0
 34 35  4  0  0  0  0
 34 39  4  0  0  0  0
 35 36  4  0  0  0  0
 36 37  4  0  0  0  0
 37 38  4  0  0  0  0
 38 39  4  0  0  0  0
 40 41  4  0  0  0  0
 40 45  4  0  0  0  0
 41 42  4  0  0  0  0
 42 43  4  0  0  0  0
 43 44  4  0  0  0  0
 44 45  4  0  0  0  0
M  CHG  3  10   1  11  -1  12  -1
M  END
>  <Name_Molregno>
202950

>  <Alpha-1A>
8.48

>  <Alpha-1B>
7.07

$$$$
202951
  Marvin  02231216192D 0   1.00000     0.00000     0

 45 49  0  0  0  0  0  0  0  0999 V2000
    1.7640    3.0825    0.0000 O   0  0  0  0  0  0  0  0  0
    2.4784    2.6700    0.0000 C   0  0  0  0  0  0  0  0  0
    3.1929    3.0825    0.0000 O   0  0  0  0  0  0  0  0  0
    2.4784    1.8450    0.0000 C   0  0  0  0  0  0  0  0  0
    3.1929    1.4325    0.0000 C   0  0  0  0  0  0  0  0  0
    3.9074    1.8450    0.0000 C   0  0  0  0  0  0  0  0  0
    3.9074    2.6700    0.0000 C   0  0  0  0  0  0  0  0  0
    4.6218    3.0825    0.0000 C   0  0  0  0  0  0  0  0  0
    4.6218    3.9075    0.0000 N   0  3  0  0  0  0  0  0  0
    5.3363    4.3200    0.0000 O   0  5  0  0  0  0  0  0  0
    3.9074    4.3200    0.0000 O   0  5  0  0  0  0  0  0  0
    5.3363    2.6700    0.0000 C   0  0  0  0  0  0  0  0  0
    5.3363    1.8450    0.0000 C   0  0  0  0  0  0  0  0  0
    4.6218    1.4325    0.0000 C   0  0  0  0  0  0  0  0  0
    3.1929    0.6075    0.0000 C   0  0  0  0  0  0  0  0  0
    3.9074    0.1950    0.0000 C   0  0  0  0  0  0  0  0  0
    4.6218    0.6075    0.0000 O   0  0  0  0  0  0  0  0  0
    3.9074   -0.6300    0.0000 N   0  0  0  0  0  0  0  0  0
    4.6218   -1.0425    0.0000 C   0  0  0  0  0  0  0  0  0
    4.6218   -1.8675    0.0000 C   0  0  0  0  0  0  0  0  0
    5.3363   -2.2800    0.0000 C   0  0  0  0  0  0  0  0  0
    5.3363   -3.1050    0.0000 N   0  0  0  0  0  0  0  0  0
    6.0508   -3.5175    0.0000 C   0  0  0  0  0  0  0  0  0
    6.0508   -4.3425    0.0000 C   0  0  0  0  0  0  0  0  0
    5.3363   -4.7550    0.0000 C   0  0  0  0  0  0  0  0  0
    4.6218   -4.3425    0.0000 C   0  0  0  0  0  0  0  0  0
    4.6218   -3.5175    0.0000 C   0  0  0  0  0  0  0  0  0
    5.9298   -5.3281    0.0000 C   0  0  0  0  0  0  0  0  0
    6.7228   -5.1007    0.0000 C   0  0  0  0  0  0  0  0  0
    7.3163   -5.6738    0.0000 C   0  0  0  0  0  0  0  0  0
    7.1167   -6.4743    0.0000 C   0  0  0  0  0  0  0  0  0
    6.3236   -6.7017    0.0000 C   0  0  0  0  0  0  0  0  0
    5.7302   -6.1286    0.0000 C   0  0  0  0  0  0  0  0  0
    4.9490   -5.4835    0.0000 C   0  0  0  0  0  0  0  0  0
    5.3862   -6.1831    0.0000 C   0  0  0  0  0  0  0  0  0
    4.9989   -6.9115    0.0000 C   0  0  0  0  0  0  0  0  0
    4.1744   -6.9403    0.0000 C   0  0  0  0  0  0  0  0  0
    3.7372   -6.2407    0.0000 C   0  0  0  0  0  0  0  0  0
    4.1245   -5.5123    0.0000 C   0  0  0  0  0  0  0  0  0
    2.4784    0.1950    0.0000 C   0  0  0  0  0  0  0  0  0
    1.7640    0.6075    0.0000 N   0  0  0  0  0  0  0  0  0
    1.7640    1.4325    0.0000 C   0  0  0  0  0  0  0  0  0
    1.0495    1.8450    0.0000 C   0  0  0  0  0  0  0  0  0
    2.4784   -0.6300    0.0000 C   0  0  0  0  0  0  0  0  0
    1.7640    3.9075    0.0000 C   0  0  0  0  0  0  0  0  0
  1  2  1  0  0  0  0
  1 45  1  0  0  0  0
  2  3  2  0  0  0  0
  2  4  1  0  0  0  0
  4  5  4  0  0  0  0
  4 42  4  0  0  0  0
  5  6  1  0  0  0  0
  5 15  4  0  0  0  0
  6  7  4  0  0  0  0
  6 14  4  0  0  0  0
  7  8  4  0  0  0  0
  8  9  1  0  0  0  0
  8 12  4  0  0  0  0
  9 10  1  0  0  0  0
  9 11  1  0  0  0  0
 12 13  4  0  0  0  0
 13 14  4  0  0  0  0
 15 16  1  0  0  0  0
 15 40  4  0  0  0  0
 16 17  2  0  0  0  0
 16 18  1  0  0  0  0
 18 19  1  0  0  0  0
 19 20  1  0  0  0  0
 20 21  1  0  0  0  0
 21 22  1  0  0  0  0
 22 23  1  0  0  0  0
 22 27  1  0  0  0  0
 23 24  1  0  0  0  0
 24 25  1  0  0  0  0
 25 26  1  0  0  0  0
 25 28  1  0  0  0  0
 25 34  1  0  0  0  0
 26 27  1  0  0  0  0
 28 29  4  0  0  0  0
 28 33  4  0  0  0  0
 29 30  4  0  0  0  0
 30 31  4  0  0  0  0
 31 32  4  0  0  0  0
 32 33  4  0  0  0  0
 34 35  4  0  0  0  0
 34 39  4  0  0  0  0
 35 36  4  0  0  0  0
 36 37  4  0  0  0  0
 37 38  4  0  0  0  0
 38 39  4  0  0  0  0
 40 41  4  0  0  0  0
 40 44  1  0  0  0  0
 41 42  4  0  0  0  0
 42 43  1  0  0  0  0
M  CHG  3   9   1  10  -1  11  -1
M  END
>  <Name_Molregno>
202951

>  <Alpha-1A>
9.4

>  <Alpha-1B>
6.63

$$$$
221873
  Marvin  02231216192D 0   1.00000     0.00000     0

 25 28  0  0  1  0  0  0  0  0999 V2000
    0.0603    0.0136    0.0000 O   0  0  0  0  0  0  0  0  0
    0.7747    0.4261    0.0000 C   0  0  0  0  0  0  0  0  0
    0.7747    1.2511    0.0000 C   0  0  0  0  0  0  0  0  0
    0.0603    1.6636    0.0000 O   0  0  0  0  0  0  0  0  0
   -0.6542    1.2511    0.0000 C   0  0  0  0  0  0  0  0  0
   -0.6542    0.4261    0.0000 C   0  0  0  0  0  0  0  0  0
   -1.3687    0.0136    0.0000 C   0  0  0  0  0  0  0  0  0
   -2.0832    0.4261    0.0000 N   0  0  0  0  0  0  0  0  0
   -2.7976    0.0136    0.0000 C   0  0  0  0  0  0  0  0  0
   -2.8839   -0.8069    0.0000 C   0  0  0  0  0  0  0  0  0
   -3.6908   -0.9784    0.0000 C   0  0  0  0  0  0  0  0  0
   -4.1033   -0.2639    0.0000 C   0  0  0  0  0  0  0  0  0
   -4.9238   -0.1777    0.0000 O   0  0  0  0  0  0  0  0  0
   -5.4087   -0.8451    0.0000 C   0  0  0  0  0  0  0  0  0
   -5.0732   -1.5988    0.0000 C   0  0  0  0  0  0  0  0  0
   -5.5581   -2.2663    0.0000 C   0  0  0  0  0  0  0  0  0
   -6.3786   -2.1800    0.0000 C   0  0  0  0  0  0  0  0  0
   -6.7141   -1.4263    0.0000 C   0  0  0  0  0  0  0  0  0
   -6.2292   -0.7589    0.0000 C   0  0  0  0  0  0  0  0  0
   -3.5513    0.3492    0.0000 C   0  0  0  0  0  0  0  0  0
   -3.7228    1.1561    0.0000 O   0  0  0  0  0  0  0  0  0
    1.4892    1.6636    0.0000 C   0  0  0  0  0  0  0  0  0
    2.2037    1.2511    0.0000 C   0  0  0  0  0  0  0  0  0
    2.2037    0.4261    0.0000 C   0  0  0  0  0  0  0  0  0
    1.4892    0.0136    0.0000 C   0  0  0  0  0  0  0  0  0
  1  2  1  0  0  0  0
  1  6  1  0  0  0  0
  2  3  4  0  0  0  0
  2 25  4  0  0  0  0
  3  4  1  0  0  0  0
  3 22  4  0  0  0  0
  4  5  1  0  0  0  0
  5  6  1  0  0  0  0
  6  7  1  0  0  0  0
  7  8  1  0  0  0  0
  8  9  1  0  0  0  0
  9 10  1  0  0  0  0
  9 20  1  0  0  0  0
 10 11  1  0  0  0  0
 11 12  1  0  0  0  0
 12 13  1  0  0  0  0
 12 20  1  0  0  0  0
 13 14  1  0  0  0  0
 14 15  4  0  0  0  0
 14 19  4  0  0  0  0
 15 16  4  0  0  0  0
 16 17  4  0  0  0  0
 17 18  4  0  0  0  0
 18 19  4  0  0  0  0
 20 21  1  0  0  0  0
 22 23  4  0  0  0  0
 23 24  4  0  0  0  0
 24 25  4  0  0  0  0
M  END
>  <Name_Molregno>
221873

>  <5-HT1A>
8.36

>  <Alpha-1A>
6.75

>  <Alpha-1B>
6.26

$$$$
241151
  Marvin  02231216192D 0   1.00000     0.00000     0

 34 37  0  0  1  0  0  0  0  0999 V2000
   -0.1532    0.0273    0.0000 O   0  0  0  0  0  0  0  0  0
    0.5613    0.4398    0.0000 C   0  0  0  0  0  0  0  0  0
    1.2758    0.0273    0.0000 C   0  0  0  0  0  0  0  0  0
    1.9902    0.4398    0.0000 N   0  0  0  0  0  0  0  0  0
    2.7047    0.0273    0.0000 C   0  0  0  0  0  0  0  0  0
    3.4192    0.4398    0.0000 C   0  0  0  0  0  0  0  0  0
    3.4192    1.2648    0.0000 C   0  0  0  0  0  0  0  0  0
    4.1337    1.6773    0.0000 C   0  0  0  0  0  0  0  0  0
    4.8481    1.2648    0.0000 C   0  0  0  0  0  0  0  0  0
    4.8481    0.4398    0.0000 C   0  0  0  0  0  0  0  0  0
    5.5626    0.0273    0.0000 N   0  0  0  0  0  0  0  0  0
    6.2771    0.4398    0.0000 C   0  0  0  0  0  0  0  0  0
    6.2771    1.2648    0.0000 C   0  0  0  0  0  0  0  0  0
    6.9915    1.6773    0.0000 C   0  0  0  0  0  0  0  0  0
    7.7060    1.2648    0.0000 C   0  0  0  0  0  0  0  0  0
    8.4205    1.6773    0.0000 O   0  0  0  0  0  0  0  0  0
    9.1349    1.2648    0.0000 C   0  0  0  0  0  0  0  0  0
    7.7060    0.4398    0.0000 C   0  0  0  0  0  0  0  0  0
    8.4205    0.0273    0.0000 O   0  0  0  0  0  0  0  0  0
    8.4205   -0.7977    0.0000 C   0  0  0  0  0  0  0  0  0
    6.9915    0.0273    0.0000 C   0  0  0  0  0  0  0  0  0
    5.5626    1.6773    0.0000 C   0  0  0  0  0  0  0  0  0
    5.5626    2.5023    0.0000 O   0  0  0  0  0  0  0  0  0
    4.1337    0.0273    0.0000 C   0  0  0  0  0  0  0  0  0
   -0.8676    0.4398    0.0000 C   0  0  0  0  0  0  0  0  0
   -1.5821    0.0273    0.0000 C   0  0  0  0  0  0  0  0  0
   -1.5821   -0.7977    0.0000 O   0  0  0  0  0  0  0  0  0
   -0.8676   -1.2102    0.0000 C   0  0  0  0  0  0  0  0  0
   -2.2966    0.4398    0.0000 C   0  0  0  0  0  0  0  0  0
   -2.2966    1.2648    0.0000 C   0  0  0  0  0  0  0  0  0
   -1.5821    1.6773    0.0000 C   0  0  0  0  0  0  0  0  0
   -0.8676    1.2648    0.0000 C   0  0  0  0  0  0  0  0  0
   -0.1532    1.6773    0.0000 O   0  0  0  0  0  0  0  0  0
   -0.1532    2.5023    0.0000 C   0  0  0  0  0  0  0  0  0
  1  2  1  0  0  0  0
  1 25  1  0  0  0  0
  2  3  1  0  0  0  0
  3  4  1  0  0  0  0
  4  5  1  0  0  0  0
  5  6  1  0  0  0  0
  6  7  1  0  0  0  0
  6 24  1  0  0  0  0
  7  8  1  0  0  0  0
  8  9  1  0  0  0  0
  9 10  4  0  0  0  0
  9 22  4  0  0  0  0
 10 11  4  0  0  0  0
 10 24  1  0  0  0  0
 11 12  4  0  0  0  0
 12 13  4  0  0  0  0
 12 21  4  0  0  0  0
 13 14  4  0  0  0  0
 13 22  4  0  0  0  0
 14 15  4  0  0  0  0
 15 16  1  0  0  0  0
 15 18  4  0  0  0  0
 16 17  1  0  0  0  0
 18 19  1  0  0  0  0
 18 21  4  0  0  0  0
 19 20  1  0  0  0  0
 22 23  1  0  0  0  0
 25 26  4  0  0  0  0
 25 32  4  0  0  0  0
 26 27  1  0  0  0  0
 26 29  4  0  0  0  0
 27 28  1  0  0  0  0
 29 30  4  0  0  0  0
 30 31  4  0  0  0  0
 31 32  4  0  0  0  0
 32 33  1  0  0  0  0
 33 34  1  0  0  0  0
M  END
>  <Name_Molregno>
241151

>  <Alpha-1A>
5.77

>  <Alpha-1B>
6.66

$$$$
241182
  Marvin  02231216192D 0   1.00000     0.00000     0

 33 36  0  0  1  0  0  0  0  0999 V2000
   10.1398    3.5935    0.0000 F   0  0  0  0  0  0  0  0  0
    9.4253    3.1810    0.0000 C   0  0  0  0  0  0  0  0  0
    9.0128    3.8955    0.0000 F   0  0  0  0  0  0  0  0  0
    9.8378    2.4666    0.0000 F   0  0  0  0  0  0  0  0  0
    8.7108    2.7685    0.0000 C   0  0  0  0  0  0  0  0  0
    8.7108    1.9435    0.0000 C   0  0  0  0  0  0  0  0  0
    7.9964    1.5310    0.0000 C   0  0  0  0  0  0  0  0  0
    7.2819    1.9435    0.0000 C   0  0  0  0  0  0  0  0  0
    7.2819    2.7685    0.0000 C   0  0  0  0  0  0  0  0  0
    7.9964    3.1810    0.0000 C   0  0  0  0  0  0  0  0  0
    7.9964    0.7060    0.0000 C   0  0  0  0  0  0  0  0  0
    8.7108    0.2935    0.0000 O   0  0  0  0  0  0  0  0  0
    7.2819    0.2935    0.0000 N   0  0  0  0  0  0  0  0  0
    7.2819   -0.5315    0.0000 C   0  0  0  0  0  0  0  0  0
    6.5674   -0.9440    0.0000 C   0  0  0  0  0  0  0  0  0
    6.5674   -1.7690    0.0000 C   0  0  0  0  0  0  0  0  0
    5.8529   -2.1815    0.0000 C   0  0  0  0  0  0  0  0  0
    5.1385   -1.7690    0.0000 C   0  0  0  0  0  0  0  0  0
    5.1385   -0.9440    0.0000 C   0  0  0  0  0  0  0  0  0
    4.4240   -0.5315    0.0000 N   0  0  0  0  0  0  0  0  0
    3.7095   -0.9440    0.0000 C   0  0  0  0  0  0  0  0  0
    3.7095   -1.7690    0.0000 C   0  0  0  0  0  0  0  0  0
    2.9951   -2.1815    0.0000 C   0  0  0  0  0  0  0  0  0
    2.2806   -1.7690    0.0000 C   0  0  0  0  0  0  0  0  0
    1.5661   -2.1815    0.0000 O   0  0  0  0  0  0  0  0  0
    1.5661   -3.0065    0.0000 C   0  0  0  0  0  0  0  0  0
    2.2806   -0.9440    0.0000 C   0  0  0  0  0  0  0  0  0
    1.5661   -0.5315    0.0000 O   0  0  0  0  0  0  0  0  0
    1.5661    0.2935    0.0000 C   0  0  0  0  0  0  0  0  0
    2.9951   -0.5315    0.0000 C   0  0  0  0  0  0  0  0  0
    4.4240   -2.1815    0.0000 C   0  0  0  0  0  0  0  0  0
    4.4240   -3.0065    0.0000 N   0  0  0  0  0  0  0  0  0
    5.8529   -0.5315    0.0000 C   0  0  0  0  0  0  0  0  0
  1  2  1  0  0  0  0
  2  3  1  0  0  0  0
  2  4  1  0  0  0  0
  2  5  1  0  0  0  0
  5  6  4  0  0  0  0
  5 10  4  0  0  0  0
  6  7  4  0  0  0  0
  7  8  4  0  0  0  0
  7 11  1  0  0  0  0
  8  9  4  0  0  0  0
  9 10  4  0  0  0  0
 11 12  2  0  0  0  0
 11 13  1  0  0  0  0
 13 14  1  0  0  0  0
 14 15  1  0  0  0  0
 15 16  1  0  0  0  0
 15 33  1  0  0  0  0
 16 17  1  0  0  0  0
 17 18  1  0  0  0  0
 18 19  4  0  0  0  0
 18 31  4  0  0  0  0
 19 20  4  0  0  0  0
 19 33  1  0  0  0  0
 20 21  4  0  0  0  0
 21 22  4  0  0  0  0
 21 30  4  0  0  0  0
 22 23  4  0  0  0  0
 22 31  4  0  0  0  0
 23 24  4  0  0  0  0
 24 25  1  0  0  0  0
 24 27  4  0  0  0  0
 25 26  1  0  0  0  0
 27 28  1  0  0  0  0
 27 30  4  0  0  0  0
 28 29  1  0  0  0  0
 31 32  1  0  0  0  0
M  STY  1   1 DAT
M  SAL   1  1  20
M  SDT   1 MRV_IMPLICIT_H                                        
M  SDD   1     0.0000    0.0000    DR    ALL  0       0  
M  SED   1 IMPL_H1
M  END
>  <Name_Molregno>
241182

>  <Alpha-1A>
7.5

>  <Alpha-1B>
7.9

$$$$
241210
  Marvin  02231216192D 0   1.00000     0.00000     0

 34 37  0  0  1  0  0  0  0  0999 V2000
   -0.1532    0.0273    0.0000 O   0  0  0  0  0  0  0  0  0
    0.5613    0.4398    0.0000 C   0  0  0  0  0  0  0  0  0
    1.2758    0.0273    0.0000 C   0  0  0  0  0  0  0  0  0
    1.9902    0.4398    0.0000 N   0  0  0  0  0  0  0  0  0
    2.7047    0.0273    0.0000 C   0  0  0  0  0  0  0  0  0
    3.4192    0.4398    0.0000 C   0  0  0  0  0  0  0  0  0
    3.4192    1.2648    0.0000 C   0  0  0  0  0  0  0  0  0
    4.1337    1.6773    0.0000 C   0  0  0  0  0  0  0  0  0
    4.8481    1.2648    0.0000 C   0  0  0  0  0  0  0  0  0
    4.8481    0.4398    0.0000 C   0  0  0  0  0  0  0  0  0
    5.5626    0.0273    0.0000 N   0  0  0  0  0  0  0  0  0
    6.2771    0.4398    0.0000 C   0  0  0  0  0  0  0  0  0
    6.2771    1.2648    0.0000 C   0  0  0  0  0  0  0  0  0
    6.9915    1.6773    0.0000 C   0  0  0  0  0  0  0  0  0
    7.7060    1.2648    0.0000 C   0  0  0  0  0  0  0  0  0
    8.4205    1.6773    0.0000 O   0  0  0  0  0  0  0  0  0
    9.1349    1.2648    0.0000 C   0  0  0  0  0  0  0  0  0
    7.7060    0.4398    0.0000 C   0  0  0  0  0  0  0  0  0
    8.4205    0.0273    0.0000 O   0  0  0  0  0  0  0  0  0
    8.4205   -0.7977    0.0000 C   0  0  0  0  0  0  0  0  0
    6.9915    0.0273    0.0000 C   0  0  0  0  0  0  0  0  0
    5.5626    1.6773    0.0000 C   0  0  0  0  0  0  0  0  0
    5.5626    2.5023    0.0000 N   0  0  0  0  0  0  0  0  0
    4.1337    0.0273    0.0000 C   0  0  0  0  0  0  0  0  0
   -0.8676    0.4398    0.0000 C   0  0  0  0  0  0  0  0  0
   -1.5821    0.0273    0.0000 C   0  0  0  0  0  0  0  0  0
   -1.5821   -0.7977    0.0000 O   0  0  0  0  0  0  0  0  0
   -0.8676   -1.2102    0.0000 C   0  0  0  0  0  0  0  0  0
   -2.2966    0.4398    0.0000 C   0  0  0  0  0  0  0  0  0
   -2.2966    1.2648    0.0000 C   0  0  0  0  0  0  0  0  0
   -1.5821    1.6773    0.0000 C   0  0  0  0  0  0  0  0  0
   -0.8676    1.2648    0.0000 C   0  0  0  0  0  0  0  0  0
   -0.1532    1.6773    0.0000 O   0  0  0  0  0  0  0  0  0
   -0.1532    2.5023    0.0000 C   0  0  0  0  0  0  0  0  0
  1  2  1  0  0  0  0
  1 25  1  0  0  0  0
  2  3  1  0  0  0  0
  3  4  1  0  0  0  0
  4  5  1  0  0  0  0
  5  6  1  0  0  0  0
  6  7  1  0  0  0  0
  6 24  1  0  0  0  0
  7  8  1  0  0  0  0
  8  9  1  0  0  0  0
  9 10  4  0  0  0  0
  9 22  4  0  0  0  0
 10 11  4  0  0  0  0
 10 24  1  0  0  0  0
 11 12  4  0  0  0  0
 12 13  4  0  0  0  0
 12 21  4  0  0  0  0
 13 14  4  0  0  0  0
 13 22  4  0  0  0  0
 14 15  4  0  0  0  0
 15 16  1  0  0  0  0
 15 18  4  0  0  0  0
 16 17  1  0  0  0  0
 18 19  1  0  0  0  0
 18 21  4  0  0  0  0
 19 20  1  0  0  0  0
 22 23  1  0  0  0  0
 25 26  4  0  0  0  0
 25 32  4  0  0  0  0
 26 27  1  0  0  0  0
 26 29  4  0  0  0  0
 27 28  1  0  0  0  0
 29 30  4  0  0  0  0
 30 31  4  0  0  0  0
 31 32  4  0  0  0  0
 32 33  1  0  0  0  0
 33 34  1  0  0  0  0
M  STY  1   1 DAT
M  SAL   1  1  11
M  SDT   1 MRV_IMPLICIT_H                                        
M  SDD   1     0.0000    0.0000    DR    ALL  0       0  
M  SED   1 IMPL_H1
M  END
>  <Name_Molregno>
241210

>  <Alpha-1A>
6.01

>  <Alpha-1B>
7.4

$$$$
241451
  Marvin  02231216192D 0   1.00000     0.00000     0

 28 31  0  0  1  0  0  0  0  0999 V2000
    6.6899    1.8819    0.0000 O   0  0  0  0  0  0  0  0  0
    6.9449    2.6665    0.0000 C   0  0  0  0  0  0  0  0  0
    7.7699    2.6665    0.0000 C   0  0  0  0  0  0  0  0  0
    8.0248    1.8819    0.0000 C   0  0  0  0  0  0  0  0  0
    7.3574    1.3970    0.0000 C   0  0  0  0  0  0  0  0  0
    7.3574    0.5720    0.0000 C   0  0  0  0  0  0  0  0  0
    8.0719    0.1595    0.0000 O   0  0  0  0  0  0  0  0  0
    6.6429    0.1595    0.0000 N   0  0  0  0  0  0  0  0  0
    6.6429   -0.6655    0.0000 C   0  0  0  0  0  0  0  0  0
    5.9284   -1.0780    0.0000 C   0  0  0  0  0  0  0  0  0
    5.9284   -1.9030    0.0000 C   0  0  0  0  0  0  0  0  0
    5.2140   -2.3155    0.0000 C   0  0  0  0  0  0  0  0  0
    4.4995   -1.9030    0.0000 C   0  0  0  0  0  0  0  0  0
    4.4995   -1.0780    0.0000 C   0  0  0  0  0  0  0  0  0
    3.7850   -0.6655    0.0000 N   0  0  0  0  0  0  0  0  0
    3.0706   -1.0780    0.0000 C   0  0  0  0  0  0  0  0  0
    3.0706   -1.9030    0.0000 C   0  0  0  0  0  0  0  0  0
    2.3561   -2.3155    0.0000 C   0  0  0  0  0  0  0  0  0
    1.6416   -1.9030    0.0000 C   0  0  0  0  0  0  0  0  0
    0.9271   -2.3155    0.0000 O   0  0  0  0  0  0  0  0  0
    0.9271   -3.1405    0.0000 C   0  0  0  0  0  0  0  0  0
    1.6416   -1.0780    0.0000 C   0  0  0  0  0  0  0  0  0
    0.9271   -0.6655    0.0000 O   0  0  0  0  0  0  0  0  0
    0.9271    0.1595    0.0000 C   0  0  0  0  0  0  0  0  0
    2.3561   -0.6655    0.0000 C   0  0  0  0  0  0  0  0  0
    3.7850   -2.3155    0.0000 C   0  0  0  0  0  0  0  0  0
    3.7850   -3.1405    0.0000 O   0  0  0  0  0  0  0  0  0
    5.2140   -0.6655    0.0000 C   0  0  0  0  0  0  0  0  0
  1  2  4  0  0  0  0
  1  5  4  0  0  0  0
  2  3  4  0  0  0  0
  3  4  4  0  0  0  0
  4  5  4  0  0  0  0
  5  6  1  0  0  0  0
  6  7  2  0  0  0  0
  6  8  1  0  0  0  0
  8  9  1  0  0  0  0
  9 10  1  0  0  0  0
 10 11  1  0  0  0  0
 10 28  1  0  0  0  0
 11 12  1  0  0  0  0
 12 13  1  0  0  0  0
 13 14  4  0  0  0  0
 13 26  4  0  0  0  0
 14 15  4  0  0  0  0
 14 28  1  0  0  0  0
 15 16  4  0  0  0  0
 16 17  4  0  0  0  0
 16 25  4  0  0  0  0
 17 18  4  0  0  0  0
 17 26  4  0  0  0  0
 18 19  4  0  0  0  0
 19 20  1  0  0  0  0
 19 22  4  0  0  0  0
 20 21  1  0  0  0  0
 22 23  1  0  0  0  0
 22 25  4  0  0  0  0
 23 24  1  0  0  0  0
 26 27  1  0  0  0  0
M  END
>  <Name_Molregno>
241451

>  <Alpha-1A>
5.59

>  <Alpha-1B>
6.53

$$$$
241556
  Marvin  02231216192D 0   1.00000     0.00000     0

 33 36  0  0  1  0  0  0  0  0999 V2000
    7.0099    3.2810    0.0000 F   0  0  0  0  0  0  0  0  0
    7.0099    2.4560    0.0000 C   0  0  0  0  0  0  0  0  0
    6.1849    2.4560    0.0000 F   0  0  0  0  0  0  0  0  0
    7.8349    2.4560    0.0000 F   0  0  0  0  0  0  0  0  0
    7.0099    1.6310    0.0000 C   0  0  0  0  0  0  0  0  0
    7.7244    1.2185    0.0000 C   0  0  0  0  0  0  0  0  0
    7.7244    0.3935    0.0000 C   0  0  0  0  0  0  0  0  0
    7.0099   -0.0190    0.0000 C   0  0  0  0  0  0  0  0  0
    6.2954    0.3935    0.0000 C   0  0  0  0  0  0  0  0  0
    6.2954    1.2185    0.0000 C   0  0  0  0  0  0  0  0  0
    7.0099   -0.8440    0.0000 C   0  0  0  0  0  0  0  0  0
    7.7244   -1.2565    0.0000 O   0  0  0  0  0  0  0  0  0
    6.2954   -1.2565    0.0000 N   0  0  0  0  0  0  0  0  0
    6.2954   -2.0815    0.0000 C   0  0  0  0  0  0  0  0  0
    5.5809   -2.4940    0.0000 C   0  0  0  0  0  0  0  0  0
    5.5809   -3.3190    0.0000 C   0  0  0  0  0  0  0  0  0
    4.8665   -3.7315    0.0000 C   0  0  0  0  0  0  0  0  0
    4.1520   -3.3190    0.0000 C   0  0  0  0  0  0  0  0  0
    4.1520   -2.4940    0.0000 C   0  0  0  0  0  0  0  0  0
    3.4375   -2.0815    0.0000 N   0  0  0  0  0  0  0  0  0
    2.7231   -2.4940    0.0000 C   0  0  0  0  0  0  0  0  0
    2.7231   -3.3190    0.0000 C   0  0  0  0  0  0  0  0  0
    2.0086   -3.7315    0.0000 C   0  0  0  0  0  0  0  0  0
    1.2941   -3.3190    0.0000 C   0  0  0  0  0  0  0  0  0
    0.5796   -3.7315    0.0000 O   0  0  0  0  0  0  0  0  0
    0.5796   -4.5565    0.0000 C   0  0  0  0  0  0  0  0  0
    1.2941   -2.4940    0.0000 C   0  0  0  0  0  0  0  0  0
    0.5796   -2.0815    0.0000 O   0  0  0  0  0  0  0  0  0
    0.5796   -1.2565    0.0000 C   0  0  0  0  0  0  0  0  0
    2.0086   -2.0815    0.0000 C   0  0  0  0  0  0  0  0  0
    3.4375   -3.7315    0.0000 C   0  0  0  0  0  0  0  0  0
    3.4375   -4.5565    0.0000 N   0  0  0  0  0  0  0  0  0
    4.8665   -2.0815    0.0000 C   0  0  0  0  0  0  0  0  0
  1  2  1  0  0  0  0
  2  3  1  0  0  0  0
  2  4  1  0  0  0  0
  2  5  1  0  0  0  0
  5  6  4  0  0  0  0
  5 10  4  0  0  0  0
  6  7  4  0  0  0  0
  7  8  4  0  0  0  0
  8  9  4  0  0  0  0
  8 11  1  0  0  0  0
  9 10  4  0  0  0  0
 11 12  2  0  0  0  0
 11 13  1  0  0  0  0
 13 14  1  0  0  0  0
 14 15  1  0  0  0  0
 15 16  1  0  0  0  0
 15 33  1  0  0  0  0
 16 17  1  0  0  0  0
 17 18  1  0  0  0  0
 18 19  4  0  0  0  0
 18 31  4  0  0  0  0
 19 20  4  0  0  0  0
 19 33  1  0  0  0  0
 20 21  4  0  0  0  0
 21 22  4  0  0  0  0
 21 30  4  0  0  0  0
 22 23  4  0  0  0  0
 22 31  4  0  0  0  0
 23 24  4  0  0  0  0
 24 25  1  0  0  0  0
 24 27  4  0  0  0  0
 25 26  1  0  0  0  0
 27 28  1  0  0  0  0
 27 30  4  0  0  0  0
 28 29  1  0  0  0  0
 31 32  1  0  0  0  0
M  STY  1   1 DAT
M  SAL   1  1  20
M  SDT   1 MRV_IMPLICIT_H                                        
M  SDD   1     0.0000    0.0000    DR    ALL  0       0  
M  SED   1 IMPL_H1
M  END
>  <Name_Molregno>
241556

>  <Alpha-1A>
7.07

>  <Alpha-1B>
8.05

$$$$
241588
  Marvin  02231216192D 0   1.00000     0.00000     0

 33 36  0  0  1  0  0  0  0  0999 V2000
   -2.5008    0.0113    0.0000 F   0  0  0  0  0  0  0  0  0
   -1.7864    0.4238    0.0000 C   0  0  0  0  0  0  0  0  0
   -1.3739   -0.2906    0.0000 F   0  0  0  0  0  0  0  0  0
   -2.1989    1.1383    0.0000 F   0  0  0  0  0  0  0  0  0
   -1.0719    0.8363    0.0000 C   0  0  0  0  0  0  0  0  0
   -1.0719    1.6613    0.0000 C   0  0  0  0  0  0  0  0  0
   -0.3574    2.0738    0.0000 C   0  0  0  0  0  0  0  0  0
    0.3570    1.6613    0.0000 C   0  0  0  0  0  0  0  0  0
    0.3570    0.8363    0.0000 C   0  0  0  0  0  0  0  0  0
   -0.3574    0.4238    0.0000 C   0  0  0  0  0  0  0  0  0
   -0.3574   -0.4012    0.0000 C   0  0  0  0  0  0  0  0  0
    0.3570   -0.8137    0.0000 O   0  0  0  0  0  0  0  0  0
   -1.0719   -0.8137    0.0000 N   0  0  0  0  0  0  0  0  0
   -1.0719   -1.6387    0.0000 C   0  0  0  0  0  0  0  0  0
   -1.7864   -2.0512    0.0000 C   0  0  0  0  0  0  0  0  0
   -1.7864   -2.8762    0.0000 C   0  0  0  0  0  0  0  0  0
   -2.5008   -3.2887    0.0000 C   0  0  0  0  0  0  0  0  0
   -3.2153   -2.8762    0.0000 C   0  0  0  0  0  0  0  0  0
   -3.2153   -2.0512    0.0000 C   0  0  0  0  0  0  0  0  0
   -3.9298   -1.6387    0.0000 N   0  0  0  0  0  0  0  0  0
   -4.6443   -2.0512    0.0000 C   0  0  0  0  0  0  0  0  0
   -4.6443   -2.8762    0.0000 C   0  0  0  0  0  0  0  0  0
   -5.3587   -3.2887    0.0000 C   0  0  0  0  0  0  0  0  0
   -6.0732   -2.8762    0.0000 C   0  0  0  0  0  0  0  0  0
   -6.7877   -3.2887    0.0000 O   0  0  0  0  0  0  0  0  0
   -6.7877   -4.1137    0.0000 C   0  0  0  0  0  0  0  0  0
   -6.0732   -2.0512    0.0000 C   0  0  0  0  0  0  0  0  0
   -6.7877   -1.6387    0.0000 O   0  0  0  0  0  0  0  0  0
   -6.7877   -0.8137    0.0000 C   0  0  0  0  0  0  0  0  0
   -5.3587   -1.6387    0.0000 C   0  0  0  0  0  0  0  0  0
   -3.9298   -3.2887    0.0000 C   0  0  0  0  0  0  0  0  0
   -3.9298   -4.1137    0.0000 N   0  0  0  0  0  0  0  0  0
   -2.5008   -1.6387    0.0000 C   0  0  0  0  0  0  0  0  0
  1  2  1  0  0  0  0
  2  3  1  0  0  0  0
  2  4  1  0  0  0  0
  2  5  1  0  0  0  0
  5  6  4  0  0  0  0
  5 10  4  0  0  0  0
  6  7  4  0  0  0  0
  7  8  4  0  0  0  0
  8  9  4  0  0  0  0
  9 10  4  0  0  0  0
 10 11  1  0  0  0  0
 11 12  2  0  0  0  0
 11 13  1  0  0  0  0
 13 14  1  0  0  0  0
 14 15  1  0  0  0  0
 15 16  1  0  0  0  0
 15 33  1  0  0  0  0
 16 17  1  0  0  0  0
 17 18  1  0  0  0  0
 18 19  4  0  0  0  0
 18 31  4  0  0  0  0
 19 20  4  0  0  0  0
 19 33  1  0  0  0  0
 20 21  4  0  0  0  0
 21 22  4  0  0  0  0
 21 30  4  0  0  0  0
 22 23  4  0  0  0  0
 22 31  4  0  0  0  0
 23 24  4  0  0  0  0
 24 25  1  0  0  0  0
 24 27  4  0  0  0  0
 25 26  1  0  0  0  0
 27 28  1  0  0  0  0
 27 30  4  0  0  0  0
 28 29  1  0  0  0  0
 31 32  1  0  0  0  0
M  STY  1   1 DAT
M  SAL   1  1  20
M  SDT   1 MRV_IMPLICIT_H                                        
M  SDD   1     0.0000    0.0000    DR    ALL  0       0  
M  SED   1 IMPL_H1
M  END
>  <Name_Molregno>
241588

>  <Alpha-1A>
6.54

>  <Alpha-1B>
8.13

$$$$
241595
  Marvin  02231216192D 0   1.00000     0.00000     0

 28 31  0  0  1  0  0  0  0  0999 V2000
    6.6899    1.8819    0.0000 O   0  0  0  0  0  0  0  0  0
    6.9449    2.6665    0.0000 C   0  0  0  0  0  0  0  0  0
    7.7699    2.6665    0.0000 C   0  0  0  0  0  0  0  0  0
    8.0248    1.8819    0.0000 C   0  0  0  0  0  0  0  0  0
    7.3574    1.3970    0.0000 C   0  0  0  0  0  0  0  0  0
    7.3574    0.5720    0.0000 C   0  0  0  0  0  0  0  0  0
    8.0719    0.1595    0.0000 O   0  0  0  0  0  0  0  0  0
    6.6429    0.1595    0.0000 N   0  0  0  0  0  0  0  0  0
    6.6429   -0.6655    0.0000 C   0  0  0  0  0  0  0  0  0
    5.9284   -1.0780    0.0000 C   0  0  0  0  0  0  0  0  0
    5.9284   -1.9030    0.0000 C   0  0  0  0  0  0  0  0  0
    5.2140   -2.3155    0.0000 C   0  0  0  0  0  0  0  0  0
    4.4995   -1.9030    0.0000 C   0  0  0  0  0  0  0  0  0
    4.4995   -1.0780    0.0000 C   0  0  0  0  0  0  0  0  0
    3.7850   -0.6655    0.0000 N   0  0  0  0  0  0  0  0  0
    3.0706   -1.0780    0.0000 C   0  0  0  0  0  0  0  0  0
    3.0706   -1.9030    0.0000 C   0  0  0  0  0  0  0  0  0
    2.3561   -2.3155    0.0000 C   0  0  0  0  0  0  0  0  0
    1.6416   -1.9030    0.0000 C   0  0  0  0  0  0  0  0  0
    0.9271   -2.3155    0.0000 O   0  0  0  0  0  0  0  0  0
    0.9271   -3.1405    0.0000 C   0  0  0  0  0  0  0  0  0
    1.6416   -1.0780    0.0000 C   0  0  0  0  0  0  0  0  0
    0.9271   -0.6655    0.0000 O   0  0  0  0  0  0  0  0  0
    0.9271    0.1595    0.0000 C   0  0  0  0  0  0  0  0  0
    2.3561   -0.6655    0.0000 C   0  0  0  0  0  0  0  0  0
    3.7850   -2.3155    0.0000 C   0  0  0  0  0  0  0  0  0
    3.7850   -3.1405    0.0000 N   0  0  0  0  0  0  0  0  0
    5.2140   -0.6655    0.0000 C   0  0  0  0  0  0  0  0  0
  1  2  4  0  0  0  0
  1  5  4  0  0  0  0
  2  3  4  0  0  0  0
  3  4  4  0  0  0  0
  4  5  4  0  0  0  0
  5  6  1  0  0  0  0
  6  7  2  0  0  0  0
  6  8  1  0  0  0  0
  8  9  1  0  0  0  0
  9 10  1  0  0  0  0
 10 11  1  0  0  0  0
 10 28  1  0  0  0  0
 11 12  1  0  0  0  0
 12 13  1  0  0  0  0
 13 14  4  0  0  0  0
 13 26  4  0  0  0  0
 14 15  4  0  0  0  0
 14 28  1  0  0  0  0
 15 16  4  0  0  0  0
 16 17  4  0  0  0  0
 16 25  4  0  0  0  0
 17 18  4  0  0  0  0
 17 26  4  0  0  0  0
 18 19  4  0  0  0  0
 19 20  1  0  0  0  0
 19 22  4  0  0  0  0
 20 21  1  0  0  0  0
 22 23  1  0  0  0  0
 22 25  4  0  0  0  0
 23 24  1  0  0  0  0
 26 27  1  0  0  0  0
M  STY  1   1 DAT
M  SAL   1  1  15
M  SDT   1 MRV_IMPLICIT_H                                        
M  SDD   1     0.0000    0.0000    DR    ALL  0       0  
M  SED   1 IMPL_H1
M  END
>  <Name_Molregno>
241595

>  <Alpha-1A>
7.02

>  <Alpha-1B>
7.91

$$$$
241630
  Marvin  02231216192D 0   1.00000     0.00000     0

 27 30  0  0  1  0  0  0  0  0999 V2000
    7.5826    1.7449    0.0000 O   0  0  0  0  0  0  0  0  0
    8.1957    2.2969    0.0000 C   0  0  0  0  0  0  0  0  0
    8.9102    1.8844    0.0000 C   0  0  0  0  0  0  0  0  0
    8.7387    1.0774    0.0000 C   0  0  0  0  0  0  0  0  0
    7.9182    0.9912    0.0000 C   0  0  0  0  0  0  0  0  0
    7.5057    0.2767    0.0000 C   0  0  0  0  0  0  0  0  0
    7.9182   -0.4377    0.0000 O   0  0  0  0  0  0  0  0  0
    6.6807    0.2767    0.0000 N   0  0  0  0  0  0  0  0  0
    6.2682   -0.4377    0.0000 C   0  0  0  0  0  0  0  0  0
    5.4432   -0.4377    0.0000 C   0  0  0  0  0  0  0  0  0
    4.9583   -1.1052    0.0000 C   0  0  0  0  0  0  0  0  0
    4.1736   -0.8502    0.0000 C   0  0  0  0  0  0  0  0  0
    4.1736   -0.0252    0.0000 C   0  0  0  0  0  0  0  0  0
    3.4592    0.3873    0.0000 N   0  0  0  0  0  0  0  0  0
    2.7447   -0.0252    0.0000 C   0  0  0  0  0  0  0  0  0
    2.7447   -0.8502    0.0000 C   0  0  0  0  0  0  0  0  0
    2.0302   -1.2627    0.0000 C   0  0  0  0  0  0  0  0  0
    1.3158   -0.8502    0.0000 C   0  0  0  0  0  0  0  0  0
    0.6013   -1.2627    0.0000 O   0  0  0  0  0  0  0  0  0
    0.6013   -2.0877    0.0000 C   0  0  0  0  0  0  0  0  0
    1.3158   -0.0252    0.0000 C   0  0  0  0  0  0  0  0  0
    0.6013    0.3873    0.0000 O   0  0  0  0  0  0  0  0  0
    0.6013    1.2123    0.0000 C   0  0  0  0  0  0  0  0  0
    2.0302    0.3873    0.0000 C   0  0  0  0  0  0  0  0  0
    3.4592   -1.2627    0.0000 C   0  0  0  0  0  0  0  0  0
    3.4592   -2.0877    0.0000 N   0  0  0  0  0  0  0  0  0
    4.9583    0.2297    0.0000 C   0  0  0  0  0  0  0  0  0
  1  2  4  0  0  0  0
  1  5  4  0  0  0  0
  2  3  4  0  0  0  0
  3  4  4  0  0  0  0
  4  5  4  0  0  0  0
  5  6  1  0  0  0  0
  6  7  2  0  0  0  0
  6  8  1  0  0  0  0
  8  9  1  0  0  0  0
  9 10  1  0  0  0  0
 10 11  1  0  0  0  0
 10 27  1  0  0  0  0
 11 12  1  0  0  0  0
 12 13  4  0  0  0  0
 12 25  4  0  0  0  0
 13 14  4  0  0  0  0
 13 27  1  0  0  0  0
 14 15  4  0  0  0  0
 15 16  4  0  0  0  0
 15 24  4  0  0  0  0
 16 17  4  0  0  0  0
 16 25  4  0  0  0  0
 17 18  4  0  0  0  0
 18 19  1  0  0  0  0
 18 21  4  0  0  0  0
 19 20  1  0  0  0  0
 21 22  1  0  0  0  0
 21 24  4  0  0  0  0
 22 23  1  0  0  0  0
 25 26  1  0  0  0  0
M  STY  1   1 DAT
M  SAL   1  1  14
M  SDT   1 MRV_IMPLICIT_H                                        
M  SDD   1     0.0000    0.0000    DR    ALL  0       0  
M  SED   1 IMPL_H1
M  END
>  <Name_Molregno>
241630

>  <Alpha-1A>
6.8

>  <Alpha-1B>
7.1

$$$$
245433
  Marvin  02231216192D 0   1.00000     0.00000     0

 25 27  0  0  1  0  0  0  0  0999 V2000
    0.3559    2.6179    0.0000 Cl  0  0  0  0  0  0  0  0  0
    1.0234    2.1329    0.0000 C   0  0  0  0  0  0  0  0  0
    1.7770    2.4685    0.0000 C   0  0  0  0  0  0  0  0  0
    2.4445    1.9836    0.0000 C   0  0  0  0  0  0  0  0  0
    2.3582    1.1631    0.0000 C   0  0  0  0  0  0  0  0  0
    1.6046    0.8275    0.0000 C   0  0  0  0  0  0  0  0  0
    0.9371    1.3125    0.0000 C   0  0  0  0  0  0  0  0  0
    3.0257    0.6782    0.0000 C   0  0  0  0  0  0  0  0  0
    2.4736    0.0651    0.0000 O   0  0  0  0  0  0  0  0  0
    3.4382    1.3926    0.0000 C   0  0  0  0  0  0  0  0  0
    4.2451    1.2211    0.0000 C   0  0  0  0  0  0  0  0  0
    4.3314    0.4006    0.0000 N   0  0  0  0  0  0  0  0  0
    3.5777    0.0651    0.0000 C   0  0  0  0  0  0  0  0  0
    5.0459   -0.0119    0.0000 C   0  0  0  0  0  0  0  0  0
    5.7603    0.4006    0.0000 C   0  0  0  0  0  0  0  0  0
    6.4748   -0.0119    0.0000 C   0  0  0  0  0  0  0  0  0
    7.1893    0.4006    0.0000 C   0  0  0  0  0  0  0  0  0
    7.1893    1.2256    0.0000 O   0  0  0  0  0  0  0  0  0
    7.9037   -0.0119    0.0000 C   0  0  0  0  0  0  0  0  0
    8.6182    0.4006    0.0000 C   0  0  0  0  0  0  0  0  0
    9.3327   -0.0119    0.0000 C   0  0  0  0  0  0  0  0  0
    9.3327   -0.8369    0.0000 C   0  0  0  0  0  0  0  0  0
   10.0472   -1.2494    0.0000 F   0  0  0  0  0  0  0  0  0
    8.6182   -1.2494    0.0000 C   0  0  0  0  0  0  0  0  0
    7.9037   -0.8369    0.0000 C   0  0  0  0  0  0  0  0  0
  1  2  1  0  0  0  0
  2  3  4  0  0  0  0
  2  7  4  0  0  0  0
  3  4  4  0  0  0  0
  4  5  4  0  0  0  0
  5  6  4  0  0  0  0
  5  8  1  0  0  0  0
  6  7  4  0  0  0  0
  8  9  1  0  0  0  0
  8 10  1  0  0  0  0
  8 13  1  0  0  0  0
 10 11  1  0  0  0  0
 11 12  1  0  0  0  0
 12 13  1  0  0  0  0
 12 14  1  0  0  0  0
 14 15  1  0  0  0  0
 15 16  1  0  0  0  0
 16 17  1  0  0  0  0
 17 18  2  0  0  0  0
 17 19  1  0  0  0  0
 19 20  4  0  0  0  0
 19 25  4  0  0  0  0
 20 21  4  0  0  0  0
 21 22  4  0  0  0  0
 22 23  1  0  0  0  0
 22 24  4  0  0  0  0
 24 25  4  0  0  0  0
M  END
>  <Name_Molregno>
245433

>  <5-HT1A>
6.1

>  <5-HT2A>
6.87

>  <5-HT2C>
5.67

>  <Alpha-1A>
7.2

>  <Alpha-1B>
7.18

>  <Alpha-2A>
5.44

>  <Alpha-2B>
5.58

>  <Alpha-2C>
7.41

>  <DOPAMINE D2>
7.07

>  <DOPAMINE D3>
6.45

>  <DOPAMINE D4>
7.7

>  <HISTAMINE H1>
6.21

$$$$
259724
  Marvin  02231216192D 0   1.00000     0.00000     0

 18 20  0  0  1  0  0  0  0  0999 V2000
    0.3094   -0.9505    0.0000 N   0  0  0  0  0  0  0  0  0
    1.0239   -0.5380    0.0000 C   0  0  0  0  0  0  0  0  0
    1.7384   -0.9505    0.0000 C   0  0  0  0  0  0  0  0  0
    2.4528   -0.5380    0.0000 C   0  0  0  0  0  0  0  0  0
    2.4528    0.2870    0.0000 C   0  0  0  0  0  0  0  0  0
    3.1673    0.6995    0.0000 N   0  0  0  0  0  0  0  0  0
    3.8818    0.2870    0.0000 C   0  0  0  0  0  0  0  0  0
    3.8818   -0.5380    0.0000 C   0  0  0  0  0  0  0  0  0
    3.1673   -0.9505    0.0000 C   0  0  0  0  0  0  0  0  0
    3.1673    1.5245    0.0000 C   0  0  0  0  0  0  0  0  0
    3.8818    1.9370    0.0000 C   0  0  0  0  0  0  0  0  0
    3.8818    2.7620    0.0000 C   0  0  0  0  0  0  0  0  0
    1.7384    0.6995    0.0000 C   0  0  0  0  0  0  0  0  0
    1.0239    0.2870    0.0000 C   0  0  0  0  0  0  0  0  0
    0.3094    0.6995    0.0000 C   0  0  0  0  0  0  0  0  0
   -0.4050    0.2870    0.0000 N   0  0  0  0  0  0  0  0  0
   -0.4050   -0.5380    0.0000 C   0  0  0  0  0  0  0  0  0
   -1.1195   -0.9505    0.0000 N   0  0  0  0  0  0  0  0  0
  1  2  4  0  0  0  0
  1 17  4  0  0  0  0
  2  3  1  0  0  0  0
  2 14  4  0  0  0  0
  3  4  1  0  0  0  0
  4  5  1  0  0  0  0
  4  9  1  0  0  0  0
  5  6  1  0  0  0  0
  5 13  1  0  0  0  0
  6  7  1  0  0  0  0
  6 10  1  0  0  0  0
  7  8  1  0  0  0  0
  8  9  1  0  0  0  0
 10 11  1  0  0  0  0
 11 12  1  0  0  0  0
 13 14  1  0  0  0  0
 14 15  4  0  0  0  0
 15 16  4  0  0  0  0
 16 17  4  0  0  0  0
 17 18  1  0  0  0  0
M  END
>  <Name_Molregno>
259724

>  <5-HT1A>
5

>  <5-HT1B>
5

>  <5-HT1D>
5

>  <5-HT2A>
5

>  <5-HT2C>
5.58

>  <Alpha-1A>
5

>  <Alpha-1B>
5

>  <Alpha-2A>
5

>  <Alpha-2B>
5

>  <Alpha-2C>
5

>  <Beta-1>
5

>  <Beta-2>
5

>  <DOPAMINE D1>
5

>  <DOPAMINE D2>
6.33

>  <DOPAMINE D3>
8.65

>  <DOPAMINE D4>
7.72

>  <DOPAMINE D5>
5

$$$$
299484
  Marvin  02231216192D 0   1.00000     0.00000     0

 32 35  0  0  1  0  0  0  0  0999 V2000
    0.1081    0.4693    0.0000 S   0  0  0  0  0  0  0  0  0
   -0.6989    0.2978    0.0000 S   0  0  0  0  0  0  0  0  0
   -1.1114    1.0123    0.0000 C   0  0  0  0  0  0  0  0  0
   -0.5593    1.6254    0.0000 C   0  0  0  0  0  0  0  0  0
    0.1943    1.2898    0.0000 C   0  0  0  0  0  0  0  0  0
    0.9088    1.7023    0.0000 C   0  0  0  0  0  0  0  0  0
    1.6233    1.2898    0.0000 C   0  0  0  0  0  0  0  0  0
    2.3377    1.7023    0.0000 C   0  0  0  0  0  0  0  0  0
    3.0522    1.2898    0.0000 C   0  0  0  0  0  0  0  0  0
    3.7667    1.7023    0.0000 C   0  0  0  0  0  0  0  0  0
    3.7667    2.5273    0.0000 O   0  0  0  0  0  0  0  0  0
    4.4812    1.2898    0.0000 N   0  0  0  0  0  0  0  0  0
    5.1956    1.7023    0.0000 C   0  0  0  0  0  0  0  0  0
    5.9101    1.2898    0.0000 C   0  0  0  0  0  0  0  0  0
    5.9101    0.4648    0.0000 N   0  0  0  0  0  0  0  0  0
    5.1956    0.0523    0.0000 C   0  0  0  0  0  0  0  0  0
    4.4812    0.4648    0.0000 C   0  0  0  0  0  0  0  0  0
    6.6246    0.0523    0.0000 C   0  0  0  0  0  0  0  0  0
    7.3390    0.4648    0.0000 N   0  0  0  0  0  0  0  0  0
    8.0535    0.0523    0.0000 C   0  0  0  0  0  0  0  0  0
    8.7680    0.4648    0.0000 N   0  0  0  0  0  0  0  0  0
    8.0535   -0.7727    0.0000 C   0  0  0  0  0  0  0  0  0
    8.7680   -1.1852    0.0000 C   0  0  0  0  0  0  0  0  0
    8.7680   -2.0102    0.0000 C   0  0  0  0  0  0  0  0  0
    9.4825   -2.4227    0.0000 O   0  0  0  0  0  0  0  0  0
   10.1969   -2.0102    0.0000 C   0  0  0  0  0  0  0  0  0
    8.0535   -2.4227    0.0000 C   0  0  0  0  0  0  0  0  0
    8.0535   -3.2477    0.0000 O   0  0  0  0  0  0  0  0  0
    7.3390   -3.6602    0.0000 C   0  0  0  0  0  0  0  0  0
    7.3390   -2.0102    0.0000 C   0  0  0  0  0  0  0  0  0
    7.3390   -1.1852    0.0000 C   0  0  0  0  0  0  0  0  0
    6.6246   -0.7727    0.0000 N   0  0  0  0  0  0  0  0  0
  1  2  1  0  0  0  0
  1  5  1  0  0  0  0
  2  3  1  0  0  0  0
  3  4  1  0  0  0  0
  4  5  1  0  0  0  0
  5  6  1  0  0  0  0
  6  7  1  0  0  0  0
  7  8  1  0  0  0  0
  8  9  1  0  0  0  0
  9 10  1  0  0  0  0
 10 11  2  0  0  0  0
 10 12  1  0  0  0  0
 12 13  1  0  0  0  0
 12 17  1  0  0  0  0
 13 14  1  0  0  0  0
 14 15  1  0  0  0  0
 15 16  1  0  0  0  0
 15 18  1  0  0  0  0
 16 17  1  0  0  0  0
 18 19  4  0  0  0  0
 18 32  4  0  0  0  0
 19 20  4  0  0  0  0
 20 21  1  0  0  0  0
 20 22  4  0  0  0  0
 22 23  4  0  0  0  0
 22 31  4  0  0  0  0
 23 24  4  0  0  0  0
 24 25  1  0  0  0  0
 24 27  4  0  0  0  0
 25 26  1  0  0  0  0
 27 28  1  0  0  0  0
 27 30  4  0  0  0  0
 28 29  1  0  0  0  0
 30 31  4  0  0  0  0
 31 32  4  0  0  0  0
M  END
>  <Name_Molregno>
299484

>  <Alpha-1A>
8.85

>  <Alpha-1B>
8.9

$$$$
299505
  Marvin  02231216192D 0   1.00000     0.00000     0

 29 32  0  0  1  0  0  0  0  0999 V2000
    0.9712   -2.8785    0.0000 S   0  0  0  0  0  0  0  0  0
    0.1643   -3.0500    0.0000 S   0  0  0  0  0  0  0  0  0
   -0.2482   -2.3356    0.0000 C   0  0  0  0  0  0  0  0  0
    0.3038   -1.7225    0.0000 C   0  0  0  0  0  0  0  0  0
    1.0575   -2.0580    0.0000 C   0  0  0  0  0  0  0  0  0
    1.7720   -1.6455    0.0000 C   0  0  0  0  0  0  0  0  0
    1.7720   -0.8205    0.0000 C   0  0  0  0  0  0  0  0  0
    1.0575   -0.4080    0.0000 O   0  0  0  0  0  0  0  0  0
    2.4864   -0.4080    0.0000 N   0  0  0  0  0  0  0  0  0
    2.4864    0.4170    0.0000 C   0  0  0  0  0  0  0  0  0
    3.2009    0.8295    0.0000 C   0  0  0  0  0  0  0  0  0
    3.9154    0.4170    0.0000 N   0  0  0  0  0  0  0  0  0
    3.9154   -0.4080    0.0000 C   0  0  0  0  0  0  0  0  0
    3.2009   -0.8205    0.0000 C   0  0  0  0  0  0  0  0  0
    4.6298    0.8295    0.0000 C   0  0  0  0  0  0  0  0  0
    4.6298    1.6545    0.0000 N   0  0  0  0  0  0  0  0  0
    5.3443    2.0670    0.0000 C   0  0  0  0  0  0  0  0  0
    5.3443    2.8920    0.0000 N   0  0  0  0  0  0  0  0  0
    6.0588    1.6545    0.0000 C   0  0  0  0  0  0  0  0  0
    6.7733    2.0670    0.0000 C   0  0  0  0  0  0  0  0  0
    7.4877    1.6545    0.0000 C   0  0  0  0  0  0  0  0  0
    8.2022    2.0670    0.0000 O   0  0  0  0  0  0  0  0  0
    8.2022    2.8920    0.0000 C   0  0  0  0  0  0  0  0  0
    7.4877    0.8295    0.0000 C   0  0  0  0  0  0  0  0  0
    8.2022    0.4170    0.0000 O   0  0  0  0  0  0  0  0  0
    8.2022   -0.4080    0.0000 C   0  0  0  0  0  0  0  0  0
    6.7733    0.4170    0.0000 C   0  0  0  0  0  0  0  0  0
    6.0588    0.8295    0.0000 C   0  0  0  0  0  0  0  0  0
    5.3443    0.4170    0.0000 N   0  0  0  0  0  0  0  0  0
  1  2  1  0  0  0  0
  1  5  1  0  0  0  0
  2  3  1  0  0  0  0
  3  4  1  0  0  0  0
  4  5  1  0  0  0  0
  5  6  1  0  0  0  0
  6  7  1  0  0  0  0
  7  8  2  0  0  0  0
  7  9  1  0  0  0  0
  9 10  1  0  0  0  0
  9 14  1  0  0  0  0
 10 11  1  0  0  0  0
 11 12  1  0  0  0  0
 12 13  1  0  0  0  0
 12 15  1  0  0  0  0
 13 14  1  0  0  0  0
 15 16  4  0  0  0  0
 15 29  4  0  0  0  0
 16 17  4  0  0  0  0
 17 18  1  0  0  0  0
 17 19  4  0  0  0  0
 19 20  4  0  0  0  0
 19 28  4  0  0  0  0
 20 21  4  0  0  0  0
 21 22  1  0  0  0  0
 21 24  4  0  0  0  0
 22 23  1  0  0  0  0
 24 25  1  0  0  0  0
 24 27  4  0  0  0  0
 25 26  1  0  0  0  0
 27 28  4  0  0  0  0
 28 29  4  0  0  0  0
M  END
>  <Name_Molregno>
299505

>  <Alpha-1A>
9.54

>  <Alpha-1B>
9.51

$$$$
299568
  Marvin  02231216192D 0   1.00000     0.00000     0

 28 31  0  0  1  0  0  0  0  0999 V2000
    1.9686   -3.1357    0.0000 S   0  0  0  0  0  0  0  0  0
    1.7137   -3.9204    0.0000 S   0  0  0  0  0  0  0  0  0
    0.8887   -3.9204    0.0000 C   0  0  0  0  0  0  0  0  0
    0.6338   -3.1357    0.0000 C   0  0  0  0  0  0  0  0  0
    1.3012   -2.6508    0.0000 C   0  0  0  0  0  0  0  0  0
    1.3012   -1.8258    0.0000 C   0  0  0  0  0  0  0  0  0
    0.5867   -1.4133    0.0000 O   0  0  0  0  0  0  0  0  0
    2.0157   -1.4133    0.0000 N   0  0  0  0  0  0  0  0  0
    2.0157   -0.5883    0.0000 C   0  0  0  0  0  0  0  0  0
    2.7302   -0.1758    0.0000 C   0  0  0  0  0  0  0  0  0
    3.4446   -0.5883    0.0000 N   0  0  0  0  0  0  0  0  0
    3.4446   -1.4133    0.0000 C   0  0  0  0  0  0  0  0  0
    2.7302   -1.8258    0.0000 C   0  0  0  0  0  0  0  0  0
    4.1591   -0.1758    0.0000 C   0  0  0  0  0  0  0  0  0
    4.1591    0.6492    0.0000 N   0  0  0  0  0  0  0  0  0
    4.8736    1.0617    0.0000 C   0  0  0  0  0  0  0  0  0
    4.8736    1.8867    0.0000 N   0  0  0  0  0  0  0  0  0
    5.5880    0.6492    0.0000 C   0  0  0  0  0  0  0  0  0
    6.3025    1.0617    0.0000 C   0  0  0  0  0  0  0  0  0
    7.0170    0.6492    0.0000 C   0  0  0  0  0  0  0  0  0
    7.7314    1.0617    0.0000 O   0  0  0  0  0  0  0  0  0
    7.7314    1.8867    0.0000 C   0  0  0  0  0  0  0  0  0
    7.0170   -0.1758    0.0000 C   0  0  0  0  0  0  0  0  0
    7.7314   -0.5883    0.0000 O   0  0  0  0  0  0  0  0  0
    7.7314   -1.4133    0.0000 C   0  0  0  0  0  0  0  0  0
    6.3025   -0.5883    0.0000 C   0  0  0  0  0  0  0  0  0
    5.5880   -0.1758    0.0000 C   0  0  0  0  0  0  0  0  0
    4.8736   -0.5883    0.0000 N   0  0  0  0  0  0  0  0  0
  1  2  1  0  0  0  0
  1  5  1  0  0  0  0
  2  3  1  0  0  0  0
  3  4  1  0  0  0  0
  4  5  1  0  0  0  0
  5  6  1  0  0  0  0
  6  7  2  0  0  0  0
  6  8  1  0  0  0  0
  8  9  1  0  0  0  0
  8 13  1  0  0  0  0
  9 10  1  0  0  0  0
 10 11  1  0  0  0  0
 11 12  1  0  0  0  0
 11 14  1  0  0  0  0
 12 13  1  0  0  0  0
 14 15  4  0  0  0  0
 14 28  4  0  0  0  0
 15 16  4  0  0  0  0
 16 17  1  0  0  0  0
 16 18  4  0  0  0  0
 18 19  4  0  0  0  0
 18 27  4  0  0  0  0
 19 20  4  0  0  0  0
 20 21  1  0  0  0  0
 20 23  4  0  0  0  0
 21 22  1  0  0  0  0
 23 24  1  0  0  0  0
 23 26  4  0  0  0  0
 24 25  1  0  0  0  0
 26 27  4  0  0  0  0
 27 28  4  0  0  0  0
M  END
>  <Name_Molregno>
299568

>  <Alpha-1A>
9.09

>  <Alpha-1B>
9.27

$$$$
299604
  Marvin  02231216192D 0   1.00000     0.00000     0

 33 37  0  0  0  0  0  0  0  0999 V2000
    0.6856    2.1469    0.0000 O   0  0  0  0  0  0  0  0  0
    0.6856    2.9719    0.0000 C   0  0  0  0  0  0  0  0  0
    1.4001    1.7344    0.0000 C   0  0  0  0  0  0  0  0  0
    1.4001    0.9094    0.0000 C   0  0  0  0  0  0  0  0  0
    2.1146    0.4969    0.0000 C   0  0  0  0  0  0  0  0  0
    2.8291    0.9094    0.0000 C   0  0  0  0  0  0  0  0  0
    3.5435    0.4969    0.0000 N   0  0  0  0  0  0  0  0  0
    3.5435   -0.3281    0.0000 C   0  0  0  0  0  0  0  0  0
    2.8291   -0.7406    0.0000 N   0  0  0  0  0  0  0  0  0
    2.1146   -0.3281    0.0000 C   0  0  0  0  0  0  0  0  0
    1.4001   -0.7406    0.0000 N   0  0  0  0  0  0  0  0  0
    4.2580   -0.7406    0.0000 N   0  0  0  0  0  0  0  0  0
    4.9725   -0.3281    0.0000 C   0  0  0  0  0  0  0  0  0
    5.6869   -0.7406    0.0000 C   0  0  0  0  0  0  0  0  0
    5.6869   -1.5656    0.0000 N   0  0  0  0  0  0  0  0  0
    4.9725   -1.9781    0.0000 C   0  0  0  0  0  0  0  0  0
    4.2580   -1.5656    0.0000 C   0  0  0  0  0  0  0  0  0
    6.4014   -1.9781    0.0000 C   0  0  0  0  0  0  0  0  0
    6.4014   -2.8031    0.0000 C   0  0  0  0  0  0  0  0  0
    7.1159   -3.2156    0.0000 C   0  0  0  0  0  0  0  0  0
    7.1159   -4.0406    0.0000 O   0  0  0  0  0  0  0  0  0
    7.8303   -2.8031    0.0000 C   0  0  0  0  0  0  0  0  0
    7.8303   -1.9781    0.0000 C   0  0  0  0  0  0  0  0  0
    8.5448   -1.5656    0.0000 C   0  0  0  0  0  0  0  0  0
    9.2593   -1.9781    0.0000 C   0  0  0  0  0  0  0  0  0
    9.2593   -2.8031    0.0000 C   0  0  0  0  0  0  0  0  0
    8.5448   -3.2156    0.0000 C   0  0  0  0  0  0  0  0  0
    7.1159   -1.5656    0.0000 C   0  0  0  0  0  0  0  0  0
    7.1159   -0.7406    0.0000 O   0  0  0  0  0  0  0  0  0
    2.8291    1.7344    0.0000 C   0  0  0  0  0  0  0  0  0
    2.1146    2.1469    0.0000 C   0  0  0  0  0  0  0  0  0
    2.1146    2.9719    0.0000 O   0  0  0  0  0  0  0  0  0
    2.8291    3.3844    0.0000 C   0  0  0  0  0  0  0  0  0
  1  2  1  0  0  0  0
  1  3  1  0  0  0  0
  3  4  4  0  0  0  0
  3 31  4  0  0  0  0
  4  5  4  0  0  0  0
  5  6  4  0  0  0  0
  5 10  4  0  0  0  0
  6  7  4  0  0  0  0
  6 30  4  0  0  0  0
  7  8  4  0  0  0  0
  8  9  4  0  0  0  0
  8 12  1  0  0  0  0
  9 10  4  0  0  0  0
 10 11  1  0  0  0  0
 12 13  1  0  0  0  0
 12 17  1  0  0  0  0
 13 14  1  0  0  0  0
 14 15  1  0  0  0  0
 15 16  1  0  0  0  0
 15 18  1  0  0  0  0
 16 17  1  0  0  0  0
 18 19  2  0  0  0  0
 18 28  1  0  0  0  0
 19 20  1  0  0  0  0
 20 21  2  0  0  0  0
 20 22  1  0  0  0  0
 22 23  4  0  0  0  0
 22 27  4  0  0  0  0
 23 24  4  0  0  0  0
 23 28  1  0  0  0  0
 24 25  4  0  0  0  0
 25 26  4  0  0  0  0
 26 27  4  0  0  0  0
 28 29  2  0  0  0  0
 30 31  4  0  0  0  0
 31 32  1  0  0  0  0
 32 33  1  0  0  0  0
M  END
>  <Name_Molregno>
299604

>  <Alpha-1A>
8.9

>  <Alpha-1B>
9.17

$$$$
315432
  Marvin  02231216192D 0   1.00000     0.00000     0

 39 42  0  0  0  0  0  0  0  0999 V2000
    1.3459    1.7399    0.0000 O   0  0  0  0  0  0  0  0  0
    2.1709    1.7399    0.0000 C   0  0  0  0  0  0  0  0  0
    2.5834    1.0254    0.0000 N   0  0  0  0  0  0  0  0  0
    2.1709    0.3109    0.0000 C   0  0  0  0  0  0  0  0  0
    2.5834   -0.4036    0.0000 C   0  0  0  0  0  0  0  0  0
    3.4084   -0.4036    0.0000 C   0  0  0  0  0  0  0  0  0
    3.8209   -1.1180    0.0000 C   0  0  0  0  0  0  0  0  0
    3.4084   -1.8325    0.0000 C   0  0  0  0  0  0  0  0  0
    2.5834   -1.8325    0.0000 C   0  0  0  0  0  0  0  0  0
    2.1709   -1.1180    0.0000 C   0  0  0  0  0  0  0  0  0
    3.8209   -2.5470    0.0000 C   0  0  0  0  0  0  0  0  0
    4.6459   -2.5470    0.0000 C   0  0  0  0  0  0  0  0  0
    5.0584   -3.2614    0.0000 C   0  0  0  0  0  0  0  0  0
    4.6459   -3.9759    0.0000 C   0  0  0  0  0  0  0  0  0
    3.8209   -3.9759    0.0000 C   0  0  0  0  0  0  0  0  0
    3.4084   -3.2614    0.0000 C   0  0  0  0  0  0  0  0  0
    5.0584   -4.6904    0.0000 C   0  0  0  0  0  0  0  0  0
    4.6459   -5.4049    0.0000 N   0  0  0  0  0  0  0  0  0
    5.0584   -6.1193    0.0000 C   0  0  0  0  0  0  0  0  0
    4.6459   -6.8338    0.0000 C   0  0  0  0  0  0  0  0  0
    5.0584   -7.5483    0.0000 C   0  0  0  0  0  0  0  0  0
    5.8834   -7.5483    0.0000 C   0  0  0  0  0  0  0  0  0
    6.2959   -8.2627    0.0000 C   0  0  0  0  0  0  0  0  0
    5.8834   -8.9772    0.0000 C   0  0  0  0  0  0  0  0  0
    5.0584   -8.9772    0.0000 C   0  0  0  0  0  0  0  0  0
    4.6459   -8.2627    0.0000 C   0  0  0  0  0  0  0  0  0
    3.4084    1.0254    0.0000 C   0  0  0  0  0  0  0  0  0
    3.8209    0.3109    0.0000 C   0  0  0  0  0  0  0  0  0
    4.6459    0.3109    0.0000 N   0  0  0  0  0  0  0  0  0
    5.0584    1.0254    0.0000 C   0  0  0  0  0  0  0  0  0
    5.0584   -0.4036    0.0000 C   0  0  0  0  0  0  0  0  0
    2.5834    2.4543    0.0000 C   0  0  0  0  0  0  0  0  0
    2.1709    3.1688    0.0000 C   0  0  0  0  0  0  0  0  0
    2.5834    3.8833    0.0000 C   0  0  0  0  0  0  0  0  0
    2.1709    4.5977    0.0000 C   0  0  0  0  0  0  0  0  0
    2.5834    5.3122    0.0000 C   0  0  0  0  0  0  0  0  0
    3.4084    5.3122    0.0000 C   0  0  0  0  0  0  0  0  0
    3.8209    4.5977    0.0000 C   0  0  0  0  0  0  0  0  0
    3.4084    3.8833    0.0000 C   0  0  0  0  0  0  0  0  0
  1  2  2  0  0  0  0
  2  3  1  0  0  0  0
  2 32  1  0  0  0  0
  3  4  1  0  0  0  0
  3 27  1  0  0  0  0
  4  5  1  0  0  0  0
  5  6  4  0  0  0  0
  5 10  4  0  0  0  0
  6  7  4  0  0  0  0
  7  8  4  0  0  0  0
  8  9  4  0  0  0  0
  8 11  1  0  0  0  0
  9 10  4  0  0  0  0
 11 12  4  0  0  0  0
 11 16  4  0  0  0  0
 12 13  4  0  0  0  0
 13 14  4  0  0  0  0
 14 15  4  0  0  0  0
 14 17  1  0  0  0  0
 15 16  4  0  0  0  0
 17 18  1  0  0  0  0
 18 19  1  0  0  0  0
 19 20  1  0  0  0  0
 20 21  1  0  0  0  0
 21 22  4  0  0  0  0
 21 26  4  0  0  0  0
 22 23  4  0  0  0  0
 23 24  4  0  0  0  0
 24 25  4  0  0  0  0
 25 26  4  0  0  0  0
 27 28  1  0  0  0  0
 28 29  1  0  0  0  0
 29 30  1  0  0  0  0
 29 31  1  0  0  0  0
 32 33  2  0  0  0  0
 33 34  1  0  0  0  0
 34 35  4  0  0  0  0
 34 39  4  0  0  0  0
 35 36  4  0  0  0  0
 36 37  4  0  0  0  0
 37 38  4  0  0  0  0
 38 39  4  0  0  0  0
M  END
>  <Name_Molregno>
315432

>  <5-HT1A>
6.1

>  <5-HT1B>
6.2

>  <5-HT1D>
6.8

>  <5-HT1E>
5

>  <5-HT2A>
6.4

>  <5-HT2C>
6.2

>  <5-HT5>
7.6

>  <5-HT6>
5.1

>  <5-HT7>
6

>  <Alpha-1B>
6.7

>  <DOPAMINE D2>
6.1

>  <DOPAMINE D3>
6

>  <DOPAMINE D4>
5.9

$$$$
315433
  Marvin  02231216192D 0   1.00000     0.00000     0

 41 45  0  0  0  0  0  0  0  0999 V2000
    3.1883    0.1879    0.0000 O   0  0  0  0  0  0  0  0  0
    3.1883    1.0129    0.0000 C   0  0  0  0  0  0  0  0  0
    3.9028    1.4254    0.0000 N   0  0  0  0  0  0  0  0  0
    4.6173    1.0129    0.0000 C   0  0  0  0  0  0  0  0  0
    4.6173    0.1879    0.0000 C   0  0  0  0  0  0  0  0  0
    5.3317   -0.2246    0.0000 C   0  0  0  0  0  0  0  0  0
    5.3317   -1.0496    0.0000 C   0  0  0  0  0  0  0  0  0
    4.6173   -1.4621    0.0000 C   0  0  0  0  0  0  0  0  0
    3.9028   -1.0496    0.0000 C   0  0  0  0  0  0  0  0  0
    3.9028   -0.2246    0.0000 C   0  0  0  0  0  0  0  0  0
    4.6173   -2.2871    0.0000 C   0  0  0  0  0  0  0  0  0
    5.3317   -2.6996    0.0000 C   0  0  0  0  0  0  0  0  0
    5.3317   -3.5246    0.0000 C   0  0  0  0  0  0  0  0  0
    4.6173   -3.9371    0.0000 C   0  0  0  0  0  0  0  0  0
    3.9028   -3.5246    0.0000 C   0  0  0  0  0  0  0  0  0
    3.9028   -2.6996    0.0000 C   0  0  0  0  0  0  0  0  0
    4.6173   -4.7621    0.0000 C   0  0  0  0  0  0  0  0  0
    3.9028   -5.1746    0.0000 N   0  0  0  0  0  0  0  0  0
    3.9028   -5.9996    0.0000 C   0  0  0  0  0  0  0  0  0
    3.1883   -6.4121    0.0000 C   0  0  0  0  0  0  0  0  0
    3.1883   -7.2371    0.0000 C   0  0  0  0  0  0  0  0  0
    3.9028   -7.6496    0.0000 C   0  0  0  0  0  0  0  0  0
    3.9028   -8.4746    0.0000 C   0  0  0  0  0  0  0  0  0
    3.1883   -8.8871    0.0000 C   0  0  0  0  0  0  0  0  0
    2.4738   -8.4746    0.0000 C   0  0  0  0  0  0  0  0  0
    2.4738   -7.6496    0.0000 C   0  0  0  0  0  0  0  0  0
    3.9028    2.2504    0.0000 C   0  0  0  0  0  0  0  0  0
    4.6173    2.6629    0.0000 C   0  0  0  0  0  0  0  0  0
    5.3317    2.2504    0.0000 C   0  0  0  0  0  0  0  0  0
    6.0462    2.6629    0.0000 C   0  0  0  0  0  0  0  0  0
    6.0462    3.4879    0.0000 C   0  0  0  0  0  0  0  0  0
    5.3317    3.9004    0.0000 N   0  0  0  0  0  0  0  0  0
    4.6173    3.4879    0.0000 C   0  0  0  0  0  0  0  0  0
    2.4738    1.4254    0.0000 C   0  0  0  0  0  0  0  0  0
    1.7594    1.0129    0.0000 C   0  0  0  0  0  0  0  0  0
    1.0449    1.4254    0.0000 C   0  0  0  0  0  0  0  0  0
    0.3304    1.0129    0.0000 C   0  0  0  0  0  0  0  0  0
   -0.3840    1.4254    0.0000 C   0  0  0  0  0  0  0  0  0
   -0.3840    2.2504    0.0000 C   0  0  0  0  0  0  0  0  0
    0.3304    2.6629    0.0000 C   0  0  0  0  0  0  0  0  0
    1.0449    2.2504    0.0000 C   0  0  0  0  0  0  0  0  0
  1  2  2  0  0  0  0
  2  3  1  0  0  0  0
  2 34  1  0  0  0  0
  3  4  1  0  0  0  0
  3 27  1  0  0  0  0
  4  5  1  0  0  0  0
  5  6  4  0  0  0  0
  5 10  4  0  0  0  0
  6  7  4  0  0  0  0
  7  8  4  0  0  0  0
  8  9  4  0  0  0  0
  8 11  1  0  0  0  0
  9 10  4  0  0  0  0
 11 12  4  0  0  0  0
 11 16  4  0  0  0  0
 12 13  4  0  0  0  0
 13 14  4  0  0  0  0
 14 15  4  0  0  0  0
 14 17  1  0  0  0  0
 15 16  4  0  0  0  0
 17 18  1  0  0  0  0
 18 19  1  0  0  0  0
 19 20  1  0  0  0  0
 20 21  1  0  0  0  0
 21 22  4  0  0  0  0
 21 26  4  0  0  0  0
 22 23  4  0  0  0  0
 23 24  4  0  0  0  0
 24 25  4  0  0  0  0
 25 26  4  0  0  0  0
 27 28  1  0  0  0  0
 28 29  4  0  0  0  0
 28 33  4  0  0  0  0
 29 30  4  0  0  0  0
 30 31  4  0  0  0  0
 31 32  4  0  0  0  0
 32 33  4  0  0  0  0
 34 35  2  0  0  0  0
 35 36  1  0  0  0  0
 36 37  4  0  0  0  0
 36 41  4  0  0  0  0
 37 38  4  0  0  0  0
 38 39  4  0  0  0  0
 39 40  4  0  0  0  0
 40 41  4  0  0  0  0
M  END
>  <Name_Molregno>
315433

>  <5-HT1A>
6

>  <5-HT1B>
6.2

>  <5-HT1D>
5.9

>  <5-HT1E>
5

>  <5-HT2A>
6.1

>  <5-HT2C>
6

>  <5-HT5>
7.3

>  <5-HT6>
5.7

>  <5-HT7>
5.9

>  <Alpha-1B>
6.5

>  <DOPAMINE D2>
5.9

>  <DOPAMINE D3>
5.8

>  <DOPAMINE D4>
5.8

$$$$
315545
  Marvin  02231216192D 0   1.00000     0.00000     0

 38 41  0  0  0  0  0  0  0  0999 V2000
    8.3584    0.3824    0.0000 O   0  0  0  0  0  0  0  0  0
    7.8183   -0.2412    0.0000 C   0  0  0  0  0  0  0  0  0
    7.0082   -0.0853    0.0000 N   0  0  0  0  0  0  0  0  0
    6.7381    0.6942    0.0000 C   0  0  0  0  0  0  0  0  0
    5.9280    0.8501    0.0000 C   0  0  0  0  0  0  0  0  0
    5.3879    0.2265    0.0000 C   0  0  0  0  0  0  0  0  0
    4.5778    0.3824    0.0000 C   0  0  0  0  0  0  0  0  0
    4.3077    1.1620    0.0000 C   0  0  0  0  0  0  0  0  0
    4.8478    1.7856    0.0000 C   0  0  0  0  0  0  0  0  0
    5.6579    1.6297    0.0000 C   0  0  0  0  0  0  0  0  0
    3.4976    1.3179    0.0000 C   0  0  0  0  0  0  0  0  0
    2.9575    0.6942    0.0000 C   0  0  0  0  0  0  0  0  0
    2.1474    0.8501    0.0000 C   0  0  0  0  0  0  0  0  0
    1.8773    1.6297    0.0000 C   0  0  0  0  0  0  0  0  0
    2.4174    2.2533    0.0000 C   0  0  0  0  0  0  0  0  0
    3.2275    2.0974    0.0000 C   0  0  0  0  0  0  0  0  0
    1.0672    1.7856    0.0000 C   0  0  0  0  0  0  0  0  0
    0.7971    2.5652    0.0000 N   0  0  0  0  0  0  0  0  0
   -0.0130    2.7211    0.0000 C   0  0  0  0  0  0  0  0  0
   -0.2830    3.5006    0.0000 C   0  0  0  0  0  0  0  0  0
   -1.0932    3.6565    0.0000 C   0  0  0  0  0  0  0  0  0
   -1.6333    3.0329    0.0000 C   0  0  0  0  0  0  0  0  0
   -2.4434    3.1888    0.0000 C   0  0  0  0  0  0  0  0  0
   -2.7135    3.9683    0.0000 C   0  0  0  0  0  0  0  0  0
   -2.1734    4.5920    0.0000 C   0  0  0  0  0  0  0  0  0
   -1.3632    4.4361    0.0000 C   0  0  0  0  0  0  0  0  0
    6.4681   -0.7090    0.0000 C   0  0  0  0  0  0  0  0  0
    5.6579   -0.5531    0.0000 C   0  0  0  0  0  0  0  0  0
    5.1178   -1.1767    0.0000 N   0  0  0  0  0  0  0  0  0
    5.3879   -1.9562    0.0000 C   0  0  0  0  0  0  0  0  0
    4.3077   -1.0208    0.0000 C   0  0  0  0  0  0  0  0  0
    8.0883   -1.0208    0.0000 C   0  0  0  0  0  0  0  0  0
    8.8985   -1.1767    0.0000 C   0  0  0  0  0  0  0  0  0
    9.1685   -1.9562    0.0000 C   0  0  0  0  0  0  0  0  0
    9.9579   -2.1960    0.0000 C   0  0  0  0  0  0  0  0  0
    9.9738   -3.0208    0.0000 C   0  0  0  0  0  0  0  0  0
    9.1943   -3.2909    0.0000 C   0  0  0  0  0  0  0  0  0
    8.6966   -2.6329    0.0000 C   0  0  0  0  0  0  0  0  0
  1  2  2  0  0  0  0
  2  3  1  0  0  0  0
  2 32  1  0  0  0  0
  3  4  1  0  0  0  0
  3 27  1  0  0  0  0
  4  5  1  0  0  0  0
  5  6  4  0  0  0  0
  5 10  4  0  0  0  0
  6  7  4  0  0  0  0
  7  8  4  0  0  0  0
  8  9  4  0  0  0  0
  8 11  1  0  0  0  0
  9 10  4  0  0  0  0
 11 12  4  0  0  0  0
 11 16  4  0  0  0  0
 12 13  4  0  0  0  0
 13 14  4  0  0  0  0
 14 15  4  0  0  0  0
 14 17  1  0  0  0  0
 15 16  4  0  0  0  0
 17 18  1  0  0  0  0
 18 19  1  0  0  0  0
 19 20  1  0  0  0  0
 20 21  1  0  0  0  0
 21 22  4  0  0  0  0
 21 26  4  0  0  0  0
 22 23  4  0  0  0  0
 23 24  4  0  0  0  0
 24 25  4  0  0  0  0
 25 26  4  0  0  0  0
 27 28  1  0  0  0  0
 28 29  1  0  0  0  0
 29 30  1  0  0  0  0
 29 31  1  0  0  0  0
 32 33  1  0  0  0  0
 33 34  1  0  0  0  0
 34 35  1  0  0  0  0
 34 38  1  0  0  0  0
 35 36  1  0  0  0  0
 36 37  1  0  0  0  0
 37 38  1  0  0  0  0
M  END
>  <Name_Molregno>
315545

>  <5-HT1A>
6.3

>  <5-HT1B>
6.5

>  <5-HT1D>
6.4

>  <5-HT1E>
5

>  <5-HT2A>
6.1

>  <5-HT2C>
6.4

>  <5-HT5>
8.2

>  <5-HT6>
5.4

>  <5-HT7>
5.4

>  <Alpha-1B>
6.5

>  <DOPAMINE D2>
5.9

>  <DOPAMINE D3>
6.2

>  <DOPAMINE D4>
6.1

>  <Serotonin transporter>
7.6

$$$$
320346
  Marvin  02231216192D 0   1.00000     0.00000     0

 25 28  0  0  1  0  0  0  0  0999 V2000
   -0.3965   -3.1617    0.0000 O   0  0  0  0  0  0  0  0  0
    0.3175   -3.5751    0.0000 C   0  0  0  0  0  0  0  0  0
    1.0325   -3.1634    0.0000 N   0  0  0  0  0  0  0  0  0
    1.0334   -2.3384    0.0000 C   0  0  0  0  0  0  0  0  0
    1.7484   -1.9268    0.0000 C   0  0  0  0  0  0  0  0  0
    1.7494   -1.1018    0.0000 C   0  0  0  0  0  0  0  0  0
    1.0354   -0.6884    0.0000 C   0  0  0  0  0  0  0  0  0
    0.3205   -1.1001    0.0000 N   0  0  0  0  0  0  0  0  0
    0.3195   -1.9251    0.0000 C   0  0  0  0  0  0  0  0  0
   -0.3935   -0.6867    0.0000 C   0  0  0  0  0  0  0  0  0
    1.0369    0.1357    0.0000 C   0  0  0  0  0  0  0  0  0
    1.7494    0.5482    0.0000 C   0  0  0  0  0  0  0  0  0
    2.4619    0.1357    0.0000 C   0  0  0  0  0  0  0  0  0
    2.4619   -0.6893    0.0000 C   0  0  0  0  0  0  0  0  0
    3.1798   -1.1018    0.0000 C   0  0  0  0  0  0  0  0  0
    3.8923   -0.6893    0.0000 C   0  0  0  0  0  0  0  0  0
    3.8923    0.1357    0.0000 C   0  0  0  0  0  0  0  0  0
    3.1798    0.5482    0.0000 C   0  0  0  0  0  0  0  0  0
    2.8744    1.4054    0.0000 N   0  0  0  0  0  0  0  0  0
    2.0494    1.4054    0.0000 C   0  0  0  0  0  0  0  0  0
    0.3165   -4.4001    0.0000 N   0  0  0  0  0  0  0  0  0
   -0.3985   -4.8117    0.0000 C   0  0  0  0  0  0  0  0  0
   -0.3994   -5.6367    0.0000 C   0  0  0  0  0  0  0  0  0
    1.0305   -4.8134    0.0000 C   0  0  0  0  0  0  0  0  0
    1.0295   -5.6384    0.0000 C   0  0  0  0  0  0  0  0  0
  1  2  2  0  0  0  0
  2  3  1  0  0  0  0
  2 21  1  0  0  0  0
  3  4  1  0  0  0  0
  4  5  1  0  0  0  0
  4  9  1  0  0  0  0
  5  6  2  0  0  0  0
  6  7  1  0  0  0  0
  6 14  1  0  0  0  0
  7  8  1  0  0  0  0
  7 11  1  0  0  0  0
  8  9  1  0  0  0  0
  8 10  1  0  0  0  0
 11 12  1  0  0  0  0
 12 13  4  0  0  0  0
 12 20  4  0  0  0  0
 13 14  4  0  0  0  0
 13 18  4  0  0  0  0
 14 15  4  0  0  0  0
 15 16  4  0  0  0  0
 16 17  4  0  0  0  0
 17 18  4  0  0  0  0
 18 19  4  0  0  0  0
 19 20  4  0  0  0  0
 21 22  1  0  0  0  0
 21 24  1  0  0  0  0
 22 23  1  0  0  0  0
 24 25  1  0  0  0  0
M  STY  1   1 DAT
M  SAL   1  1  19
M  SDT   1 MRV_IMPLICIT_H                                        
M  SDD   1     0.0000    0.0000    DR    ALL  0       0  
M  SED   1 IMPL_H1
M  END
>  <Name_Molregno>
320346

>  <5-HT1A>
9.06

>  <5-HT1B>
7.73

>  <5-HT1D>
9.01

>  <5-HT2A>
8.71

>  <5-HT2C>
8.2

>  <Alpha-1A>
8.26

>  <Alpha-1B>
7.78

>  <Alpha-2A>
10.26

>  <Alpha-2B>
9.87

>  <Beta-1>
7.17

>  <Beta-2>
8.1

>  <DOPAMINE D1>
7.19

>  <DOPAMINE D2>
9.31

>  <DOPAMINE D3>
9.14

>  <DOPAMINE D4>
8.33

>  <DOPAMINE D5>
8.45

$$$$
320997
  Marvin  02231216192D 0   1.00000     0.00000     0

 28 31  0  0  0  0  0  0  0  0999 V2000
    8.9717   -1.0343    0.0000 F   0  0  0  0  0  0  0  0  0
    8.5592   -0.3199    0.0000 C   0  0  0  0  0  0  0  0  0
    7.7342   -0.3199    0.0000 C   0  0  0  0  0  0  0  0  0
    7.3217    0.3946    0.0000 C   0  0  0  0  0  0  0  0  0
    6.4967    0.3946    0.0000 N   0  0  0  0  0  0  0  0  0
    6.0842   -0.3199    0.0000 C   0  0  0  0  0  0  0  0  0
    5.2592   -0.3199    0.0000 C   0  0  0  0  0  0  0  0  0
    4.8467    0.3946    0.0000 N   0  0  0  0  0  0  0  0  0
    5.2592    1.1091    0.0000 C   0  0  0  0  0  0  0  0  0
    6.0842    1.1091    0.0000 C   0  0  0  0  0  0  0  0  0
    4.0217    0.3946    0.0000 C   0  0  0  0  0  0  0  0  0
    3.6092    1.1091    0.0000 C   0  0  0  0  0  0  0  0  0
    2.7842    1.1091    0.0000 N   0  0  0  0  0  0  0  0  0
    2.3717    0.3946    0.0000 C   0  0  0  0  0  0  0  0  0
    2.7842   -0.3199    0.0000 O   0  0  0  0  0  0  0  0  0
    1.5467    0.3946    0.0000 C   0  0  0  0  0  0  0  0  0
    1.1342    1.1091    0.0000 C   0  0  0  0  0  0  0  0  0
    1.5467    1.8235    0.0000 C   0  0  0  0  0  0  0  0  0
    2.3717    1.8235    0.0000 C   0  0  0  0  0  0  0  0  0
    2.7842    2.5380    0.0000 O   0  0  0  0  0  0  0  0  0
    0.6493    0.4416    0.0000 C   0  0  0  0  0  0  0  0  0
   -0.1353    0.6966    0.0000 C   0  0  0  0  0  0  0  0  0
   -0.1353    1.5216    0.0000 C   0  0  0  0  0  0  0  0  0
    0.6493    1.7765    0.0000 C   0  0  0  0  0  0  0  0  0
    7.7342    1.1091    0.0000 C   0  0  0  0  0  0  0  0  0
    8.5592    1.1091    0.0000 C   0  0  0  0  0  0  0  0  0
    8.9717    0.3946    0.0000 C   0  0  0  0  0  0  0  0  0
    9.7967    0.3946    0.0000 F   0  0  0  0  0  0  0  0  0
  1  2  1  0  0  0  0
  2  3  4  0  0  0  0
  2 27  4  0  0  0  0
  3  4  4  0  0  0  0
  4  5  1  0  0  0  0
  4 25  4  0  0  0  0
  5  6  1  0  0  0  0
  5 10  1  0  0  0  0
  6  7  1  0  0  0  0
  7  8  1  0  0  0  0
  8  9  1  0  0  0  0
  8 11  1  0  0  0  0
  9 10  1  0  0  0  0
 11 12  1  0  0  0  0
 12 13  1  0  0  0  0
 13 14  1  0  0  0  0
 13 19  1  0  0  0  0
 14 15  2  0  0  0  0
 14 16  1  0  0  0  0
 16 17  1  0  0  0  0
 17 18  1  0  0  0  0
 17 21  1  0  0  0  0
 17 24  1  0  0  0  0
 18 19  1  0  0  0  0
 19 20  2  0  0  0  0
 21 22  1  0  0  0  0
 22 23  1  0  0  0  0
 23 24  1  0  0  0  0
 25 26  4  0  0  0  0
 26 27  4  0  0  0  0
 27 28  1  0  0  0  0
M  END
>  <Name_Molregno>
320997

>  <5-HT1A>
7.26

>  <Alpha-1A>
5.39

>  <Alpha-1B>
5.85

$$$$
321201
  Marvin  02231216192D 0   1.00000     0.00000     0

 28 31  0  0  0  0  0  0  0  0999 V2000
   -0.3915    1.6598    0.0000 F   0  0  0  0  0  0  0  0  0
    0.0210    0.9454    0.0000 C   0  0  0  0  0  0  0  0  0
    0.8460    0.9454    0.0000 C   0  0  0  0  0  0  0  0  0
    1.2585    0.2309    0.0000 C   0  0  0  0  0  0  0  0  0
    2.0835    0.2309    0.0000 F   0  0  0  0  0  0  0  0  0
    0.8460   -0.4836    0.0000 C   0  0  0  0  0  0  0  0  0
    0.0210   -0.4836    0.0000 C   0  0  0  0  0  0  0  0  0
   -0.3915    0.2309    0.0000 C   0  0  0  0  0  0  0  0  0
   -1.2165    0.2309    0.0000 N   0  0  0  0  0  0  0  0  0
   -1.6290   -0.4836    0.0000 C   0  0  0  0  0  0  0  0  0
   -2.4540   -0.4836    0.0000 C   0  0  0  0  0  0  0  0  0
   -2.8665    0.2309    0.0000 N   0  0  0  0  0  0  0  0  0
   -2.4540    0.9454    0.0000 C   0  0  0  0  0  0  0  0  0
   -1.6290    0.9454    0.0000 C   0  0  0  0  0  0  0  0  0
   -3.6915    0.2309    0.0000 C   0  0  0  0  0  0  0  0  0
   -4.1040   -0.4836    0.0000 C   0  0  0  0  0  0  0  0  0
   -4.9290   -0.4836    0.0000 N   0  0  0  0  0  0  0  0  0
   -5.3415   -1.1980    0.0000 C   0  0  0  0  0  0  0  0  0
   -4.9290   -1.9125    0.0000 O   0  0  0  0  0  0  0  0  0
   -6.1665   -1.1980    0.0000 C   0  0  0  0  0  0  0  0  0
   -6.5790   -0.4836    0.0000 C   0  0  0  0  0  0  0  0  0
   -6.1665    0.2309    0.0000 C   0  0  0  0  0  0  0  0  0
   -5.3415    0.2309    0.0000 C   0  0  0  0  0  0  0  0  0
   -4.9290    0.9454    0.0000 O   0  0  0  0  0  0  0  0  0
   -7.0640   -1.1510    0.0000 C   0  0  0  0  0  0  0  0  0
   -7.8486   -0.8961    0.0000 C   0  0  0  0  0  0  0  0  0
   -7.8486   -0.0711    0.0000 C   0  0  0  0  0  0  0  0  0
   -7.0640    0.1839    0.0000 C   0  0  0  0  0  0  0  0  0
  1  2  1  0  0  0  0
  2  3  4  0  0  0  0
  2  8  4  0  0  0  0
  3  4  4  0  0  0  0
  4  5  1  0  0  0  0
  4  6  4  0  0  0  0
  6  7  4  0  0  0  0
  7  8  4  0  0  0  0
  8  9  1  0  0  0  0
  9 10  1  0  0  0  0
  9 14  1  0  0  0  0
 10 11  1  0  0  0  0
 11 12  1  0  0  0  0
 12 13  1  0  0  0  0
 12 15  1  0  0  0  0
 13 14  1  0  0  0  0
 15 16  1  0  0  0  0
 16 17  1  0  0  0  0
 17 18  1  0  0  0  0
 17 23  1  0  0  0  0
 18 19  2  0  0  0  0
 18 20  1  0  0  0  0
 20 21  1  0  0  0  0
 21 22  1  0  0  0  0
 21 25  1  0  0  0  0
 21 28  1  0  0  0  0
 22 23  1  0  0  0  0
 23 24  2  0  0  0  0
 25 26  1  0  0  0  0
 26 27  1  0  0  0  0
 27 28  1  0  0  0  0
M  END
>  <Name_Molregno>
321201

>  <5-HT1A>
7.62

>  <Alpha-1A>
5.42

>  <Alpha-1B>
5.96

$$$$
321357
  Marvin  02231216192D 0   1.00000     0.00000     0

 29 32  0  0  0  0  0  0  0  0999 V2000
   -0.4337    1.5579    0.0000 F   0  0  0  0  0  0  0  0  0
   -0.0212    0.8434    0.0000 C   0  0  0  0  0  0  0  0  0
    0.8038    0.8434    0.0000 C   0  0  0  0  0  0  0  0  0
    1.2163    0.1289    0.0000 C   0  0  0  0  0  0  0  0  0
    2.0413    0.1289    0.0000 F   0  0  0  0  0  0  0  0  0
    0.8038   -0.5855    0.0000 C   0  0  0  0  0  0  0  0  0
    1.2163   -1.3000    0.0000 F   0  0  0  0  0  0  0  0  0
   -0.0212   -0.5855    0.0000 C   0  0  0  0  0  0  0  0  0
   -0.4337    0.1289    0.0000 C   0  0  0  0  0  0  0  0  0
   -1.2587    0.1289    0.0000 N   0  0  0  0  0  0  0  0  0
   -1.6712   -0.5855    0.0000 C   0  0  0  0  0  0  0  0  0
   -2.4962   -0.5855    0.0000 C   0  0  0  0  0  0  0  0  0
   -2.9087    0.1289    0.0000 N   0  0  0  0  0  0  0  0  0
   -2.4962    0.8434    0.0000 C   0  0  0  0  0  0  0  0  0
   -1.6712    0.8434    0.0000 C   0  0  0  0  0  0  0  0  0
   -3.7337    0.1289    0.0000 C   0  0  0  0  0  0  0  0  0
   -4.1462   -0.5855    0.0000 C   0  0  0  0  0  0  0  0  0
   -4.9712   -0.5855    0.0000 N   0  0  0  0  0  0  0  0  0
   -5.3837   -1.3000    0.0000 C   0  0  0  0  0  0  0  0  0
   -4.9712   -2.0145    0.0000 O   0  0  0  0  0  0  0  0  0
   -6.2087   -1.3000    0.0000 C   0  0  0  0  0  0  0  0  0
   -6.6212   -0.5855    0.0000 C   0  0  0  0  0  0  0  0  0
   -6.2087    0.1289    0.0000 C   0  0  0  0  0  0  0  0  0
   -5.3837    0.1289    0.0000 C   0  0  0  0  0  0  0  0  0
   -4.9712    0.8434    0.0000 O   0  0  0  0  0  0  0  0  0
   -7.1061   -1.2530    0.0000 C   0  0  0  0  0  0  0  0  0
   -7.8907   -0.9980    0.0000 C   0  0  0  0  0  0  0  0  0
   -7.8907   -0.1730    0.0000 C   0  0  0  0  0  0  0  0  0
   -7.1061    0.0819    0.0000 C   0  0  0  0  0  0  0  0  0
  1  2  1  0  0  0  0
  2  3  4  0  0  0  0
  2  9  4  0  0  0  0
  3  4  4  0  0  0  0
  4  5  1  0  0  0  0
  4  6  4  0  0  0  0
  6  7  1  0  0  0  0
  6  8  4  0  0  0  0
  8  9  4  0  0  0  0
  9 10  1  0  0  0  0
 10 11  1  0  0  0  0
 10 15  1  0  0  0  0
 11 12  1  0  0  0  0
 12 13  1  0  0  0  0
 13 14  1  0  0  0  0
 13 16  1  0  0  0  0
 14 15  1  0  0  0  0
 16 17  1  0  0  0  0
 17 18  1  0  0  0  0
 18 19  1  0  0  0  0
 18 24  1  0  0  0  0
 19 20  2  0  0  0  0
 19 21  1  0  0  0  0
 21 22  1  0  0  0  0
 22 23  1  0  0  0  0
 22 26  1  0  0  0  0
 22 29  1  0  0  0  0
 23 24  1  0  0  0  0
 24 25  2  0  0  0  0
 26 27  1  0  0  0  0
 27 28  1  0  0  0  0
 28 29  1  0  0  0  0
M  END
>  <Name_Molregno>
321357

>  <5-HT1A>
6.44

>  <Alpha-1A>
5.36

>  <Alpha-1B>
6.42

$$$$
321985
  Marvin  02231216192D 0   1.00000     0.00000     0

 31 35  0  0  0  0  0  0  0  0999 V2000
    4.0403    1.1934    0.0000 O   0  0  0  0  0  0  0  0  0
    3.3258    0.7809    0.0000 C   0  0  0  0  0  0  0  0  0
    3.3258   -0.0441    0.0000 C   0  0  0  0  0  0  0  0  0
    2.6114   -0.4566    0.0000 N   0  0  0  0  0  0  0  0  0
    2.6114   -1.2816    0.0000 C   0  0  0  0  0  0  0  0  0
    1.8969   -1.6941    0.0000 C   0  0  0  0  0  0  0  0  0
    1.1824   -1.2816    0.0000 N   0  0  0  0  0  0  0  0  0
    1.1824   -0.4566    0.0000 C   0  0  0  0  0  0  0  0  0
    1.8969   -0.0441    0.0000 C   0  0  0  0  0  0  0  0  0
    0.4679   -1.6941    0.0000 C   0  0  0  0  0  0  0  0  0
   -0.2465   -1.2816    0.0000 C   0  0  0  0  0  0  0  0  0
   -0.9610   -1.6941    0.0000 C   0  0  0  0  0  0  0  0  0
   -0.9610   -2.5191    0.0000 N   0  0  0  0  0  0  0  0  0
   -1.6755   -2.9316    0.0000 C   0  0  0  0  0  0  0  0  0
   -2.3899   -2.5191    0.0000 C   0  0  0  0  0  0  0  0  0
   -2.3899   -1.6941    0.0000 C   0  0  0  0  0  0  0  0  0
   -1.6755   -1.2816    0.0000 C   0  0  0  0  0  0  0  0  0
   -1.6755   -0.4566    0.0000 C   0  0  0  0  0  0  0  0  0
   -0.9610   -0.0441    0.0000 C   0  0  0  0  0  0  0  0  0
   -0.2465   -0.4566    0.0000 C   0  0  0  0  0  0  0  0  0
    4.0403    2.0184    0.0000 C   0  0  0  0  0  0  0  0  0
    4.7548    2.4309    0.0000 C   0  0  0  0  0  0  0  0  0
    4.7548    3.2559    0.0000 C   0  0  0  0  0  0  0  0  0
    5.4692    3.6684    0.0000 N   0  0  0  0  0  0  0  0  0
    6.1837    3.2559    0.0000 C   0  0  0  0  0  0  0  0  0
    6.1837    2.4309    0.0000 C   0  0  0  0  0  0  0  0  0
    5.4692    2.0184    0.0000 C   0  0  0  0  0  0  0  0  0
    6.8982    3.6684    0.0000 C   0  0  0  0  0  0  0  0  0
    4.0403    3.6684    0.0000 C   0  0  0  0  0  0  0  0  0
    3.3258    3.2559    0.0000 C   0  0  0  0  0  0  0  0  0
    3.3258    2.4309    0.0000 C   0  0  0  0  0  0  0  0  0
  1  2  1  0  0  0  0
  1 21  1  0  0  0  0
  2  3  1  0  0  0  0
  3  4  1  0  0  0  0
  4  5  1  0  0  0  0
  4  9  1  0  0  0  0
  5  6  1  0  0  0  0
  6  7  1  0  0  0  0
  7  8  1  0  0  0  0
  7 10  1  0  0  0  0
  8  9  1  0  0  0  0
 10 11  1  0  0  0  0
 11 12  4  0  0  0  0
 11 20  4  0  0  0  0
 12 13  4  0  0  0  0
 12 17  4  0  0  0  0
 13 14  4  0  0  0  0
 14 15  4  0  0  0  0
 15 16  4  0  0  0  0
 16 17  4  0  0  0  0
 17 18  4  0  0  0  0
 18 19  4  0  0  0  0
 19 20  4  0  0  0  0
 21 22  4  0  0  0  0
 21 31  4  0  0  0  0
 22 23  4  0  0  0  0
 22 27  4  0  0  0  0
 23 24  4  0  0  0  0
 23 29  4  0  0  0  0
 24 25  4  0  0  0  0
 25 26  4  0  0  0  0
 25 28  1  0  0  0  0
 26 27  4  0  0  0  0
 29 30  4  0  0  0  0
 30 31  4  0  0  0  0
M  END
>  <Name_Molregno>
321985

>  <5-HT1A>
6.5

>  <5-HT1B>
6.7

>  <5-HT1D>
9.1

>  <5-HT1E>
5

>  <5-HT2A>
5.6

>  <5-HT2C>
5.5

>  <5-HT5>
5.5

>  <5-HT6>
5

>  <5-HT7>
6.3

>  <Alpha-1B>
6

>  <Beta-2>
5.7

>  <DOPAMINE D2>
5.5

>  <DOPAMINE D3>
6

>  <DOPAMINE D4>
5

$$$$
330188
  Marvin  02231216192D 0   1.00000     0.00000     0

 22 24  0  0  0  0  0  0  0  0999 V2000
   -1.2943    2.3793    0.0000 O   0  0  0  0  0  0  0  0  0
   -1.2943    3.2043    0.0000 C   0  0  0  0  0  0  0  0  0
   -2.0088    1.9668    0.0000 C   0  0  0  0  0  0  0  0  0
   -2.0088    1.1418    0.0000 C   0  0  0  0  0  0  0  0  0
   -2.7233    0.7293    0.0000 C   0  0  0  0  0  0  0  0  0
   -2.7233   -0.0957    0.0000 N   0  0  0  0  0  0  0  0  0
   -2.0088   -0.5082    0.0000 N   0  0  0  0  0  0  0  0  0
   -2.0088   -1.3332    0.0000 C   0  0  0  0  0  0  0  0  0
   -1.3414   -1.8181    0.0000 N   0  0  0  0  0  0  0  0  0
   -1.5963   -2.6028    0.0000 C   0  0  0  0  0  0  0  0  0
   -2.4213   -2.6028    0.0000 C   0  0  0  0  0  0  0  0  0
   -2.6762   -1.8181    0.0000 N   0  0  0  0  0  0  0  0  0
   -3.4377   -0.5082    0.0000 C   0  0  0  0  0  0  0  0  0
   -3.4377   -1.3332    0.0000 C   0  0  0  0  0  0  0  0  0
   -4.1522   -1.7457    0.0000 C   0  0  0  0  0  0  0  0  0
   -4.8667   -1.3332    0.0000 C   0  0  0  0  0  0  0  0  0
   -4.8667   -0.5082    0.0000 C   0  0  0  0  0  0  0  0  0
   -4.1522   -0.0957    0.0000 C   0  0  0  0  0  0  0  0  0
   -5.5812   -1.7457    0.0000 C   0  0  0  0  0  0  0  0  0
   -3.4377    1.1418    0.0000 C   0  0  0  0  0  0  0  0  0
   -3.4377    1.9668    0.0000 C   0  0  0  0  0  0  0  0  0
   -2.7233    2.3793    0.0000 C   0  0  0  0  0  0  0  0  0
  1  2  1  0  0  0  0
  1  3  1  0  0  0  0
  3  4  4  0  0  0  0
  3 22  4  0  0  0  0
  4  5  4  0  0  0  0
  5  6  1  0  0  0  0
  5 20  4  0  0  0  0
  6  7  1  0  0  0  0
  6 13  1  0  0  0  0
  7  8  1  0  0  0  0
  8  9  1  0  0  0  0
  8 12  2  0  0  0  0
  9 10  1  0  0  0  0
 10 11  1  0  0  0  0
 11 12  1  0  0  0  0
 13 14  4  0  0  0  0
 13 18  4  0  0  0  0
 14 15  4  0  0  0  0
 15 16  4  0  0  0  0
 16 17  4  0  0  0  0
 16 19  1  0  0  0  0
 17 18  4  0  0  0  0
 20 21  4  0  0  0  0
 21 22  4  0  0  0  0
M  END
>  <Name_Molregno>
330188

>  <Alpha-1A>
7.7

>  <Alpha-1B>
6.99

>  <Alpha-2A>
8.2

>  <Alpha-2B>
8.14

>  <Alpha-2C>
8.42

$$$$
330189
  Marvin  02231216192D 0   1.00000     0.00000     0

 21 23  0  0  0  0  0  0  0  0999 V2000
    4.7921    2.7933    0.0000 O   0  0  0  0  0  0  0  0  0
    4.0777    2.3808    0.0000 C   0  0  0  0  0  0  0  0  0
    4.0777    1.5558    0.0000 C   0  0  0  0  0  0  0  0  0
    3.3632    1.1433    0.0000 C   0  0  0  0  0  0  0  0  0
    3.3632    0.3183    0.0000 N   0  0  0  0  0  0  0  0  0
    4.0777   -0.0942    0.0000 N   0  0  0  0  0  0  0  0  0
    4.0777   -0.9192    0.0000 C   0  0  0  0  0  0  0  0  0
    4.7451   -1.4042    0.0000 N   0  0  0  0  0  0  0  0  0
    4.4902   -2.1888    0.0000 C   0  0  0  0  0  0  0  0  0
    3.6652   -2.1888    0.0000 C   0  0  0  0  0  0  0  0  0
    3.4102   -1.4042    0.0000 N   0  0  0  0  0  0  0  0  0
    2.6487   -0.0942    0.0000 C   0  0  0  0  0  0  0  0  0
    2.6487   -0.9192    0.0000 C   0  0  0  0  0  0  0  0  0
    1.9343   -1.3317    0.0000 C   0  0  0  0  0  0  0  0  0
    1.2198   -0.9192    0.0000 C   0  0  0  0  0  0  0  0  0
    1.2198   -0.0942    0.0000 C   0  0  0  0  0  0  0  0  0
    1.9343    0.3183    0.0000 C   0  0  0  0  0  0  0  0  0
    0.5053   -1.3317    0.0000 C   0  0  0  0  0  0  0  0  0
    2.6487    1.5558    0.0000 C   0  0  0  0  0  0  0  0  0
    2.6487    2.3808    0.0000 C   0  0  0  0  0  0  0  0  0
    3.3632    2.7933    0.0000 C   0  0  0  0  0  0  0  0  0
  1  2  1  0  0  0  0
  2  3  4  0  0  0  0
  2 21  4  0  0  0  0
  3  4  4  0  0  0  0
  4  5  1  0  0  0  0
  4 19  4  0  0  0  0
  5  6  1  0  0  0  0
  5 12  1  0  0  0  0
  6  7  1  0  0  0  0
  7  8  1  0  0  0  0
  7 11  2  0  0  0  0
  8  9  1  0  0  0  0
  9 10  1  0  0  0  0
 10 11  1  0  0  0  0
 12 13  4  0  0  0  0
 12 17  4  0  0  0  0
 13 14  4  0  0  0  0
 14 15  4  0  0  0  0
 15 16  4  0  0  0  0
 15 18  1  0  0  0  0
 16 17  4  0  0  0  0
 19 20  4  0  0  0  0
 20 21  4  0  0  0  0
M  END
>  <Name_Molregno>
330189

>  <Alpha-1A>
7.57

>  <Alpha-1B>
6.07

>  <Alpha-2A>
7.62

>  <Alpha-2B>
7.74

>  <Alpha-2C>
7.89

$$$$
331003
  Marvin  02231216192D 0   1.00000     0.00000     0

 33 37  0  0  1  0  0  0  0  0999 V2000
    3.4711   -4.7697    0.0000 Cl  0  0  0  0  0  0  0  0  0
    3.7261   -3.9851    0.0000 C   0  0  0  0  0  0  0  0  0
    4.5107   -3.7301    0.0000 C   0  0  0  0  0  0  0  0  0
    4.5107   -2.9051    0.0000 C   0  0  0  0  0  0  0  0  0
    3.7261   -2.6502    0.0000 S   0  0  0  0  0  0  0  0  0
    3.2411   -3.3176    0.0000 C   0  0  0  0  0  0  0  0  0
    2.4161   -3.3176    0.0000 C   0  0  0  0  0  0  0  0  0
    2.0036   -4.0321    0.0000 O   0  0  0  0  0  0  0  0  0
    2.0036   -2.6032    0.0000 N   0  0  0  0  0  0  0  0  0
    5.2251   -2.4926    0.0000 C   0  0  0  0  0  0  0  0  0
    5.9396   -2.9051    0.0000 O   0  0  0  0  0  0  0  0  0
    5.9396   -3.7301    0.0000 C   0  0  0  0  0  0  0  0  0
    5.2251   -4.1426    0.0000 C   0  0  0  0  0  0  0  0  0
    5.2251   -1.6676    0.0000 C   0  0  0  0  0  0  0  0  0
    4.5107   -1.2551    0.0000 C   0  0  0  0  0  0  0  0  0
    4.5107   -0.4301    0.0000 N   0  0  0  0  0  0  0  0  0
    3.7962   -0.0176    0.0000 C   0  0  0  0  0  0  0  0  0
    3.7962    0.8074    0.0000 C   0  0  0  0  0  0  0  0  0
    4.5107    1.2199    0.0000 N   0  0  0  0  0  0  0  0  0
    5.2251    0.8074    0.0000 C   0  0  0  0  0  0  0  0  0
    5.2251   -0.0176    0.0000 C   0  0  0  0  0  0  0  0  0
    5.9396   -0.4301    0.0000 C   0  0  0  0  0  0  0  0  0
    4.5107    2.0449    0.0000 C   0  0  0  0  0  0  0  0  0
    5.2251    2.4574    0.0000 C   0  0  0  0  0  0  0  0  0
    5.2251    3.2824    0.0000 C   0  0  0  0  0  0  0  0  0
    5.9396    3.6949    0.0000 C   0  0  0  0  0  0  0  0  0
    6.6541    3.2824    0.0000 C   0  0  0  0  0  0  0  0  0
    7.3686    3.6949    0.0000 F   0  0  0  0  0  0  0  0  0
    6.6541    2.4574    0.0000 C   0  0  0  0  0  0  0  0  0
    5.9396    2.0449    0.0000 C   0  0  0  0  0  0  0  0  0
    4.5107    3.6949    0.0000 C   0  0  0  0  0  0  0  0  0
    3.7962    3.2824    0.0000 C   0  0  0  0  0  0  0  0  0
    3.7962    2.4574    0.0000 C   0  0  0  0  0  0  0  0  0
  1  2  1  0  0  0  0
  2  3  4  0  0  0  0
  2  6  4  0  0  0  0
  3  4  4  0  0  0  0
  3 13  1  0  0  0  0
  4  5  4  0  0  0  0
  4 10  1  0  0  0  0
  5  6  4  0  0  0  0
  6  7  1  0  0  0  0
  7  8  2  0  0  0  0
  7  9  1  0  0  0  0
 10 11  1  0  0  0  0
 10 14  1  0  0  0  0
 11 12  1  0  0  0  0
 12 13  1  0  0  0  0
 14 15  1  0  0  0  0
 15 16  1  0  0  0  0
 16 17  1  0  0  0  0
 16 21  1  0  0  0  0
 17 18  1  0  0  0  0
 18 19  1  0  0  0  0
 19 20  1  0  0  0  0
 19 23  1  0  0  0  0
 20 21  1  0  0  0  0
 21 22  1  0  0  0  0
 23 24  4  0  0  0  0
 23 33  4  0  0  0  0
 24 25  4  0  0  0  0
 24 30  4  0  0  0  0
 25 26  4  0  0  0  0
 25 31  4  0  0  0  0
 26 27  4  0  0  0  0
 27 28  1  0  0  0  0
 27 29  4  0  0  0  0
 29 30  4  0  0  0  0
 31 32  4  0  0  0  0
 32 33  4  0  0  0  0
M  END
>  <Name_Molregno>
331003

>  <5-HT1B>
6

>  <5-HT1D>
7.35

>  <Alpha-1A>
6.85

>  <Alpha-1B>
6.85

>  <DOPAMINE D2>
6.54

$$$$
332172
  Marvin  02231216192D 0   1.00000     0.00000     0

 32 34  0  0  0  0  0  0  0  0999 V2000
    2.8857   -2.0628    0.0000 Cl  0  0  0  0  0  0  0  0  0
    2.0607   -2.0628    0.0000 C   0  0  0  0  0  0  0  0  0
    1.6482   -2.7773    0.0000 C   0  0  0  0  0  0  0  0  0
    0.8232   -2.7773    0.0000 C   0  0  0  0  0  0  0  0  0
    0.4107   -2.0628    0.0000 C   0  0  0  0  0  0  0  0  0
    0.8232   -1.3484    0.0000 C   0  0  0  0  0  0  0  0  0
    1.6482   -1.3484    0.0000 C   0  0  0  0  0  0  0  0  0
    2.0607   -0.6339    0.0000 C   0  0  0  0  0  0  0  0  0
    2.8857   -0.6339    0.0000 O   0  0  0  0  0  0  0  0  0
    3.2982    0.0806    0.0000 C   0  0  0  0  0  0  0  0  0
    2.8857    0.7951    0.0000 C   0  0  0  0  0  0  0  0  0
    3.2982    1.5095    0.0000 C   0  0  0  0  0  0  0  0  0
    4.1232    1.5095    0.0000 C   0  0  0  0  0  0  0  0  0
    4.5357    0.7951    0.0000 C   0  0  0  0  0  0  0  0  0
    4.1232    0.0806    0.0000 C   0  0  0  0  0  0  0  0  0
    4.5357   -0.6339    0.0000 O   0  0  0  0  0  0  0  0  0
    4.1232   -1.3484    0.0000 C   0  0  0  0  0  0  0  0  0
    4.5357   -2.0628    0.0000 C   0  0  0  0  0  0  0  0  0
    5.3607   -2.0628    0.0000 N   0  0  0  0  0  0  0  0  0
    5.7732   -1.3484    0.0000 C   0  0  0  0  0  0  0  0  0
    6.5982   -1.3484    0.0000 C   0  0  0  0  0  0  0  0  0
    7.0107   -0.6339    0.0000 O   0  0  0  0  0  0  0  0  0
    7.8357   -0.6339    0.0000 C   0  0  0  0  0  0  0  0  0
    8.2482    0.0806    0.0000 C   0  0  0  0  0  0  0  0  0
    7.8357    0.7951    0.0000 O   0  0  0  0  0  0  0  0  0
    8.2482    1.5095    0.0000 C   0  0  0  0  0  0  0  0  0
    9.0732    0.0806    0.0000 C   0  0  0  0  0  0  0  0  0
    9.4857   -0.6339    0.0000 C   0  0  0  0  0  0  0  0  0
    9.0732   -1.3484    0.0000 C   0  0  0  0  0  0  0  0  0
    8.2482   -1.3484    0.0000 C   0  0  0  0  0  0  0  0  0
    7.8357   -2.0628    0.0000 O   0  0  0  0  0  0  0  0  0
    8.2482   -2.7773    0.0000 C   0  0  0  0  0  0  0  0  0
  1  2  1  0  0  0  0
  2  3  4  0  0  0  0
  2  7  4  0  0  0  0
  3  4  4  0  0  0  0
  4  5  4  0  0  0  0
  5  6  4  0  0  0  0
  6  7  4  0  0  0  0
  7  8  1  0  0  0  0
  8  9  1  0  0  0  0
  9 10  1  0  0  0  0
 10 11  4  0  0  0  0
 10 15  4  0  0  0  0
 11 12  4  0  0  0  0
 12 13  4  0  0  0  0
 13 14  4  0  0  0  0
 14 15  4  0  0  0  0
 15 16  1  0  0  0  0
 16 17  1  0  0  0  0
 17 18  1  0  0  0  0
 18 19  1  0  0  0  0
 19 20  1  0  0  0  0
 20 21  1  0  0  0  0
 21 22  1  0  0  0  0
 22 23  1  0  0  0  0
 23 24  4  0  0  0  0
 23 30  4  0  0  0  0
 24 25  1  0  0  0  0
 24 27  4  0  0  0  0
 25 26  1  0  0  0  0
 27 28  4  0  0  0  0
 28 29  4  0  0  0  0
 29 30  4  0  0  0  0
 30 31  1  0  0  0  0
 31 32  1  0  0  0  0
M  END
>  <Name_Molregno>
332172

>  <5-HT1A>
8.32

>  <Alpha-1A>
8.85

>  <Alpha-1B>
9.25

$$$$
332191
  Marvin  02231216192D 0   1.00000     0.00000     0

 32 34  0  0  0  0  0  0  0  0999 V2000
    0.4685   -1.6882    0.0000 Cl  0  0  0  0  0  0  0  0  0
    1.2935   -1.6882    0.0000 C   0  0  0  0  0  0  0  0  0
    1.7060   -0.9737    0.0000 C   0  0  0  0  0  0  0  0  0
    2.5310   -0.9737    0.0000 C   0  0  0  0  0  0  0  0  0
    2.9435   -1.6882    0.0000 C   0  0  0  0  0  0  0  0  0
    2.5310   -2.4026    0.0000 C   0  0  0  0  0  0  0  0  0
    1.7060   -2.4026    0.0000 C   0  0  0  0  0  0  0  0  0
    2.9435   -0.2592    0.0000 C   0  0  0  0  0  0  0  0  0
    3.7685   -0.2592    0.0000 O   0  0  0  0  0  0  0  0  0
    4.1810    0.4553    0.0000 C   0  0  0  0  0  0  0  0  0
    3.7685    1.1697    0.0000 C   0  0  0  0  0  0  0  0  0
    4.1810    1.8842    0.0000 C   0  0  0  0  0  0  0  0  0
    5.0060    1.8842    0.0000 C   0  0  0  0  0  0  0  0  0
    5.4185    1.1697    0.0000 C   0  0  0  0  0  0  0  0  0
    5.0060    0.4553    0.0000 C   0  0  0  0  0  0  0  0  0
    5.4185   -0.2592    0.0000 O   0  0  0  0  0  0  0  0  0
    5.0060   -0.9737    0.0000 C   0  0  0  0  0  0  0  0  0
    5.4185   -1.6882    0.0000 C   0  0  0  0  0  0  0  0  0
    6.2435   -1.6882    0.0000 N   0  0  0  0  0  0  0  0  0
    6.6560   -0.9737    0.0000 C   0  0  0  0  0  0  0  0  0
    7.4810   -0.9737    0.0000 C   0  0  0  0  0  0  0  0  0
    7.8935   -0.2592    0.0000 O   0  0  0  0  0  0  0  0  0
    8.7185   -0.2592    0.0000 C   0  0  0  0  0  0  0  0  0
    9.1310    0.4553    0.0000 C   0  0  0  0  0  0  0  0  0
    8.7185    1.1697    0.0000 O   0  0  0  0  0  0  0  0  0
    9.1310    1.8842    0.0000 C   0  0  0  0  0  0  0  0  0
    9.9560    0.4553    0.0000 C   0  0  0  0  0  0  0  0  0
   10.3685   -0.2592    0.0000 C   0  0  0  0  0  0  0  0  0
    9.9560   -0.9737    0.0000 C   0  0  0  0  0  0  0  0  0
    9.1310   -0.9737    0.0000 C   0  0  0  0  0  0  0  0  0
    8.7185   -1.6882    0.0000 O   0  0  0  0  0  0  0  0  0
    9.1310   -2.4026    0.0000 C   0  0  0  0  0  0  0  0  0
  1  2  1  0  0  0  0
  2  3  4  0  0  0  0
  2  7  4  0  0  0  0
  3  4  4  0  0  0  0
  4  5  4  0  0  0  0
  4  8  1  0  0  0  0
  5  6  4  0  0  0  0
  6  7  4  0  0  0  0
  8  9  1  0  0  0  0
  9 10  1  0  0  0  0
 10 11  4  0  0  0  0
 10 15  4  0  0  0  0
 11 12  4  0  0  0  0
 12 13  4  0  0  0  0
 13 14  4  0  0  0  0
 14 15  4  0  0  0  0
 15 16  1  0  0  0  0
 16 17  1  0  0  0  0
 17 18  1  0  0  0  0
 18 19  1  0  0  0  0
 19 20  1  0  0  0  0
 20 21  1  0  0  0  0
 21 22  1  0  0  0  0
 22 23  1  0  0  0  0
 23 24  4  0  0  0  0
 23 30  4  0  0  0  0
 24 25  1  0  0  0  0
 24 27  4  0  0  0  0
 25 26  1  0  0  0  0
 27 28  4  0  0  0  0
 28 29  4  0  0  0  0
 29 30  4  0  0  0  0
 30 31  1  0  0  0  0
 31 32  1  0  0  0  0
M  END
>  <Name_Molregno>
332191

>  <5-HT1A>
8.18

>  <Alpha-1A>
9.6

>  <Alpha-1B>
9.8

$$$$
332270
  Marvin  02231216192D 0   1.00000     0.00000     0

 32 34  0  0  0  0  0  0  0  0999 V2000
   -9.4847   -4.4576    0.0000 Cl  0  0  0  0  0  0  0  0  0
   -9.0722   -3.7431    0.0000 C   0  0  0  0  0  0  0  0  0
   -9.4847   -3.0286    0.0000 C   0  0  0  0  0  0  0  0  0
   -9.0722   -2.3141    0.0000 C   0  0  0  0  0  0  0  0  0
   -8.2472   -2.3141    0.0000 C   0  0  0  0  0  0  0  0  0
   -7.8347   -3.0286    0.0000 C   0  0  0  0  0  0  0  0  0
   -8.2472   -3.7431    0.0000 C   0  0  0  0  0  0  0  0  0
   -7.8347   -1.5997    0.0000 C   0  0  0  0  0  0  0  0  0
   -7.0097   -1.5997    0.0000 O   0  0  0  0  0  0  0  0  0
   -6.5972   -0.8852    0.0000 C   0  0  0  0  0  0  0  0  0
   -7.0097   -0.1707    0.0000 C   0  0  0  0  0  0  0  0  0
   -6.5972    0.5437    0.0000 C   0  0  0  0  0  0  0  0  0
   -5.7722    0.5437    0.0000 C   0  0  0  0  0  0  0  0  0
   -5.3597   -0.1707    0.0000 C   0  0  0  0  0  0  0  0  0
   -5.7722   -0.8852    0.0000 C   0  0  0  0  0  0  0  0  0
   -5.3597   -1.5997    0.0000 O   0  0  0  0  0  0  0  0  0
   -5.7722   -2.3141    0.0000 C   0  0  0  0  0  0  0  0  0
   -5.3597   -3.0286    0.0000 C   0  0  0  0  0  0  0  0  0
   -4.5347   -3.0286    0.0000 N   0  0  0  0  0  0  0  0  0
   -4.1222   -2.3141    0.0000 C   0  0  0  0  0  0  0  0  0
   -3.2972   -2.3141    0.0000 C   0  0  0  0  0  0  0  0  0
   -2.8847   -1.5997    0.0000 O   0  0  0  0  0  0  0  0  0
   -2.0597   -1.5997    0.0000 C   0  0  0  0  0  0  0  0  0
   -1.6472   -0.8852    0.0000 C   0  0  0  0  0  0  0  0  0
   -2.0597   -0.1707    0.0000 O   0  0  0  0  0  0  0  0  0
   -1.6472    0.5437    0.0000 C   0  0  0  0  0  0  0  0  0
   -0.8222   -0.8852    0.0000 C   0  0  0  0  0  0  0  0  0
   -0.4097   -1.5997    0.0000 C   0  0  0  0  0  0  0  0  0
   -0.8222   -2.3141    0.0000 C   0  0  0  0  0  0  0  0  0
   -1.6472   -2.3141    0.0000 C   0  0  0  0  0  0  0  0  0
   -2.0597   -3.0286    0.0000 O   0  0  0  0  0  0  0  0  0
   -1.6472   -3.7431    0.0000 C   0  0  0  0  0  0  0  0  0
  1  2  1  0  0  0  0
  2  3  4  0  0  0  0
  2  7  4  0  0  0  0
  3  4  4  0  0  0  0
  4  5  4  0  0  0  0
  5  6  4  0  0  0  0
  5  8  1  0  0  0  0
  6  7  4  0  0  0  0
  8  9  1  0  0  0  0
  9 10  1  0  0  0  0
 10 11  4  0  0  0  0
 10 15  4  0  0  0  0
 11 12  4  0  0  0  0
 12 13  4  0  0  0  0
 13 14  4  0  0  0  0
 14 15  4  0  0  0  0
 15 16  1  0  0  0  0
 16 17  1  0  0  0  0
 17 18  1  0  0  0  0
 18 19  1  0  0  0  0
 19 20  1  0  0  0  0
 20 21  1  0  0  0  0
 21 22  1  0  0  0  0
 22 23  1  0  0  0  0
 23 24  4  0  0  0  0
 23 30  4  0  0  0  0
 24 25  1  0  0  0  0
 24 27  4  0  0  0  0
 25 26  1  0  0  0  0
 27 28  4  0  0  0  0
 28 29  4  0  0  0  0
 29 30  4  0  0  0  0
 30 31  1  0  0  0  0
 31 32  1  0  0  0  0
M  END
>  <Name_Molregno>
332270

>  <5-HT1A>
7.81

>  <Alpha-1A>
9.6

>  <Alpha-1B>
9

$$$$
332651
  Marvin  02231216192D 0   1.00000     0.00000     0

 33 35  0  0  0  0  0  0  0  0999 V2000
   -6.3363   -1.3606    0.0000 O   0  0  0  0  0  0  0  0  0
   -5.6218   -0.9481    0.0000 C   0  0  0  0  0  0  0  0  0
   -4.9074   -1.3606    0.0000 C   0  0  0  0  0  0  0  0  0
   -4.1929   -0.9481    0.0000 N   0  0  0  0  0  0  0  0  0
   -3.4784   -1.3606    0.0000 C   0  0  0  0  0  0  0  0  0
   -2.7639   -0.9481    0.0000 C   0  0  0  0  0  0  0  0  0
   -2.0495   -1.3606    0.0000 O   0  0  0  0  0  0  0  0  0
   -1.3350   -0.9481    0.0000 C   0  0  0  0  0  0  0  0  0
   -1.3350   -0.1231    0.0000 C   0  0  0  0  0  0  0  0  0
   -0.6205    0.2894    0.0000 C   0  0  0  0  0  0  0  0  0
    0.0939   -0.1231    0.0000 C   0  0  0  0  0  0  0  0  0
    0.0939   -0.9481    0.0000 C   0  0  0  0  0  0  0  0  0
   -0.6205   -1.3606    0.0000 C   0  0  0  0  0  0  0  0  0
   -0.6205   -2.1856    0.0000 O   0  0  0  0  0  0  0  0  0
    0.0939   -2.5981    0.0000 C   0  0  0  0  0  0  0  0  0
    0.8084   -2.1856    0.0000 C   0  0  0  0  0  0  0  0  0
    0.8084   -1.3606    0.0000 C   0  0  0  0  0  0  0  0  0
    1.5229   -0.9481    0.0000 C   0  0  0  0  0  0  0  0  0
    2.2374   -1.3606    0.0000 C   0  0  0  0  0  0  0  0  0
    2.9518   -0.9481    0.0000 O   0  0  0  0  0  0  0  0  0
    3.6663   -1.3606    0.0000 C   0  0  0  0  0  0  0  0  0
    2.2374   -2.1856    0.0000 C   0  0  0  0  0  0  0  0  0
    1.5229   -2.5981    0.0000 C   0  0  0  0  0  0  0  0  0
   -7.0508   -0.9481    0.0000 C   0  0  0  0  0  0  0  0  0
   -7.7652   -1.3606    0.0000 C   0  0  0  0  0  0  0  0  0
   -7.7652   -2.1856    0.0000 O   0  0  0  0  0  0  0  0  0
   -8.4797   -2.5981    0.0000 C   0  0  0  0  0  0  0  0  0
   -8.4797   -0.9481    0.0000 C   0  0  0  0  0  0  0  0  0
   -8.4797   -0.1231    0.0000 C   0  0  0  0  0  0  0  0  0
   -7.7652    0.2894    0.0000 C   0  0  0  0  0  0  0  0  0
   -7.0508   -0.1231    0.0000 C   0  0  0  0  0  0  0  0  0
   -6.3363    0.2894    0.0000 O   0  0  0  0  0  0  0  0  0
   -6.3363    1.1144    0.0000 C   0  0  0  0  0  0  0  0  0
  1  2  1  0  0  0  0
  1 24  1  0  0  0  0
  2  3  1  0  0  0  0
  3  4  1  0  0  0  0
  4  5  1  0  0  0  0
  5  6  1  0  0  0  0
  6  7  1  0  0  0  0
  7  8  1  0  0  0  0
  8  9  4  0  0  0  0
  8 13  4  0  0  0  0
  9 10  4  0  0  0  0
 10 11  4  0  0  0  0
 11 12  4  0  0  0  0
 12 13  4  0  0  0  0
 13 14  1  0  0  0  0
 14 15  1  0  0  0  0
 15 16  1  0  0  0  0
 16 17  4  0  0  0  0
 16 23  4  0  0  0  0
 17 18  4  0  0  0  0
 18 19  4  0  0  0  0
 19 20  1  0  0  0  0
 19 22  4  0  0  0  0
 20 21  1  0  0  0  0
 22 23  4  0  0  0  0
 24 25  4  0  0  0  0
 24 31  4  0  0  0  0
 25 26  1  0  0  0  0
 25 28  4  0  0  0  0
 26 27  1  0  0  0  0
 28 29  4  0  0  0  0
 29 30  4  0  0  0  0
 30 31  4  0  0  0  0
 31 32  1  0  0  0  0
 32 33  1  0  0  0  0
M  END
>  <Name_Molregno>
332651

>  <5-HT1A>
7.76

>  <Alpha-1A>
8.7

>  <Alpha-1B>
9.4

$$$$
332714
  Marvin  02231216192D 0   1.00000     0.00000     0

 32 34  0  0  0  0  0  0  0  0999 V2000
   -5.9259   -1.5240    0.0000 O   0  0  0  0  0  0  0  0  0
   -5.2114   -1.1115    0.0000 C   0  0  0  0  0  0  0  0  0
   -4.4969   -1.5240    0.0000 C   0  0  0  0  0  0  0  0  0
   -3.7825   -1.1115    0.0000 N   0  0  0  0  0  0  0  0  0
   -3.0680   -1.5240    0.0000 C   0  0  0  0  0  0  0  0  0
   -2.3535   -1.1115    0.0000 C   0  0  0  0  0  0  0  0  0
   -1.6390   -1.5240    0.0000 O   0  0  0  0  0  0  0  0  0
   -0.9246   -1.1115    0.0000 C   0  0  0  0  0  0  0  0  0
   -0.9246   -0.2865    0.0000 C   0  0  0  0  0  0  0  0  0
   -0.2101    0.1260    0.0000 C   0  0  0  0  0  0  0  0  0
    0.5044   -0.2865    0.0000 C   0  0  0  0  0  0  0  0  0
    0.5044   -1.1115    0.0000 C   0  0  0  0  0  0  0  0  0
   -0.2101   -1.5240    0.0000 C   0  0  0  0  0  0  0  0  0
   -0.2101   -2.3490    0.0000 O   0  0  0  0  0  0  0  0  0
    0.5044   -2.7615    0.0000 C   0  0  0  0  0  0  0  0  0
    1.2188   -2.3490    0.0000 C   0  0  0  0  0  0  0  0  0
    1.2188   -1.5240    0.0000 C   0  0  0  0  0  0  0  0  0
    1.9333   -1.1115    0.0000 C   0  0  0  0  0  0  0  0  0
    2.6478   -1.5240    0.0000 C   0  0  0  0  0  0  0  0  0
    2.6478   -2.3490    0.0000 C   0  0  0  0  0  0  0  0  0
    1.9333   -2.7615    0.0000 C   0  0  0  0  0  0  0  0  0
    1.9333   -0.2865    0.0000 C   0  0  0  0  0  0  0  0  0
   -6.6403   -1.1115    0.0000 C   0  0  0  0  0  0  0  0  0
   -7.3548   -1.5240    0.0000 C   0  0  0  0  0  0  0  0  0
   -7.3548   -2.3490    0.0000 O   0  0  0  0  0  0  0  0  0
   -8.0693   -2.7615    0.0000 C   0  0  0  0  0  0  0  0  0
   -8.0693   -1.1115    0.0000 C   0  0  0  0  0  0  0  0  0
   -8.0693   -0.2865    0.0000 C   0  0  0  0  0  0  0  0  0
   -7.3548    0.1260    0.0000 C   0  0  0  0  0  0  0  0  0
   -6.6403   -0.2865    0.0000 C   0  0  0  0  0  0  0  0  0
   -5.9259    0.1260    0.0000 O   0  0  0  0  0  0  0  0  0
   -5.9259    0.9510    0.0000 C   0  0  0  0  0  0  0  0  0
  1  2  1  0  0  0  0
  1 23  1  0  0  0  0
  2  3  1  0  0  0  0
  3  4  1  0  0  0  0
  4  5  1  0  0  0  0
  5  6  1  0  0  0  0
  6  7  1  0  0  0  0
  7  8  1  0  0  0  0
  8  9  4  0  0  0  0
  8 13  4  0  0  0  0
  9 10  4  0  0  0  0
 10 11  4  0  0  0  0
 11 12  4  0  0  0  0
 12 13  4  0  0  0  0
 13 14  1  0  0  0  0
 14 15  1  0  0  0  0
 15 16  1  0  0  0  0
 16 17  4  0  0  0  0
 16 21  4  0  0  0  0
 17 18  4  0  0  0  0
 18 19  4  0  0  0  0
 18 22  1  0  0  0  0
 19 20  4  0  0  0  0
 20 21  4  0  0  0  0
 23 24  4  0  0  0  0
 23 30  4  0  0  0  0
 24 25  1  0  0  0  0
 24 27  4  0  0  0  0
 25 26  1  0  0  0  0
 27 28  4  0  0  0  0
 28 29  4  0  0  0  0
 29 30  4  0  0  0  0
 30 31  1  0  0  0  0
 31 32  1  0  0  0  0
M  END
>  <Name_Molregno>
332714

>  <5-HT1A>
7.74

>  <Alpha-1A>
9.4

>  <Alpha-1B>
9.6

$$$$
332722
  Marvin  02231216192D 0   1.00000     0.00000     0

 33 35  0  0  0  0  0  0  0  0999 V2000
   -0.6049   -1.4098    0.0000 O   0  0  0  0  0  0  0  0  0
    0.1096   -0.9973    0.0000 C   0  0  0  0  0  0  0  0  0
    0.8241   -1.4098    0.0000 C   0  0  0  0  0  0  0  0  0
    1.5385   -0.9973    0.0000 N   0  0  0  0  0  0  0  0  0
    2.2530   -1.4098    0.0000 C   0  0  0  0  0  0  0  0  0
    2.9675   -0.9973    0.0000 C   0  0  0  0  0  0  0  0  0
    3.6819   -1.4098    0.0000 O   0  0  0  0  0  0  0  0  0
    4.3964   -0.9973    0.0000 C   0  0  0  0  0  0  0  0  0
    4.3964   -0.1723    0.0000 C   0  0  0  0  0  0  0  0  0
    5.1109    0.2402    0.0000 C   0  0  0  0  0  0  0  0  0
    5.8253   -0.1723    0.0000 C   0  0  0  0  0  0  0  0  0
    5.8253   -0.9973    0.0000 C   0  0  0  0  0  0  0  0  0
    5.1109   -1.4098    0.0000 C   0  0  0  0  0  0  0  0  0
    5.1109   -2.2348    0.0000 O   0  0  0  0  0  0  0  0  0
    5.8253   -2.6473    0.0000 C   0  0  0  0  0  0  0  0  0
    6.5398   -2.2348    0.0000 C   0  0  0  0  0  0  0  0  0
    6.5398   -1.4098    0.0000 C   0  0  0  0  0  0  0  0  0
    7.2543   -0.9973    0.0000 C   0  0  0  0  0  0  0  0  0
    7.9688   -1.4098    0.0000 C   0  0  0  0  0  0  0  0  0
    7.9688   -2.2348    0.0000 C   0  0  0  0  0  0  0  0  0
    7.2543   -2.6473    0.0000 C   0  0  0  0  0  0  0  0  0
    7.2543   -3.4723    0.0000 O   0  0  0  0  0  0  0  0  0
    7.9688   -3.8848    0.0000 C   0  0  0  0  0  0  0  0  0
   -1.3194   -0.9973    0.0000 C   0  0  0  0  0  0  0  0  0
   -2.0338   -1.4098    0.0000 C   0  0  0  0  0  0  0  0  0
   -2.0338   -2.2348    0.0000 O   0  0  0  0  0  0  0  0  0
   -2.7483   -2.6473    0.0000 C   0  0  0  0  0  0  0  0  0
   -2.7483   -0.9973    0.0000 C   0  0  0  0  0  0  0  0  0
   -2.7483   -0.1723    0.0000 C   0  0  0  0  0  0  0  0  0
   -2.0338    0.2402    0.0000 C   0  0  0  0  0  0  0  0  0
   -1.3194   -0.1723    0.0000 C   0  0  0  0  0  0  0  0  0
   -0.6049    0.2402    0.0000 O   0  0  0  0  0  0  0  0  0
   -0.6049    1.0652    0.0000 C   0  0  0  0  0  0  0  0  0
  1  2  1  0  0  0  0
  1 24  1  0  0  0  0
  2  3  1  0  0  0  0
  3  4  1  0  0  0  0
  4  5  1  0  0  0  0
  5  6  1  0  0  0  0
  6  7  1  0  0  0  0
  7  8  1  0  0  0  0
  8  9  4  0  0  0  0
  8 13  4  0  0  0  0
  9 10  4  0  0  0  0
 10 11  4  0  0  0  0
 11 12  4  0  0  0  0
 12 13  4  0  0  0  0
 13 14  1  0  0  0  0
 14 15  1  0  0  0  0
 15 16  1  0  0  0  0
 16 17  4  0  0  0  0
 16 21  4  0  0  0  0
 17 18  4  0  0  0  0
 18 19  4  0  0  0  0
 19 20  4  0  0  0  0
 20 21  4  0  0  0  0
 21 22  1  0  0  0  0
 22 23  1  0  0  0  0
 24 25  4  0  0  0  0
 24 31  4  0  0  0  0
 25 26  1  0  0  0  0
 25 28  4  0  0  0  0
 26 27  1  0  0  0  0
 28 29  4  0  0  0  0
 29 30  4  0  0  0  0
 30 31  4  0  0  0  0
 31 32  1  0  0  0  0
 32 33  1  0  0  0  0
M  END
>  <Name_Molregno>
332722

>  <5-HT1A>
7.63

>  <Alpha-1A>
8.7

>  <Alpha-1B>
8.2

$$$$
332729
  Marvin  02231216192D 0   1.00000     0.00000     0

 33 35  0  0  0  0  0  0  0  0999 V2000
   -0.5540   -1.4959    0.0000 O   0  0  0  0  0  0  0  0  0
    0.1605   -1.0834    0.0000 C   0  0  0  0  0  0  0  0  0
    0.8749   -1.4959    0.0000 C   0  0  0  0  0  0  0  0  0
    1.5894   -1.0834    0.0000 N   0  0  0  0  0  0  0  0  0
    2.3039   -1.4959    0.0000 C   0  0  0  0  0  0  0  0  0
    3.0184   -1.0834    0.0000 C   0  0  0  0  0  0  0  0  0
    3.7328   -1.4959    0.0000 O   0  0  0  0  0  0  0  0  0
    4.4473   -1.0834    0.0000 C   0  0  0  0  0  0  0  0  0
    4.4473   -0.2584    0.0000 C   0  0  0  0  0  0  0  0  0
    5.1618    0.1541    0.0000 C   0  0  0  0  0  0  0  0  0
    5.8762   -0.2584    0.0000 C   0  0  0  0  0  0  0  0  0
    5.8762   -1.0834    0.0000 C   0  0  0  0  0  0  0  0  0
    5.1618   -1.4959    0.0000 C   0  0  0  0  0  0  0  0  0
    5.1618   -2.3209    0.0000 O   0  0  0  0  0  0  0  0  0
    5.8762   -2.7334    0.0000 C   0  0  0  0  0  0  0  0  0
    6.5907   -2.3209    0.0000 C   0  0  0  0  0  0  0  0  0
    6.5907   -1.4959    0.0000 C   0  0  0  0  0  0  0  0  0
    7.3052   -1.0834    0.0000 C   0  0  0  0  0  0  0  0  0
    7.3052   -0.2584    0.0000 O   0  0  0  0  0  0  0  0  0
    8.0197    0.1541    0.0000 C   0  0  0  0  0  0  0  0  0
    8.0197   -1.4959    0.0000 C   0  0  0  0  0  0  0  0  0
    8.0197   -2.3209    0.0000 C   0  0  0  0  0  0  0  0  0
    7.3052   -2.7334    0.0000 C   0  0  0  0  0  0  0  0  0
   -1.2685   -1.0834    0.0000 C   0  0  0  0  0  0  0  0  0
   -1.9829   -1.4959    0.0000 C   0  0  0  0  0  0  0  0  0
   -1.9829   -2.3209    0.0000 O   0  0  0  0  0  0  0  0  0
   -2.6974   -2.7334    0.0000 C   0  0  0  0  0  0  0  0  0
   -2.6974   -1.0834    0.0000 C   0  0  0  0  0  0  0  0  0
   -2.6974   -0.2584    0.0000 C   0  0  0  0  0  0  0  0  0
   -1.9829    0.1541    0.0000 C   0  0  0  0  0  0  0  0  0
   -1.2685   -0.2584    0.0000 C   0  0  0  0  0  0  0  0  0
   -0.5540    0.1541    0.0000 O   0  0  0  0  0  0  0  0  0
   -0.5540    0.9791    0.0000 C   0  0  0  0  0  0  0  0  0
  1  2  1  0  0  0  0
  1 24  1  0  0  0  0
  2  3  1  0  0  0  0
  3  4  1  0  0  0  0
  4  5  1  0  0  0  0
  5  6  1  0  0  0  0
  6  7  1  0  0  0  0
  7  8  1  0  0  0  0
  8  9  4  0  0  0  0
  8 13  4  0  0  0  0
  9 10  4  0  0  0  0
 10 11  4  0  0  0  0
 11 12  4  0  0  0  0
 12 13  4  0  0  0  0
 13 14  1  0  0  0  0
 14 15  1  0  0  0  0
 15 16  1  0  0  0  0
 16 17  4  0  0  0  0
 16 23  4  0  0  0  0
 17 18  4  0  0  0  0
 18 19  1  0  0  0  0
 18 21  4  0  0  0  0
 19 20  1  0  0  0  0
 21 22  4  0  0  0  0
 22 23  4  0  0  0  0
 24 25  4  0  0  0  0
 24 31  4  0  0  0  0
 25 26  1  0  0  0  0
 25 28  4  0  0  0  0
 26 27  1  0  0  0  0
 28 29  4  0  0  0  0
 29 30  4  0  0  0  0
 30 31  4  0  0  0  0
 31 32  1  0  0  0  0
 32 33  1  0  0  0  0
M  END
>  <Name_Molregno>
332729

>  <5-HT1A>
7.51

>  <Alpha-1A>
8.7

>  <Alpha-1B>
8.7

$$$$
332754
  Marvin  02231216192D 0   1.00000     0.00000     0

 32 34  0  0  0  0  0  0  0  0999 V2000
   -5.9123   -1.4387    0.0000 O   0  0  0  0  0  0  0  0  0
   -5.1978   -1.0262    0.0000 C   0  0  0  0  0  0  0  0  0
   -4.4834   -1.4387    0.0000 C   0  0  0  0  0  0  0  0  0
   -3.7689   -1.0262    0.0000 N   0  0  0  0  0  0  0  0  0
   -3.0544   -1.4387    0.0000 C   0  0  0  0  0  0  0  0  0
   -2.3399   -1.0262    0.0000 C   0  0  0  0  0  0  0  0  0
   -1.6255   -1.4387    0.0000 O   0  0  0  0  0  0  0  0  0
   -0.9110   -1.0262    0.0000 C   0  0  0  0  0  0  0  0  0
   -0.9110   -0.2012    0.0000 C   0  0  0  0  0  0  0  0  0
   -0.1965    0.2113    0.0000 C   0  0  0  0  0  0  0  0  0
    0.5179   -0.2012    0.0000 C   0  0  0  0  0  0  0  0  0
    0.5179   -1.0262    0.0000 C   0  0  0  0  0  0  0  0  0
   -0.1965   -1.4387    0.0000 C   0  0  0  0  0  0  0  0  0
   -0.1965   -2.2637    0.0000 O   0  0  0  0  0  0  0  0  0
    0.5179   -2.6762    0.0000 C   0  0  0  0  0  0  0  0  0
    1.2324   -2.2637    0.0000 C   0  0  0  0  0  0  0  0  0
    1.2324   -1.4387    0.0000 C   0  0  0  0  0  0  0  0  0
    1.9469   -1.0262    0.0000 C   0  0  0  0  0  0  0  0  0
    2.6614   -1.4387    0.0000 C   0  0  0  0  0  0  0  0  0
    2.6614   -2.2637    0.0000 C   0  0  0  0  0  0  0  0  0
    1.9469   -2.6762    0.0000 C   0  0  0  0  0  0  0  0  0
    1.9469   -3.5012    0.0000 C   0  0  0  0  0  0  0  0  0
   -6.6268   -1.0262    0.0000 C   0  0  0  0  0  0  0  0  0
   -7.3412   -1.4387    0.0000 C   0  0  0  0  0  0  0  0  0
   -7.3412   -2.2637    0.0000 O   0  0  0  0  0  0  0  0  0
   -8.0557   -2.6762    0.0000 C   0  0  0  0  0  0  0  0  0
   -8.0557   -1.0262    0.0000 C   0  0  0  0  0  0  0  0  0
   -8.0557   -0.2012    0.0000 C   0  0  0  0  0  0  0  0  0
   -7.3412    0.2113    0.0000 C   0  0  0  0  0  0  0  0  0
   -6.6268   -0.2012    0.0000 C   0  0  0  0  0  0  0  0  0
   -5.9123    0.2113    0.0000 O   0  0  0  0  0  0  0  0  0
   -5.9123    1.0363    0.0000 C   0  0  0  0  0  0  0  0  0
  1  2  1  0  0  0  0
  1 23  1  0  0  0  0
  2  3  1  0  0  0  0
  3  4  1  0  0  0  0
  4  5  1  0  0  0  0
  5  6  1  0  0  0  0
  6  7  1  0  0  0  0
  7  8  1  0  0  0  0
  8  9  4  0  0  0  0
  8 13  4  0  0  0  0
  9 10  4  0  0  0  0
 10 11  4  0  0  0  0
 11 12  4  0  0  0  0
 12 13  4  0  0  0  0
 13 14  1  0  0  0  0
 14 15  1  0  0  0  0
 15 16  1  0  0  0  0
 16 17  4  0  0  0  0
 16 21  4  0  0  0  0
 17 18  4  0  0  0  0
 18 19  4  0  0  0  0
 19 20  4  0  0  0  0
 20 21  4  0  0  0  0
 21 22  1  0  0  0  0
 23 24  4  0  0  0  0
 23 30  4  0  0  0  0
 24 25  1  0  0  0  0
 24 27  4  0  0  0  0
 25 26  1  0  0  0  0
 27 28  4  0  0  0  0
 28 29  4  0  0  0  0
 29 30  4  0  0  0  0
 30 31  1  0  0  0  0
 31 32  1  0  0  0  0
M  END
>  <Name_Molregno>
332754

>  <5-HT1A>
7.95

>  <Alpha-1A>
8.8

>  <Alpha-1B>
9.1

$$$$
332825
  Marvin  02231216192D 0   1.00000     0.00000     0

 34 36  0  0  0  0  0  0  0  0999 V2000
   -0.5025   -1.5787    0.0000 O   0  0  0  0  0  0  0  0  0
    0.2119   -1.1662    0.0000 C   0  0  0  0  0  0  0  0  0
    0.9264   -1.5787    0.0000 C   0  0  0  0  0  0  0  0  0
    1.6409   -1.1662    0.0000 N   0  0  0  0  0  0  0  0  0
    2.3554   -1.5787    0.0000 C   0  0  0  0  0  0  0  0  0
    3.0698   -1.1662    0.0000 C   0  0  0  0  0  0  0  0  0
    3.7843   -1.5787    0.0000 O   0  0  0  0  0  0  0  0  0
    4.4988   -1.1662    0.0000 C   0  0  0  0  0  0  0  0  0
    4.4988   -0.3412    0.0000 C   0  0  0  0  0  0  0  0  0
    5.2132    0.0713    0.0000 C   0  0  0  0  0  0  0  0  0
    5.9277   -0.3412    0.0000 C   0  0  0  0  0  0  0  0  0
    5.9277   -1.1662    0.0000 C   0  0  0  0  0  0  0  0  0
    5.2132   -1.5787    0.0000 C   0  0  0  0  0  0  0  0  0
    5.2132   -2.4037    0.0000 O   0  0  0  0  0  0  0  0  0
    5.9277   -2.8162    0.0000 C   0  0  0  0  0  0  0  0  0
    6.6422   -2.4037    0.0000 C   0  0  0  0  0  0  0  0  0
    6.6422   -1.5787    0.0000 C   0  0  0  0  0  0  0  0  0
    7.3566   -1.1662    0.0000 C   0  0  0  0  0  0  0  0  0
    7.3566   -0.3412    0.0000 N   0  3  0  0  0  0  0  0  0
    8.0711    0.0713    0.0000 O   0  5  0  0  0  0  0  0  0
    6.6422    0.0713    0.0000 O   0  5  0  0  0  0  0  0  0
    8.0711   -1.5787    0.0000 C   0  0  0  0  0  0  0  0  0
    8.0711   -2.4037    0.0000 C   0  0  0  0  0  0  0  0  0
    7.3566   -2.8162    0.0000 C   0  0  0  0  0  0  0  0  0
   -1.2170   -1.1662    0.0000 C   0  0  0  0  0  0  0  0  0
   -1.9315   -1.5787    0.0000 C   0  0  0  0  0  0  0  0  0
   -1.9315   -2.4037    0.0000 O   0  0  0  0  0  0  0  0  0
   -2.6459   -2.8162    0.0000 C   0  0  0  0  0  0  0  0  0
   -2.6459   -1.1662    0.0000 C   0  0  0  0  0  0  0  0  0
   -2.6459   -0.3412    0.0000 C   0  0  0  0  0  0  0  0  0
   -1.9315    0.0713    0.0000 C   0  0  0  0  0  0  0  0  0
   -1.2170   -0.3412    0.0000 C   0  0  0  0  0  0  0  0  0
   -0.5025    0.0713    0.0000 O   0  0  0  0  0  0  0  0  0
   -0.5025    0.8963    0.0000 C   0  0  0  0  0  0  0  0  0
  1  2  1  0  0  0  0
  1 25  1  0  0  0  0
  2  3  1  0  0  0  0
  3  4  1  0  0  0  0
  4  5  1  0  0  0  0
  5  6  1  0  0  0  0
  6  7  1  0  0  0  0
  7  8  1  0  0  0  0
  8  9  4  0  0  0  0
  8 13  4  0  0  0  0
  9 10  4  0  0  0  0
 10 11  4  0  0  0  0
 11 12  4  0  0  0  0
 12 13  4  0  0  0  0
 13 14  1  0  0  0  0
 14 15  1  0  0  0  0
 15 16  1  0  0  0  0
 16 17  4  0  0  0  0
 16 24  4  0  0  0  0
 17 18  4  0  0  0  0
 18 19  1  0  0  0  0
 18 22  4  0  0  0  0
 19 20  1  0  0  0  0
 19 21  1  0  0  0  0
 22 23  4  0  0  0  0
 23 24  4  0  0  0  0
 25 26  4  0  0  0  0
 25 32  4  0  0  0  0
 26 27  1  0  0  0  0
 26 29  4  0  0  0  0
 27 28  1  0  0  0  0
 29 30  4  0  0  0  0
 30 31  4  0  0  0  0
 31 32  4  0  0  0  0
 32 33  1  0  0  0  0
 33 34  1  0  0  0  0
M  CHG  3  19   1  20  -1  21  -1
M  END
>  <Name_Molregno>
332825

>  <5-HT1A>
7.68

>  <Alpha-1A>
9.5

>  <Alpha-1B>
9.1

$$$$
332833
  Marvin  02231216192D 0   1.00000     0.00000     0

 34 36  0  0  0  0  0  0  0  0999 V2000
   -6.6336   -1.3213    0.0000 O   0  0  0  0  0  0  0  0  0
   -5.9191   -0.9088    0.0000 C   0  0  0  0  0  0  0  0  0
   -5.2047   -1.3213    0.0000 C   0  0  0  0  0  0  0  0  0
   -4.4902   -0.9088    0.0000 N   0  0  0  0  0  0  0  0  0
   -3.7757   -1.3213    0.0000 C   0  0  0  0  0  0  0  0  0
   -3.0613   -0.9088    0.0000 C   0  0  0  0  0  0  0  0  0
   -2.3468   -1.3213    0.0000 O   0  0  0  0  0  0  0  0  0
   -1.6323   -0.9088    0.0000 C   0  0  0  0  0  0  0  0  0
   -1.6323   -0.0838    0.0000 C   0  0  0  0  0  0  0  0  0
   -0.9178    0.3287    0.0000 C   0  0  0  0  0  0  0  0  0
   -0.2034   -0.0838    0.0000 C   0  0  0  0  0  0  0  0  0
   -0.2034   -0.9088    0.0000 C   0  0  0  0  0  0  0  0  0
   -0.9178   -1.3213    0.0000 C   0  0  0  0  0  0  0  0  0
   -0.9178   -2.1463    0.0000 O   0  0  0  0  0  0  0  0  0
   -0.2034   -2.5588    0.0000 C   0  0  0  0  0  0  0  0  0
    0.5111   -2.1463    0.0000 C   0  0  0  0  0  0  0  0  0
    0.5111   -1.3213    0.0000 C   0  0  0  0  0  0  0  0  0
    1.2256   -0.9088    0.0000 C   0  0  0  0  0  0  0  0  0
    1.9400   -1.3213    0.0000 C   0  0  0  0  0  0  0  0  0
    2.6545   -0.9088    0.0000 N   0  3  0  0  0  0  0  0  0
    3.3690   -1.3213    0.0000 O   0  5  0  0  0  0  0  0  0
    2.6545   -0.0838    0.0000 O   0  5  0  0  0  0  0  0  0
    1.9400   -2.1463    0.0000 C   0  0  0  0  0  0  0  0  0
    1.2256   -2.5588    0.0000 C   0  0  0  0  0  0  0  0  0
   -7.3481   -0.9088    0.0000 C   0  0  0  0  0  0  0  0  0
   -8.0625   -1.3213    0.0000 C   0  0  0  0  0  0  0  0  0
   -8.0625   -2.1463    0.0000 O   0  0  0  0  0  0  0  0  0
   -8.7770   -2.5588    0.0000 C   0  0  0  0  0  0  0  0  0
   -8.7770   -0.9088    0.0000 C   0  0  0  0  0  0  0  0  0
   -8.7770   -0.0838    0.0000 C   0  0  0  0  0  0  0  0  0
   -8.0625    0.3287    0.0000 C   0  0  0  0  0  0  0  0  0
   -7.3481   -0.0838    0.0000 C   0  0  0  0  0  0  0  0  0
   -6.6336    0.3287    0.0000 O   0  0  0  0  0  0  0  0  0
   -6.6336    1.1537    0.0000 C   0  0  0  0  0  0  0  0  0
  1  2  1  0  0  0  0
  1 25  1  0  0  0  0
  2  3  1  0  0  0  0
  3  4  1  0  0  0  0
  4  5  1  0  0  0  0
  5  6  1  0  0  0  0
  6  7  1  0  0  0  0
  7  8  1  0  0  0  0
  8  9  4  0  0  0  0
  8 13  4  0  0  0  0
  9 10  4  0  0  0  0
 10 11  4  0  0  0  0
 11 12  4  0  0  0  0
 12 13  4  0  0  0  0
 13 14  1  0  0  0  0
 14 15  1  0  0  0  0
 15 16  1  0  0  0  0
 16 17  4  0  0  0  0
 16 24  4  0  0  0  0
 17 18  4  0  0  0  0
 18 19  4  0  0  0  0
 19 20  1  0  0  0  0
 19 23  4  0  0  0  0
 20 21  1  0  0  0  0
 20 22  1  0  0  0  0
 23 24  4  0  0  0  0
 25 26  4  0  0  0  0
 25 32  4  0  0  0  0
 26 27  1  0  0  0  0
 26 29  4  0  0  0  0
 27 28  1  0  0  0  0
 29 30  4  0  0  0  0
 30 31  4  0  0  0  0
 31 32  4  0  0  0  0
 32 33  1  0  0  0  0
 33 34  1  0  0  0  0
M  CHG  3  20   1  21  -1  22  -1
M  END
>  <Name_Molregno>
332833

>  <5-HT1A>
7.93

>  <Alpha-1A>
8.9

>  <Alpha-1B>
9.4

$$$$
332905
  Marvin  02231216192D 0   1.00000     0.00000     0

 32 34  0  0  0  0  0  0  0  0999 V2000
   -5.9529   -1.4380    0.0000 O   0  0  0  0  0  0  0  0  0
   -5.2384   -1.0255    0.0000 C   0  0  0  0  0  0  0  0  0
   -4.5240   -1.4380    0.0000 C   0  0  0  0  0  0  0  0  0
   -3.8095   -1.0255    0.0000 N   0  0  0  0  0  0  0  0  0
   -3.0950   -1.4380    0.0000 C   0  0  0  0  0  0  0  0  0
   -2.3806   -1.0255    0.0000 C   0  0  0  0  0  0  0  0  0
   -1.6661   -1.4380    0.0000 O   0  0  0  0  0  0  0  0  0
   -0.9516   -1.0255    0.0000 C   0  0  0  0  0  0  0  0  0
   -0.9516   -0.2005    0.0000 C   0  0  0  0  0  0  0  0  0
   -0.2371    0.2120    0.0000 C   0  0  0  0  0  0  0  0  0
    0.4773   -0.2005    0.0000 C   0  0  0  0  0  0  0  0  0
    0.4773   -1.0255    0.0000 C   0  0  0  0  0  0  0  0  0
   -0.2371   -1.4380    0.0000 C   0  0  0  0  0  0  0  0  0
   -0.2371   -2.2630    0.0000 O   0  0  0  0  0  0  0  0  0
    0.4773   -2.6755    0.0000 C   0  0  0  0  0  0  0  0  0
    1.1918   -2.2630    0.0000 C   0  0  0  0  0  0  0  0  0
    1.1918   -1.4380    0.0000 C   0  0  0  0  0  0  0  0  0
    1.9063   -1.0255    0.0000 C   0  0  0  0  0  0  0  0  0
    2.6207   -1.4380    0.0000 C   0  0  0  0  0  0  0  0  0
    2.6207   -2.2630    0.0000 C   0  0  0  0  0  0  0  0  0
    1.9063   -2.6755    0.0000 C   0  0  0  0  0  0  0  0  0
    3.3352   -1.0255    0.0000 C   0  0  0  0  0  0  0  0  0
   -6.6674   -1.0255    0.0000 C   0  0  0  0  0  0  0  0  0
   -7.3819   -1.4380    0.0000 C   0  0  0  0  0  0  0  0  0
   -7.3819   -2.2630    0.0000 O   0  0  0  0  0  0  0  0  0
   -8.0963   -2.6755    0.0000 C   0  0  0  0  0  0  0  0  0
   -8.0963   -1.0255    0.0000 C   0  0  0  0  0  0  0  0  0
   -8.0963   -0.2005    0.0000 C   0  0  0  0  0  0  0  0  0
   -7.3819    0.2120    0.0000 C   0  0  0  0  0  0  0  0  0
   -6.6674   -0.2005    0.0000 C   0  0  0  0  0  0  0  0  0
   -5.9529    0.2120    0.0000 O   0  0  0  0  0  0  0  0  0
   -5.9529    1.0370    0.0000 C   0  0  0  0  0  0  0  0  0
  1  2  1  0  0  0  0
  1 23  1  0  0  0  0
  2  3  1  0  0  0  0
  3  4  1  0  0  0  0
  4  5  1  0  0  0  0
  5  6  1  0  0  0  0
  6  7  1  0  0  0  0
  7  8  1  0  0  0  0
  8  9  4  0  0  0  0
  8 13  4  0  0  0  0
  9 10  4  0  0  0  0
 10 11  4  0  0  0  0
 11 12  4  0  0  0  0
 12 13  4  0  0  0  0
 13 14  1  0  0  0  0
 14 15  1  0  0  0  0
 15 16  1  0  0  0  0
 16 17  4  0  0  0  0
 16 21  4  0  0  0  0
 17 18  4  0  0  0  0
 18 19  4  0  0  0  0
 19 20  4  0  0  0  0
 19 22  1  0  0  0  0
 20 21  4  0  0  0  0
 23 24  4  0  0  0  0
 23 30  4  0  0  0  0
 24 25  1  0  0  0  0
 24 27  4  0  0  0  0
 25 26  1  0  0  0  0
 27 28  4  0  0  0  0
 28 29  4  0  0  0  0
 29 30  4  0  0  0  0
 30 31  1  0  0  0  0
 31 32  1  0  0  0  0
M  END
>  <Name_Molregno>
332905

>  <5-HT1A>
7.65

>  <Alpha-1A>
8.7

>  <Alpha-1B>
9.6

$$$$
332906
  Marvin  02231216192D 0   1.00000     0.00000     0

 34 36  0  0  0  0  0  0  0  0999 V2000
   -6.4826   -1.3631    0.0000 O   0  0  0  0  0  0  0  0  0
   -5.7681   -0.9506    0.0000 C   0  0  0  0  0  0  0  0  0
   -5.0537   -1.3631    0.0000 C   0  0  0  0  0  0  0  0  0
   -4.3392   -0.9506    0.0000 N   0  0  0  0  0  0  0  0  0
   -3.6247   -1.3631    0.0000 C   0  0  0  0  0  0  0  0  0
   -2.9103   -0.9506    0.0000 C   0  0  0  0  0  0  0  0  0
   -2.1958   -1.3631    0.0000 O   0  0  0  0  0  0  0  0  0
   -1.4813   -0.9506    0.0000 C   0  0  0  0  0  0  0  0  0
   -1.4813   -0.1256    0.0000 C   0  0  0  0  0  0  0  0  0
   -0.7668    0.2869    0.0000 C   0  0  0  0  0  0  0  0  0
   -0.0524   -0.1256    0.0000 C   0  0  0  0  0  0  0  0  0
   -0.0524   -0.9506    0.0000 C   0  0  0  0  0  0  0  0  0
   -0.7668   -1.3631    0.0000 C   0  0  0  0  0  0  0  0  0
   -0.7668   -2.1881    0.0000 O   0  0  0  0  0  0  0  0  0
   -0.0524   -2.6006    0.0000 C   0  0  0  0  0  0  0  0  0
    0.6621   -2.1881    0.0000 C   0  0  0  0  0  0  0  0  0
    0.6621   -1.3631    0.0000 C   0  0  0  0  0  0  0  0  0
    1.3766   -0.9506    0.0000 C   0  0  0  0  0  0  0  0  0
    2.0910   -1.3631    0.0000 C   0  0  0  0  0  0  0  0  0
    2.0910   -2.1881    0.0000 C   0  0  0  0  0  0  0  0  0
    1.3766   -2.6006    0.0000 C   0  0  0  0  0  0  0  0  0
    1.3766   -3.4256    0.0000 N   0  3  0  0  0  0  0  0  0
    2.0910   -3.8381    0.0000 O   0  5  0  0  0  0  0  0  0
    0.6621   -3.8381    0.0000 O   0  5  0  0  0  0  0  0  0
   -7.1971   -0.9506    0.0000 C   0  0  0  0  0  0  0  0  0
   -7.9116   -1.3631    0.0000 C   0  0  0  0  0  0  0  0  0
   -7.9116   -2.1881    0.0000 O   0  0  0  0  0  0  0  0  0
   -8.6260   -2.6006    0.0000 C   0  0  0  0  0  0  0  0  0
   -8.6260   -0.9506    0.0000 C   0  0  0  0  0  0  0  0  0
   -8.6260   -0.1256    0.0000 C   0  0  0  0  0  0  0  0  0
   -7.9116    0.2869    0.0000 C   0  0  0  0  0  0  0  0  0
   -7.1971   -0.1256    0.0000 C   0  0  0  0  0  0  0  0  0
   -6.4826    0.2869    0.0000 O   0  0  0  0  0  0  0  0  0
   -6.4826    1.1119    0.0000 C   0  0  0  0  0  0  0  0  0
  1  2  1  0  0  0  0
  1 25  1  0  0  0  0
  2  3  1  0  0  0  0
  3  4  1  0  0  0  0
  4  5  1  0  0  0  0
  5  6  1  0  0  0  0
  6  7  1  0  0  0  0
  7  8  1  0  0  0  0
  8  9  4  0  0  0  0
  8 13  4  0  0  0  0
  9 10  4  0  0  0  0
 10 11  4  0  0  0  0
 11 12  4  0  0  0  0
 12 13  4  0  0  0  0
 13 14  1  0  0  0  0
 14 15  1  0  0  0  0
 15 16  1  0  0  0  0
 16 17  4  0  0  0  0
 16 21  4  0  0  0  0
 17 18  4  0  0  0  0
 18 19  4  0  0  0  0
 19 20  4  0  0  0  0
 20 21  4  0  0  0  0
 21 22  1  0  0  0  0
 22 23  1  0  0  0  0
 22 24  1  0  0  0  0
 25 26  4  0  0  0  0
 25 32  4  0  0  0  0
 26 27  1  0  0  0  0
 26 29  4  0  0  0  0
 27 28  1  0  0  0  0
 29 30  4  0  0  0  0
 30 31  4  0  0  0  0
 31 32  4  0  0  0  0
 32 33  1  0  0  0  0
 33 34  1  0  0  0  0
M  CHG  3  22   1  23  -1  24  -1
M  END
>  <Name_Molregno>
332906

>  <5-HT1A>
7.62

>  <Alpha-1A>
8.1

>  <Alpha-1B>
8.6

$$$$
335730
  Marvin  02231216192D 0   1.00000     0.00000     0

 14 15  0  0  1  0  0  0  0  0999 V2000
    0.1624   -1.0405    0.0000 O   0  0  0  0  0  0  0  0  0
   -0.5521   -0.6280    0.0000 C   0  0  0  0  0  0  0  0  0
   -1.2666   -1.0405    0.0000 C   0  0  0  0  0  0  0  0  0
   -1.9811   -0.6280    0.0000 C   0  0  0  0  0  0  0  0  0
   -2.7657   -0.8829    0.0000 N   0  0  0  0  0  0  0  0  0
   -3.2506   -0.2155    0.0000 N   0  0  0  0  0  0  0  0  0
   -2.7657    0.4520    0.0000 C   0  0  0  0  0  0  0  0  0
   -1.9811    0.1970    0.0000 C   0  0  0  0  0  0  0  0  0
   -1.2666    0.6095    0.0000 C   0  0  0  0  0  0  0  0  0
   -0.5521    0.1970    0.0000 C   0  0  0  0  0  0  0  0  0
   -3.0206   -1.6675    0.0000 C   0  0  0  0  0  0  0  0  0
   -3.8276   -1.8391    0.0000 C   0  0  0  0  0  0  0  0  0
   -4.0825   -2.6237    0.0000 N   0  0  0  0  0  0  0  0  0
   -4.3796   -1.2260    0.0000 C   0  0  0  0  0  0  0  0  0
  1  2  1  0  0  0  0
  2  3  4  0  0  0  0
  2 10  4  0  0  0  0
  3  4  4  0  0  0  0
  4  5  4  0  0  0  0
  4  8  4  0  0  0  0
  5  6  4  0  0  0  0
  5 11  1  0  0  0  0
  6  7  4  0  0  0  0
  7  8  4  0  0  0  0
  8  9  4  0  0  0  0
  9 10  4  0  0  0  0
 11 12  1  0  0  0  0
 12 13  1  0  0  0  0
 12 14  1  0  0  0  0
M  END
>  <Name_Molregno>
335730

>  <5-HT1A>
6.85

>  <5-HT1B>
5

>  <5-HT1D>
5.1

>  <5-HT2A>
7.45

>  <5-HT2C>
8

>  <5-HT3>
5

>  <5-HT5>
5

>  <5-HT6>
5

>  <Alpha-1A>
4.52

>  <Alpha-1B>
4.52

>  <Alpha-2A>
5.64

>  <Alpha-2C>
5.33

>  <Norepinephrine transporter>
5

>  <Serotonin transporter>
5

$$$$
344371
  Marvin  02231216192D 0   1.00000     0.00000     0

 27 29  0  0  0  0  0  0  0  0999 V2000
   -8.3424    3.5017    0.0000 O   0  0  0  0  0  0  0  0  0
   -9.0569    3.9142    0.0000 C   0  0  0  0  0  0  0  0  0
   -8.3424    2.6767    0.0000 C   0  0  0  0  0  0  0  0  0
   -7.6279    2.2642    0.0000 C   0  0  0  0  0  0  0  0  0
   -7.6279    1.4392    0.0000 C   0  0  0  0  0  0  0  0  0
   -6.9134    1.0267    0.0000 N   0  0  0  0  0  0  0  0  0
   -6.1990    1.4392    0.0000 C   0  0  0  0  0  0  0  0  0
   -5.4845    1.0267    0.0000 C   0  0  0  0  0  0  0  0  0
   -5.4845    0.2017    0.0000 N   0  0  0  0  0  0  0  0  0
   -6.1990   -0.2108    0.0000 C   0  0  0  0  0  0  0  0  0
   -6.9134    0.2017    0.0000 C   0  0  0  0  0  0  0  0  0
   -4.7700   -0.2108    0.0000 C   0  0  0  0  0  0  0  0  0
   -4.0556    0.2017    0.0000 C   0  0  0  0  0  0  0  0  0
   -3.3411   -0.2108    0.0000 C   0  0  0  0  0  0  0  0  0
   -2.6266    0.2017    0.0000 C   0  0  0  0  0  0  0  0  0
   -1.9121   -0.2108    0.0000 N   0  0  0  0  0  0  0  0  0
   -1.1977    0.2017    0.0000 N   0  0  0  0  0  0  0  0  0
   -0.4832   -0.2108    0.0000 C   0  0  0  0  0  0  0  0  0
   -0.4832   -1.0358    0.0000 C   0  0  0  0  0  0  0  0  0
    0.2313   -1.4483    0.0000 O   0  0  0  0  0  0  0  0  0
   -1.1977   -1.4483    0.0000 N   0  0  0  0  0  0  0  0  0
   -1.1977   -2.2733    0.0000 C   0  0  0  0  0  0  0  0  0
   -1.9121   -1.0358    0.0000 C   0  0  0  0  0  0  0  0  0
   -2.6266   -1.4483    0.0000 O   0  0  0  0  0  0  0  0  0
   -8.3424    1.0267    0.0000 C   0  0  0  0  0  0  0  0  0
   -9.0569    1.4392    0.0000 C   0  0  0  0  0  0  0  0  0
   -9.0569    2.2642    0.0000 C   0  0  0  0  0  0  0  0  0
  1  2  1  0  0  0  0
  1  3  1  0  0  0  0
  3  4  4  0  0  0  0
  3 27  4  0  0  0  0
  4  5  4  0  0  0  0
  5  6  1  0  0  0  0
  5 25  4  0  0  0  0
  6  7  1  0  0  0  0
  6 11  1  0  0  0  0
  7  8  1  0  0  0  0
  8  9  1  0  0  0  0
  9 10  1  0  0  0  0
  9 12  1  0  0  0  0
 10 11  1  0  0  0  0
 12 13  1  0  0  0  0
 13 14  1  0  0  0  0
 14 15  1  0  0  0  0
 15 16  1  0  0  0  0
 16 17  1  0  0  0  0
 16 23  1  0  0  0  0
 17 18  2  0  0  0  0
 18 19  1  0  0  0  0
 19 20  2  0  0  0  0
 19 21  1  0  0  0  0
 21 22  1  0  0  0  0
 21 23  1  0  0  0  0
 23 24  2  0  0  0  0
 25 26  4  0  0  0  0
 26 27  4  0  0  0  0
M  END
>  <Name_Molregno>
344371

>  <5-HT1A>
8.96

>  <5-HT1B>
6.64

>  <5-HT1E>
5

>  <5-HT2A>
5.68

>  <5-HT3>
5

>  <5-HT5>
5

>  <5-HT6>
5

>  <5-HT7>
6.48

>  <Alpha-1A>
6.38

>  <Alpha-1B>
6.42

>  <Alpha-2A>
6.6

>  <Alpha-2C>
6.96

>  <DOPAMINE D2>
5.59

>  <DOPAMINE D3>
5

>  <DOPAMINE D4>
5

>  <DOPAMINE D5>
5

>  <Dopamine transporter>
5

>  <HISTAMINE H1>
6.08

>  <HISTAMINE H2>
5.67

>  <HISTAMINE H3>
5

>  <HISTAMINE H4>
5

>  <Norepinephrine transporter>
5

>  <Serotonin transporter>
5

$$$$
348204
  Marvin  02231216192D 0   1.00000     0.00000     0

 28 31  0  0  1  0  0  0  0  0999 V2000
   10.2950   -1.6307    0.0000 Cl  0  0  0  0  0  0  0  0  0
    9.4759   -1.5325    0.0000 C   0  0  0  0  0  0  0  0  0
    8.9812   -2.1928    0.0000 C   0  0  0  0  0  0  0  0  0
    8.1621   -2.0945    0.0000 C   0  0  0  0  0  0  0  0  0
    7.8376   -1.3360    0.0000 C   0  0  0  0  0  0  0  0  0
    8.3323   -0.6758    0.0000 C   0  0  0  0  0  0  0  0  0
    9.1514   -0.7740    0.0000 C   0  0  0  0  0  0  0  0  0
    7.0185   -1.2378    0.0000 C   0  0  0  0  0  0  0  0  0
    6.6925   -1.9956    0.0000 O   0  0  0  0  0  0  0  0  0
    6.8803   -0.4204    0.0000 C   0  0  0  0  0  0  0  0  0
    5.9515   -0.4359    0.0000 C   0  0  0  0  0  0  0  0  0
    5.3909    0.0040    0.0000 N   0  0  0  0  0  0  0  0  0
    5.5306   -0.8091    0.0000 C   0  0  0  0  0  0  0  0  0
    6.5023   -0.8091    0.0000 C   0  0  0  0  0  0  0  0  0
    5.0107   -1.5214    0.0000 C   0  0  0  0  0  0  0  0  0
    5.6310   -1.1445    0.0000 C   0  0  0  0  0  0  0  0  0
    4.9683    0.7126    0.0000 C   0  0  0  0  0  0  0  0  0
    4.1434    0.7008    0.0000 C   0  0  0  0  0  0  0  0  0
    3.7208    1.4094    0.0000 C   0  0  0  0  0  0  0  0  0
    2.8958    1.3977    0.0000 C   0  0  0  0  0  0  0  0  0
    2.4935    0.6774    0.0000 O   0  0  0  0  0  0  0  0  0
    2.4732    2.1062    0.0000 C   0  0  0  0  0  0  0  0  0
    1.6483    2.0945    0.0000 C   0  0  0  0  0  0  0  0  0
    1.2257    2.8030    0.0000 C   0  0  0  0  0  0  0  0  0
    1.6280    3.5233    0.0000 C   0  0  0  0  0  0  0  0  0
    1.2054    4.2318    0.0000 F   0  0  0  0  0  0  0  0  0
    2.4529    3.5350    0.0000 C   0  0  0  0  0  0  0  0  0
    2.8755    2.8265    0.0000 C   0  0  0  0  0  0  0  0  0
  1  2  1  0  0  0  0
  2  3  4  0  0  0  0
  2  7  4  0  0  0  0
  3  4  4  0  0  0  0
  4  5  4  0  0  0  0
  5  6  4  0  0  0  0
  5  8  1  0  0  0  0
  6  7  4  0  0  0  0
  8  9  1  0  0  0  0
  8 10  1  0  0  0  0
  8 14  1  0  0  0  0
 10 11  1  0  0  0  0
 11 12  1  0  0  0  0
 11 16  1  0  0  0  0
 12 13  1  0  0  0  0
 12 17  1  0  0  0  0
 13 14  1  0  0  0  0
 13 15  1  0  0  0  0
 15 16  1  0  0  0  0
 17 18  1  0  0  0  0
 18 19  1  0  0  0  0
 19 20  1  0  0  0  0
 20 21  2  0  0  0  0
 20 22  1  0  0  0  0
 22 23  4  0  0  0  0
 22 28  4  0  0  0  0
 23 24  4  0  0  0  0
 24 25  4  0  0  0  0
 25 26  1  0  0  0  0
 25 27  4  0  0  0  0
 27 28  4  0  0  0  0
M  END
>  <Name_Molregno>
348204

>  <5-HT1A>
7.56

>  <5-HT2A>
7.51

>  <5-HT2C>
6.06

>  <Alpha-1A>
7.41

>  <Alpha-1B>
7.37

>  <Alpha-2A>
5.55

>  <Alpha-2B>
6.29

>  <Alpha-2C>
6.85

>  <DOPAMINE D2>
8.8

>  <DOPAMINE D3>
8.29

>  <DOPAMINE D4>
8.28

>  <HISTAMINE H1>
5.06

$$$$
354026
  Marvin  02231216192D 0   1.00000     0.00000     0

 31 34  0  0  0  0  0  0  0  0999 V2000
    5.2194    1.3362    0.0000 Cl  0  0  0  0  0  0  0  0  0
    4.5049    0.9237    0.0000 C   0  0  0  0  0  0  0  0  0
    4.5049    0.0987    0.0000 C   0  0  0  0  0  0  0  0  0
    3.7904   -0.3138    0.0000 C   0  0  0  0  0  0  0  0  0
    3.0759    0.0987    0.0000 C   0  0  0  0  0  0  0  0  0
    3.0759    0.9237    0.0000 C   0  0  0  0  0  0  0  0  0
    3.7904    1.3362    0.0000 C   0  0  0  0  0  0  0  0  0
    3.7904    2.1612    0.0000 Cl  0  0  0  0  0  0  0  0  0
    3.7904   -1.1388    0.0000 C   0  0  0  0  0  0  0  0  0
    4.4578   -1.6237    0.0000 C   0  0  0  0  0  0  0  0  0
    4.2029   -2.4084    0.0000 C   0  0  0  0  0  0  0  0  0
    3.3779   -2.4084    0.0000 N   0  0  0  0  0  0  0  0  0
    3.1230   -1.6237    0.0000 C   0  0  0  0  0  0  0  0  0
    2.3383   -1.3688    0.0000 O   0  0  0  0  0  0  0  0  0
    2.8930   -3.0758    0.0000 C   0  0  0  0  0  0  0  0  0
    3.2285   -3.8295    0.0000 C   0  0  0  0  0  0  0  0  0
    2.7436   -4.4969    0.0000 C   0  0  0  0  0  0  0  0  0
    3.0792   -5.2506    0.0000 O   0  0  0  0  0  0  0  0  0
    2.5943   -5.9180    0.0000 C   0  0  0  0  0  0  0  0  0
    2.9298   -6.6717    0.0000 C   0  0  0  0  0  0  0  0  0
    2.4449   -7.3391    0.0000 N   0  0  0  0  0  0  0  0  0
    2.7804   -8.0928    0.0000 C   0  0  0  0  0  0  0  0  0
    2.2955   -8.7602    0.0000 C   0  0  0  0  0  0  0  0  0
    1.4750   -8.6740    0.0000 C   0  0  0  0  0  0  0  0  0
    1.1395   -7.9203    0.0000 C   0  0  0  0  0  0  0  0  0
    1.6244   -7.2529    0.0000 C   0  0  0  0  0  0  0  0  0
    1.9231   -4.4107    0.0000 C   0  0  0  0  0  0  0  0  0
    1.4382   -5.0781    0.0000 O   0  0  0  0  0  0  0  0  0
    0.6177   -4.9919    0.0000 C   0  0  0  0  0  0  0  0  0
    1.5876   -3.6570    0.0000 C   0  0  0  0  0  0  0  0  0
    2.0725   -2.9896    0.0000 C   0  0  0  0  0  0  0  0  0
  1  2  1  0  0  0  0
  2  3  4  0  0  0  0
  2  7  4  0  0  0  0
  3  4  4  0  0  0  0
  4  5  4  0  0  0  0
  4  9  1  0  0  0  0
  5  6  4  0  0  0  0
  6  7  4  0  0  0  0
  7  8  1  0  0  0  0
  9 10  2  0  0  0  0
  9 13  1  0  0  0  0
 10 11  1  0  0  0  0
 11 12  1  0  0  0  0
 12 13  1  0  0  0  0
 12 15  1  0  0  0  0
 13 14  2  0  0  0  0
 15 16  4  0  0  0  0
 15 31  4  0  0  0  0
 16 17  4  0  0  0  0
 17 18  1  0  0  0  0
 17 27  4  0  0  0  0
 18 19  1  0  0  0  0
 19 20  1  0  0  0  0
 20 21  1  0  0  0  0
 21 22  1  0  0  0  0
 21 26  1  0  0  0  0
 22 23  1  0  0  0  0
 23 24  1  0  0  0  0
 24 25  1  0  0  0  0
 25 26  1  0  0  0  0
 27 28  1  0  0  0  0
 27 30  4  0  0  0  0
 28 29  1  0  0  0  0
 30 31  4  0  0  0  0
M  END
>  <Name_Molregno>
354026

>  <5-HT1A>
5.5

>  <5-HT1B>
5.5

>  <5-HT1D>
5.5

>  <5-HT2A>
6.2

>  <5-HT2C>
9.1

>  <5-HT6>
5.5

>  <5-HT7>
5.5

>  <Alpha-1A>
5.74

>  <Alpha-1B>
5.74

>  <DOPAMINE D3>
6.34

$$$$
361809
  Marvin  02231216192D 0   1.00000     0.00000     0

 29 32  0  0  1  0  0  0  0  0999 V2000
   -0.0392    1.3068    0.0000 O   0  0  0  0  0  0  0  0  0
   -0.7537    0.8943    0.0000 C   0  0  0  0  0  0  0  0  0
   -0.7537    0.0693    0.0000 C   0  0  0  0  0  0  0  0  0
   -0.0392   -0.3432    0.0000 O   0  0  0  0  0  0  0  0  0
    0.6753    0.0693    0.0000 C   0  0  0  0  0  0  0  0  0
    0.6753    0.8943    0.0000 C   0  0  0  0  0  0  0  0  0
    1.3897    1.3068    0.0000 C   0  0  0  0  0  0  0  0  0
    2.1042    0.8943    0.0000 N   0  0  0  0  0  0  0  0  0
    2.8187    1.3068    0.0000 C   0  0  0  0  0  0  0  0  0
    3.5332    0.8943    0.0000 C   0  0  0  0  0  0  0  0  0
    4.2476    1.3068    0.0000 O   0  0  0  0  0  0  0  0  0
    4.9621    0.8943    0.0000 C   0  0  0  0  0  0  0  0  0
    5.6766    1.3068    0.0000 C   0  0  0  0  0  0  0  0  0
    5.6766    2.1318    0.0000 O   0  0  0  0  0  0  0  0  0
    6.3910    2.5443    0.0000 C   0  0  0  0  0  0  0  0  0
    6.3910    0.8943    0.0000 C   0  0  0  0  0  0  0  0  0
    6.3910    0.0693    0.0000 C   0  0  0  0  0  0  0  0  0
    5.6766   -0.3432    0.0000 C   0  0  0  0  0  0  0  0  0
    4.9621    0.0693    0.0000 C   0  0  0  0  0  0  0  0  0
    4.2476   -0.3432    0.0000 O   0  0  0  0  0  0  0  0  0
    4.2476   -1.1682    0.0000 C   0  0  0  0  0  0  0  0  0
   -1.4681   -0.3432    0.0000 C   0  0  0  0  0  0  0  0  0
   -2.1826    0.0693    0.0000 C   0  0  0  0  0  0  0  0  0
   -2.8971   -0.3432    0.0000 C   0  0  0  0  0  0  0  0  0
   -3.6116    0.0693    0.0000 C   0  0  0  0  0  0  0  0  0
   -3.6116    0.8943    0.0000 C   0  0  0  0  0  0  0  0  0
   -2.8971    1.3068    0.0000 C   0  0  0  0  0  0  0  0  0
   -2.1826    0.8943    0.0000 C   0  0  0  0  0  0  0  0  0
   -1.4681    1.3068    0.0000 C   0  0  0  0  0  0  0  0  0
  1  2  1  0  0  0  0
  1  6  1  0  0  0  0
  2  3  4  0  0  0  0
  2 29  4  0  0  0  0
  3  4  1  0  0  0  0
  3 22  4  0  0  0  0
  4  5  1  0  0  0  0
  5  6  1  0  0  0  0
  6  7  1  0  0  0  0
  7  8  1  0  0  0  0
  8  9  1  0  0  0  0
  9 10  1  0  0  0  0
 10 11  1  0  0  0  0
 11 12  1  0  0  0  0
 12 13  4  0  0  0  0
 12 19  4  0  0  0  0
 13 14  1  0  0  0  0
 13 16  4  0  0  0  0
 14 15  1  0  0  0  0
 16 17  4  0  0  0  0
 17 18  4  0  0  0  0
 18 19  4  0  0  0  0
 19 20  1  0  0  0  0
 20 21  1  0  0  0  0
 22 23  4  0  0  0  0
 23 24  1  0  0  0  0
 23 28  4  0  0  0  0
 24 25  1  0  0  0  0
 25 26  1  0  0  0  0
 26 27  1  0  0  0  0
 27 28  1  0  0  0  0
 28 29  4  0  0  0  0
M  END
>  <Name_Molregno>
361809

>  <Alpha-1A>
7.3

>  <Alpha-1B>
6.32

$$$$
361810
  Marvin  02231216192D 0   1.00000     0.00000     0

 27 30  0  0  1  0  0  0  0  0999 V2000
   -0.0704    1.0996    0.0000 O   0  0  0  0  0  0  0  0  0
   -0.7849    0.6871    0.0000 C   0  0  0  0  0  0  0  0  0
   -0.7849   -0.1379    0.0000 C   0  0  0  0  0  0  0  0  0
   -0.0704   -0.5504    0.0000 O   0  0  0  0  0  0  0  0  0
    0.6441   -0.1379    0.0000 C   0  0  0  0  0  0  0  0  0
    0.6441    0.6871    0.0000 C   0  0  0  0  0  0  0  0  0
    1.3586    1.0996    0.0000 C   0  0  0  0  0  0  0  0  0
    2.0730    0.6871    0.0000 N   0  0  0  0  0  0  0  0  0
    2.7875    1.0996    0.0000 C   0  0  0  0  0  0  0  0  0
    3.5020    0.6871    0.0000 C   0  0  0  0  0  0  0  0  0
    4.2164    1.0996    0.0000 O   0  0  0  0  0  0  0  0  0
    4.9309    0.6871    0.0000 C   0  0  0  0  0  0  0  0  0
    5.6454    1.0996    0.0000 C   0  0  0  0  0  0  0  0  0
    5.6454    1.9246    0.0000 C   0  0  0  0  0  0  0  0  0
    6.3598    2.3371    0.0000 C   0  0  0  0  0  0  0  0  0
    7.0743    1.9246    0.0000 C   0  0  0  0  0  0  0  0  0
    7.0743    1.0996    0.0000 C   0  0  0  0  0  0  0  0  0
    6.3598    0.6871    0.0000 C   0  0  0  0  0  0  0  0  0
    6.3598   -0.1379    0.0000 C   0  0  0  0  0  0  0  0  0
    5.6454   -0.5504    0.0000 C   0  0  0  0  0  0  0  0  0
    4.9309   -0.1379    0.0000 C   0  0  0  0  0  0  0  0  0
    4.2164   -0.5504    0.0000 O   0  0  0  0  0  0  0  0  0
    4.2164   -1.3754    0.0000 C   0  0  0  0  0  0  0  0  0
   -1.4993   -0.5504    0.0000 C   0  0  0  0  0  0  0  0  0
   -2.2138   -0.1379    0.0000 C   0  0  0  0  0  0  0  0  0
   -2.2138    0.6871    0.0000 C   0  0  0  0  0  0  0  0  0
   -1.4993    1.0996    0.0000 C   0  0  0  0  0  0  0  0  0
  1  2  1  0  0  0  0
  1  6  1  0  0  0  0
  2  3  4  0  0  0  0
  2 27  4  0  0  0  0
  3  4  1  0  0  0  0
  3 24  4  0  0  0  0
  4  5  1  0  0  0  0
  5  6  1  0  0  0  0
  6  7  1  0  0  0  0
  7  8  1  0  0  0  0
  8  9  1  0  0  0  0
  9 10  1  0  0  0  0
 10 11  1  0  0  0  0
 11 12  1  0  0  0  0
 12 13  4  0  0  0  0
 12 21  4  0  0  0  0
 13 14  1  0  0  0  0
 13 18  4  0  0  0  0
 14 15  1  0  0  0  0
 15 16  1  0  0  0  0
 16 17  1  0  0  0  0
 17 18  1  0  0  0  0
 18 19  4  0  0  0  0
 19 20  4  0  0  0  0
 20 21  4  0  0  0  0
 21 22  1  0  0  0  0
 22 23  1  0  0  0  0
 24 25  4  0  0  0  0
 25 26  4  0  0  0  0
 26 27  4  0  0  0  0
M  END
>  <Name_Molregno>
361810

>  <Alpha-1A>
8.25

>  <Alpha-1B>
7.51

$$$$
361853
  Marvin  02231216192D 0   1.00000     0.00000     0

 29 32  0  0  1  0  0  0  0  0999 V2000
   -5.7383    0.5668    0.0000 O   0  0  0  0  0  0  0  0  0
   -6.4528    0.1543    0.0000 C   0  0  0  0  0  0  0  0  0
   -6.4528   -0.6707    0.0000 C   0  0  0  0  0  0  0  0  0
   -5.7383   -1.0832    0.0000 O   0  0  0  0  0  0  0  0  0
   -5.0238   -0.6707    0.0000 C   0  0  0  0  0  0  0  0  0
   -5.0238    0.1543    0.0000 C   0  0  0  0  0  0  0  0  0
   -4.3094    0.5668    0.0000 C   0  0  0  0  0  0  0  0  0
   -3.5949    0.1543    0.0000 N   0  0  0  0  0  0  0  0  0
   -2.8804    0.5668    0.0000 C   0  0  0  0  0  0  0  0  0
   -2.1659    0.1543    0.0000 C   0  0  0  0  0  0  0  0  0
   -1.4515    0.5668    0.0000 O   0  0  0  0  0  0  0  0  0
   -0.7370    0.1543    0.0000 C   0  0  0  0  0  0  0  0  0
   -0.0225    0.5668    0.0000 C   0  0  0  0  0  0  0  0  0
    0.6919    0.1543    0.0000 C   0  0  0  0  0  0  0  0  0
    0.6919   -0.6707    0.0000 C   0  0  0  0  0  0  0  0  0
   -0.0225   -1.0832    0.0000 C   0  0  0  0  0  0  0  0  0
   -0.7370   -0.6707    0.0000 C   0  0  0  0  0  0  0  0  0
   -1.4515   -1.0832    0.0000 O   0  0  0  0  0  0  0  0  0
   -1.4515   -1.9082    0.0000 C   0  0  0  0  0  0  0  0  0
   -0.0225    1.3918    0.0000 C   0  0  0  0  0  0  0  0  0
   -0.7370    1.8043    0.0000 C   0  0  0  0  0  0  0  0  0
   -0.7370    2.6293    0.0000 C   0  0  0  0  0  0  0  0  0
   -0.0225    3.0418    0.0000 C   0  0  0  0  0  0  0  0  0
    0.6919    2.6293    0.0000 C   0  0  0  0  0  0  0  0  0
    0.6919    1.8043    0.0000 C   0  0  0  0  0  0  0  0  0
   -7.1672   -1.0832    0.0000 C   0  0  0  0  0  0  0  0  0
   -7.8817   -0.6707    0.0000 C   0  0  0  0  0  0  0  0  0
   -7.8817    0.1543    0.0000 C   0  0  0  0  0  0  0  0  0
   -7.1672    0.5668    0.0000 C   0  0  0  0  0  0  0  0  0
  1  2  1  0  0  0  0
  1  6  1  0  0  0  0
  2  3  4  0  0  0  0
  2 29  4  0  0  0  0
  3  4  1  0  0  0  0
  3 26  4  0  0  0  0
  4  5  1  0  0  0  0
  5  6  1  0  0  0  0
  6  7  1  0  0  0  0
  7  8  1  0  0  0  0
  8  9  1  0  0  0  0
  9 10  1  0  0  0  0
 10 11  1  0  0  0  0
 11 12  1  0  0  0  0
 12 13  4  0  0  0  0
 12 17  4  0  0  0  0
 13 14  4  0  0  0  0
 13 20  1  0  0  0  0
 14 15  4  0  0  0  0
 15 16  4  0  0  0  0
 16 17  4  0  0  0  0
 17 18  1  0  0  0  0
 18 19  1  0  0  0  0
 20 21  4  0  0  0  0
 20 25  4  0  0  0  0
 21 22  4  0  0  0  0
 22 23  4  0  0  0  0
 23 24  4  0  0  0  0
 24 25  4  0  0  0  0
 26 27  4  0  0  0  0
 27 28  4  0  0  0  0
 28 29  4  0  0  0  0
M  END
>  <Name_Molregno>
361853

>  <Alpha-1A>
8.47

>  <Alpha-1B>
7.29

$$$$
361868
  Marvin  02231216192D 0   1.00000     0.00000     0

 29 32  0  0  1  0  0  0  0  0999 V2000
   -6.2949    1.6275    0.0000 O   0  0  0  0  0  0  0  0  0
   -7.0094    1.2150    0.0000 C   0  0  0  0  0  0  0  0  0
   -7.0094    0.3900    0.0000 C   0  0  0  0  0  0  0  0  0
   -6.2949   -0.0225    0.0000 O   0  0  0  0  0  0  0  0  0
   -5.5804    0.3900    0.0000 C   0  0  0  0  0  0  0  0  0
   -5.5804    1.2150    0.0000 C   0  0  0  0  0  0  0  0  0
   -4.8660    1.6275    0.0000 C   0  0  0  0  0  0  0  0  0
   -4.1515    1.2150    0.0000 N   0  0  0  0  0  0  0  0  0
   -3.4370    1.6275    0.0000 C   0  0  0  0  0  0  0  0  0
   -2.7226    1.2150    0.0000 C   0  0  0  0  0  0  0  0  0
   -2.0081    1.6275    0.0000 O   0  0  0  0  0  0  0  0  0
   -1.2936    1.2150    0.0000 C   0  0  0  0  0  0  0  0  0
   -0.5791    1.6275    0.0000 C   0  0  0  0  0  0  0  0  0
    0.1353    1.2150    0.0000 C   0  0  0  0  0  0  0  0  0
    0.1353    0.3900    0.0000 C   0  0  0  0  0  0  0  0  0
   -0.5791   -0.0225    0.0000 C   0  0  0  0  0  0  0  0  0
   -1.2936    0.3900    0.0000 C   0  0  0  0  0  0  0  0  0
   -2.0081   -0.0225    0.0000 O   0  0  0  0  0  0  0  0  0
   -2.0081   -0.8475    0.0000 C   0  0  0  0  0  0  0  0  0
    0.8498    1.6275    0.0000 C   0  0  0  0  0  0  0  0  0
    0.8498    2.4525    0.0000 C   0  0  0  0  0  0  0  0  0
    1.5643    2.8650    0.0000 C   0  0  0  0  0  0  0  0  0
    2.2787    2.4525    0.0000 C   0  0  0  0  0  0  0  0  0
    2.2787    1.6275    0.0000 C   0  0  0  0  0  0  0  0  0
    1.5643    1.2150    0.0000 C   0  0  0  0  0  0  0  0  0
   -7.7239   -0.0225    0.0000 C   0  0  0  0  0  0  0  0  0
   -8.4383    0.3900    0.0000 C   0  0  0  0  0  0  0  0  0
   -8.4383    1.2150    0.0000 C   0  0  0  0  0  0  0  0  0
   -7.7239    1.6275    0.0000 C   0  0  0  0  0  0  0  0  0
  1  2  1  0  0  0  0
  1  6  1  0  0  0  0
  2  3  4  0  0  0  0
  2 29  4  0  0  0  0
  3  4  1  0  0  0  0
  3 26  4  0  0  0  0
  4  5  1  0  0  0  0
  5  6  1  0  0  0  0
  6  7  1  0  0  0  0
  7  8  1  0  0  0  0
  8  9  1  0  0  0  0
  9 10  1  0  0  0  0
 10 11  1  0  0  0  0
 11 12  1  0  0  0  0
 12 13  4  0  0  0  0
 12 17  4  0  0  0  0
 13 14  4  0  0  0  0
 14 15  4  0  0  0  0
 14 20  1  0  0  0  0
 15 16  4  0  0  0  0
 16 17  4  0  0  0  0
 17 18  1  0  0  0  0
 18 19  1  0  0  0  0
 20 21  4  0  0  0  0
 20 25  4  0  0  0  0
 21 22  4  0  0  0  0
 22 23  4  0  0  0  0
 23 24  4  0  0  0  0
 24 25  4  0  0  0  0
 26 27  4  0  0  0  0
 27 28  4  0  0  0  0
 28 29  4  0  0  0  0
M  END
>  <Name_Molregno>
361868

>  <Alpha-1A>
8.02

>  <Alpha-1B>
7.59

$$$$
361885
  Marvin  02231216192D 0   1.00000     0.00000     0

 29 32  0  0  1  0  0  0  0  0999 V2000
   -6.7382    1.8536    0.0000 O   0  0  0  0  0  0  0  0  0
   -7.4526    1.4411    0.0000 C   0  0  0  0  0  0  0  0  0
   -7.4526    0.6161    0.0000 C   0  0  0  0  0  0  0  0  0
   -6.7382    0.2036    0.0000 O   0  0  0  0  0  0  0  0  0
   -6.0237    0.6161    0.0000 C   0  0  0  0  0  0  0  0  0
   -6.0237    1.4411    0.0000 C   0  0  0  0  0  0  0  0  0
   -5.3092    1.8536    0.0000 C   0  0  0  0  0  0  0  0  0
   -4.5948    1.4411    0.0000 N   0  0  0  0  0  0  0  0  0
   -3.8803    1.8536    0.0000 C   0  0  0  0  0  0  0  0  0
   -3.1658    1.4411    0.0000 C   0  0  0  0  0  0  0  0  0
   -2.4513    1.8536    0.0000 O   0  0  0  0  0  0  0  0  0
   -1.7369    1.4411    0.0000 C   0  0  0  0  0  0  0  0  0
   -1.0224    1.8536    0.0000 C   0  0  0  0  0  0  0  0  0
   -0.3079    1.4411    0.0000 C   0  0  0  0  0  0  0  0  0
   -0.3079    0.6161    0.0000 C   0  0  0  0  0  0  0  0  0
   -1.0224    0.2036    0.0000 C   0  0  0  0  0  0  0  0  0
   -1.7369    0.6161    0.0000 C   0  0  0  0  0  0  0  0  0
   -2.4513    0.2036    0.0000 O   0  0  0  0  0  0  0  0  0
   -2.4513   -0.6214    0.0000 C   0  0  0  0  0  0  0  0  0
    0.4065    0.2036    0.0000 C   0  0  0  0  0  0  0  0  0
    1.1210    0.6161    0.0000 C   0  0  0  0  0  0  0  0  0
    1.8355    0.2036    0.0000 C   0  0  0  0  0  0  0  0  0
    1.8355   -0.6214    0.0000 C   0  0  0  0  0  0  0  0  0
    1.1210   -1.0339    0.0000 C   0  0  0  0  0  0  0  0  0
    0.4065   -0.6214    0.0000 C   0  0  0  0  0  0  0  0  0
   -8.1671    0.2036    0.0000 C   0  0  0  0  0  0  0  0  0
   -8.8816    0.6161    0.0000 C   0  0  0  0  0  0  0  0  0
   -8.8816    1.4411    0.0000 C   0  0  0  0  0  0  0  0  0
   -8.1671    1.8536    0.0000 C   0  0  0  0  0  0  0  0  0
  1  2  1  0  0  0  0
  1  6  1  0  0  0  0
  2  3  4  0  0  0  0
  2 29  4  0  0  0  0
  3  4  1  0  0  0  0
  3 26  4  0  0  0  0
  4  5  1  0  0  0  0
  5  6  1  0  0  0  0
  6  7  1  0  0  0  0
  7  8  1  0  0  0  0
  8  9  1  0  0  0  0
  9 10  1  0  0  0  0
 10 11  1  0  0  0  0
 11 12  1  0  0  0  0
 12 13  4  0  0  0  0
 12 17  4  0  0  0  0
 13 14  4  0  0  0  0
 14 15  4  0  0  0  0
 15 16  4  0  0  0  0
 15 20  1  0  0  0  0
 16 17  4  0  0  0  0
 17 18  1  0  0  0  0
 18 19  1  0  0  0  0
 20 21  4  0  0  0  0
 20 25  4  0  0  0  0
 21 22  4  0  0  0  0
 22 23  4  0  0  0  0
 23 24  4  0  0  0  0
 24 25  4  0  0  0  0
 26 27  4  0  0  0  0
 27 28  4  0  0  0  0
 28 29  4  0  0  0  0
M  END
>  <Name_Molregno>
361885

>  <Alpha-1A>
6.85

>  <Alpha-1B>
6.5

$$$$
361902
  Marvin  02231216192D 0   1.00000     0.00000     0

 31 35  0  0  1  0  0  0  0  0999 V2000
    0.0629    1.3783    0.0000 O   0  0  0  0  0  0  0  0  0
   -0.6516    0.9658    0.0000 C   0  0  0  0  0  0  0  0  0
   -0.6516    0.1408    0.0000 C   0  0  0  0  0  0  0  0  0
    0.0629   -0.2717    0.0000 O   0  0  0  0  0  0  0  0  0
    0.7774    0.1408    0.0000 C   0  0  0  0  0  0  0  0  0
    0.7774    0.9658    0.0000 C   0  0  0  0  0  0  0  0  0
    1.4918    1.3783    0.0000 C   0  0  0  0  0  0  0  0  0
    2.2063    0.9658    0.0000 N   0  0  0  0  0  0  0  0  0
    2.9208    1.3783    0.0000 C   0  0  0  0  0  0  0  0  0
    3.6352    0.9658    0.0000 C   0  0  0  0  0  0  0  0  0
    4.3497    1.3783    0.0000 O   0  0  0  0  0  0  0  0  0
    5.0642    0.9658    0.0000 C   0  0  0  0  0  0  0  0  0
    5.0642    0.1408    0.0000 C   0  0  0  0  0  0  0  0  0
    5.7787   -0.2717    0.0000 C   0  0  0  0  0  0  0  0  0
    6.4931    0.1408    0.0000 C   0  0  0  0  0  0  0  0  0
    6.4931    0.9658    0.0000 C   0  0  0  0  0  0  0  0  0
    5.7787    1.3783    0.0000 C   0  0  0  0  0  0  0  0  0
    5.7787    2.2033    0.0000 O   0  0  0  0  0  0  0  0  0
    6.4931    2.6158    0.0000 C   0  0  0  0  0  0  0  0  0
    5.7787   -1.0967    0.0000 C   0  0  0  0  0  0  0  0  0
    5.0642   -1.5092    0.0000 C   0  0  0  0  0  0  0  0  0
    4.3497   -1.0967    0.0000 C   0  0  0  0  0  0  0  0  0
    4.3497   -0.2717    0.0000 C   0  0  0  0  0  0  0  0  0
   -1.3661   -0.2717    0.0000 C   0  0  0  0  0  0  0  0  0
   -2.0805    0.1408    0.0000 C   0  0  0  0  0  0  0  0  0
   -2.7950   -0.2717    0.0000 C   0  0  0  0  0  0  0  0  0
   -3.5095    0.1408    0.0000 C   0  0  0  0  0  0  0  0  0
   -3.5095    0.9658    0.0000 C   0  0  0  0  0  0  0  0  0
   -2.7950    1.3783    0.0000 C   0  0  0  0  0  0  0  0  0
   -2.0805    0.9658    0.0000 C   0  0  0  0  0  0  0  0  0
   -1.3661    1.3783    0.0000 C   0  0  0  0  0  0  0  0  0
  1  2  1  0  0  0  0
  1  6  1  0  0  0  0
  2  3  4  0  0  0  0
  2 31  4  0  0  0  0
  3  4  1  0  0  0  0
  3 24  4  0  0  0  0
  4  5  1  0  0  0  0
  5  6  1  0  0  0  0
  6  7  1  0  0  0  0
  7  8  1  0  0  0  0
  8  9  1  0  0  0  0
  9 10  1  0  0  0  0
 10 11  1  0  0  0  0
 11 12  1  0  0  0  0
 12 13  4  0  0  0  0
 12 17  4  0  0  0  0
 13 14  4  0  0  0  0
 13 23  4  0  0  0  0
 14 15  4  0  0  0  0
 14 20  4  0  0  0  0
 15 16  4  0  0  0  0
 16 17  4  0  0  0  0
 17 18  1  0  0  0  0
 18 19  1  0  0  0  0
 20 21  4  0  0  0  0
 21 22  4  0  0  0  0
 22 23  4  0  0  0  0
 24 25  4  0  0  0  0
 25 26  1  0  0  0  0
 25 30  4  0  0  0  0
 26 27  1  0  0  0  0
 27 28  1  0  0  0  0
 28 29  1  0  0  0  0
 29 30  1  0  0  0  0
 30 31  4  0  0  0  0
M  END
>  <Name_Molregno>
361902

>  <Alpha-1A>
6.83

>  <Alpha-1B>
6.35

$$$$
361997
  Marvin  02231216192D 0   1.00000     0.00000     0

 29 32  0  0  1  0  0  0  0  0999 V2000
   -0.0392   -1.3068    0.0000 O   0  0  0  0  0  0  0  0  0
   -0.7537   -0.8943    0.0000 C   0  0  0  0  0  0  0  0  0
   -0.7537   -0.0693    0.0000 C   0  0  0  0  0  0  0  0  0
   -0.0392    0.3432    0.0000 O   0  0  0  0  0  0  0  0  0
    0.6753   -0.0693    0.0000 C   0  0  0  0  0  0  0  0  0
    0.6753   -0.8943    0.0000 C   0  0  0  0  0  0  0  0  0
    1.3897   -1.3068    0.0000 C   0  0  0  0  0  0  0  0  0
    2.1042   -0.8943    0.0000 N   0  0  0  0  0  0  0  0  0
    2.8187   -1.3068    0.0000 C   0  0  0  0  0  0  0  0  0
    3.5332   -0.8943    0.0000 C   0  0  0  0  0  0  0  0  0
    4.2476   -1.3068    0.0000 O   0  0  0  0  0  0  0  0  0
    4.9621   -0.8943    0.0000 C   0  0  0  0  0  0  0  0  0
    4.9621   -0.0693    0.0000 C   0  0  0  0  0  0  0  0  0
    4.2476    0.3432    0.0000 O   0  0  0  0  0  0  0  0  0
    4.2476    1.1682    0.0000 C   0  0  0  0  0  0  0  0  0
    5.6766    0.3432    0.0000 C   0  0  0  0  0  0  0  0  0
    6.3910   -0.0693    0.0000 C   0  0  0  0  0  0  0  0  0
    6.3910   -0.8943    0.0000 C   0  0  0  0  0  0  0  0  0
    5.6766   -1.3068    0.0000 C   0  0  0  0  0  0  0  0  0
    5.6766   -2.1318    0.0000 O   0  0  0  0  0  0  0  0  0
    6.3910   -2.5443    0.0000 C   0  0  0  0  0  0  0  0  0
   -1.4681    0.3432    0.0000 C   0  0  0  0  0  0  0  0  0
   -2.1826   -0.0693    0.0000 C   0  0  0  0  0  0  0  0  0
   -2.1826   -0.8943    0.0000 C   0  0  0  0  0  0  0  0  0
   -1.4681   -1.3068    0.0000 C   0  0  0  0  0  0  0  0  0
   -2.8971   -1.3068    0.0000 C   0  0  0  0  0  0  0  0  0
   -3.6116   -0.8943    0.0000 C   0  0  0  0  0  0  0  0  0
   -3.6116   -0.0693    0.0000 C   0  0  0  0  0  0  0  0  0
   -2.8971    0.3432    0.0000 C   0  0  0  0  0  0  0  0  0
  1  2  1  0  0  0  0
  1  6  1  0  0  0  0
  2  3  4  0  0  0  0
  2 25  4  0  0  0  0
  3  4  1  0  0  0  0
  3 22  4  0  0  0  0
  4  5  1  0  0  0  0
  5  6  1  0  0  0  0
  6  7  1  0  0  0  0
  7  8  1  0  0  0  0
  8  9  1  0  0  0  0
  9 10  1  0  0  0  0
 10 11  1  0  0  0  0
 11 12  1  0  0  0  0
 12 13  4  0  0  0  0
 12 19  4  0  0  0  0
 13 14  1  0  0  0  0
 13 16  4  0  0  0  0
 14 15  1  0  0  0  0
 16 17  4  0  0  0  0
 17 18  4  0  0  0  0
 18 19  4  0  0  0  0
 19 20  1  0  0  0  0
 20 21  1  0  0  0  0
 22 23  4  0  0  0  0
 23 24  4  0  0  0  0
 23 29  4  0  0  0  0
 24 25  4  0  0  0  0
 24 26  4  0  0  0  0
 26 27  4  0  0  0  0
 27 28  4  0  0  0  0
 28 29  4  0  0  0  0
M  END
>  <Name_Molregno>
361997

>  <Alpha-1A>
7.23

>  <Alpha-1B>
6.21

$$$$
362020
  Marvin  02231216192D 0   1.00000     0.00000     0

 27 30  0  0  1  0  0  0  0  0999 V2000
   -5.4601    1.3288    0.0000 O   0  0  0  0  0  0  0  0  0
   -6.1746    0.9163    0.0000 C   0  0  0  0  0  0  0  0  0
   -6.1746    0.0912    0.0000 C   0  0  0  0  0  0  0  0  0
   -5.4601   -0.3212    0.0000 O   0  0  0  0  0  0  0  0  0
   -4.7457    0.0913    0.0000 C   0  0  0  0  0  0  0  0  0
   -4.7457    0.9163    0.0000 C   0  0  0  0  0  0  0  0  0
   -4.0312    1.3288    0.0000 C   0  0  0  0  0  0  0  0  0
   -3.3167    0.9163    0.0000 N   0  0  0  0  0  0  0  0  0
   -2.6023    1.3288    0.0000 C   0  0  0  0  0  0  0  0  0
   -1.8878    0.9163    0.0000 C   0  0  0  0  0  0  0  0  0
   -1.1733    1.3288    0.0000 O   0  0  0  0  0  0  0  0  0
   -0.4588    0.9163    0.0000 C   0  0  0  0  0  0  0  0  0
   -0.4588    0.0913    0.0000 C   0  0  0  0  0  0  0  0  0
    0.2556   -0.3212    0.0000 C   0  0  0  0  0  0  0  0  0
    0.9701    0.0913    0.0000 C   0  0  0  0  0  0  0  0  0
    0.9701    0.9163    0.0000 C   0  0  0  0  0  0  0  0  0
    0.2556    1.3288    0.0000 C   0  0  0  0  0  0  0  0  0
    0.2556    2.1538    0.0000 O   0  0  0  0  0  0  0  0  0
    0.9701    2.5663    0.0000 C   0  0  0  0  0  0  0  0  0
    0.2556   -1.1463    0.0000 C   0  0  0  0  0  0  0  0  0
   -0.4588   -1.5588    0.0000 C   0  0  0  0  0  0  0  0  0
   -1.1733   -1.1463    0.0000 C   0  0  0  0  0  0  0  0  0
   -1.1733   -0.3213    0.0000 C   0  0  0  0  0  0  0  0  0
   -6.8891   -0.3213    0.0000 C   0  0  0  0  0  0  0  0  0
   -7.6036    0.0912    0.0000 C   0  0  0  0  0  0  0  0  0
   -7.6036    0.9162    0.0000 C   0  0  0  0  0  0  0  0  0
   -6.8891    1.3287    0.0000 C   0  0  0  0  0  0  0  0  0
  1  2  1  0  0  0  0
  1  6  1  0  0  0  0
  2  3  4  0  0  0  0
  2 27  4  0  0  0  0
  3  4  1  0  0  0  0
  3 24  4  0  0  0  0
  4  5  1  0  0  0  0
  5  6  1  0  0  0  0
  6  7  1  0  0  0  0
  7  8  1  0  0  0  0
  8  9  1  0  0  0  0
  9 10  1  0  0  0  0
 10 11  1  0  0  0  0
 11 12  1  0  0  0  0
 12 13  4  0  0  0  0
 12 17  4  0  0  0  0
 13 14  4  0  0  0  0
 13 23  4  0  0  0  0
 14 15  4  0  0  0  0
 14 20  4  0  0  0  0
 15 16  4  0  0  0  0
 16 17  4  0  0  0  0
 17 18  1  0  0  0  0
 18 19  1  0  0  0  0
 20 21  4  0  0  0  0
 21 22  4  0  0  0  0
 22 23  4  0  0  0  0
 24 25  4  0  0  0  0
 25 26  4  0  0  0  0
 26 27  4  0  0  0  0
M  END
>  <Name_Molregno>
362020

>  <Alpha-1A>
8.57

>  <Alpha-1B>
7.44

$$$$
369415
  Marvin  02231216192D 0   1.00000     0.00000     0

 31 35  0  0  0  0  0  0  0  0999 V2000
    0.1137   -0.8640    0.0000 S   0  0  0  0  0  0  0  0  0
    0.7811   -0.3791    0.0000 C   0  0  0  0  0  0  0  0  0
    0.5262    0.4056    0.0000 C   0  0  0  0  0  0  0  0  0
    1.0782    1.0187    0.0000 N   0  0  0  0  0  0  0  0  0
    1.8852    0.8471    0.0000 C   0  0  0  0  0  0  0  0  0
    2.4372    1.4602    0.0000 O   0  0  0  0  0  0  0  0  0
    2.1402    0.0625    0.0000 N   0  0  0  0  0  0  0  0  0
    2.9471   -0.1090    0.0000 C   0  0  0  0  0  0  0  0  0
    3.4992    0.5041    0.0000 C   0  0  0  0  0  0  0  0  0
    4.3061    0.3326    0.0000 N   0  0  0  0  0  0  0  0  0
    4.8582    0.9456    0.0000 C   0  0  0  0  0  0  0  0  0
    5.6651    0.7741    0.0000 C   0  0  0  0  0  0  0  0  0
    5.9201   -0.0105    0.0000 N   0  0  0  0  0  0  0  0  0
    5.3680   -0.6236    0.0000 C   0  0  0  0  0  0  0  0  0
    4.5611   -0.4521    0.0000 C   0  0  0  0  0  0  0  0  0
    6.7270   -0.1820    0.0000 C   0  0  0  0  0  0  0  0  0
    7.2791    0.4311    0.0000 C   0  0  0  0  0  0  0  0  0
    8.0860    0.2595    0.0000 C   0  0  0  0  0  0  0  0  0
    8.3410   -0.5251    0.0000 C   0  0  0  0  0  0  0  0  0
    7.7890   -1.1382    0.0000 C   0  0  0  0  0  0  0  0  0
    6.9820   -0.9666    0.0000 C   0  0  0  0  0  0  0  0  0
    6.4299   -1.5797    0.0000 O   0  0  0  0  0  0  0  0  0
    6.6849   -2.3644    0.0000 C   0  0  0  0  0  0  0  0  0
    1.5881   -0.5506    0.0000 C   0  0  0  0  0  0  0  0  0
    1.8431   -1.3352    0.0000 O   0  0  0  0  0  0  0  0  0
   -0.2988    0.4056    0.0000 C   0  0  0  0  0  0  0  0  0
   -0.5537   -0.3791    0.0000 C   0  0  0  0  0  0  0  0  0
   -1.3607   -0.5506    0.0000 C   0  0  0  0  0  0  0  0  0
   -1.9127    0.0625    0.0000 C   0  0  0  0  0  0  0  0  0
   -1.6578    0.8471    0.0000 C   0  0  0  0  0  0  0  0  0
   -0.8508    1.0187    0.0000 C   0  0  0  0  0  0  0  0  0
  1  2  4  0  0  0  0
  1 27  4  0  0  0  0
  2  3  4  0  0  0  0
  2 24  1  0  0  0  0
  3  4  1  0  0  0  0
  3 26  4  0  0  0  0
  4  5  1  0  0  0  0
  5  6  2  0  0  0  0
  5  7  1  0  0  0  0
  7  8  1  0  0  0  0
  7 24  1  0  0  0  0
  8  9  1  0  0  0  0
  9 10  1  0  0  0  0
 10 11  1  0  0  0  0
 10 15  1  0  0  0  0
 11 12  1  0  0  0  0
 12 13  1  0  0  0  0
 13 14  1  0  0  0  0
 13 16  1  0  0  0  0
 14 15  1  0  0  0  0
 16 17  4  0  0  0  0
 16 21  4  0  0  0  0
 17 18  4  0  0  0  0
 18 19  4  0  0  0  0
 19 20  4  0  0  0  0
 20 21  4  0  0  0  0
 21 22  1  0  0  0  0
 22 23  1  0  0  0  0
 24 25  2  0  0  0  0
 26 27  4  0  0  0  0
 26 31  4  0  0  0  0
 27 28  4  0  0  0  0
 28 29  4  0  0  0  0
 29 30  4  0  0  0  0
 30 31  4  0  0  0  0
M  END
>  <Name_Molregno>
369415

>  <Alpha-1A>
8.48

>  <Alpha-1B>
8.05

$$$$
369434
  Marvin  02231216192D 0   1.00000     0.00000     0

 31 35  0  0  0  0  0  0  0  0999 V2000
   -0.7500    2.0989    0.0000 O   0  0  0  0  0  0  0  0  0
   -0.4951    2.8835    0.0000 C   0  0  0  0  0  0  0  0  0
   -0.1980    1.4858    0.0000 C   0  0  0  0  0  0  0  0  0
    0.6090    1.6573    0.0000 C   0  0  0  0  0  0  0  0  0
    1.1610    1.0442    0.0000 C   0  0  0  0  0  0  0  0  0
    0.9061    0.2596    0.0000 C   0  0  0  0  0  0  0  0  0
    0.0991    0.0881    0.0000 C   0  0  0  0  0  0  0  0  0
   -0.4529    0.7012    0.0000 C   0  0  0  0  0  0  0  0  0
   -1.2599    0.5297    0.0000 N   0  0  0  0  0  0  0  0  0
   -1.5148   -0.2550    0.0000 C   0  0  0  0  0  0  0  0  0
   -2.3218   -0.4265    0.0000 C   0  0  0  0  0  0  0  0  0
   -2.8738    0.1866    0.0000 N   0  0  0  0  0  0  0  0  0
   -2.6189    0.9712    0.0000 C   0  0  0  0  0  0  0  0  0
   -1.8119    1.1428    0.0000 C   0  0  0  0  0  0  0  0  0
   -3.6808    0.0151    0.0000 C   0  0  0  0  0  0  0  0  0
   -3.9358   -0.7695    0.0000 C   0  0  0  0  0  0  0  0  0
   -4.7427   -0.9411    0.0000 N   0  0  0  0  0  0  0  0  0
   -4.9977   -1.7257    0.0000 C   0  0  0  0  0  0  0  0  0
   -5.8046   -1.8972    0.0000 N   0  0  0  0  0  0  0  0  0
   -6.3567   -1.2841    0.0000 C   0  0  0  0  0  0  0  0  0
   -6.1017   -0.4995    0.0000 C   0  0  0  0  0  0  0  0  0
   -6.7692   -0.0146    0.0000 N   0  0  0  0  0  0  0  0  0
   -7.4366   -0.4995    0.0000 C   0  0  0  0  0  0  0  0  0
   -7.1817   -1.2841    0.0000 C   0  0  0  0  0  0  0  0  0
   -7.7337   -1.8972    0.0000 C   0  0  0  0  0  0  0  0  0
   -8.5407   -1.7257    0.0000 C   0  0  0  0  0  0  0  0  0
   -8.7956   -0.9411    0.0000 C   0  0  0  0  0  0  0  0  0
   -8.2436   -0.3280    0.0000 C   0  0  0  0  0  0  0  0  0
   -5.2948   -0.3280    0.0000 C   0  0  0  0  0  0  0  0  0
   -5.0398    0.4566    0.0000 O   0  0  0  0  0  0  0  0  0
   -4.4456   -2.3388    0.0000 C   0  0  0  0  0  0  0  0  0
  1  2  1  0  0  0  0
  1  3  1  0  0  0  0
  3  4  4  0  0  0  0
  3  8  4  0  0  0  0
  4  5  4  0  0  0  0
  5  6  4  0  0  0  0
  6  7  4  0  0  0  0
  7  8  4  0  0  0  0
  8  9  1  0  0  0  0
  9 10  1  0  0  0  0
  9 14  1  0  0  0  0
 10 11  1  0  0  0  0
 11 12  1  0  0  0  0
 12 13  1  0  0  0  0
 12 15  1  0  0  0  0
 13 14  1  0  0  0  0
 15 16  1  0  0  0  0
 16 17  1  0  0  0  0
 17 18  1  0  0  0  0
 17 29  1  0  0  0  0
 18 19  2  0  0  0  0
 18 31  1  0  0  0  0
 19 20  1  0  0  0  0
 20 21  4  0  0  0  0
 20 24  4  0  0  0  0
 21 22  4  0  0  0  0
 21 29  1  0  0  0  0
 22 23  4  0  0  0  0
 23 24  4  0  0  0  0
 23 28  4  0  0  0  0
 24 25  4  0  0  0  0
 25 26  4  0  0  0  0
 26 27  4  0  0  0  0
 27 28  4  0  0  0  0
 29 30  2  0  0  0  0
M  STY  1   1 DAT
M  SAL   1  1  22
M  SDT   1 MRV_IMPLICIT_H                                        
M  SDD   1     0.0000    0.0000    DR    ALL  0       0  
M  SED   1 IMPL_H1
M  END
>  <Name_Molregno>
369434

>  <Alpha-1A>
8.52

>  <Alpha-1B>
7.68

$$$$
369435
  Marvin  02231216192D 0   1.00000     0.00000     0

 32 36  0  0  0  0  0  0  0  0999 V2000
   -9.9730   -0.0691    0.0000 Cl  0  0  0  0  0  0  0  0  0
   -9.4209   -0.6822    0.0000 C   0  0  0  0  0  0  0  0  0
   -8.6140   -0.5106    0.0000 C   0  0  0  0  0  0  0  0  0
   -8.0619   -1.1237    0.0000 C   0  0  0  0  0  0  0  0  0
   -7.2550   -0.9522    0.0000 N   0  0  0  0  0  0  0  0  0
   -7.0000   -0.1676    0.0000 C   0  0  0  0  0  0  0  0  0
   -6.1931    0.0039    0.0000 C   0  0  0  0  0  0  0  0  0
   -5.6410   -0.6092    0.0000 N   0  0  0  0  0  0  0  0  0
   -5.8960   -1.3938    0.0000 C   0  0  0  0  0  0  0  0  0
   -6.7029   -1.5653    0.0000 C   0  0  0  0  0  0  0  0  0
   -4.8340   -0.4376    0.0000 C   0  0  0  0  0  0  0  0  0
   -4.2820   -1.0507    0.0000 C   0  0  0  0  0  0  0  0  0
   -3.4750   -0.8792    0.0000 N   0  0  0  0  0  0  0  0  0
   -2.9230   -1.4923    0.0000 C   0  0  0  0  0  0  0  0  0
   -3.1780   -2.2769    0.0000 O   0  0  0  0  0  0  0  0  0
   -2.1160   -1.3208    0.0000 C   0  0  0  0  0  0  0  0  0
   -1.4486   -1.8057    0.0000 N   0  0  0  0  0  0  0  0  0
   -0.7812   -1.3208    0.0000 C   0  0  0  0  0  0  0  0  0
   -1.0361   -0.5361    0.0000 C   0  0  0  0  0  0  0  0  0
   -1.8611   -0.5361    0.0000 C   0  0  0  0  0  0  0  0  0
   -2.4131    0.0769    0.0000 N   0  0  0  0  0  0  0  0  0
   -3.2201   -0.0946    0.0000 C   0  0  0  0  0  0  0  0  0
   -3.7721    0.5185    0.0000 O   0  0  0  0  0  0  0  0  0
   -0.4841    0.0769    0.0000 C   0  0  0  0  0  0  0  0  0
    0.3229   -0.0946    0.0000 C   0  0  0  0  0  0  0  0  0
    0.5778   -0.8792    0.0000 C   0  0  0  0  0  0  0  0  0
    0.0258   -1.4923    0.0000 C   0  0  0  0  0  0  0  0  0
   -8.3169   -1.9084    0.0000 C   0  0  0  0  0  0  0  0  0
   -7.7648   -2.5215    0.0000 O   0  0  0  0  0  0  0  0  0
   -8.0198   -3.3061    0.0000 C   0  0  0  0  0  0  0  0  0
   -9.1238   -2.0799    0.0000 C   0  0  0  0  0  0  0  0  0
   -9.6759   -1.4668    0.0000 C   0  0  0  0  0  0  0  0  0
  1  2  1  0  0  0  0
  2  3  4  0  0  0  0
  2 32  4  0  0  0  0
  3  4  4  0  0  0  0
  4  5  1  0  0  0  0
  4 28  4  0  0  0  0
  5  6  1  0  0  0  0
  5 10  1  0  0  0  0
  6  7  1  0  0  0  0
  7  8  1  0  0  0  0
  8  9  1  0  0  0  0
  8 11  1  0  0  0  0
  9 10  1  0  0  0  0
 11 12  1  0  0  0  0
 12 13  1  0  0  0  0
 13 14  1  0  0  0  0
 13 22  1  0  0  0  0
 14 15  2  0  0  0  0
 14 16  1  0  0  0  0
 16 17  4  0  0  0  0
 16 20  4  0  0  0  0
 17 18  4  0  0  0  0
 18 19  4  0  0  0  0
 18 27  4  0  0  0  0
 19 20  4  0  0  0  0
 19 24  4  0  0  0  0
 20 21  1  0  0  0  0
 21 22  1  0  0  0  0
 22 23  2  0  0  0  0
 24 25  4  0  0  0  0
 25 26  4  0  0  0  0
 26 27  4  0  0  0  0
 28 29  1  0  0  0  0
 28 31  4  0  0  0  0
 29 30  1  0  0  0  0
 31 32  4  0  0  0  0
M  STY  1   1 DAT
M  SAL   1  1  17
M  SDT   1 MRV_IMPLICIT_H                                        
M  SDD   1     0.0000    0.0000    DR    ALL  0       0  
M  SED   1 IMPL_H1
M  END
>  <Name_Molregno>
369435

>  <Alpha-1A>
8.08

>  <Alpha-1B>
7.97

$$$$
369440
  Marvin  02231216192D 0   1.00000     0.00000     0

 32 36  0  0  0  0  0  0  0  0999 V2000
   -9.9730   -0.0691    0.0000 Cl  0  0  0  0  0  0  0  0  0
   -9.4209   -0.6822    0.0000 C   0  0  0  0  0  0  0  0  0
   -8.6140   -0.5106    0.0000 C   0  0  0  0  0  0  0  0  0
   -8.0619   -1.1237    0.0000 C   0  0  0  0  0  0  0  0  0
   -7.2550   -0.9522    0.0000 N   0  0  0  0  0  0  0  0  0
   -7.0000   -0.1676    0.0000 C   0  0  0  0  0  0  0  0  0
   -6.1931    0.0039    0.0000 C   0  0  0  0  0  0  0  0  0
   -5.6410   -0.6092    0.0000 N   0  0  0  0  0  0  0  0  0
   -5.8960   -1.3938    0.0000 C   0  0  0  0  0  0  0  0  0
   -6.7029   -1.5653    0.0000 C   0  0  0  0  0  0  0  0  0
   -4.8340   -0.4376    0.0000 C   0  0  0  0  0  0  0  0  0
   -4.2820   -1.0507    0.0000 C   0  0  0  0  0  0  0  0  0
   -3.4750   -0.8792    0.0000 N   0  0  0  0  0  0  0  0  0
   -2.9230   -1.4923    0.0000 C   0  0  0  0  0  0  0  0  0
   -3.1780   -2.2769    0.0000 O   0  0  0  0  0  0  0  0  0
   -2.1160   -1.3208    0.0000 C   0  0  0  0  0  0  0  0  0
   -1.4486   -1.8057    0.0000 S   0  0  0  0  0  0  0  0  0
   -0.7812   -1.3208    0.0000 C   0  0  0  0  0  0  0  0  0
   -1.0361   -0.5361    0.0000 C   0  0  0  0  0  0  0  0  0
   -1.8611   -0.5361    0.0000 C   0  0  0  0  0  0  0  0  0
   -2.4131    0.0769    0.0000 N   0  0  0  0  0  0  0  0  0
   -3.2201   -0.0946    0.0000 C   0  0  0  0  0  0  0  0  0
   -3.7721    0.5185    0.0000 O   0  0  0  0  0  0  0  0  0
   -0.4841    0.0769    0.0000 C   0  0  0  0  0  0  0  0  0
    0.3229   -0.0946    0.0000 C   0  0  0  0  0  0  0  0  0
    0.5778   -0.8792    0.0000 C   0  0  0  0  0  0  0  0  0
    0.0258   -1.4923    0.0000 C   0  0  0  0  0  0  0  0  0
   -8.3169   -1.9084    0.0000 C   0  0  0  0  0  0  0  0  0
   -7.7648   -2.5215    0.0000 O   0  0  0  0  0  0  0  0  0
   -8.0198   -3.3061    0.0000 C   0  0  0  0  0  0  0  0  0
   -9.1238   -2.0799    0.0000 C   0  0  0  0  0  0  0  0  0
   -9.6759   -1.4668    0.0000 C   0  0  0  0  0  0  0  0  0
  1  2  1  0  0  0  0
  2  3  4  0  0  0  0
  2 32  4  0  0  0  0
  3  4  4  0  0  0  0
  4  5  1  0  0  0  0
  4 28  4  0  0  0  0
  5  6  1  0  0  0  0
  5 10  1  0  0  0  0
  6  7  1  0  0  0  0
  7  8  1  0  0  0  0
  8  9  1  0  0  0  0
  8 11  1  0  0  0  0
  9 10  1  0  0  0  0
 11 12  1  0  0  0  0
 12 13  1  0  0  0  0
 13 14  1  0  0  0  0
 13 22  1  0  0  0  0
 14 15  2  0  0  0  0
 14 16  1  0  0  0  0
 16 17  4  0  0  0  0
 16 20  4  0  0  0  0
 17 18  4  0  0  0  0
 18 19  4  0  0  0  0
 18 27  4  0  0  0  0
 19 20  4  0  0  0  0
 19 24  4  0  0  0  0
 20 21  1  0  0  0  0
 21 22  1  0  0  0  0
 22 23  2  0  0  0  0
 24 25  4  0  0  0  0
 25 26  4  0  0  0  0
 26 27  4  0  0  0  0
 28 29  1  0  0  0  0
 28 31  4  0  0  0  0
 29 30  1  0  0  0  0
 31 32  4  0  0  0  0
M  END
>  <Name_Molregno>
369440

>  <Alpha-1A>
7.27

>  <Alpha-1B>
7.04

$$$$
369449
  Marvin  02231216192D 0   1.00000     0.00000     0

 31 35  0  0  0  0  0  0  0  0999 V2000
   -0.1352    1.6254    0.0000 Cl  0  0  0  0  0  0  0  0  0
    0.4168    1.0123    0.0000 C   0  0  0  0  0  0  0  0  0
    1.2238    1.1838    0.0000 C   0  0  0  0  0  0  0  0  0
    1.7758    0.5707    0.0000 C   0  0  0  0  0  0  0  0  0
    2.5828    0.7423    0.0000 N   0  0  0  0  0  0  0  0  0
    2.8377    1.5269    0.0000 C   0  0  0  0  0  0  0  0  0
    3.6447    1.6984    0.0000 C   0  0  0  0  0  0  0  0  0
    4.1967    1.0853    0.0000 N   0  0  0  0  0  0  0  0  0
    3.9418    0.3007    0.0000 C   0  0  0  0  0  0  0  0  0
    3.1348    0.1292    0.0000 C   0  0  0  0  0  0  0  0  0
    5.0037    1.2568    0.0000 C   0  0  0  0  0  0  0  0  0
    5.5557    0.6438    0.0000 C   0  0  0  0  0  0  0  0  0
    6.3627    0.8153    0.0000 N   0  0  0  0  0  0  0  0  0
    6.9147    0.2022    0.0000 C   0  0  0  0  0  0  0  0  0
    6.6598   -0.5824    0.0000 O   0  0  0  0  0  0  0  0  0
    7.7217    0.3737    0.0000 C   0  0  0  0  0  0  0  0  0
    8.3891   -0.1112    0.0000 S   0  0  0  0  0  0  0  0  0
    9.0566    0.3737    0.0000 C   0  0  0  0  0  0  0  0  0
    8.8016    1.1583    0.0000 C   0  0  0  0  0  0  0  0  0
    7.9766    1.1583    0.0000 C   0  0  0  0  0  0  0  0  0
    7.4246    1.7714    0.0000 N   0  0  0  0  0  0  0  0  0
    6.6176    1.5999    0.0000 C   0  0  0  0  0  0  0  0  0
    6.0656    2.2130    0.0000 O   0  0  0  0  0  0  0  0  0
    9.3537    1.7714    0.0000 C   0  0  0  0  0  0  0  0  0
   10.1606    1.5999    0.0000 C   0  0  0  0  0  0  0  0  0
   10.4156    0.8153    0.0000 C   0  0  0  0  0  0  0  0  0
    9.8635    0.2022    0.0000 C   0  0  0  0  0  0  0  0  0
    1.5209   -0.2139    0.0000 C   0  0  0  0  0  0  0  0  0
    0.7139   -0.3854    0.0000 C   0  0  0  0  0  0  0  0  0
    0.1618    0.2277    0.0000 C   0  0  0  0  0  0  0  0  0
   -0.6451    0.0562    0.0000 Cl  0  0  0  0  0  0  0  0  0
  1  2  1  0  0  0  0
  2  3  4  0  0  0  0
  2 30  4  0  0  0  0
  3  4  4  0  0  0  0
  4  5  1  0  0  0  0
  4 28  4  0  0  0  0
  5  6  1  0  0  0  0
  5 10  1  0  0  0  0
  6  7  1  0  0  0  0
  7  8  1  0  0  0  0
  8  9  1  0  0  0  0
  8 11  1  0  0  0  0
  9 10  1  0  0  0  0
 11 12  1  0  0  0  0
 12 13  1  0  0  0  0
 13 14  1  0  0  0  0
 13 22  1  0  0  0  0
 14 15  2  0  0  0  0
 14 16  1  0  0  0  0
 16 17  4  0  0  0  0
 16 20  4  0  0  0  0
 17 18  4  0  0  0  0
 18 19  4  0  0  0  0
 18 27  4  0  0  0  0
 19 20  4  0  0  0  0
 19 24  4  0  0  0  0
 20 21  1  0  0  0  0
 21 22  1  0  0  0  0
 22 23  2  0  0  0  0
 24 25  4  0  0  0  0
 25 26  4  0  0  0  0
 26 27  4  0  0  0  0
 28 29  4  0  0  0  0
 29 30  4  0  0  0  0
 30 31  1  0  0  0  0
M  END
>  <Name_Molregno>
369449

>  <Alpha-1A>
5.37

>  <Alpha-1B>
4.72

$$$$
369450
  Marvin  02231216192D 0   1.00000     0.00000     0

 33 37  0  0  0  0  0  0  0  0999 V2000
   -0.1525    1.7027    0.0000 Cl  0  0  0  0  0  0  0  0  0
    0.3996    1.0896    0.0000 C   0  0  0  0  0  0  0  0  0
    1.2065    1.2611    0.0000 C   0  0  0  0  0  0  0  0  0
    1.7586    0.6480    0.0000 C   0  0  0  0  0  0  0  0  0
    2.5655    0.8195    0.0000 N   0  0  0  0  0  0  0  0  0
    2.8205    1.6041    0.0000 C   0  0  0  0  0  0  0  0  0
    3.6275    1.7757    0.0000 C   0  0  0  0  0  0  0  0  0
    4.1795    1.1626    0.0000 N   0  0  0  0  0  0  0  0  0
    3.9245    0.3780    0.0000 C   0  0  0  0  0  0  0  0  0
    3.1176    0.2064    0.0000 C   0  0  0  0  0  0  0  0  0
    4.9865    1.3341    0.0000 C   0  0  0  0  0  0  0  0  0
    5.5385    0.7210    0.0000 C   0  0  0  0  0  0  0  0  0
    6.3455    0.8925    0.0000 N   0  0  0  0  0  0  0  0  0
    6.8975    0.2794    0.0000 C   0  0  0  0  0  0  0  0  0
    6.6426   -0.5052    0.0000 O   0  0  0  0  0  0  0  0  0
    7.7045    0.4510    0.0000 C   0  0  0  0  0  0  0  0  0
    8.3719   -0.0339    0.0000 N   0  0  0  0  0  0  0  0  0
    9.0393    0.4510    0.0000 C   0  0  0  0  0  0  0  0  0
    8.7844    1.2356    0.0000 C   0  0  0  0  0  0  0  0  0
    7.9594    1.2356    0.0000 C   0  0  0  0  0  0  0  0  0
    7.4074    1.8487    0.0000 N   0  0  0  0  0  0  0  0  0
    7.6623    2.6333    0.0000 C   0  0  0  0  0  0  0  0  0
    6.6004    1.6772    0.0000 C   0  0  0  0  0  0  0  0  0
    6.0484    2.2903    0.0000 O   0  0  0  0  0  0  0  0  0
    9.3364    1.8487    0.0000 C   0  0  0  0  0  0  0  0  0
   10.1434    1.6772    0.0000 C   0  0  0  0  0  0  0  0  0
   10.3983    0.8925    0.0000 C   0  0  0  0  0  0  0  0  0
    9.8463    0.2794    0.0000 C   0  0  0  0  0  0  0  0  0
    8.3719   -0.8589    0.0000 C   0  0  0  0  0  0  0  0  0
    1.5036   -0.1366    0.0000 C   0  0  0  0  0  0  0  0  0
    0.6967   -0.3081    0.0000 C   0  0  0  0  0  0  0  0  0
    0.1446    0.3049    0.0000 C   0  0  0  0  0  0  0  0  0
   -0.6623    0.1334    0.0000 Cl  0  0  0  0  0  0  0  0  0
  1  2  1  0  0  0  0
  2  3  4  0  0  0  0
  2 32  4  0  0  0  0
  3  4  4  0  0  0  0
  4  5  1  0  0  0  0
  4 30  4  0  0  0  0
  5  6  1  0  0  0  0
  5 10  1  0  0  0  0
  6  7  1  0  0  0  0
  7  8  1  0  0  0  0
  8  9  1  0  0  0  0
  8 11  1  0  0  0  0
  9 10  1  0  0  0  0
 11 12  1  0  0  0  0
 12 13  1  0  0  0  0
 13 14  1  0  0  0  0
 13 23  1  0  0  0  0
 14 15  2  0  0  0  0
 14 16  1  0  0  0  0
 16 17  4  0  0  0  0
 16 20  4  0  0  0  0
 17 18  4  0  0  0  0
 17 29  1  0  0  0  0
 18 19  4  0  0  0  0
 18 28  4  0  0  0  0
 19 20  4  0  0  0  0
 19 25  4  0  0  0  0
 20 21  1  0  0  0  0
 21 22  1  0  0  0  0
 21 23  1  0  0  0  0
 23 24  2  0  0  0  0
 25 26  4  0  0  0  0
 26 27  4  0  0  0  0
 27 28  4  0  0  0  0
 30 31  4  0  0  0  0
 31 32  4  0  0  0  0
 32 33  1  0  0  0  0
M  END
>  <Name_Molregno>
369450

>  <Alpha-1A>
6.74

>  <Alpha-1B>
6.22

$$$$
369454
  Marvin  02231216192D 0   1.00000     0.00000     0

 32 36  0  0  0  0  0  0  0  0999 V2000
    0.2896   -1.2256    0.0000 Cl  0  0  0  0  0  0  0  0  0
   -0.2624   -0.6125    0.0000 C   0  0  0  0  0  0  0  0  0
   -1.0694   -0.7841    0.0000 C   0  0  0  0  0  0  0  0  0
   -1.6214   -0.1710    0.0000 C   0  0  0  0  0  0  0  0  0
   -2.4284   -0.3425    0.0000 N   0  0  0  0  0  0  0  0  0
   -2.6833   -1.1271    0.0000 C   0  0  0  0  0  0  0  0  0
   -3.4903   -1.2986    0.0000 C   0  0  0  0  0  0  0  0  0
   -4.0423   -0.6855    0.0000 N   0  0  0  0  0  0  0  0  0
   -3.7874    0.0991    0.0000 C   0  0  0  0  0  0  0  0  0
   -2.9804    0.2706    0.0000 C   0  0  0  0  0  0  0  0  0
   -4.8493   -0.8571    0.0000 C   0  0  0  0  0  0  0  0  0
   -5.1042   -1.6417    0.0000 C   0  0  0  0  0  0  0  0  0
   -5.9112   -1.8132    0.0000 N   0  0  0  0  0  0  0  0  0
   -6.1662   -2.5978    0.0000 C   0  0  0  0  0  0  0  0  0
   -6.9731   -2.7694    0.0000 N   0  0  0  0  0  0  0  0  0
   -7.5252   -2.1563    0.0000 C   0  0  0  0  0  0  0  0  0
   -7.2702   -1.3716    0.0000 C   0  0  0  0  0  0  0  0  0
   -7.9377   -0.8867    0.0000 N   0  0  0  0  0  0  0  0  0
   -8.6051   -1.3716    0.0000 C   0  0  0  0  0  0  0  0  0
   -8.3502   -2.1563    0.0000 C   0  0  0  0  0  0  0  0  0
   -8.9022   -2.7694    0.0000 C   0  0  0  0  0  0  0  0  0
   -9.7092   -2.5978    0.0000 C   0  0  0  0  0  0  0  0  0
   -9.9641   -1.8132    0.0000 C   0  0  0  0  0  0  0  0  0
   -9.4121   -1.2001    0.0000 C   0  0  0  0  0  0  0  0  0
   -6.4633   -1.2001    0.0000 C   0  0  0  0  0  0  0  0  0
   -6.2083   -0.4155    0.0000 O   0  0  0  0  0  0  0  0  0
   -5.6141   -3.2109    0.0000 C   0  0  0  0  0  0  0  0  0
   -1.3665    0.6137    0.0000 C   0  0  0  0  0  0  0  0  0
   -1.9185    1.2268    0.0000 O   0  0  0  0  0  0  0  0  0
   -1.6636    2.0114    0.0000 C   0  0  0  0  0  0  0  0  0
   -0.5595    0.7852    0.0000 C   0  0  0  0  0  0  0  0  0
   -0.0075    0.1721    0.0000 C   0  0  0  0  0  0  0  0  0
  1  2  1  0  0  0  0
  2  3  4  0  0  0  0
  2 32  4  0  0  0  0
  3  4  4  0  0  0  0
  4  5  1  0  0  0  0
  4 28  4  0  0  0  0
  5  6  1  0  0  0  0
  5 10  1  0  0  0  0
  6  7  1  0  0  0  0
  7  8  1  0  0  0  0
  8  9  1  0  0  0  0
  8 11  1  0  0  0  0
  9 10  1  0  0  0  0
 11 12  1  0  0  0  0
 12 13  1  0  0  0  0
 13 14  1  0  0  0  0
 13 25  1  0  0  0  0
 14 15  2  0  0  0  0
 14 27  1  0  0  0  0
 15 16  1  0  0  0  0
 16 17  4  0  0  0  0
 16 20  4  0  0  0  0
 17 18  4  0  0  0  0
 17 25  1  0  0  0  0
 18 19  4  0  0  0  0
 19 20  4  0  0  0  0
 19 24  4  0  0  0  0
 20 21  4  0  0  0  0
 21 22  4  0  0  0  0
 22 23  4  0  0  0  0
 23 24  4  0  0  0  0
 25 26  2  0  0  0  0
 28 29  1  0  0  0  0
 28 31  4  0  0  0  0
 29 30  1  0  0  0  0
 31 32  4  0  0  0  0
M  STY  1   1 DAT
M  SAL   1  1  18
M  SDT   1 MRV_IMPLICIT_H                                        
M  SDD   1     0.0000    0.0000    DR    ALL  0       0  
M  SED   1 IMPL_H1
M  END
>  <Name_Molregno>
369454

>  <Alpha-1A>
8.88

>  <Alpha-1B>
8.35

$$$$
369455
  Marvin  02231216192D 0   1.00000     0.00000     0

 31 35  0  0  0  0  0  0  0  0999 V2000
   10.3104   -0.0240    0.0000 Cl  0  0  0  0  0  0  0  0  0
    9.7583    0.5891    0.0000 C   0  0  0  0  0  0  0  0  0
    8.9514    0.4175    0.0000 C   0  0  0  0  0  0  0  0  0
    8.3993    1.0306    0.0000 C   0  0  0  0  0  0  0  0  0
    7.5924    0.8591    0.0000 N   0  0  0  0  0  0  0  0  0
    7.3374    0.0745    0.0000 C   0  0  0  0  0  0  0  0  0
    6.5304   -0.0970    0.0000 C   0  0  0  0  0  0  0  0  0
    5.9784    0.5160    0.0000 N   0  0  0  0  0  0  0  0  0
    6.2333    1.3007    0.0000 C   0  0  0  0  0  0  0  0  0
    7.0403    1.4722    0.0000 C   0  0  0  0  0  0  0  0  0
    5.1714    0.3445    0.0000 C   0  0  0  0  0  0  0  0  0
    4.6194    0.9576    0.0000 C   0  0  0  0  0  0  0  0  0
    3.8124    0.7861    0.0000 N   0  0  0  0  0  0  0  0  0
    3.5575    0.0015    0.0000 C   0  0  0  0  0  0  0  0  0
    2.7505   -0.1701    0.0000 N   0  0  0  0  0  0  0  0  0
    2.1985    0.4430    0.0000 C   0  0  0  0  0  0  0  0  0
    2.4534    1.2277    0.0000 C   0  0  0  0  0  0  0  0  0
    1.7860    1.7126    0.0000 N   0  0  0  0  0  0  0  0  0
    1.1186    1.2277    0.0000 C   0  0  0  0  0  0  0  0  0
    1.3735    0.4430    0.0000 C   0  0  0  0  0  0  0  0  0
    0.8215   -0.1701    0.0000 C   0  0  0  0  0  0  0  0  0
    0.0145    0.0015    0.0000 C   0  0  0  0  0  0  0  0  0
   -0.2405    0.7861    0.0000 C   0  0  0  0  0  0  0  0  0
    0.3116    1.3992    0.0000 C   0  0  0  0  0  0  0  0  0
    3.2604    1.3992    0.0000 C   0  0  0  0  0  0  0  0  0
    3.5153    2.1838    0.0000 O   0  0  0  0  0  0  0  0  0
    4.1095   -0.6116    0.0000 C   0  0  0  0  0  0  0  0  0
    8.6543    1.8153    0.0000 C   0  0  0  0  0  0  0  0  0
    9.4612    1.9868    0.0000 C   0  0  0  0  0  0  0  0  0
   10.0133    1.3737    0.0000 C   0  0  0  0  0  0  0  0  0
   10.8202    1.5452    0.0000 Cl  0  0  0  0  0  0  0  0  0
  1  2  1  0  0  0  0
  2  3  4  0  0  0  0
  2 30  4  0  0  0  0
  3  4  4  0  0  0  0
  4  5  1  0  0  0  0
  4 28  4  0  0  0  0
  5  6  1  0  0  0  0
  5 10  1  0  0  0  0
  6  7  1  0  0  0  0
  7  8  1  0  0  0  0
  8  9  1  0  0  0  0
  8 11  1  0  0  0  0
  9 10  1  0  0  0  0
 11 12  1  0  0  0  0
 12 13  1  0  0  0  0
 13 14  1  0  0  0  0
 13 25  1  0  0  0  0
 14 15  2  0  0  0  0
 14 27  1  0  0  0  0
 15 16  1  0  0  0  0
 16 17  4  0  0  0  0
 16 20  4  0  0  0  0
 17 18  4  0  0  0  0
 17 25  1  0  0  0  0
 18 19  4  0  0  0  0
 19 20  4  0  0  0  0
 19 24  4  0  0  0  0
 20 21  4  0  0  0  0
 21 22  4  0  0  0  0
 22 23  4  0  0  0  0
 23 24  4  0  0  0  0
 25 26  2  0  0  0  0
 28 29  4  0  0  0  0
 29 30  4  0  0  0  0
 30 31  1  0  0  0  0
M  STY  1   1 DAT
M  SAL   1  1  18
M  SDT   1 MRV_IMPLICIT_H                                        
M  SDD   1     0.0000    0.0000    DR    ALL  0       0  
M  SED   1 IMPL_H1
M  END
>  <Name_Molregno>
369455

>  <Alpha-1A>
7.52

>  <Alpha-1B>
7.08

$$$$
369461
  Marvin  02231216192D 0   1.00000     0.00000     0

 31 35  0  0  0  0  0  0  0  0999 V2000
    0.1137   -0.8640    0.0000 S   0  0  0  0  0  0  0  0  0
    0.7811   -0.3791    0.0000 C   0  0  0  0  0  0  0  0  0
    0.5262    0.4056    0.0000 C   0  0  0  0  0  0  0  0  0
    1.0782    1.0187    0.0000 N   0  0  0  0  0  0  0  0  0
    1.8852    0.8471    0.0000 C   0  0  0  0  0  0  0  0  0
    2.1402    0.0625    0.0000 N   0  0  0  0  0  0  0  0  0
    2.9471   -0.1090    0.0000 C   0  0  0  0  0  0  0  0  0
    3.4992    0.5041    0.0000 C   0  0  0  0  0  0  0  0  0
    4.3061    0.3326    0.0000 N   0  0  0  0  0  0  0  0  0
    4.8582    0.9456    0.0000 C   0  0  0  0  0  0  0  0  0
    5.6651    0.7741    0.0000 C   0  0  0  0  0  0  0  0  0
    5.9201   -0.0105    0.0000 N   0  0  0  0  0  0  0  0  0
    5.3680   -0.6236    0.0000 C   0  0  0  0  0  0  0  0  0
    4.5611   -0.4521    0.0000 C   0  0  0  0  0  0  0  0  0
    6.7270   -0.1820    0.0000 C   0  0  0  0  0  0  0  0  0
    7.2791    0.4311    0.0000 C   0  0  0  0  0  0  0  0  0
    8.0860    0.2595    0.0000 C   0  0  0  0  0  0  0  0  0
    8.3410   -0.5251    0.0000 C   0  0  0  0  0  0  0  0  0
    7.7890   -1.1382    0.0000 C   0  0  0  0  0  0  0  0  0
    6.9820   -0.9666    0.0000 C   0  0  0  0  0  0  0  0  0
    6.4299   -1.5797    0.0000 O   0  0  0  0  0  0  0  0  0
    6.6849   -2.3644    0.0000 C   0  0  0  0  0  0  0  0  0
    1.5881   -0.5506    0.0000 C   0  0  0  0  0  0  0  0  0
    1.8431   -1.3352    0.0000 O   0  0  0  0  0  0  0  0  0
    2.4372    1.4602    0.0000 C   0  0  0  0  0  0  0  0  0
   -0.2988    0.4056    0.0000 C   0  0  0  0  0  0  0  0  0
   -0.5537   -0.3791    0.0000 C   0  0  0  0  0  0  0  0  0
   -1.3607   -0.5506    0.0000 C   0  0  0  0  0  0  0  0  0
   -1.9127    0.0625    0.0000 C   0  0  0  0  0  0  0  0  0
   -1.6578    0.8471    0.0000 C   0  0  0  0  0  0  0  0  0
   -0.8508    1.0187    0.0000 C   0  0  0  0  0  0  0  0  0
  1  2  4  0  0  0  0
  1 27  4  0  0  0  0
  2  3  4  0  0  0  0
  2 23  1  0  0  0  0
  3  4  1  0  0  0  0
  3 26  4  0  0  0  0
  4  5  2  0  0  0  0
  5  6  1  0  0  0  0
  5 25  1  0  0  0  0
  6  7  1  0  0  0  0
  6 23  1  0  0  0  0
  7  8  1  0  0  0  0
  8  9  1  0  0  0  0
  9 10  1  0  0  0  0
  9 14  1  0  0  0  0
 10 11  1  0  0  0  0
 11 12  1  0  0  0  0
 12 13  1  0  0  0  0
 12 15  1  0  0  0  0
 13 14  1  0  0  0  0
 15 16  4  0  0  0  0
 15 20  4  0  0  0  0
 16 17  4  0  0  0  0
 17 18  4  0  0  0  0
 18 19  4  0  0  0  0
 19 20  4  0  0  0  0
 20 21  1  0  0  0  0
 21 22  1  0  0  0  0
 23 24  2  0  0  0  0
 26 27  4  0  0  0  0
 26 31  4  0  0  0  0
 27 28  4  0  0  0  0
 28 29  4  0  0  0  0
 29 30  4  0  0  0  0
 30 31  4  0  0  0  0
M  END
>  <Name_Molregno>
369461

>  <Alpha-1A>
8.83

>  <Alpha-1B>
7.76

$$$$
369465
  Marvin  02231216192D 0   1.00000     0.00000     0

 32 36  0  0  0  0  0  0  0  0999 V2000
    0.2896   -1.2256    0.0000 Cl  0  0  0  0  0  0  0  0  0
   -0.2624   -0.6125    0.0000 C   0  0  0  0  0  0  0  0  0
   -1.0694   -0.7841    0.0000 C   0  0  0  0  0  0  0  0  0
   -1.6214   -0.1710    0.0000 C   0  0  0  0  0  0  0  0  0
   -2.4284   -0.3425    0.0000 N   0  0  0  0  0  0  0  0  0
   -2.6833   -1.1271    0.0000 C   0  0  0  0  0  0  0  0  0
   -3.4903   -1.2986    0.0000 C   0  0  0  0  0  0  0  0  0
   -4.0423   -0.6855    0.0000 N   0  0  0  0  0  0  0  0  0
   -3.7874    0.0991    0.0000 C   0  0  0  0  0  0  0  0  0
   -2.9804    0.2706    0.0000 C   0  0  0  0  0  0  0  0  0
   -4.8493   -0.8571    0.0000 C   0  0  0  0  0  0  0  0  0
   -5.1042   -1.6417    0.0000 C   0  0  0  0  0  0  0  0  0
   -5.9112   -1.8132    0.0000 N   0  0  0  0  0  0  0  0  0
   -6.1662   -2.5978    0.0000 C   0  0  0  0  0  0  0  0  0
   -6.9731   -2.7694    0.0000 N   0  0  0  0  0  0  0  0  0
   -7.5252   -2.1563    0.0000 C   0  0  0  0  0  0  0  0  0
   -7.2702   -1.3716    0.0000 C   0  0  0  0  0  0  0  0  0
   -7.9377   -0.8867    0.0000 S   0  0  0  0  0  0  0  0  0
   -8.6051   -1.3716    0.0000 C   0  0  0  0  0  0  0  0  0
   -8.3502   -2.1563    0.0000 C   0  0  0  0  0  0  0  0  0
   -8.9022   -2.7694    0.0000 C   0  0  0  0  0  0  0  0  0
   -9.7092   -2.5978    0.0000 C   0  0  0  0  0  0  0  0  0
   -9.9641   -1.8132    0.0000 C   0  0  0  0  0  0  0  0  0
   -9.4121   -1.2001    0.0000 C   0  0  0  0  0  0  0  0  0
   -6.4633   -1.2001    0.0000 C   0  0  0  0  0  0  0  0  0
   -6.2083   -0.4155    0.0000 O   0  0  0  0  0  0  0  0  0
   -5.6141   -3.2109    0.0000 C   0  0  0  0  0  0  0  0  0
   -1.3665    0.6137    0.0000 C   0  0  0  0  0  0  0  0  0
   -1.9185    1.2268    0.0000 O   0  0  0  0  0  0  0  0  0
   -1.6636    2.0114    0.0000 C   0  0  0  0  0  0  0  0  0
   -0.5595    0.7852    0.0000 C   0  0  0  0  0  0  0  0  0
   -0.0075    0.1721    0.0000 C   0  0  0  0  0  0  0  0  0
  1  2  1  0  0  0  0
  2  3  4  0  0  0  0
  2 32  4  0  0  0  0
  3  4  4  0  0  0  0
  4  5  1  0  0  0  0
  4 28  4  0  0  0  0
  5  6  1  0  0  0  0
  5 10  1  0  0  0  0
  6  7  1  0  0  0  0
  7  8  1  0  0  0  0
  8  9  1  0  0  0  0
  8 11  1  0  0  0  0
  9 10  1  0  0  0  0
 11 12  1  0  0  0  0
 12 13  1  0  0  0  0
 13 14  1  0  0  0  0
 13 25  1  0  0  0  0
 14 15  2  0  0  0  0
 14 27  1  0  0  0  0
 15 16  1  0  0  0  0
 16 17  4  0  0  0  0
 16 20  4  0  0  0  0
 17 18  4  0  0  0  0
 17 25  1  0  0  0  0
 18 19  4  0  0  0  0
 19 20  4  0  0  0  0
 19 24  4  0  0  0  0
 20 21  4  0  0  0  0
 21 22  4  0  0  0  0
 22 23  4  0  0  0  0
 23 24  4  0  0  0  0
 25 26  2  0  0  0  0
 28 29  1  0  0  0  0
 28 31  4  0  0  0  0
 29 30  1  0  0  0  0
 31 32  4  0  0  0  0
M  END
>  <Name_Molregno>
369465

>  <Alpha-1A>
8.46

>  <Alpha-1B>
7.76

$$$$
382415
  Marvin  02231216192D 0   1.00000     0.00000     0

 18 19  0  0  0  0  0  0  0  0999 V2000
   -0.7360    1.4792    0.0000 S   0  0  0  0  0  0  0  0  0
   -0.9909    0.6946    0.0000 C   0  0  0  0  0  0  0  0  0
   -1.8159    0.6946    0.0000 C   0  0  0  0  0  0  0  0  0
   -2.0709    1.4792    0.0000 N   0  0  0  0  0  0  0  0  0
   -1.4034    1.9642    0.0000 C   0  0  0  0  0  0  0  0  0
   -1.4034    2.7892    0.0000 C   0  0  0  0  0  0  0  0  0
   -0.6890    3.2017    0.0000 F   0  0  0  0  0  0  0  0  0
   -2.3008    0.0272    0.0000 C   0  0  0  0  0  0  0  0  0
   -2.7858   -0.6403    0.0000 C   0  0  0  0  0  0  0  0  0
   -3.2707   -1.3077    0.0000 C   0  0  0  0  0  0  0  0  0
   -2.9351   -2.0614    0.0000 C   0  0  0  0  0  0  0  0  0
   -3.4201   -2.7288    0.0000 C   0  0  0  0  0  0  0  0  0
   -4.2405   -2.6426    0.0000 C   0  0  0  0  0  0  0  0  0
   -4.5761   -1.8889    0.0000 C   0  0  0  0  0  0  0  0  0
   -5.3966   -1.8027    0.0000 F   0  0  0  0  0  0  0  0  0
   -4.0912   -1.2215    0.0000 C   0  0  0  0  0  0  0  0  0
   -3.0845   -3.4825    0.0000 C   0  0  0  0  0  0  0  0  0
   -2.7489   -4.2362    0.0000 N   0  0  0  0  0  0  0  0  0
  1  2  4  0  0  0  0
  1  5  4  0  0  0  0
  2  3  4  0  0  0  0
  3  4  4  0  0  0  0
  3  8  1  0  0  0  0
  4  5  4  0  0  0  0
  5  6  1  0  0  0  0
  6  7  1  0  0  0  0
  8  9  3  0  0  0  0
  9 10  1  0  0  0  0
 10 11  4  0  0  0  0
 10 16  4  0  0  0  0
 11 12  4  0  0  0  0
 12 13  4  0  0  0  0
 12 17  1  0  0  0  0
 13 14  4  0  0  0  0
 14 15  1  0  0  0  0
 14 16  4  0  0  0  0
 17 18  3  0  0  0  0
M  END
>  <Name_Molregno>
382415

>  <5-HT1A>
5

>  <5-HT1B>
5

>  <5-HT1D>
5

>  <5-HT1E>
5

>  <5-HT2A>
5

>  <5-HT2C>
5

>  <5-HT3>
5

>  <5-HT5>
5

>  <5-HT6>
5

>  <5-HT7>
5

>  <Alpha-1A>
5

>  <Alpha-1B>
5

>  <Alpha-2A>
5

>  <Alpha-2B>
5

>  <Alpha-2C>
5

>  <Beta-1>
5

>  <Beta-2>
5

>  <DOPAMINE D1>
5

>  <DOPAMINE D2>
5

>  <DOPAMINE D3>
5

>  <DOPAMINE D4>
5

>  <DOPAMINE D5>
5

>  <Dopamine transporter>
5

>  <HISTAMINE H1>
5

>  <HISTAMINE H2>
5

>  <HISTAMINE H3>
5

>  <HISTAMINE H4>
5

>  <Muscarinic acetylcholine receptor M1>
5

>  <Muscarinic acetylcholine receptor M2>
5

>  <Muscarinic acetylcholine receptor M3>
5

>  <Muscarinic acetylcholine receptor M4>
5

>  <Muscarinic acetylcholine receptor M5>
5

>  <Norepinephrine transporter>
5

>  <Serotonin transporter>
5

$$$$
385087
  Marvin  02231216192D 0   1.00000     0.00000     0

 36 39  0  0  0  0  0  0  0  0999 V2000
    2.7777    2.4143    0.0000 S   0  0  0  0  0  0  0  0  0
    3.1902    1.6999    0.0000 O   0  0  0  0  0  0  0  0  0
    2.3652    3.1288    0.0000 O   0  0  0  0  0  0  0  0  0
    2.0632    2.0018    0.0000 N   0  0  0  0  0  0  0  0  0
    2.0632    1.1768    0.0000 C   0  0  0  0  0  0  0  0  0
    2.7777    0.7643    0.0000 C   0  0  0  0  0  0  0  0  0
    2.7777   -0.0607    0.0000 C   0  0  0  0  0  0  0  0  0
    2.0632   -0.4732    0.0000 C   0  0  0  0  0  0  0  0  0
    2.0632   -1.2982    0.0000 N   0  0  0  0  0  0  0  0  0
    2.7777   -1.7107    0.0000 C   0  0  0  0  0  0  0  0  0
    2.7777   -2.5357    0.0000 C   0  0  0  0  0  0  0  0  0
    2.0632   -2.9482    0.0000 C   0  0  0  0  0  0  0  0  0
    1.3488   -2.5357    0.0000 C   0  0  0  0  0  0  0  0  0
    1.3488   -1.7107    0.0000 C   0  0  0  0  0  0  0  0  0
    2.0632   -3.7732    0.0000 C   0  0  0  0  0  0  0  0  0
    2.7777   -4.1857    0.0000 C   0  0  0  0  0  0  0  0  0
    2.7777   -5.0107    0.0000 C   0  0  0  0  0  0  0  0  0
    2.0632   -5.4232    0.0000 C   0  0  0  0  0  0  0  0  0
    1.3488   -5.0107    0.0000 C   0  0  0  0  0  0  0  0  0
    1.3488   -4.1857    0.0000 C   0  0  0  0  0  0  0  0  0
    0.6343   -3.7732    0.0000 O   0  0  0  0  0  0  0  0  0
   -0.0802   -4.1857    0.0000 C   0  0  0  0  0  0  0  0  0
   -0.7946   -3.7732    0.0000 C   0  0  0  0  0  0  0  0  0
   -0.0802   -5.0107    0.0000 C   0  0  0  0  0  0  0  0  0
    1.3488   -0.0607    0.0000 C   0  0  0  0  0  0  0  0  0
    1.3488    0.7643    0.0000 C   0  0  0  0  0  0  0  0  0
    3.4922    2.8268    0.0000 C   0  0  0  0  0  0  0  0  0
    3.4922    3.6518    0.0000 C   0  0  0  0  0  0  0  0  0
    4.2067    4.0643    0.0000 C   0  0  0  0  0  0  0  0  0
    4.2067    4.8893    0.0000 O   0  0  0  0  0  0  0  0  0
    4.9211    5.3018    0.0000 C   0  0  0  0  0  0  0  0  0
    4.9211    3.6518    0.0000 C   0  0  0  0  0  0  0  0  0
    5.6356    4.0643    0.0000 O   0  0  0  0  0  0  0  0  0
    5.6356    4.8893    0.0000 C   0  0  0  0  0  0  0  0  0
    4.9211    2.8268    0.0000 C   0  0  0  0  0  0  0  0  0
    4.2067    2.4143    0.0000 C   0  0  0  0  0  0  0  0  0
  1  2  2  0  0  0  0
  1  3  2  0  0  0  0
  1  4  1  0  0  0  0
  1 27  1  0  0  0  0
  4  5  1  0  0  0  0
  5  6  1  0  0  0  0
  5 26  1  0  0  0  0
  6  7  1  0  0  0  0
  7  8  1  0  0  0  0
  8  9  1  0  0  0  0
  8 25  1  0  0  0  0
  9 10  1  0  0  0  0
  9 14  1  0  0  0  0
 10 11  1  0  0  0  0
 11 12  1  0  0  0  0
 12 13  1  0  0  0  0
 12 15  1  0  0  0  0
 13 14  1  0  0  0  0
 15 16  4  0  0  0  0
 15 20  4  0  0  0  0
 16 17  4  0  0  0  0
 17 18  4  0  0  0  0
 18 19  4  0  0  0  0
 19 20  4  0  0  0  0
 20 21  1  0  0  0  0
 21 22  1  0  0  0  0
 22 23  1  0  0  0  0
 22 24  1  0  0  0  0
 25 26  1  0  0  0  0
 27 28  4  0  0  0  0
 27 36  4  0  0  0  0
 28 29  4  0  0  0  0
 29 30  1  0  0  0  0
 29 32  4  0  0  0  0
 30 31  1  0  0  0  0
 32 33  1  0  0  0  0
 32 35  4  0  0  0  0
 33 34  1  0  0  0  0
 35 36  4  0  0  0  0
M  END
>  <Name_Molregno>
385087

>  <Alpha-1A>
8.13

>  <Alpha-1B>
6.83

>  <DOPAMINE D2>
7.04

$$$$
385092
  Marvin  02231216192D 0   1.00000     0.00000     0

 34 37  0  0  0  0  0  0  0  0999 V2000
    3.2079    2.5981    0.0000 S   0  0  0  0  0  0  0  0  0
    3.6204    1.8836    0.0000 O   0  0  0  0  0  0  0  0  0
    2.7954    3.3125    0.0000 O   0  0  0  0  0  0  0  0  0
    2.4934    2.1856    0.0000 N   0  0  0  0  0  0  0  0  0
    2.4934    1.3606    0.0000 C   0  0  0  0  0  0  0  0  0
    3.2079    0.9481    0.0000 C   0  0  0  0  0  0  0  0  0
    3.2079    0.1231    0.0000 C   0  0  0  0  0  0  0  0  0
    2.4934   -0.2894    0.0000 C   0  0  0  0  0  0  0  0  0
    2.4934   -1.1144    0.0000 N   0  0  0  0  0  0  0  0  0
    3.2079   -1.5269    0.0000 C   0  0  0  0  0  0  0  0  0
    3.2079   -2.3519    0.0000 C   0  0  0  0  0  0  0  0  0
    2.4934   -2.7644    0.0000 C   0  0  0  0  0  0  0  0  0
    1.7789   -2.3519    0.0000 C   0  0  0  0  0  0  0  0  0
    1.7789   -1.5269    0.0000 C   0  0  0  0  0  0  0  0  0
    2.4934   -3.5894    0.0000 C   0  0  0  0  0  0  0  0  0
    3.2079   -4.0019    0.0000 C   0  0  0  0  0  0  0  0  0
    3.2079   -4.8269    0.0000 C   0  0  0  0  0  0  0  0  0
    2.4934   -5.2394    0.0000 C   0  0  0  0  0  0  0  0  0
    1.7789   -4.8269    0.0000 C   0  0  0  0  0  0  0  0  0
    1.7789   -4.0019    0.0000 C   0  0  0  0  0  0  0  0  0
    1.0645   -3.5894    0.0000 O   0  0  0  0  0  0  0  0  0
    0.3500   -4.0019    0.0000 C   0  0  0  0  0  0  0  0  0
   -0.3645   -3.5894    0.0000 C   0  0  0  0  0  0  0  0  0
    0.3500   -4.8269    0.0000 C   0  0  0  0  0  0  0  0  0
    1.7789    0.1231    0.0000 C   0  0  0  0  0  0  0  0  0
    1.7789    0.9481    0.0000 C   0  0  0  0  0  0  0  0  0
    3.9223    3.0106    0.0000 C   0  0  0  0  0  0  0  0  0
    3.9223    3.8356    0.0000 C   0  0  0  0  0  0  0  0  0
    4.6368    4.2481    0.0000 C   0  0  0  0  0  0  0  0  0
    4.6368    5.0731    0.0000 F   0  0  0  0  0  0  0  0  0
    5.3513    3.8356    0.0000 C   0  0  0  0  0  0  0  0  0
    6.0657    4.2481    0.0000 F   0  0  0  0  0  0  0  0  0
    5.3513    3.0106    0.0000 C   0  0  0  0  0  0  0  0  0
    4.6368    2.5981    0.0000 C   0  0  0  0  0  0  0  0  0
  1  2  2  0  0  0  0
  1  3  2  0  0  0  0
  1  4  1  0  0  0  0
  1 27  1  0  0  0  0
  4  5  1  0  0  0  0
  5  6  1  0  0  0  0
  5 26  1  0  0  0  0
  6  7  1  0  0  0  0
  7  8  1  0  0  0  0
  8  9  1  0  0  0  0
  8 25  1  0  0  0  0
  9 10  1  0  0  0  0
  9 14  1  0  0  0  0
 10 11  1  0  0  0  0
 11 12  1  0  0  0  0
 12 13  1  0  0  0  0
 12 15  1  0  0  0  0
 13 14  1  0  0  0  0
 15 16  4  0  0  0  0
 15 20  4  0  0  0  0
 16 17  4  0  0  0  0
 17 18  4  0  0  0  0
 18 19  4  0  0  0  0
 19 20  4  0  0  0  0
 20 21  1  0  0  0  0
 21 22  1  0  0  0  0
 22 23  1  0  0  0  0
 22 24  1  0  0  0  0
 25 26  1  0  0  0  0
 27 28  4  0  0  0  0
 27 34  4  0  0  0  0
 28 29  4  0  0  0  0
 29 30  1  0  0  0  0
 29 31  4  0  0  0  0
 31 32  1  0  0  0  0
 31 33  4  0  0  0  0
 33 34  4  0  0  0  0
M  END
>  <Name_Molregno>
385092

>  <Alpha-1A>
8.69

>  <Alpha-1B>
6.1

>  <DOPAMINE D2>
7.1

$$$$
385094
  Marvin  02231216192D 0   1.00000     0.00000     0

 36 40  0  0  0  0  0  0  0  0999 V2000
    0.4220    1.2559    0.0000 S   0  0  0  0  0  0  0  0  0
    1.2470    1.2559    0.0000 O   0  0  0  0  0  0  0  0  0
   -0.4030    1.2559    0.0000 O   0  0  0  0  0  0  0  0  0
    0.4220    0.4309    0.0000 N   0  0  0  0  0  0  0  0  0
    1.1364    0.0184    0.0000 C   0  0  0  0  0  0  0  0  0
    1.8509    0.4309    0.0000 C   0  0  0  0  0  0  0  0  0
    2.5654    0.0184    0.0000 C   0  0  0  0  0  0  0  0  0
    2.5654   -0.8066    0.0000 C   0  0  0  0  0  0  0  0  0
    3.2798   -1.2191    0.0000 N   0  0  0  0  0  0  0  0  0
    3.9943   -0.8066    0.0000 C   0  0  0  0  0  0  0  0  0
    4.7088   -1.2191    0.0000 C   0  0  0  0  0  0  0  0  0
    4.7088   -2.0441    0.0000 C   0  0  0  0  0  0  0  0  0
    3.9943   -2.4566    0.0000 C   0  0  0  0  0  0  0  0  0
    3.2798   -2.0441    0.0000 C   0  0  0  0  0  0  0  0  0
    5.4233   -2.4566    0.0000 C   0  0  0  0  0  0  0  0  0
    6.1377   -2.0441    0.0000 C   0  0  0  0  0  0  0  0  0
    6.8522   -2.4566    0.0000 C   0  0  0  0  0  0  0  0  0
    6.8522   -3.2816    0.0000 C   0  0  0  0  0  0  0  0  0
    6.1377   -3.6941    0.0000 C   0  0  0  0  0  0  0  0  0
    5.4233   -3.2816    0.0000 C   0  0  0  0  0  0  0  0  0
    4.7088   -3.6941    0.0000 O   0  0  0  0  0  0  0  0  0
    4.7088   -4.5191    0.0000 C   0  0  0  0  0  0  0  0  0
    5.1213   -5.2336    0.0000 C   0  0  0  0  0  0  0  0  0
    4.2963   -5.2336    0.0000 C   0  0  0  0  0  0  0  0  0
    1.8509   -1.2191    0.0000 C   0  0  0  0  0  0  0  0  0
    1.1364   -0.8066    0.0000 C   0  0  0  0  0  0  0  0  0
    0.4220    2.0809    0.0000 C   0  0  0  0  0  0  0  0  0
   -0.2925    2.4934    0.0000 C   0  0  0  0  0  0  0  0  0
   -0.2925    3.3184    0.0000 C   0  0  0  0  0  0  0  0  0
   -1.0070    3.7309    0.0000 O   0  0  0  0  0  0  0  0  0
   -1.0070    4.5559    0.0000 C   0  0  0  0  0  0  0  0  0
    0.4220    3.7309    0.0000 C   0  0  0  0  0  0  0  0  0
    0.4220    4.5559    0.0000 O   0  0  0  0  0  0  0  0  0
   -0.2925    4.9684    0.0000 C   0  0  0  0  0  0  0  0  0
    1.1364    3.3184    0.0000 C   0  0  0  0  0  0  0  0  0
    1.1364    2.4934    0.0000 C   0  0  0  0  0  0  0  0  0
  1  2  2  0  0  0  0
  1  3  2  0  0  0  0
  1  4  1  0  0  0  0
  1 27  1  0  0  0  0
  4  5  1  0  0  0  0
  5  6  1  0  0  0  0
  5 26  1  0  0  0  0
  6  7  1  0  0  0  0
  7  8  1  0  0  0  0
  8  9  1  0  0  0  0
  8 25  1  0  0  0  0
  9 10  1  0  0  0  0
  9 14  1  0  0  0  0
 10 11  1  0  0  0  0
 11 12  1  0  0  0  0
 12 13  1  0  0  0  0
 12 15  1  0  0  0  0
 13 14  1  0  0  0  0
 15 16  4  0  0  0  0
 15 20  4  0  0  0  0
 16 17  4  0  0  0  0
 17 18  4  0  0  0  0
 18 19  4  0  0  0  0
 19 20  4  0  0  0  0
 20 21  1  0  0  0  0
 21 22  1  0  0  0  0
 22 23  1  0  0  0  0
 22 24  1  0  0  0  0
 23 24  1  0  0  0  0
 25 26  1  0  0  0  0
 27 28  4  0  0  0  0
 27 36  4  0  0  0  0
 28 29  4  0  0  0  0
 29 30  1  0  0  0  0
 29 32  4  0  0  0  0
 30 31  1  0  0  0  0
 32 33  1  0  0  0  0
 32 35  4  0  0  0  0
 33 34  1  0  0  0  0
 35 36  4  0  0  0  0
M  END
>  <Name_Molregno>
385094

>  <Alpha-1A>
8.5

>  <Alpha-1B>
6.87

>  <DOPAMINE D2>
6.86

$$$$
385096
  Marvin  02231216192D 0   1.00000     0.00000     0

 35 39  0  0  0  0  0  0  0  0999 V2000
    5.3370   -6.6301    0.0000 Cl  0  0  0  0  0  0  0  0  0
    5.3370   -5.8051    0.0000 C   0  0  0  0  0  0  0  0  0
    4.6225   -5.3926    0.0000 C   0  0  0  0  0  0  0  0  0
    4.6225   -4.5676    0.0000 C   0  0  0  0  0  0  0  0  0
    3.9081   -4.1551    0.0000 S   0  0  0  0  0  0  0  0  0
    4.3206   -3.4406    0.0000 O   0  0  0  0  0  0  0  0  0
    3.4956   -4.8696    0.0000 O   0  0  0  0  0  0  0  0  0
    3.1936   -3.7426    0.0000 N   0  0  0  0  0  0  0  0  0
    3.1936   -2.9176    0.0000 C   0  0  0  0  0  0  0  0  0
    2.4791   -2.5051    0.0000 C   0  0  0  0  0  0  0  0  0
    2.4791   -1.6801    0.0000 C   0  0  0  0  0  0  0  0  0
    3.1936   -1.2676    0.0000 C   0  0  0  0  0  0  0  0  0
    3.1936   -0.4426    0.0000 N   0  0  0  0  0  0  0  0  0
    2.4791   -0.0301    0.0000 C   0  0  0  0  0  0  0  0  0
    2.4791    0.7949    0.0000 C   0  0  0  0  0  0  0  0  0
    3.1936    1.2074    0.0000 C   0  0  0  0  0  0  0  0  0
    3.9081    0.7949    0.0000 C   0  0  0  0  0  0  0  0  0
    3.9081   -0.0301    0.0000 C   0  0  0  0  0  0  0  0  0
    3.1936    2.0324    0.0000 C   0  0  0  0  0  0  0  0  0
    2.4791    2.4449    0.0000 C   0  0  0  0  0  0  0  0  0
    2.4791    3.2699    0.0000 C   0  0  0  0  0  0  0  0  0
    3.1936    3.6824    0.0000 C   0  0  0  0  0  0  0  0  0
    3.9081    3.2699    0.0000 C   0  0  0  0  0  0  0  0  0
    3.9081    2.4449    0.0000 C   0  0  0  0  0  0  0  0  0
    4.6225    2.0324    0.0000 O   0  0  0  0  0  0  0  0  0
    4.6225    1.2074    0.0000 C   0  0  0  0  0  0  0  0  0
    5.0350    0.4929    0.0000 C   0  0  0  0  0  0  0  0  0
    4.2100    0.4929    0.0000 C   0  0  0  0  0  0  0  0  0
    3.9081   -1.6801    0.0000 C   0  0  0  0  0  0  0  0  0
    3.9081   -2.5051    0.0000 C   0  0  0  0  0  0  0  0  0
    5.3370   -4.1551    0.0000 C   0  0  0  0  0  0  0  0  0
    5.3370   -3.3301    0.0000 O   0  0  0  0  0  0  0  0  0
    6.0515   -2.9176    0.0000 C   0  0  0  0  0  0  0  0  0
    6.0515   -4.5676    0.0000 C   0  0  0  0  0  0  0  0  0
    6.0515   -5.3926    0.0000 C   0  0  0  0  0  0  0  0  0
  1  2  1  0  0  0  0
  2  3  4  0  0  0  0
  2 35  4  0  0  0  0
  3  4  4  0  0  0  0
  4  5  1  0  0  0  0
  4 31  4  0  0  0  0
  5  6  2  0  0  0  0
  5  7  2  0  0  0  0
  5  8  1  0  0  0  0
  8  9  1  0  0  0  0
  9 10  1  0  0  0  0
  9 30  1  0  0  0  0
 10 11  1  0  0  0  0
 11 12  1  0  0  0  0
 12 13  1  0  0  0  0
 12 29  1  0  0  0  0
 13 14  1  0  0  0  0
 13 18  1  0  0  0  0
 14 15  1  0  0  0  0
 15 16  1  0  0  0  0
 16 17  1  0  0  0  0
 16 19  1  0  0  0  0
 17 18  1  0  0  0  0
 19 20  4  0  0  0  0
 19 24  4  0  0  0  0
 20 21  4  0  0  0  0
 21 22  4  0  0  0  0
 22 23  4  0  0  0  0
 23 24  4  0  0  0  0
 24 25  1  0  0  0  0
 25 26  1  0  0  0  0
 26 27  1  0  0  0  0
 26 28  1  0  0  0  0
 27 28  1  0  0  0  0
 29 30  1  0  0  0  0
 31 32  1  0  0  0  0
 31 34  4  0  0  0  0
 32 33  1  0  0  0  0
 34 35  4  0  0  0  0
M  END
>  <Name_Molregno>
385096

>  <Alpha-1A>
8.62

>  <Alpha-1B>
6.81

>  <DOPAMINE D2>
6.85

$$$$
385098
  Marvin  02231216192D 0   1.00000     0.00000     0

 34 38  0  0  0  0  0  0  0  0999 V2000
   -2.7232   -6.5985    0.0000 Cl  0  0  0  0  0  0  0  0  0
   -2.7232   -5.7735    0.0000 C   0  0  0  0  0  0  0  0  0
   -3.4376   -5.3610    0.0000 C   0  0  0  0  0  0  0  0  0
   -3.4376   -4.5360    0.0000 C   0  0  0  0  0  0  0  0  0
   -4.1521   -4.1235    0.0000 S   0  0  0  0  0  0  0  0  0
   -3.7396   -3.4091    0.0000 O   0  0  0  0  0  0  0  0  0
   -4.5646   -4.8380    0.0000 O   0  0  0  0  0  0  0  0  0
   -4.8666   -3.7110    0.0000 N   0  0  0  0  0  0  0  0  0
   -4.8666   -2.8860    0.0000 C   0  0  0  0  0  0  0  0  0
   -5.5810   -2.4735    0.0000 C   0  0  0  0  0  0  0  0  0
   -5.5810   -1.6485    0.0000 C   0  0  0  0  0  0  0  0  0
   -4.8666   -1.2360    0.0000 C   0  0  0  0  0  0  0  0  0
   -4.8666   -0.4110    0.0000 N   0  0  0  0  0  0  0  0  0
   -5.5810    0.0015    0.0000 C   0  0  0  0  0  0  0  0  0
   -5.5810    0.8265    0.0000 C   0  0  0  0  0  0  0  0  0
   -4.8666    1.2390    0.0000 C   0  0  0  0  0  0  0  0  0
   -4.1521    0.8265    0.0000 C   0  0  0  0  0  0  0  0  0
   -4.1521    0.0015    0.0000 C   0  0  0  0  0  0  0  0  0
   -4.8666    2.0640    0.0000 C   0  0  0  0  0  0  0  0  0
   -5.5810    2.4765    0.0000 C   0  0  0  0  0  0  0  0  0
   -5.5810    3.3015    0.0000 C   0  0  0  0  0  0  0  0  0
   -4.8666    3.7140    0.0000 C   0  0  0  0  0  0  0  0  0
   -4.1521    3.3015    0.0000 C   0  0  0  0  0  0  0  0  0
   -4.1521    2.4765    0.0000 C   0  0  0  0  0  0  0  0  0
   -3.4376    2.0640    0.0000 O   0  0  0  0  0  0  0  0  0
   -3.4376    1.2390    0.0000 C   0  0  0  0  0  0  0  0  0
   -3.0251    0.5245    0.0000 C   0  0  0  0  0  0  0  0  0
   -3.8501    0.5245    0.0000 C   0  0  0  0  0  0  0  0  0
   -4.1521   -1.6485    0.0000 C   0  0  0  0  0  0  0  0  0
   -4.1521   -2.4735    0.0000 C   0  0  0  0  0  0  0  0  0
   -2.7232   -4.1235    0.0000 C   0  0  0  0  0  0  0  0  0
   -2.7232   -3.2985    0.0000 F   0  0  0  0  0  0  0  0  0
   -2.0087   -4.5360    0.0000 C   0  0  0  0  0  0  0  0  0
   -2.0087   -5.3610    0.0000 C   0  0  0  0  0  0  0  0  0
  1  2  1  0  0  0  0
  2  3  4  0  0  0  0
  2 34  4  0  0  0  0
  3  4  4  0  0  0  0
  4  5  1  0  0  0  0
  4 31  4  0  0  0  0
  5  6  2  0  0  0  0
  5  7  2  0  0  0  0
  5  8  1  0  0  0  0
  8  9  1  0  0  0  0
  9 10  1  0  0  0  0
  9 30  1  0  0  0  0
 10 11  1  0  0  0  0
 11 12  1  0  0  0  0
 12 13  1  0  0  0  0
 12 29  1  0  0  0  0
 13 14  1  0  0  0  0
 13 18  1  0  0  0  0
 14 15  1  0  0  0  0
 15 16  1  0  0  0  0
 16 17  1  0  0  0  0
 16 19  1  0  0  0  0
 17 18  1  0  0  0  0
 19 20  4  0  0  0  0
 19 24  4  0  0  0  0
 20 21  4  0  0  0  0
 21 22  4  0  0  0  0
 22 23  4  0  0  0  0
 23 24  4  0  0  0  0
 24 25  1  0  0  0  0
 25 26  1  0  0  0  0
 26 27  1  0  0  0  0
 26 28  1  0  0  0  0
 27 28  1  0  0  0  0
 29 30  1  0  0  0  0
 31 32  1  0  0  0  0
 31 33  4  0  0  0  0
 33 34  4  0  0  0  0
M  END
>  <Name_Molregno>
385098

>  <Alpha-1A>
8.58

>  <Alpha-1B>
6.72

>  <DOPAMINE D2>
6.77

$$$$
385100
  Marvin  02231216192D 0   1.00000     0.00000     0

 35 40  0  0  0  0  0  0  0  0999 V2000
   -5.2455   -0.8318    0.0000 S   0  0  0  0  0  0  0  0  0
   -4.8330   -0.1173    0.0000 O   0  0  0  0  0  0  0  0  0
   -5.6580   -1.5463    0.0000 O   0  0  0  0  0  0  0  0  0
   -4.5310   -1.2443    0.0000 N   0  0  0  0  0  0  0  0  0
   -3.8165   -0.8318    0.0000 C   0  0  0  0  0  0  0  0  0
   -3.8165   -0.0068    0.0000 C   0  0  0  0  0  0  0  0  0
   -3.1021    0.4057    0.0000 C   0  0  0  0  0  0  0  0  0
   -2.3876   -0.0068    0.0000 C   0  0  0  0  0  0  0  0  0
   -1.6731    0.4057    0.0000 N   0  0  0  0  0  0  0  0  0
   -1.6731    1.2307    0.0000 C   0  0  0  0  0  0  0  0  0
   -0.9586    1.6432    0.0000 C   0  0  0  0  0  0  0  0  0
   -0.2442    1.2307    0.0000 C   0  0  0  0  0  0  0  0  0
   -0.2442    0.4057    0.0000 C   0  0  0  0  0  0  0  0  0
   -0.9586   -0.0068    0.0000 C   0  0  0  0  0  0  0  0  0
    0.4703    1.6432    0.0000 C   0  0  0  0  0  0  0  0  0
    0.4703    2.4682    0.0000 C   0  0  0  0  0  0  0  0  0
    1.1848    2.8807    0.0000 C   0  0  0  0  0  0  0  0  0
    1.8992    2.4682    0.0000 C   0  0  0  0  0  0  0  0  0
    1.8992    1.6432    0.0000 C   0  0  0  0  0  0  0  0  0
    1.1848    1.2307    0.0000 C   0  0  0  0  0  0  0  0  0
    1.1848    0.4057    0.0000 O   0  0  0  0  0  0  0  0  0
    1.8992   -0.0068    0.0000 C   0  0  0  0  0  0  0  0  0
    2.7242   -0.0068    0.0000 C   0  0  0  0  0  0  0  0  0
    2.3117   -0.7213    0.0000 C   0  0  0  0  0  0  0  0  0
   -2.3876   -0.8318    0.0000 C   0  0  0  0  0  0  0  0  0
   -3.1021   -1.2443    0.0000 C   0  0  0  0  0  0  0  0  0
   -5.9599   -0.4193    0.0000 C   0  0  0  0  0  0  0  0  0
   -6.6744   -0.8318    0.0000 C   0  0  0  0  0  0  0  0  0
   -7.3889   -0.4193    0.0000 C   0  0  0  0  0  0  0  0  0
   -8.1735   -0.6742    0.0000 O   0  0  0  0  0  0  0  0  0
   -8.6584   -0.0068    0.0000 C   0  0  0  0  0  0  0  0  0
   -8.1735    0.6607    0.0000 O   0  0  0  0  0  0  0  0  0
   -7.3889    0.4057    0.0000 C   0  0  0  0  0  0  0  0  0
   -6.6744    0.8182    0.0000 C   0  0  0  0  0  0  0  0  0
   -5.9599    0.4057    0.0000 C   0  0  0  0  0  0  0  0  0
  1  2  2  0  0  0  0
  1  3  2  0  0  0  0
  1  4  1  0  0  0  0
  1 27  1  0  0  0  0
  4  5  1  0  0  0  0
  5  6  1  0  0  0  0
  5 26  1  0  0  0  0
  6  7  1  0  0  0  0
  7  8  1  0  0  0  0
  8  9  1  0  0  0  0
  8 25  1  0  0  0  0
  9 10  1  0  0  0  0
  9 14  1  0  0  0  0
 10 11  1  0  0  0  0
 11 12  1  0  0  0  0
 12 13  1  0  0  0  0
 12 15  1  0  0  0  0
 13 14  1  0  0  0  0
 15 16  4  0  0  0  0
 15 20  4  0  0  0  0
 16 17  4  0  0  0  0
 17 18  4  0  0  0  0
 18 19  4  0  0  0  0
 19 20  4  0  0  0  0
 20 21  1  0  0  0  0
 21 22  1  0  0  0  0
 22 23  1  0  0  0  0
 22 24  1  0  0  0  0
 23 24  1  0  0  0  0
 25 26  1  0  0  0  0
 27 28  4  0  0  0  0
 27 35  4  0  0  0  0
 28 29  4  0  0  0  0
 29 30  1  0  0  0  0
 29 33  4  0  0  0  0
 30 31  1  0  0  0  0
 31 32  1  0  0  0  0
 32 33  1  0  0  0  0
 33 34  4  0  0  0  0
 34 35  4  0  0  0  0
M  END
>  <Name_Molregno>
385100

>  <Alpha-1A>
7.83

>  <Alpha-1B>
6.51

>  <DOPAMINE D2>
7.16

$$$$
385102
  Marvin  02231216192D 0   1.00000     0.00000     0

 38 41  0  0  0  0  0  0  0  0999 V2000
    2.9694    3.7720    0.0000 S   0  0  0  0  0  0  0  0  0
    3.3819    3.0575    0.0000 O   0  0  0  0  0  0  0  0  0
    2.5569    4.4865    0.0000 O   0  0  0  0  0  0  0  0  0
    2.2549    3.3595    0.0000 N   0  0  0  0  0  0  0  0  0
    2.2549    2.5345    0.0000 C   0  0  0  0  0  0  0  0  0
    2.9694    2.1220    0.0000 C   0  0  0  0  0  0  0  0  0
    2.9694    1.2970    0.0000 C   0  0  0  0  0  0  0  0  0
    2.2549    0.8845    0.0000 C   0  0  0  0  0  0  0  0  0
    2.2549    0.0595    0.0000 N   0  0  0  0  0  0  0  0  0
    2.9694   -0.3530    0.0000 C   0  0  0  0  0  0  0  0  0
    2.9694   -1.1780    0.0000 C   0  0  0  0  0  0  0  0  0
    2.2549   -1.5905    0.0000 C   0  0  0  0  0  0  0  0  0
    1.5404   -1.1780    0.0000 C   0  0  0  0  0  0  0  0  0
    1.5404   -0.3530    0.0000 C   0  0  0  0  0  0  0  0  0
    2.2549   -2.4155    0.0000 C   0  0  0  0  0  0  0  0  0
    2.9694   -2.8280    0.0000 C   0  0  0  0  0  0  0  0  0
    2.9694   -3.6530    0.0000 C   0  0  0  0  0  0  0  0  0
    2.2549   -4.0655    0.0000 C   0  0  0  0  0  0  0  0  0
    1.5404   -3.6530    0.0000 C   0  0  0  0  0  0  0  0  0
    1.5404   -2.8280    0.0000 C   0  0  0  0  0  0  0  0  0
    0.8260   -2.4155    0.0000 O   0  0  0  0  0  0  0  0  0
    0.1115   -2.8280    0.0000 C   0  0  0  0  0  0  0  0  0
   -0.6030   -2.4155    0.0000 C   0  0  0  0  0  0  0  0  0
   -1.3175   -2.0030    0.0000 F   0  0  0  0  0  0  0  0  0
   -1.0155   -3.1300    0.0000 F   0  0  0  0  0  0  0  0  0
   -0.1905   -1.7010    0.0000 F   0  0  0  0  0  0  0  0  0
    1.5404    1.2970    0.0000 C   0  0  0  0  0  0  0  0  0
    1.5404    2.1220    0.0000 C   0  0  0  0  0  0  0  0  0
    3.6838    4.1845    0.0000 C   0  0  0  0  0  0  0  0  0
    3.6838    5.0095    0.0000 C   0  0  0  0  0  0  0  0  0
    4.3983    5.4220    0.0000 C   0  0  0  0  0  0  0  0  0
    4.3983    6.2470    0.0000 O   0  0  0  0  0  0  0  0  0
    5.1128    6.6595    0.0000 C   0  0  0  0  0  0  0  0  0
    5.1128    5.0095    0.0000 C   0  0  0  0  0  0  0  0  0
    5.8272    5.4220    0.0000 O   0  0  0  0  0  0  0  0  0
    5.8272    6.2470    0.0000 C   0  0  0  0  0  0  0  0  0
    5.1128    4.1845    0.0000 C   0  0  0  0  0  0  0  0  0
    4.3983    3.7720    0.0000 C   0  0  0  0  0  0  0  0  0
  1  2  2  0  0  0  0
  1  3  2  0  0  0  0
  1  4  1  0  0  0  0
  1 29  1  0  0  0  0
  4  5  1  0  0  0  0
  5  6  1  0  0  0  0
  5 28  1  0  0  0  0
  6  7  1  0  0  0  0
  7  8  1  0  0  0  0
  8  9  1  0  0  0  0
  8 27  1  0  0  0  0
  9 10  1  0  0  0  0
  9 14  1  0  0  0  0
 10 11  1  0  0  0  0
 11 12  1  0  0  0  0
 12 13  1  0  0  0  0
 12 15  1  0  0  0  0
 13 14  1  0  0  0  0
 15 16  4  0  0  0  0
 15 20  4  0  0  0  0
 16 17  4  0  0  0  0
 17 18  4  0  0  0  0
 18 19  4  0  0  0  0
 19 20  4  0  0  0  0
 20 21  1  0  0  0  0
 21 22  1  0  0  0  0
 22 23  1  0  0  0  0
 23 24  1  0  0  0  0
 23 25  1  0  0  0  0
 23 26  1  0  0  0  0
 27 28  1  0  0  0  0
 29 30  4  0  0  0  0
 29 38  4  0  0  0  0
 30 31  4  0  0  0  0
 31 32  1  0  0  0  0
 31 34  4  0  0  0  0
 32 33  1  0  0  0  0
 34 35  1  0  0  0  0
 34 37  4  0  0  0  0
 35 36  1  0  0  0  0
 37 38  4  0  0  0  0
M  END
>  <Name_Molregno>
385102

>  <Alpha-1A>
8.21

>  <Alpha-1B>
6.67

>  <DOPAMINE D2>
7.01

$$$$
385104
  Marvin  02231216192D 0   1.00000     0.00000     0

 38 42  0  0  0  0  0  0  0  0999 V2000
    0.0630    0.0378    0.0000 S   0  0  0  0  0  0  0  0  0
   -0.3495   -0.6767    0.0000 O   0  0  0  0  0  0  0  0  0
    0.4755    0.7523    0.0000 O   0  0  0  0  0  0  0  0  0
   -0.6515    0.4503    0.0000 N   0  0  0  0  0  0  0  0  0
   -1.3659    0.0378    0.0000 C   0  0  0  0  0  0  0  0  0
   -1.3659   -0.7872    0.0000 C   0  0  0  0  0  0  0  0  0
   -2.0804   -1.1997    0.0000 C   0  0  0  0  0  0  0  0  0
   -2.7949   -0.7872    0.0000 C   0  0  0  0  0  0  0  0  0
   -3.5093   -1.1997    0.0000 N   0  0  0  0  0  0  0  0  0
   -3.5093   -2.0247    0.0000 C   0  0  0  0  0  0  0  0  0
   -4.2238   -2.4372    0.0000 C   0  0  0  0  0  0  0  0  0
   -4.9383   -2.0247    0.0000 C   0  0  0  0  0  0  0  0  0
   -4.9383   -1.1997    0.0000 C   0  0  0  0  0  0  0  0  0
   -4.2238   -0.7872    0.0000 C   0  0  0  0  0  0  0  0  0
   -5.6528   -2.4372    0.0000 C   0  0  0  0  0  0  0  0  0
   -5.6528   -3.2622    0.0000 C   0  0  0  0  0  0  0  0  0
   -6.3672   -3.6747    0.0000 C   0  0  0  0  0  0  0  0  0
   -7.0817   -3.2622    0.0000 C   0  0  0  0  0  0  0  0  0
   -7.0817   -2.4372    0.0000 C   0  0  0  0  0  0  0  0  0
   -6.3672   -2.0247    0.0000 C   0  0  0  0  0  0  0  0  0
   -6.3672   -1.1997    0.0000 O   0  0  0  0  0  0  0  0  0
   -7.0817   -0.7872    0.0000 C   0  0  0  0  0  0  0  0  0
   -7.0817    0.0378    0.0000 C   0  0  0  0  0  0  0  0  0
   -7.0817    0.8628    0.0000 F   0  0  0  0  0  0  0  0  0
   -7.9067    0.0378    0.0000 F   0  0  0  0  0  0  0  0  0
   -6.2567    0.0378    0.0000 F   0  0  0  0  0  0  0  0  0
   -2.7949    0.0378    0.0000 C   0  0  0  0  0  0  0  0  0
   -2.0804    0.4503    0.0000 C   0  0  0  0  0  0  0  0  0
    0.7775   -0.3747    0.0000 C   0  0  0  0  0  0  0  0  0
    1.4920    0.0378    0.0000 C   0  0  0  0  0  0  0  0  0
    2.2064   -0.3747    0.0000 C   0  0  0  0  0  0  0  0  0
    2.9209    0.0378    0.0000 O   0  0  0  0  0  0  0  0  0
    3.6354   -0.3747    0.0000 C   0  0  0  0  0  0  0  0  0
    3.6354   -1.1997    0.0000 C   0  0  0  0  0  0  0  0  0
    2.9209   -1.6122    0.0000 O   0  0  0  0  0  0  0  0  0
    2.2064   -1.1997    0.0000 C   0  0  0  0  0  0  0  0  0
    1.4920   -1.6122    0.0000 C   0  0  0  0  0  0  0  0  0
    0.7775   -1.1997    0.0000 C   0  0  0  0  0  0  0  0  0
  1  2  2  0  0  0  0
  1  3  2  0  0  0  0
  1  4  1  0  0  0  0
  1 29  1  0  0  0  0
  4  5  1  0  0  0  0
  5  6  1  0  0  0  0
  5 28  1  0  0  0  0
  6  7  1  0  0  0  0
  7  8  1  0  0  0  0
  8  9  1  0  0  0  0
  8 27  1  0  0  0  0
  9 10  1  0  0  0  0
  9 14  1  0  0  0  0
 10 11  1  0  0  0  0
 11 12  1  0  0  0  0
 12 13  1  0  0  0  0
 12 15  1  0  0  0  0
 13 14  1  0  0  0  0
 15 16  4  0  0  0  0
 15 20  4  0  0  0  0
 16 17  4  0  0  0  0
 17 18  4  0  0  0  0
 18 19  4  0  0  0  0
 19 20  4  0  0  0  0
 20 21  1  0  0  0  0
 21 22  1  0  0  0  0
 22 23  1  0  0  0  0
 23 24  1  0  0  0  0
 23 25  1  0  0  0  0
 23 26  1  0  0  0  0
 27 28  1  0  0  0  0
 29 30  4  0  0  0  0
 29 38  4  0  0  0  0
 30 31  4  0  0  0  0
 31 32  1  0  0  0  0
 31 36  4  0  0  0  0
 32 33  1  0  0  0  0
 33 34  1  0  0  0  0
 34 35  1  0  0  0  0
 35 36  1  0  0  0  0
 36 37  4  0  0  0  0
 37 38  4  0  0  0  0
M  END
>  <Name_Molregno>
385104

>  <Alpha-1A>
8.53

>  <Alpha-1B>
7.04

>  <DOPAMINE D2>
7.44

$$$$
385107
  Marvin  02231216192D 0   1.00000     0.00000     0

 37 40  0  0  0  0  0  0  0  0999 V2000
   -5.4091    3.9138    0.0000 Cl  0  0  0  0  0  0  0  0  0
   -5.4091    3.0888    0.0000 C   0  0  0  0  0  0  0  0  0
   -4.6946    2.6763    0.0000 C   0  0  0  0  0  0  0  0  0
   -4.6946    1.8513    0.0000 C   0  0  0  0  0  0  0  0  0
   -3.9801    1.4388    0.0000 S   0  0  0  0  0  0  0  0  0
   -4.3926    0.7243    0.0000 O   0  0  0  0  0  0  0  0  0
   -3.5676    2.1533    0.0000 O   0  0  0  0  0  0  0  0  0
   -3.2656    1.0263    0.0000 N   0  0  0  0  0  0  0  0  0
   -3.2656    0.2013    0.0000 C   0  0  0  0  0  0  0  0  0
   -2.5512   -0.2112    0.0000 C   0  0  0  0  0  0  0  0  0
   -2.5512   -1.0362    0.0000 C   0  0  0  0  0  0  0  0  0
   -3.2656   -1.4487    0.0000 C   0  0  0  0  0  0  0  0  0
   -3.2656   -2.2737    0.0000 N   0  0  0  0  0  0  0  0  0
   -2.5512   -2.6862    0.0000 C   0  0  0  0  0  0  0  0  0
   -2.5512   -3.5112    0.0000 C   0  0  0  0  0  0  0  0  0
   -3.2656   -3.9237    0.0000 C   0  0  0  0  0  0  0  0  0
   -3.9801   -3.5112    0.0000 C   0  0  0  0  0  0  0  0  0
   -3.9801   -2.6862    0.0000 C   0  0  0  0  0  0  0  0  0
   -3.2656   -4.7487    0.0000 C   0  0  0  0  0  0  0  0  0
   -2.5512   -5.1612    0.0000 C   0  0  0  0  0  0  0  0  0
   -2.5512   -5.9862    0.0000 C   0  0  0  0  0  0  0  0  0
   -3.2656   -6.3987    0.0000 C   0  0  0  0  0  0  0  0  0
   -3.9801   -5.9862    0.0000 C   0  0  0  0  0  0  0  0  0
   -3.9801   -5.1612    0.0000 C   0  0  0  0  0  0  0  0  0
   -4.6946   -4.7487    0.0000 O   0  0  0  0  0  0  0  0  0
   -4.6946   -3.9237    0.0000 C   0  0  0  0  0  0  0  0  0
   -5.4091   -3.5112    0.0000 C   0  0  0  0  0  0  0  0  0
   -6.1235   -3.0987    0.0000 F   0  0  0  0  0  0  0  0  0
   -4.9966   -2.7967    0.0000 F   0  0  0  0  0  0  0  0  0
   -5.8216   -4.2257    0.0000 F   0  0  0  0  0  0  0  0  0
   -3.9801   -1.0362    0.0000 C   0  0  0  0  0  0  0  0  0
   -3.9801   -0.2112    0.0000 C   0  0  0  0  0  0  0  0  0
   -5.4091    1.4388    0.0000 C   0  0  0  0  0  0  0  0  0
   -5.4091    0.6138    0.0000 O   0  0  0  0  0  0  0  0  0
   -6.1235    0.2013    0.0000 C   0  0  0  0  0  0  0  0  0
   -6.1235    1.8513    0.0000 C   0  0  0  0  0  0  0  0  0
   -6.1235    2.6763    0.0000 C   0  0  0  0  0  0  0  0  0
  1  2  1  0  0  0  0
  2  3  4  0  0  0  0
  2 37  4  0  0  0  0
  3  4  4  0  0  0  0
  4  5  1  0  0  0  0
  4 33  4  0  0  0  0
  5  6  2  0  0  0  0
  5  7  2  0  0  0  0
  5  8  1  0  0  0  0
  8  9  1  0  0  0  0
  9 10  1  0  0  0  0
  9 32  1  0  0  0  0
 10 11  1  0  0  0  0
 11 12  1  0  0  0  0
 12 13  1  0  0  0  0
 12 31  1  0  0  0  0
 13 14  1  0  0  0  0
 13 18  1  0  0  0  0
 14 15  1  0  0  0  0
 15 16  1  0  0  0  0
 16 17  1  0  0  0  0
 16 19  1  0  0  0  0
 17 18  1  0  0  0  0
 19 20  4  0  0  0  0
 19 24  4  0  0  0  0
 20 21  4  0  0  0  0
 21 22  4  0  0  0  0
 22 23  4  0  0  0  0
 23 24  4  0  0  0  0
 24 25  1  0  0  0  0
 25 26  1  0  0  0  0
 26 27  1  0  0  0  0
 27 28  1  0  0  0  0
 27 29  1  0  0  0  0
 27 30  1  0  0  0  0
 31 32  1  0  0  0  0
 33 34  1  0  0  0  0
 33 36  4  0  0  0  0
 34 35  1  0  0  0  0
 36 37  4  0  0  0  0
M  END
>  <Name_Molregno>
385107

>  <Alpha-1A>
8.11

>  <Alpha-1B>
6.41

>  <DOPAMINE D2>
7.13

$$$$
385110
  Marvin  02231216192D 0   1.00000     0.00000     0

 36 39  0  0  0  0  0  0  0  0999 V2000
   -5.6052    4.0402    0.0000 Cl  0  0  0  0  0  0  0  0  0
   -5.6052    3.2152    0.0000 C   0  0  0  0  0  0  0  0  0
   -4.8907    2.8027    0.0000 C   0  0  0  0  0  0  0  0  0
   -4.8907    1.9777    0.0000 C   0  0  0  0  0  0  0  0  0
   -4.1762    1.5652    0.0000 S   0  0  0  0  0  0  0  0  0
   -4.5887    0.8507    0.0000 O   0  0  0  0  0  0  0  0  0
   -3.7637    2.2796    0.0000 O   0  0  0  0  0  0  0  0  0
   -3.4618    1.1527    0.0000 N   0  0  0  0  0  0  0  0  0
   -3.4618    0.3277    0.0000 C   0  0  0  0  0  0  0  0  0
   -2.7473   -0.0848    0.0000 C   0  0  0  0  0  0  0  0  0
   -2.7473   -0.9098    0.0000 C   0  0  0  0  0  0  0  0  0
   -3.4618   -1.3223    0.0000 C   0  0  0  0  0  0  0  0  0
   -3.4618   -2.1473    0.0000 N   0  0  0  0  0  0  0  0  0
   -2.7473   -2.5598    0.0000 C   0  0  0  0  0  0  0  0  0
   -2.7473   -3.3848    0.0000 C   0  0  0  0  0  0  0  0  0
   -3.4618   -3.7973    0.0000 C   0  0  0  0  0  0  0  0  0
   -4.1762   -3.3848    0.0000 C   0  0  0  0  0  0  0  0  0
   -4.1762   -2.5598    0.0000 C   0  0  0  0  0  0  0  0  0
   -3.4618   -4.6223    0.0000 C   0  0  0  0  0  0  0  0  0
   -2.7473   -5.0348    0.0000 C   0  0  0  0  0  0  0  0  0
   -2.7473   -5.8598    0.0000 C   0  0  0  0  0  0  0  0  0
   -3.4618   -6.2723    0.0000 C   0  0  0  0  0  0  0  0  0
   -4.1762   -5.8598    0.0000 C   0  0  0  0  0  0  0  0  0
   -4.1762   -5.0348    0.0000 C   0  0  0  0  0  0  0  0  0
   -4.8907   -4.6223    0.0000 O   0  0  0  0  0  0  0  0  0
   -4.8907   -3.7973    0.0000 C   0  0  0  0  0  0  0  0  0
   -5.6052   -3.3848    0.0000 C   0  0  0  0  0  0  0  0  0
   -6.3196   -2.9723    0.0000 F   0  0  0  0  0  0  0  0  0
   -5.1927   -2.6704    0.0000 F   0  0  0  0  0  0  0  0  0
   -6.0177   -4.0993    0.0000 F   0  0  0  0  0  0  0  0  0
   -4.1762   -0.9098    0.0000 C   0  0  0  0  0  0  0  0  0
   -4.1762   -0.0848    0.0000 C   0  0  0  0  0  0  0  0  0
   -5.6052    1.5652    0.0000 C   0  0  0  0  0  0  0  0  0
   -5.6052    0.7402    0.0000 F   0  0  0  0  0  0  0  0  0
   -6.3196    1.9777    0.0000 C   0  0  0  0  0  0  0  0  0
   -6.3196    2.8027    0.0000 C   0  0  0  0  0  0  0  0  0
  1  2  1  0  0  0  0
  2  3  4  0  0  0  0
  2 36  4  0  0  0  0
  3  4  4  0  0  0  0
  4  5  1  0  0  0  0
  4 33  4  0  0  0  0
  5  6  2  0  0  0  0
  5  7  2  0  0  0  0
  5  8  1  0  0  0  0
  8  9  1  0  0  0  0
  9 10  1  0  0  0  0
  9 32  1  0  0  0  0
 10 11  1  0  0  0  0
 11 12  1  0  0  0  0
 12 13  1  0  0  0  0
 12 31  1  0  0  0  0
 13 14  1  0  0  0  0
 13 18  1  0  0  0  0
 14 15  1  0  0  0  0
 15 16  1  0  0  0  0
 16 17  1  0  0  0  0
 16 19  1  0  0  0  0
 17 18  1  0  0  0  0
 19 20  4  0  0  0  0
 19 24  4  0  0  0  0
 20 21  4  0  0  0  0
 21 22  4  0  0  0  0
 22 23  4  0  0  0  0
 23 24  4  0  0  0  0
 24 25  1  0  0  0  0
 25 26  1  0  0  0  0
 26 27  1  0  0  0  0
 27 28  1  0  0  0  0
 27 29  1  0  0  0  0
 27 30  1  0  0  0  0
 31 32  1  0  0  0  0
 33 34  1  0  0  0  0
 33 35  4  0  0  0  0
 35 36  4  0  0  0  0
M  END
>  <Name_Molregno>
385110

>  <Alpha-1A>
8.27

>  <Alpha-1B>
6.42

>  <DOPAMINE D2>
7.27

$$$$
385113
  Marvin  02231216192D 0   1.00000     0.00000     0

 38 41  0  0  0  0  0  0  0  0999 V2000
    2.8333    3.8061    0.0000 S   0  0  0  0  0  0  0  0  0
    3.2458    3.0917    0.0000 O   0  0  0  0  0  0  0  0  0
    2.4208    4.5206    0.0000 O   0  0  0  0  0  0  0  0  0
    2.1188    3.3936    0.0000 N   0  0  0  0  0  0  0  0  0
    2.1188    2.5686    0.0000 C   0  0  0  0  0  0  0  0  0
    2.8333    2.1561    0.0000 C   0  0  0  0  0  0  0  0  0
    2.8333    1.3311    0.0000 C   0  0  0  0  0  0  0  0  0
    2.1188    0.9186    0.0000 C   0  0  0  0  0  0  0  0  0
    2.1188    0.0936    0.0000 N   0  0  0  0  0  0  0  0  0
    2.8333   -0.3189    0.0000 C   0  0  0  0  0  0  0  0  0
    2.8333   -1.1439    0.0000 C   0  0  0  0  0  0  0  0  0
    2.1188   -1.5564    0.0000 C   0  0  0  0  0  0  0  0  0
    1.4044   -1.1439    0.0000 C   0  0  0  0  0  0  0  0  0
    1.4044   -0.3189    0.0000 C   0  0  0  0  0  0  0  0  0
    2.1188   -2.3814    0.0000 C   0  0  0  0  0  0  0  0  0
    2.8333   -2.7939    0.0000 C   0  0  0  0  0  0  0  0  0
    2.8333   -3.6189    0.0000 C   0  0  0  0  0  0  0  0  0
    2.1188   -4.0314    0.0000 C   0  0  0  0  0  0  0  0  0
    1.4044   -3.6189    0.0000 C   0  0  0  0  0  0  0  0  0
    1.4044   -2.7939    0.0000 C   0  0  0  0  0  0  0  0  0
    0.6899   -2.3814    0.0000 O   0  0  0  0  0  0  0  0  0
   -0.0246   -2.7939    0.0000 C   0  0  0  0  0  0  0  0  0
   -0.0246   -3.6189    0.0000 C   0  0  0  0  0  0  0  0  0
   -0.0246   -4.4439    0.0000 F   0  0  0  0  0  0  0  0  0
    0.8004   -3.6189    0.0000 F   0  0  0  0  0  0  0  0  0
   -0.8496   -3.6189    0.0000 F   0  0  0  0  0  0  0  0  0
    1.4044    1.3311    0.0000 C   0  0  0  0  0  0  0  0  0
    1.4044    2.1561    0.0000 C   0  0  0  0  0  0  0  0  0
    3.5478    4.2186    0.0000 C   0  0  0  0  0  0  0  0  0
    3.5478    5.0436    0.0000 C   0  0  0  0  0  0  0  0  0
    4.2622    5.4561    0.0000 C   0  0  0  0  0  0  0  0  0
    4.2622    6.2811    0.0000 O   0  0  0  0  0  0  0  0  0
    4.9767    6.6936    0.0000 C   0  0  0  0  0  0  0  0  0
    4.9767    7.5186    0.0000 F   0  0  0  0  0  0  0  0  0
    5.6912    6.2811    0.0000 F   0  0  0  0  0  0  0  0  0
    4.9767    5.0436    0.0000 C   0  0  0  0  0  0  0  0  0
    4.9767    4.2186    0.0000 C   0  0  0  0  0  0  0  0  0
    4.2622    3.8061    0.0000 C   0  0  0  0  0  0  0  0  0
  1  2  2  0  0  0  0
  1  3  2  0  0  0  0
  1  4  1  0  0  0  0
  1 29  1  0  0  0  0
  4  5  1  0  0  0  0
  5  6  1  0  0  0  0
  5 28  1  0  0  0  0
  6  7  1  0  0  0  0
  7  8  1  0  0  0  0
  8  9  1  0  0  0  0
  8 27  1  0  0  0  0
  9 10  1  0  0  0  0
  9 14  1  0  0  0  0
 10 11  1  0  0  0  0
 11 12  1  0  0  0  0
 12 13  1  0  0  0  0
 12 15  1  0  0  0  0
 13 14  1  0  0  0  0
 15 16  4  0  0  0  0
 15 20  4  0  0  0  0
 16 17  4  0  0  0  0
 17 18  4  0  0  0  0
 18 19  4  0  0  0  0
 19 20  4  0  0  0  0
 20 21  1  0  0  0  0
 21 22  1  0  0  0  0
 22 23  1  0  0  0  0
 23 24  1  0  0  0  0
 23 25  1  0  0  0  0
 23 26  1  0  0  0  0
 27 28  1  0  0  0  0
 29 30  4  0  0  0  0
 29 38  4  0  0  0  0
 30 31  4  0  0  0  0
 31 32  1  0  0  0  0
 31 36  4  0  0  0  0
 32 33  1  0  0  0  0
 33 34  1  0  0  0  0
 33 35  1  0  0  0  0
 36 37  4  0  0  0  0
 37 38  4  0  0  0  0
M  END
>  <Name_Molregno>
385113

>  <Alpha-1A>
8.03

>  <Alpha-1B>
6.51

>  <DOPAMINE D2>
6.98

$$$$
385115
  Marvin  02231216192D 0   1.00000     0.00000     0

 38 41  0  0  0  0  0  0  0  0999 V2000
    2.8641    3.3798    0.0000 S   0  0  0  0  0  0  0  0  0
    3.2766    2.6653    0.0000 O   0  0  0  0  0  0  0  0  0
    2.4516    4.0942    0.0000 O   0  0  0  0  0  0  0  0  0
    2.1496    2.9673    0.0000 N   0  0  0  0  0  0  0  0  0
    2.1496    2.1423    0.0000 C   0  0  0  0  0  0  0  0  0
    2.8641    1.7298    0.0000 C   0  0  0  0  0  0  0  0  0
    2.8641    0.9048    0.0000 C   0  0  0  0  0  0  0  0  0
    2.1496    0.4923    0.0000 C   0  0  0  0  0  0  0  0  0
    2.1496   -0.3327    0.0000 N   0  0  0  0  0  0  0  0  0
    2.8641   -0.7452    0.0000 C   0  0  0  0  0  0  0  0  0
    2.8641   -1.5702    0.0000 C   0  0  0  0  0  0  0  0  0
    2.1496   -1.9827    0.0000 C   0  0  0  0  0  0  0  0  0
    1.4351   -1.5702    0.0000 C   0  0  0  0  0  0  0  0  0
    1.4351   -0.7452    0.0000 C   0  0  0  0  0  0  0  0  0
    2.1496   -2.8077    0.0000 C   0  0  0  0  0  0  0  0  0
    2.8641   -3.2202    0.0000 C   0  0  0  0  0  0  0  0  0
    2.8641   -4.0452    0.0000 C   0  0  0  0  0  0  0  0  0
    2.1496   -4.4577    0.0000 C   0  0  0  0  0  0  0  0  0
    1.4351   -4.0452    0.0000 C   0  0  0  0  0  0  0  0  0
    1.4351   -3.2202    0.0000 C   0  0  0  0  0  0  0  0  0
    0.7206   -2.8077    0.0000 O   0  0  0  0  0  0  0  0  0
    0.0062   -3.2202    0.0000 C   0  0  0  0  0  0  0  0  0
    0.0062   -4.0452    0.0000 C   0  0  0  0  0  0  0  0  0
    0.0062   -4.8702    0.0000 F   0  0  0  0  0  0  0  0  0
    0.8312   -4.0452    0.0000 F   0  0  0  0  0  0  0  0  0
   -0.8188   -4.0452    0.0000 F   0  0  0  0  0  0  0  0  0
    1.4351    0.9048    0.0000 C   0  0  0  0  0  0  0  0  0
    1.4351    1.7298    0.0000 C   0  0  0  0  0  0  0  0  0
    3.5785    3.7923    0.0000 C   0  0  0  0  0  0  0  0  0
    3.5785    4.6173    0.0000 C   0  0  0  0  0  0  0  0  0
    4.2930    5.0298    0.0000 C   0  0  0  0  0  0  0  0  0
    5.0075    4.6173    0.0000 C   0  0  0  0  0  0  0  0  0
    5.7219    5.0298    0.0000 O   0  0  0  0  0  0  0  0  0
    6.4364    4.6173    0.0000 C   0  0  0  0  0  0  0  0  0
    7.1509    5.0298    0.0000 F   0  0  0  0  0  0  0  0  0
    6.4364    3.7923    0.0000 F   0  0  0  0  0  0  0  0  0
    5.0075    3.7923    0.0000 C   0  0  0  0  0  0  0  0  0
    4.2930    3.3798    0.0000 C   0  0  0  0  0  0  0  0  0
  1  2  2  0  0  0  0
  1  3  2  0  0  0  0
  1  4  1  0  0  0  0
  1 29  1  0  0  0  0
  4  5  1  0  0  0  0
  5  6  1  0  0  0  0
  5 28  1  0  0  0  0
  6  7  1  0  0  0  0
  7  8  1  0  0  0  0
  8  9  1  0  0  0  0
  8 27  1  0  0  0  0
  9 10  1  0  0  0  0
  9 14  1  0  0  0  0
 10 11  1  0  0  0  0
 11 12  1  0  0  0  0
 12 13  1  0  0  0  0
 12 15  1  0  0  0  0
 13 14  1  0  0  0  0
 15 16  4  0  0  0  0
 15 20  4  0  0  0  0
 16 17  4  0  0  0  0
 17 18  4  0  0  0  0
 18 19  4  0  0  0  0
 19 20  4  0  0  0  0
 20 21  1  0  0  0  0
 21 22  1  0  0  0  0
 22 23  1  0  0  0  0
 23 24  1  0  0  0  0
 23 25  1  0  0  0  0
 23 26  1  0  0  0  0
 27 28  1  0  0  0  0
 29 30  4  0  0  0  0
 29 38  4  0  0  0  0
 30 31  4  0  0  0  0
 31 32  4  0  0  0  0
 32 33  1  0  0  0  0
 32 37  4  0  0  0  0
 33 34  1  0  0  0  0
 34 35  1  0  0  0  0
 34 36  1  0  0  0  0
 37 38  4  0  0  0  0
M  END
>  <Name_Molregno>
385115

>  <Alpha-1A>
7.85

>  <Alpha-1B>
6.82

>  <DOPAMINE D2>
6.89

$$$$
385117
  Marvin  02231216192D 0   1.00000     0.00000     0

 36 39  0  0  0  0  0  0  0  0999 V2000
    2.7960    2.8199    0.0000 S   0  0  0  0  0  0  0  0  0
    3.2085    2.1055    0.0000 O   0  0  0  0  0  0  0  0  0
    2.3835    3.5344    0.0000 O   0  0  0  0  0  0  0  0  0
    2.0815    2.4074    0.0000 N   0  0  0  0  0  0  0  0  0
    2.0815    1.5824    0.0000 C   0  0  0  0  0  0  0  0  0
    2.7960    1.1699    0.0000 C   0  0  0  0  0  0  0  0  0
    2.7960    0.3449    0.0000 C   0  0  0  0  0  0  0  0  0
    2.0815   -0.0676    0.0000 C   0  0  0  0  0  0  0  0  0
    2.0815   -0.8926    0.0000 N   0  0  0  0  0  0  0  0  0
    2.7960   -1.3051    0.0000 C   0  0  0  0  0  0  0  0  0
    2.7960   -2.1301    0.0000 C   0  0  0  0  0  0  0  0  0
    2.0815   -2.5426    0.0000 C   0  0  0  0  0  0  0  0  0
    1.3670   -2.1301    0.0000 C   0  0  0  0  0  0  0  0  0
    1.3670   -1.3051    0.0000 C   0  0  0  0  0  0  0  0  0
    2.0815   -3.3676    0.0000 C   0  0  0  0  0  0  0  0  0
    2.7960   -3.7801    0.0000 C   0  0  0  0  0  0  0  0  0
    2.7960   -4.6051    0.0000 C   0  0  0  0  0  0  0  0  0
    2.0815   -5.0176    0.0000 C   0  0  0  0  0  0  0  0  0
    1.3670   -4.6051    0.0000 C   0  0  0  0  0  0  0  0  0
    1.3670   -3.7801    0.0000 C   0  0  0  0  0  0  0  0  0
    0.6525   -3.3676    0.0000 O   0  0  0  0  0  0  0  0  0
   -0.0619   -3.7801    0.0000 C   0  0  0  0  0  0  0  0  0
   -0.7764   -3.3676    0.0000 C   0  0  0  0  0  0  0  0  0
   -1.4909   -3.7801    0.0000 F   0  0  0  0  0  0  0  0  0
    1.3670    0.3449    0.0000 C   0  0  0  0  0  0  0  0  0
    1.3670    1.1699    0.0000 C   0  0  0  0  0  0  0  0  0
    3.5104    3.2324    0.0000 C   0  0  0  0  0  0  0  0  0
    3.5104    4.0574    0.0000 C   0  0  0  0  0  0  0  0  0
    4.2249    4.4699    0.0000 C   0  0  0  0  0  0  0  0  0
    4.2249    5.2949    0.0000 O   0  0  0  0  0  0  0  0  0
    4.9394    5.7074    0.0000 C   0  0  0  0  0  0  0  0  0
    4.9394    4.0574    0.0000 C   0  0  0  0  0  0  0  0  0
    5.6538    4.4699    0.0000 O   0  0  0  0  0  0  0  0  0
    5.6538    5.2949    0.0000 C   0  0  0  0  0  0  0  0  0
    4.9394    3.2324    0.0000 C   0  0  0  0  0  0  0  0  0
    4.2249    2.8199    0.0000 C   0  0  0  0  0  0  0  0  0
  1  2  2  0  0  0  0
  1  3  2  0  0  0  0
  1  4  1  0  0  0  0
  1 27  1  0  0  0  0
  4  5  1  0  0  0  0
  5  6  1  0  0  0  0
  5 26  1  0  0  0  0
  6  7  1  0  0  0  0
  7  8  1  0  0  0  0
  8  9  1  0  0  0  0
  8 25  1  0  0  0  0
  9 10  1  0  0  0  0
  9 14  1  0  0  0  0
 10 11  1  0  0  0  0
 11 12  1  0  0  0  0
 12 13  1  0  0  0  0
 12 15  1  0  0  0  0
 13 14  1  0  0  0  0
 15 16  4  0  0  0  0
 15 20  4  0  0  0  0
 16 17  4  0  0  0  0
 17 18  4  0  0  0  0
 18 19  4  0  0  0  0
 19 20  4  0  0  0  0
 20 21  1  0  0  0  0
 21 22  1  0  0  0  0
 22 23  1  0  0  0  0
 23 24  1  0  0  0  0
 25 26  1  0  0  0  0
 27 28  4  0  0  0  0
 27 36  4  0  0  0  0
 28 29  4  0  0  0  0
 29 30  1  0  0  0  0
 29 32  4  0  0  0  0
 30 31  1  0  0  0  0
 32 33  1  0  0  0  0
 32 35  4  0  0  0  0
 33 34  1  0  0  0  0
 35 36  4  0  0  0  0
M  END
>  <Name_Molregno>
385117

>  <Alpha-1A>
7.59

>  <Alpha-1B>
5.89

>  <DOPAMINE D2>
6.57

$$$$
385119
  Marvin  02231216192D 0   1.00000     0.00000     0

 37 40  0  0  0  0  0  0  0  0999 V2000
    2.9533    2.3040    0.0000 S   0  0  0  0  0  0  0  0  0
    3.3658    1.5896    0.0000 O   0  0  0  0  0  0  0  0  0
    2.5408    3.0185    0.0000 O   0  0  0  0  0  0  0  0  0
    2.2388    1.8915    0.0000 N   0  0  0  0  0  0  0  0  0
    2.2388    1.0665    0.0000 C   0  0  0  0  0  0  0  0  0
    2.9533    0.6540    0.0000 C   0  0  0  0  0  0  0  0  0
    2.9533   -0.1710    0.0000 C   0  0  0  0  0  0  0  0  0
    2.2388   -0.5835    0.0000 C   0  0  0  0  0  0  0  0  0
    2.2388   -1.4085    0.0000 N   0  0  0  0  0  0  0  0  0
    2.9533   -1.8210    0.0000 C   0  0  0  0  0  0  0  0  0
    2.9533   -2.6460    0.0000 C   0  0  0  0  0  0  0  0  0
    2.2388   -3.0585    0.0000 C   0  0  0  0  0  0  0  0  0
    1.5243   -2.6460    0.0000 C   0  0  0  0  0  0  0  0  0
    1.5243   -1.8210    0.0000 C   0  0  0  0  0  0  0  0  0
    2.2388   -3.8835    0.0000 C   0  0  0  0  0  0  0  0  0
    2.9533   -4.2960    0.0000 C   0  0  0  0  0  0  0  0  0
    2.9533   -5.1210    0.0000 C   0  0  0  0  0  0  0  0  0
    2.2388   -5.5335    0.0000 C   0  0  0  0  0  0  0  0  0
    1.5243   -5.1210    0.0000 C   0  0  0  0  0  0  0  0  0
    1.5243   -4.2960    0.0000 C   0  0  0  0  0  0  0  0  0
    0.8099   -3.8835    0.0000 O   0  0  0  0  0  0  0  0  0
    0.0954   -4.2960    0.0000 C   0  0  0  0  0  0  0  0  0
   -0.6191   -3.8835    0.0000 C   0  0  0  0  0  0  0  0  0
   -1.3335   -4.2960    0.0000 F   0  0  0  0  0  0  0  0  0
   -0.6191   -3.0585    0.0000 F   0  0  0  0  0  0  0  0  0
    1.5243   -0.1710    0.0000 C   0  0  0  0  0  0  0  0  0
    1.5243    0.6540    0.0000 C   0  0  0  0  0  0  0  0  0
    3.6678    2.7165    0.0000 C   0  0  0  0  0  0  0  0  0
    3.6678    3.5415    0.0000 C   0  0  0  0  0  0  0  0  0
    4.3822    3.9540    0.0000 C   0  0  0  0  0  0  0  0  0
    4.3822    4.7790    0.0000 O   0  0  0  0  0  0  0  0  0
    5.0967    5.1915    0.0000 C   0  0  0  0  0  0  0  0  0
    5.0967    3.5415    0.0000 C   0  0  0  0  0  0  0  0  0
    5.8112    3.9540    0.0000 O   0  0  0  0  0  0  0  0  0
    5.8112    4.7790    0.0000 C   0  0  0  0  0  0  0  0  0
    5.0967    2.7165    0.0000 C   0  0  0  0  0  0  0  0  0
    4.3822    2.3040    0.0000 C   0  0  0  0  0  0  0  0  0
  1  2  2  0  0  0  0
  1  3  2  0  0  0  0
  1  4  1  0  0  0  0
  1 28  1  0  0  0  0
  4  5  1  0  0  0  0
  5  6  1  0  0  0  0
  5 27  1  0  0  0  0
  6  7  1  0  0  0  0
  7  8  1  0  0  0  0
  8  9  1  0  0  0  0
  8 26  1  0  0  0  0
  9 10  1  0  0  0  0
  9 14  1  0  0  0  0
 10 11  1  0  0  0  0
 11 12  1  0  0  0  0
 12 13  1  0  0  0  0
 12 15  1  0  0  0  0
 13 14  1  0  0  0  0
 15 16  4  0  0  0  0
 15 20  4  0  0  0  0
 16 17  4  0  0  0  0
 17 18  4  0  0  0  0
 18 19  4  0  0  0  0
 19 20  4  0  0  0  0
 20 21  1  0  0  0  0
 21 22  1  0  0  0  0
 22 23  1  0  0  0  0
 23 24  1  0  0  0  0
 23 25  1  0  0  0  0
 26 27  1  0  0  0  0
 28 29  4  0  0  0  0
 28 37  4  0  0  0  0
 29 30  4  0  0  0  0
 30 31  1  0  0  0  0
 30 33  4  0  0  0  0
 31 32  1  0  0  0  0
 33 34  1  0  0  0  0
 33 36  4  0  0  0  0
 34 35  1  0  0  0  0
 36 37  4  0  0  0  0
M  END
>  <Name_Molregno>
385119

>  <Alpha-1A>
7.72

>  <Alpha-1B>
6.36

>  <DOPAMINE D2>
6.83

$$$$
385121
  Marvin  02231216192D 0   1.00000     0.00000     0

 37 40  0  0  0  0  0  0  0  0999 V2000
    2.9494    2.5568    0.0000 S   0  0  0  0  0  0  0  0  0
    3.3619    1.8423    0.0000 O   0  0  0  0  0  0  0  0  0
    2.5369    3.2712    0.0000 O   0  0  0  0  0  0  0  0  0
    2.2349    2.1443    0.0000 N   0  0  0  0  0  0  0  0  0
    2.2349    1.3193    0.0000 C   0  0  0  0  0  0  0  0  0
    2.9494    0.9068    0.0000 C   0  0  0  0  0  0  0  0  0
    2.9494    0.0818    0.0000 C   0  0  0  0  0  0  0  0  0
    2.2349   -0.3307    0.0000 C   0  0  0  0  0  0  0  0  0
    2.2349   -1.1557    0.0000 N   0  0  0  0  0  0  0  0  0
    2.9494   -1.5682    0.0000 C   0  0  0  0  0  0  0  0  0
    2.9494   -2.3932    0.0000 C   0  0  0  0  0  0  0  0  0
    2.2349   -2.8057    0.0000 C   0  0  0  0  0  0  0  0  0
    1.5205   -2.3932    0.0000 C   0  0  0  0  0  0  0  0  0
    1.5205   -1.5682    0.0000 C   0  0  0  0  0  0  0  0  0
    2.2349   -3.6307    0.0000 C   0  0  0  0  0  0  0  0  0
    2.9494   -4.0432    0.0000 C   0  0  0  0  0  0  0  0  0
    2.9494   -4.8682    0.0000 C   0  0  0  0  0  0  0  0  0
    2.2349   -5.2807    0.0000 C   0  0  0  0  0  0  0  0  0
    2.2349   -6.1057    0.0000 F   0  0  0  0  0  0  0  0  0
    1.5205   -4.8682    0.0000 C   0  0  0  0  0  0  0  0  0
    1.5205   -4.0432    0.0000 C   0  0  0  0  0  0  0  0  0
    0.8060   -3.6307    0.0000 O   0  0  0  0  0  0  0  0  0
    0.0915   -4.0432    0.0000 C   0  0  0  0  0  0  0  0  0
    0.0915   -4.8682    0.0000 C   0  0  0  0  0  0  0  0  0
   -0.6229   -3.6307    0.0000 C   0  0  0  0  0  0  0  0  0
    1.5205    0.0818    0.0000 C   0  0  0  0  0  0  0  0  0
    1.5205    0.9068    0.0000 C   0  0  0  0  0  0  0  0  0
    3.6639    2.9693    0.0000 C   0  0  0  0  0  0  0  0  0
    3.6639    3.7943    0.0000 C   0  0  0  0  0  0  0  0  0
    4.3784    4.2068    0.0000 C   0  0  0  0  0  0  0  0  0
    4.3784    5.0318    0.0000 O   0  0  0  0  0  0  0  0  0
    5.0928    5.4443    0.0000 C   0  0  0  0  0  0  0  0  0
    5.0928    3.7943    0.0000 C   0  0  0  0  0  0  0  0  0
    5.8073    4.2068    0.0000 O   0  0  0  0  0  0  0  0  0
    5.8073    5.0318    0.0000 C   0  0  0  0  0  0  0  0  0
    5.0928    2.9693    0.0000 C   0  0  0  0  0  0  0  0  0
    4.3784    2.5568    0.0000 C   0  0  0  0  0  0  0  0  0
  1  2  2  0  0  0  0
  1  3  2  0  0  0  0
  1  4  1  0  0  0  0
  1 28  1  0  0  0  0
  4  5  1  0  0  0  0
  5  6  1  0  0  0  0
  5 27  1  0  0  0  0
  6  7  1  0  0  0  0
  7  8  1  0  0  0  0
  8  9  1  0  0  0  0
  8 26  1  0  0  0  0
  9 10  1  0  0  0  0
  9 14  1  0  0  0  0
 10 11  1  0  0  0  0
 11 12  1  0  0  0  0
 12 13  1  0  0  0  0
 12 15  1  0  0  0  0
 13 14  1  0  0  0  0
 15 16  4  0  0  0  0
 15 21  4  0  0  0  0
 16 17  4  0  0  0  0
 17 18  4  0  0  0  0
 18 19  1  0  0  0  0
 18 20  4  0  0  0  0
 20 21  4  0  0  0  0
 21 22  1  0  0  0  0
 22 23  1  0  0  0  0
 23 24  1  0  0  0  0
 23 25  1  0  0  0  0
 26 27  1  0  0  0  0
 28 29  4  0  0  0  0
 28 37  4  0  0  0  0
 29 30  4  0  0  0  0
 30 31  1  0  0  0  0
 30 33  4  0  0  0  0
 31 32  1  0  0  0  0
 33 34  1  0  0  0  0
 33 36  4  0  0  0  0
 34 35  1  0  0  0  0
 36 37  4  0  0  0  0
M  END
>  <Name_Molregno>
385121

>  <Alpha-1A>
7.72

>  <Alpha-1B>
6.17

>  <DOPAMINE D2>
6.97

$$$$
385123
  Marvin  02231216192D 0   1.00000     0.00000     0

 37 40  0  0  0  0  0  0  0  0999 V2000
    2.8877    2.5529    0.0000 S   0  0  0  0  0  0  0  0  0
    3.3002    1.8385    0.0000 O   0  0  0  0  0  0  0  0  0
    2.4752    3.2674    0.0000 O   0  0  0  0  0  0  0  0  0
    2.1732    2.1404    0.0000 N   0  0  0  0  0  0  0  0  0
    2.1732    1.3154    0.0000 C   0  0  0  0  0  0  0  0  0
    2.8877    0.9029    0.0000 C   0  0  0  0  0  0  0  0  0
    2.8877    0.0779    0.0000 C   0  0  0  0  0  0  0  0  0
    2.1732   -0.3346    0.0000 C   0  0  0  0  0  0  0  0  0
    2.1732   -1.1596    0.0000 N   0  0  0  0  0  0  0  0  0
    2.8877   -1.5721    0.0000 C   0  0  0  0  0  0  0  0  0
    2.8877   -2.3971    0.0000 C   0  0  0  0  0  0  0  0  0
    2.1732   -2.8096    0.0000 C   0  0  0  0  0  0  0  0  0
    1.4587   -2.3971    0.0000 C   0  0  0  0  0  0  0  0  0
    1.4587   -1.5721    0.0000 C   0  0  0  0  0  0  0  0  0
    2.1732   -3.6346    0.0000 C   0  0  0  0  0  0  0  0  0
    2.8877   -4.0471    0.0000 C   0  0  0  0  0  0  0  0  0
    2.8877   -4.8721    0.0000 C   0  0  0  0  0  0  0  0  0
    3.6021   -5.2846    0.0000 F   0  0  0  0  0  0  0  0  0
    2.1732   -5.2846    0.0000 C   0  0  0  0  0  0  0  0  0
    1.4587   -4.8721    0.0000 C   0  0  0  0  0  0  0  0  0
    1.4587   -4.0471    0.0000 C   0  0  0  0  0  0  0  0  0
    0.7443   -3.6346    0.0000 O   0  0  0  0  0  0  0  0  0
    0.0298   -4.0471    0.0000 C   0  0  0  0  0  0  0  0  0
   -0.6847   -3.6346    0.0000 C   0  0  0  0  0  0  0  0  0
    0.0298   -4.8721    0.0000 C   0  0  0  0  0  0  0  0  0
    1.4587    0.0779    0.0000 C   0  0  0  0  0  0  0  0  0
    1.4587    0.9029    0.0000 C   0  0  0  0  0  0  0  0  0
    3.6021    2.9654    0.0000 C   0  0  0  0  0  0  0  0  0
    3.6021    3.7904    0.0000 C   0  0  0  0  0  0  0  0  0
    4.3166    4.2029    0.0000 C   0  0  0  0  0  0  0  0  0
    4.3166    5.0279    0.0000 O   0  0  0  0  0  0  0  0  0
    5.0311    5.4404    0.0000 C   0  0  0  0  0  0  0  0  0
    5.0311    3.7904    0.0000 C   0  0  0  0  0  0  0  0  0
    5.7456    4.2029    0.0000 O   0  0  0  0  0  0  0  0  0
    5.7456    5.0279    0.0000 C   0  0  0  0  0  0  0  0  0
    5.0311    2.9654    0.0000 C   0  0  0  0  0  0  0  0  0
    4.3166    2.5529    0.0000 C   0  0  0  0  0  0  0  0  0
  1  2  2  0  0  0  0
  1  3  2  0  0  0  0
  1  4  1  0  0  0  0
  1 28  1  0  0  0  0
  4  5  1  0  0  0  0
  5  6  1  0  0  0  0
  5 27  1  0  0  0  0
  6  7  1  0  0  0  0
  7  8  1  0  0  0  0
  8  9  1  0  0  0  0
  8 26  1  0  0  0  0
  9 10  1  0  0  0  0
  9 14  1  0  0  0  0
 10 11  1  0  0  0  0
 11 12  1  0  0  0  0
 12 13  1  0  0  0  0
 12 15  1  0  0  0  0
 13 14  1  0  0  0  0
 15 16  4  0  0  0  0
 15 21  4  0  0  0  0
 16 17  4  0  0  0  0
 17 18  1  0  0  0  0
 17 19  4  0  0  0  0
 19 20  4  0  0  0  0
 20 21  4  0  0  0  0
 21 22  1  0  0  0  0
 22 23  1  0  0  0  0
 23 24  1  0  0  0  0
 23 25  1  0  0  0  0
 26 27  1  0  0  0  0
 28 29  4  0  0  0  0
 28 37  4  0  0  0  0
 29 30  4  0  0  0  0
 30 31  1  0  0  0  0
 30 33  4  0  0  0  0
 31 32  1  0  0  0  0
 33 34  1  0  0  0  0
 33 36  4  0  0  0  0
 34 35  1  0  0  0  0
 36 37  4  0  0  0  0
M  END
>  <Name_Molregno>
385123

>  <Alpha-1A>
7.92

>  <Alpha-1B>
6.17

>  <DOPAMINE D2>
6.89

$$$$
387941
  Marvin  02231216192D 0   1.00000     0.00000     0

 15 16  0  0  1  0  0  0  0  0999 V2000
    1.0445   -1.8406    0.0000 N   0  0  0  0  0  0  0  0  0
    0.7895   -2.6253    0.0000 C   0  0  0  0  0  0  0  0  0
   -0.0355   -2.6253    0.0000 N   0  0  0  0  0  0  0  0  0
   -0.2904   -1.8406    0.0000 C   0  0  0  0  0  0  0  0  0
    0.3770   -1.3557    0.0000 C   0  0  0  0  0  0  0  0  0
    0.3770   -0.5307    0.0000 C   0  0  0  0  0  0  0  0  0
   -0.3375   -0.1182    0.0000 C   0  0  0  0  0  0  0  0  0
    1.0915   -0.1182    0.0000 C   0  0  0  0  0  0  0  0  0
    1.0915    0.7068    0.0000 C   0  0  0  0  0  0  0  0  0
    1.8060    1.1193    0.0000 C   0  0  0  0  0  0  0  0  0
    2.5204    0.7068    0.0000 C   0  0  0  0  0  0  0  0  0
    2.5204   -0.1182    0.0000 C   0  0  0  0  0  0  0  0  0
    3.2349   -0.5307    0.0000 C   0  0  0  0  0  0  0  0  0
    1.8060   -0.5307    0.0000 C   0  0  0  0  0  0  0  0  0
    1.8060   -1.3557    0.0000 C   0  0  0  0  0  0  0  0  0
  1  2  4  0  0  0  0
  1  5  4  0  0  0  0
  2  3  4  0  0  0  0
  3  4  4  0  0  0  0
  4  5  4  0  0  0  0
  5  6  1  0  0  0  0
  6  7  1  0  0  0  0
  6  8  1  0  0  0  0
  8  9  4  0  0  0  0
  8 14  4  0  0  0  0
  9 10  4  0  0  0  0
 10 11  4  0  0  0  0
 11 12  4  0  0  0  0
 12 13  1  0  0  0  0
 12 14  4  0  0  0  0
 14 15  1  0  0  0  0
M  STY  1   1 DAT
M  SAL   1  1   1
M  SDT   1 MRV_IMPLICIT_H                                        
M  SDD   1     0.0000    0.0000    DR    ALL  0       0  
M  SED   1 IMPL_H1
M  END
>  <Name_Molregno>
387941

>  <Alpha-1A>
6.7

>  <Alpha-1B>
6.5

>  <Alpha-2A>
8.22

>  <Alpha-2B>
7.96

>  <Alpha-2C>
7.74

>  <Norepinephrine transporter>
6

$$$$
389011
  Marvin  02231216192D 0   1.00000     0.00000     0

 25 26  0  0  1  0  0  0  0  0999 V2000
   -2.9244    1.8604    0.0000 S   0  0  0  0  0  0  0  0  0
   -3.7494    1.8604    0.0000 O   0  0  0  0  0  0  0  0  0
   -2.0994    1.8604    0.0000 O   0  0  0  0  0  0  0  0  0
   -2.9244    2.6854    0.0000 C   0  0  0  0  0  0  0  0  0
   -3.6388    3.0979    0.0000 C   0  0  0  0  0  0  0  0  0
   -2.9244    1.0354    0.0000 C   0  0  0  0  0  0  0  0  0
   -2.2099    0.6229    0.0000 C   0  0  0  0  0  0  0  0  0
   -2.2099   -0.2021    0.0000 C   0  0  0  0  0  0  0  0  0
   -1.4954   -0.6146    0.0000 C   0  0  0  0  0  0  0  0  0
   -0.7810   -0.2021    0.0000 O   0  0  0  0  0  0  0  0  0
   -1.4954   -1.4396    0.0000 N   0  0  0  0  0  0  0  0  0
   -0.7810   -1.8521    0.0000 C   0  0  0  0  0  0  0  0  0
   -0.7810   -2.6771    0.0000 C   0  0  0  0  0  0  0  0  0
   -0.1135   -3.1620    0.0000 N   0  0  0  0  0  0  0  0  0
   -0.3685   -3.9466    0.0000 C   0  0  0  0  0  0  0  0  0
   -1.1935   -3.9466    0.0000 C   0  0  0  0  0  0  0  0  0
   -1.4484   -3.1620    0.0000 C   0  0  0  0  0  0  0  0  0
    0.6711   -2.9071    0.0000 C   0  0  0  0  0  0  0  0  0
    1.2842   -3.4591    0.0000 C   0  0  0  0  0  0  0  0  0
   -2.9244   -0.6146    0.0000 C   0  0  0  0  0  0  0  0  0
   -2.9244   -1.4396    0.0000 O   0  0  0  0  0  0  0  0  0
   -3.6388   -1.8521    0.0000 C   0  0  0  0  0  0  0  0  0
   -3.6388   -0.2021    0.0000 C   0  0  0  0  0  0  0  0  0
   -3.6388    0.6229    0.0000 C   0  0  0  0  0  0  0  0  0
   -4.3533    1.0354    0.0000 N   0  0  0  0  0  0  0  0  0
  1  2  2  0  0  0  0
  1  3  2  0  0  0  0
  1  4  1  0  0  0  0
  1  6  1  0  0  0  0
  4  5  1  0  0  0  0
  6  7  4  0  0  0  0
  6 24  4  0  0  0  0
  7  8  4  0  0  0  0
  8  9  1  0  0  0  0
  8 20  4  0  0  0  0
  9 10  2  0  0  0  0
  9 11  1  0  0  0  0
 11 12  1  0  0  0  0
 12 13  1  0  0  0  0
 13 14  1  0  0  0  0
 13 17  1  0  0  0  0
 14 15  1  0  0  0  0
 14 18  1  0  0  0  0
 15 16  1  0  0  0  0
 16 17  1  0  0  0  0
 18 19  1  0  0  0  0
 20 21  1  0  0  0  0
 20 23  4  0  0  0  0
 21 22  1  0  0  0  0
 23 24  4  0  0  0  0
 24 25  1  0  0  0  0
M  END
>  <Name_Molregno>
389011

>  <5-HT1A>
5

>  <5-HT1B>
5.76

>  <5-HT1D>
5.87

>  <5-HT1E>
5

>  <5-HT2A>
5.64

>  <5-HT2C>
5

>  <5-HT3>
5

>  <5-HT5>
5

>  <5-HT6>
5.38

>  <5-HT7>
7.47

>  <Alpha-1A>
5

>  <Alpha-1B>
5

>  <Alpha-2A>
5.95

>  <Alpha-2C>
5.81

>  <Beta-1>
5

>  <Beta-2>
5

>  <DOPAMINE D1>
5

>  <DOPAMINE D2>
8.71

>  <DOPAMINE D3>
8.51

>  <DOPAMINE D4>
5.63

>  <DOPAMINE D5>
5

>  <Dopamine transporter>
5

>  <HISTAMINE H1>
5

>  <HISTAMINE H2>
5

>  <HISTAMINE H4>
5

>  <Muscarinic acetylcholine receptor M1>
5

>  <Muscarinic acetylcholine receptor M2>
5

>  <Muscarinic acetylcholine receptor M3>
5

>  <Muscarinic acetylcholine receptor M4>
5

>  <Muscarinic acetylcholine receptor M5>
5

>  <Norepinephrine transporter>
5

>  <Serotonin transporter>
5

$$$$
390008
  Marvin  02231216192D 0   1.00000     0.00000     0

 39 44  0  0  0  0  0  0  0  0999 V2000
    0.3222    0.7886    0.0000 S   0  0  0  0  0  0  0  0  0
   -0.0134    0.0349    0.0000 C   0  0  0  0  0  0  0  0  0
    0.4715   -0.6325    0.0000 C   0  0  0  0  0  0  0  0  0
    0.1360   -1.3862    0.0000 C   0  0  0  0  0  0  0  0  0
    0.6209   -2.0537    0.0000 N   0  0  0  0  0  0  0  0  0
    1.4326   -1.9063    0.0000 C   0  0  0  0  0  0  0  0  0
    2.0539   -2.4491    0.0000 C   0  0  0  0  0  0  0  0  0
    2.0169   -3.2733    0.0000 C   0  0  0  0  0  0  0  0  0
    2.7706   -3.6089    0.0000 C   0  0  0  0  0  0  0  0  0
    2.8568   -4.4294    0.0000 C   0  0  0  0  0  0  0  0  0
    2.1894   -4.9143    0.0000 C   0  0  0  0  0  0  0  0  0
    1.4357   -4.5787    0.0000 C   0  0  0  0  0  0  0  0  0
    1.3495   -3.7582    0.0000 C   0  0  0  0  0  0  0  0  0
    0.5542   -3.5388    0.0000 C   0  0  0  0  0  0  0  0  0
    0.2299   -2.7801    0.0000 C   0  0  0  0  0  0  0  0  0
    3.6105   -4.7649    0.0000 C   0  0  0  0  0  0  0  0  0
    4.3250   -4.3524    0.0000 N   0  0  0  0  0  0  0  0  0
    4.9380   -4.9044    0.0000 N   0  0  0  0  0  0  0  0  0
    4.6025   -5.6581    0.0000 C   0  0  0  0  0  0  0  0  0
    3.7820   -5.5719    0.0000 C   0  0  0  0  0  0  0  0  0
    5.0150   -6.3726    0.0000 C   0  0  0  0  0  0  0  0  0
    4.4112   -3.5319    0.0000 C   0  0  0  0  0  0  0  0  0
   -0.1628    1.4560    0.0000 C   0  0  0  0  0  0  0  0  0
   -0.9878    1.4560    0.0000 N   0  0  0  0  0  0  0  0  0
   -1.2427    2.2406    0.0000 N   0  0  0  0  0  0  0  0  0
   -0.5753    2.7256    0.0000 C   0  0  0  0  0  0  0  0  0
    0.0922    2.2406    0.0000 N   0  0  0  0  0  0  0  0  0
    0.8768    2.4956    0.0000 C   0  0  0  0  0  0  0  0  0
   -0.5753    3.5506    0.0000 C   0  0  0  0  0  0  0  0  0
    0.1392    3.9631    0.0000 C   0  0  0  0  0  0  0  0  0
    0.1392    4.7881    0.0000 C   0  0  0  0  0  0  0  0  0
    0.8537    5.2006    0.0000 N   0  0  0  0  0  0  0  0  0
    1.5681    4.7881    0.0000 C   0  0  0  0  0  0  0  0  0
    1.5681    3.9631    0.0000 C   0  0  0  0  0  0  0  0  0
    0.8537    3.5506    0.0000 C   0  0  0  0  0  0  0  0  0
    2.2826    5.2006    0.0000 C   0  0  0  0  0  0  0  0  0
   -0.5753    5.2006    0.0000 C   0  0  0  0  0  0  0  0  0
   -1.2897    4.7881    0.0000 C   0  0  0  0  0  0  0  0  0
   -1.2897    3.9631    0.0000 C   0  0  0  0  0  0  0  0  0
  1  2  1  0  0  0  0
  1 23  1  0  0  0  0
  2  3  1  0  0  0  0
  3  4  1  0  0  0  0
  4  5  1  0  0  0  0
  5  6  1  0  0  0  0
  5 15  1  0  0  0  0
  6  7  1  0  0  0  0
  7  8  1  0  0  0  0
  8  9  4  0  0  0  0
  8 13  4  0  0  0  0
  9 10  4  0  0  0  0
 10 11  4  0  0  0  0
 10 16  1  0  0  0  0
 11 12  4  0  0  0  0
 12 13  4  0  0  0  0
 13 14  1  0  0  0  0
 14 15  1  0  0  0  0
 16 17  4  0  0  0  0
 16 20  4  0  0  0  0
 17 18  4  0  0  0  0
 17 22  1  0  0  0  0
 18 19  4  0  0  0  0
 19 20  4  0  0  0  0
 19 21  1  0  0  0  0
 23 24  4  0  0  0  0
 23 27  4  0  0  0  0
 24 25  4  0  0  0  0
 25 26  4  0  0  0  0
 26 27  4  0  0  0  0
 26 29  1  0  0  0  0
 27 28  1  0  0  0  0
 29 30  4  0  0  0  0
 29 39  4  0  0  0  0
 30 31  4  0  0  0  0
 30 35  4  0  0  0  0
 31 32  4  0  0  0  0
 31 37  4  0  0  0  0
 32 33  4  0  0  0  0
 33 34  4  0  0  0  0
 33 36  1  0  0  0  0
 34 35  4  0  0  0  0
 37 38  4  0  0  0  0
 38 39  4  0  0  0  0
M  END
>  <Name_Molregno>
390008

>  <5-HT1A>
6.2

>  <5-HT1B>
6.3

>  <5-HT1D>
6.7

>  <5-HT2A>
5.4

>  <5-HT2C>
5.4

>  <5-HT6>
5.9

>  <5-HT7>
5.7

>  <Alpha-1A>
6.2

>  <Alpha-1B>
5.7

>  <DOPAMINE D2>
6.25

>  <DOPAMINE D3>
8.7

>  <HISTAMINE H3>
6.5

$$$$
391596
  Marvin  02231216192D 0   1.00000     0.00000     0

 33 37  0  0  1  0  0  0  0  0999 V2000
    0.2807    2.6857    0.0000 Br  0  0  0  0  0  0  0  0  0
    0.6162    1.9320    0.0000 C   0  0  0  0  0  0  0  0  0
    1.4232    1.7605    0.0000 O   0  0  0  0  0  0  0  0  0
    1.5095    0.9400    0.0000 C   0  0  0  0  0  0  0  0  0
    0.7558    0.6044    0.0000 C   0  0  0  0  0  0  0  0  0
    0.2037    1.2175    0.0000 C   0  0  0  0  0  0  0  0  0
    2.2239    0.5275    0.0000 C   0  0  0  0  0  0  0  0  0
    2.2239   -0.2975    0.0000 O   0  0  0  0  0  0  0  0  0
    2.9384    0.9400    0.0000 N   0  0  0  0  0  0  0  0  0
    3.6529    0.5275    0.0000 C   0  0  0  0  0  0  0  0  0
    4.3673    0.9400    0.0000 C   0  0  0  0  0  0  0  0  0
    4.3673    1.7650    0.0000 N   0  0  0  0  0  0  0  0  0
    3.6529    2.1775    0.0000 C   0  0  0  0  0  0  0  0  0
    2.9384    1.7650    0.0000 C   0  0  0  0  0  0  0  0  0
    5.0818    2.1775    0.0000 C   0  0  0  0  0  0  0  0  0
    5.0818    3.0025    0.0000 N   0  0  0  0  0  0  0  0  0
    5.7963    3.4150    0.0000 C   0  0  0  0  0  0  0  0  0
    5.7963    4.2400    0.0000 N   0  0  0  0  0  0  0  0  0
    6.5107    3.0025    0.0000 C   0  0  0  0  0  0  0  0  0
    7.2252    3.4150    0.0000 C   0  0  0  0  0  0  0  0  0
    7.9397    3.0025    0.0000 C   0  0  0  0  0  0  0  0  0
    8.6542    3.4150    0.0000 O   0  0  0  0  0  0  0  0  0
    8.6542    4.2400    0.0000 C   0  0  0  0  0  0  0  0  0
    7.9397    2.1775    0.0000 C   0  0  0  0  0  0  0  0  0
    8.6542    1.7650    0.0000 O   0  0  0  0  0  0  0  0  0
    8.6542    0.9400    0.0000 C   0  0  0  0  0  0  0  0  0
    7.2252    1.7650    0.0000 C   0  0  0  0  0  0  0  0  0
    6.5107    2.1775    0.0000 C   0  0  0  0  0  0  0  0  0
    5.7963    1.7650    0.0000 N   0  0  0  0  0  0  0  0  0
    5.0818    0.5275    0.0000 C   0  0  0  0  0  0  0  0  0
    5.0818   -0.2975    0.0000 C   0  0  0  0  0  0  0  0  0
    4.3673   -0.7100    0.0000 C   0  0  0  0  0  0  0  0  0
    3.6529   -0.2975    0.0000 C   0  0  0  0  0  0  0  0  0
  1  2  1  0  0  0  0
  2  3  4  0  0  0  0
  2  6  4  0  0  0  0
  3  4  4  0  0  0  0
  4  5  4  0  0  0  0
  4  7  1  0  0  0  0
  5  6  4  0  0  0  0
  7  8  2  0  0  0  0
  7  9  1  0  0  0  0
  9 10  1  0  0  0  0
  9 14  1  0  0  0  0
 10 11  1  0  0  0  0
 10 33  1  0  0  0  0
 11 12  1  0  0  0  0
 11 30  1  0  0  0  0
 12 13  1  0  0  0  0
 12 15  1  0  0  0  0
 13 14  1  0  0  0  0
 15 16  4  0  0  0  0
 15 29  4  0  0  0  0
 16 17  4  0  0  0  0
 17 18  1  0  0  0  0
 17 19  4  0  0  0  0
 19 20  4  0  0  0  0
 19 28  4  0  0  0  0
 20 21  4  0  0  0  0
 21 22  1  0  0  0  0
 21 24  4  0  0  0  0
 22 23  1  0  0  0  0
 24 25  1  0  0  0  0
 24 27  4  0  0  0  0
 25 26  1  0  0  0  0
 27 28  4  0  0  0  0
 28 29  4  0  0  0  0
 30 31  1  0  0  0  0
 31 32  1  0  0  0  0
 32 33  1  0  0  0  0
M  END
>  <Name_Molregno>
391596

>  <Alpha-1A>
8.46

>  <Alpha-1B>
9.51

$$$$
391597
  Marvin  02231216192D 0   1.00000     0.00000     0

 33 37  0  0  1  0  0  0  0  0999 V2000
   -7.1019   -0.4427    0.0000 O   0  0  0  0  0  0  0  0  0
   -7.0157   -1.2632    0.0000 C   0  0  0  0  0  0  0  0  0
   -7.7693   -1.5987    0.0000 C   0  0  0  0  0  0  0  0  0
   -8.3214   -0.9856    0.0000 C   0  0  0  0  0  0  0  0  0
   -7.9089   -0.2712    0.0000 C   0  0  0  0  0  0  0  0  0
   -8.2444    0.4825    0.0000 C   0  0  0  0  0  0  0  0  0
   -6.3012   -1.6757    0.0000 C   0  0  0  0  0  0  0  0  0
   -6.3012   -2.5007    0.0000 O   0  0  0  0  0  0  0  0  0
   -5.5867   -1.2632    0.0000 N   0  0  0  0  0  0  0  0  0
   -4.8722   -1.6757    0.0000 C   0  0  0  0  0  0  0  0  0
   -4.1578   -1.2632    0.0000 C   0  0  0  0  0  0  0  0  0
   -4.1578   -0.4382    0.0000 N   0  0  0  0  0  0  0  0  0
   -4.8722   -0.0257    0.0000 C   0  0  0  0  0  0  0  0  0
   -5.5867   -0.4382    0.0000 C   0  0  0  0  0  0  0  0  0
   -3.4433   -0.0257    0.0000 C   0  0  0  0  0  0  0  0  0
   -3.4433    0.7993    0.0000 N   0  0  0  0  0  0  0  0  0
   -2.7288    1.2118    0.0000 C   0  0  0  0  0  0  0  0  0
   -2.7288    2.0368    0.0000 N   0  0  0  0  0  0  0  0  0
   -2.0144    0.7993    0.0000 C   0  0  0  0  0  0  0  0  0
   -1.2999    1.2118    0.0000 C   0  0  0  0  0  0  0  0  0
   -0.5854    0.7993    0.0000 C   0  0  0  0  0  0  0  0  0
    0.1290    1.2118    0.0000 O   0  0  0  0  0  0  0  0  0
    0.1290    2.0368    0.0000 C   0  0  0  0  0  0  0  0  0
   -0.5854   -0.0257    0.0000 C   0  0  0  0  0  0  0  0  0
    0.1290   -0.4382    0.0000 O   0  0  0  0  0  0  0  0  0
    0.1290   -1.2632    0.0000 C   0  0  0  0  0  0  0  0  0
   -1.2999   -0.4382    0.0000 C   0  0  0  0  0  0  0  0  0
   -2.0144   -0.0257    0.0000 C   0  0  0  0  0  0  0  0  0
   -2.7288   -0.4382    0.0000 N   0  0  0  0  0  0  0  0  0
   -3.4433   -1.6757    0.0000 C   0  0  0  0  0  0  0  0  0
   -3.4433   -2.5007    0.0000 C   0  0  0  0  0  0  0  0  0
   -4.1578   -2.9132    0.0000 C   0  0  0  0  0  0  0  0  0
   -4.8722   -2.5007    0.0000 C   0  0  0  0  0  0  0  0  0
  1  2  4  0  0  0  0
  1  5  4  0  0  0  0
  2  3  4  0  0  0  0
  2  7  1  0  0  0  0
  3  4  4  0  0  0  0
  4  5  4  0  0  0  0
  5  6  1  0  0  0  0
  7  8  2  0  0  0  0
  7  9  1  0  0  0  0
  9 10  1  0  0  0  0
  9 14  1  0  0  0  0
 10 11  1  0  0  0  0
 10 33  1  0  0  0  0
 11 12  1  0  0  0  0
 11 30  1  0  0  0  0
 12 13  1  0  0  0  0
 12 15  1  0  0  0  0
 13 14  1  0  0  0  0
 15 16  4  0  0  0  0
 15 29  4  0  0  0  0
 16 17  4  0  0  0  0
 17 18  1  0  0  0  0
 17 19  4  0  0  0  0
 19 20  4  0  0  0  0
 19 28  4  0  0  0  0
 20 21  4  0  0  0  0
 21 22  1  0  0  0  0
 21 24  4  0  0  0  0
 22 23  1  0  0  0  0
 24 25  1  0  0  0  0
 24 27  4  0  0  0  0
 25 26  1  0  0  0  0
 27 28  4  0  0  0  0
 28 29  4  0  0  0  0
 30 31  1  0  0  0  0
 31 32  1  0  0  0  0
 32 33  1  0  0  0  0
M  END
>  <Name_Molregno>
391597

>  <Alpha-1A>
7.63

>  <Alpha-1B>
9.06

$$$$
391598
  Marvin  02231216192D 0   1.00000     0.00000     0

 34 38  0  0  1  0  0  0  0  0999 V2000
   -6.8087    0.3652    0.0000 O   0  0  0  0  0  0  0  0  0
   -6.7225   -0.4553    0.0000 C   0  0  0  0  0  0  0  0  0
   -7.4762   -0.7908    0.0000 C   0  0  0  0  0  0  0  0  0
   -8.0282   -0.1777    0.0000 C   0  0  0  0  0  0  0  0  0
   -7.6157    0.5367    0.0000 C   0  0  0  0  0  0  0  0  0
   -7.9512    1.2904    0.0000 O   0  0  0  0  0  0  0  0  0
   -8.7717    1.3766    0.0000 C   0  0  0  0  0  0  0  0  0
   -6.0080   -0.8678    0.0000 C   0  0  0  0  0  0  0  0  0
   -6.0080   -1.6928    0.0000 O   0  0  0  0  0  0  0  0  0
   -5.2935   -0.4553    0.0000 N   0  0  0  0  0  0  0  0  0
   -4.5791   -0.8678    0.0000 C   0  0  0  0  0  0  0  0  0
   -3.8646   -0.4553    0.0000 C   0  0  0  0  0  0  0  0  0
   -3.8646    0.3697    0.0000 N   0  0  0  0  0  0  0  0  0
   -4.5791    0.7822    0.0000 C   0  0  0  0  0  0  0  0  0
   -5.2935    0.3697    0.0000 C   0  0  0  0  0  0  0  0  0
   -3.1501    0.7822    0.0000 C   0  0  0  0  0  0  0  0  0
   -3.1501    1.6072    0.0000 N   0  0  0  0  0  0  0  0  0
   -2.4357    2.0197    0.0000 C   0  0  0  0  0  0  0  0  0
   -2.4357    2.8447    0.0000 N   0  0  0  0  0  0  0  0  0
   -1.7212    1.6072    0.0000 C   0  0  0  0  0  0  0  0  0
   -1.0067    2.0197    0.0000 C   0  0  0  0  0  0  0  0  0
   -0.2922    1.6072    0.0000 C   0  0  0  0  0  0  0  0  0
    0.4222    2.0197    0.0000 O   0  0  0  0  0  0  0  0  0
    0.4222    2.8447    0.0000 C   0  0  0  0  0  0  0  0  0
   -0.2922    0.7822    0.0000 C   0  0  0  0  0  0  0  0  0
    0.4222    0.3697    0.0000 O   0  0  0  0  0  0  0  0  0
    0.4222   -0.4553    0.0000 C   0  0  0  0  0  0  0  0  0
   -1.0067    0.3697    0.0000 C   0  0  0  0  0  0  0  0  0
   -1.7212    0.7822    0.0000 C   0  0  0  0  0  0  0  0  0
   -2.4357    0.3697    0.0000 N   0  0  0  0  0  0  0  0  0
   -3.1501   -0.8678    0.0000 C   0  0  0  0  0  0  0  0  0
   -3.1501   -1.6928    0.0000 C   0  0  0  0  0  0  0  0  0
   -3.8646   -2.1053    0.0000 C   0  0  0  0  0  0  0  0  0
   -4.5791   -1.6928    0.0000 C   0  0  0  0  0  0  0  0  0
  1  2  4  0  0  0  0
  1  5  4  0  0  0  0
  2  3  4  0  0  0  0
  2  8  1  0  0  0  0
  3  4  4  0  0  0  0
  4  5  4  0  0  0  0
  5  6  1  0  0  0  0
  6  7  1  0  0  0  0
  8  9  2  0  0  0  0
  8 10  1  0  0  0  0
 10 11  1  0  0  0  0
 10 15  1  0  0  0  0
 11 12  1  0  0  0  0
 11 34  1  0  0  0  0
 12 13  1  0  0  0  0
 12 31  1  0  0  0  0
 13 14  1  0  0  0  0
 13 16  1  0  0  0  0
 14 15  1  0  0  0  0
 16 17  4  0  0  0  0
 16 30  4  0  0  0  0
 17 18  4  0  0  0  0
 18 19  1  0  0  0  0
 18 20  4  0  0  0  0
 20 21  4  0  0  0  0
 20 29  4  0  0  0  0
 21 22  4  0  0  0  0
 22 23  1  0  0  0  0
 22 25  4  0  0  0  0
 23 24  1  0  0  0  0
 25 26  1  0  0  0  0
 25 28  4  0  0  0  0
 26 27  1  0  0  0  0
 28 29  4  0  0  0  0
 29 30  4  0  0  0  0
 31 32  1  0  0  0  0
 32 33  1  0  0  0  0
 33 34  1  0  0  0  0
M  END
>  <Name_Molregno>
391598

>  <Alpha-1A>
7.56

>  <Alpha-1B>
9.06

$$$$
391599
  Marvin  02231216192D 0   1.00000     0.00000     0

 35 39  0  0  1  0  0  0  0  0999 V2000
   -0.0671   -1.4043    0.0000 O   0  0  0  0  0  0  0  0  0
   -0.6191   -0.7912    0.0000 C   0  0  0  0  0  0  0  0  0
   -0.2066   -0.0767    0.0000 C   0  0  0  0  0  0  0  0  0
    0.6003   -0.2482    0.0000 C   0  0  0  0  0  0  0  0  0
    0.6866   -1.0687    0.0000 C   0  0  0  0  0  0  0  0  0
    1.4010   -1.4812    0.0000 C   0  0  0  0  0  0  0  0  0
    1.4010   -2.3062    0.0000 O   0  0  0  0  0  0  0  0  0
    2.1155   -1.0687    0.0000 N   0  0  0  0  0  0  0  0  0
    2.8300   -1.4812    0.0000 C   0  0  0  0  0  0  0  0  0
    3.5444   -1.0687    0.0000 C   0  0  0  0  0  0  0  0  0
    3.5444   -0.2437    0.0000 N   0  0  0  0  0  0  0  0  0
    2.8300    0.1688    0.0000 C   0  0  0  0  0  0  0  0  0
    2.1155   -0.2437    0.0000 C   0  0  0  0  0  0  0  0  0
    4.2589    0.1688    0.0000 C   0  0  0  0  0  0  0  0  0
    4.2589    0.9938    0.0000 N   0  0  0  0  0  0  0  0  0
    4.9734    1.4063    0.0000 C   0  0  0  0  0  0  0  0  0
    4.9734    2.2313    0.0000 N   0  0  0  0  0  0  0  0  0
    5.6879    0.9938    0.0000 C   0  0  0  0  0  0  0  0  0
    6.4023    1.4063    0.0000 C   0  0  0  0  0  0  0  0  0
    7.1168    0.9938    0.0000 C   0  0  0  0  0  0  0  0  0
    7.8313    1.4063    0.0000 O   0  0  0  0  0  0  0  0  0
    8.5457    0.9938    0.0000 C   0  0  0  0  0  0  0  0  0
    7.1168    0.1688    0.0000 C   0  0  0  0  0  0  0  0  0
    7.8313   -0.2437    0.0000 O   0  0  0  0  0  0  0  0  0
    7.8313   -1.0687    0.0000 C   0  0  0  0  0  0  0  0  0
    6.4023   -0.2437    0.0000 C   0  0  0  0  0  0  0  0  0
    5.6879    0.1688    0.0000 C   0  0  0  0  0  0  0  0  0
    4.9734   -0.2437    0.0000 N   0  0  0  0  0  0  0  0  0
    4.2589   -1.4812    0.0000 C   0  0  0  0  0  0  0  0  0
    4.2589   -2.3062    0.0000 C   0  0  0  0  0  0  0  0  0
    3.5444   -2.7187    0.0000 C   0  0  0  0  0  0  0  0  0
    2.8300   -2.3062    0.0000 C   0  0  0  0  0  0  0  0  0
   -1.4396   -0.8774    0.0000 C   0  0  0  0  0  0  0  0  0
   -1.7752   -1.6311    0.0000 O   0  0  0  0  0  0  0  0  0
   -1.9246   -0.2100    0.0000 C   0  0  0  0  0  0  0  0  0
  1  2  4  0  0  0  0
  1  5  4  0  0  0  0
  2  3  4  0  0  0  0
  2 33  1  0  0  0  0
  3  4  4  0  0  0  0
  4  5  4  0  0  0  0
  5  6  1  0  0  0  0
  6  7  2  0  0  0  0
  6  8  1  0  0  0  0
  8  9  1  0  0  0  0
  8 13  1  0  0  0  0
  9 10  1  0  0  0  0
  9 32  1  0  0  0  0
 10 11  1  0  0  0  0
 10 29  1  0  0  0  0
 11 12  1  0  0  0  0
 11 14  1  0  0  0  0
 12 13  1  0  0  0  0
 14 15  4  0  0  0  0
 14 28  4  0  0  0  0
 15 16  4  0  0  0  0
 16 17  1  0  0  0  0
 16 18  4  0  0  0  0
 18 19  4  0  0  0  0
 18 27  4  0  0  0  0
 19 20  4  0  0  0  0
 20 21  1  0  0  0  0
 20 23  4  0  0  0  0
 21 22  1  0  0  0  0
 23 24  1  0  0  0  0
 23 26  4  0  0  0  0
 24 25  1  0  0  0  0
 26 27  4  0  0  0  0
 27 28  4  0  0  0  0
 29 30  1  0  0  0  0
 30 31  1  0  0  0  0
 31 32  1  0  0  0  0
 33 34  2  0  0  0  0
 33 35  1  0  0  0  0
M  END
>  <Name_Molregno>
391599

>  <Alpha-1A>
7.59

>  <Alpha-1B>
8.86

$$$$
391600
  Marvin  02231216192D 0   1.00000     0.00000     0

 32 36  0  0  1  0  0  0  0  0999 V2000
   -5.9170   -3.5932    0.0000 S   0  0  0  0  0  0  0  0  0
   -6.4690   -2.9801    0.0000 C   0  0  0  0  0  0  0  0  0
   -6.0565   -2.2657    0.0000 C   0  0  0  0  0  0  0  0  0
   -5.2495   -2.4372    0.0000 C   0  0  0  0  0  0  0  0  0
   -5.1633   -3.2577    0.0000 C   0  0  0  0  0  0  0  0  0
   -4.4488   -3.6702    0.0000 C   0  0  0  0  0  0  0  0  0
   -4.4488   -4.4952    0.0000 O   0  0  0  0  0  0  0  0  0
   -3.7344   -3.2577    0.0000 N   0  0  0  0  0  0  0  0  0
   -3.0199   -3.6702    0.0000 C   0  0  0  0  0  0  0  0  0
   -2.3054   -3.2577    0.0000 C   0  0  0  0  0  0  0  0  0
   -2.3054   -2.4327    0.0000 N   0  0  0  0  0  0  0  0  0
   -3.0199   -2.0202    0.0000 C   0  0  0  0  0  0  0  0  0
   -3.7344   -2.4327    0.0000 C   0  0  0  0  0  0  0  0  0
   -1.5910   -2.0202    0.0000 C   0  0  0  0  0  0  0  0  0
   -1.5910   -1.1952    0.0000 N   0  0  0  0  0  0  0  0  0
   -0.8765   -0.7827    0.0000 C   0  0  0  0  0  0  0  0  0
   -0.8765    0.0423    0.0000 N   0  0  0  0  0  0  0  0  0
   -0.1620   -1.1952    0.0000 C   0  0  0  0  0  0  0  0  0
    0.5525   -0.7827    0.0000 C   0  0  0  0  0  0  0  0  0
    1.2669   -1.1952    0.0000 C   0  0  0  0  0  0  0  0  0
    1.9814   -0.7827    0.0000 O   0  0  0  0  0  0  0  0  0
    1.9814    0.0423    0.0000 C   0  0  0  0  0  0  0  0  0
    1.2669   -2.0202    0.0000 C   0  0  0  0  0  0  0  0  0
    1.9814   -2.4327    0.0000 O   0  0  0  0  0  0  0  0  0
    1.9814   -3.2577    0.0000 C   0  0  0  0  0  0  0  0  0
    0.5525   -2.4327    0.0000 C   0  0  0  0  0  0  0  0  0
   -0.1620   -2.0202    0.0000 C   0  0  0  0  0  0  0  0  0
   -0.8765   -2.4327    0.0000 N   0  0  0  0  0  0  0  0  0
   -1.5910   -3.6702    0.0000 C   0  0  0  0  0  0  0  0  0
   -1.5910   -4.4952    0.0000 C   0  0  0  0  0  0  0  0  0
   -2.3054   -4.9077    0.0000 C   0  0  0  0  0  0  0  0  0
   -3.0199   -4.4952    0.0000 C   0  0  0  0  0  0  0  0  0
  1  2  4  0  0  0  0
  1  5  4  0  0  0  0
  2  3  4  0  0  0  0
  3  4  4  0  0  0  0
  4  5  4  0  0  0  0
  5  6  1  0  0  0  0
  6  7  2  0  0  0  0
  6  8  1  0  0  0  0
  8  9  1  0  0  0  0
  8 13  1  0  0  0  0
  9 10  1  0  0  0  0
  9 32  1  0  0  0  0
 10 11  1  0  0  0  0
 10 29  1  0  0  0  0
 11 12  1  0  0  0  0
 11 14  1  0  0  0  0
 12 13  1  0  0  0  0
 14 15  4  0  0  0  0
 14 28  4  0  0  0  0
 15 16  4  0  0  0  0
 16 17  1  0  0  0  0
 16 18  4  0  0  0  0
 18 19  4  0  0  0  0
 18 27  4  0  0  0  0
 19 20  4  0  0  0  0
 20 21  1  0  0  0  0
 20 23  4  0  0  0  0
 21 22  1  0  0  0  0
 23 24  1  0  0  0  0
 23 26  4  0  0  0  0
 24 25  1  0  0  0  0
 26 27  4  0  0  0  0
 27 28  4  0  0  0  0
 29 30  1  0  0  0  0
 30 31  1  0  0  0  0
 31 32  1  0  0  0  0
M  END
>  <Name_Molregno>
391600

>  <Alpha-1A>
8.37

>  <Alpha-1B>
9.62

$$$$
391601
  Marvin  02231216192D 0   1.00000     0.00000     0

 32 36  0  0  1  0  0  0  0  0999 V2000
    3.2286   -4.6475    0.0000 O   0  0  0  0  0  0  0  0  0
    2.5141   -5.0600    0.0000 C   0  0  0  0  0  0  0  0  0
    3.2286   -3.8225    0.0000 C   0  0  0  0  0  0  0  0  0
    3.9431   -3.4100    0.0000 C   0  0  0  0  0  0  0  0  0
    3.9431   -2.5850    0.0000 C   0  0  0  0  0  0  0  0  0
    3.2286   -2.1725    0.0000 C   0  0  0  0  0  0  0  0  0
    3.2286   -1.3475    0.0000 N   0  0  0  0  0  0  0  0  0
    3.9431   -0.9350    0.0000 C   0  0  0  0  0  0  0  0  0
    4.6575   -1.3475    0.0000 N   0  0  0  0  0  0  0  0  0
    4.6575   -2.1725    0.0000 C   0  0  0  0  0  0  0  0  0
    5.3720   -2.5850    0.0000 N   0  0  0  0  0  0  0  0  0
    3.9431   -0.1100    0.0000 N   0  0  0  0  0  0  0  0  0
    4.6575    0.3025    0.0000 C   0  0  0  0  0  0  0  0  0
    4.6575    1.1275    0.0000 C   0  0  0  0  0  0  0  0  0
    3.9431    1.5400    0.0000 N   0  0  0  0  0  0  0  0  0
    3.2286    1.1275    0.0000 C   0  0  0  0  0  0  0  0  0
    3.2286    0.3025    0.0000 C   0  0  0  0  0  0  0  0  0
    3.9431    2.3650    0.0000 C   0  0  0  0  0  0  0  0  0
    3.2286    2.7775    0.0000 O   0  0  0  0  0  0  0  0  0
    4.6575    2.7775    0.0000 C   0  0  0  0  0  0  0  0  0
    4.7438    3.5980    0.0000 N   0  0  0  0  0  0  0  0  0
    5.5508    3.7695    0.0000 C   0  0  0  0  0  0  0  0  0
    5.9633    3.0550    0.0000 C   0  0  0  0  0  0  0  0  0
    5.4112    2.4419    0.0000 C   0  0  0  0  0  0  0  0  0
    5.3720    1.5400    0.0000 C   0  0  0  0  0  0  0  0  0
    6.0865    1.1275    0.0000 C   0  0  0  0  0  0  0  0  0
    6.0865    0.3025    0.0000 C   0  0  0  0  0  0  0  0  0
    5.3720   -0.1100    0.0000 C   0  0  0  0  0  0  0  0  0
    2.5141   -2.5850    0.0000 C   0  0  0  0  0  0  0  0  0
    2.5141   -3.4100    0.0000 C   0  0  0  0  0  0  0  0  0
    1.7997   -3.8225    0.0000 O   0  0  0  0  0  0  0  0  0
    1.0852   -3.4100    0.0000 C   0  0  0  0  0  0  0  0  0
  1  2  1  0  0  0  0
  1  3  1  0  0  0  0
  3  4  4  0  0  0  0
  3 30  4  0  0  0  0
  4  5  4  0  0  0  0
  5  6  4  0  0  0  0
  5 10  4  0  0  0  0
  6  7  4  0  0  0  0
  6 29  4  0  0  0  0
  7  8  4  0  0  0  0
  8  9  4  0  0  0  0
  8 12  1  0  0  0  0
  9 10  4  0  0  0  0
 10 11  1  0  0  0  0
 12 13  1  0  0  0  0
 12 17  1  0  0  0  0
 13 14  1  0  0  0  0
 13 28  1  0  0  0  0
 14 15  1  0  0  0  0
 14 25  1  0  0  0  0
 15 16  1  0  0  0  0
 15 18  1  0  0  0  0
 16 17  1  0  0  0  0
 18 19  2  0  0  0  0
 18 20  1  0  0  0  0
 20 21  4  0  0  0  0
 20 24  4  0  0  0  0
 21 22  4  0  0  0  0
 22 23  4  0  0  0  0
 23 24  4  0  0  0  0
 25 26  1  0  0  0  0
 26 27  1  0  0  0  0
 27 28  1  0  0  0  0
 29 30  4  0  0  0  0
 30 31  1  0  0  0  0
 31 32  1  0  0  0  0
M  STY  1   1 DAT
M  SAL   1  1  21
M  SDT   1 MRV_IMPLICIT_H                                        
M  SDD   1     0.0000    0.0000    DR    ALL  0       0  
M  SED   1 IMPL_H1
M  END
>  <Name_Molregno>
391601

>  <Alpha-1A>
7.98

>  <Alpha-1B>
8.5

$$$$
391602
  Marvin  02231216192D 0   1.00000     0.00000     0

 33 37  0  0  1  0  0  0  0  0999 V2000
    3.2868   -4.7457    0.0000 O   0  0  0  0  0  0  0  0  0
    2.5723   -5.1582    0.0000 C   0  0  0  0  0  0  0  0  0
    3.2868   -3.9207    0.0000 C   0  0  0  0  0  0  0  0  0
    4.0013   -3.5082    0.0000 C   0  0  0  0  0  0  0  0  0
    4.0013   -2.6832    0.0000 C   0  0  0  0  0  0  0  0  0
    3.2868   -2.2707    0.0000 C   0  0  0  0  0  0  0  0  0
    3.2868   -1.4457    0.0000 N   0  0  0  0  0  0  0  0  0
    4.0013   -1.0332    0.0000 C   0  0  0  0  0  0  0  0  0
    4.7157   -1.4457    0.0000 N   0  0  0  0  0  0  0  0  0
    4.7157   -2.2707    0.0000 C   0  0  0  0  0  0  0  0  0
    5.4302   -2.6832    0.0000 N   0  0  0  0  0  0  0  0  0
    4.0013   -0.2082    0.0000 N   0  0  0  0  0  0  0  0  0
    4.7157    0.2043    0.0000 C   0  0  0  0  0  0  0  0  0
    4.7157    1.0293    0.0000 C   0  0  0  0  0  0  0  0  0
    4.0013    1.4418    0.0000 N   0  0  0  0  0  0  0  0  0
    3.2868    1.0293    0.0000 C   0  0  0  0  0  0  0  0  0
    3.2868    0.2043    0.0000 C   0  0  0  0  0  0  0  0  0
    4.0013    2.2668    0.0000 C   0  0  0  0  0  0  0  0  0
    3.2868    2.6793    0.0000 O   0  0  0  0  0  0  0  0  0
    4.7157    2.6793    0.0000 C   0  0  0  0  0  0  0  0  0
    4.7157    3.5043    0.0000 N   0  0  0  0  0  0  0  0  0
    5.4302    3.9168    0.0000 C   0  0  0  0  0  0  0  0  0
    6.1447    3.5043    0.0000 C   0  0  0  0  0  0  0  0  0
    6.1447    2.6793    0.0000 C   0  0  0  0  0  0  0  0  0
    5.4302    2.2668    0.0000 C   0  0  0  0  0  0  0  0  0
    5.4302    1.4418    0.0000 C   0  0  0  0  0  0  0  0  0
    6.1447    1.0293    0.0000 C   0  0  0  0  0  0  0  0  0
    6.1447    0.2043    0.0000 C   0  0  0  0  0  0  0  0  0
    5.4302   -0.2082    0.0000 C   0  0  0  0  0  0  0  0  0
    2.5723   -2.6832    0.0000 C   0  0  0  0  0  0  0  0  0
    2.5723   -3.5082    0.0000 C   0  0  0  0  0  0  0  0  0
    1.8578   -3.9207    0.0000 O   0  0  0  0  0  0  0  0  0
    1.1434   -3.5082    0.0000 C   0  0  0  0  0  0  0  0  0
  1  2  1  0  0  0  0
  1  3  1  0  0  0  0
  3  4  4  0  0  0  0
  3 31  4  0  0  0  0
  4  5  4  0  0  0  0
  5  6  4  0  0  0  0
  5 10  4  0  0  0  0
  6  7  4  0  0  0  0
  6 30  4  0  0  0  0
  7  8  4  0  0  0  0
  8  9  4  0  0  0  0
  8 12  1  0  0  0  0
  9 10  4  0  0  0  0
 10 11  1  0  0  0  0
 12 13  1  0  0  0  0
 12 17  1  0  0  0  0
 13 14  1  0  0  0  0
 13 29  1  0  0  0  0
 14 15  1  0  0  0  0
 14 26  1  0  0  0  0
 15 16  1  0  0  0  0
 15 18  1  0  0  0  0
 16 17  1  0  0  0  0
 18 19  2  0  0  0  0
 18 20  1  0  0  0  0
 20 21  4  0  0  0  0
 20 25  4  0  0  0  0
 21 22  4  0  0  0  0
 22 23  4  0  0  0  0
 23 24  4  0  0  0  0
 24 25  4  0  0  0  0
 26 27  1  0  0  0  0
 27 28  1  0  0  0  0
 28 29  1  0  0  0  0
 30 31  4  0  0  0  0
 31 32  1  0  0  0  0
 32 33  1  0  0  0  0
M  END
>  <Name_Molregno>
391602

>  <Alpha-1A>
7.31

>  <Alpha-1B>
8.23

$$$$
391603
  Marvin  02231216192D 0   1.00000     0.00000     0

 33 37  0  0  1  0  0  0  0  0999 V2000
    3.2868   -4.7457    0.0000 O   0  0  0  0  0  0  0  0  0
    2.5723   -5.1582    0.0000 C   0  0  0  0  0  0  0  0  0
    3.2868   -3.9207    0.0000 C   0  0  0  0  0  0  0  0  0
    4.0013   -3.5082    0.0000 C   0  0  0  0  0  0  0  0  0
    4.0013   -2.6832    0.0000 C   0  0  0  0  0  0  0  0  0
    3.2868   -2.2707    0.0000 C   0  0  0  0  0  0  0  0  0
    3.2868   -1.4457    0.0000 N   0  0  0  0  0  0  0  0  0
    4.0013   -1.0332    0.0000 C   0  0  0  0  0  0  0  0  0
    4.7157   -1.4457    0.0000 N   0  0  0  0  0  0  0  0  0
    4.7157   -2.2707    0.0000 C   0  0  0  0  0  0  0  0  0
    5.4302   -2.6832    0.0000 N   0  0  0  0  0  0  0  0  0
    4.0013   -0.2082    0.0000 N   0  0  0  0  0  0  0  0  0
    4.7157    0.2043    0.0000 C   0  0  0  0  0  0  0  0  0
    4.7157    1.0293    0.0000 C   0  0  0  0  0  0  0  0  0
    4.0013    1.4418    0.0000 N   0  0  0  0  0  0  0  0  0
    3.2868    1.0293    0.0000 C   0  0  0  0  0  0  0  0  0
    3.2868    0.2043    0.0000 C   0  0  0  0  0  0  0  0  0
    4.0013    2.2668    0.0000 C   0  0  0  0  0  0  0  0  0
    3.2868    2.6793    0.0000 O   0  0  0  0  0  0  0  0  0
    4.7157    2.6793    0.0000 C   0  0  0  0  0  0  0  0  0
    4.7157    3.5043    0.0000 C   0  0  0  0  0  0  0  0  0
    5.4302    3.9168    0.0000 C   0  0  0  0  0  0  0  0  0
    6.1447    3.5043    0.0000 C   0  0  0  0  0  0  0  0  0
    6.1447    2.6793    0.0000 C   0  0  0  0  0  0  0  0  0
    5.4302    2.2668    0.0000 C   0  0  0  0  0  0  0  0  0
    5.4302    1.4418    0.0000 C   0  0  0  0  0  0  0  0  0
    6.1447    1.0293    0.0000 C   0  0  0  0  0  0  0  0  0
    6.1447    0.2043    0.0000 C   0  0  0  0  0  0  0  0  0
    5.4302   -0.2082    0.0000 C   0  0  0  0  0  0  0  0  0
    2.5723   -2.6832    0.0000 C   0  0  0  0  0  0  0  0  0
    2.5723   -3.5082    0.0000 C   0  0  0  0  0  0  0  0  0
    1.8578   -3.9207    0.0000 O   0  0  0  0  0  0  0  0  0
    1.1434   -3.5082    0.0000 C   0  0  0  0  0  0  0  0  0
  1  2  1  0  0  0  0
  1  3  1  0  0  0  0
  3  4  4  0  0  0  0
  3 31  4  0  0  0  0
  4  5  4  0  0  0  0
  5  6  4  0  0  0  0
  5 10  4  0  0  0  0
  6  7  4  0  0  0  0
  6 30  4  0  0  0  0
  7  8  4  0  0  0  0
  8  9  4  0  0  0  0
  8 12  1  0  0  0  0
  9 10  4  0  0  0  0
 10 11  1  0  0  0  0
 12 13  1  0  0  0  0
 12 17  1  0  0  0  0
 13 14  1  0  0  0  0
 13 29  1  0  0  0  0
 14 15  1  0  0  0  0
 14 26  1  0  0  0  0
 15 16  1  0  0  0  0
 15 18  1  0  0  0  0
 16 17  1  0  0  0  0
 18 19  2  0  0  0  0
 18 20  1  0  0  0  0
 20 21  4  0  0  0  0
 20 25  4  0  0  0  0
 21 22  4  0  0  0  0
 22 23  4  0  0  0  0
 23 24  4  0  0  0  0
 24 25  4  0  0  0  0
 26 27  1  0  0  0  0
 27 28  1  0  0  0  0
 28 29  1  0  0  0  0
 30 31  4  0  0  0  0
 31 32  1  0  0  0  0
 32 33  1  0  0  0  0
M  END
>  <Name_Molregno>
391603

>  <Alpha-1A>
8.38

>  <Alpha-1B>
9.31

$$$$
395322
  Marvin  02231216192D 0   1.00000     0.00000     0

 37 41  0  0  0  0  0  0  0  0999 V2000
   10.7415    1.0747    0.0000 F   0  0  0  0  0  0  0  0  0
   10.0270    0.6622    0.0000 C   0  0  0  0  0  0  0  0  0
   10.0270   -0.1628    0.0000 C   0  0  0  0  0  0  0  0  0
   10.7415   -0.5753    0.0000 F   0  0  0  0  0  0  0  0  0
    9.3126   -0.5753    0.0000 C   0  0  0  0  0  0  0  0  0
    9.3126   -1.4003    0.0000 F   0  0  0  0  0  0  0  0  0
    8.5981   -0.1628    0.0000 C   0  0  0  0  0  0  0  0  0
    8.5981    0.6622    0.0000 C   0  0  0  0  0  0  0  0  0
    9.3126    1.0747    0.0000 C   0  0  0  0  0  0  0  0  0
    9.3126    1.8997    0.0000 F   0  0  0  0  0  0  0  0  0
    7.8135    0.9172    0.0000 C   0  0  0  0  0  0  0  0  0
    7.5585    1.7018    0.0000 O   0  0  0  0  0  0  0  0  0
    7.3285    0.2497    0.0000 N   0  0  0  0  0  0  0  0  0
    6.5035    0.2497    0.0000 C   0  0  0  0  0  0  0  0  0
    6.0910   -0.4647    0.0000 C   0  0  0  0  0  0  0  0  0
    5.2660   -0.4647    0.0000 C   0  0  0  0  0  0  0  0  0
    4.8535    0.2497    0.0000 C   0  0  0  0  0  0  0  0  0
    4.0285    0.2497    0.0000 N   0  0  0  0  0  0  0  0  0
    3.6160   -0.4647    0.0000 C   0  0  0  0  0  0  0  0  0
    2.7910   -0.4647    0.0000 C   0  0  0  0  0  0  0  0  0
    2.3785    0.2497    0.0000 N   0  0  0  0  0  0  0  0  0
    2.7910    0.9642    0.0000 C   0  0  0  0  0  0  0  0  0
    3.6160    0.9642    0.0000 C   0  0  0  0  0  0  0  0  0
    1.5535    0.2497    0.0000 C   0  0  0  0  0  0  0  0  0
    1.1410   -0.4647    0.0000 C   0  0  0  0  0  0  0  0  0
    0.3160   -0.4647    0.0000 C   0  0  0  0  0  0  0  0  0
   -0.0965    0.2497    0.0000 C   0  0  0  0  0  0  0  0  0
    0.3160    0.9642    0.0000 C   0  0  0  0  0  0  0  0  0
    1.1410    0.9642    0.0000 C   0  0  0  0  0  0  0  0  0
    1.5535    1.6787    0.0000 O   0  0  0  0  0  0  0  0  0
    1.1410    2.3931    0.0000 C   0  0  0  0  0  0  0  0  0
    0.3160    2.3931    0.0000 C   0  0  0  0  0  0  0  0  0
    1.5535    3.1076    0.0000 C   0  0  0  0  0  0  0  0  0
    5.2660    0.9642    0.0000 C   0  0  0  0  0  0  0  0  0
    6.0910    0.9642    0.0000 C   0  0  0  0  0  0  0  0  0
    7.8135   -0.4177    0.0000 C   0  0  0  0  0  0  0  0  0
    7.5585   -1.2023    0.0000 O   0  0  0  0  0  0  0  0  0
  1  2  1  0  0  0  0
  2  3  4  0  0  0  0
  2  9  4  0  0  0  0
  3  4  1  0  0  0  0
  3  5  4  0  0  0  0
  5  6  1  0  0  0  0
  5  7  4  0  0  0  0
  7  8  4  0  0  0  0
  7 36  1  0  0  0  0
  8  9  4  0  0  0  0
  8 11  1  0  0  0  0
  9 10  1  0  0  0  0
 11 12  2  0  0  0  0
 11 13  1  0  0  0  0
 13 14  1  0  0  0  0
 13 36  1  0  0  0  0
 14 15  1  0  0  0  0
 14 35  1  0  0  0  0
 15 16  1  0  0  0  0
 16 17  1  0  0  0  0
 17 18  1  0  0  0  0
 17 34  1  0  0  0  0
 18 19  1  0  0  0  0
 18 23  1  0  0  0  0
 19 20  1  0  0  0  0
 20 21  1  0  0  0  0
 21 22  1  0  0  0  0
 21 24  1  0  0  0  0
 22 23  1  0  0  0  0
 24 25  4  0  0  0  0
 24 29  4  0  0  0  0
 25 26  4  0  0  0  0
 26 27  4  0  0  0  0
 27 28  4  0  0  0  0
 28 29  4  0  0  0  0
 29 30  1  0  0  0  0
 30 31  1  0  0  0  0
 31 32  1  0  0  0  0
 31 33  1  0  0  0  0
 34 35  1  0  0  0  0
 36 37  2  0  0  0  0
M  END
>  <Name_Molregno>
395322

>  <Alpha-1A>
7.42

>  <Alpha-1B>
5.39

$$$$
395325
  Marvin  02231216192D 0   1.00000     0.00000     0

 35 39  0  0  0  0  0  0  0  0999 V2000
   11.1927   -1.5417    0.0000 Cl  0  0  0  0  0  0  0  0  0
   10.4782   -1.1292    0.0000 C   0  0  0  0  0  0  0  0  0
    9.7637   -1.5417    0.0000 C   0  0  0  0  0  0  0  0  0
    9.0493   -1.1292    0.0000 C   0  0  0  0  0  0  0  0  0
    9.0493   -0.3042    0.0000 C   0  0  0  0  0  0  0  0  0
    9.7637    0.1083    0.0000 C   0  0  0  0  0  0  0  0  0
   10.4782   -0.3042    0.0000 C   0  0  0  0  0  0  0  0  0
   11.1927    0.1083    0.0000 Cl  0  0  0  0  0  0  0  0  0
    8.2646   -0.0493    0.0000 C   0  0  0  0  0  0  0  0  0
    8.0097    0.7353    0.0000 O   0  0  0  0  0  0  0  0  0
    7.7797   -0.7167    0.0000 N   0  0  0  0  0  0  0  0  0
    6.9547   -0.7167    0.0000 C   0  0  0  0  0  0  0  0  0
    6.5422   -1.4312    0.0000 C   0  0  0  0  0  0  0  0  0
    5.7172   -1.4312    0.0000 C   0  0  0  0  0  0  0  0  0
    5.3047   -0.7167    0.0000 C   0  0  0  0  0  0  0  0  0
    4.4797   -0.7167    0.0000 N   0  0  0  0  0  0  0  0  0
    4.0672   -1.4312    0.0000 C   0  0  0  0  0  0  0  0  0
    3.2422   -1.4312    0.0000 C   0  0  0  0  0  0  0  0  0
    2.8297   -0.7167    0.0000 N   0  0  0  0  0  0  0  0  0
    3.2422   -0.0023    0.0000 C   0  0  0  0  0  0  0  0  0
    4.0672   -0.0023    0.0000 C   0  0  0  0  0  0  0  0  0
    2.0047   -0.7167    0.0000 C   0  0  0  0  0  0  0  0  0
    1.5922   -1.4312    0.0000 C   0  0  0  0  0  0  0  0  0
    0.7672   -1.4312    0.0000 C   0  0  0  0  0  0  0  0  0
    0.3547   -0.7167    0.0000 C   0  0  0  0  0  0  0  0  0
    0.7672   -0.0023    0.0000 C   0  0  0  0  0  0  0  0  0
    1.5922   -0.0023    0.0000 C   0  0  0  0  0  0  0  0  0
    2.0047    0.7122    0.0000 O   0  0  0  0  0  0  0  0  0
    1.5922    1.4267    0.0000 C   0  0  0  0  0  0  0  0  0
    0.7672    1.4267    0.0000 C   0  0  0  0  0  0  0  0  0
    2.0047    2.1411    0.0000 C   0  0  0  0  0  0  0  0  0
    5.7172   -0.0023    0.0000 C   0  0  0  0  0  0  0  0  0
    6.5422   -0.0023    0.0000 C   0  0  0  0  0  0  0  0  0
    8.2646   -1.3842    0.0000 C   0  0  0  0  0  0  0  0  0
    8.0097   -2.1688    0.0000 O   0  0  0  0  0  0  0  0  0
  1  2  1  0  0  0  0
  2  3  4  0  0  0  0
  2  7  4  0  0  0  0
  3  4  4  0  0  0  0
  4  5  4  0  0  0  0
  4 34  1  0  0  0  0
  5  6  4  0  0  0  0
  5  9  1  0  0  0  0
  6  7  4  0  0  0  0
  7  8  1  0  0  0  0
  9 10  2  0  0  0  0
  9 11  1  0  0  0  0
 11 12  1  0  0  0  0
 11 34  1  0  0  0  0
 12 13  1  0  0  0  0
 12 33  1  0  0  0  0
 13 14  1  0  0  0  0
 14 15  1  0  0  0  0
 15 16  1  0  0  0  0
 15 32  1  0  0  0  0
 16 17  1  0  0  0  0
 16 21  1  0  0  0  0
 17 18  1  0  0  0  0
 18 19  1  0  0  0  0
 19 20  1  0  0  0  0
 19 22  1  0  0  0  0
 20 21  1  0  0  0  0
 22 23  4  0  0  0  0
 22 27  4  0  0  0  0
 23 24  4  0  0  0  0
 24 25  4  0  0  0  0
 25 26  4  0  0  0  0
 26 27  4  0  0  0  0
 27 28  1  0  0  0  0
 28 29  1  0  0  0  0
 29 30  1  0  0  0  0
 29 31  1  0  0  0  0
 32 33  1  0  0  0  0
 34 35  2  0  0  0  0
M  END
>  <Name_Molregno>
395325

>  <Alpha-1A>
8.57

>  <Alpha-1B>
5.97

$$$$
395328
  Marvin  02231216192D 0   1.00000     0.00000     0

 34 38  0  0  0  0  0  0  0  0999 V2000
   -0.0654   -3.1424    0.0000 F   0  0  0  0  0  0  0  0  0
   -0.0654   -2.3174    0.0000 C   0  0  0  0  0  0  0  0  0
   -0.7798   -1.9049    0.0000 C   0  0  0  0  0  0  0  0  0
   -0.7798   -1.0799    0.0000 C   0  0  0  0  0  0  0  0  0
   -0.0654   -0.6674    0.0000 C   0  0  0  0  0  0  0  0  0
    0.6491   -1.0799    0.0000 C   0  0  0  0  0  0  0  0  0
    0.6491   -1.9049    0.0000 C   0  0  0  0  0  0  0  0  0
   -1.5645   -0.8250    0.0000 C   0  0  0  0  0  0  0  0  0
   -1.8194   -0.0404    0.0000 O   0  0  0  0  0  0  0  0  0
   -2.0494   -1.4924    0.0000 N   0  0  0  0  0  0  0  0  0
   -2.8744   -1.4924    0.0000 C   0  0  0  0  0  0  0  0  0
   -3.2869   -2.2069    0.0000 C   0  0  0  0  0  0  0  0  0
   -4.1119   -2.2069    0.0000 C   0  0  0  0  0  0  0  0  0
   -4.5244   -1.4924    0.0000 C   0  0  0  0  0  0  0  0  0
   -5.3494   -1.4924    0.0000 N   0  0  0  0  0  0  0  0  0
   -5.7619   -2.2069    0.0000 C   0  0  0  0  0  0  0  0  0
   -6.5869   -2.2069    0.0000 C   0  0  0  0  0  0  0  0  0
   -6.9994   -1.4924    0.0000 N   0  0  0  0  0  0  0  0  0
   -6.5869   -0.7780    0.0000 C   0  0  0  0  0  0  0  0  0
   -5.7619   -0.7780    0.0000 C   0  0  0  0  0  0  0  0  0
   -7.8244   -1.4924    0.0000 C   0  0  0  0  0  0  0  0  0
   -8.2369   -2.2069    0.0000 C   0  0  0  0  0  0  0  0  0
   -9.0619   -2.2069    0.0000 C   0  0  0  0  0  0  0  0  0
   -9.4744   -1.4924    0.0000 C   0  0  0  0  0  0  0  0  0
   -9.0619   -0.7780    0.0000 C   0  0  0  0  0  0  0  0  0
   -8.2369   -0.7780    0.0000 C   0  0  0  0  0  0  0  0  0
   -7.8244   -0.0635    0.0000 O   0  0  0  0  0  0  0  0  0
   -8.2369    0.6510    0.0000 C   0  0  0  0  0  0  0  0  0
   -9.0619    0.6510    0.0000 C   0  0  0  0  0  0  0  0  0
   -7.8244    1.3655    0.0000 C   0  0  0  0  0  0  0  0  0
   -4.1119   -0.7780    0.0000 C   0  0  0  0  0  0  0  0  0
   -3.2869   -0.7780    0.0000 C   0  0  0  0  0  0  0  0  0
   -1.5645   -2.1599    0.0000 C   0  0  0  0  0  0  0  0  0
   -1.8194   -2.9445    0.0000 O   0  0  0  0  0  0  0  0  0
  1  2  1  0  0  0  0
  2  3  4  0  0  0  0
  2  7  4  0  0  0  0
  3  4  4  0  0  0  0
  3 33  1  0  0  0  0
  4  5  4  0  0  0  0
  4  8  1  0  0  0  0
  5  6  4  0  0  0  0
  6  7  4  0  0  0  0
  8  9  2  0  0  0  0
  8 10  1  0  0  0  0
 10 11  1  0  0  0  0
 10 33  1  0  0  0  0
 11 12  1  0  0  0  0
 11 32  1  0  0  0  0
 12 13  1  0  0  0  0
 13 14  1  0  0  0  0
 14 15  1  0  0  0  0
 14 31  1  0  0  0  0
 15 16  1  0  0  0  0
 15 20  1  0  0  0  0
 16 17  1  0  0  0  0
 17 18  1  0  0  0  0
 18 19  1  0  0  0  0
 18 21  1  0  0  0  0
 19 20  1  0  0  0  0
 21 22  4  0  0  0  0
 21 26  4  0  0  0  0
 22 23  4  0  0  0  0
 23 24  4  0  0  0  0
 24 25  4  0  0  0  0
 25 26  4  0  0  0  0
 26 27  1  0  0  0  0
 27 28  1  0  0  0  0
 28 29  1  0  0  0  0
 28 30  1  0  0  0  0
 31 32  1  0  0  0  0
 33 34  2  0  0  0  0
M  END
>  <Name_Molregno>
395328

>  <Alpha-1A>
9.35

>  <Alpha-1B>
7.32

$$$$
395335
  Marvin  02231216192D 0   1.00000     0.00000     0

 37 42  0  0  0  0  0  0  0  0999 V2000
    7.7706   -1.5041    0.0000 O   0  0  0  0  0  0  0  0  0
    8.4976   -1.1141    0.0000 C   0  0  0  0  0  0  0  0  0
    8.5233   -0.2895    0.0000 C   0  0  0  0  0  0  0  0  0
    9.1988   -1.5487    0.0000 C   0  0  0  0  0  0  0  0  0
    7.7448   -2.3287    0.0000 C   0  0  0  0  0  0  0  0  0
    8.4460   -2.7633    0.0000 C   0  0  0  0  0  0  0  0  0
    8.4203   -3.5879    0.0000 C   0  0  0  0  0  0  0  0  0
    7.6933   -3.9779    0.0000 C   0  0  0  0  0  0  0  0  0
    6.9920   -3.5433    0.0000 C   0  0  0  0  0  0  0  0  0
    7.0178   -2.7187    0.0000 C   0  0  0  0  0  0  0  0  0
    6.3165   -2.2841    0.0000 N   0  0  0  0  0  0  0  0  0
    5.5895   -2.6741    0.0000 C   0  0  0  0  0  0  0  0  0
    4.8883   -2.2394    0.0000 C   0  0  0  0  0  0  0  0  0
    4.9141   -1.4148    0.0000 N   0  0  0  0  0  0  0  0  0
    5.6411   -1.0249    0.0000 C   0  0  0  0  0  0  0  0  0
    6.3423   -1.4595    0.0000 C   0  0  0  0  0  0  0  0  0
    4.2128   -0.9802    0.0000 C   0  0  0  0  0  0  0  0  0
    3.4858   -1.3702    0.0000 C   0  0  0  0  0  0  0  0  0
    2.7846   -0.9356    0.0000 C   0  0  0  0  0  0  0  0  0
    2.8103   -0.1110    0.0000 C   0  0  0  0  0  0  0  0  0
    2.1091    0.3236    0.0000 N   0  0  0  0  0  0  0  0  0
    1.3453    0.0117    0.0000 C   0  0  0  0  0  0  0  0  0
    1.1487   -0.7895    0.0000 O   0  0  0  0  0  0  0  0  0
    0.8127    0.6418    0.0000 C   0  0  0  0  0  0  0  0  0
    1.2473    1.3430    0.0000 C   0  0  0  0  0  0  0  0  0
    0.8573    2.0700    0.0000 C   0  0  0  0  0  0  0  0  0
    0.0327    2.0958    0.0000 C   0  0  0  0  0  0  0  0  0
   -0.4019    1.3945    0.0000 C   0  0  0  0  0  0  0  0  0
   -0.0119    0.6675    0.0000 C   0  0  0  0  0  0  0  0  0
   -0.4465   -0.0337    0.0000 C   0  0  0  0  0  0  0  0  0
   -1.2711   -0.0079    0.0000 C   0  0  0  0  0  0  0  0  0
   -1.6611    0.7191    0.0000 C   0  0  0  0  0  0  0  0  0
   -1.2265    1.4203    0.0000 C   0  0  0  0  0  0  0  0  0
    2.0485    1.1464    0.0000 C   0  0  0  0  0  0  0  0  0
    2.6786    1.6790    0.0000 O   0  0  0  0  0  0  0  0  0
    3.5373    0.2790    0.0000 C   0  0  0  0  0  0  0  0  0
    4.2386   -0.1556    0.0000 C   0  0  0  0  0  0  0  0  0
  1  2  1  0  0  0  0
  1  5  1  0  0  0  0
  2  3  1  0  0  0  0
  2  4  1  0  0  0  0
  5  6  4  0  0  0  0
  5 10  4  0  0  0  0
  6  7  4  0  0  0  0
  7  8  4  0  0  0  0
  8  9  4  0  0  0  0
  9 10  4  0  0  0  0
 10 11  1  0  0  0  0
 11 12  1  0  0  0  0
 11 16  1  0  0  0  0
 12 13  1  0  0  0  0
 13 14  1  0  0  0  0
 14 15  1  0  0  0  0
 14 17  1  0  0  0  0
 15 16  1  0  0  0  0
 17 18  1  0  0  0  0
 17 37  1  0  0  0  0
 18 19  1  0  0  0  0
 19 20  1  0  0  0  0
 20 21  1  0  0  0  0
 20 36  1  0  0  0  0
 21 22  1  0  0  0  0
 21 34  1  0  0  0  0
 22 23  2  0  0  0  0
 22 24  1  0  0  0  0
 24 25  4  0  0  0  0
 24 29  4  0  0  0  0
 25 26  4  0  0  0  0
 25 34  1  0  0  0  0
 26 27  4  0  0  0  0
 27 28  4  0  0  0  0
 28 29  4  0  0  0  0
 28 33  4  0  0  0  0
 29 30  4  0  0  0  0
 30 31  4  0  0  0  0
 31 32  4  0  0  0  0
 32 33  4  0  0  0  0
 34 35  2  0  0  0  0
 36 37  1  0  0  0  0
M  END
>  <Name_Molregno>
395335

>  <Alpha-1A>
8.74

>  <Alpha-1B>
7.82

$$$$
395339
  Marvin  02231216192D 0   1.00000     0.00000     0

 38 43  0  0  0  0  0  0  0  0999 V2000
   -9.8790   -2.7482    0.0000 F   0  0  0  0  0  0  0  0  0
   -9.4444   -3.4494    0.0000 C   0  0  0  0  0  0  0  0  0
   -8.6198   -3.4237    0.0000 C   0  0  0  0  0  0  0  0  0
   -8.1852   -4.1249    0.0000 C   0  0  0  0  0  0  0  0  0
   -7.3606   -4.0991    0.0000 C   0  0  0  0  0  0  0  0  0
   -6.9260   -4.8004    0.0000 C   0  0  0  0  0  0  0  0  0
   -7.3160   -5.5274    0.0000 C   0  0  0  0  0  0  0  0  0
   -8.1406   -5.5531    0.0000 C   0  0  0  0  0  0  0  0  0
   -8.5752   -4.8519    0.0000 C   0  0  0  0  0  0  0  0  0
   -9.3998   -4.8777    0.0000 C   0  0  0  0  0  0  0  0  0
   -9.8344   -4.1764    0.0000 C   0  0  0  0  0  0  0  0  0
   -6.1248   -4.6037    0.0000 C   0  0  0  0  0  0  0  0  0
   -5.4948   -5.1363    0.0000 O   0  0  0  0  0  0  0  0  0
   -6.0642   -3.7810    0.0000 N   0  0  0  0  0  0  0  0  0
   -5.3630   -3.3463    0.0000 C   0  0  0  0  0  0  0  0  0
   -5.3887   -2.5217    0.0000 C   0  0  0  0  0  0  0  0  0
   -4.6875   -2.0871    0.0000 C   0  0  0  0  0  0  0  0  0
   -3.9605   -2.4771    0.0000 C   0  0  0  0  0  0  0  0  0
   -3.2593   -2.0425    0.0000 N   0  0  0  0  0  0  0  0  0
   -3.2850   -1.2179    0.0000 C   0  0  0  0  0  0  0  0  0
   -2.5838   -0.7833    0.0000 C   0  0  0  0  0  0  0  0  0
   -1.8568   -1.1733    0.0000 N   0  0  0  0  0  0  0  0  0
   -1.8310   -1.9979    0.0000 C   0  0  0  0  0  0  0  0  0
   -2.5323   -2.4325    0.0000 C   0  0  0  0  0  0  0  0  0
   -1.1555   -0.7387    0.0000 C   0  0  0  0  0  0  0  0  0
   -1.1813    0.0859    0.0000 C   0  0  0  0  0  0  0  0  0
   -0.4801    0.5205    0.0000 C   0  0  0  0  0  0  0  0  0
    0.2469    0.1305    0.0000 C   0  0  0  0  0  0  0  0  0
    0.2727   -0.6941    0.0000 C   0  0  0  0  0  0  0  0  0
   -0.4285   -1.1287    0.0000 C   0  0  0  0  0  0  0  0  0
   -0.4028   -1.9533    0.0000 O   0  0  0  0  0  0  0  0  0
    0.3242   -2.3433    0.0000 C   0  0  0  0  0  0  0  0  0
    1.0255   -1.9086    0.0000 C   0  0  0  0  0  0  0  0  0
    0.3500   -3.1679    0.0000 C   0  0  0  0  0  0  0  0  0
   -3.9347   -3.3017    0.0000 C   0  0  0  0  0  0  0  0  0
   -4.6360   -3.7363    0.0000 C   0  0  0  0  0  0  0  0  0
   -6.8280   -3.4691    0.0000 C   0  0  0  0  0  0  0  0  0
   -7.0247   -2.6679    0.0000 O   0  0  0  0  0  0  0  0  0
  1  2  1  0  0  0  0
  2  3  4  0  0  0  0
  2 11  4  0  0  0  0
  3  4  4  0  0  0  0
  4  5  4  0  0  0  0
  4  9  4  0  0  0  0
  5  6  4  0  0  0  0
  5 37  1  0  0  0  0
  6  7  4  0  0  0  0
  6 12  1  0  0  0  0
  7  8  4  0  0  0  0
  8  9  4  0  0  0  0
  9 10  4  0  0  0  0
 10 11  4  0  0  0  0
 12 13  2  0  0  0  0
 12 14  1  0  0  0  0
 14 15  1  0  0  0  0
 14 37  1  0  0  0  0
 15 16  1  0  0  0  0
 15 36  1  0  0  0  0
 16 17  1  0  0  0  0
 17 18  1  0  0  0  0
 18 19  1  0  0  0  0
 18 35  1  0  0  0  0
 19 20  1  0  0  0  0
 19 24  1  0  0  0  0
 20 21  1  0  0  0  0
 21 22  1  0  0  0  0
 22 23  1  0  0  0  0
 22 25  1  0  0  0  0
 23 24  1  0  0  0  0
 25 26  4  0  0  0  0
 25 30  4  0  0  0  0
 26 27  4  0  0  0  0
 27 28  4  0  0  0  0
 28 29  4  0  0  0  0
 29 30  4  0  0  0  0
 30 31  1  0  0  0  0
 31 32  1  0  0  0  0
 32 33  1  0  0  0  0
 32 34  1  0  0  0  0
 35 36  1  0  0  0  0
 37 38  2  0  0  0  0
M  END
>  <Name_Molregno>
395339

>  <Alpha-1A>
8.12

>  <Alpha-1B>
6.95

$$$$
395348
  Marvin  02231216192D 0   1.00000     0.00000     0

 33 37  0  0  0  0  0  0  0  0999 V2000
   -6.4343   -1.7060    0.0000 O   0  0  0  0  0  0  0  0  0
   -6.8468   -2.4205    0.0000 C   0  0  0  0  0  0  0  0  0
   -6.4343   -3.1350    0.0000 C   0  0  0  0  0  0  0  0  0
   -7.6718   -2.4205    0.0000 C   0  0  0  0  0  0  0  0  0
   -6.8468   -0.9916    0.0000 C   0  0  0  0  0  0  0  0  0
   -7.6718   -0.9916    0.0000 C   0  0  0  0  0  0  0  0  0
   -8.0843   -0.2771    0.0000 C   0  0  0  0  0  0  0  0  0
   -7.6718    0.4374    0.0000 C   0  0  0  0  0  0  0  0  0
   -6.8468    0.4374    0.0000 C   0  0  0  0  0  0  0  0  0
   -6.4343   -0.2771    0.0000 C   0  0  0  0  0  0  0  0  0
   -5.6093   -0.2771    0.0000 N   0  0  0  0  0  0  0  0  0
   -5.1968    0.4374    0.0000 C   0  0  0  0  0  0  0  0  0
   -4.3718    0.4374    0.0000 C   0  0  0  0  0  0  0  0  0
   -3.9593   -0.2771    0.0000 N   0  0  0  0  0  0  0  0  0
   -4.3718   -0.9916    0.0000 C   0  0  0  0  0  0  0  0  0
   -5.1968   -0.9916    0.0000 C   0  0  0  0  0  0  0  0  0
   -3.1343   -0.2771    0.0000 C   0  0  0  0  0  0  0  0  0
   -2.7218    0.4374    0.0000 C   0  0  0  0  0  0  0  0  0
   -1.8968    0.4374    0.0000 C   0  0  0  0  0  0  0  0  0
   -1.4843   -0.2771    0.0000 C   0  0  0  0  0  0  0  0  0
   -0.6593   -0.2771    0.0000 N   0  0  0  0  0  0  0  0  0
   -0.1744   -0.9445    0.0000 C   0  0  0  0  0  0  0  0  0
   -0.4293   -1.7292    0.0000 O   0  0  0  0  0  0  0  0  0
    0.6102   -0.6896    0.0000 C   0  0  0  0  0  0  0  0  0
    0.6102    0.1354    0.0000 C   0  0  0  0  0  0  0  0  0
    1.3247    0.5479    0.0000 N   0  0  0  0  0  0  0  0  0
    2.0392    0.1354    0.0000 C   0  0  0  0  0  0  0  0  0
    2.0392   -0.6896    0.0000 C   0  0  0  0  0  0  0  0  0
    1.3247   -1.1021    0.0000 C   0  0  0  0  0  0  0  0  0
   -0.1744    0.3903    0.0000 C   0  0  0  0  0  0  0  0  0
   -0.4293    1.1750    0.0000 O   0  0  0  0  0  0  0  0  0
   -1.8968   -0.9916    0.0000 C   0  0  0  0  0  0  0  0  0
   -2.7218   -0.9916    0.0000 C   0  0  0  0  0  0  0  0  0
  1  2  1  0  0  0  0
  1  5  1  0  0  0  0
  2  3  1  0  0  0  0
  2  4  1  0  0  0  0
  5  6  4  0  0  0  0
  5 10  4  0  0  0  0
  6  7  4  0  0  0  0
  7  8  4  0  0  0  0
  8  9  4  0  0  0  0
  9 10  4  0  0  0  0
 10 11  1  0  0  0  0
 11 12  1  0  0  0  0
 11 16  1  0  0  0  0
 12 13  1  0  0  0  0
 13 14  1  0  0  0  0
 14 15  1  0  0  0  0
 14 17  1  0  0  0  0
 15 16  1  0  0  0  0
 17 18  1  0  0  0  0
 17 33  1  0  0  0  0
 18 19  1  0  0  0  0
 19 20  1  0  0  0  0
 20 21  1  0  0  0  0
 20 32  1  0  0  0  0
 21 22  1  0  0  0  0
 21 30  1  0  0  0  0
 22 23  2  0  0  0  0
 22 24  1  0  0  0  0
 24 25  4  0  0  0  0
 24 29  4  0  0  0  0
 25 26  4  0  0  0  0
 25 30  1  0  0  0  0
 26 27  4  0  0  0  0
 27 28  4  0  0  0  0
 28 29  4  0  0  0  0
 30 31  2  0  0  0  0
 32 33  1  0  0  0  0
M  END
>  <Name_Molregno>
395348

>  <Alpha-1A>
9.1

>  <Alpha-1B>
7.35

$$$$
395351
  Marvin  02231216192D 0   1.00000     0.00000     0

 33 37  0  0  0  0  0  0  0  0999 V2000
   -6.4343   -1.7060    0.0000 O   0  0  0  0  0  0  0  0  0
   -6.8468   -2.4205    0.0000 C   0  0  0  0  0  0  0  0  0
   -6.4343   -3.1350    0.0000 C   0  0  0  0  0  0  0  0  0
   -7.6718   -2.4205    0.0000 C   0  0  0  0  0  0  0  0  0
   -6.8468   -0.9916    0.0000 C   0  0  0  0  0  0  0  0  0
   -7.6718   -0.9916    0.0000 C   0  0  0  0  0  0  0  0  0
   -8.0843   -0.2771    0.0000 C   0  0  0  0  0  0  0  0  0
   -7.6718    0.4374    0.0000 C   0  0  0  0  0  0  0  0  0
   -6.8468    0.4374    0.0000 C   0  0  0  0  0  0  0  0  0
   -6.4343   -0.2771    0.0000 C   0  0  0  0  0  0  0  0  0
   -5.6093   -0.2771    0.0000 N   0  0  0  0  0  0  0  0  0
   -5.1968    0.4374    0.0000 C   0  0  0  0  0  0  0  0  0
   -4.3718    0.4374    0.0000 C   0  0  0  0  0  0  0  0  0
   -3.9593   -0.2771    0.0000 N   0  0  0  0  0  0  0  0  0
   -4.3718   -0.9916    0.0000 C   0  0  0  0  0  0  0  0  0
   -5.1968   -0.9916    0.0000 C   0  0  0  0  0  0  0  0  0
   -3.1343   -0.2771    0.0000 C   0  0  0  0  0  0  0  0  0
   -2.7218    0.4374    0.0000 C   0  0  0  0  0  0  0  0  0
   -1.8968    0.4374    0.0000 C   0  0  0  0  0  0  0  0  0
   -1.4843   -0.2771    0.0000 C   0  0  0  0  0  0  0  0  0
   -0.6593   -0.2771    0.0000 N   0  0  0  0  0  0  0  0  0
   -0.1744   -0.9445    0.0000 C   0  0  0  0  0  0  0  0  0
   -0.4293   -1.7292    0.0000 O   0  0  0  0  0  0  0  0  0
    0.6102   -0.6896    0.0000 C   0  0  0  0  0  0  0  0  0
    0.6102    0.1354    0.0000 C   0  0  0  0  0  0  0  0  0
    1.3247    0.5479    0.0000 C   0  0  0  0  0  0  0  0  0
    2.0392    0.1354    0.0000 N   0  0  0  0  0  0  0  0  0
    2.0392   -0.6896    0.0000 C   0  0  0  0  0  0  0  0  0
    1.3247   -1.1021    0.0000 C   0  0  0  0  0  0  0  0  0
   -0.1744    0.3903    0.0000 C   0  0  0  0  0  0  0  0  0
   -0.4293    1.1750    0.0000 O   0  0  0  0  0  0  0  0  0
   -1.8968   -0.9916    0.0000 C   0  0  0  0  0  0  0  0  0
   -2.7218   -0.9916    0.0000 C   0  0  0  0  0  0  0  0  0
  1  2  1  0  0  0  0
  1  5  1  0  0  0  0
  2  3  1  0  0  0  0
  2  4  1  0  0  0  0
  5  6  4  0  0  0  0
  5 10  4  0  0  0  0
  6  7  4  0  0  0  0
  7  8  4  0  0  0  0
  8  9  4  0  0  0  0
  9 10  4  0  0  0  0
 10 11  1  0  0  0  0
 11 12  1  0  0  0  0
 11 16  1  0  0  0  0
 12 13  1  0  0  0  0
 13 14  1  0  0  0  0
 14 15  1  0  0  0  0
 14 17  1  0  0  0  0
 15 16  1  0  0  0  0
 17 18  1  0  0  0  0
 17 33  1  0  0  0  0
 18 19  1  0  0  0  0
 19 20  1  0  0  0  0
 20 21  1  0  0  0  0
 20 32  1  0  0  0  0
 21 22  1  0  0  0  0
 21 30  1  0  0  0  0
 22 23  2  0  0  0  0
 22 24  1  0  0  0  0
 24 25  4  0  0  0  0
 24 29  4  0  0  0  0
 25 26  4  0  0  0  0
 25 30  1  0  0  0  0
 26 27  4  0  0  0  0
 27 28  4  0  0  0  0
 28 29  4  0  0  0  0
 30 31  2  0  0  0  0
 32 33  1  0  0  0  0
M  END
>  <Name_Molregno>
395351

>  <Alpha-1A>
9.4

>  <Alpha-1B>
7.65

$$$$
395953
  Marvin  02231216192D 0   1.00000     0.00000     0

 32 35  0  0  0  0  0  0  0  0999 V2000
    3.6643    2.7307    0.0000 S   0  0  0  0  0  0  0  0  0
    4.0768    2.0163    0.0000 O   0  0  0  0  0  0  0  0  0
    3.2518    3.4452    0.0000 O   0  0  0  0  0  0  0  0  0
    2.9498    2.3182    0.0000 N   0  0  0  0  0  0  0  0  0
    2.9498    1.4932    0.0000 C   0  0  0  0  0  0  0  0  0
    3.6643    1.0807    0.0000 C   0  0  0  0  0  0  0  0  0
    3.6643    0.2557    0.0000 C   0  0  0  0  0  0  0  0  0
    2.9498   -0.1568    0.0000 C   0  0  0  0  0  0  0  0  0
    2.9498   -0.9818    0.0000 N   0  0  0  0  0  0  0  0  0
    3.6643   -1.3943    0.0000 C   0  0  0  0  0  0  0  0  0
    3.6643   -2.2193    0.0000 C   0  0  0  0  0  0  0  0  0
    2.9498   -2.6318    0.0000 N   0  0  0  0  0  0  0  0  0
    2.2353   -2.2193    0.0000 C   0  0  0  0  0  0  0  0  0
    2.2353   -1.3943    0.0000 C   0  0  0  0  0  0  0  0  0
    2.9498   -3.4568    0.0000 C   0  0  0  0  0  0  0  0  0
    3.6643   -3.8693    0.0000 C   0  0  0  0  0  0  0  0  0
    3.6643   -4.6943    0.0000 C   0  0  0  0  0  0  0  0  0
    2.9498   -5.1068    0.0000 C   0  0  0  0  0  0  0  0  0
    2.2353   -4.6943    0.0000 C   0  0  0  0  0  0  0  0  0
    2.2353   -3.8693    0.0000 C   0  0  0  0  0  0  0  0  0
    1.5209   -3.4568    0.0000 O   0  0  0  0  0  0  0  0  0
    0.8064   -3.8693    0.0000 C   0  0  0  0  0  0  0  0  0
    0.0919   -3.4568    0.0000 C   0  0  0  0  0  0  0  0  0
    0.8064   -4.6943    0.0000 C   0  0  0  0  0  0  0  0  0
    2.2353    0.2557    0.0000 C   0  0  0  0  0  0  0  0  0
    2.2353    1.0807    0.0000 C   0  0  0  0  0  0  0  0  0
    4.3788    3.1432    0.0000 C   0  0  0  0  0  0  0  0  0
    4.3788    3.9682    0.0000 C   0  0  0  0  0  0  0  0  0
    5.0932    4.3807    0.0000 C   0  0  0  0  0  0  0  0  0
    5.8077    3.9682    0.0000 C   0  0  0  0  0  0  0  0  0
    5.8077    3.1432    0.0000 C   0  0  0  0  0  0  0  0  0
    5.0932    2.7307    0.0000 C   0  0  0  0  0  0  0  0  0
  1  2  2  0  0  0  0
  1  3  2  0  0  0  0
  1  4  1  0  0  0  0
  1 27  1  0  0  0  0
  4  5  1  0  0  0  0
  5  6  1  0  0  0  0
  5 26  1  0  0  0  0
  6  7  1  0  0  0  0
  7  8  1  0  0  0  0
  8  9  1  0  0  0  0
  8 25  1  0  0  0  0
  9 10  1  0  0  0  0
  9 14  1  0  0  0  0
 10 11  1  0  0  0  0
 11 12  1  0  0  0  0
 12 13  1  0  0  0  0
 12 15  1  0  0  0  0
 13 14  1  0  0  0  0
 15 16  4  0  0  0  0
 15 20  4  0  0  0  0
 16 17  4  0  0  0  0
 17 18  4  0  0  0  0
 18 19  4  0  0  0  0
 19 20  4  0  0  0  0
 20 21  1  0  0  0  0
 21 22  1  0  0  0  0
 22 23  1  0  0  0  0
 22 24  1  0  0  0  0
 25 26  1  0  0  0  0
 27 28  4  0  0  0  0
 27 32  4  0  0  0  0
 28 29  4  0  0  0  0
 29 30  4  0  0  0  0
 30 31  4  0  0  0  0
 31 32  4  0  0  0  0
M  END
>  <Name_Molregno>
395953

>  <Alpha-1A>
8.21

>  <Alpha-1B>
6.63

>  <DOPAMINE D2>
7.09

$$$$
395955
  Marvin  02231216192D 0   1.00000     0.00000     0

 34 37  0  0  0  0  0  0  0  0999 V2000
    3.2565    3.6239    0.0000 S   0  0  0  0  0  0  0  0  0
    3.6690    2.9094    0.0000 O   0  0  0  0  0  0  0  0  0
    2.8440    4.3384    0.0000 O   0  0  0  0  0  0  0  0  0
    2.5420    3.2114    0.0000 N   0  0  0  0  0  0  0  0  0
    2.5420    2.3864    0.0000 C   0  0  0  0  0  0  0  0  0
    3.2565    1.9739    0.0000 C   0  0  0  0  0  0  0  0  0
    3.2565    1.1489    0.0000 C   0  0  0  0  0  0  0  0  0
    2.5420    0.7364    0.0000 C   0  0  0  0  0  0  0  0  0
    2.5420   -0.0886    0.0000 N   0  0  0  0  0  0  0  0  0
    3.2565   -0.5011    0.0000 C   0  0  0  0  0  0  0  0  0
    3.2565   -1.3261    0.0000 C   0  0  0  0  0  0  0  0  0
    2.5420   -1.7386    0.0000 N   0  0  0  0  0  0  0  0  0
    1.8276   -1.3261    0.0000 C   0  0  0  0  0  0  0  0  0
    1.8276   -0.5011    0.0000 C   0  0  0  0  0  0  0  0  0
    2.5420   -2.5636    0.0000 C   0  0  0  0  0  0  0  0  0
    3.2565   -2.9761    0.0000 C   0  0  0  0  0  0  0  0  0
    3.2565   -3.8011    0.0000 C   0  0  0  0  0  0  0  0  0
    2.5420   -4.2136    0.0000 C   0  0  0  0  0  0  0  0  0
    1.8276   -3.8011    0.0000 C   0  0  0  0  0  0  0  0  0
    1.8276   -2.9761    0.0000 C   0  0  0  0  0  0  0  0  0
    1.1131   -2.5636    0.0000 O   0  0  0  0  0  0  0  0  0
    0.3986   -2.9761    0.0000 C   0  0  0  0  0  0  0  0  0
   -0.3159   -2.5636    0.0000 C   0  0  0  0  0  0  0  0  0
    0.3986   -3.8011    0.0000 C   0  0  0  0  0  0  0  0  0
    1.8276    1.1489    0.0000 C   0  0  0  0  0  0  0  0  0
    1.8276    1.9739    0.0000 C   0  0  0  0  0  0  0  0  0
    3.9710    4.0364    0.0000 C   0  0  0  0  0  0  0  0  0
    3.9710    4.8614    0.0000 C   0  0  0  0  0  0  0  0  0
    4.6854    5.2739    0.0000 C   0  0  0  0  0  0  0  0  0
    5.3999    4.8614    0.0000 C   0  0  0  0  0  0  0  0  0
    5.3999    4.0364    0.0000 C   0  0  0  0  0  0  0  0  0
    4.6854    3.6239    0.0000 C   0  0  0  0  0  0  0  0  0
    4.6854    2.7989    0.0000 C   0  0  0  0  0  0  0  0  0
    4.6854    1.9739    0.0000 N   0  0  0  0  0  0  0  0  0
  1  2  2  0  0  0  0
  1  3  2  0  0  0  0
  1  4  1  0  0  0  0
  1 27  1  0  0  0  0
  4  5  1  0  0  0  0
  5  6  1  0  0  0  0
  5 26  1  0  0  0  0
  6  7  1  0  0  0  0
  7  8  1  0  0  0  0
  8  9  1  0  0  0  0
  8 25  1  0  0  0  0
  9 10  1  0  0  0  0
  9 14  1  0  0  0  0
 10 11  1  0  0  0  0
 11 12  1  0  0  0  0
 12 13  1  0  0  0  0
 12 15  1  0  0  0  0
 13 14  1  0  0  0  0
 15 16  4  0  0  0  0
 15 20  4  0  0  0  0
 16 17  4  0  0  0  0
 17 18  4  0  0  0  0
 18 19  4  0  0  0  0
 19 20  4  0  0  0  0
 20 21  1  0  0  0  0
 21 22  1  0  0  0  0
 22 23  1  0  0  0  0
 22 24  1  0  0  0  0
 25 26  1  0  0  0  0
 27 28  4  0  0  0  0
 27 32  4  0  0  0  0
 28 29  4  0  0  0  0
 29 30  4  0  0  0  0
 30 31  4  0  0  0  0
 31 32  4  0  0  0  0
 32 33  1  0  0  0  0
 33 34  3  0  0  0  0
M  END
>  <Name_Molregno>
395955

>  <Alpha-1A>
8.57

>  <Alpha-1B>
7.09

>  <DOPAMINE D2>
7.94

$$$$
395957
  Marvin  02231216192D 0   1.00000     0.00000     0

 33 36  0  0  0  0  0  0  0  0999 V2000
    3.4626    3.6438    0.0000 S   0  0  0  0  0  0  0  0  0
    3.8751    2.9293    0.0000 O   0  0  0  0  0  0  0  0  0
    3.0501    4.3583    0.0000 O   0  0  0  0  0  0  0  0  0
    2.7481    3.2313    0.0000 N   0  0  0  0  0  0  0  0  0
    2.7481    2.4063    0.0000 C   0  0  0  0  0  0  0  0  0
    3.4626    1.9938    0.0000 C   0  0  0  0  0  0  0  0  0
    3.4626    1.1688    0.0000 C   0  0  0  0  0  0  0  0  0
    2.7481    0.7563    0.0000 C   0  0  0  0  0  0  0  0  0
    2.7481   -0.0687    0.0000 N   0  0  0  0  0  0  0  0  0
    3.4626   -0.4812    0.0000 C   0  0  0  0  0  0  0  0  0
    3.4626   -1.3062    0.0000 C   0  0  0  0  0  0  0  0  0
    2.7481   -1.7187    0.0000 N   0  0  0  0  0  0  0  0  0
    2.0336   -1.3062    0.0000 C   0  0  0  0  0  0  0  0  0
    2.0336   -0.4812    0.0000 C   0  0  0  0  0  0  0  0  0
    2.7481   -2.5437    0.0000 C   0  0  0  0  0  0  0  0  0
    3.4626   -2.9562    0.0000 C   0  0  0  0  0  0  0  0  0
    3.4626   -3.7812    0.0000 C   0  0  0  0  0  0  0  0  0
    2.7481   -4.1937    0.0000 C   0  0  0  0  0  0  0  0  0
    2.0336   -3.7812    0.0000 C   0  0  0  0  0  0  0  0  0
    2.0336   -2.9562    0.0000 C   0  0  0  0  0  0  0  0  0
    1.3192   -2.5437    0.0000 O   0  0  0  0  0  0  0  0  0
    0.6047   -2.9562    0.0000 C   0  0  0  0  0  0  0  0  0
   -0.1098   -2.5437    0.0000 C   0  0  0  0  0  0  0  0  0
    0.6047   -3.7812    0.0000 C   0  0  0  0  0  0  0  0  0
    2.0336    1.1688    0.0000 C   0  0  0  0  0  0  0  0  0
    2.0336    1.9938    0.0000 C   0  0  0  0  0  0  0  0  0
    4.1770    4.0563    0.0000 C   0  0  0  0  0  0  0  0  0
    4.1770    4.8813    0.0000 C   0  0  0  0  0  0  0  0  0
    4.8915    5.2938    0.0000 C   0  0  0  0  0  0  0  0  0
    5.6060    4.8813    0.0000 C   0  0  0  0  0  0  0  0  0
    5.6060    4.0563    0.0000 C   0  0  0  0  0  0  0  0  0
    4.8915    3.6438    0.0000 C   0  0  0  0  0  0  0  0  0
    4.8915    2.8188    0.0000 F   0  0  0  0  0  0  0  0  0
  1  2  2  0  0  0  0
  1  3  2  0  0  0  0
  1  4  1  0  0  0  0
  1 27  1  0  0  0  0
  4  5  1  0  0  0  0
  5  6  1  0  0  0  0
  5 26  1  0  0  0  0
  6  7  1  0  0  0  0
  7  8  1  0  0  0  0
  8  9  1  0  0  0  0
  8 25  1  0  0  0  0
  9 10  1  0  0  0  0
  9 14  1  0  0  0  0
 10 11  1  0  0  0  0
 11 12  1  0  0  0  0
 12 13  1  0  0  0  0
 12 15  1  0  0  0  0
 13 14  1  0  0  0  0
 15 16  4  0  0  0  0
 15 20  4  0  0  0  0
 16 17  4  0  0  0  0
 17 18  4  0  0  0  0
 18 19  4  0  0  0  0
 19 20  4  0  0  0  0
 20 21  1  0  0  0  0
 21 22  1  0  0  0  0
 22 23  1  0  0  0  0
 22 24  1  0  0  0  0
 25 26  1  0  0  0  0
 27 28  4  0  0  0  0
 27 32  4  0  0  0  0
 28 29  4  0  0  0  0
 29 30  4  0  0  0  0
 30 31  4  0  0  0  0
 31 32  4  0  0  0  0
 32 33  1  0  0  0  0
M  END
>  <Name_Molregno>
395957

>  <Alpha-1A>
8.66

>  <Alpha-1B>
6.7

>  <DOPAMINE D2>
7.17

$$$$
395959
  Marvin  02231216192D 0   1.00000     0.00000     0

 35 38  0  0  0  0  0  0  0  0999 V2000
   -2.3870    2.5862    0.0000 S   0  0  0  0  0  0  0  0  0
   -1.9745    1.8718    0.0000 O   0  0  0  0  0  0  0  0  0
   -2.7995    3.3007    0.0000 O   0  0  0  0  0  0  0  0  0
   -3.1015    2.1737    0.0000 N   0  0  0  0  0  0  0  0  0
   -3.1015    1.3487    0.0000 C   0  0  0  0  0  0  0  0  0
   -2.3870    0.9362    0.0000 C   0  0  0  0  0  0  0  0  0
   -2.3870    0.1112    0.0000 C   0  0  0  0  0  0  0  0  0
   -3.1015   -0.3013    0.0000 C   0  0  0  0  0  0  0  0  0
   -3.1015   -1.1263    0.0000 N   0  0  0  0  0  0  0  0  0
   -2.3870   -1.5388    0.0000 C   0  0  0  0  0  0  0  0  0
   -2.3870   -2.3638    0.0000 C   0  0  0  0  0  0  0  0  0
   -3.1015   -2.7763    0.0000 N   0  0  0  0  0  0  0  0  0
   -3.8159   -2.3638    0.0000 C   0  0  0  0  0  0  0  0  0
   -3.8159   -1.5388    0.0000 C   0  0  0  0  0  0  0  0  0
   -3.1015   -3.6013    0.0000 C   0  0  0  0  0  0  0  0  0
   -2.3870   -4.0138    0.0000 C   0  0  0  0  0  0  0  0  0
   -2.3870   -4.8388    0.0000 C   0  0  0  0  0  0  0  0  0
   -3.1015   -5.2513    0.0000 C   0  0  0  0  0  0  0  0  0
   -3.8159   -4.8388    0.0000 C   0  0  0  0  0  0  0  0  0
   -3.8159   -4.0138    0.0000 C   0  0  0  0  0  0  0  0  0
   -4.5304   -3.6013    0.0000 O   0  0  0  0  0  0  0  0  0
   -5.2449   -4.0138    0.0000 C   0  0  0  0  0  0  0  0  0
   -5.9593   -3.6013    0.0000 C   0  0  0  0  0  0  0  0  0
   -5.2449   -4.8388    0.0000 C   0  0  0  0  0  0  0  0  0
   -3.8159    0.1112    0.0000 C   0  0  0  0  0  0  0  0  0
   -3.8159    0.9362    0.0000 C   0  0  0  0  0  0  0  0  0
   -1.6725    2.9987    0.0000 C   0  0  0  0  0  0  0  0  0
   -1.6725    3.8237    0.0000 C   0  0  0  0  0  0  0  0  0
   -0.9580    4.2362    0.0000 C   0  0  0  0  0  0  0  0  0
   -0.2436    3.8237    0.0000 C   0  0  0  0  0  0  0  0  0
   -0.2436    2.9987    0.0000 C   0  0  0  0  0  0  0  0  0
   -0.9580    2.5862    0.0000 C   0  0  0  0  0  0  0  0  0
   -0.9580    1.7612    0.0000 N   0  3  0  0  0  0  0  0  0
   -0.2436    1.3487    0.0000 O   0  5  0  0  0  0  0  0  0
   -1.6725    1.3487    0.0000 O   0  5  0  0  0  0  0  0  0
  1  2  2  0  0  0  0
  1  3  2  0  0  0  0
  1  4  1  0  0  0  0
  1 27  1  0  0  0  0
  4  5  1  0  0  0  0
  5  6  1  0  0  0  0
  5 26  1  0  0  0  0
  6  7  1  0  0  0  0
  7  8  1  0  0  0  0
  8  9  1  0  0  0  0
  8 25  1  0  0  0  0
  9 10  1  0  0  0  0
  9 14  1  0  0  0  0
 10 11  1  0  0  0  0
 11 12  1  0  0  0  0
 12 13  1  0  0  0  0
 12 15  1  0  0  0  0
 13 14  1  0  0  0  0
 15 16  4  0  0  0  0
 15 20  4  0  0  0  0
 16 17  4  0  0  0  0
 17 18  4  0  0  0  0
 18 19  4  0  0  0  0
 19 20  4  0  0  0  0
 20 21  1  0  0  0  0
 21 22  1  0  0  0  0
 22 23  1  0  0  0  0
 22 24  1  0  0  0  0
 25 26  1  0  0  0  0
 27 28  4  0  0  0  0
 27 32  4  0  0  0  0
 28 29  4  0  0  0  0
 29 30  4  0  0  0  0
 30 31  4  0  0  0  0
 31 32  4  0  0  0  0
 32 33  1  0  0  0  0
 33 34  1  0  0  0  0
 33 35  1  0  0  0  0
M  CHG  3  33   1  34  -1  35  -1
M  END
>  <Name_Molregno>
395959

>  <Alpha-1A>
8.6

>  <Alpha-1B>
6.66

>  <DOPAMINE D2>
7.18

$$$$
395965
  Marvin  02231216192D 0   1.00000     0.00000     0

 33 36  0  0  0  0  0  0  0  0999 V2000
    3.4377    2.6201    0.0000 S   0  0  0  0  0  0  0  0  0
    3.8502    1.9056    0.0000 O   0  0  0  0  0  0  0  0  0
    3.0252    3.3346    0.0000 O   0  0  0  0  0  0  0  0  0
    2.7232    2.2076    0.0000 N   0  0  0  0  0  0  0  0  0
    2.7232    1.3826    0.0000 C   0  0  0  0  0  0  0  0  0
    3.4377    0.9701    0.0000 C   0  0  0  0  0  0  0  0  0
    3.4377    0.1451    0.0000 C   0  0  0  0  0  0  0  0  0
    2.7232   -0.2674    0.0000 C   0  0  0  0  0  0  0  0  0
    2.7232   -1.0924    0.0000 N   0  0  0  0  0  0  0  0  0
    3.4377   -1.5049    0.0000 C   0  0  0  0  0  0  0  0  0
    3.4377   -2.3299    0.0000 C   0  0  0  0  0  0  0  0  0
    2.7232   -2.7424    0.0000 N   0  0  0  0  0  0  0  0  0
    2.0087   -2.3299    0.0000 C   0  0  0  0  0  0  0  0  0
    2.0087   -1.5049    0.0000 C   0  0  0  0  0  0  0  0  0
    2.7232   -3.5674    0.0000 C   0  0  0  0  0  0  0  0  0
    3.4377   -3.9799    0.0000 C   0  0  0  0  0  0  0  0  0
    3.4377   -4.8049    0.0000 C   0  0  0  0  0  0  0  0  0
    2.7232   -5.2174    0.0000 C   0  0  0  0  0  0  0  0  0
    2.0087   -4.8049    0.0000 C   0  0  0  0  0  0  0  0  0
    2.0087   -3.9799    0.0000 C   0  0  0  0  0  0  0  0  0
    1.2942   -3.5674    0.0000 O   0  0  0  0  0  0  0  0  0
    0.5798   -3.9799    0.0000 C   0  0  0  0  0  0  0  0  0
   -0.1347   -3.5674    0.0000 C   0  0  0  0  0  0  0  0  0
    0.5798   -4.8049    0.0000 C   0  0  0  0  0  0  0  0  0
    2.0087    0.1451    0.0000 C   0  0  0  0  0  0  0  0  0
    2.0087    0.9701    0.0000 C   0  0  0  0  0  0  0  0  0
    4.1521    3.0326    0.0000 C   0  0  0  0  0  0  0  0  0
    4.1521    3.8576    0.0000 C   0  0  0  0  0  0  0  0  0
    4.8666    4.2701    0.0000 C   0  0  0  0  0  0  0  0  0
    4.8666    5.0951    0.0000 F   0  0  0  0  0  0  0  0  0
    5.5811    3.8576    0.0000 C   0  0  0  0  0  0  0  0  0
    5.5811    3.0326    0.0000 C   0  0  0  0  0  0  0  0  0
    4.8666    2.6201    0.0000 C   0  0  0  0  0  0  0  0  0
  1  2  2  0  0  0  0
  1  3  2  0  0  0  0
  1  4  1  0  0  0  0
  1 27  1  0  0  0  0
  4  5  1  0  0  0  0
  5  6  1  0  0  0  0
  5 26  1  0  0  0  0
  6  7  1  0  0  0  0
  7  8  1  0  0  0  0
  8  9  1  0  0  0  0
  8 25  1  0  0  0  0
  9 10  1  0  0  0  0
  9 14  1  0  0  0  0
 10 11  1  0  0  0  0
 11 12  1  0  0  0  0
 12 13  1  0  0  0  0
 12 15  1  0  0  0  0
 13 14  1  0  0  0  0
 15 16  4  0  0  0  0
 15 20  4  0  0  0  0
 16 17  4  0  0  0  0
 17 18  4  0  0  0  0
 18 19  4  0  0  0  0
 19 20  4  0  0  0  0
 20 21  1  0  0  0  0
 21 22  1  0  0  0  0
 22 23  1  0  0  0  0
 22 24  1  0  0  0  0
 25 26  1  0  0  0  0
 27 28  4  0  0  0  0
 27 33  4  0  0  0  0
 28 29  4  0  0  0  0
 29 30  1  0  0  0  0
 29 31  4  0  0  0  0
 31 32  4  0  0  0  0
 32 33  4  0  0  0  0
M  END
>  <Name_Molregno>
395965

>  <Alpha-1A>
8.8

>  <Alpha-1B>
6.62

>  <DOPAMINE D2>
7.16

$$$$
395969
  Marvin  02231216192D 0   1.00000     0.00000     0

 36 39  0  0  0  0  0  0  0  0999 V2000
    2.8090    2.2895    0.0000 S   0  0  0  0  0  0  0  0  0
    3.2215    1.5751    0.0000 O   0  0  0  0  0  0  0  0  0
    2.3965    3.0040    0.0000 O   0  0  0  0  0  0  0  0  0
    2.0946    1.8770    0.0000 N   0  0  0  0  0  0  0  0  0
    2.0946    1.0520    0.0000 C   0  0  0  0  0  0  0  0  0
    2.8090    0.6395    0.0000 C   0  0  0  0  0  0  0  0  0
    2.8090   -0.1855    0.0000 C   0  0  0  0  0  0  0  0  0
    2.0946   -0.5980    0.0000 C   0  0  0  0  0  0  0  0  0
    2.0946   -1.4230    0.0000 N   0  0  0  0  0  0  0  0  0
    2.8090   -1.8355    0.0000 C   0  0  0  0  0  0  0  0  0
    2.8090   -2.6605    0.0000 C   0  0  0  0  0  0  0  0  0
    2.0946   -3.0730    0.0000 N   0  0  0  0  0  0  0  0  0
    1.3801   -2.6605    0.0000 C   0  0  0  0  0  0  0  0  0
    1.3801   -1.8355    0.0000 C   0  0  0  0  0  0  0  0  0
    2.0946   -3.8980    0.0000 C   0  0  0  0  0  0  0  0  0
    2.8090   -4.3105    0.0000 C   0  0  0  0  0  0  0  0  0
    2.8090   -5.1355    0.0000 C   0  0  0  0  0  0  0  0  0
    2.0946   -5.5480    0.0000 C   0  0  0  0  0  0  0  0  0
    1.3801   -5.1355    0.0000 C   0  0  0  0  0  0  0  0  0
    1.3801   -4.3105    0.0000 C   0  0  0  0  0  0  0  0  0
    0.6656   -3.8980    0.0000 O   0  0  0  0  0  0  0  0  0
   -0.0488   -4.3105    0.0000 C   0  0  0  0  0  0  0  0  0
   -0.7633   -3.8980    0.0000 C   0  0  0  0  0  0  0  0  0
   -0.0488   -5.1355    0.0000 C   0  0  0  0  0  0  0  0  0
    1.3801   -0.1855    0.0000 C   0  0  0  0  0  0  0  0  0
    1.3801    0.6395    0.0000 C   0  0  0  0  0  0  0  0  0
    3.5235    2.7020    0.0000 C   0  0  0  0  0  0  0  0  0
    3.5235    3.5270    0.0000 C   0  0  0  0  0  0  0  0  0
    4.2380    3.9395    0.0000 C   0  0  0  0  0  0  0  0  0
    4.9524    3.5270    0.0000 C   0  0  0  0  0  0  0  0  0
    4.9524    2.7020    0.0000 C   0  0  0  0  0  0  0  0  0
    4.2380    2.2895    0.0000 C   0  0  0  0  0  0  0  0  0
    4.2380    4.7645    0.0000 C   0  0  0  0  0  0  0  0  0
    4.2380    5.5895    0.0000 F   0  0  0  0  0  0  0  0  0
    5.0630    4.7645    0.0000 F   0  0  0  0  0  0  0  0  0
    3.4130    4.7645    0.0000 F   0  0  0  0  0  0  0  0  0
  1  2  2  0  0  0  0
  1  3  2  0  0  0  0
  1  4  1  0  0  0  0
  1 27  1  0  0  0  0
  4  5  1  0  0  0  0
  5  6  1  0  0  0  0
  5 26  1  0  0  0  0
  6  7  1  0  0  0  0
  7  8  1  0  0  0  0
  8  9  1  0  0  0  0
  8 25  1  0  0  0  0
  9 10  1  0  0  0  0
  9 14  1  0  0  0  0
 10 11  1  0  0  0  0
 11 12  1  0  0  0  0
 12 13  1  0  0  0  0
 12 15  1  0  0  0  0
 13 14  1  0  0  0  0
 15 16  4  0  0  0  0
 15 20  4  0  0  0  0
 16 17  4  0  0  0  0
 17 18  4  0  0  0  0
 18 19  4  0  0  0  0
 19 20  4  0  0  0  0
 20 21  1  0  0  0  0
 21 22  1  0  0  0  0
 22 23  1  0  0  0  0
 22 24  1  0  0  0  0
 25 26  1  0  0  0  0
 27 28  4  0  0  0  0
 27 32  4  0  0  0  0
 28 29  4  0  0  0  0
 29 30  4  0  0  0  0
 29 33  1  0  0  0  0
 30 31  4  0  0  0  0
 31 32  4  0  0  0  0
 33 34  1  0  0  0  0
 33 35  1  0  0  0  0
 33 36  1  0  0  0  0
M  END
>  <Name_Molregno>
395969

>  <Alpha-1A>
7.77

>  <Alpha-1B>
6.57

>  <DOPAMINE D2>
7.17

$$$$
395971
  Marvin  02231216192D 0   1.00000     0.00000     0

 33 36  0  0  0  0  0  0  0  0999 V2000
    3.4156    2.6638    0.0000 S   0  0  0  0  0  0  0  0  0
    3.8281    1.9494    0.0000 O   0  0  0  0  0  0  0  0  0
    3.0031    3.3783    0.0000 O   0  0  0  0  0  0  0  0  0
    2.7011    2.2513    0.0000 N   0  0  0  0  0  0  0  0  0
    2.7011    1.4263    0.0000 C   0  0  0  0  0  0  0  0  0
    3.4156    1.0138    0.0000 C   0  0  0  0  0  0  0  0  0
    3.4156    0.1888    0.0000 C   0  0  0  0  0  0  0  0  0
    2.7011   -0.2237    0.0000 C   0  0  0  0  0  0  0  0  0
    2.7011   -1.0487    0.0000 N   0  0  0  0  0  0  0  0  0
    3.4156   -1.4612    0.0000 C   0  0  0  0  0  0  0  0  0
    3.4156   -2.2862    0.0000 C   0  0  0  0  0  0  0  0  0
    2.7011   -2.6987    0.0000 N   0  0  0  0  0  0  0  0  0
    1.9866   -2.2862    0.0000 C   0  0  0  0  0  0  0  0  0
    1.9866   -1.4612    0.0000 C   0  0  0  0  0  0  0  0  0
    2.7011   -3.5237    0.0000 C   0  0  0  0  0  0  0  0  0
    3.4156   -3.9362    0.0000 C   0  0  0  0  0  0  0  0  0
    3.4156   -4.7612    0.0000 C   0  0  0  0  0  0  0  0  0
    2.7011   -5.1737    0.0000 C   0  0  0  0  0  0  0  0  0
    1.9866   -4.7612    0.0000 C   0  0  0  0  0  0  0  0  0
    1.9866   -3.9362    0.0000 C   0  0  0  0  0  0  0  0  0
    1.2722   -3.5237    0.0000 O   0  0  0  0  0  0  0  0  0
    0.5577   -3.9362    0.0000 C   0  0  0  0  0  0  0  0  0
   -0.1568   -3.5237    0.0000 C   0  0  0  0  0  0  0  0  0
    0.5577   -4.7612    0.0000 C   0  0  0  0  0  0  0  0  0
    1.9866    0.1888    0.0000 C   0  0  0  0  0  0  0  0  0
    1.9866    1.0138    0.0000 C   0  0  0  0  0  0  0  0  0
    4.1301    3.0763    0.0000 C   0  0  0  0  0  0  0  0  0
    4.1301    3.9013    0.0000 C   0  0  0  0  0  0  0  0  0
    4.8445    4.3138    0.0000 C   0  0  0  0  0  0  0  0  0
    5.5590    3.9013    0.0000 C   0  0  0  0  0  0  0  0  0
    6.2735    4.3138    0.0000 F   0  0  0  0  0  0  0  0  0
    5.5590    3.0763    0.0000 C   0  0  0  0  0  0  0  0  0
    4.8445    2.6638    0.0000 C   0  0  0  0  0  0  0  0  0
  1  2  2  0  0  0  0
  1  3  2  0  0  0  0
  1  4  1  0  0  0  0
  1 27  1  0  0  0  0
  4  5  1  0  0  0  0
  5  6  1  0  0  0  0
  5 26  1  0  0  0  0
  6  7  1  0  0  0  0
  7  8  1  0  0  0  0
  8  9  1  0  0  0  0
  8 25  1  0  0  0  0
  9 10  1  0  0  0  0
  9 14  1  0  0  0  0
 10 11  1  0  0  0  0
 11 12  1  0  0  0  0
 12 13  1  0  0  0  0
 12 15  1  0  0  0  0
 13 14  1  0  0  0  0
 15 16  4  0  0  0  0
 15 20  4  0  0  0  0
 16 17  4  0  0  0  0
 17 18  4  0  0  0  0
 18 19  4  0  0  0  0
 19 20  4  0  0  0  0
 20 21  1  0  0  0  0
 21 22  1  0  0  0  0
 22 23  1  0  0  0  0
 22 24  1  0  0  0  0
 25 26  1  0  0  0  0
 27 28  4  0  0  0  0
 27 33  4  0  0  0  0
 28 29  4  0  0  0  0
 29 30  4  0  0  0  0
 30 31  1  0  0  0  0
 30 32  4  0  0  0  0
 32 33  4  0  0  0  0
M  END
>  <Name_Molregno>
395971

>  <Alpha-1A>
8.57

>  <Alpha-1B>
6.67

>  <DOPAMINE D2>
7.37

$$$$
395975
  Marvin  02231216192D 0   1.00000     0.00000     0

 36 39  0  0  0  0  0  0  0  0999 V2000
    6.7283    1.4445    0.0000 S   0  0  0  0  0  0  0  0  0
    6.7283    2.2695    0.0000 O   0  0  0  0  0  0  0  0  0
    5.9033    1.4445    0.0000 O   0  0  0  0  0  0  0  0  0
    7.5533    1.4445    0.0000 C   0  0  0  0  0  0  0  0  0
    6.7283    0.6195    0.0000 C   0  0  0  0  0  0  0  0  0
    7.4428    0.2070    0.0000 C   0  0  0  0  0  0  0  0  0
    7.4428   -0.6180    0.0000 C   0  0  0  0  0  0  0  0  0
    6.7283   -1.0305    0.0000 C   0  0  0  0  0  0  0  0  0
    6.7283   -1.8555    0.0000 S   0  0  0  0  0  0  0  0  0
    5.9033   -1.8555    0.0000 O   0  0  0  0  0  0  0  0  0
    7.5533   -1.8555    0.0000 O   0  0  0  0  0  0  0  0  0
    6.7283   -2.6805    0.0000 N   0  0  0  0  0  0  0  0  0
    6.0139   -3.0930    0.0000 C   0  0  0  0  0  0  0  0  0
    6.0139   -3.9180    0.0000 C   0  0  0  0  0  0  0  0  0
    5.2994   -4.3305    0.0000 C   0  0  0  0  0  0  0  0  0
    4.5849   -3.9180    0.0000 C   0  0  0  0  0  0  0  0  0
    3.8704   -4.3305    0.0000 N   0  0  0  0  0  0  0  0  0
    3.8704   -5.1555    0.0000 C   0  0  0  0  0  0  0  0  0
    3.1560   -5.5680    0.0000 C   0  0  0  0  0  0  0  0  0
    2.4415   -5.1555    0.0000 N   0  0  0  0  0  0  0  0  0
    2.4415   -4.3305    0.0000 C   0  0  0  0  0  0  0  0  0
    3.1560   -3.9180    0.0000 C   0  0  0  0  0  0  0  0  0
    1.7270   -5.5680    0.0000 C   0  0  0  0  0  0  0  0  0
    1.7270   -6.3930    0.0000 C   0  0  0  0  0  0  0  0  0
    1.0126   -6.8055    0.0000 C   0  0  0  0  0  0  0  0  0
    0.2981   -6.3930    0.0000 C   0  0  0  0  0  0  0  0  0
    0.2981   -5.5680    0.0000 C   0  0  0  0  0  0  0  0  0
    1.0126   -5.1555    0.0000 C   0  0  0  0  0  0  0  0  0
    1.0126   -4.3305    0.0000 O   0  0  0  0  0  0  0  0  0
    0.2981   -3.9180    0.0000 C   0  0  0  0  0  0  0  0  0
   -0.4164   -4.3305    0.0000 C   0  0  0  0  0  0  0  0  0
    0.2981   -3.0930    0.0000 C   0  0  0  0  0  0  0  0  0
    4.5849   -3.0930    0.0000 C   0  0  0  0  0  0  0  0  0
    5.2994   -2.6805    0.0000 C   0  0  0  0  0  0  0  0  0
    6.0139   -0.6180    0.0000 C   0  0  0  0  0  0  0  0  0
    6.0139    0.2070    0.0000 C   0  0  0  0  0  0  0  0  0
  1  2  2  0  0  0  0
  1  3  2  0  0  0  0
  1  4  1  0  0  0  0
  1  5  1  0  0  0  0
  5  6  4  0  0  0  0
  5 36  4  0  0  0  0
  6  7  4  0  0  0  0
  7  8  4  0  0  0  0
  8  9  1  0  0  0  0
  8 35  4  0  0  0  0
  9 10  2  0  0  0  0
  9 11  2  0  0  0  0
  9 12  1  0  0  0  0
 12 13  1  0  0  0  0
 13 14  1  0  0  0  0
 13 34  1  0  0  0  0
 14 15  1  0  0  0  0
 15 16  1  0  0  0  0
 16 17  1  0  0  0  0
 16 33  1  0  0  0  0
 17 18  1  0  0  0  0
 17 22  1  0  0  0  0
 18 19  1  0  0  0  0
 19 20  1  0  0  0  0
 20 21  1  0  0  0  0
 20 23  1  0  0  0  0
 21 22  1  0  0  0  0
 23 24  4  0  0  0  0
 23 28  4  0  0  0  0
 24 25  4  0  0  0  0
 25 26  4  0  0  0  0
 26 27  4  0  0  0  0
 27 28  4  0  0  0  0
 28 29  1  0  0  0  0
 29 30  1  0  0  0  0
 30 31  1  0  0  0  0
 30 32  1  0  0  0  0
 33 34  1  0  0  0  0
 35 36  4  0  0  0  0
M  END
>  <Name_Molregno>
395975

>  <Alpha-1A>
8.22

>  <Alpha-1B>
6.56

>  <DOPAMINE D2>
7.38

$$$$
395978
  Marvin  02231216192D 0   1.00000     0.00000     0

 37 40  0  0  0  0  0  0  0  0999 V2000
    2.4576    2.3996    0.0000 S   0  0  0  0  0  0  0  0  0
    2.8701    1.6851    0.0000 O   0  0  0  0  0  0  0  0  0
    2.0451    3.1141    0.0000 O   0  0  0  0  0  0  0  0  0
    1.7431    1.9871    0.0000 N   0  0  0  0  0  0  0  0  0
    1.7431    1.1621    0.0000 C   0  0  0  0  0  0  0  0  0
    2.4576    0.7496    0.0000 C   0  0  0  0  0  0  0  0  0
    2.4576   -0.0754    0.0000 C   0  0  0  0  0  0  0  0  0
    1.7431   -0.4879    0.0000 C   0  0  0  0  0  0  0  0  0
    1.7431   -1.3129    0.0000 N   0  0  0  0  0  0  0  0  0
    2.4576   -1.7254    0.0000 C   0  0  0  0  0  0  0  0  0
    2.4576   -2.5504    0.0000 C   0  0  0  0  0  0  0  0  0
    1.7431   -2.9629    0.0000 N   0  0  0  0  0  0  0  0  0
    1.0287   -2.5504    0.0000 C   0  0  0  0  0  0  0  0  0
    1.0287   -1.7254    0.0000 C   0  0  0  0  0  0  0  0  0
    1.7431   -3.7879    0.0000 C   0  0  0  0  0  0  0  0  0
    2.4576   -4.2004    0.0000 C   0  0  0  0  0  0  0  0  0
    2.4576   -5.0254    0.0000 C   0  0  0  0  0  0  0  0  0
    1.7431   -5.4379    0.0000 C   0  0  0  0  0  0  0  0  0
    1.0287   -5.0254    0.0000 C   0  0  0  0  0  0  0  0  0
    1.0287   -4.2004    0.0000 C   0  0  0  0  0  0  0  0  0
    0.3142   -3.7879    0.0000 O   0  0  0  0  0  0  0  0  0
   -0.4003   -4.2004    0.0000 C   0  0  0  0  0  0  0  0  0
   -1.1148   -3.7879    0.0000 C   0  0  0  0  0  0  0  0  0
   -0.4003   -5.0254    0.0000 C   0  0  0  0  0  0  0  0  0
    1.0287   -0.0754    0.0000 C   0  0  0  0  0  0  0  0  0
    1.0287    0.7496    0.0000 C   0  0  0  0  0  0  0  0  0
    3.1721    2.8121    0.0000 C   0  0  0  0  0  0  0  0  0
    3.1721    3.6371    0.0000 C   0  0  0  0  0  0  0  0  0
    3.8865    4.0496    0.0000 C   0  0  0  0  0  0  0  0  0
    4.6010    3.6371    0.0000 C   0  0  0  0  0  0  0  0  0
    5.3155    4.0496    0.0000 O   0  0  0  0  0  0  0  0  0
    5.3155    4.8746    0.0000 C   0  0  0  0  0  0  0  0  0
    5.3155    5.6996    0.0000 F   0  0  0  0  0  0  0  0  0
    6.1405    4.8746    0.0000 F   0  0  0  0  0  0  0  0  0
    4.4905    4.8746    0.0000 F   0  0  0  0  0  0  0  0  0
    4.6010    2.8121    0.0000 C   0  0  0  0  0  0  0  0  0
    3.8865    2.3996    0.0000 C   0  0  0  0  0  0  0  0  0
  1  2  2  0  0  0  0
  1  3  2  0  0  0  0
  1  4  1  0  0  0  0
  1 27  1  0  0  0  0
  4  5  1  0  0  0  0
  5  6  1  0  0  0  0
  5 26  1  0  0  0  0
  6  7  1  0  0  0  0
  7  8  1  0  0  0  0
  8  9  1  0  0  0  0
  8 25  1  0  0  0  0
  9 10  1  0  0  0  0
  9 14  1  0  0  0  0
 10 11  1  0  0  0  0
 11 12  1  0  0  0  0
 12 13  1  0  0  0  0
 12 15  1  0  0  0  0
 13 14  1  0  0  0  0
 15 16  4  0  0  0  0
 15 20  4  0  0  0  0
 16 17  4  0  0  0  0
 17 18  4  0  0  0  0
 18 19  4  0  0  0  0
 19 20  4  0  0  0  0
 20 21  1  0  0  0  0
 21 22  1  0  0  0  0
 22 23  1  0  0  0  0
 22 24  1  0  0  0  0
 25 26  1  0  0  0  0
 27 28  4  0  0  0  0
 27 37  4  0  0  0  0
 28 29  4  0  0  0  0
 29 30  4  0  0  0  0
 30 31  1  0  0  0  0
 30 36  4  0  0  0  0
 31 32  1  0  0  0  0
 32 33  1  0  0  0  0
 32 34  1  0  0  0  0
 32 35  1  0  0  0  0
 36 37  4  0  0  0  0
M  END
>  <Name_Molregno>
395978

>  <Alpha-1A>
7.39

>  <Alpha-1B>
6.33

>  <DOPAMINE D2>
6.8

$$$$
395982
  Marvin  02231216192D 0   1.00000     0.00000     0

 36 39  0  0  0  0  0  0  0  0999 V2000
    2.7777    2.4143    0.0000 S   0  0  0  0  0  0  0  0  0
    3.1902    1.6999    0.0000 O   0  0  0  0  0  0  0  0  0
    2.3652    3.1288    0.0000 O   0  0  0  0  0  0  0  0  0
    2.0632    2.0018    0.0000 N   0  0  0  0  0  0  0  0  0
    2.0632    1.1768    0.0000 C   0  0  0  0  0  0  0  0  0
    2.7777    0.7643    0.0000 C   0  0  0  0  0  0  0  0  0
    2.7777   -0.0607    0.0000 C   0  0  0  0  0  0  0  0  0
    2.0632   -0.4732    0.0000 C   0  0  0  0  0  0  0  0  0
    2.0632   -1.2982    0.0000 N   0  0  0  0  0  0  0  0  0
    2.7777   -1.7107    0.0000 C   0  0  0  0  0  0  0  0  0
    2.7777   -2.5357    0.0000 C   0  0  0  0  0  0  0  0  0
    2.0632   -2.9482    0.0000 N   0  0  0  0  0  0  0  0  0
    1.3488   -2.5357    0.0000 C   0  0  0  0  0  0  0  0  0
    1.3488   -1.7107    0.0000 C   0  0  0  0  0  0  0  0  0
    2.0632   -3.7732    0.0000 C   0  0  0  0  0  0  0  0  0
    2.7777   -4.1857    0.0000 C   0  0  0  0  0  0  0  0  0
    2.7777   -5.0107    0.0000 C   0  0  0  0  0  0  0  0  0
    2.0632   -5.4232    0.0000 C   0  0  0  0  0  0  0  0  0
    1.3488   -5.0107    0.0000 C   0  0  0  0  0  0  0  0  0
    1.3488   -4.1857    0.0000 C   0  0  0  0  0  0  0  0  0
    0.6343   -3.7732    0.0000 O   0  0  0  0  0  0  0  0  0
   -0.0802   -4.1857    0.0000 C   0  0  0  0  0  0  0  0  0
   -0.7946   -3.7732    0.0000 C   0  0  0  0  0  0  0  0  0
   -0.0802   -5.0107    0.0000 C   0  0  0  0  0  0  0  0  0
    1.3488   -0.0607    0.0000 C   0  0  0  0  0  0  0  0  0
    1.3488    0.7643    0.0000 C   0  0  0  0  0  0  0  0  0
    3.4922    2.8268    0.0000 C   0  0  0  0  0  0  0  0  0
    3.4922    3.6518    0.0000 C   0  0  0  0  0  0  0  0  0
    4.2067    4.0643    0.0000 C   0  0  0  0  0  0  0  0  0
    4.2067    4.8893    0.0000 O   0  0  0  0  0  0  0  0  0
    4.9211    5.3018    0.0000 C   0  0  0  0  0  0  0  0  0
    4.9211    3.6518    0.0000 C   0  0  0  0  0  0  0  0  0
    5.6356    4.0643    0.0000 O   0  0  0  0  0  0  0  0  0
    5.6356    4.8893    0.0000 C   0  0  0  0  0  0  0  0  0
    4.9211    2.8268    0.0000 C   0  0  0  0  0  0  0  0  0
    4.2067    2.4143    0.0000 C   0  0  0  0  0  0  0  0  0
  1  2  2  0  0  0  0
  1  3  2  0  0  0  0
  1  4  1  0  0  0  0
  1 27  1  0  0  0  0
  4  5  1  0  0  0  0
  5  6  1  0  0  0  0
  5 26  1  0  0  0  0
  6  7  1  0  0  0  0
  7  8  1  0  0  0  0
  8  9  1  0  0  0  0
  8 25  1  0  0  0  0
  9 10  1  0  0  0  0
  9 14  1  0  0  0  0
 10 11  1  0  0  0  0
 11 12  1  0  0  0  0
 12 13  1  0  0  0  0
 12 15  1  0  0  0  0
 13 14  1  0  0  0  0
 15 16  4  0  0  0  0
 15 20  4  0  0  0  0
 16 17  4  0  0  0  0
 17 18  4  0  0  0  0
 18 19  4  0  0  0  0
 19 20  4  0  0  0  0
 20 21  1  0  0  0  0
 21 22  1  0  0  0  0
 22 23  1  0  0  0  0
 22 24  1  0  0  0  0
 25 26  1  0  0  0  0
 27 28  4  0  0  0  0
 27 36  4  0  0  0  0
 28 29  4  0  0  0  0
 29 30  1  0  0  0  0
 29 32  4  0  0  0  0
 30 31  1  0  0  0  0
 32 33  1  0  0  0  0
 32 35  4  0  0  0  0
 33 34  1  0  0  0  0
 35 36  4  0  0  0  0
M  END
>  <Name_Molregno>
395982

>  <Alpha-1A>
8

>  <Alpha-1B>
6.94

>  <DOPAMINE D2>
6.88

$$$$
395985
  Marvin  02231216192D 0   1.00000     0.00000     0

 36 39  0  0  0  0  0  0  0  0999 V2000
    2.9776    3.0417    0.0000 S   0  0  0  0  0  0  0  0  0
    3.3901    2.3272    0.0000 O   0  0  0  0  0  0  0  0  0
    2.5651    3.7561    0.0000 O   0  0  0  0  0  0  0  0  0
    2.2631    2.6292    0.0000 N   0  0  0  0  0  0  0  0  0
    2.2631    1.8042    0.0000 C   0  0  0  0  0  0  0  0  0
    2.9776    1.3917    0.0000 C   0  0  0  0  0  0  0  0  0
    2.9776    0.5667    0.0000 C   0  0  0  0  0  0  0  0  0
    2.2631    0.1542    0.0000 C   0  0  0  0  0  0  0  0  0
    2.2631   -0.6708    0.0000 N   0  0  0  0  0  0  0  0  0
    2.9776   -1.0833    0.0000 C   0  0  0  0  0  0  0  0  0
    2.9776   -1.9083    0.0000 C   0  0  0  0  0  0  0  0  0
    2.2631   -2.3208    0.0000 N   0  0  0  0  0  0  0  0  0
    1.5487   -1.9083    0.0000 C   0  0  0  0  0  0  0  0  0
    1.5487   -1.0833    0.0000 C   0  0  0  0  0  0  0  0  0
    2.2631   -3.1458    0.0000 C   0  0  0  0  0  0  0  0  0
    2.9776   -3.5583    0.0000 C   0  0  0  0  0  0  0  0  0
    2.9776   -4.3833    0.0000 C   0  0  0  0  0  0  0  0  0
    2.2631   -4.7958    0.0000 C   0  0  0  0  0  0  0  0  0
    1.5487   -4.3833    0.0000 C   0  0  0  0  0  0  0  0  0
    1.5487   -3.5583    0.0000 C   0  0  0  0  0  0  0  0  0
    0.8342   -3.1458    0.0000 O   0  0  0  0  0  0  0  0  0
    0.1197   -3.5583    0.0000 C   0  0  0  0  0  0  0  0  0
   -0.5948   -3.1458    0.0000 C   0  0  0  0  0  0  0  0  0
    0.1197   -4.3833    0.0000 C   0  0  0  0  0  0  0  0  0
    1.5487    0.5667    0.0000 C   0  0  0  0  0  0  0  0  0
    1.5487    1.3917    0.0000 C   0  0  0  0  0  0  0  0  0
    3.6921    3.4542    0.0000 C   0  0  0  0  0  0  0  0  0
    3.6921    4.2792    0.0000 C   0  0  0  0  0  0  0  0  0
    4.4065    4.6917    0.0000 C   0  0  0  0  0  0  0  0  0
    4.4065    5.5167    0.0000 O   0  0  0  0  0  0  0  0  0
    3.6921    5.9292    0.0000 C   0  0  0  0  0  0  0  0  0
    5.1210    4.2792    0.0000 C   0  0  0  0  0  0  0  0  0
    5.1210    3.4542    0.0000 C   0  0  0  0  0  0  0  0  0
    4.4065    3.0417    0.0000 C   0  0  0  0  0  0  0  0  0
    4.4065    2.2167    0.0000 O   0  0  0  0  0  0  0  0  0
    5.1210    1.8042    0.0000 C   0  0  0  0  0  0  0  0  0
  1  2  2  0  0  0  0
  1  3  2  0  0  0  0
  1  4  1  0  0  0  0
  1 27  1  0  0  0  0
  4  5  1  0  0  0  0
  5  6  1  0  0  0  0
  5 26  1  0  0  0  0
  6  7  1  0  0  0  0
  7  8  1  0  0  0  0
  8  9  1  0  0  0  0
  8 25  1  0  0  0  0
  9 10  1  0  0  0  0
  9 14  1  0  0  0  0
 10 11  1  0  0  0  0
 11 12  1  0  0  0  0
 12 13  1  0  0  0  0
 12 15  1  0  0  0  0
 13 14  1  0  0  0  0
 15 16  4  0  0  0  0
 15 20  4  0  0  0  0
 16 17  4  0  0  0  0
 17 18  4  0  0  0  0
 18 19  4  0  0  0  0
 19 20  4  0  0  0  0
 20 21  1  0  0  0  0
 21 22  1  0  0  0  0
 22 23  1  0  0  0  0
 22 24  1  0  0  0  0
 25 26  1  0  0  0  0
 27 28  4  0  0  0  0
 27 34  4  0  0  0  0
 28 29  4  0  0  0  0
 29 30  1  0  0  0  0
 29 32  4  0  0  0  0
 30 31  1  0  0  0  0
 32 33  4  0  0  0  0
 33 34  4  0  0  0  0
 34 35  1  0  0  0  0
 35 36  1  0  0  0  0
M  END
>  <Name_Molregno>
395985

>  <Alpha-1A>
7.92

>  <Alpha-1B>
6.6

>  <DOPAMINE D2>
7.15

$$$$
395989
  Marvin  02231216192D 0   1.00000     0.00000     0

 35 38  0  0  0  0  0  0  0  0999 V2000
    3.0962    3.3019    0.0000 S   0  0  0  0  0  0  0  0  0
    3.5087    2.5874    0.0000 O   0  0  0  0  0  0  0  0  0
    2.6837    4.0163    0.0000 O   0  0  0  0  0  0  0  0  0
    2.3817    2.8894    0.0000 N   0  0  0  0  0  0  0  0  0
    2.3817    2.0644    0.0000 C   0  0  0  0  0  0  0  0  0
    3.0962    1.6519    0.0000 C   0  0  0  0  0  0  0  0  0
    3.0962    0.8269    0.0000 C   0  0  0  0  0  0  0  0  0
    2.3817    0.4144    0.0000 C   0  0  0  0  0  0  0  0  0
    2.3817   -0.4106    0.0000 N   0  0  0  0  0  0  0  0  0
    3.0962   -0.8231    0.0000 C   0  0  0  0  0  0  0  0  0
    3.0962   -1.6481    0.0000 C   0  0  0  0  0  0  0  0  0
    2.3817   -2.0606    0.0000 N   0  0  0  0  0  0  0  0  0
    1.6672   -1.6481    0.0000 C   0  0  0  0  0  0  0  0  0
    1.6672   -0.8231    0.0000 C   0  0  0  0  0  0  0  0  0
    2.3817   -2.8856    0.0000 C   0  0  0  0  0  0  0  0  0
    3.0962   -3.2981    0.0000 C   0  0  0  0  0  0  0  0  0
    3.0962   -4.1231    0.0000 C   0  0  0  0  0  0  0  0  0
    2.3817   -4.5356    0.0000 C   0  0  0  0  0  0  0  0  0
    1.6672   -4.1231    0.0000 C   0  0  0  0  0  0  0  0  0
    1.6672   -3.2981    0.0000 C   0  0  0  0  0  0  0  0  0
    0.9528   -2.8856    0.0000 O   0  0  0  0  0  0  0  0  0
    0.2383   -3.2981    0.0000 C   0  0  0  0  0  0  0  0  0
   -0.4762   -2.8856    0.0000 C   0  0  0  0  0  0  0  0  0
    0.2383   -4.1231    0.0000 C   0  0  0  0  0  0  0  0  0
    1.6672    0.8269    0.0000 C   0  0  0  0  0  0  0  0  0
    1.6672    1.6519    0.0000 C   0  0  0  0  0  0  0  0  0
    3.8106    3.7144    0.0000 C   0  0  0  0  0  0  0  0  0
    3.8106    4.5394    0.0000 C   0  0  0  0  0  0  0  0  0
    4.5251    4.9519    0.0000 C   0  0  0  0  0  0  0  0  0
    5.2396    4.5394    0.0000 C   0  0  0  0  0  0  0  0  0
    5.2396    3.7144    0.0000 C   0  0  0  0  0  0  0  0  0
    4.5251    3.3019    0.0000 C   0  0  0  0  0  0  0  0  0
    4.5251    2.4769    0.0000 O   0  0  0  0  0  0  0  0  0
    5.2396    2.0644    0.0000 C   0  0  0  0  0  0  0  0  0
    4.5251    5.7769    0.0000 C   0  0  0  0  0  0  0  0  0
  1  2  2  0  0  0  0
  1  3  2  0  0  0  0
  1  4  1  0  0  0  0
  1 27  1  0  0  0  0
  4  5  1  0  0  0  0
  5  6  1  0  0  0  0
  5 26  1  0  0  0  0
  6  7  1  0  0  0  0
  7  8  1  0  0  0  0
  8  9  1  0  0  0  0
  8 25  1  0  0  0  0
  9 10  1  0  0  0  0
  9 14  1  0  0  0  0
 10 11  1  0  0  0  0
 11 12  1  0  0  0  0
 12 13  1  0  0  0  0
 12 15  1  0  0  0  0
 13 14  1  0  0  0  0
 15 16  4  0  0  0  0
 15 20  4  0  0  0  0
 16 17  4  0  0  0  0
 17 18  4  0  0  0  0
 18 19  4  0  0  0  0
 19 20  4  0  0  0  0
 20 21  1  0  0  0  0
 21 22  1  0  0  0  0
 22 23  1  0  0  0  0
 22 24  1  0  0  0  0
 25 26  1  0  0  0  0
 27 28  4  0  0  0  0
 27 32  4  0  0  0  0
 28 29  4  0  0  0  0
 29 30  4  0  0  0  0
 29 35  1  0  0  0  0
 30 31  4  0  0  0  0
 31 32  4  0  0  0  0
 32 33  1  0  0  0  0
 33 34  1  0  0  0  0
M  END
>  <Name_Molregno>
395989

>  <Alpha-1A>
8.4

>  <Alpha-1B>
6.72

>  <DOPAMINE D2>
7.13

$$$$
396002
  Marvin  02231216192D 0   1.00000     0.00000     0

 35 38  0  0  0  0  0  0  0  0999 V2000
    3.0962    3.3019    0.0000 S   0  0  0  0  0  0  0  0  0
    3.5087    2.5874    0.0000 O   0  0  0  0  0  0  0  0  0
    2.6837    4.0163    0.0000 O   0  0  0  0  0  0  0  0  0
    2.3817    2.8894    0.0000 N   0  0  0  0  0  0  0  0  0
    2.3817    2.0644    0.0000 C   0  0  0  0  0  0  0  0  0
    3.0962    1.6519    0.0000 C   0  0  0  0  0  0  0  0  0
    3.0962    0.8269    0.0000 C   0  0  0  0  0  0  0  0  0
    2.3817    0.4144    0.0000 C   0  0  0  0  0  0  0  0  0
    2.3817   -0.4106    0.0000 N   0  0  0  0  0  0  0  0  0
    3.0962   -0.8231    0.0000 C   0  0  0  0  0  0  0  0  0
    3.0962   -1.6481    0.0000 C   0  0  0  0  0  0  0  0  0
    2.3817   -2.0606    0.0000 N   0  0  0  0  0  0  0  0  0
    1.6672   -1.6481    0.0000 C   0  0  0  0  0  0  0  0  0
    1.6672   -0.8231    0.0000 C   0  0  0  0  0  0  0  0  0
    2.3817   -2.8856    0.0000 C   0  0  0  0  0  0  0  0  0
    3.0962   -3.2981    0.0000 C   0  0  0  0  0  0  0  0  0
    3.0962   -4.1231    0.0000 C   0  0  0  0  0  0  0  0  0
    2.3817   -4.5356    0.0000 C   0  0  0  0  0  0  0  0  0
    1.6672   -4.1231    0.0000 C   0  0  0  0  0  0  0  0  0
    1.6672   -3.2981    0.0000 C   0  0  0  0  0  0  0  0  0
    0.9528   -2.8856    0.0000 O   0  0  0  0  0  0  0  0  0
    0.2383   -3.2981    0.0000 C   0  0  0  0  0  0  0  0  0
   -0.4762   -2.8856    0.0000 C   0  0  0  0  0  0  0  0  0
    0.2383   -4.1231    0.0000 C   0  0  0  0  0  0  0  0  0
    1.6672    0.8269    0.0000 C   0  0  0  0  0  0  0  0  0
    1.6672    1.6519    0.0000 C   0  0  0  0  0  0  0  0  0
    3.8106    3.7144    0.0000 C   0  0  0  0  0  0  0  0  0
    3.8106    4.5394    0.0000 C   0  0  0  0  0  0  0  0  0
    4.5251    4.9519    0.0000 C   0  0  0  0  0  0  0  0  0
    4.5251    5.7769    0.0000 F   0  0  0  0  0  0  0  0  0
    5.2396    4.5394    0.0000 C   0  0  0  0  0  0  0  0  0
    5.2396    3.7144    0.0000 C   0  0  0  0  0  0  0  0  0
    4.5251    3.3019    0.0000 C   0  0  0  0  0  0  0  0  0
    4.5251    2.4769    0.0000 O   0  0  0  0  0  0  0  0  0
    5.2396    2.0644    0.0000 C   0  0  0  0  0  0  0  0  0
  1  2  2  0  0  0  0
  1  3  2  0  0  0  0
  1  4  1  0  0  0  0
  1 27  1  0  0  0  0
  4  5  1  0  0  0  0
  5  6  1  0  0  0  0
  5 26  1  0  0  0  0
  6  7  1  0  0  0  0
  7  8  1  0  0  0  0
  8  9  1  0  0  0  0
  8 25  1  0  0  0  0
  9 10  1  0  0  0  0
  9 14  1  0  0  0  0
 10 11  1  0  0  0  0
 11 12  1  0  0  0  0
 12 13  1  0  0  0  0
 12 15  1  0  0  0  0
 13 14  1  0  0  0  0
 15 16  4  0  0  0  0
 15 20  4  0  0  0  0
 16 17  4  0  0  0  0
 17 18  4  0  0  0  0
 18 19  4  0  0  0  0
 19 20  4  0  0  0  0
 20 21  1  0  0  0  0
 21 22  1  0  0  0  0
 22 23  1  0  0  0  0
 22 24  1  0  0  0  0
 25 26  1  0  0  0  0
 27 28  4  0  0  0  0
 27 33  4  0  0  0  0
 28 29  4  0  0  0  0
 29 30  1  0  0  0  0
 29 31  4  0  0  0  0
 31 32  4  0  0  0  0
 32 33  4  0  0  0  0
 33 34  1  0  0  0  0
 34 35  1  0  0  0  0
M  END
>  <Name_Molregno>
396002

>  <Alpha-1A>
8.09

>  <Alpha-1B>
6.47

>  <DOPAMINE D2>
6.81

$$$$
396008
  Marvin  02231216192D 0   1.00000     0.00000     0

 35 38  0  0  0  0  0  0  0  0999 V2000
    2.7217    4.0990    0.0000 Cl  0  0  0  0  0  0  0  0  0
    2.7217    3.2740    0.0000 C   0  0  0  0  0  0  0  0  0
    3.4362    2.8615    0.0000 C   0  0  0  0  0  0  0  0  0
    3.4362    2.0365    0.0000 C   0  0  0  0  0  0  0  0  0
    4.1507    1.6240    0.0000 S   0  0  0  0  0  0  0  0  0
    3.7382    0.9095    0.0000 O   0  0  0  0  0  0  0  0  0
    4.5632    2.3384    0.0000 O   0  0  0  0  0  0  0  0  0
    4.8652    1.2115    0.0000 N   0  0  0  0  0  0  0  0  0
    4.8652    0.3865    0.0000 C   0  0  0  0  0  0  0  0  0
    5.5796   -0.0260    0.0000 C   0  0  0  0  0  0  0  0  0
    5.5796   -0.8510    0.0000 C   0  0  0  0  0  0  0  0  0
    4.8652   -1.2635    0.0000 C   0  0  0  0  0  0  0  0  0
    4.8652   -2.0885    0.0000 N   0  0  0  0  0  0  0  0  0
    5.5796   -2.5010    0.0000 C   0  0  0  0  0  0  0  0  0
    5.5796   -3.3260    0.0000 C   0  0  0  0  0  0  0  0  0
    4.8652   -3.7385    0.0000 N   0  0  0  0  0  0  0  0  0
    4.1507   -3.3260    0.0000 C   0  0  0  0  0  0  0  0  0
    4.1507   -2.5010    0.0000 C   0  0  0  0  0  0  0  0  0
    4.8652   -4.5635    0.0000 C   0  0  0  0  0  0  0  0  0
    5.5796   -4.9760    0.0000 C   0  0  0  0  0  0  0  0  0
    5.5796   -5.8010    0.0000 C   0  0  0  0  0  0  0  0  0
    4.8652   -6.2135    0.0000 C   0  0  0  0  0  0  0  0  0
    4.1507   -5.8010    0.0000 C   0  0  0  0  0  0  0  0  0
    4.1507   -4.9760    0.0000 C   0  0  0  0  0  0  0  0  0
    3.4362   -4.5635    0.0000 O   0  0  0  0  0  0  0  0  0
    2.7217   -4.9760    0.0000 C   0  0  0  0  0  0  0  0  0
    2.7217   -5.8010    0.0000 C   0  0  0  0  0  0  0  0  0
    2.0073   -4.5635    0.0000 C   0  0  0  0  0  0  0  0  0
    4.1507   -0.8510    0.0000 C   0  0  0  0  0  0  0  0  0
    4.1507   -0.0260    0.0000 C   0  0  0  0  0  0  0  0  0
    2.7217    1.6240    0.0000 C   0  0  0  0  0  0  0  0  0
    2.7217    0.7990    0.0000 O   0  0  0  0  0  0  0  0  0
    2.0073    0.3865    0.0000 C   0  0  0  0  0  0  0  0  0
    2.0073    2.0365    0.0000 C   0  0  0  0  0  0  0  0  0
    2.0073    2.8615    0.0000 C   0  0  0  0  0  0  0  0  0
  1  2  1  0  0  0  0
  2  3  4  0  0  0  0
  2 35  4  0  0  0  0
  3  4  4  0  0  0  0
  4  5  1  0  0  0  0
  4 31  4  0  0  0  0
  5  6  2  0  0  0  0
  5  7  2  0  0  0  0
  5  8  1  0  0  0  0
  8  9  1  0  0  0  0
  9 10  1  0  0  0  0
  9 30  1  0  0  0  0
 10 11  1  0  0  0  0
 11 12  1  0  0  0  0
 12 13  1  0  0  0  0
 12 29  1  0  0  0  0
 13 14  1  0  0  0  0
 13 18  1  0  0  0  0
 14 15  1  0  0  0  0
 15 16  1  0  0  0  0
 16 17  1  0  0  0  0
 16 19  1  0  0  0  0
 17 18  1  0  0  0  0
 19 20  4  0  0  0  0
 19 24  4  0  0  0  0
 20 21  4  0  0  0  0
 21 22  4  0  0  0  0
 22 23  4  0  0  0  0
 23 24  4  0  0  0  0
 24 25  1  0  0  0  0
 25 26  1  0  0  0  0
 26 27  1  0  0  0  0
 26 28  1  0  0  0  0
 29 30  1  0  0  0  0
 31 32  1  0  0  0  0
 31 34  4  0  0  0  0
 32 33  1  0  0  0  0
 34 35  4  0  0  0  0
M  END
>  <Name_Molregno>
396008

>  <Alpha-1A>
8.46

>  <Alpha-1B>
6.7

>  <DOPAMINE D2>
6.9

$$$$
396019
  Marvin  02231216192D 0   1.00000     0.00000     0

 35 38  0  0  0  0  0  0  0  0999 V2000
    2.7217    4.0990    0.0000 Br  0  0  0  0  0  0  0  0  0
    2.7217    3.2740    0.0000 C   0  0  0  0  0  0  0  0  0
    3.4362    2.8615    0.0000 C   0  0  0  0  0  0  0  0  0
    3.4362    2.0365    0.0000 C   0  0  0  0  0  0  0  0  0
    4.1507    1.6240    0.0000 S   0  0  0  0  0  0  0  0  0
    3.7382    0.9095    0.0000 O   0  0  0  0  0  0  0  0  0
    4.5632    2.3384    0.0000 O   0  0  0  0  0  0  0  0  0
    4.8652    1.2115    0.0000 N   0  0  0  0  0  0  0  0  0
    4.8652    0.3865    0.0000 C   0  0  0  0  0  0  0  0  0
    5.5796   -0.0260    0.0000 C   0  0  0  0  0  0  0  0  0
    5.5796   -0.8510    0.0000 C   0  0  0  0  0  0  0  0  0
    4.8652   -1.2635    0.0000 C   0  0  0  0  0  0  0  0  0
    4.8652   -2.0885    0.0000 N   0  0  0  0  0  0  0  0  0
    5.5796   -2.5010    0.0000 C   0  0  0  0  0  0  0  0  0
    5.5796   -3.3260    0.0000 C   0  0  0  0  0  0  0  0  0
    4.8652   -3.7385    0.0000 N   0  0  0  0  0  0  0  0  0
    4.1507   -3.3260    0.0000 C   0  0  0  0  0  0  0  0  0
    4.1507   -2.5010    0.0000 C   0  0  0  0  0  0  0  0  0
    4.8652   -4.5635    0.0000 C   0  0  0  0  0  0  0  0  0
    5.5796   -4.9760    0.0000 C   0  0  0  0  0  0  0  0  0
    5.5796   -5.8010    0.0000 C   0  0  0  0  0  0  0  0  0
    4.8652   -6.2135    0.0000 C   0  0  0  0  0  0  0  0  0
    4.1507   -5.8010    0.0000 C   0  0  0  0  0  0  0  0  0
    4.1507   -4.9760    0.0000 C   0  0  0  0  0  0  0  0  0
    3.4362   -4.5635    0.0000 O   0  0  0  0  0  0  0  0  0
    2.7217   -4.9760    0.0000 C   0  0  0  0  0  0  0  0  0
    2.7217   -5.8010    0.0000 C   0  0  0  0  0  0  0  0  0
    2.0073   -4.5635    0.0000 C   0  0  0  0  0  0  0  0  0
    4.1507   -0.8510    0.0000 C   0  0  0  0  0  0  0  0  0
    4.1507   -0.0260    0.0000 C   0  0  0  0  0  0  0  0  0
    2.7217    1.6240    0.0000 C   0  0  0  0  0  0  0  0  0
    2.7217    0.7990    0.0000 O   0  0  0  0  0  0  0  0  0
    2.0073    0.3865    0.0000 C   0  0  0  0  0  0  0  0  0
    2.0073    2.0365    0.0000 C   0  0  0  0  0  0  0  0  0
    2.0073    2.8615    0.0000 C   0  0  0  0  0  0  0  0  0
  1  2  1  0  0  0  0
  2  3  4  0  0  0  0
  2 35  4  0  0  0  0
  3  4  4  0  0  0  0
  4  5  1  0  0  0  0
  4 31  4  0  0  0  0
  5  6  2  0  0  0  0
  5  7  2  0  0  0  0
  5  8  1  0  0  0  0
  8  9  1  0  0  0  0
  9 10  1  0  0  0  0
  9 30  1  0  0  0  0
 10 11  1  0  0  0  0
 11 12  1  0  0  0  0
 12 13  1  0  0  0  0
 12 29  1  0  0  0  0
 13 14  1  0  0  0  0
 13 18  1  0  0  0  0
 14 15  1  0  0  0  0
 15 16  1  0  0  0  0
 16 17  1  0  0  0  0
 16 19  1  0  0  0  0
 17 18  1  0  0  0  0
 19 20  4  0  0  0  0
 19 24  4  0  0  0  0
 20 21  4  0  0  0  0
 21 22  4  0  0  0  0
 22 23  4  0  0  0  0
 23 24  4  0  0  0  0
 24 25  1  0  0  0  0
 25 26  1  0  0  0  0
 26 27  1  0  0  0  0
 26 28  1  0  0  0  0
 29 30  1  0  0  0  0
 31 32  1  0  0  0  0
 31 34  4  0  0  0  0
 32 33  1  0  0  0  0
 34 35  4  0  0  0  0
M  END
>  <Name_Molregno>
396019

>  <Alpha-1A>
8.4

>  <Alpha-1B>
7.13

>  <DOPAMINE D2>
7.43

$$$$
396023
  Marvin  02231216192D 0   1.00000     0.00000     0

 38 41  0  0  0  0  0  0  0  0999 V2000
   -2.3713    2.4002    0.0000 S   0  0  0  0  0  0  0  0  0
   -1.9588    1.6858    0.0000 O   0  0  0  0  0  0  0  0  0
   -2.7838    3.1147    0.0000 O   0  0  0  0  0  0  0  0  0
   -3.0858    1.9877    0.0000 N   0  0  0  0  0  0  0  0  0
   -3.0858    1.1627    0.0000 C   0  0  0  0  0  0  0  0  0
   -2.3713    0.7502    0.0000 C   0  0  0  0  0  0  0  0  0
   -2.3713   -0.0748    0.0000 C   0  0  0  0  0  0  0  0  0
   -3.0858   -0.4873    0.0000 C   0  0  0  0  0  0  0  0  0
   -3.0858   -1.3123    0.0000 N   0  0  0  0  0  0  0  0  0
   -2.3713   -1.7248    0.0000 C   0  0  0  0  0  0  0  0  0
   -2.3713   -2.5498    0.0000 C   0  0  0  0  0  0  0  0  0
   -3.0858   -2.9623    0.0000 N   0  0  0  0  0  0  0  0  0
   -3.8002   -2.5498    0.0000 C   0  0  0  0  0  0  0  0  0
   -3.8002   -1.7248    0.0000 C   0  0  0  0  0  0  0  0  0
   -3.0858   -3.7873    0.0000 C   0  0  0  0  0  0  0  0  0
   -2.3713   -4.1998    0.0000 C   0  0  0  0  0  0  0  0  0
   -2.3713   -5.0248    0.0000 C   0  0  0  0  0  0  0  0  0
   -3.0858   -5.4373    0.0000 C   0  0  0  0  0  0  0  0  0
   -3.8002   -5.0248    0.0000 C   0  0  0  0  0  0  0  0  0
   -3.8002   -4.1998    0.0000 C   0  0  0  0  0  0  0  0  0
   -4.5147   -3.7873    0.0000 O   0  0  0  0  0  0  0  0  0
   -5.2292   -4.1998    0.0000 C   0  0  0  0  0  0  0  0  0
   -5.9437   -3.7873    0.0000 C   0  0  0  0  0  0  0  0  0
   -5.2292   -5.0248    0.0000 C   0  0  0  0  0  0  0  0  0
   -3.8002   -0.0748    0.0000 C   0  0  0  0  0  0  0  0  0
   -3.8002    0.7502    0.0000 C   0  0  0  0  0  0  0  0  0
   -1.6568    2.8127    0.0000 C   0  0  0  0  0  0  0  0  0
   -1.6568    3.6377    0.0000 C   0  0  0  0  0  0  0  0  0
   -0.9424    4.0502    0.0000 C   0  0  0  0  0  0  0  0  0
   -0.2279    3.6377    0.0000 C   0  0  0  0  0  0  0  0  0
   -0.2279    2.8127    0.0000 C   0  0  0  0  0  0  0  0  0
   -0.9424    2.4002    0.0000 C   0  0  0  0  0  0  0  0  0
   -0.9424    1.5752    0.0000 O   0  0  0  0  0  0  0  0  0
   -0.2279    1.1627    0.0000 C   0  0  0  0  0  0  0  0  0
   -0.9424    4.8752    0.0000 C   0  0  0  0  0  0  0  0  0
   -0.9424    5.7002    0.0000 F   0  0  0  0  0  0  0  0  0
   -0.1174    4.8752    0.0000 F   0  0  0  0  0  0  0  0  0
   -1.7674    4.8752    0.0000 F   0  0  0  0  0  0  0  0  0
  1  2  2  0  0  0  0
  1  3  2  0  0  0  0
  1  4  1  0  0  0  0
  1 27  1  0  0  0  0
  4  5  1  0  0  0  0
  5  6  1  0  0  0  0
  5 26  1  0  0  0  0
  6  7  1  0  0  0  0
  7  8  1  0  0  0  0
  8  9  1  0  0  0  0
  8 25  1  0  0  0  0
  9 10  1  0  0  0  0
  9 14  1  0  0  0  0
 10 11  1  0  0  0  0
 11 12  1  0  0  0  0
 12 13  1  0  0  0  0
 12 15  1  0  0  0  0
 13 14  1  0  0  0  0
 15 16  4  0  0  0  0
 15 20  4  0  0  0  0
 16 17  4  0  0  0  0
 17 18  4  0  0  0  0
 18 19  4  0  0  0  0
 19 20  4  0  0  0  0
 20 21  1  0  0  0  0
 21 22  1  0  0  0  0
 22 23  1  0  0  0  0
 22 24  1  0  0  0  0
 25 26  1  0  0  0  0
 27 28  4  0  0  0  0
 27 32  4  0  0  0  0
 28 29  4  0  0  0  0
 29 30  4  0  0  0  0
 29 35  1  0  0  0  0
 30 31  4  0  0  0  0
 31 32  4  0  0  0  0
 32 33  1  0  0  0  0
 33 34  1  0  0  0  0
 35 36  1  0  0  0  0
 35 37  1  0  0  0  0
 35 38  1  0  0  0  0
M  END
>  <Name_Molregno>
396023

>  <Alpha-1A>
7.52

>  <Alpha-1B>
6.46

>  <DOPAMINE D2>
7.72

$$$$
396028
  Marvin  02231216192D 0   1.00000     0.00000     0

 37 40  0  0  0  0  0  0  0  0999 V2000
    2.8605    2.8061    0.0000 S   0  0  0  0  0  0  0  0  0
    3.2730    2.0917    0.0000 O   0  0  0  0  0  0  0  0  0
    2.4480    3.5206    0.0000 O   0  0  0  0  0  0  0  0  0
    2.1461    2.3936    0.0000 N   0  0  0  0  0  0  0  0  0
    2.1461    1.5686    0.0000 C   0  0  0  0  0  0  0  0  0
    2.8605    1.1561    0.0000 C   0  0  0  0  0  0  0  0  0
    2.8605    0.3311    0.0000 C   0  0  0  0  0  0  0  0  0
    2.1461   -0.0814    0.0000 C   0  0  0  0  0  0  0  0  0
    2.1461   -0.9064    0.0000 N   0  0  0  0  0  0  0  0  0
    2.8605   -1.3189    0.0000 C   0  0  0  0  0  0  0  0  0
    2.8605   -2.1439    0.0000 C   0  0  0  0  0  0  0  0  0
    2.1461   -2.5564    0.0000 N   0  0  0  0  0  0  0  0  0
    1.4316   -2.1439    0.0000 C   0  0  0  0  0  0  0  0  0
    1.4316   -1.3189    0.0000 C   0  0  0  0  0  0  0  0  0
    2.1461   -3.3814    0.0000 C   0  0  0  0  0  0  0  0  0
    2.8605   -3.7939    0.0000 C   0  0  0  0  0  0  0  0  0
    2.8605   -4.6189    0.0000 C   0  0  0  0  0  0  0  0  0
    2.1461   -5.0314    0.0000 C   0  0  0  0  0  0  0  0  0
    1.4316   -4.6189    0.0000 C   0  0  0  0  0  0  0  0  0
    1.4316   -3.7939    0.0000 C   0  0  0  0  0  0  0  0  0
    0.7171   -3.3814    0.0000 O   0  0  0  0  0  0  0  0  0
    0.0026   -3.7939    0.0000 C   0  0  0  0  0  0  0  0  0
   -0.7118   -3.3814    0.0000 C   0  0  0  0  0  0  0  0  0
    0.0026   -4.6189    0.0000 C   0  0  0  0  0  0  0  0  0
    1.4316    0.3311    0.0000 C   0  0  0  0  0  0  0  0  0
    1.4316    1.1561    0.0000 C   0  0  0  0  0  0  0  0  0
    3.5750    3.2186    0.0000 C   0  0  0  0  0  0  0  0  0
    3.5750    4.0436    0.0000 C   0  0  0  0  0  0  0  0  0
    4.2895    4.4561    0.0000 C   0  0  0  0  0  0  0  0  0
    4.2895    5.2811    0.0000 N   0  3  0  0  0  0  0  0  0
    3.5750    5.6936    0.0000 O   0  5  0  0  0  0  0  0  0
    5.0039    5.6936    0.0000 O   0  5  0  0  0  0  0  0  0
    5.0039    4.0436    0.0000 C   0  0  0  0  0  0  0  0  0
    5.0039    3.2186    0.0000 C   0  0  0  0  0  0  0  0  0
    4.2895    2.8061    0.0000 C   0  0  0  0  0  0  0  0  0
    4.2895    1.9811    0.0000 O   0  0  0  0  0  0  0  0  0
    5.0039    1.5686    0.0000 C   0  0  0  0  0  0  0  0  0
  1  2  2  0  0  0  0
  1  3  2  0  0  0  0
  1  4  1  0  0  0  0
  1 27  1  0  0  0  0
  4  5  1  0  0  0  0
  5  6  1  0  0  0  0
  5 26  1  0  0  0  0
  6  7  1  0  0  0  0
  7  8  1  0  0  0  0
  8  9  1  0  0  0  0
  8 25  1  0  0  0  0
  9 10  1  0  0  0  0
  9 14  1  0  0  0  0
 10 11  1  0  0  0  0
 11 12  1  0  0  0  0
 12 13  1  0  0  0  0
 12 15  1  0  0  0  0
 13 14  1  0  0  0  0
 15 16  4  0  0  0  0
 15 20  4  0  0  0  0
 16 17  4  0  0  0  0
 17 18  4  0  0  0  0
 18 19  4  0  0  0  0
 19 20  4  0  0  0  0
 20 21  1  0  0  0  0
 21 22  1  0  0  0  0
 22 23  1  0  0  0  0
 22 24  1  0  0  0  0
 25 26  1  0  0  0  0
 27 28  4  0  0  0  0
 27 35  4  0  0  0  0
 28 29  4  0  0  0  0
 29 30  1  0  0  0  0
 29 33  4  0  0  0  0
 30 31  1  0  0  0  0
 30 32  1  0  0  0  0
 33 34  4  0  0  0  0
 34 35  4  0  0  0  0
 35 36  1  0  0  0  0
 36 37  1  0  0  0  0
M  CHG  3  30   1  31  -1  32  -1
M  END
>  <Name_Molregno>
396028

>  <Alpha-1A>
8.68

>  <Alpha-1B>
6.92

>  <DOPAMINE D2>
7.54

$$$$
396035
  Marvin  02231216192D 0   1.00000     0.00000     0

 34 37  0  0  0  0  0  0  0  0999 V2000
    4.1333    6.5637    0.0000 Cl  0  0  0  0  0  0  0  0  0
    4.1333    5.7387    0.0000 C   0  0  0  0  0  0  0  0  0
    4.8477    5.3262    0.0000 C   0  0  0  0  0  0  0  0  0
    4.8477    4.5012    0.0000 C   0  0  0  0  0  0  0  0  0
    5.5622    4.0887    0.0000 S   0  0  0  0  0  0  0  0  0
    5.9747    4.8031    0.0000 O   0  0  0  0  0  0  0  0  0
    5.1497    3.3742    0.0000 O   0  0  0  0  0  0  0  0  0
    6.2767    3.6762    0.0000 N   0  0  0  0  0  0  0  0  0
    6.2767    2.8512    0.0000 C   0  0  0  0  0  0  0  0  0
    6.9911    2.4387    0.0000 C   0  0  0  0  0  0  0  0  0
    6.9911    1.6137    0.0000 C   0  0  0  0  0  0  0  0  0
    6.2767    1.2012    0.0000 C   0  0  0  0  0  0  0  0  0
    6.2767    0.3762    0.0000 N   0  0  0  0  0  0  0  0  0
    6.9911   -0.0363    0.0000 C   0  0  0  0  0  0  0  0  0
    6.9911   -0.8613    0.0000 C   0  0  0  0  0  0  0  0  0
    6.2767   -1.2738    0.0000 N   0  0  0  0  0  0  0  0  0
    5.5622   -0.8613    0.0000 C   0  0  0  0  0  0  0  0  0
    5.5622   -0.0363    0.0000 C   0  0  0  0  0  0  0  0  0
    6.2767   -2.0988    0.0000 C   0  0  0  0  0  0  0  0  0
    6.9911   -2.5113    0.0000 C   0  0  0  0  0  0  0  0  0
    6.9911   -3.3363    0.0000 C   0  0  0  0  0  0  0  0  0
    6.2767   -3.7488    0.0000 C   0  0  0  0  0  0  0  0  0
    5.5622   -3.3363    0.0000 C   0  0  0  0  0  0  0  0  0
    5.5622   -2.5113    0.0000 C   0  0  0  0  0  0  0  0  0
    4.8477   -2.0988    0.0000 O   0  0  0  0  0  0  0  0  0
    4.1333   -2.5113    0.0000 C   0  0  0  0  0  0  0  0  0
    3.4188   -2.0988    0.0000 C   0  0  0  0  0  0  0  0  0
    4.1333   -3.3363    0.0000 C   0  0  0  0  0  0  0  0  0
    5.5622    1.6137    0.0000 C   0  0  0  0  0  0  0  0  0
    5.5622    2.4387    0.0000 C   0  0  0  0  0  0  0  0  0
    4.1333    4.0887    0.0000 C   0  0  0  0  0  0  0  0  0
    3.4188    4.5012    0.0000 C   0  0  0  0  0  0  0  0  0
    3.4188    5.3262    0.0000 C   0  0  0  0  0  0  0  0  0
    2.7043    5.7387    0.0000 C   0  0  0  0  0  0  0  0  0
  1  2  1  0  0  0  0
  2  3  4  0  0  0  0
  2 33  4  0  0  0  0
  3  4  4  0  0  0  0
  4  5  1  0  0  0  0
  4 31  4  0  0  0  0
  5  6  2  0  0  0  0
  5  7  2  0  0  0  0
  5  8  1  0  0  0  0
  8  9  1  0  0  0  0
  9 10  1  0  0  0  0
  9 30  1  0  0  0  0
 10 11  1  0  0  0  0
 11 12  1  0  0  0  0
 12 13  1  0  0  0  0
 12 29  1  0  0  0  0
 13 14  1  0  0  0  0
 13 18  1  0  0  0  0
 14 15  1  0  0  0  0
 15 16  1  0  0  0  0
 16 17  1  0  0  0  0
 16 19  1  0  0  0  0
 17 18  1  0  0  0  0
 19 20  4  0  0  0  0
 19 24  4  0  0  0  0
 20 21  4  0  0  0  0
 21 22  4  0  0  0  0
 22 23  4  0  0  0  0
 23 24  4  0  0  0  0
 24 25  1  0  0  0  0
 25 26  1  0  0  0  0
 26 27  1  0  0  0  0
 26 28  1  0  0  0  0
 29 30  1  0  0  0  0
 31 32  4  0  0  0  0
 32 33  4  0  0  0  0
 33 34  1  0  0  0  0
M  END
>  <Name_Molregno>
396035

>  <Alpha-1A>
8.39

>  <Alpha-1B>
6.75

>  <DOPAMINE D2>
7.25

$$$$
396039
  Marvin  02231216192D 0   1.00000     0.00000     0

 34 37  0  0  0  0  0  0  0  0999 V2000
   -3.1946   -1.7818    0.0000 Cl  0  0  0  0  0  0  0  0  0
   -3.1946   -2.6068    0.0000 C   0  0  0  0  0  0  0  0  0
   -2.4801   -3.0193    0.0000 C   0  0  0  0  0  0  0  0  0
   -2.4801   -3.8443    0.0000 C   0  0  0  0  0  0  0  0  0
   -1.7657   -4.2568    0.0000 Cl  0  0  0  0  0  0  0  0  0
   -3.1946   -4.2568    0.0000 C   0  0  0  0  0  0  0  0  0
   -3.9091   -3.8443    0.0000 C   0  0  0  0  0  0  0  0  0
   -3.9091   -3.0193    0.0000 C   0  0  0  0  0  0  0  0  0
   -4.6236   -2.6068    0.0000 S   0  0  0  0  0  0  0  0  0
   -4.2111   -1.8923    0.0000 O   0  0  0  0  0  0  0  0  0
   -5.0361   -3.3213    0.0000 O   0  0  0  0  0  0  0  0  0
   -5.3380   -2.1943    0.0000 N   0  0  0  0  0  0  0  0  0
   -5.3380   -1.3693    0.0000 C   0  0  0  0  0  0  0  0  0
   -6.0525   -0.9568    0.0000 C   0  0  0  0  0  0  0  0  0
   -6.0525   -0.1318    0.0000 C   0  0  0  0  0  0  0  0  0
   -5.3380    0.2807    0.0000 C   0  0  0  0  0  0  0  0  0
   -5.3380    1.1057    0.0000 N   0  0  0  0  0  0  0  0  0
   -6.0525    1.5182    0.0000 C   0  0  0  0  0  0  0  0  0
   -6.0525    2.3432    0.0000 C   0  0  0  0  0  0  0  0  0
   -5.3380    2.7557    0.0000 N   0  0  0  0  0  0  0  0  0
   -4.6236    2.3432    0.0000 C   0  0  0  0  0  0  0  0  0
   -4.6236    1.5182    0.0000 C   0  0  0  0  0  0  0  0  0
   -5.3380    3.5807    0.0000 C   0  0  0  0  0  0  0  0  0
   -6.0525    3.9932    0.0000 C   0  0  0  0  0  0  0  0  0
   -6.0525    4.8182    0.0000 C   0  0  0  0  0  0  0  0  0
   -5.3380    5.2307    0.0000 C   0  0  0  0  0  0  0  0  0
   -4.6236    4.8182    0.0000 C   0  0  0  0  0  0  0  0  0
   -4.6236    3.9932    0.0000 C   0  0  0  0  0  0  0  0  0
   -3.9091    3.5807    0.0000 O   0  0  0  0  0  0  0  0  0
   -3.1946    3.9932    0.0000 C   0  0  0  0  0  0  0  0  0
   -3.1946    4.8182    0.0000 C   0  0  0  0  0  0  0  0  0
   -2.4801    3.5807    0.0000 C   0  0  0  0  0  0  0  0  0
   -4.6236   -0.1318    0.0000 C   0  0  0  0  0  0  0  0  0
   -4.6236   -0.9568    0.0000 C   0  0  0  0  0  0  0  0  0
  1  2  1  0  0  0  0
  2  3  4  0  0  0  0
  2  8  4  0  0  0  0
  3  4  4  0  0  0  0
  4  5  1  0  0  0  0
  4  6  4  0  0  0  0
  6  7  4  0  0  0  0
  7  8  4  0  0  0  0
  8  9  1  0  0  0  0
  9 10  2  0  0  0  0
  9 11  2  0  0  0  0
  9 12  1  0  0  0  0
 12 13  1  0  0  0  0
 13 14  1  0  0  0  0
 13 34  1  0  0  0  0
 14 15  1  0  0  0  0
 15 16  1  0  0  0  0
 16 17  1  0  0  0  0
 16 33  1  0  0  0  0
 17 18  1  0  0  0  0
 17 22  1  0  0  0  0
 18 19  1  0  0  0  0
 19 20  1  0  0  0  0
 20 21  1  0  0  0  0
 20 23  1  0  0  0  0
 21 22  1  0  0  0  0
 23 24  4  0  0  0  0
 23 28  4  0  0  0  0
 24 25  4  0  0  0  0
 25 26  4  0  0  0  0
 26 27  4  0  0  0  0
 27 28  4  0  0  0  0
 28 29  1  0  0  0  0
 29 30  1  0  0  0  0
 30 31  1  0  0  0  0
 30 32  1  0  0  0  0
 33 34  1  0  0  0  0
M  END
>  <Name_Molregno>
396039

>  <Alpha-1A>
8.58

>  <Alpha-1B>
6.48

>  <DOPAMINE D2>
7.25

$$$$
396045
  Marvin  02231216192D 0   1.00000     0.00000     0

 34 37  0  0  0  0  0  0  0  0999 V2000
    9.4737   -0.2641    0.0000 Cl  0  0  0  0  0  0  0  0  0
    9.4737   -1.0891    0.0000 C   0  0  0  0  0  0  0  0  0
   10.1882   -1.5016    0.0000 C   0  0  0  0  0  0  0  0  0
   10.1882   -2.3266    0.0000 C   0  0  0  0  0  0  0  0  0
    9.4737   -2.7391    0.0000 C   0  0  0  0  0  0  0  0  0
    8.7593   -2.3266    0.0000 C   0  0  0  0  0  0  0  0  0
    8.0448   -2.7391    0.0000 S   0  0  0  0  0  0  0  0  0
    7.6323   -2.0246    0.0000 O   0  0  0  0  0  0  0  0  0
    8.4573   -3.4536    0.0000 O   0  0  0  0  0  0  0  0  0
    7.3303   -3.1516    0.0000 N   0  0  0  0  0  0  0  0  0
    6.6159   -2.7391    0.0000 C   0  0  0  0  0  0  0  0  0
    5.9014   -3.1516    0.0000 C   0  0  0  0  0  0  0  0  0
    5.1869   -2.7391    0.0000 C   0  0  0  0  0  0  0  0  0
    5.1869   -1.9141    0.0000 C   0  0  0  0  0  0  0  0  0
    4.4724   -1.5016    0.0000 N   0  0  0  0  0  0  0  0  0
    3.7580   -1.9141    0.0000 C   0  0  0  0  0  0  0  0  0
    3.0435   -1.5016    0.0000 C   0  0  0  0  0  0  0  0  0
    3.0435   -0.6766    0.0000 N   0  0  0  0  0  0  0  0  0
    3.7580   -0.2641    0.0000 C   0  0  0  0  0  0  0  0  0
    4.4724   -0.6766    0.0000 C   0  0  0  0  0  0  0  0  0
    2.3290   -0.2641    0.0000 C   0  0  0  0  0  0  0  0  0
    1.6146   -0.6766    0.0000 C   0  0  0  0  0  0  0  0  0
    0.9001   -0.2641    0.0000 C   0  0  0  0  0  0  0  0  0
    0.9001    0.5609    0.0000 C   0  0  0  0  0  0  0  0  0
    1.6146    0.9734    0.0000 C   0  0  0  0  0  0  0  0  0
    2.3290    0.5609    0.0000 C   0  0  0  0  0  0  0  0  0
    3.0435    0.9734    0.0000 O   0  0  0  0  0  0  0  0  0
    3.0435    1.7984    0.0000 C   0  0  0  0  0  0  0  0  0
    2.3290    2.2109    0.0000 C   0  0  0  0  0  0  0  0  0
    3.7580    2.2109    0.0000 C   0  0  0  0  0  0  0  0  0
    5.9014   -1.5016    0.0000 C   0  0  0  0  0  0  0  0  0
    6.6159   -1.9141    0.0000 C   0  0  0  0  0  0  0  0  0
    8.7593   -1.5016    0.0000 C   0  0  0  0  0  0  0  0  0
    8.0448   -1.0891    0.0000 F   0  0  0  0  0  0  0  0  0
  1  2  1  0  0  0  0
  2  3  4  0  0  0  0
  2 33  4  0  0  0  0
  3  4  4  0  0  0  0
  4  5  4  0  0  0  0
  5  6  4  0  0  0  0
  6  7  1  0  0  0  0
  6 33  4  0  0  0  0
  7  8  2  0  0  0  0
  7  9  2  0  0  0  0
  7 10  1  0  0  0  0
 10 11  1  0  0  0  0
 11 12  1  0  0  0  0
 11 32  1  0  0  0  0
 12 13  1  0  0  0  0
 13 14  1  0  0  0  0
 14 15  1  0  0  0  0
 14 31  1  0  0  0  0
 15 16  1  0  0  0  0
 15 20  1  0  0  0  0
 16 17  1  0  0  0  0
 17 18  1  0  0  0  0
 18 19  1  0  0  0  0
 18 21  1  0  0  0  0
 19 20  1  0  0  0  0
 21 22  4  0  0  0  0
 21 26  4  0  0  0  0
 22 23  4  0  0  0  0
 23 24  4  0  0  0  0
 24 25  4  0  0  0  0
 25 26  4  0  0  0  0
 26 27  1  0  0  0  0
 27 28  1  0  0  0  0
 28 29  1  0  0  0  0
 28 30  1  0  0  0  0
 31 32  1  0  0  0  0
 33 34  1  0  0  0  0
M  END
>  <Name_Molregno>
396045

>  <Alpha-1A>
8.59

>  <Alpha-1B>
6.69

>  <DOPAMINE D2>
6.64

$$$$
396050
  Marvin  02231216192D 0   1.00000     0.00000     0

 34 37  0  0  0  0  0  0  0  0999 V2000
    7.0665    1.4854    0.0000 Cl  0  0  0  0  0  0  0  0  0
    7.0665    0.6604    0.0000 C   0  0  0  0  0  0  0  0  0
    7.7810    0.2479    0.0000 C   0  0  0  0  0  0  0  0  0
    7.7810   -0.5771    0.0000 C   0  0  0  0  0  0  0  0  0
    8.4954   -0.9896    0.0000 F   0  0  0  0  0  0  0  0  0
    7.0665   -0.9896    0.0000 C   0  0  0  0  0  0  0  0  0
    7.0665   -1.8146    0.0000 S   0  0  0  0  0  0  0  0  0
    6.2415   -1.8146    0.0000 O   0  0  0  0  0  0  0  0  0
    7.8915   -1.8146    0.0000 O   0  0  0  0  0  0  0  0  0
    7.0665   -2.6396    0.0000 N   0  0  0  0  0  0  0  0  0
    6.3520   -3.0521    0.0000 C   0  0  0  0  0  0  0  0  0
    6.3520   -3.8771    0.0000 C   0  0  0  0  0  0  0  0  0
    5.6376   -4.2896    0.0000 C   0  0  0  0  0  0  0  0  0
    4.9231   -3.8771    0.0000 C   0  0  0  0  0  0  0  0  0
    4.2086   -4.2896    0.0000 N   0  0  0  0  0  0  0  0  0
    4.2086   -5.1146    0.0000 C   0  0  0  0  0  0  0  0  0
    3.4941   -5.5271    0.0000 C   0  0  0  0  0  0  0  0  0
    2.7797   -5.1146    0.0000 N   0  0  0  0  0  0  0  0  0
    2.7797   -4.2896    0.0000 C   0  0  0  0  0  0  0  0  0
    3.4941   -3.8771    0.0000 C   0  0  0  0  0  0  0  0  0
    2.0652   -5.5271    0.0000 C   0  0  0  0  0  0  0  0  0
    2.0652   -6.3521    0.0000 C   0  0  0  0  0  0  0  0  0
    1.3507   -6.7646    0.0000 C   0  0  0  0  0  0  0  0  0
    0.6363   -6.3521    0.0000 C   0  0  0  0  0  0  0  0  0
    0.6363   -5.5271    0.0000 C   0  0  0  0  0  0  0  0  0
    1.3507   -5.1146    0.0000 C   0  0  0  0  0  0  0  0  0
    1.3507   -4.2896    0.0000 O   0  0  0  0  0  0  0  0  0
    0.6363   -3.8771    0.0000 C   0  0  0  0  0  0  0  0  0
   -0.0782   -4.2896    0.0000 C   0  0  0  0  0  0  0  0  0
    0.6363   -3.0521    0.0000 C   0  0  0  0  0  0  0  0  0
    4.9231   -3.0521    0.0000 C   0  0  0  0  0  0  0  0  0
    5.6376   -2.6396    0.0000 C   0  0  0  0  0  0  0  0  0
    6.3520   -0.5771    0.0000 C   0  0  0  0  0  0  0  0  0
    6.3520    0.2479    0.0000 C   0  0  0  0  0  0  0  0  0
  1  2  1  0  0  0  0
  2  3  4  0  0  0  0
  2 34  4  0  0  0  0
  3  4  4  0  0  0  0
  4  5  1  0  0  0  0
  4  6  4  0  0  0  0
  6  7  1  0  0  0  0
  6 33  4  0  0  0  0
  7  8  2  0  0  0  0
  7  9  2  0  0  0  0
  7 10  1  0  0  0  0
 10 11  1  0  0  0  0
 11 12  1  0  0  0  0
 11 32  1  0  0  0  0
 12 13  1  0  0  0  0
 13 14  1  0  0  0  0
 14 15  1  0  0  0  0
 14 31  1  0  0  0  0
 15 16  1  0  0  0  0
 15 20  1  0  0  0  0
 16 17  1  0  0  0  0
 17 18  1  0  0  0  0
 18 19  1  0  0  0  0
 18 21  1  0  0  0  0
 19 20  1  0  0  0  0
 21 22  4  0  0  0  0
 21 26  4  0  0  0  0
 22 23  4  0  0  0  0
 23 24  4  0  0  0  0
 24 25  4  0  0  0  0
 25 26  4  0  0  0  0
 26 27  1  0  0  0  0
 27 28  1  0  0  0  0
 28 29  1  0  0  0  0
 28 30  1  0  0  0  0
 31 32  1  0  0  0  0
 33 34  4  0  0  0  0
M  END
>  <Name_Molregno>
396050

>  <Alpha-1A>
8.24

>  <Alpha-1B>
6.81

>  <DOPAMINE D2>
7.14

$$$$
396052
  Marvin  02231216192D 0   1.00000     0.00000     0

 34 37  0  0  0  0  0  0  0  0999 V2000
    2.7810    4.1546    0.0000 Cl  0  0  0  0  0  0  0  0  0
    2.7810    3.3296    0.0000 C   0  0  0  0  0  0  0  0  0
    3.4955    2.9171    0.0000 C   0  0  0  0  0  0  0  0  0
    3.4955    2.0921    0.0000 C   0  0  0  0  0  0  0  0  0
    4.2099    1.6796    0.0000 S   0  0  0  0  0  0  0  0  0
    3.7974    0.9651    0.0000 O   0  0  0  0  0  0  0  0  0
    4.6224    2.3941    0.0000 O   0  0  0  0  0  0  0  0  0
    4.9244    1.2671    0.0000 N   0  0  0  0  0  0  0  0  0
    4.9244    0.4421    0.0000 C   0  0  0  0  0  0  0  0  0
    5.6389    0.0296    0.0000 C   0  0  0  0  0  0  0  0  0
    5.6389   -0.7954    0.0000 C   0  0  0  0  0  0  0  0  0
    4.9244   -1.2079    0.0000 C   0  0  0  0  0  0  0  0  0
    4.9244   -2.0329    0.0000 N   0  0  0  0  0  0  0  0  0
    5.6389   -2.4454    0.0000 C   0  0  0  0  0  0  0  0  0
    5.6389   -3.2704    0.0000 C   0  0  0  0  0  0  0  0  0
    4.9244   -3.6829    0.0000 N   0  0  0  0  0  0  0  0  0
    4.2099   -3.2704    0.0000 C   0  0  0  0  0  0  0  0  0
    4.2099   -2.4454    0.0000 C   0  0  0  0  0  0  0  0  0
    4.9244   -4.5079    0.0000 C   0  0  0  0  0  0  0  0  0
    5.6389   -4.9204    0.0000 C   0  0  0  0  0  0  0  0  0
    5.6389   -5.7454    0.0000 C   0  0  0  0  0  0  0  0  0
    4.9244   -6.1579    0.0000 C   0  0  0  0  0  0  0  0  0
    4.2099   -5.7454    0.0000 C   0  0  0  0  0  0  0  0  0
    4.2099   -4.9204    0.0000 C   0  0  0  0  0  0  0  0  0
    3.4955   -4.5079    0.0000 O   0  0  0  0  0  0  0  0  0
    2.7810   -4.9204    0.0000 C   0  0  0  0  0  0  0  0  0
    2.7810   -5.7454    0.0000 C   0  0  0  0  0  0  0  0  0
    2.0665   -4.5079    0.0000 C   0  0  0  0  0  0  0  0  0
    4.2099   -0.7954    0.0000 C   0  0  0  0  0  0  0  0  0
    4.2099    0.0296    0.0000 C   0  0  0  0  0  0  0  0  0
    2.7810    1.6796    0.0000 C   0  0  0  0  0  0  0  0  0
    2.7810    0.8546    0.0000 F   0  0  0  0  0  0  0  0  0
    2.0665    2.0921    0.0000 C   0  0  0  0  0  0  0  0  0
    2.0665    2.9171    0.0000 C   0  0  0  0  0  0  0  0  0
  1  2  1  0  0  0  0
  2  3  4  0  0  0  0
  2 34  4  0  0  0  0
  3  4  4  0  0  0  0
  4  5  1  0  0  0  0
  4 31  4  0  0  0  0
  5  6  2  0  0  0  0
  5  7  2  0  0  0  0
  5  8  1  0  0  0  0
  8  9  1  0  0  0  0
  9 10  1  0  0  0  0
  9 30  1  0  0  0  0
 10 11  1  0  0  0  0
 11 12  1  0  0  0  0
 12 13  1  0  0  0  0
 12 29  1  0  0  0  0
 13 14  1  0  0  0  0
 13 18  1  0  0  0  0
 14 15  1  0  0  0  0
 15 16  1  0  0  0  0
 16 17  1  0  0  0  0
 16 19  1  0  0  0  0
 17 18  1  0  0  0  0
 19 20  4  0  0  0  0
 19 24  4  0  0  0  0
 20 21  4  0  0  0  0
 21 22  4  0  0  0  0
 22 23  4  0  0  0  0
 23 24  4  0  0  0  0
 24 25  1  0  0  0  0
 25 26  1  0  0  0  0
 26 27  1  0  0  0  0
 26 28  1  0  0  0  0
 29 30  1  0  0  0  0
 31 32  1  0  0  0  0
 31 33  4  0  0  0  0
 33 34  4  0  0  0  0
M  END
>  <Name_Molregno>
396052

>  <Alpha-1A>
7.35

>  <Alpha-1B>
5.73

>  <DOPAMINE D2>
6.45

$$$$
396054
  Marvin  02231216192D 0   1.00000     0.00000     0

 37 41  0  0  0  0  0  0  0  0999 V2000
   -5.0907   -1.3907    0.0000 S   0  0  0  0  0  0  0  0  0
   -4.6782   -0.6763    0.0000 O   0  0  0  0  0  0  0  0  0
   -5.5032   -2.1052    0.0000 O   0  0  0  0  0  0  0  0  0
   -4.3762   -1.8032    0.0000 N   0  0  0  0  0  0  0  0  0
   -3.6618   -1.3907    0.0000 C   0  0  0  0  0  0  0  0  0
   -3.6618   -0.5657    0.0000 C   0  0  0  0  0  0  0  0  0
   -2.9473   -0.1532    0.0000 C   0  0  0  0  0  0  0  0  0
   -2.2328   -0.5657    0.0000 C   0  0  0  0  0  0  0  0  0
   -1.5183   -0.1532    0.0000 N   0  0  0  0  0  0  0  0  0
   -1.5183    0.6718    0.0000 C   0  0  0  0  0  0  0  0  0
   -0.8039    1.0843    0.0000 C   0  0  0  0  0  0  0  0  0
   -0.0894    0.6718    0.0000 N   0  0  0  0  0  0  0  0  0
   -0.0894   -0.1532    0.0000 C   0  0  0  0  0  0  0  0  0
   -0.8039   -0.5657    0.0000 C   0  0  0  0  0  0  0  0  0
    0.6251    1.0843    0.0000 C   0  0  0  0  0  0  0  0  0
    0.6251    1.9093    0.0000 C   0  0  0  0  0  0  0  0  0
    1.3395    2.3218    0.0000 C   0  0  0  0  0  0  0  0  0
    2.0540    1.9093    0.0000 C   0  0  0  0  0  0  0  0  0
    2.0540    1.0843    0.0000 C   0  0  0  0  0  0  0  0  0
    1.3395    0.6718    0.0000 C   0  0  0  0  0  0  0  0  0
    1.3395   -0.1532    0.0000 O   0  0  0  0  0  0  0  0  0
    2.0540   -0.5657    0.0000 C   0  0  0  0  0  0  0  0  0
    2.0540   -1.3907    0.0000 C   0  0  0  0  0  0  0  0  0
    2.4665   -2.1052    0.0000 C   0  0  0  0  0  0  0  0  0
    1.6415   -2.1052    0.0000 C   0  0  0  0  0  0  0  0  0
   -2.2328   -1.3907    0.0000 C   0  0  0  0  0  0  0  0  0
   -2.9473   -1.8032    0.0000 C   0  0  0  0  0  0  0  0  0
   -5.8052   -0.9782    0.0000 C   0  0  0  0  0  0  0  0  0
   -6.5196   -1.3907    0.0000 C   0  0  0  0  0  0  0  0  0
   -7.2341   -0.9782    0.0000 C   0  0  0  0  0  0  0  0  0
   -7.9486   -1.3907    0.0000 O   0  0  0  0  0  0  0  0  0
   -8.6631   -0.9782    0.0000 C   0  0  0  0  0  0  0  0  0
   -7.2341   -0.1532    0.0000 C   0  0  0  0  0  0  0  0  0
   -7.9486    0.2593    0.0000 O   0  0  0  0  0  0  0  0  0
   -8.6631   -0.1532    0.0000 C   0  0  0  0  0  0  0  0  0
   -6.5196    0.2593    0.0000 C   0  0  0  0  0  0  0  0  0
   -5.8052   -0.1532    0.0000 C   0  0  0  0  0  0  0  0  0
  1  2  2  0  0  0  0
  1  3  2  0  0  0  0
  1  4  1  0  0  0  0
  1 28  1  0  0  0  0
  4  5  1  0  0  0  0
  5  6  1  0  0  0  0
  5 27  1  0  0  0  0
  6  7  1  0  0  0  0
  7  8  1  0  0  0  0
  8  9  1  0  0  0  0
  8 26  1  0  0  0  0
  9 10  1  0  0  0  0
  9 14  1  0  0  0  0
 10 11  1  0  0  0  0
 11 12  1  0  0  0  0
 12 13  1  0  0  0  0
 12 15  1  0  0  0  0
 13 14  1  0  0  0  0
 15 16  4  0  0  0  0
 15 20  4  0  0  0  0
 16 17  4  0  0  0  0
 17 18  4  0  0  0  0
 18 19  4  0  0  0  0
 19 20  4  0  0  0  0
 20 21  1  0  0  0  0
 21 22  1  0  0  0  0
 22 23  1  0  0  0  0
 23 24  1  0  0  0  0
 23 25  1  0  0  0  0
 24 25  1  0  0  0  0
 26 27  1  0  0  0  0
 28 29  4  0  0  0  0
 28 37  4  0  0  0  0
 29 30  4  0  0  0  0
 30 31  1  0  0  0  0
 30 33  4  0  0  0  0
 31 32  1  0  0  0  0
 33 34  1  0  0  0  0
 33 36  4  0  0  0  0
 34 35  1  0  0  0  0
 36 37  4  0  0  0  0
M  END
>  <Name_Molregno>
396054

>  <Alpha-1A>
6.72

>  <Alpha-1B>
6.44

>  <DOPAMINE D2>
6.91

$$$$
396056
  Marvin  02231216192D 0   1.00000     0.00000     0

 36 40  0  0  0  0  0  0  0  0999 V2000
   -0.0649   -5.1744    0.0000 Cl  0  0  0  0  0  0  0  0  0
    0.6495   -4.7619    0.0000 C   0  0  0  0  0  0  0  0  0
    0.6495   -3.9369    0.0000 C   0  0  0  0  0  0  0  0  0
    1.3640   -3.5244    0.0000 C   0  0  0  0  0  0  0  0  0
    1.3640   -2.6994    0.0000 S   0  0  0  0  0  0  0  0  0
    2.1890   -2.6994    0.0000 O   0  0  0  0  0  0  0  0  0
    0.5390   -2.6994    0.0000 O   0  0  0  0  0  0  0  0  0
    1.3640   -1.8744    0.0000 N   0  0  0  0  0  0  0  0  0
    2.0785   -1.4619    0.0000 C   0  0  0  0  0  0  0  0  0
    2.0785   -0.6369    0.0000 C   0  0  0  0  0  0  0  0  0
    2.7930   -0.2244    0.0000 C   0  0  0  0  0  0  0  0  0
    3.5074   -0.6369    0.0000 C   0  0  0  0  0  0  0  0  0
    4.2219   -0.2244    0.0000 N   0  0  0  0  0  0  0  0  0
    4.2219    0.6006    0.0000 C   0  0  0  0  0  0  0  0  0
    4.9364    1.0131    0.0000 C   0  0  0  0  0  0  0  0  0
    5.6508    0.6006    0.0000 N   0  0  0  0  0  0  0  0  0
    5.6508   -0.2244    0.0000 C   0  0  0  0  0  0  0  0  0
    4.9364   -0.6369    0.0000 C   0  0  0  0  0  0  0  0  0
    6.3653    1.0131    0.0000 C   0  0  0  0  0  0  0  0  0
    6.3653    1.8381    0.0000 C   0  0  0  0  0  0  0  0  0
    7.0798    2.2506    0.0000 C   0  0  0  0  0  0  0  0  0
    7.7943    1.8381    0.0000 C   0  0  0  0  0  0  0  0  0
    7.7943    1.0131    0.0000 C   0  0  0  0  0  0  0  0  0
    7.0798    0.6006    0.0000 C   0  0  0  0  0  0  0  0  0
    7.0798   -0.2244    0.0000 O   0  0  0  0  0  0  0  0  0
    7.7943   -0.6369    0.0000 C   0  0  0  0  0  0  0  0  0
    7.7943   -1.4619    0.0000 C   0  0  0  0  0  0  0  0  0
    8.2068   -2.1764    0.0000 C   0  0  0  0  0  0  0  0  0
    7.3818   -2.1764    0.0000 C   0  0  0  0  0  0  0  0  0
    3.5074   -1.4619    0.0000 C   0  0  0  0  0  0  0  0  0
    2.7930   -1.8744    0.0000 C   0  0  0  0  0  0  0  0  0
    2.0785   -3.9369    0.0000 C   0  0  0  0  0  0  0  0  0
    2.7930   -3.5244    0.0000 O   0  0  0  0  0  0  0  0  0
    3.5074   -3.9369    0.0000 C   0  0  0  0  0  0  0  0  0
    2.0785   -4.7619    0.0000 C   0  0  0  0  0  0  0  0  0
    1.3640   -5.1744    0.0000 C   0  0  0  0  0  0  0  0  0
  1  2  1  0  0  0  0
  2  3  4  0  0  0  0
  2 36  4  0  0  0  0
  3  4  4  0  0  0  0
  4  5  1  0  0  0  0
  4 32  4  0  0  0  0
  5  6  2  0  0  0  0
  5  7  2  0  0  0  0
  5  8  1  0  0  0  0
  8  9  1  0  0  0  0
  9 10  1  0  0  0  0
  9 31  1  0  0  0  0
 10 11  1  0  0  0  0
 11 12  1  0  0  0  0
 12 13  1  0  0  0  0
 12 30  1  0  0  0  0
 13 14  1  0  0  0  0
 13 18  1  0  0  0  0
 14 15  1  0  0  0  0
 15 16  1  0  0  0  0
 16 17  1  0  0  0  0
 16 19  1  0  0  0  0
 17 18  1  0  0  0  0
 19 20  4  0  0  0  0
 19 24  4  0  0  0  0
 20 21  4  0  0  0  0
 21 22  4  0  0  0  0
 22 23  4  0  0  0  0
 23 24  4  0  0  0  0
 24 25  1  0  0  0  0
 25 26  1  0  0  0  0
 26 27  1  0  0  0  0
 27 28  1  0  0  0  0
 27 29  1  0  0  0  0
 28 29  1  0  0  0  0
 30 31  1  0  0  0  0
 32 33  1  0  0  0  0
 32 35  4  0  0  0  0
 33 34  1  0  0  0  0
 35 36  4  0  0  0  0
M  END
>  <Name_Molregno>
396056

>  <Alpha-1A>
7.72

>  <Alpha-1B>
6.22

>  <DOPAMINE D2>
6.23

$$$$
396058
  Marvin  02231216192D 0   1.00000     0.00000     0

 35 39  0  0  0  0  0  0  0  0999 V2000
    0.0615   -5.1632    0.0000 Cl  0  0  0  0  0  0  0  0  0
    0.7760   -4.7507    0.0000 C   0  0  0  0  0  0  0  0  0
    0.7760   -3.9257    0.0000 C   0  0  0  0  0  0  0  0  0
    1.4904   -3.5132    0.0000 C   0  0  0  0  0  0  0  0  0
    1.4904   -2.6882    0.0000 S   0  0  0  0  0  0  0  0  0
    2.3154   -2.6882    0.0000 O   0  0  0  0  0  0  0  0  0
    0.6654   -2.6882    0.0000 O   0  0  0  0  0  0  0  0  0
    1.4904   -1.8632    0.0000 N   0  0  0  0  0  0  0  0  0
    2.2049   -1.4507    0.0000 C   0  0  0  0  0  0  0  0  0
    2.2049   -0.6257    0.0000 C   0  0  0  0  0  0  0  0  0
    2.9194   -0.2132    0.0000 C   0  0  0  0  0  0  0  0  0
    3.6339   -0.6257    0.0000 C   0  0  0  0  0  0  0  0  0
    4.3483   -0.2132    0.0000 N   0  0  0  0  0  0  0  0  0
    4.3483    0.6118    0.0000 C   0  0  0  0  0  0  0  0  0
    5.0628    1.0243    0.0000 C   0  0  0  0  0  0  0  0  0
    5.7773    0.6118    0.0000 N   0  0  0  0  0  0  0  0  0
    5.7773   -0.2132    0.0000 C   0  0  0  0  0  0  0  0  0
    5.0628   -0.6257    0.0000 C   0  0  0  0  0  0  0  0  0
    6.4917    1.0243    0.0000 C   0  0  0  0  0  0  0  0  0
    6.4917    1.8493    0.0000 C   0  0  0  0  0  0  0  0  0
    7.2062    2.2618    0.0000 C   0  0  0  0  0  0  0  0  0
    7.9207    1.8493    0.0000 C   0  0  0  0  0  0  0  0  0
    7.9207    1.0243    0.0000 C   0  0  0  0  0  0  0  0  0
    7.2062    0.6118    0.0000 C   0  0  0  0  0  0  0  0  0
    7.2062   -0.2132    0.0000 O   0  0  0  0  0  0  0  0  0
    7.9207   -0.6257    0.0000 C   0  0  0  0  0  0  0  0  0
    7.9207   -1.4507    0.0000 C   0  0  0  0  0  0  0  0  0
    8.3332   -2.1652    0.0000 C   0  0  0  0  0  0  0  0  0
    7.5082   -2.1652    0.0000 C   0  0  0  0  0  0  0  0  0
    3.6339   -1.4507    0.0000 C   0  0  0  0  0  0  0  0  0
    2.9194   -1.8632    0.0000 C   0  0  0  0  0  0  0  0  0
    2.2049   -3.9257    0.0000 C   0  0  0  0  0  0  0  0  0
    2.9194   -3.5132    0.0000 F   0  0  0  0  0  0  0  0  0
    2.2049   -4.7507    0.0000 C   0  0  0  0  0  0  0  0  0
    1.4904   -5.1632    0.0000 C   0  0  0  0  0  0  0  0  0
  1  2  1  0  0  0  0
  2  3  4  0  0  0  0
  2 35  4  0  0  0  0
  3  4  4  0  0  0  0
  4  5  1  0  0  0  0
  4 32  4  0  0  0  0
  5  6  2  0  0  0  0
  5  7  2  0  0  0  0
  5  8  1  0  0  0  0
  8  9  1  0  0  0  0
  9 10  1  0  0  0  0
  9 31  1  0  0  0  0
 10 11  1  0  0  0  0
 11 12  1  0  0  0  0
 12 13  1  0  0  0  0
 12 30  1  0  0  0  0
 13 14  1  0  0  0  0
 13 18  1  0  0  0  0
 14 15  1  0  0  0  0
 15 16  1  0  0  0  0
 16 17  1  0  0  0  0
 16 19  1  0  0  0  0
 17 18  1  0  0  0  0
 19 20  4  0  0  0  0
 19 24  4  0  0  0  0
 20 21  4  0  0  0  0
 21 22  4  0  0  0  0
 22 23  4  0  0  0  0
 23 24  4  0  0  0  0
 24 25  1  0  0  0  0
 25 26  1  0  0  0  0
 26 27  1  0  0  0  0
 27 28  1  0  0  0  0
 27 29  1  0  0  0  0
 28 29  1  0  0  0  0
 30 31  1  0  0  0  0
 32 33  1  0  0  0  0
 32 34  4  0  0  0  0
 34 35  4  0  0  0  0
M  END
>  <Name_Molregno>
396058

>  <Alpha-1A>
7.44

>  <Alpha-1B>
6.02

>  <DOPAMINE D2>
6.37

$$$$
396060
  Marvin  02231216192D 0   1.00000     0.00000     0

 33 36  0  0  0  0  0  0  0  0999 V2000
   -2.9159    3.4681    0.0000 S   0  0  0  0  0  0  0  0  0
   -2.5034    4.1826    0.0000 O   0  0  0  0  0  0  0  0  0
   -3.3284    2.7536    0.0000 O   0  0  0  0  0  0  0  0  0
   -2.2014    3.0556    0.0000 N   0  0  0  0  0  0  0  0  0
   -2.2014    2.2306    0.0000 C   0  0  0  0  0  0  0  0  0
   -1.4869    1.8181    0.0000 C   0  0  0  0  0  0  0  0  0
   -1.4869    0.9931    0.0000 C   0  0  0  0  0  0  0  0  0
   -2.2014    0.5806    0.0000 C   0  0  0  0  0  0  0  0  0
   -2.2014   -0.2444    0.0000 N   0  0  0  0  0  0  0  0  0
   -1.4869   -0.6569    0.0000 C   0  0  0  0  0  0  0  0  0
   -1.4869   -1.4819    0.0000 C   0  0  0  0  0  0  0  0  0
   -2.2014   -1.8944    0.0000 N   0  0  0  0  0  0  0  0  0
   -2.9159   -1.4819    0.0000 C   0  0  0  0  0  0  0  0  0
   -2.9159   -0.6569    0.0000 C   0  0  0  0  0  0  0  0  0
   -2.2014   -2.7194    0.0000 C   0  0  0  0  0  0  0  0  0
   -1.4869   -3.1319    0.0000 C   0  0  0  0  0  0  0  0  0
   -1.4869   -3.9569    0.0000 C   0  0  0  0  0  0  0  0  0
   -2.2014   -4.3694    0.0000 C   0  0  0  0  0  0  0  0  0
   -2.9159   -3.9569    0.0000 C   0  0  0  0  0  0  0  0  0
   -2.9159   -3.1319    0.0000 C   0  0  0  0  0  0  0  0  0
   -3.6303   -2.7194    0.0000 O   0  0  0  0  0  0  0  0  0
   -4.3448   -3.1319    0.0000 C   0  0  0  0  0  0  0  0  0
   -5.0593   -2.7194    0.0000 C   0  0  0  0  0  0  0  0  0
   -4.3448   -3.9569    0.0000 C   0  0  0  0  0  0  0  0  0
   -2.9159    0.9931    0.0000 C   0  0  0  0  0  0  0  0  0
   -2.9159    1.8181    0.0000 C   0  0  0  0  0  0  0  0  0
   -3.6303    3.8806    0.0000 C   0  0  0  0  0  0  0  0  0
   -3.6303    4.7056    0.0000 C   0  0  0  0  0  0  0  0  0
   -4.3448    5.1181    0.0000 C   0  0  0  0  0  0  0  0  0
   -4.3448    5.9431    0.0000 C   0  0  0  0  0  0  0  0  0
   -3.6303    6.3556    0.0000 C   0  0  0  0  0  0  0  0  0
   -2.9159    5.9431    0.0000 C   0  0  0  0  0  0  0  0  0
   -2.9159    5.1181    0.0000 C   0  0  0  0  0  0  0  0  0
  1  2  2  0  0  0  0
  1  3  2  0  0  0  0
  1  4  1  0  0  0  0
  1 27  1  0  0  0  0
  4  5  1  0  0  0  0
  5  6  1  0  0  0  0
  5 26  1  0  0  0  0
  6  7  1  0  0  0  0
  7  8  1  0  0  0  0
  8  9  1  0  0  0  0
  8 25  1  0  0  0  0
  9 10  1  0  0  0  0
  9 14  1  0  0  0  0
 10 11  1  0  0  0  0
 11 12  1  0  0  0  0
 12 13  1  0  0  0  0
 12 15  1  0  0  0  0
 13 14  1  0  0  0  0
 15 16  4  0  0  0  0
 15 20  4  0  0  0  0
 16 17  4  0  0  0  0
 17 18  4  0  0  0  0
 18 19  4  0  0  0  0
 19 20  4  0  0  0  0
 20 21  1  0  0  0  0
 21 22  1  0  0  0  0
 22 23  1  0  0  0  0
 22 24  1  0  0  0  0
 25 26  1  0  0  0  0
 27 28  1  0  0  0  0
 28 29  4  0  0  0  0
 28 33  4  0  0  0  0
 29 30  4  0  0  0  0
 30 31  4  0  0  0  0
 31 32  4  0  0  0  0
 32 33  4  0  0  0  0
M  END
>  <Name_Molregno>
396060

>  <Alpha-1A>
8.66

>  <Alpha-1B>
6.9

>  <DOPAMINE D2>
7.39

$$$$
396062
  Marvin  02231216192D 0   1.00000     0.00000     0

 32 35  0  0  0  0  0  0  0  0999 V2000
    3.6643    2.7307    0.0000 S   0  0  0  0  0  0  0  0  0
    4.0768    2.0163    0.0000 O   0  0  0  0  0  0  0  0  0
    3.2518    3.4452    0.0000 O   0  0  0  0  0  0  0  0  0
    2.9498    2.3182    0.0000 N   0  0  0  0  0  0  0  0  0
    2.9498    1.4932    0.0000 C   0  0  0  0  0  0  0  0  0
    3.6643    1.0807    0.0000 C   0  0  0  0  0  0  0  0  0
    3.6643    0.2557    0.0000 C   0  0  0  0  0  0  0  0  0
    2.9498   -0.1568    0.0000 C   0  0  0  0  0  0  0  0  0
    2.9498   -0.9818    0.0000 N   0  0  0  0  0  0  0  0  0
    3.6643   -1.3943    0.0000 C   0  0  0  0  0  0  0  0  0
    3.6643   -2.2193    0.0000 C   0  0  0  0  0  0  0  0  0
    2.9498   -2.6318    0.0000 N   0  0  0  0  0  0  0  0  0
    2.2353   -2.2193    0.0000 C   0  0  0  0  0  0  0  0  0
    2.2353   -1.3943    0.0000 C   0  0  0  0  0  0  0  0  0
    2.9498   -3.4568    0.0000 C   0  0  0  0  0  0  0  0  0
    3.6643   -3.8693    0.0000 C   0  0  0  0  0  0  0  0  0
    3.6643   -4.6943    0.0000 C   0  0  0  0  0  0  0  0  0
    2.9498   -5.1068    0.0000 C   0  0  0  0  0  0  0  0  0
    2.2353   -4.6943    0.0000 C   0  0  0  0  0  0  0  0  0
    2.2353   -3.8693    0.0000 C   0  0  0  0  0  0  0  0  0
    1.5209   -3.4568    0.0000 O   0  0  0  0  0  0  0  0  0
    0.8064   -3.8693    0.0000 C   0  0  0  0  0  0  0  0  0
    0.0919   -3.4568    0.0000 C   0  0  0  0  0  0  0  0  0
    0.8064   -4.6943    0.0000 C   0  0  0  0  0  0  0  0  0
    2.2353    0.2557    0.0000 C   0  0  0  0  0  0  0  0  0
    2.2353    1.0807    0.0000 C   0  0  0  0  0  0  0  0  0
    4.3788    3.1432    0.0000 C   0  0  0  0  0  0  0  0  0
    4.3788    3.9682    0.0000 C   0  0  0  0  0  0  0  0  0
    5.0932    4.3807    0.0000 C   0  0  0  0  0  0  0  0  0
    5.8077    3.9682    0.0000 C   0  0  0  0  0  0  0  0  0
    5.8077    3.1432    0.0000 N   0  0  0  0  0  0  0  0  0
    5.0932    2.7307    0.0000 C   0  0  0  0  0  0  0  0  0
  1  2  2  0  0  0  0
  1  3  2  0  0  0  0
  1  4  1  0  0  0  0
  1 27  1  0  0  0  0
  4  5  1  0  0  0  0
  5  6  1  0  0  0  0
  5 26  1  0  0  0  0
  6  7  1  0  0  0  0
  7  8  1  0  0  0  0
  8  9  1  0  0  0  0
  8 25  1  0  0  0  0
  9 10  1  0  0  0  0
  9 14  1  0  0  0  0
 10 11  1  0  0  0  0
 11 12  1  0  0  0  0
 12 13  1  0  0  0  0
 12 15  1  0  0  0  0
 13 14  1  0  0  0  0
 15 16  4  0  0  0  0
 15 20  4  0  0  0  0
 16 17  4  0  0  0  0
 17 18  4  0  0  0  0
 18 19  4  0  0  0  0
 19 20  4  0  0  0  0
 20 21  1  0  0  0  0
 21 22  1  0  0  0  0
 22 23  1  0  0  0  0
 22 24  1  0  0  0  0
 25 26  1  0  0  0  0
 27 28  4  0  0  0  0
 27 32  4  0  0  0  0
 28 29  4  0  0  0  0
 29 30  4  0  0  0  0
 30 31  4  0  0  0  0
 31 32  4  0  0  0  0
M  END
>  <Name_Molregno>
396062

>  <Alpha-1A>
8.27

>  <Alpha-1B>
6.56

>  <DOPAMINE D2>
7.54

$$$$
396064
  Marvin  02231216192D 0   1.00000     0.00000     0

 34 37  0  0  0  0  0  0  0  0999 V2000
    3.2267    3.5736    0.0000 S   0  0  0  0  0  0  0  0  0
    3.6392    2.8591    0.0000 O   0  0  0  0  0  0  0  0  0
    2.8142    4.2881    0.0000 O   0  0  0  0  0  0  0  0  0
    2.5122    3.1611    0.0000 N   0  0  0  0  0  0  0  0  0
    2.5122    2.3361    0.0000 C   0  0  0  0  0  0  0  0  0
    3.2267    1.9236    0.0000 C   0  0  0  0  0  0  0  0  0
    3.2267    1.0986    0.0000 C   0  0  0  0  0  0  0  0  0
    2.5122    0.6861    0.0000 C   0  0  0  0  0  0  0  0  0
    2.5122   -0.1389    0.0000 N   0  0  0  0  0  0  0  0  0
    3.2267   -0.5514    0.0000 C   0  0  0  0  0  0  0  0  0
    3.2267   -1.3764    0.0000 C   0  0  0  0  0  0  0  0  0
    2.5122   -1.7889    0.0000 N   0  0  0  0  0  0  0  0  0
    1.7977   -1.3764    0.0000 C   0  0  0  0  0  0  0  0  0
    1.7977   -0.5514    0.0000 C   0  0  0  0  0  0  0  0  0
    2.5122   -2.6139    0.0000 C   0  0  0  0  0  0  0  0  0
    3.2267   -3.0264    0.0000 C   0  0  0  0  0  0  0  0  0
    3.2267   -3.8514    0.0000 C   0  0  0  0  0  0  0  0  0
    2.5122   -4.2639    0.0000 C   0  0  0  0  0  0  0  0  0
    1.7977   -3.8514    0.0000 C   0  0  0  0  0  0  0  0  0
    1.7977   -3.0264    0.0000 C   0  0  0  0  0  0  0  0  0
    1.0833   -2.6139    0.0000 O   0  0  0  0  0  0  0  0  0
    0.3688   -3.0264    0.0000 C   0  0  0  0  0  0  0  0  0
   -0.3457   -2.6139    0.0000 C   0  0  0  0  0  0  0  0  0
    0.3688   -3.8514    0.0000 C   0  0  0  0  0  0  0  0  0
    1.7977    1.0986    0.0000 C   0  0  0  0  0  0  0  0  0
    1.7977    1.9236    0.0000 C   0  0  0  0  0  0  0  0  0
    3.9411    3.9861    0.0000 C   0  0  0  0  0  0  0  0  0
    3.9411    4.8111    0.0000 C   0  0  0  0  0  0  0  0  0
    4.6556    5.2236    0.0000 N   0  0  0  0  0  0  0  0  0
    5.3701    4.8111    0.0000 C   0  0  0  0  0  0  0  0  0
    5.3701    3.9861    0.0000 C   0  0  0  0  0  0  0  0  0
    4.6556    3.5736    0.0000 C   0  0  0  0  0  0  0  0  0
    4.6556    2.7486    0.0000 O   0  0  0  0  0  0  0  0  0
    5.3701    2.3361    0.0000 C   0  0  0  0  0  0  0  0  0
  1  2  2  0  0  0  0
  1  3  2  0  0  0  0
  1  4  1  0  0  0  0
  1 27  1  0  0  0  0
  4  5  1  0  0  0  0
  5  6  1  0  0  0  0
  5 26  1  0  0  0  0
  6  7  1  0  0  0  0
  7  8  1  0  0  0  0
  8  9  1  0  0  0  0
  8 25  1  0  0  0  0
  9 10  1  0  0  0  0
  9 14  1  0  0  0  0
 10 11  1  0  0  0  0
 11 12  1  0  0  0  0
 12 13  1  0  0  0  0
 12 15  1  0  0  0  0
 13 14  1  0  0  0  0
 15 16  4  0  0  0  0
 15 20  4  0  0  0  0
 16 17  4  0  0  0  0
 17 18  4  0  0  0  0
 18 19  4  0  0  0  0
 19 20  4  0  0  0  0
 20 21  1  0  0  0  0
 21 22  1  0  0  0  0
 22 23  1  0  0  0  0
 22 24  1  0  0  0  0
 25 26  1  0  0  0  0
 27 28  4  0  0  0  0
 27 32  4  0  0  0  0
 28 29  4  0  0  0  0
 29 30  4  0  0  0  0
 30 31  4  0  0  0  0
 31 32  4  0  0  0  0
 32 33  1  0  0  0  0
 33 34  1  0  0  0  0
M  END
>  <Name_Molregno>
396064

>  <Alpha-1A>
8.09

>  <Alpha-1B>
6.67

>  <DOPAMINE D2>
7.2

$$$$
396067
  Marvin  02231216192D 0   1.00000     0.00000     0

 34 37  0  0  0  0  0  0  0  0999 V2000
    4.1333    6.5637    0.0000 Br  0  0  0  0  0  0  0  0  0
    4.1333    5.7387    0.0000 C   0  0  0  0  0  0  0  0  0
    4.8477    5.3262    0.0000 C   0  0  0  0  0  0  0  0  0
    4.8477    4.5012    0.0000 C   0  0  0  0  0  0  0  0  0
    5.5622    4.0887    0.0000 S   0  0  0  0  0  0  0  0  0
    5.9747    4.8031    0.0000 O   0  0  0  0  0  0  0  0  0
    5.1497    3.3742    0.0000 O   0  0  0  0  0  0  0  0  0
    6.2767    3.6762    0.0000 N   0  0  0  0  0  0  0  0  0
    6.2767    2.8512    0.0000 C   0  0  0  0  0  0  0  0  0
    6.9911    2.4387    0.0000 C   0  0  0  0  0  0  0  0  0
    6.9911    1.6137    0.0000 C   0  0  0  0  0  0  0  0  0
    6.2767    1.2012    0.0000 C   0  0  0  0  0  0  0  0  0
    6.2767    0.3762    0.0000 N   0  0  0  0  0  0  0  0  0
    6.9911   -0.0363    0.0000 C   0  0  0  0  0  0  0  0  0
    6.9911   -0.8613    0.0000 C   0  0  0  0  0  0  0  0  0
    6.2767   -1.2738    0.0000 N   0  0  0  0  0  0  0  0  0
    5.5622   -0.8613    0.0000 C   0  0  0  0  0  0  0  0  0
    5.5622   -0.0363    0.0000 C   0  0  0  0  0  0  0  0  0
    6.2767   -2.0988    0.0000 C   0  0  0  0  0  0  0  0  0
    6.9911   -2.5113    0.0000 C   0  0  0  0  0  0  0  0  0
    6.9911   -3.3363    0.0000 C   0  0  0  0  0  0  0  0  0
    6.2767   -3.7488    0.0000 C   0  0  0  0  0  0  0  0  0
    5.5622   -3.3363    0.0000 C   0  0  0  0  0  0  0  0  0
    5.5622   -2.5113    0.0000 C   0  0  0  0  0  0  0  0  0
    4.8477   -2.0988    0.0000 O   0  0  0  0  0  0  0  0  0
    4.1333   -2.5113    0.0000 C   0  0  0  0  0  0  0  0  0
    3.4188   -2.0988    0.0000 C   0  0  0  0  0  0  0  0  0
    4.1333   -3.3363    0.0000 C   0  0  0  0  0  0  0  0  0
    5.5622    1.6137    0.0000 C   0  0  0  0  0  0  0  0  0
    5.5622    2.4387    0.0000 C   0  0  0  0  0  0  0  0  0
    4.1333    4.0887    0.0000 C   0  0  0  0  0  0  0  0  0
    3.4188    4.5012    0.0000 N   0  0  0  0  0  0  0  0  0
    3.4188    5.3262    0.0000 C   0  0  0  0  0  0  0  0  0
    2.7043    5.7387    0.0000 Cl  0  0  0  0  0  0  0  0  0
  1  2  1  0  0  0  0
  2  3  4  0  0  0  0
  2 33  4  0  0  0  0
  3  4  4  0  0  0  0
  4  5  1  0  0  0  0
  4 31  4  0  0  0  0
  5  6  2  0  0  0  0
  5  7  2  0  0  0  0
  5  8  1  0  0  0  0
  8  9  1  0  0  0  0
  9 10  1  0  0  0  0
  9 30  1  0  0  0  0
 10 11  1  0  0  0  0
 11 12  1  0  0  0  0
 12 13  1  0  0  0  0
 12 29  1  0  0  0  0
 13 14  1  0  0  0  0
 13 18  1  0  0  0  0
 14 15  1  0  0  0  0
 15 16  1  0  0  0  0
 16 17  1  0  0  0  0
 16 19  1  0  0  0  0
 17 18  1  0  0  0  0
 19 20  4  0  0  0  0
 19 24  4  0  0  0  0
 20 21  4  0  0  0  0
 21 22  4  0  0  0  0
 22 23  4  0  0  0  0
 23 24  4  0  0  0  0
 24 25  1  0  0  0  0
 25 26  1  0  0  0  0
 26 27  1  0  0  0  0
 26 28  1  0  0  0  0
 29 30  1  0  0  0  0
 31 32  4  0  0  0  0
 32 33  4  0  0  0  0
 33 34  1  0  0  0  0
M  END
>  <Name_Molregno>
396067

>  <Alpha-1A>
8.15

>  <Alpha-1B>
6.73

>  <DOPAMINE D2>
7.15

$$$$
398599
  Marvin  02231216192D 0   1.00000     0.00000     0

 38 41  0  0  0  0  0  0  0  0999 V2000
   -2.1723    2.2045    0.0000 S   0  0  0  0  0  0  0  0  0
   -1.7598    1.4900    0.0000 O   0  0  0  0  0  0  0  0  0
   -2.5848    2.9189    0.0000 O   0  0  0  0  0  0  0  0  0
   -2.8868    1.7920    0.0000 N   0  0  0  0  0  0  0  0  0
   -3.6013    2.2045    0.0000 C   0  0  0  0  0  0  0  0  0
   -4.3157    1.7920    0.0000 C   0  0  0  0  0  0  0  0  0
   -2.8868    0.9670    0.0000 C   0  0  0  0  0  0  0  0  0
   -2.1723    0.5545    0.0000 C   0  0  0  0  0  0  0  0  0
   -2.1723   -0.2705    0.0000 C   0  0  0  0  0  0  0  0  0
   -2.8868   -0.6830    0.0000 C   0  0  0  0  0  0  0  0  0
   -2.8868   -1.5080    0.0000 N   0  0  0  0  0  0  0  0  0
   -2.1723   -1.9205    0.0000 C   0  0  0  0  0  0  0  0  0
   -2.1723   -2.7455    0.0000 C   0  0  0  0  0  0  0  0  0
   -2.8868   -3.1580    0.0000 N   0  0  0  0  0  0  0  0  0
   -3.6013   -2.7455    0.0000 C   0  0  0  0  0  0  0  0  0
   -3.6013   -1.9205    0.0000 C   0  0  0  0  0  0  0  0  0
   -2.8868   -3.9830    0.0000 C   0  0  0  0  0  0  0  0  0
   -2.1723   -4.3955    0.0000 C   0  0  0  0  0  0  0  0  0
   -2.1723   -5.2205    0.0000 C   0  0  0  0  0  0  0  0  0
   -2.8868   -5.6330    0.0000 C   0  0  0  0  0  0  0  0  0
   -3.6013   -5.2205    0.0000 C   0  0  0  0  0  0  0  0  0
   -3.6013   -4.3955    0.0000 C   0  0  0  0  0  0  0  0  0
   -4.3157   -3.9830    0.0000 O   0  0  0  0  0  0  0  0  0
   -5.0302   -4.3955    0.0000 C   0  0  0  0  0  0  0  0  0
   -5.7447   -3.9830    0.0000 C   0  0  0  0  0  0  0  0  0
   -5.0302   -5.2205    0.0000 C   0  0  0  0  0  0  0  0  0
   -3.6013   -0.2705    0.0000 C   0  0  0  0  0  0  0  0  0
   -3.6013    0.5545    0.0000 C   0  0  0  0  0  0  0  0  0
   -1.4579    2.6170    0.0000 C   0  0  0  0  0  0  0  0  0
   -1.4579    3.4420    0.0000 C   0  0  0  0  0  0  0  0  0
   -0.7434    3.8545    0.0000 C   0  0  0  0  0  0  0  0  0
   -0.7434    4.6795    0.0000 O   0  0  0  0  0  0  0  0  0
   -0.0289    5.0920    0.0000 C   0  0  0  0  0  0  0  0  0
   -0.0289    3.4420    0.0000 C   0  0  0  0  0  0  0  0  0
    0.6856    3.8545    0.0000 O   0  0  0  0  0  0  0  0  0
    0.6856    4.6795    0.0000 C   0  0  0  0  0  0  0  0  0
   -0.0289    2.6170    0.0000 C   0  0  0  0  0  0  0  0  0
   -0.7434    2.2045    0.0000 C   0  0  0  0  0  0  0  0  0
  1  2  2  0  0  0  0
  1  3  2  0  0  0  0
  1  4  1  0  0  0  0
  1 29  1  0  0  0  0
  4  5  1  0  0  0  0
  4  7  1  0  0  0  0
  5  6  1  0  0  0  0
  7  8  1  0  0  0  0
  7 28  1  0  0  0  0
  8  9  1  0  0  0  0
  9 10  1  0  0  0  0
 10 11  1  0  0  0  0
 10 27  1  0  0  0  0
 11 12  1  0  0  0  0
 11 16  1  0  0  0  0
 12 13  1  0  0  0  0
 13 14  1  0  0  0  0
 14 15  1  0  0  0  0
 14 17  1  0  0  0  0
 15 16  1  0  0  0  0
 17 18  4  0  0  0  0
 17 22  4  0  0  0  0
 18 19  4  0  0  0  0
 19 20  4  0  0  0  0
 20 21  4  0  0  0  0
 21 22  4  0  0  0  0
 22 23  1  0  0  0  0
 23 24  1  0  0  0  0
 24 25  1  0  0  0  0
 24 26  1  0  0  0  0
 27 28  1  0  0  0  0
 29 30  4  0  0  0  0
 29 38  4  0  0  0  0
 30 31  4  0  0  0  0
 31 32  1  0  0  0  0
 31 34  4  0  0  0  0
 32 33  1  0  0  0  0
 34 35  1  0  0  0  0
 34 37  4  0  0  0  0
 35 36  1  0  0  0  0
 37 38  4  0  0  0  0
M  END
>  <Name_Molregno>
398599

>  <Alpha-1A>
7.73

>  <Alpha-1B>
6.72

>  <DOPAMINE D2>
7.76

$$$$
398601
  Marvin  02231216192D 0   1.00000     0.00000     0

 38 41  0  0  0  0  0  0  0  0999 V2000
    2.9694    3.7720    0.0000 S   0  0  0  0  0  0  0  0  0
    3.3819    3.0575    0.0000 O   0  0  0  0  0  0  0  0  0
    2.5569    4.4865    0.0000 O   0  0  0  0  0  0  0  0  0
    2.2549    3.3595    0.0000 N   0  0  0  0  0  0  0  0  0
    2.2549    2.5345    0.0000 C   0  0  0  0  0  0  0  0  0
    2.9694    2.1220    0.0000 C   0  0  0  0  0  0  0  0  0
    2.9694    1.2970    0.0000 C   0  0  0  0  0  0  0  0  0
    2.2549    0.8845    0.0000 C   0  0  0  0  0  0  0  0  0
    2.2549    0.0595    0.0000 N   0  0  0  0  0  0  0  0  0
    2.9694   -0.3530    0.0000 C   0  0  0  0  0  0  0  0  0
    2.9694   -1.1780    0.0000 C   0  0  0  0  0  0  0  0  0
    2.2549   -1.5905    0.0000 N   0  0  0  0  0  0  0  0  0
    1.5404   -1.1780    0.0000 C   0  0  0  0  0  0  0  0  0
    1.5404   -0.3530    0.0000 C   0  0  0  0  0  0  0  0  0
    2.2549   -2.4155    0.0000 C   0  0  0  0  0  0  0  0  0
    2.9694   -2.8280    0.0000 C   0  0  0  0  0  0  0  0  0
    2.9694   -3.6530    0.0000 C   0  0  0  0  0  0  0  0  0
    2.2549   -4.0655    0.0000 C   0  0  0  0  0  0  0  0  0
    1.5404   -3.6530    0.0000 C   0  0  0  0  0  0  0  0  0
    1.5404   -2.8280    0.0000 C   0  0  0  0  0  0  0  0  0
    0.8260   -2.4155    0.0000 O   0  0  0  0  0  0  0  0  0
    0.1115   -2.8280    0.0000 C   0  0  0  0  0  0  0  0  0
   -0.6030   -2.4155    0.0000 C   0  0  0  0  0  0  0  0  0
   -1.3175   -2.0030    0.0000 F   0  0  0  0  0  0  0  0  0
   -1.0155   -3.1300    0.0000 F   0  0  0  0  0  0  0  0  0
   -0.1905   -1.7010    0.0000 F   0  0  0  0  0  0  0  0  0
    1.5404    1.2970    0.0000 C   0  0  0  0  0  0  0  0  0
    1.5404    2.1220    0.0000 C   0  0  0  0  0  0  0  0  0
    3.6838    4.1845    0.0000 C   0  0  0  0  0  0  0  0  0
    3.6838    5.0095    0.0000 C   0  0  0  0  0  0  0  0  0
    4.3983    5.4220    0.0000 C   0  0  0  0  0  0  0  0  0
    4.3983    6.2470    0.0000 O   0  0  0  0  0  0  0  0  0
    5.1128    6.6595    0.0000 C   0  0  0  0  0  0  0  0  0
    5.1128    5.0095    0.0000 C   0  0  0  0  0  0  0  0  0
    5.8272    5.4220    0.0000 O   0  0  0  0  0  0  0  0  0
    5.8272    6.2470    0.0000 C   0  0  0  0  0  0  0  0  0
    5.1128    4.1845    0.0000 C   0  0  0  0  0  0  0  0  0
    4.3983    3.7720    0.0000 C   0  0  0  0  0  0  0  0  0
  1  2  2  0  0  0  0
  1  3  2  0  0  0  0
  1  4  1  0  0  0  0
  1 29  1  0  0  0  0
  4  5  1  0  0  0  0
  5  6  1  0  0  0  0
  5 28  1  0  0  0  0
  6  7  1  0  0  0  0
  7  8  1  0  0  0  0
  8  9  1  0  0  0  0
  8 27  1  0  0  0  0
  9 10  1  0  0  0  0
  9 14  1  0  0  0  0
 10 11  1  0  0  0  0
 11 12  1  0  0  0  0
 12 13  1  0  0  0  0
 12 15  1  0  0  0  0
 13 14  1  0  0  0  0
 15 16  4  0  0  0  0
 15 20  4  0  0  0  0
 16 17  4  0  0  0  0
 17 18  4  0  0  0  0
 18 19  4  0  0  0  0
 19 20  4  0  0  0  0
 20 21  1  0  0  0  0
 21 22  1  0  0  0  0
 22 23  1  0  0  0  0
 23 24  1  0  0  0  0
 23 25  1  0  0  0  0
 23 26  1  0  0  0  0
 27 28  1  0  0  0  0
 29 30  4  0  0  0  0
 29 38  4  0  0  0  0
 30 31  4  0  0  0  0
 31 32  1  0  0  0  0
 31 34  4  0  0  0  0
 32 33  1  0  0  0  0
 34 35  1  0  0  0  0
 34 37  4  0  0  0  0
 35 36  1  0  0  0  0
 37 38  4  0  0  0  0
M  END
>  <Name_Molregno>
398601

>  <Alpha-1A>
8.1

>  <Alpha-1B>
7.24

>  <DOPAMINE D2>
6.83

$$$$
405680
  Marvin  02231216192D 0   1.00000     0.00000     0

 32 35  0  0  0  0  0  0  0  0999 V2000
   -2.7718    5.0725    0.0000 F   0  0  0  0  0  0  0  0  0
   -2.7718    4.2475    0.0000 C   0  0  0  0  0  0  0  0  0
   -2.0573    3.8350    0.0000 C   0  0  0  0  0  0  0  0  0
   -2.0573    3.0100    0.0000 C   0  0  0  0  0  0  0  0  0
   -2.7718    2.5975    0.0000 C   0  0  0  0  0  0  0  0  0
   -3.4863    3.0100    0.0000 C   0  0  0  0  0  0  0  0  0
   -3.4863    3.8350    0.0000 C   0  0  0  0  0  0  0  0  0
   -2.7718    1.7725    0.0000 C   0  0  0  0  0  0  0  0  0
   -2.0573    1.3600    0.0000 O   0  0  0  0  0  0  0  0  0
   -3.4863    1.3600    0.0000 N   0  0  0  0  0  0  0  0  0
   -3.4863    0.5350    0.0000 C   0  0  0  0  0  0  0  0  0
   -4.2008    0.1225    0.0000 C   0  0  0  0  0  0  0  0  0
   -4.2008   -0.7025    0.0000 O   0  0  0  0  0  0  0  0  0
   -4.9152    0.5350    0.0000 N   0  0  0  0  0  0  0  0  0
   -4.9152    1.3600    0.0000 C   0  0  0  0  0  0  0  0  0
   -4.2008    1.7725    0.0000 C   0  0  0  0  0  0  0  0  0
   -5.6297    0.1225    0.0000 C   0  0  0  0  0  0  0  0  0
   -5.6297   -0.7025    0.0000 C   0  0  0  0  0  0  0  0  0
   -6.3442   -1.1150    0.0000 C   0  0  0  0  0  0  0  0  0
   -7.0586   -0.7025    0.0000 C   0  0  0  0  0  0  0  0  0
   -7.7731   -1.1150    0.0000 O   0  0  0  0  0  0  0  0  0
   -7.7731   -1.9400    0.0000 C   0  0  0  0  0  0  0  0  0
   -8.4876   -2.3525    0.0000 C   0  0  0  0  0  0  0  0  0
   -8.4876   -3.1775    0.0000 C   0  0  0  0  0  0  0  0  0
   -9.2021   -3.5900    0.0000 N   0  0  0  0  0  0  0  0  0
   -9.2021   -4.4150    0.0000 C   0  0  0  0  0  0  0  0  0
   -9.9165   -4.8275    0.0000 C   0  0  0  0  0  0  0  0  0
  -10.6310   -4.4150    0.0000 C   0  0  0  0  0  0  0  0  0
  -10.6310   -3.5900    0.0000 C   0  0  0  0  0  0  0  0  0
   -9.9165   -3.1775    0.0000 C   0  0  0  0  0  0  0  0  0
   -7.0586    0.1225    0.0000 C   0  0  0  0  0  0  0  0  0
   -6.3442    0.5350    0.0000 C   0  0  0  0  0  0  0  0  0
  1  2  1  0  0  0  0
  2  3  4  0  0  0  0
  2  7  4  0  0  0  0
  3  4  4  0  0  0  0
  4  5  4  0  0  0  0
  5  6  4  0  0  0  0
  5  8  1  0  0  0  0
  6  7  4  0  0  0  0
  8  9  2  0  0  0  0
  8 10  1  0  0  0  0
 10 11  1  0  0  0  0
 10 16  1  0  0  0  0
 11 12  1  0  0  0  0
 12 13  2  0  0  0  0
 12 14  1  0  0  0  0
 14 15  1  0  0  0  0
 14 17  1  0  0  0  0
 15 16  1  0  0  0  0
 17 18  4  0  0  0  0
 17 32  4  0  0  0  0
 18 19  4  0  0  0  0
 19 20  4  0  0  0  0
 20 21  1  0  0  0  0
 20 31  4  0  0  0  0
 21 22  1  0  0  0  0
 22 23  1  0  0  0  0
 23 24  1  0  0  0  0
 24 25  1  0  0  0  0
 25 26  1  0  0  0  0
 25 30  1  0  0  0  0
 26 27  1  0  0  0  0
 27 28  1  0  0  0  0
 28 29  1  0  0  0  0
 29 30  1  0  0  0  0
 31 32  4  0  0  0  0
M  END
>  <Name_Molregno>
405680

>  <Alpha-1A>
5.6

>  <Alpha-1B>
5.6

>  <HISTAMINE H1>
5.7

>  <HISTAMINE H3>
8.75

$$$$
405732
  Marvin  02231216192D 0   1.00000     0.00000     0

 32 35  0  0  1  0  0  0  0  0999 V2000
    2.8519    5.0344    0.0000 F   0  0  0  0  0  0  0  0  0
    3.5663    4.6219    0.0000 C   0  0  0  0  0  0  0  0  0
    4.2808    5.0344    0.0000 C   0  0  0  0  0  0  0  0  0
    4.9953    4.6219    0.0000 C   0  0  0  0  0  0  0  0  0
    4.9953    3.7969    0.0000 C   0  0  0  0  0  0  0  0  0
    4.2808    3.3844    0.0000 C   0  0  0  0  0  0  0  0  0
    3.5663    3.7969    0.0000 C   0  0  0  0  0  0  0  0  0
    5.7098    3.3844    0.0000 C   0  0  0  0  0  0  0  0  0
    6.4242    3.7969    0.0000 O   0  0  0  0  0  0  0  0  0
    5.7098    2.5594    0.0000 N   0  0  0  0  0  0  0  0  0
    6.4242    2.1469    0.0000 C   0  0  0  0  0  0  0  0  0
    6.4242    1.3219    0.0000 C   0  0  0  0  0  0  0  0  0
    7.1387    0.9094    0.0000 O   0  0  0  0  0  0  0  0  0
    5.7098    0.9094    0.0000 N   0  0  0  0  0  0  0  0  0
    4.9953    1.3219    0.0000 C   0  0  0  0  0  0  0  0  0
    4.9953    2.1469    0.0000 C   0  0  0  0  0  0  0  0  0
    5.7098    0.0844    0.0000 C   0  0  0  0  0  0  0  0  0
    6.4242   -0.3281    0.0000 C   0  0  0  0  0  0  0  0  0
    6.4242   -1.1531    0.0000 C   0  0  0  0  0  0  0  0  0
    5.7098   -1.5656    0.0000 C   0  0  0  0  0  0  0  0  0
    5.7098   -2.3906    0.0000 O   0  0  0  0  0  0  0  0  0
    6.4242   -2.8031    0.0000 C   0  0  0  0  0  0  0  0  0
    6.4242   -3.6281    0.0000 C   0  0  0  0  0  0  0  0  0
    7.1387   -4.0406    0.0000 C   0  0  0  0  0  0  0  0  0
    7.1387   -4.8656    0.0000 N   0  0  0  0  0  0  0  0  0
    7.8061   -5.3505    0.0000 C   0  0  0  0  0  0  0  0  0
    7.5512   -6.1351    0.0000 C   0  0  0  0  0  0  0  0  0
    6.7262   -6.1351    0.0000 C   0  0  0  0  0  0  0  0  0
    6.4713   -5.3505    0.0000 C   0  0  0  0  0  0  0  0  0
    5.6866   -5.0956    0.0000 C   0  0  0  0  0  0  0  0  0
    4.9953   -1.1531    0.0000 C   0  0  0  0  0  0  0  0  0
    4.9953   -0.3281    0.0000 C   0  0  0  0  0  0  0  0  0
  1  2  1  0  0  0  0
  2  3  4  0  0  0  0
  2  7  4  0  0  0  0
  3  4  4  0  0  0  0
  4  5  4  0  0  0  0
  5  6  4  0  0  0  0
  5  8  1  0  0  0  0
  6  7  4  0  0  0  0
  8  9  2  0  0  0  0
  8 10  1  0  0  0  0
 10 11  1  0  0  0  0
 10 16  1  0  0  0  0
 11 12  1  0  0  0  0
 12 13  2  0  0  0  0
 12 14  1  0  0  0  0
 14 15  1  0  0  0  0
 14 17  1  0  0  0  0
 15 16  1  0  0  0  0
 17 18  4  0  0  0  0
 17 32  4  0  0  0  0
 18 19  4  0  0  0  0
 19 20  4  0  0  0  0
 20 21  1  0  0  0  0
 20 31  4  0  0  0  0
 21 22  1  0  0  0  0
 22 23  1  0  0  0  0
 23 24  1  0  0  0  0
 24 25  1  0  0  0  0
 25 26  1  0  0  0  0
 25 29  1  0  0  0  0
 26 27  1  0  0  0  0
 27 28  1  0  0  0  0
 28 29  1  0  0  0  0
 29 30  1  0  0  0  0
 31 32  4  0  0  0  0
M  END
>  <Name_Molregno>
405732

>  <Alpha-1A>
5.8

>  <Alpha-1B>
5.8

>  <HISTAMINE H1>
5.7

>  <HISTAMINE H3>
8.85

$$$$
405733
  Marvin  02231216192D 0   1.00000     0.00000     0

 33 36  0  0  1  0  0  0  0  0999 V2000
   -2.3591   -2.5305    0.0000 O   0  0  0  0  0  0  0  0  0
   -1.6446   -2.9430    0.0000 C   0  0  0  0  0  0  0  0  0
   -1.6446   -3.7680    0.0000 C   0  0  0  0  0  0  0  0  0
   -0.9301   -4.1805    0.0000 C   0  0  0  0  0  0  0  0  0
   -0.9301   -5.0055    0.0000 N   0  0  0  0  0  0  0  0  0
   -0.2627   -5.4904    0.0000 C   0  0  0  0  0  0  0  0  0
   -0.5176   -6.2750    0.0000 C   0  0  0  0  0  0  0  0  0
   -1.3426   -6.2750    0.0000 C   0  0  0  0  0  0  0  0  0
   -1.5976   -5.4904    0.0000 C   0  0  0  0  0  0  0  0  0
   -2.3822   -5.2355    0.0000 C   0  0  0  0  0  0  0  0  0
   -2.3591   -1.7055    0.0000 C   0  0  0  0  0  0  0  0  0
   -3.0735   -1.2930    0.0000 C   0  0  0  0  0  0  0  0  0
   -3.0735   -0.4680    0.0000 C   0  0  0  0  0  0  0  0  0
   -2.3591   -0.0555    0.0000 C   0  0  0  0  0  0  0  0  0
   -2.3591    0.7695    0.0000 N   0  0  0  0  0  0  0  0  0
   -3.0735    1.1820    0.0000 C   0  0  0  0  0  0  0  0  0
   -3.0735    2.0070    0.0000 C   0  0  0  0  0  0  0  0  0
   -2.3591    2.4195    0.0000 N   0  0  0  0  0  0  0  0  0
   -1.6446    2.0070    0.0000 C   0  0  0  0  0  0  0  0  0
   -1.6446    1.1820    0.0000 C   0  0  0  0  0  0  0  0  0
   -0.9301    0.7695    0.0000 O   0  0  0  0  0  0  0  0  0
   -2.3591    3.2445    0.0000 C   0  0  0  0  0  0  0  0  0
   -1.6446    3.6570    0.0000 O   0  0  0  0  0  0  0  0  0
   -3.0735    3.6570    0.0000 C   0  0  0  0  0  0  0  0  0
   -3.7880    3.2445    0.0000 C   0  0  0  0  0  0  0  0  0
   -4.5025    3.6570    0.0000 C   0  0  0  0  0  0  0  0  0
   -4.5025    4.4820    0.0000 C   0  0  0  0  0  0  0  0  0
   -3.7880    4.8945    0.0000 C   0  0  0  0  0  0  0  0  0
   -3.0735    4.4820    0.0000 C   0  0  0  0  0  0  0  0  0
   -5.2169    4.8945    0.0000 C   0  0  0  0  0  0  0  0  0
   -5.9314    5.3070    0.0000 N   0  0  0  0  0  0  0  0  0
   -1.6446   -0.4680    0.0000 C   0  0  0  0  0  0  0  0  0
   -1.6446   -1.2930    0.0000 C   0  0  0  0  0  0  0  0  0
  1  2  1  0  0  0  0
  1 11  1  0  0  0  0
  2  3  1  0  0  0  0
  3  4  1  0  0  0  0
  4  5  1  0  0  0  0
  5  6  1  0  0  0  0
  5  9  1  0  0  0  0
  6  7  1  0  0  0  0
  7  8  1  0  0  0  0
  8  9  1  0  0  0  0
  9 10  1  0  0  0  0
 11 12  4  0  0  0  0
 11 33  4  0  0  0  0
 12 13  4  0  0  0  0
 13 14  4  0  0  0  0
 14 15  1  0  0  0  0
 14 32  4  0  0  0  0
 15 16  1  0  0  0  0
 15 20  1  0  0  0  0
 16 17  1  0  0  0  0
 17 18  1  0  0  0  0
 18 19  1  0  0  0  0
 18 22  1  0  0  0  0
 19 20  1  0  0  0  0
 20 21  2  0  0  0  0
 22 23  2  0  0  0  0
 22 24  1  0  0  0  0
 24 25  4  0  0  0  0
 24 29  4  0  0  0  0
 25 26  4  0  0  0  0
 26 27  4  0  0  0  0
 27 28  4  0  0  0  0
 27 30  1  0  0  0  0
 28 29  4  0  0  0  0
 30 31  3  0  0  0  0
 32 33  4  0  0  0  0
M  END
>  <Name_Molregno>
405733

>  <Alpha-1A>
5.7

>  <Alpha-1B>
6.1

>  <HISTAMINE H1>
5.65

>  <HISTAMINE H3>
9.05

$$$$
405735
  Marvin  02231216192D 0   1.00000     0.00000     0

 33 36  0  0  1  0  0  0  0  0999 V2000
    4.2015    7.2978    0.0000 F   0  0  0  0  0  0  0  0  0
    4.2015    6.4728    0.0000 C   0  0  0  0  0  0  0  0  0
    4.9160    6.0603    0.0000 C   0  0  0  0  0  0  0  0  0
    4.9160    5.2353    0.0000 C   0  0  0  0  0  0  0  0  0
    4.2015    4.8228    0.0000 C   0  0  0  0  0  0  0  0  0
    3.4871    5.2353    0.0000 C   0  0  0  0  0  0  0  0  0
    2.7726    4.8228    0.0000 F   0  0  0  0  0  0  0  0  0
    3.4871    6.0603    0.0000 C   0  0  0  0  0  0  0  0  0
    5.6305    4.8228    0.0000 C   0  0  0  0  0  0  0  0  0
    6.3450    5.2353    0.0000 O   0  0  0  0  0  0  0  0  0
    5.6305    3.9978    0.0000 N   0  0  0  0  0  0  0  0  0
    6.3450    3.5853    0.0000 C   0  0  0  0  0  0  0  0  0
    6.3450    2.7603    0.0000 C   0  0  0  0  0  0  0  0  0
    7.0594    2.3478    0.0000 O   0  0  0  0  0  0  0  0  0
    5.6305    2.3478    0.0000 N   0  0  0  0  0  0  0  0  0
    4.9160    2.7603    0.0000 C   0  0  0  0  0  0  0  0  0
    4.9160    3.5853    0.0000 C   0  0  0  0  0  0  0  0  0
    5.6305    1.5228    0.0000 C   0  0  0  0  0  0  0  0  0
    6.3450    1.1103    0.0000 C   0  0  0  0  0  0  0  0  0
    6.3450    0.2853    0.0000 C   0  0  0  0  0  0  0  0  0
    5.6305   -0.1272    0.0000 C   0  0  0  0  0  0  0  0  0
    5.6305   -0.9522    0.0000 O   0  0  0  0  0  0  0  0  0
    6.3450   -1.3647    0.0000 C   0  0  0  0  0  0  0  0  0
    6.3450   -2.1897    0.0000 C   0  0  0  0  0  0  0  0  0
    7.0594   -2.6022    0.0000 C   0  0  0  0  0  0  0  0  0
    7.0594   -3.4272    0.0000 N   0  0  0  0  0  0  0  0  0
    7.7269   -3.9121    0.0000 C   0  0  0  0  0  0  0  0  0
    7.4719   -4.6967    0.0000 C   0  0  0  0  0  0  0  0  0
    6.6469   -4.6967    0.0000 C   0  0  0  0  0  0  0  0  0
    6.3920   -3.9121    0.0000 C   0  0  0  0  0  0  0  0  0
    5.6074   -3.6572    0.0000 C   0  0  0  0  0  0  0  0  0
    4.9160    0.2853    0.0000 C   0  0  0  0  0  0  0  0  0
    4.9160    1.1103    0.0000 C   0  0  0  0  0  0  0  0  0
  1  2  1  0  0  0  0
  2  3  4  0  0  0  0
  2  8  4  0  0  0  0
  3  4  4  0  0  0  0
  4  5  4  0  0  0  0
  4  9  1  0  0  0  0
  5  6  4  0  0  0  0
  6  7  1  0  0  0  0
  6  8  4  0  0  0  0
  9 10  2  0  0  0  0
  9 11  1  0  0  0  0
 11 12  1  0  0  0  0
 11 17  1  0  0  0  0
 12 13  1  0  0  0  0
 13 14  2  0  0  0  0
 13 15  1  0  0  0  0
 15 16  1  0  0  0  0
 15 18  1  0  0  0  0
 16 17  1  0  0  0  0
 18 19  4  0  0  0  0
 18 33  4  0  0  0  0
 19 20  4  0  0  0  0
 20 21  4  0  0  0  0
 21 22  1  0  0  0  0
 21 32  4  0  0  0  0
 22 23  1  0  0  0  0
 23 24  1  0  0  0  0
 24 25  1  0  0  0  0
 25 26  1  0  0  0  0
 26 27  1  0  0  0  0
 26 30  1  0  0  0  0
 27 28  1  0  0  0  0
 28 29  1  0  0  0  0
 29 30  1  0  0  0  0
 30 31  1  0  0  0  0
 32 33  4  0  0  0  0
M  END
>  <Name_Molregno>
405735

>  <Alpha-1A>
5

>  <Alpha-1B>
5.8

>  <HISTAMINE H1>
5.65

>  <HISTAMINE H3>
8.75

$$$$
405736
  Marvin  02231216192D 0   1.00000     0.00000     0

 33 36  0  0  1  0  0  0  0  0999 V2000
    3.3914    2.6255    0.0000 F   0  0  0  0  0  0  0  0  0
    3.3914    3.4505    0.0000 C   0  0  0  0  0  0  0  0  0
    2.6770    3.8630    0.0000 C   0  0  0  0  0  0  0  0  0
    2.6770    4.6880    0.0000 C   0  0  0  0  0  0  0  0  0
    1.9625    5.1005    0.0000 F   0  0  0  0  0  0  0  0  0
    3.3914    5.1005    0.0000 C   0  0  0  0  0  0  0  0  0
    4.1059    4.6880    0.0000 C   0  0  0  0  0  0  0  0  0
    4.1059    3.8630    0.0000 C   0  0  0  0  0  0  0  0  0
    4.8204    3.4505    0.0000 C   0  0  0  0  0  0  0  0  0
    5.5348    3.8630    0.0000 O   0  0  0  0  0  0  0  0  0
    4.8204    2.6255    0.0000 N   0  0  0  0  0  0  0  0  0
    5.5348    2.2130    0.0000 C   0  0  0  0  0  0  0  0  0
    5.5348    1.3880    0.0000 C   0  0  0  0  0  0  0  0  0
    6.2493    0.9755    0.0000 O   0  0  0  0  0  0  0  0  0
    4.8204    0.9755    0.0000 N   0  0  0  0  0  0  0  0  0
    4.1059    1.3880    0.0000 C   0  0  0  0  0  0  0  0  0
    4.1059    2.2130    0.0000 C   0  0  0  0  0  0  0  0  0
    4.8204    0.1505    0.0000 C   0  0  0  0  0  0  0  0  0
    5.5348   -0.2620    0.0000 C   0  0  0  0  0  0  0  0  0
    5.5348   -1.0870    0.0000 C   0  0  0  0  0  0  0  0  0
    4.8204   -1.4995    0.0000 C   0  0  0  0  0  0  0  0  0
    4.8204   -2.3245    0.0000 O   0  0  0  0  0  0  0  0  0
    5.5348   -2.7370    0.0000 C   0  0  0  0  0  0  0  0  0
    5.5348   -3.5620    0.0000 C   0  0  0  0  0  0  0  0  0
    6.2493   -3.9745    0.0000 C   0  0  0  0  0  0  0  0  0
    6.2493   -4.7995    0.0000 N   0  0  0  0  0  0  0  0  0
    6.9168   -5.2844    0.0000 C   0  0  0  0  0  0  0  0  0
    6.6618   -6.0690    0.0000 C   0  0  0  0  0  0  0  0  0
    5.8368   -6.0690    0.0000 C   0  0  0  0  0  0  0  0  0
    5.5819   -5.2844    0.0000 C   0  0  0  0  0  0  0  0  0
    4.7973   -5.0295    0.0000 C   0  0  0  0  0  0  0  0  0
    4.1059   -1.0870    0.0000 C   0  0  0  0  0  0  0  0  0
    4.1059   -0.2620    0.0000 C   0  0  0  0  0  0  0  0  0
  1  2  1  0  0  0  0
  2  3  4  0  0  0  0
  2  8  4  0  0  0  0
  3  4  4  0  0  0  0
  4  5  1  0  0  0  0
  4  6  4  0  0  0  0
  6  7  4  0  0  0  0
  7  8  4  0  0  0  0
  8  9  1  0  0  0  0
  9 10  2  0  0  0  0
  9 11  1  0  0  0  0
 11 12  1  0  0  0  0
 11 17  1  0  0  0  0
 12 13  1  0  0  0  0
 13 14  2  0  0  0  0
 13 15  1  0  0  0  0
 15 16  1  0  0  0  0
 15 18  1  0  0  0  0
 16 17  1  0  0  0  0
 18 19  4  0  0  0  0
 18 33  4  0  0  0  0
 19 20  4  0  0  0  0
 20 21  4  0  0  0  0
 21 22  1  0  0  0  0
 21 32  4  0  0  0  0
 22 23  1  0  0  0  0
 23 24  1  0  0  0  0
 24 25  1  0  0  0  0
 25 26  1  0  0  0  0
 26 27  1  0  0  0  0
 26 30  1  0  0  0  0
 27 28  1  0  0  0  0
 28 29  1  0  0  0  0
 29 30  1  0  0  0  0
 30 31  1  0  0  0  0
 32 33  4  0  0  0  0
M  END
>  <Name_Molregno>
405736

>  <Alpha-1A>
5.7

>  <Alpha-1B>
6.1

>  <HISTAMINE H1>
5.65

>  <HISTAMINE H3>
8.85

$$$$
405758
  Marvin  02231216192D 0   1.00000     0.00000     0

 34 38  0  0  0  0  0  0  0  0999 V2000
   -5.5368   -0.1259    0.0000 O   0  0  0  0  0  0  0  0  0
   -5.5368   -0.9509    0.0000 C   0  0  0  0  0  0  0  0  0
   -4.8223   -1.3634    0.0000 C   0  0  0  0  0  0  0  0  0
   -4.8223   -2.1884    0.0000 C   0  0  0  0  0  0  0  0  0
   -5.5368   -2.6009    0.0000 N   0  0  0  0  0  0  0  0  0
   -6.2513   -2.1884    0.0000 C   0  0  0  0  0  0  0  0  0
   -6.2513   -1.3634    0.0000 C   0  0  0  0  0  0  0  0  0
   -5.5368   -3.4259    0.0000 C   0  0  0  0  0  0  0  0  0
   -4.9534   -4.0092    0.0000 C   0  0  0  0  0  0  0  0  0
   -5.5368   -4.5926    0.0000 C   0  0  0  0  0  0  0  0  0
   -6.1202   -4.0092    0.0000 C   0  0  0  0  0  0  0  0  0
   -4.8223    0.2866    0.0000 C   0  0  0  0  0  0  0  0  0
   -4.8223    1.1116    0.0000 C   0  0  0  0  0  0  0  0  0
   -4.1078    1.5241    0.0000 C   0  0  0  0  0  0  0  0  0
   -3.3934    1.1116    0.0000 C   0  0  0  0  0  0  0  0  0
   -2.6789    1.5241    0.0000 N   0  0  0  0  0  0  0  0  0
   -2.6789    2.3491    0.0000 C   0  0  0  0  0  0  0  0  0
   -1.9644    2.7616    0.0000 C   0  0  0  0  0  0  0  0  0
   -1.2500    2.3491    0.0000 N   0  0  0  0  0  0  0  0  0
   -1.2500    1.5241    0.0000 C   0  0  0  0  0  0  0  0  0
   -1.9644    1.1116    0.0000 C   0  0  0  0  0  0  0  0  0
   -1.9644    0.2866    0.0000 O   0  0  0  0  0  0  0  0  0
   -0.5355    2.7616    0.0000 C   0  0  0  0  0  0  0  0  0
   -0.5355    3.5866    0.0000 O   0  0  0  0  0  0  0  0  0
    0.1790    2.3491    0.0000 C   0  0  0  0  0  0  0  0  0
    0.8934    2.7616    0.0000 C   0  0  0  0  0  0  0  0  0
    1.6079    2.3491    0.0000 C   0  0  0  0  0  0  0  0  0
    1.6079    1.5241    0.0000 C   0  0  0  0  0  0  0  0  0
    0.8934    1.1116    0.0000 C   0  0  0  0  0  0  0  0  0
    0.1790    1.5241    0.0000 C   0  0  0  0  0  0  0  0  0
    2.3224    1.1116    0.0000 C   0  0  0  0  0  0  0  0  0
    3.0369    0.6991    0.0000 N   0  0  0  0  0  0  0  0  0
   -3.3934    0.2866    0.0000 C   0  0  0  0  0  0  0  0  0
   -4.1078   -0.1259    0.0000 C   0  0  0  0  0  0  0  0  0
  1  2  1  0  0  0  0
  1 12  1  0  0  0  0
  2  3  1  0  0  0  0
  2  7  1  0  0  0  0
  3  4  1  0  0  0  0
  4  5  1  0  0  0  0
  5  6  1  0  0  0  0
  5  8  1  0  0  0  0
  6  7  1  0  0  0  0
  8  9  1  0  0  0  0
  8 11  1  0  0  0  0
  9 10  1  0  0  0  0
 10 11  1  0  0  0  0
 12 13  4  0  0  0  0
 12 34  4  0  0  0  0
 13 14  4  0  0  0  0
 14 15  4  0  0  0  0
 15 16  1  0  0  0  0
 15 33  4  0  0  0  0
 16 17  1  0  0  0  0
 16 21  1  0  0  0  0
 17 18  1  0  0  0  0
 18 19  1  0  0  0  0
 19 20  1  0  0  0  0
 19 23  1  0  0  0  0
 20 21  1  0  0  0  0
 21 22  2  0  0  0  0
 23 24  2  0  0  0  0
 23 25  1  0  0  0  0
 25 26  4  0  0  0  0
 25 30  4  0  0  0  0
 26 27  4  0  0  0  0
 27 28  4  0  0  0  0
 28 29  4  0  0  0  0
 28 31  1  0  0  0  0
 29 30  4  0  0  0  0
 31 32  3  0  0  0  0
 33 34  4  0  0  0  0
M  END
>  <Name_Molregno>
405758

>  <Alpha-1A>
5.7

>  <Alpha-1B>
6.1

>  <HISTAMINE H1>
5.6

>  <HISTAMINE H3>
9

$$$$
405761
  Marvin  02231216192D 0   1.00000     0.00000     0

 34 38  0  0  0  0  0  0  0  0999 V2000
    0.4911    3.6546    0.0000 F   0  0  0  0  0  0  0  0  0
    1.2056    3.2421    0.0000 C   0  0  0  0  0  0  0  0  0
    1.9200    3.6546    0.0000 C   0  0  0  0  0  0  0  0  0
    2.6345    3.2421    0.0000 C   0  0  0  0  0  0  0  0  0
    2.6345    2.4171    0.0000 C   0  0  0  0  0  0  0  0  0
    1.9200    2.0046    0.0000 C   0  0  0  0  0  0  0  0  0
    1.9200    1.1796    0.0000 F   0  0  0  0  0  0  0  0  0
    1.2056    2.4171    0.0000 C   0  0  0  0  0  0  0  0  0
    3.3490    3.6546    0.0000 C   0  0  0  0  0  0  0  0  0
    3.3490    4.4796    0.0000 O   0  0  0  0  0  0  0  0  0
    4.0634    3.2421    0.0000 N   0  0  0  0  0  0  0  0  0
    4.7779    3.6546    0.0000 C   0  0  0  0  0  0  0  0  0
    5.4924    3.2421    0.0000 C   0  0  0  0  0  0  0  0  0
    6.2068    3.6546    0.0000 O   0  0  0  0  0  0  0  0  0
    5.4924    2.4171    0.0000 N   0  0  0  0  0  0  0  0  0
    4.7779    2.0046    0.0000 C   0  0  0  0  0  0  0  0  0
    4.0634    2.4171    0.0000 C   0  0  0  0  0  0  0  0  0
    6.2068    2.0046    0.0000 C   0  0  0  0  0  0  0  0  0
    6.9213    2.4171    0.0000 C   0  0  0  0  0  0  0  0  0
    7.6358    2.0046    0.0000 C   0  0  0  0  0  0  0  0  0
    7.6358    1.1796    0.0000 C   0  0  0  0  0  0  0  0  0
    8.3503    0.7671    0.0000 O   0  0  0  0  0  0  0  0  0
    8.3503   -0.0579    0.0000 C   0  0  0  0  0  0  0  0  0
    9.0647   -0.4704    0.0000 C   0  0  0  0  0  0  0  0  0
    9.0647   -1.2954    0.0000 C   0  0  0  0  0  0  0  0  0
    8.3503   -1.7079    0.0000 N   0  0  0  0  0  0  0  0  0
    7.6358   -1.2954    0.0000 C   0  0  0  0  0  0  0  0  0
    7.6358   -0.4704    0.0000 C   0  0  0  0  0  0  0  0  0
    8.3503   -2.5329    0.0000 C   0  0  0  0  0  0  0  0  0
    8.9336   -3.1163    0.0000 C   0  0  0  0  0  0  0  0  0
    8.3503   -3.6996    0.0000 C   0  0  0  0  0  0  0  0  0
    7.7669   -3.1163    0.0000 C   0  0  0  0  0  0  0  0  0
    6.9213    0.7671    0.0000 C   0  0  0  0  0  0  0  0  0
    6.2068    1.1796    0.0000 C   0  0  0  0  0  0  0  0  0
  1  2  1  0  0  0  0
  2  3  4  0  0  0  0
  2  8  4  0  0  0  0
  3  4  4  0  0  0  0
  4  5  4  0  0  0  0
  4  9  1  0  0  0  0
  5  6  4  0  0  0  0
  6  7  1  0  0  0  0
  6  8  4  0  0  0  0
  9 10  2  0  0  0  0
  9 11  1  0  0  0  0
 11 12  1  0  0  0  0
 11 17  1  0  0  0  0
 12 13  1  0  0  0  0
 13 14  2  0  0  0  0
 13 15  1  0  0  0  0
 15 16  1  0  0  0  0
 15 18  1  0  0  0  0
 16 17  1  0  0  0  0
 18 19  4  0  0  0  0
 18 34  4  0  0  0  0
 19 20  4  0  0  0  0
 20 21  4  0  0  0  0
 21 22  1  0  0  0  0
 21 33  4  0  0  0  0
 22 23  1  0  0  0  0
 23 24  1  0  0  0  0
 23 28  1  0  0  0  0
 24 25  1  0  0  0  0
 25 26  1  0  0  0  0
 26 27  1  0  0  0  0
 26 29  1  0  0  0  0
 27 28  1  0  0  0  0
 29 30  1  0  0  0  0
 29 32  1  0  0  0  0
 30 31  1  0  0  0  0
 31 32  1  0  0  0  0
 33 34  4  0  0  0  0
M  END
>  <Name_Molregno>
405761

>  <Alpha-1A>
5.7

>  <Alpha-1B>
6.1

>  <HISTAMINE H1>
5.8

>  <HISTAMINE H3>
9.1

$$$$
405786
  Marvin  02231216192D 0   1.00000     0.00000     0

 16 18  0  0  1  0  0  0  0  0999 V2000
   -4.1976   -1.0327    0.0000 N   0  0  0  0  0  0  0  0  0
   -4.6825   -0.3653    0.0000 N   0  0  0  0  0  0  0  0  0
   -4.1976    0.3022    0.0000 C   0  0  0  0  0  0  0  0  0
   -3.4129    0.0472    0.0000 C   0  0  0  0  0  0  0  0  0
   -2.6985    0.4597    0.0000 C   0  0  0  0  0  0  0  0  0
   -1.9840    0.0472    0.0000 C   0  0  0  0  0  0  0  0  0
   -1.2695    0.4597    0.0000 N   0  0  0  0  0  0  0  0  0
   -0.5551    0.0472    0.0000 C   0  0  0  0  0  0  0  0  0
   -0.5551   -0.7778    0.0000 C   0  0  0  0  0  0  0  0  0
   -1.2695   -1.1903    0.0000 C   0  0  0  0  0  0  0  0  0
   -1.9840   -0.7778    0.0000 C   0  0  0  0  0  0  0  0  0
   -2.6985   -1.1903    0.0000 C   0  0  0  0  0  0  0  0  0
   -3.4129   -0.7778    0.0000 C   0  0  0  0  0  0  0  0  0
   -1.2695    1.2847    0.0000 C   0  0  0  0  0  0  0  0  0
   -0.5551    1.6972    0.0000 C   0  0  0  0  0  0  0  0  0
   -0.5551    2.5222    0.0000 C   0  0  0  0  0  0  0  0  0
  1  2  4  0  0  0  0
  1 13  4  0  0  0  0
  2  3  4  0  0  0  0
  3  4  4  0  0  0  0
  4  5  1  0  0  0  0
  4 13  4  0  0  0  0
  5  6  1  0  0  0  0
  6  7  1  0  0  0  0
  6 11  1  0  0  0  0
  7  8  1  0  0  0  0
  7 14  1  0  0  0  0
  8  9  1  0  0  0  0
  9 10  1  0  0  0  0
 10 11  1  0  0  0  0
 11 12  1  0  0  0  0
 12 13  1  0  0  0  0
 14 15  1  0  0  0  0
 15 16  1  0  0  0  0
M  STY  1   1 DAT
M  SAL   1  1   1
M  SDT   1 MRV_IMPLICIT_H                                        
M  SDD   1     0.0000    0.0000    DR    ALL  0       0  
M  SED   1 IMPL_H1
M  END
>  <Name_Molregno>
405786

>  <5-HT1A>
5.77

>  <5-HT1B>
5

>  <5-HT1D>
5

>  <5-HT2A>
5.24

>  <5-HT2C>
5.24

>  <Alpha-1A>
5

>  <Alpha-1B>
5

>  <Alpha-2A>
5

>  <Alpha-2B>
5.6

>  <Alpha-2C>
5

>  <Beta-1>
5

>  <Beta-2>
5

>  <DOPAMINE D1>
5

>  <DOPAMINE D2>
6.31

>  <DOPAMINE D3>
7.73

>  <DOPAMINE D4>
7.37

>  <DOPAMINE D5>
5

$$$$
437622
  Marvin  02231216192D 0   1.00000     0.00000     0

 29 31  0  0  1  0  0  0  0  0999 V2000
    4.6273    6.8992    0.0000 F   0  0  0  0  0  0  0  0  0
    4.6273    6.0742    0.0000 C   0  0  0  0  0  0  0  0  0
    5.3417    5.6617    0.0000 C   0  0  0  0  0  0  0  0  0
    5.3417    4.8367    0.0000 C   0  0  0  0  0  0  0  0  0
    4.6273    4.4242    0.0000 C   0  0  0  0  0  0  0  0  0
    3.9128    4.8367    0.0000 C   0  0  0  0  0  0  0  0  0
    3.9128    5.6617    0.0000 C   0  0  0  0  0  0  0  0  0
    4.6273    3.5992    0.0000 C   0  0  0  0  0  0  0  0  0
    5.3417    3.1867    0.0000 C   0  0  0  0  0  0  0  0  0
    5.3417    2.3617    0.0000 N   0  0  0  0  0  0  0  0  0
    6.0562    1.9492    0.0000 C   0  0  0  0  0  0  0  0  0
    6.0562    1.1242    0.0000 C   0  0  0  0  0  0  0  0  0
    5.3417    0.7117    0.0000 C   0  0  0  0  0  0  0  0  0
    4.6273    1.1242    0.0000 C   0  0  0  0  0  0  0  0  0
    4.6273    1.9492    0.0000 C   0  0  0  0  0  0  0  0  0
    5.3417   -0.1133    0.0000 C   0  0  0  0  0  0  0  0  0
    4.6273   -0.5258    0.0000 O   0  0  0  0  0  0  0  0  0
    6.0562   -0.5258    0.0000 C   0  0  0  0  0  0  0  0  0
    6.7707   -0.1133    0.0000 C   0  0  0  0  0  0  0  0  0
    7.4851   -0.5258    0.0000 C   0  0  0  0  0  0  0  0  0
    7.4851   -1.3508    0.0000 C   0  0  0  0  0  0  0  0  0
    6.7707   -1.7633    0.0000 C   0  0  0  0  0  0  0  0  0
    6.7707   -2.5883    0.0000 O   0  0  0  0  0  0  0  0  0
    7.4851   -3.0008    0.0000 C   0  0  0  0  0  0  0  0  0
    7.4851   -3.8258    0.0000 C   0  0  0  0  0  0  0  0  0
    8.1996   -4.2383    0.0000 F   0  0  0  0  0  0  0  0  0
    6.0562   -1.3508    0.0000 C   0  0  0  0  0  0  0  0  0
    5.3417   -1.7633    0.0000 O   0  0  0  0  0  0  0  0  0
    5.3417   -2.5883    0.0000 C   0  0  0  0  0  0  0  0  0
  1  2  1  0  0  0  0
  2  3  4  0  0  0  0
  2  7  4  0  0  0  0
  3  4  4  0  0  0  0
  4  5  4  0  0  0  0
  5  6  4  0  0  0  0
  5  8  1  0  0  0  0
  6  7  4  0  0  0  0
  8  9  1  0  0  0  0
  9 10  1  0  0  0  0
 10 11  1  0  0  0  0
 10 15  1  0  0  0  0
 11 12  1  0  0  0  0
 12 13  1  0  0  0  0
 13 14  1  0  0  0  0
 13 16  1  0  0  0  0
 14 15  1  0  0  0  0
 16 17  1  0  0  0  0
 16 18  1  0  0  0  0
 18 19  4  0  0  0  0
 18 27  4  0  0  0  0
 19 20  4  0  0  0  0
 20 21  4  0  0  0  0
 21 22  4  0  0  0  0
 22 23  1  0  0  0  0
 22 27  4  0  0  0  0
 23 24  1  0  0  0  0
 24 25  1  0  0  0  0
 25 26  1  0  0  0  0
 27 28  1  0  0  0  0
 28 29  1  0  0  0  0
M  END
>  <Name_Molregno>
437622

>  <5-HT1A>
5

>  <5-HT1B>
5.89

>  <5-HT1D>
6.06

>  <5-HT1E>
5

>  <5-HT2C>
7.22

>  <5-HT3>
5

>  <5-HT5>
5.09

>  <5-HT6>
5.41

>  <5-HT7>
7.09

>  <Alpha-1A>
6.47

>  <Alpha-1B>
6.4

>  <Alpha-2A>
5

>  <Alpha-2C>
6.83

>  <DOPAMINE D1>
5.74

>  <DOPAMINE D2>
5.29

>  <DOPAMINE D4>
6.31

>  <DOPAMINE D5>
5.13

>  <Dopamine transporter>
5

>  <HISTAMINE H1>
6.36

>  <HISTAMINE H2>
5.56

>  <HISTAMINE H3>
5

>  <Serotonin transporter>
5.55

$$$$
437694
  Marvin  02231216192D 0   1.00000     0.00000     0

 35 38  0  0  0  0  0  0  0  0999 V2000
   -1.8368   -2.4905    0.0000 Cl  0  0  0  0  0  0  0  0  0
   -1.8368   -3.3155    0.0000 C   0  0  0  0  0  0  0  0  0
   -1.1223   -3.7280    0.0000 C   0  0  0  0  0  0  0  0  0
   -1.1223   -4.5530    0.0000 C   0  0  0  0  0  0  0  0  0
   -0.4078   -4.9655    0.0000 Cl  0  0  0  0  0  0  0  0  0
   -1.8368   -4.9655    0.0000 C   0  0  0  0  0  0  0  0  0
   -2.5512   -4.5530    0.0000 C   0  0  0  0  0  0  0  0  0
   -3.2657   -4.9655    0.0000 Cl  0  0  0  0  0  0  0  0  0
   -2.5512   -3.7280    0.0000 C   0  0  0  0  0  0  0  0  0
   -3.2657   -3.3155    0.0000 N   0  0  0  0  0  0  0  0  0
   -3.2657   -2.4905    0.0000 C   0  0  0  0  0  0  0  0  0
   -2.5512   -2.0780    0.0000 O   0  0  0  0  0  0  0  0  0
   -3.9802   -2.0780    0.0000 N   0  0  0  0  0  0  0  0  0
   -3.9802   -1.2530    0.0000 C   0  0  0  0  0  0  0  0  0
   -4.6947   -0.8405    0.0000 C   0  0  0  0  0  0  0  0  0
   -4.6947   -0.0155    0.0000 C   0  0  0  0  0  0  0  0  0
   -3.9802    0.3970    0.0000 C   0  0  0  0  0  0  0  0  0
   -3.9802    1.2220    0.0000 N   0  0  0  0  0  0  0  0  0
   -4.6947    1.6345    0.0000 C   0  0  0  0  0  0  0  0  0
   -4.6947    2.4595    0.0000 C   0  0  0  0  0  0  0  0  0
   -3.9802    2.8720    0.0000 N   0  0  0  0  0  0  0  0  0
   -3.2657    2.4595    0.0000 C   0  0  0  0  0  0  0  0  0
   -3.2657    1.6345    0.0000 C   0  0  0  0  0  0  0  0  0
   -3.9802    3.6970    0.0000 C   0  0  0  0  0  0  0  0  0
   -4.6947    4.1095    0.0000 C   0  0  0  0  0  0  0  0  0
   -4.6947    4.9345    0.0000 C   0  0  0  0  0  0  0  0  0
   -3.9802    5.3470    0.0000 C   0  0  0  0  0  0  0  0  0
   -3.2657    4.9345    0.0000 C   0  0  0  0  0  0  0  0  0
   -3.2657    4.1095    0.0000 C   0  0  0  0  0  0  0  0  0
   -2.5512    3.6970    0.0000 O   0  0  0  0  0  0  0  0  0
   -1.8368    4.1095    0.0000 C   0  0  0  0  0  0  0  0  0
   -1.1223    3.6970    0.0000 C   0  0  0  0  0  0  0  0  0
   -1.8368    4.9345    0.0000 C   0  0  0  0  0  0  0  0  0
   -3.2657   -0.0155    0.0000 C   0  0  0  0  0  0  0  0  0
   -3.2657   -0.8405    0.0000 C   0  0  0  0  0  0  0  0  0
  1  2  1  0  0  0  0
  2  3  4  0  0  0  0
  2  9  4  0  0  0  0
  3  4  4  0  0  0  0
  4  5  1  0  0  0  0
  4  6  4  0  0  0  0
  6  7  4  0  0  0  0
  7  8  1  0  0  0  0
  7  9  4  0  0  0  0
  9 10  1  0  0  0  0
 10 11  1  0  0  0  0
 11 12  2  0  0  0  0
 11 13  1  0  0  0  0
 13 14  1  0  0  0  0
 14 15  1  0  0  0  0
 14 35  1  0  0  0  0
 15 16  1  0  0  0  0
 16 17  1  0  0  0  0
 17 18  1  0  0  0  0
 17 34  1  0  0  0  0
 18 19  1  0  0  0  0
 18 23  1  0  0  0  0
 19 20  1  0  0  0  0
 20 21  1  0  0  0  0
 21 22  1  0  0  0  0
 21 24  1  0  0  0  0
 22 23  1  0  0  0  0
 24 25  4  0  0  0  0
 24 29  4  0  0  0  0
 25 26  4  0  0  0  0
 26 27  4  0  0  0  0
 27 28  4  0  0  0  0
 28 29  4  0  0  0  0
 29 30  1  0  0  0  0
 30 31  1  0  0  0  0
 31 32  1  0  0  0  0
 31 33  1  0  0  0  0
 34 35  1  0  0  0  0
M  END
>  <Name_Molregno>
437694

>  <Alpha-1A>
7.74

>  <Alpha-1B>
6.64

>  <DOPAMINE D2>
7.59

$$$$
437695
  Marvin  02231216192D 0   1.00000     0.00000     0

 34 37  0  0  0  0  0  0  0  0999 V2000
    1.4664    4.4501    0.0000 F   0  0  0  0  0  0  0  0  0
    1.4664    3.6251    0.0000 C   0  0  0  0  0  0  0  0  0
    2.1809    3.2126    0.0000 C   0  0  0  0  0  0  0  0  0
    2.1809    2.3876    0.0000 C   0  0  0  0  0  0  0  0  0
    1.4664    1.9751    0.0000 C   0  0  0  0  0  0  0  0  0
    0.7519    2.3876    0.0000 C   0  0  0  0  0  0  0  0  0
    0.7519    3.2126    0.0000 C   0  0  0  0  0  0  0  0  0
    2.8954    1.9751    0.0000 C   0  0  0  0  0  0  0  0  0
    3.6098    2.3876    0.0000 N   0  0  0  0  0  0  0  0  0
    4.3243    1.9751    0.0000 C   0  0  0  0  0  0  0  0  0
    4.3243    1.1501    0.0000 O   0  0  0  0  0  0  0  0  0
    5.0388    2.3876    0.0000 N   0  0  0  0  0  0  0  0  0
    5.7532    1.9751    0.0000 C   0  0  0  0  0  0  0  0  0
    6.4677    2.3876    0.0000 C   0  0  0  0  0  0  0  0  0
    7.1822    1.9751    0.0000 C   0  0  0  0  0  0  0  0  0
    7.1822    1.1501    0.0000 C   0  0  0  0  0  0  0  0  0
    7.8967    0.7376    0.0000 N   0  0  0  0  0  0  0  0  0
    8.6111    1.1501    0.0000 C   0  0  0  0  0  0  0  0  0
    9.3256    0.7376    0.0000 C   0  0  0  0  0  0  0  0  0
    9.3256   -0.0874    0.0000 N   0  0  0  0  0  0  0  0  0
    8.6111   -0.4999    0.0000 C   0  0  0  0  0  0  0  0  0
    7.8967   -0.0874    0.0000 C   0  0  0  0  0  0  0  0  0
   10.0401   -0.4999    0.0000 C   0  0  0  0  0  0  0  0  0
   10.7545   -0.0874    0.0000 C   0  0  0  0  0  0  0  0  0
   11.4690   -0.4999    0.0000 C   0  0  0  0  0  0  0  0  0
   11.4690   -1.3249    0.0000 C   0  0  0  0  0  0  0  0  0
   10.7545   -1.7374    0.0000 C   0  0  0  0  0  0  0  0  0
   10.0401   -1.3249    0.0000 C   0  0  0  0  0  0  0  0  0
    9.3256   -1.7374    0.0000 O   0  0  0  0  0  0  0  0  0
    9.3256   -2.5624    0.0000 C   0  0  0  0  0  0  0  0  0
    8.6111   -2.9749    0.0000 C   0  0  0  0  0  0  0  0  0
   10.0401   -2.9749    0.0000 C   0  0  0  0  0  0  0  0  0
    6.4677    0.7376    0.0000 C   0  0  0  0  0  0  0  0  0
    5.7532    1.1501    0.0000 C   0  0  0  0  0  0  0  0  0
  1  2  1  0  0  0  0
  2  3  4  0  0  0  0
  2  7  4  0  0  0  0
  3  4  4  0  0  0  0
  4  5  4  0  0  0  0
  4  8  1  0  0  0  0
  5  6  4  0  0  0  0
  6  7  4  0  0  0  0
  8  9  1  0  0  0  0
  9 10  1  0  0  0  0
 10 11  2  0  0  0  0
 10 12  1  0  0  0  0
 12 13  1  0  0  0  0
 13 14  1  0  0  0  0
 13 34  1  0  0  0  0
 14 15  1  0  0  0  0
 15 16  1  0  0  0  0
 16 17  1  0  0  0  0
 16 33  1  0  0  0  0
 17 18  1  0  0  0  0
 17 22  1  0  0  0  0
 18 19  1  0  0  0  0
 19 20  1  0  0  0  0
 20 21  1  0  0  0  0
 20 23  1  0  0  0  0
 21 22  1  0  0  0  0
 23 24  4  0  0  0  0
 23 28  4  0  0  0  0
 24 25  4  0  0  0  0
 25 26  4  0  0  0  0
 26 27  4  0  0  0  0
 27 28  4  0  0  0  0
 28 29  1  0  0  0  0
 29 30  1  0  0  0  0
 30 31  1  0  0  0  0
 30 32  1  0  0  0  0
 33 34  1  0  0  0  0
M  END
>  <Name_Molregno>
437695

>  <Alpha-1A>
7.53

>  <Alpha-1B>
6.65

>  <DOPAMINE D2>
6.83

$$$$
437734
  Marvin  02231216192D 0   1.00000     0.00000     0

 34 37  0  0  0  0  0  0  0  0999 V2000
   -1.9297   -2.6212    0.0000 Cl  0  0  0  0  0  0  0  0  0
   -1.9297   -3.4462    0.0000 C   0  0  0  0  0  0  0  0  0
   -1.2152   -3.8587    0.0000 C   0  0  0  0  0  0  0  0  0
   -1.2152   -4.6837    0.0000 C   0  0  0  0  0  0  0  0  0
   -1.9297   -5.0962    0.0000 C   0  0  0  0  0  0  0  0  0
   -2.6441   -4.6837    0.0000 C   0  0  0  0  0  0  0  0  0
   -3.3586   -5.0962    0.0000 Cl  0  0  0  0  0  0  0  0  0
   -2.6441   -3.8587    0.0000 C   0  0  0  0  0  0  0  0  0
   -3.3586   -3.4462    0.0000 N   0  0  0  0  0  0  0  0  0
   -3.3586   -2.6212    0.0000 C   0  0  0  0  0  0  0  0  0
   -2.6441   -2.2087    0.0000 O   0  0  0  0  0  0  0  0  0
   -4.0731   -2.2087    0.0000 N   0  0  0  0  0  0  0  0  0
   -4.0731   -1.3837    0.0000 C   0  0  0  0  0  0  0  0  0
   -4.7875   -0.9712    0.0000 C   0  0  0  0  0  0  0  0  0
   -4.7875   -0.1462    0.0000 C   0  0  0  0  0  0  0  0  0
   -4.0731    0.2663    0.0000 C   0  0  0  0  0  0  0  0  0
   -4.0731    1.0913    0.0000 N   0  0  0  0  0  0  0  0  0
   -4.7875    1.5038    0.0000 C   0  0  0  0  0  0  0  0  0
   -4.7875    2.3288    0.0000 C   0  0  0  0  0  0  0  0  0
   -4.0731    2.7413    0.0000 N   0  0  0  0  0  0  0  0  0
   -3.3586    2.3288    0.0000 C   0  0  0  0  0  0  0  0  0
   -3.3586    1.5038    0.0000 C   0  0  0  0  0  0  0  0  0
   -4.0731    3.5663    0.0000 C   0  0  0  0  0  0  0  0  0
   -4.7875    3.9788    0.0000 C   0  0  0  0  0  0  0  0  0
   -4.7875    4.8038    0.0000 C   0  0  0  0  0  0  0  0  0
   -4.0731    5.2163    0.0000 C   0  0  0  0  0  0  0  0  0
   -3.3586    4.8038    0.0000 C   0  0  0  0  0  0  0  0  0
   -3.3586    3.9788    0.0000 C   0  0  0  0  0  0  0  0  0
   -2.6441    3.5663    0.0000 O   0  0  0  0  0  0  0  0  0
   -1.9297    3.9788    0.0000 C   0  0  0  0  0  0  0  0  0
   -1.2152    3.5663    0.0000 C   0  0  0  0  0  0  0  0  0
   -1.9297    4.8038    0.0000 C   0  0  0  0  0  0  0  0  0
   -3.3586   -0.1462    0.0000 C   0  0  0  0  0  0  0  0  0
   -3.3586   -0.9712    0.0000 C   0  0  0  0  0  0  0  0  0
  1  2  1  0  0  0  0
  2  3  4  0  0  0  0
  2  8  4  0  0  0  0
  3  4  4  0  0  0  0
  4  5  4  0  0  0  0
  5  6  4  0  0  0  0
  6  7  1  0  0  0  0
  6  8  4  0  0  0  0
  8  9  1  0  0  0  0
  9 10  1  0  0  0  0
 10 11  2  0  0  0  0
 10 12  1  0  0  0  0
 12 13  1  0  0  0  0
 13 14  1  0  0  0  0
 13 34  1  0  0  0  0
 14 15  1  0  0  0  0
 15 16  1  0  0  0  0
 16 17  1  0  0  0  0
 16 33  1  0  0  0  0
 17 18  1  0  0  0  0
 17 22  1  0  0  0  0
 18 19  1  0  0  0  0
 19 20  1  0  0  0  0
 20 21  1  0  0  0  0
 20 23  1  0  0  0  0
 21 22  1  0  0  0  0
 23 24  4  0  0  0  0
 23 28  4  0  0  0  0
 24 25  4  0  0  0  0
 25 26  4  0  0  0  0
 26 27  4  0  0  0  0
 27 28  4  0  0  0  0
 28 29  1  0  0  0  0
 29 30  1  0  0  0  0
 30 31  1  0  0  0  0
 30 32  1  0  0  0  0
 33 34  1  0  0  0  0
M  END
>  <Name_Molregno>
437734

>  <Alpha-1A>
7.85

>  <Alpha-1B>
6.92

>  <DOPAMINE D2>
7.8

$$$$
437736
  Marvin  02231216192D 0   1.00000     0.00000     0

 34 37  0  0  0  0  0  0  0  0999 V2000
    1.7019    1.5170    0.0000 F   0  0  0  0  0  0  0  0  0
    1.7019    0.6920    0.0000 C   0  0  0  0  0  0  0  0  0
    2.4164    0.2795    0.0000 C   0  0  0  0  0  0  0  0  0
    2.4164   -0.5455    0.0000 C   0  0  0  0  0  0  0  0  0
    3.1308   -0.9580    0.0000 N   0  0  0  0  0  0  0  0  0
    3.8453   -0.5455    0.0000 C   0  0  0  0  0  0  0  0  0
    4.5598   -0.9580    0.0000 O   0  0  0  0  0  0  0  0  0
    3.8453    0.2795    0.0000 N   0  0  0  0  0  0  0  0  0
    4.5598    0.6920    0.0000 C   0  0  0  0  0  0  0  0  0
    4.5598    1.5170    0.0000 C   0  0  0  0  0  0  0  0  0
    5.2742    1.9295    0.0000 C   0  0  0  0  0  0  0  0  0
    5.9887    1.5170    0.0000 C   0  0  0  0  0  0  0  0  0
    6.7032    1.9295    0.0000 N   0  0  0  0  0  0  0  0  0
    6.7032    2.7545    0.0000 C   0  0  0  0  0  0  0  0  0
    7.4177    3.1670    0.0000 C   0  0  0  0  0  0  0  0  0
    8.1321    2.7545    0.0000 N   0  0  0  0  0  0  0  0  0
    8.1321    1.9295    0.0000 C   0  0  0  0  0  0  0  0  0
    7.4177    1.5170    0.0000 C   0  0  0  0  0  0  0  0  0
    8.8466    3.1670    0.0000 C   0  0  0  0  0  0  0  0  0
    8.8466    3.9920    0.0000 C   0  0  0  0  0  0  0  0  0
    9.5611    4.4045    0.0000 C   0  0  0  0  0  0  0  0  0
   10.2755    3.9920    0.0000 C   0  0  0  0  0  0  0  0  0
   10.2755    3.1670    0.0000 C   0  0  0  0  0  0  0  0  0
    9.5611    2.7545    0.0000 C   0  0  0  0  0  0  0  0  0
    9.5611    1.9295    0.0000 O   0  0  0  0  0  0  0  0  0
   10.2755    1.5170    0.0000 C   0  0  0  0  0  0  0  0  0
   10.2755    0.6920    0.0000 C   0  0  0  0  0  0  0  0  0
   10.9900    1.9295    0.0000 C   0  0  0  0  0  0  0  0  0
    5.9887    0.6920    0.0000 C   0  0  0  0  0  0  0  0  0
    5.2742    0.2795    0.0000 C   0  0  0  0  0  0  0  0  0
    1.7019   -0.9580    0.0000 C   0  0  0  0  0  0  0  0  0
    0.9874   -0.5455    0.0000 C   0  0  0  0  0  0  0  0  0
    0.9874    0.2795    0.0000 C   0  0  0  0  0  0  0  0  0
    0.2729    0.6920    0.0000 F   0  0  0  0  0  0  0  0  0
  1  2  1  0  0  0  0
  2  3  4  0  0  0  0
  2 33  4  0  0  0  0
  3  4  4  0  0  0  0
  4  5  1  0  0  0  0
  4 31  4  0  0  0  0
  5  6  1  0  0  0  0
  6  7  2  0  0  0  0
  6  8  1  0  0  0  0
  8  9  1  0  0  0  0
  9 10  1  0  0  0  0
  9 30  1  0  0  0  0
 10 11  1  0  0  0  0
 11 12  1  0  0  0  0
 12 13  1  0  0  0  0
 12 29  1  0  0  0  0
 13 14  1  0  0  0  0
 13 18  1  0  0  0  0
 14 15  1  0  0  0  0
 15 16  1  0  0  0  0
 16 17  1  0  0  0  0
 16 19  1  0  0  0  0
 17 18  1  0  0  0  0
 19 20  4  0  0  0  0
 19 24  4  0  0  0  0
 20 21  4  0  0  0  0
 21 22  4  0  0  0  0
 22 23  4  0  0  0  0
 23 24  4  0  0  0  0
 24 25  1  0  0  0  0
 25 26  1  0  0  0  0
 26 27  1  0  0  0  0
 26 28  1  0  0  0  0
 29 30  1  0  0  0  0
 31 32  4  0  0  0  0
 32 33  4  0  0  0  0
 33 34  1  0  0  0  0
M  END
>  <Name_Molregno>
437736

>  <Alpha-1A>
7.86

>  <Alpha-1B>
6.62

>  <DOPAMINE D2>
7.09

$$$$
437778
  Marvin  02231216192D 0   1.00000     0.00000     0

 34 37  0  0  0  0  0  0  0  0999 V2000
   -1.9297   -2.6212    0.0000 F   0  0  0  0  0  0  0  0  0
   -1.9297   -3.4462    0.0000 C   0  0  0  0  0  0  0  0  0
   -1.2152   -3.8587    0.0000 C   0  0  0  0  0  0  0  0  0
   -1.2152   -4.6837    0.0000 C   0  0  0  0  0  0  0  0  0
   -1.9297   -5.0962    0.0000 C   0  0  0  0  0  0  0  0  0
   -2.6441   -4.6837    0.0000 C   0  0  0  0  0  0  0  0  0
   -3.3586   -5.0962    0.0000 F   0  0  0  0  0  0  0  0  0
   -2.6441   -3.8587    0.0000 C   0  0  0  0  0  0  0  0  0
   -3.3586   -3.4462    0.0000 N   0  0  0  0  0  0  0  0  0
   -3.3586   -2.6212    0.0000 C   0  0  0  0  0  0  0  0  0
   -2.6441   -2.2087    0.0000 O   0  0  0  0  0  0  0  0  0
   -4.0731   -2.2087    0.0000 N   0  0  0  0  0  0  0  0  0
   -4.0731   -1.3837    0.0000 C   0  0  0  0  0  0  0  0  0
   -4.7875   -0.9712    0.0000 C   0  0  0  0  0  0  0  0  0
   -4.7875   -0.1462    0.0000 C   0  0  0  0  0  0  0  0  0
   -4.0731    0.2663    0.0000 C   0  0  0  0  0  0  0  0  0
   -4.0731    1.0913    0.0000 N   0  0  0  0  0  0  0  0  0
   -4.7875    1.5038    0.0000 C   0  0  0  0  0  0  0  0  0
   -4.7875    2.3288    0.0000 C   0  0  0  0  0  0  0  0  0
   -4.0731    2.7413    0.0000 N   0  0  0  0  0  0  0  0  0
   -3.3586    2.3288    0.0000 C   0  0  0  0  0  0  0  0  0
   -3.3586    1.5038    0.0000 C   0  0  0  0  0  0  0  0  0
   -4.0731    3.5663    0.0000 C   0  0  0  0  0  0  0  0  0
   -4.7875    3.9788    0.0000 C   0  0  0  0  0  0  0  0  0
   -4.7875    4.8038    0.0000 C   0  0  0  0  0  0  0  0  0
   -4.0731    5.2163    0.0000 C   0  0  0  0  0  0  0  0  0
   -3.3586    4.8038    0.0000 C   0  0  0  0  0  0  0  0  0
   -3.3586    3.9788    0.0000 C   0  0  0  0  0  0  0  0  0
   -2.6441    3.5663    0.0000 O   0  0  0  0  0  0  0  0  0
   -1.9297    3.9788    0.0000 C   0  0  0  0  0  0  0  0  0
   -1.2152    3.5663    0.0000 C   0  0  0  0  0  0  0  0  0
   -1.9297    4.8038    0.0000 C   0  0  0  0  0  0  0  0  0
   -3.3586   -0.1462    0.0000 C   0  0  0  0  0  0  0  0  0
   -3.3586   -0.9712    0.0000 C   0  0  0  0  0  0  0  0  0
  1  2  1  0  0  0  0
  2  3  4  0  0  0  0
  2  8  4  0  0  0  0
  3  4  4  0  0  0  0
  4  5  4  0  0  0  0
  5  6  4  0  0  0  0
  6  7  1  0  0  0  0
  6  8  4  0  0  0  0
  8  9  1  0  0  0  0
  9 10  1  0  0  0  0
 10 11  2  0  0  0  0
 10 12  1  0  0  0  0
 12 13  1  0  0  0  0
 13 14  1  0  0  0  0
 13 34  1  0  0  0  0
 14 15  1  0  0  0  0
 15 16  1  0  0  0  0
 16 17  1  0  0  0  0
 16 33  1  0  0  0  0
 17 18  1  0  0  0  0
 17 22  1  0  0  0  0
 18 19  1  0  0  0  0
 19 20  1  0  0  0  0
 20 21  1  0  0  0  0
 20 23  1  0  0  0  0
 21 22  1  0  0  0  0
 23 24  4  0  0  0  0
 23 28  4  0  0  0  0
 24 25  4  0  0  0  0
 25 26  4  0  0  0  0
 26 27  4  0  0  0  0
 27 28  4  0  0  0  0
 28 29  1  0  0  0  0
 29 30  1  0  0  0  0
 30 31  1  0  0  0  0
 30 32  1  0  0  0  0
 33 34  1  0  0  0  0
M  END
>  <Name_Molregno>
437778

>  <Alpha-1A>
7.78

>  <Alpha-1B>
6.98

>  <DOPAMINE D2>
8.14

$$$$
437819
  Marvin  02231216192D 0   1.00000     0.00000     0

 34 37  0  0  0  0  0  0  0  0999 V2000
   -3.8246   -2.4053    0.0000 F   0  0  0  0  0  0  0  0  0
   -3.8246   -3.2303    0.0000 C   0  0  0  0  0  0  0  0  0
   -3.1101   -3.6428    0.0000 C   0  0  0  0  0  0  0  0  0
   -3.1101   -4.4678    0.0000 C   0  0  0  0  0  0  0  0  0
   -3.8246   -4.8803    0.0000 C   0  0  0  0  0  0  0  0  0
   -3.8246   -5.7053    0.0000 F   0  0  0  0  0  0  0  0  0
   -4.5390   -4.4678    0.0000 C   0  0  0  0  0  0  0  0  0
   -4.5390   -3.6428    0.0000 C   0  0  0  0  0  0  0  0  0
   -5.2535   -3.2303    0.0000 N   0  0  0  0  0  0  0  0  0
   -5.2535   -2.4053    0.0000 C   0  0  0  0  0  0  0  0  0
   -4.5390   -1.9928    0.0000 O   0  0  0  0  0  0  0  0  0
   -5.9680   -1.9928    0.0000 N   0  0  0  0  0  0  0  0  0
   -5.9680   -1.1678    0.0000 C   0  0  0  0  0  0  0  0  0
   -6.6825   -0.7553    0.0000 C   0  0  0  0  0  0  0  0  0
   -6.6825    0.0697    0.0000 C   0  0  0  0  0  0  0  0  0
   -5.9680    0.4822    0.0000 C   0  0  0  0  0  0  0  0  0
   -5.9680    1.3072    0.0000 N   0  0  0  0  0  0  0  0  0
   -6.6825    1.7197    0.0000 C   0  0  0  0  0  0  0  0  0
   -6.6825    2.5447    0.0000 C   0  0  0  0  0  0  0  0  0
   -5.9680    2.9572    0.0000 N   0  0  0  0  0  0  0  0  0
   -5.2535    2.5447    0.0000 C   0  0  0  0  0  0  0  0  0
   -5.2535    1.7197    0.0000 C   0  0  0  0  0  0  0  0  0
   -5.9680    3.7822    0.0000 C   0  0  0  0  0  0  0  0  0
   -6.6825    4.1947    0.0000 C   0  0  0  0  0  0  0  0  0
   -6.6825    5.0197    0.0000 C   0  0  0  0  0  0  0  0  0
   -5.9680    5.4322    0.0000 C   0  0  0  0  0  0  0  0  0
   -5.2535    5.0197    0.0000 C   0  0  0  0  0  0  0  0  0
   -5.2535    4.1947    0.0000 C   0  0  0  0  0  0  0  0  0
   -4.5390    3.7822    0.0000 O   0  0  0  0  0  0  0  0  0
   -3.8246    4.1947    0.0000 C   0  0  0  0  0  0  0  0  0
   -3.1101    3.7822    0.0000 C   0  0  0  0  0  0  0  0  0
   -3.8246    5.0197    0.0000 C   0  0  0  0  0  0  0  0  0
   -5.2535    0.0697    0.0000 C   0  0  0  0  0  0  0  0  0
   -5.2535   -0.7553    0.0000 C   0  0  0  0  0  0  0  0  0
  1  2  1  0  0  0  0
  2  3  4  0  0  0  0
  2  8  4  0  0  0  0
  3  4  4  0  0  0  0
  4  5  4  0  0  0  0
  5  6  1  0  0  0  0
  5  7  4  0  0  0  0
  7  8  4  0  0  0  0
  8  9  1  0  0  0  0
  9 10  1  0  0  0  0
 10 11  2  0  0  0  0
 10 12  1  0  0  0  0
 12 13  1  0  0  0  0
 13 14  1  0  0  0  0
 13 34  1  0  0  0  0
 14 15  1  0  0  0  0
 15 16  1  0  0  0  0
 16 17  1  0  0  0  0
 16 33  1  0  0  0  0
 17 18  1  0  0  0  0
 17 22  1  0  0  0  0
 18 19  1  0  0  0  0
 19 20  1  0  0  0  0
 20 21  1  0  0  0  0
 20 23  1  0  0  0  0
 21 22  1  0  0  0  0
 23 24  4  0  0  0  0
 23 28  4  0  0  0  0
 24 25  4  0  0  0  0
 25 26  4  0  0  0  0
 26 27  4  0  0  0  0
 27 28  4  0  0  0  0
 28 29  1  0  0  0  0
 29 30  1  0  0  0  0
 30 31  1  0  0  0  0
 30 32  1  0  0  0  0
 33 34  1  0  0  0  0
M  END
>  <Name_Molregno>
437819

>  <Alpha-1A>
8.18

>  <Alpha-1B>
7.02

>  <DOPAMINE D2>
8.02

$$$$
437820
  Marvin  02231216192D 0   1.00000     0.00000     0

 34 37  0  0  0  0  0  0  0  0999 V2000
   -3.8194   -2.4309    0.0000 F   0  0  0  0  0  0  0  0  0
   -3.8194   -3.2559    0.0000 C   0  0  0  0  0  0  0  0  0
   -3.1050   -3.6684    0.0000 C   0  0  0  0  0  0  0  0  0
   -3.1050   -4.4934    0.0000 C   0  0  0  0  0  0  0  0  0
   -2.3905   -4.9059    0.0000 F   0  0  0  0  0  0  0  0  0
   -3.8194   -4.9059    0.0000 C   0  0  0  0  0  0  0  0  0
   -4.5339   -4.4934    0.0000 C   0  0  0  0  0  0  0  0  0
   -4.5339   -3.6684    0.0000 C   0  0  0  0  0  0  0  0  0
   -5.2484   -3.2559    0.0000 N   0  0  0  0  0  0  0  0  0
   -5.2484   -2.4309    0.0000 C   0  0  0  0  0  0  0  0  0
   -4.5339   -2.0184    0.0000 O   0  0  0  0  0  0  0  0  0
   -5.9629   -2.0184    0.0000 N   0  0  0  0  0  0  0  0  0
   -5.9629   -1.1934    0.0000 C   0  0  0  0  0  0  0  0  0
   -6.6773   -0.7809    0.0000 C   0  0  0  0  0  0  0  0  0
   -6.6773    0.0441    0.0000 C   0  0  0  0  0  0  0  0  0
   -5.9629    0.4566    0.0000 C   0  0  0  0  0  0  0  0  0
   -5.9629    1.2816    0.0000 N   0  0  0  0  0  0  0  0  0
   -6.6773    1.6941    0.0000 C   0  0  0  0  0  0  0  0  0
   -6.6773    2.5191    0.0000 C   0  0  0  0  0  0  0  0  0
   -5.9629    2.9316    0.0000 N   0  0  0  0  0  0  0  0  0
   -5.2484    2.5191    0.0000 C   0  0  0  0  0  0  0  0  0
   -5.2484    1.6941    0.0000 C   0  0  0  0  0  0  0  0  0
   -5.9629    3.7566    0.0000 C   0  0  0  0  0  0  0  0  0
   -6.6773    4.1691    0.0000 C   0  0  0  0  0  0  0  0  0
   -6.6773    4.9941    0.0000 C   0  0  0  0  0  0  0  0  0
   -5.9629    5.4066    0.0000 C   0  0  0  0  0  0  0  0  0
   -5.2484    4.9941    0.0000 C   0  0  0  0  0  0  0  0  0
   -5.2484    4.1691    0.0000 C   0  0  0  0  0  0  0  0  0
   -4.5339    3.7566    0.0000 O   0  0  0  0  0  0  0  0  0
   -3.8194    4.1691    0.0000 C   0  0  0  0  0  0  0  0  0
   -3.1050    3.7566    0.0000 C   0  0  0  0  0  0  0  0  0
   -3.8194    4.9941    0.0000 C   0  0  0  0  0  0  0  0  0
   -5.2484    0.0441    0.0000 C   0  0  0  0  0  0  0  0  0
   -5.2484   -0.7809    0.0000 C   0  0  0  0  0  0  0  0  0
  1  2  1  0  0  0  0
  2  3  4  0  0  0  0
  2  8  4  0  0  0  0
  3  4  4  0  0  0  0
  4  5  1  0  0  0  0
  4  6  4  0  0  0  0
  6  7  4  0  0  0  0
  7  8  4  0  0  0  0
  8  9  1  0  0  0  0
  9 10  1  0  0  0  0
 10 11  2  0  0  0  0
 10 12  1  0  0  0  0
 12 13  1  0  0  0  0
 13 14  1  0  0  0  0
 13 34  1  0  0  0  0
 14 15  1  0  0  0  0
 15 16  1  0  0  0  0
 16 17  1  0  0  0  0
 16 33  1  0  0  0  0
 17 18  1  0  0  0  0
 17 22  1  0  0  0  0
 18 19  1  0  0  0  0
 19 20  1  0  0  0  0
 20 21  1  0  0  0  0
 20 23  1  0  0  0  0
 21 22  1  0  0  0  0
 23 24  4  0  0  0  0
 23 28  4  0  0  0  0
 24 25  4  0  0  0  0
 25 26  4  0  0  0  0
 26 27  4  0  0  0  0
 27 28  4  0  0  0  0
 28 29  1  0  0  0  0
 29 30  1  0  0  0  0
 30 31  1  0  0  0  0
 30 32  1  0  0  0  0
 33 34  1  0  0  0  0
M  END
>  <Name_Molregno>
437820

>  <Alpha-1A>
8.18

>  <Alpha-1B>
6.72

>  <DOPAMINE D2>
8.3

$$$$
437860
  Marvin  02231216192D 0   1.00000     0.00000     0

 35 38  0  0  0  0  0  0  0  0999 V2000
   -5.7124    4.9503    0.0000 Cl  0  0  0  0  0  0  0  0  0
   -5.7124    4.1253    0.0000 C   0  0  0  0  0  0  0  0  0
   -4.9979    3.7128    0.0000 C   0  0  0  0  0  0  0  0  0
   -4.9979    2.8878    0.0000 C   0  0  0  0  0  0  0  0  0
   -4.2835    2.4753    0.0000 N   0  0  0  0  0  0  0  0  0
   -4.2835    1.6503    0.0000 C   0  0  0  0  0  0  0  0  0
   -4.9979    1.2378    0.0000 O   0  0  0  0  0  0  0  0  0
   -3.5690    1.2378    0.0000 N   0  0  0  0  0  0  0  0  0
   -3.5690    0.4128    0.0000 C   0  0  0  0  0  0  0  0  0
   -2.8545    0.0003    0.0000 C   0  0  0  0  0  0  0  0  0
   -2.8545   -0.8247    0.0000 C   0  0  0  0  0  0  0  0  0
   -3.5690   -1.2372    0.0000 C   0  0  0  0  0  0  0  0  0
   -3.5690   -2.0622    0.0000 N   0  0  0  0  0  0  0  0  0
   -2.8545   -2.4747    0.0000 C   0  0  0  0  0  0  0  0  0
   -2.8545   -3.2997    0.0000 C   0  0  0  0  0  0  0  0  0
   -3.5690   -3.7122    0.0000 N   0  0  0  0  0  0  0  0  0
   -4.2835   -3.2997    0.0000 C   0  0  0  0  0  0  0  0  0
   -4.2835   -2.4747    0.0000 C   0  0  0  0  0  0  0  0  0
   -3.5690   -4.5372    0.0000 C   0  0  0  0  0  0  0  0  0
   -2.8545   -4.9497    0.0000 C   0  0  0  0  0  0  0  0  0
   -2.8545   -5.7747    0.0000 C   0  0  0  0  0  0  0  0  0
   -3.5690   -6.1872    0.0000 C   0  0  0  0  0  0  0  0  0
   -4.2835   -5.7747    0.0000 C   0  0  0  0  0  0  0  0  0
   -4.2835   -4.9497    0.0000 C   0  0  0  0  0  0  0  0  0
   -4.9979   -4.5372    0.0000 O   0  0  0  0  0  0  0  0  0
   -5.7124   -4.9497    0.0000 C   0  0  0  0  0  0  0  0  0
   -6.4269   -4.5372    0.0000 C   0  0  0  0  0  0  0  0  0
   -5.7124   -5.7747    0.0000 C   0  0  0  0  0  0  0  0  0
   -4.2835   -0.8247    0.0000 C   0  0  0  0  0  0  0  0  0
   -4.2835    0.0003    0.0000 C   0  0  0  0  0  0  0  0  0
   -5.7124    2.4753    0.0000 C   0  0  0  0  0  0  0  0  0
   -5.7124    1.6503    0.0000 O   0  0  0  0  0  0  0  0  0
   -6.4269    1.2378    0.0000 C   0  0  0  0  0  0  0  0  0
   -6.4269    2.8878    0.0000 C   0  0  0  0  0  0  0  0  0
   -6.4269    3.7128    0.0000 C   0  0  0  0  0  0  0  0  0
  1  2  1  0  0  0  0
  2  3  4  0  0  0  0
  2 35  4  0  0  0  0
  3  4  4  0  0  0  0
  4  5  1  0  0  0  0
  4 31  4  0  0  0  0
  5  6  1  0  0  0  0
  6  7  2  0  0  0  0
  6  8  1  0  0  0  0
  8  9  1  0  0  0  0
  9 10  1  0  0  0  0
  9 30  1  0  0  0  0
 10 11  1  0  0  0  0
 11 12  1  0  0  0  0
 12 13  1  0  0  0  0
 12 29  1  0  0  0  0
 13 14  1  0  0  0  0
 13 18  1  0  0  0  0
 14 15  1  0  0  0  0
 15 16  1  0  0  0  0
 16 17  1  0  0  0  0
 16 19  1  0  0  0  0
 17 18  1  0  0  0  0
 19 20  4  0  0  0  0
 19 24  4  0  0  0  0
 20 21  4  0  0  0  0
 21 22  4  0  0  0  0
 22 23  4  0  0  0  0
 23 24  4  0  0  0  0
 24 25  1  0  0  0  0
 25 26  1  0  0  0  0
 26 27  1  0  0  0  0
 26 28  1  0  0  0  0
 29 30  1  0  0  0  0
 31 32  1  0  0  0  0
 31 34  4  0  0  0  0
 32 33  1  0  0  0  0
 34 35  4  0  0  0  0
M  END
>  <Name_Molregno>
437860

>  <Alpha-1A>
7.23

>  <Alpha-1B>
6.89

>  <DOPAMINE D2>
7.96

$$$$
437904
  Marvin  02231216192D 0   1.00000     0.00000     0

 36 39  0  0  0  0  0  0  0  0999 V2000
    0.2642   -0.2089    0.0000 O   0  0  0  0  0  0  0  0  0
    0.9787    0.2036    0.0000 C   0  0  0  0  0  0  0  0  0
    0.9787    1.0286    0.0000 C   0  0  0  0  0  0  0  0  0
    1.6932   -0.2089    0.0000 C   0  0  0  0  0  0  0  0  0
    0.2642   -1.0339    0.0000 C   0  0  0  0  0  0  0  0  0
    0.9787   -1.4464    0.0000 C   0  0  0  0  0  0  0  0  0
    0.9787   -2.2714    0.0000 C   0  0  0  0  0  0  0  0  0
    0.2642   -2.6839    0.0000 C   0  0  0  0  0  0  0  0  0
   -0.4503   -2.2714    0.0000 C   0  0  0  0  0  0  0  0  0
   -0.4503   -1.4464    0.0000 C   0  0  0  0  0  0  0  0  0
   -1.1647   -1.0339    0.0000 N   0  0  0  0  0  0  0  0  0
   -1.8792   -1.4464    0.0000 C   0  0  0  0  0  0  0  0  0
   -2.5937   -1.0339    0.0000 C   0  0  0  0  0  0  0  0  0
   -2.5937   -0.2089    0.0000 N   0  0  0  0  0  0  0  0  0
   -1.8792    0.2036    0.0000 C   0  0  0  0  0  0  0  0  0
   -1.1647   -0.2089    0.0000 C   0  0  0  0  0  0  0  0  0
   -3.3081    0.2036    0.0000 C   0  0  0  0  0  0  0  0  0
   -4.0226   -0.2089    0.0000 C   0  0  0  0  0  0  0  0  0
   -4.7371    0.2036    0.0000 C   0  0  0  0  0  0  0  0  0
   -4.7371    1.0286    0.0000 C   0  0  0  0  0  0  0  0  0
   -5.4516    1.4411    0.0000 N   0  0  0  0  0  0  0  0  0
   -5.4516    2.2661    0.0000 C   0  0  0  0  0  0  0  0  0
   -4.7371    2.6786    0.0000 O   0  0  0  0  0  0  0  0  0
   -6.1660    2.6786    0.0000 N   0  0  0  0  0  0  0  0  0
   -6.8805    2.2661    0.0000 C   0  0  0  0  0  0  0  0  0
   -6.8805    1.4411    0.0000 C   0  0  0  0  0  0  0  0  0
   -7.5950    1.0286    0.0000 C   0  0  0  0  0  0  0  0  0
   -8.3094    1.4411    0.0000 C   0  0  0  0  0  0  0  0  0
   -9.0239    1.0286    0.0000 O   0  0  0  0  0  0  0  0  0
   -9.0239    0.2036    0.0000 C   0  0  0  0  0  0  0  0  0
   -8.3094    2.2661    0.0000 C   0  0  0  0  0  0  0  0  0
   -7.5950    2.6786    0.0000 C   0  0  0  0  0  0  0  0  0
   -7.5950    3.5036    0.0000 O   0  0  0  0  0  0  0  0  0
   -8.3094    3.9161    0.0000 C   0  0  0  0  0  0  0  0  0
   -4.0226    1.4411    0.0000 C   0  0  0  0  0  0  0  0  0
   -3.3081    1.0286    0.0000 C   0  0  0  0  0  0  0  0  0
  1  2  1  0  0  0  0
  1  5  1  0  0  0  0
  2  3  1  0  0  0  0
  2  4  1  0  0  0  0
  5  6  4  0  0  0  0
  5 10  4  0  0  0  0
  6  7  4  0  0  0  0
  7  8  4  0  0  0  0
  8  9  4  0  0  0  0
  9 10  4  0  0  0  0
 10 11  1  0  0  0  0
 11 12  1  0  0  0  0
 11 16  1  0  0  0  0
 12 13  1  0  0  0  0
 13 14  1  0  0  0  0
 14 15  1  0  0  0  0
 14 17  1  0  0  0  0
 15 16  1  0  0  0  0
 17 18  1  0  0  0  0
 17 36  1  0  0  0  0
 18 19  1  0  0  0  0
 19 20  1  0  0  0  0
 20 21  1  0  0  0  0
 20 35  1  0  0  0  0
 21 22  1  0  0  0  0
 22 23  2  0  0  0  0
 22 24  1  0  0  0  0
 24 25  1  0  0  0  0
 25 26  4  0  0  0  0
 25 32  4  0  0  0  0
 26 27  4  0  0  0  0
 27 28  4  0  0  0  0
 28 29  1  0  0  0  0
 28 31  4  0  0  0  0
 29 30  1  0  0  0  0
 31 32  4  0  0  0  0
 32 33  1  0  0  0  0
 33 34  1  0  0  0  0
 35 36  1  0  0  0  0
M  END
>  <Name_Molregno>
437904

>  <Alpha-1A>
7.05

>  <Alpha-1B>
6.5

>  <DOPAMINE D2>
6.3

$$$$
437906
  Marvin  02231216192D 0   1.00000     0.00000     0

 33 36  0  0  0  0  0  0  0  0999 V2000
    4.7649    7.6466    0.0000 Cl  0  0  0  0  0  0  0  0  0
    4.7649    6.8216    0.0000 C   0  0  0  0  0  0  0  0  0
    5.4794    6.4091    0.0000 C   0  0  0  0  0  0  0  0  0
    5.4794    5.5841    0.0000 C   0  0  0  0  0  0  0  0  0
    6.1939    5.1716    0.0000 N   0  0  0  0  0  0  0  0  0
    6.1939    4.3466    0.0000 C   0  0  0  0  0  0  0  0  0
    5.4794    3.9341    0.0000 O   0  0  0  0  0  0  0  0  0
    6.9083    3.9341    0.0000 N   0  0  0  0  0  0  0  0  0
    6.9083    3.1091    0.0000 C   0  0  0  0  0  0  0  0  0
    7.6228    2.6966    0.0000 C   0  0  0  0  0  0  0  0  0
    7.6228    1.8716    0.0000 C   0  0  0  0  0  0  0  0  0
    6.9083    1.4591    0.0000 C   0  0  0  0  0  0  0  0  0
    6.9083    0.6341    0.0000 N   0  0  0  0  0  0  0  0  0
    7.6228    0.2216    0.0000 C   0  0  0  0  0  0  0  0  0
    7.6228   -0.6034    0.0000 C   0  0  0  0  0  0  0  0  0
    6.9083   -1.0159    0.0000 N   0  0  0  0  0  0  0  0  0
    6.1939   -0.6034    0.0000 C   0  0  0  0  0  0  0  0  0
    6.1939    0.2216    0.0000 C   0  0  0  0  0  0  0  0  0
    6.9083   -1.8409    0.0000 C   0  0  0  0  0  0  0  0  0
    7.6228   -2.2534    0.0000 C   0  0  0  0  0  0  0  0  0
    7.6228   -3.0784    0.0000 C   0  0  0  0  0  0  0  0  0
    6.9083   -3.4909    0.0000 C   0  0  0  0  0  0  0  0  0
    6.1939   -3.0784    0.0000 C   0  0  0  0  0  0  0  0  0
    6.1939   -2.2534    0.0000 C   0  0  0  0  0  0  0  0  0
    5.4794   -1.8409    0.0000 O   0  0  0  0  0  0  0  0  0
    4.7649   -2.2534    0.0000 C   0  0  0  0  0  0  0  0  0
    4.0505   -1.8409    0.0000 C   0  0  0  0  0  0  0  0  0
    4.7649   -3.0784    0.0000 C   0  0  0  0  0  0  0  0  0
    6.1939    1.8716    0.0000 C   0  0  0  0  0  0  0  0  0
    6.1939    2.6966    0.0000 C   0  0  0  0  0  0  0  0  0
    4.7649    5.1716    0.0000 C   0  0  0  0  0  0  0  0  0
    4.0505    5.5841    0.0000 C   0  0  0  0  0  0  0  0  0
    4.0505    6.4091    0.0000 C   0  0  0  0  0  0  0  0  0
  1  2  1  0  0  0  0
  2  3  4  0  0  0  0
  2 33  4  0  0  0  0
  3  4  4  0  0  0  0
  4  5  1  0  0  0  0
  4 31  4  0  0  0  0
  5  6  1  0  0  0  0
  6  7  2  0  0  0  0
  6  8  1  0  0  0  0
  8  9  1  0  0  0  0
  9 10  1  0  0  0  0
  9 30  1  0  0  0  0
 10 11  1  0  0  0  0
 11 12  1  0  0  0  0
 12 13  1  0  0  0  0
 12 29  1  0  0  0  0
 13 14  1  0  0  0  0
 13 18  1  0  0  0  0
 14 15  1  0  0  0  0
 15 16  1  0  0  0  0
 16 17  1  0  0  0  0
 16 19  1  0  0  0  0
 17 18  1  0  0  0  0
 19 20  4  0  0  0  0
 19 24  4  0  0  0  0
 20 21  4  0  0  0  0
 21 22  4  0  0  0  0
 22 23  4  0  0  0  0
 23 24  4  0  0  0  0
 24 25  1  0  0  0  0
 25 26  1  0  0  0  0
 26 27  1  0  0  0  0
 26 28  1  0  0  0  0
 29 30  1  0  0  0  0
 31 32  4  0  0  0  0
 32 33  4  0  0  0  0
M  END
>  <Name_Molregno>
437906

>  <Alpha-1A>
7.97

>  <Alpha-1B>
6.86

>  <DOPAMINE D2>
7.02

$$$$
437952
  Marvin  02231216192D 0   1.00000     0.00000     0

 34 37  0  0  0  0  0  0  0  0999 V2000
   -0.1504   -0.4194    0.0000 O   0  0  0  0  0  0  0  0  0
    0.5641   -0.0069    0.0000 C   0  0  0  0  0  0  0  0  0
    0.5641    0.8181    0.0000 C   0  0  0  0  0  0  0  0  0
    1.2786   -0.4194    0.0000 C   0  0  0  0  0  0  0  0  0
   -0.1504   -1.2444    0.0000 C   0  0  0  0  0  0  0  0  0
    0.5641   -1.6569    0.0000 C   0  0  0  0  0  0  0  0  0
    0.5641   -2.4819    0.0000 C   0  0  0  0  0  0  0  0  0
   -0.1504   -2.8944    0.0000 C   0  0  0  0  0  0  0  0  0
   -0.8648   -2.4819    0.0000 C   0  0  0  0  0  0  0  0  0
   -0.8648   -1.6569    0.0000 C   0  0  0  0  0  0  0  0  0
   -1.5793   -1.2444    0.0000 N   0  0  0  0  0  0  0  0  0
   -2.2938   -1.6569    0.0000 C   0  0  0  0  0  0  0  0  0
   -3.0083   -1.2444    0.0000 C   0  0  0  0  0  0  0  0  0
   -3.0083   -0.4194    0.0000 N   0  0  0  0  0  0  0  0  0
   -2.2938   -0.0069    0.0000 C   0  0  0  0  0  0  0  0  0
   -1.5793   -0.4194    0.0000 C   0  0  0  0  0  0  0  0  0
   -3.7227   -0.0069    0.0000 C   0  0  0  0  0  0  0  0  0
   -4.4372   -0.4194    0.0000 C   0  0  0  0  0  0  0  0  0
   -5.1517   -0.0069    0.0000 C   0  0  0  0  0  0  0  0  0
   -5.1517    0.8181    0.0000 C   0  0  0  0  0  0  0  0  0
   -5.8661    1.2306    0.0000 N   0  0  0  0  0  0  0  0  0
   -5.8661    2.0556    0.0000 C   0  0  0  0  0  0  0  0  0
   -5.1517    2.4681    0.0000 O   0  0  0  0  0  0  0  0  0
   -6.5806    2.4681    0.0000 N   0  0  0  0  0  0  0  0  0
   -7.2951    2.0556    0.0000 C   0  0  0  0  0  0  0  0  0
   -7.2951    1.2306    0.0000 C   0  0  0  0  0  0  0  0  0
   -8.0096    0.8181    0.0000 C   0  0  0  0  0  0  0  0  0
   -8.7240    1.2306    0.0000 C   0  0  0  0  0  0  0  0  0
   -8.7240    2.0556    0.0000 C   0  0  0  0  0  0  0  0  0
   -8.0096    2.4681    0.0000 C   0  0  0  0  0  0  0  0  0
   -8.0096    3.2931    0.0000 O   0  0  0  0  0  0  0  0  0
   -8.7240    3.7056    0.0000 C   0  0  0  0  0  0  0  0  0
   -4.4372    1.2306    0.0000 C   0  0  0  0  0  0  0  0  0
   -3.7227    0.8181    0.0000 C   0  0  0  0  0  0  0  0  0
  1  2  1  0  0  0  0
  1  5  1  0  0  0  0
  2  3  1  0  0  0  0
  2  4  1  0  0  0  0
  5  6  4  0  0  0  0
  5 10  4  0  0  0  0
  6  7  4  0  0  0  0
  7  8  4  0  0  0  0
  8  9  4  0  0  0  0
  9 10  4  0  0  0  0
 10 11  1  0  0  0  0
 11 12  1  0  0  0  0
 11 16  1  0  0  0  0
 12 13  1  0  0  0  0
 13 14  1  0  0  0  0
 14 15  1  0  0  0  0
 14 17  1  0  0  0  0
 15 16  1  0  0  0  0
 17 18  1  0  0  0  0
 17 34  1  0  0  0  0
 18 19  1  0  0  0  0
 19 20  1  0  0  0  0
 20 21  1  0  0  0  0
 20 33  1  0  0  0  0
 21 22  1  0  0  0  0
 22 23  2  0  0  0  0
 22 24  1  0  0  0  0
 24 25  1  0  0  0  0
 25 26  4  0  0  0  0
 25 30  4  0  0  0  0
 26 27  4  0  0  0  0
 27 28  4  0  0  0  0
 28 29  4  0  0  0  0
 29 30  4  0  0  0  0
 30 31  1  0  0  0  0
 31 32  1  0  0  0  0
 33 34  1  0  0  0  0
M  END
>  <Name_Molregno>
437952

>  <Alpha-1A>
7.12

>  <Alpha-1B>
6.81

>  <DOPAMINE D2>
6.22

$$$$
438002
  Marvin  02231216192D 0   1.00000     0.00000     0

 33 36  0  0  0  0  0  0  0  0999 V2000
   -3.8966   -2.5515    0.0000 Cl  0  0  0  0  0  0  0  0  0
   -3.8966   -3.3765    0.0000 C   0  0  0  0  0  0  0  0  0
   -3.1821   -3.7890    0.0000 C   0  0  0  0  0  0  0  0  0
   -3.1821   -4.6140    0.0000 C   0  0  0  0  0  0  0  0  0
   -3.8966   -5.0265    0.0000 C   0  0  0  0  0  0  0  0  0
   -4.6111   -4.6140    0.0000 C   0  0  0  0  0  0  0  0  0
   -4.6111   -3.7890    0.0000 C   0  0  0  0  0  0  0  0  0
   -5.3255   -3.3765    0.0000 N   0  0  0  0  0  0  0  0  0
   -5.3255   -2.5515    0.0000 C   0  0  0  0  0  0  0  0  0
   -4.6111   -2.1390    0.0000 O   0  0  0  0  0  0  0  0  0
   -6.0400   -2.1390    0.0000 N   0  0  0  0  0  0  0  0  0
   -6.0400   -1.3140    0.0000 C   0  0  0  0  0  0  0  0  0
   -6.7545   -0.9015    0.0000 C   0  0  0  0  0  0  0  0  0
   -6.7545   -0.0765    0.0000 C   0  0  0  0  0  0  0  0  0
   -6.0400    0.3360    0.0000 C   0  0  0  0  0  0  0  0  0
   -6.0400    1.1610    0.0000 N   0  0  0  0  0  0  0  0  0
   -6.7545    1.5735    0.0000 C   0  0  0  0  0  0  0  0  0
   -6.7545    2.3985    0.0000 C   0  0  0  0  0  0  0  0  0
   -6.0400    2.8110    0.0000 N   0  0  0  0  0  0  0  0  0
   -5.3255    2.3985    0.0000 C   0  0  0  0  0  0  0  0  0
   -5.3255    1.5735    0.0000 C   0  0  0  0  0  0  0  0  0
   -6.0400    3.6360    0.0000 C   0  0  0  0  0  0  0  0  0
   -6.7545    4.0485    0.0000 C   0  0  0  0  0  0  0  0  0
   -6.7545    4.8735    0.0000 C   0  0  0  0  0  0  0  0  0
   -6.0400    5.2860    0.0000 C   0  0  0  0  0  0  0  0  0
   -5.3255    4.8735    0.0000 C   0  0  0  0  0  0  0  0  0
   -5.3255    4.0485    0.0000 C   0  0  0  0  0  0  0  0  0
   -4.6111    3.6360    0.0000 O   0  0  0  0  0  0  0  0  0
   -3.8966    4.0485    0.0000 C   0  0  0  0  0  0  0  0  0
   -3.1821    3.6360    0.0000 C   0  0  0  0  0  0  0  0  0
   -3.8966    4.8735    0.0000 C   0  0  0  0  0  0  0  0  0
   -5.3255   -0.0765    0.0000 C   0  0  0  0  0  0  0  0  0
   -5.3255   -0.9015    0.0000 C   0  0  0  0  0  0  0  0  0
  1  2  1  0  0  0  0
  2  3  4  0  0  0  0
  2  7  4  0  0  0  0
  3  4  4  0  0  0  0
  4  5  4  0  0  0  0
  5  6  4  0  0  0  0
  6  7  4  0  0  0  0
  7  8  1  0  0  0  0
  8  9  1  0  0  0  0
  9 10  2  0  0  0  0
  9 11  1  0  0  0  0
 11 12  1  0  0  0  0
 12 13  1  0  0  0  0
 12 33  1  0  0  0  0
 13 14  1  0  0  0  0
 14 15  1  0  0  0  0
 15 16  1  0  0  0  0
 15 32  1  0  0  0  0
 16 17  1  0  0  0  0
 16 21  1  0  0  0  0
 17 18  1  0  0  0  0
 18 19  1  0  0  0  0
 19 20  1  0  0  0  0
 19 22  1  0  0  0  0
 20 21  1  0  0  0  0
 22 23  4  0  0  0  0
 22 27  4  0  0  0  0
 23 24  4  0  0  0  0
 24 25  4  0  0  0  0
 25 26  4  0  0  0  0
 26 27  4  0  0  0  0
 27 28  1  0  0  0  0
 28 29  1  0  0  0  0
 29 30  1  0  0  0  0
 29 31  1  0  0  0  0
 32 33  1  0  0  0  0
M  END
>  <Name_Molregno>
438002

>  <Alpha-1A>
7.64

>  <Alpha-1B>
6.92

>  <DOPAMINE D2>
6.77

$$$$
468988
  Marvin  02231216192D 0   1.00000     0.00000     0

 25 27  0  0  1  0  0  0  0  0999 V2000
   -4.4937    0.4136    0.0000 O   0  0  0  0  0  0  0  0  0
   -3.7793    0.8261    0.0000 C   0  0  0  0  0  0  0  0  0
   -3.0648    0.4136    0.0000 C   0  0  0  0  0  0  0  0  0
   -3.0648   -0.4114    0.0000 O   0  0  0  0  0  0  0  0  0
   -3.7793   -0.8239    0.0000 C   0  0  0  0  0  0  0  0  0
   -4.4937   -0.4114    0.0000 C   0  0  0  0  0  0  0  0  0
   -5.2082   -0.8239    0.0000 C   0  0  0  0  0  0  0  0  0
   -5.2082   -1.6489    0.0000 C   0  0  0  0  0  0  0  0  0
   -5.9227   -2.0614    0.0000 C   0  0  0  0  0  0  0  0  0
   -6.6372   -1.6489    0.0000 C   0  0  0  0  0  0  0  0  0
   -6.6372   -0.8239    0.0000 C   0  0  0  0  0  0  0  0  0
   -5.9227   -0.4114    0.0000 C   0  0  0  0  0  0  0  0  0
   -2.3503    0.8261    0.0000 C   0  0  0  0  0  0  0  0  0
   -1.6359    0.4136    0.0000 N   0  0  0  0  0  0  0  0  0
   -0.9214    0.8261    0.0000 C   0  0  0  0  0  0  0  0  0
   -0.2069    0.4136    0.0000 C   0  0  0  0  0  0  0  0  0
    0.5076    0.8261    0.0000 O   0  0  0  0  0  0  0  0  0
    1.2220    0.4136    0.0000 C   0  0  0  0  0  0  0  0  0
    1.9365    0.8261    0.0000 C   0  0  0  0  0  0  0  0  0
    2.6510    0.4136    0.0000 C   0  0  0  0  0  0  0  0  0
    2.6510   -0.4114    0.0000 C   0  0  0  0  0  0  0  0  0
    1.9365   -0.8239    0.0000 C   0  0  0  0  0  0  0  0  0
    1.2220   -0.4114    0.0000 C   0  0  0  0  0  0  0  0  0
    0.5076   -0.8239    0.0000 O   0  0  0  0  0  0  0  0  0
    0.5076   -1.6489    0.0000 C   0  0  0  0  0  0  0  0  0
  1  2  1  0  0  0  0
  1  6  1  0  0  0  0
  2  3  1  0  0  0  0
  3  4  1  0  0  0  0
  3 13  1  0  0  0  0
  4  5  1  0  0  0  0
  5  6  1  0  0  0  0
  6  7  1  0  0  0  0
  7  8  4  0  0  0  0
  7 12  4  0  0  0  0
  8  9  4  0  0  0  0
  9 10  4  0  0  0  0
 10 11  4  0  0  0  0
 11 12  4  0  0  0  0
 13 14  1  0  0  0  0
 14 15  1  0  0  0  0
 15 16  1  0  0  0  0
 16 17  1  0  0  0  0
 17 18  1  0  0  0  0
 18 19  4  0  0  0  0
 18 23  4  0  0  0  0
 19 20  4  0  0  0  0
 20 21  4  0  0  0  0
 21 22  4  0  0  0  0
 22 23  4  0  0  0  0
 23 24  1  0  0  0  0
 24 25  1  0  0  0  0
M  END
>  <Name_Molregno>
468988

>  <5-HT1A>
7.93

>  <Alpha-1A>
6.58

>  <Alpha-1B>
6.57

$$$$
468989
  Marvin  02231216192D 0   1.00000     0.00000     0

 27 29  0  0  1  0  0  0  0  0999 V2000
   -5.5377    0.0168    0.0000 O   0  0  0  0  0  0  0  0  0
   -4.8232    0.4293    0.0000 C   0  0  0  0  0  0  0  0  0
   -4.1087    0.0168    0.0000 C   0  0  0  0  0  0  0  0  0
   -4.1087   -0.8082    0.0000 O   0  0  0  0  0  0  0  0  0
   -4.8232   -1.2207    0.0000 C   0  0  0  0  0  0  0  0  0
   -5.5377   -0.8082    0.0000 C   0  0  0  0  0  0  0  0  0
   -6.2521   -1.2207    0.0000 C   0  0  0  0  0  0  0  0  0
   -6.2521   -2.0457    0.0000 C   0  0  0  0  0  0  0  0  0
   -6.9666   -2.4582    0.0000 C   0  0  0  0  0  0  0  0  0
   -7.6811   -2.0457    0.0000 C   0  0  0  0  0  0  0  0  0
   -7.6811   -1.2207    0.0000 C   0  0  0  0  0  0  0  0  0
   -6.9666   -0.8082    0.0000 C   0  0  0  0  0  0  0  0  0
   -3.3942    0.4293    0.0000 C   0  0  0  0  0  0  0  0  0
   -2.6798    0.0168    0.0000 N   0  0  0  0  0  0  0  0  0
   -1.9653    0.4293    0.0000 C   0  0  0  0  0  0  0  0  0
   -1.2508    0.0168    0.0000 C   0  0  0  0  0  0  0  0  0
   -0.5364    0.4293    0.0000 O   0  0  0  0  0  0  0  0  0
    0.1781    0.0168    0.0000 C   0  0  0  0  0  0  0  0  0
    0.8926    0.4293    0.0000 C   0  0  0  0  0  0  0  0  0
    0.8926    1.2543    0.0000 O   0  0  0  0  0  0  0  0  0
    1.6071    1.6668    0.0000 C   0  0  0  0  0  0  0  0  0
    1.6071    0.0168    0.0000 C   0  0  0  0  0  0  0  0  0
    1.6071   -0.8082    0.0000 C   0  0  0  0  0  0  0  0  0
    0.8926   -1.2207    0.0000 C   0  0  0  0  0  0  0  0  0
    0.1781   -0.8082    0.0000 C   0  0  0  0  0  0  0  0  0
   -0.5364   -1.2207    0.0000 O   0  0  0  0  0  0  0  0  0
   -0.5364   -2.0457    0.0000 C   0  0  0  0  0  0  0  0  0
  1  2  1  0  0  0  0
  1  6  1  0  0  0  0
  2  3  1  0  0  0  0
  3  4  1  0  0  0  0
  3 13  1  0  0  0  0
  4  5  1  0  0  0  0
  5  6  1  0  0  0  0
  6  7  1  0  0  0  0
  7  8  4  0  0  0  0
  7 12  4  0  0  0  0
  8  9  4  0  0  0  0
  9 10  4  0  0  0  0
 10 11  4  0  0  0  0
 11 12  4  0  0  0  0
 13 14  1  0  0  0  0
 14 15  1  0  0  0  0
 15 16  1  0  0  0  0
 16 17  1  0  0  0  0
 17 18  1  0  0  0  0
 18 19  4  0  0  0  0
 18 25  4  0  0  0  0
 19 20  1  0  0  0  0
 19 22  4  0  0  0  0
 20 21  1  0  0  0  0
 22 23  4  0  0  0  0
 23 24  4  0  0  0  0
 24 25  4  0  0  0  0
 25 26  1  0  0  0  0
 26 27  1  0  0  0  0
M  END
>  <Name_Molregno>
468989

>  <5-HT1A>
6.61

>  <Alpha-1A>
6.15

>  <Alpha-1B>
6

$$$$
468991
  Marvin  02231216192D 0   1.00000     0.00000     0

 23 25  0  0  1  0  0  0  0  0999 V2000
   -0.0386   -0.0170    0.0000 O   0  0  0  0  0  0  0  0  0
   -0.7531    0.3955    0.0000 C   0  0  0  0  0  0  0  0  0
   -0.7531    1.2205    0.0000 C   0  0  0  0  0  0  0  0  0
   -0.0386    1.6330    0.0000 O   0  0  0  0  0  0  0  0  0
    0.6759    1.2205    0.0000 C   0  0  0  0  0  0  0  0  0
    0.6759    0.3955    0.0000 C   0  0  0  0  0  0  0  0  0
    1.3903   -0.0170    0.0000 C   0  0  0  0  0  0  0  0  0
    2.1048    0.3955    0.0000 N   0  0  0  0  0  0  0  0  0
    2.8193   -0.0170    0.0000 C   0  0  0  0  0  0  0  0  0
    3.5337    0.3955    0.0000 C   0  0  0  0  0  0  0  0  0
    4.2482   -0.0170    0.0000 O   0  0  0  0  0  0  0  0  0
    4.9627    0.3955    0.0000 C   0  0  0  0  0  0  0  0  0
    4.9627    1.2205    0.0000 C   0  0  0  0  0  0  0  0  0
    5.6772    1.6330    0.0000 C   0  0  0  0  0  0  0  0  0
    6.3916    1.2205    0.0000 C   0  0  0  0  0  0  0  0  0
    6.3916    0.3955    0.0000 C   0  0  0  0  0  0  0  0  0
    5.6772   -0.0170    0.0000 C   0  0  0  0  0  0  0  0  0
   -1.4676   -0.0170    0.0000 C   0  0  0  0  0  0  0  0  0
   -1.4676   -0.8420    0.0000 C   0  0  0  0  0  0  0  0  0
   -2.1820   -1.2545    0.0000 C   0  0  0  0  0  0  0  0  0
   -2.8965   -0.8420    0.0000 C   0  0  0  0  0  0  0  0  0
   -2.8965   -0.0170    0.0000 C   0  0  0  0  0  0  0  0  0
   -2.1820    0.3955    0.0000 C   0  0  0  0  0  0  0  0  0
  1  2  1  0  0  0  0
  1  6  1  0  0  0  0
  2  3  1  0  0  0  0
  2 18  1  0  0  0  0
  3  4  1  0  0  0  0
  4  5  1  0  0  0  0
  5  6  1  0  0  0  0
  6  7  1  0  0  0  0
  7  8  1  0  0  0  0
  8  9  1  0  0  0  0
  9 10  1  0  0  0  0
 10 11  1  0  0  0  0
 11 12  1  0  0  0  0
 12 13  4  0  0  0  0
 12 17  4  0  0  0  0
 13 14  4  0  0  0  0
 14 15  4  0  0  0  0
 15 16  4  0  0  0  0
 16 17  4  0  0  0  0
 18 19  4  0  0  0  0
 18 23  4  0  0  0  0
 19 20  4  0  0  0  0
 20 21  4  0  0  0  0
 21 22  4  0  0  0  0
 22 23  4  0  0  0  0
M  END
>  <Name_Molregno>
468991

>  <5-HT1A>
7.28

>  <Alpha-1A>
6.19

>  <Alpha-1B>
6

$$$$
469049
  Marvin  02231216192D 0   1.00000     0.00000     0

 25 27  0  0  1  0  0  0  0  0999 V2000
   -0.0510   -0.4983    0.0000 O   0  0  0  0  0  0  0  0  0
   -0.7655   -0.0858    0.0000 C   0  0  0  0  0  0  0  0  0
   -0.7655    0.7392    0.0000 C   0  0  0  0  0  0  0  0  0
   -0.0510    1.1517    0.0000 O   0  0  0  0  0  0  0  0  0
    0.6634    0.7392    0.0000 C   0  0  0  0  0  0  0  0  0
    0.6634   -0.0858    0.0000 C   0  0  0  0  0  0  0  0  0
    1.3779   -0.4983    0.0000 C   0  0  0  0  0  0  0  0  0
    2.0924   -0.0858    0.0000 N   0  0  0  0  0  0  0  0  0
    2.8069   -0.4983    0.0000 C   0  0  0  0  0  0  0  0  0
    3.5213   -0.0858    0.0000 C   0  0  0  0  0  0  0  0  0
    4.2358   -0.4983    0.0000 O   0  0  0  0  0  0  0  0  0
    4.9503   -0.0858    0.0000 C   0  0  0  0  0  0  0  0  0
    4.9503    0.7392    0.0000 C   0  0  0  0  0  0  0  0  0
    5.6647    1.1517    0.0000 C   0  0  0  0  0  0  0  0  0
    6.3792    0.7392    0.0000 C   0  0  0  0  0  0  0  0  0
    6.3792   -0.0858    0.0000 C   0  0  0  0  0  0  0  0  0
    5.6647   -0.4983    0.0000 C   0  0  0  0  0  0  0  0  0
    5.6647   -1.3233    0.0000 O   0  0  0  0  0  0  0  0  0
    6.3792   -1.7358    0.0000 C   0  0  0  0  0  0  0  0  0
   -1.4800   -0.4983    0.0000 C   0  0  0  0  0  0  0  0  0
   -1.4800   -1.3233    0.0000 C   0  0  0  0  0  0  0  0  0
   -2.1944   -1.7358    0.0000 C   0  0  0  0  0  0  0  0  0
   -2.9089   -1.3233    0.0000 C   0  0  0  0  0  0  0  0  0
   -2.9089   -0.4983    0.0000 C   0  0  0  0  0  0  0  0  0
   -2.1944   -0.0858    0.0000 C   0  0  0  0  0  0  0  0  0
  1  2  1  0  0  0  0
  1  6  1  0  0  0  0
  2  3  1  0  0  0  0
  2 20  1  0  0  0  0
  3  4  1  0  0  0  0
  4  5  1  0  0  0  0
  5  6  1  0  0  0  0
  6  7  1  0  0  0  0
  7  8  1  0  0  0  0
  8  9  1  0  0  0  0
  9 10  1  0  0  0  0
 10 11  1  0  0  0  0
 11 12  1  0  0  0  0
 12 13  4  0  0  0  0
 12 17  4  0  0  0  0
 13 14  4  0  0  0  0
 14 15  4  0  0  0  0
 15 16  4  0  0  0  0
 16 17  4  0  0  0  0
 17 18  1  0  0  0  0
 18 19  1  0  0  0  0
 20 21  4  0  0  0  0
 20 25  4  0  0  0  0
 21 22  4  0  0  0  0
 22 23  4  0  0  0  0
 23 24  4  0  0  0  0
 24 25  4  0  0  0  0
M  END
>  <Name_Molregno>
469049

>  <5-HT1A>
8.3

>  <Alpha-1A>
6.88

>  <Alpha-1B>
6.55

$$$$
469051
  Marvin  02231216192D 0   1.00000     0.00000     0

 27 29  0  0  1  0  0  0  0  0999 V2000
   -0.0512   -0.0274    0.0000 O   0  0  0  0  0  0  0  0  0
   -0.7657    0.3851    0.0000 C   0  0  0  0  0  0  0  0  0
   -0.7657    1.2101    0.0000 C   0  0  0  0  0  0  0  0  0
   -0.0512    1.6226    0.0000 O   0  0  0  0  0  0  0  0  0
    0.6632    1.2101    0.0000 C   0  0  0  0  0  0  0  0  0
    0.6632    0.3851    0.0000 C   0  0  0  0  0  0  0  0  0
    1.3777   -0.0274    0.0000 C   0  0  0  0  0  0  0  0  0
    2.0922    0.3851    0.0000 N   0  0  0  0  0  0  0  0  0
    2.8066   -0.0274    0.0000 C   0  0  0  0  0  0  0  0  0
    3.5211    0.3851    0.0000 C   0  0  0  0  0  0  0  0  0
    4.2356   -0.0274    0.0000 O   0  0  0  0  0  0  0  0  0
    4.9501    0.3851    0.0000 C   0  0  0  0  0  0  0  0  0
    4.9501    1.2101    0.0000 C   0  0  0  0  0  0  0  0  0
    4.2356    1.6226    0.0000 O   0  0  0  0  0  0  0  0  0
    4.2356    2.4476    0.0000 C   0  0  0  0  0  0  0  0  0
    5.6645    1.6226    0.0000 C   0  0  0  0  0  0  0  0  0
    6.3790    1.2101    0.0000 C   0  0  0  0  0  0  0  0  0
    6.3790    0.3851    0.0000 C   0  0  0  0  0  0  0  0  0
    5.6645   -0.0274    0.0000 C   0  0  0  0  0  0  0  0  0
    5.6645   -0.8524    0.0000 O   0  0  0  0  0  0  0  0  0
    6.3790   -1.2649    0.0000 C   0  0  0  0  0  0  0  0  0
   -1.4802   -0.0274    0.0000 C   0  0  0  0  0  0  0  0  0
   -1.4802   -0.8524    0.0000 C   0  0  0  0  0  0  0  0  0
   -2.1947   -1.2649    0.0000 C   0  0  0  0  0  0  0  0  0
   -2.9091   -0.8524    0.0000 C   0  0  0  0  0  0  0  0  0
   -2.9091   -0.0274    0.0000 C   0  0  0  0  0  0  0  0  0
   -2.1947    0.3851    0.0000 C   0  0  0  0  0  0  0  0  0
  1  2  1  0  0  0  0
  1  6  1  0  0  0  0
  2  3  1  0  0  0  0
  2 22  1  0  0  0  0
  3  4  1  0  0  0  0
  4  5  1  0  0  0  0
  5  6  1  0  0  0  0
  6  7  1  0  0  0  0
  7  8  1  0  0  0  0
  8  9  1  0  0  0  0
  9 10  1  0  0  0  0
 10 11  1  0  0  0  0
 11 12  1  0  0  0  0
 12 13  4  0  0  0  0
 12 19  4  0  0  0  0
 13 14  1  0  0  0  0
 13 16  4  0  0  0  0
 14 15  1  0  0  0  0
 16 17  4  0  0  0  0
 17 18  4  0  0  0  0
 18 19  4  0  0  0  0
 19 20  1  0  0  0  0
 20 21  1  0  0  0  0
 22 23  4  0  0  0  0
 22 27  4  0  0  0  0
 23 24  4  0  0  0  0
 24 25  4  0  0  0  0
 25 26  4  0  0  0  0
 26 27  4  0  0  0  0
M  END
>  <Name_Molregno>
469051

>  <5-HT1A>
6.19

>  <Alpha-1A>
6.16

>  <Alpha-1B>
6

$$$$
469053
  Marvin  02231216192D 0   1.00000     0.00000     0

 29 32  0  0  1  0  0  0  0  0999 V2000
   -3.2937    1.3173    0.0000 O   0  0  0  0  0  0  0  0  0
   -2.5792    1.7298    0.0000 C   0  0  0  0  0  0  0  0  0
   -1.8647    1.3173    0.0000 C   0  0  0  0  0  0  0  0  0
   -1.8647    0.4923    0.0000 O   0  0  0  0  0  0  0  0  0
   -2.5792    0.0798    0.0000 C   0  0  0  0  0  0  0  0  0
   -3.2937    0.4923    0.0000 C   0  0  0  0  0  0  0  0  0
   -4.0867    0.7197    0.0000 C   0  0  0  0  0  0  0  0  0
   -4.6802    0.1466    0.0000 C   0  0  0  0  0  0  0  0  0
   -5.4732    0.3740    0.0000 C   0  0  0  0  0  0  0  0  0
   -5.6728    1.1745    0.0000 C   0  0  0  0  0  0  0  0  0
   -5.0793    1.7476    0.0000 C   0  0  0  0  0  0  0  0  0
   -4.2863    1.5202    0.0000 C   0  0  0  0  0  0  0  0  0
   -3.7309   -0.2074    0.0000 C   0  0  0  0  0  0  0  0  0
   -3.3435   -0.9358    0.0000 C   0  0  0  0  0  0  0  0  0
   -3.7807   -1.6354    0.0000 C   0  0  0  0  0  0  0  0  0
   -4.6052   -1.6066    0.0000 C   0  0  0  0  0  0  0  0  0
   -4.9925   -0.8782    0.0000 C   0  0  0  0  0  0  0  0  0
   -4.5554   -0.1786    0.0000 C   0  0  0  0  0  0  0  0  0
   -1.1503    1.7298    0.0000 C   0  0  0  0  0  0  0  0  0
   -0.4358    1.3173    0.0000 N   0  0  0  0  0  0  0  0  0
    0.2787    1.7298    0.0000 C   0  0  0  0  0  0  0  0  0
    0.9931    1.3173    0.0000 C   0  0  0  0  0  0  0  0  0
    1.7076    1.7298    0.0000 O   0  0  0  0  0  0  0  0  0
    2.4221    1.3173    0.0000 C   0  0  0  0  0  0  0  0  0
    3.1366    1.7298    0.0000 C   0  0  0  0  0  0  0  0  0
    3.8510    1.3173    0.0000 C   0  0  0  0  0  0  0  0  0
    3.8510    0.4923    0.0000 C   0  0  0  0  0  0  0  0  0
    3.1366    0.0798    0.0000 C   0  0  0  0  0  0  0  0  0
    2.4221    0.4923    0.0000 C   0  0  0  0  0  0  0  0  0
  1  2  1  0  0  0  0
  1  6  1  0  0  0  0
  2  3  1  0  0  0  0
  3  4  1  0  0  0  0
  3 19  1  0  0  0  0
  4  5  1  0  0  0  0
  5  6  1  0  0  0  0
  6  7  1  0  0  0  0
  6 13  1  0  0  0  0
  7  8  4  0  0  0  0
  7 12  4  0  0  0  0
  8  9  4  0  0  0  0
  9 10  4  0  0  0  0
 10 11  4  0  0  0  0
 11 12  4  0  0  0  0
 13 14  4  0  0  0  0
 13 18  4  0  0  0  0
 14 15  4  0  0  0  0
 15 16  4  0  0  0  0
 16 17  4  0  0  0  0
 17 18  4  0  0  0  0
 19 20  1  0  0  0  0
 20 21  1  0  0  0  0
 21 22  1  0  0  0  0
 22 23  1  0  0  0  0
 23 24  1  0  0  0  0
 24 25  4  0  0  0  0
 24 29  4  0  0  0  0
 25 26  4  0  0  0  0
 26 27  4  0  0  0  0
 27 28  4  0  0  0  0
 28 29  4  0  0  0  0
M  END
>  <Name_Molregno>
469053

>  <5-HT1A>
7.43

>  <Alpha-1A>
6.65

>  <Alpha-1B>
6.85

$$$$
469625
  Marvin  02231216192D 0   1.00000     0.00000     0

 23 25  0  0  1  0  0  0  0  0999 V2000
   -4.4797    0.0278    0.0000 O   0  0  0  0  0  0  0  0  0
   -3.7652    0.4403    0.0000 C   0  0  0  0  0  0  0  0  0
   -3.0507    0.0278    0.0000 C   0  0  0  0  0  0  0  0  0
   -3.0507   -0.7972    0.0000 O   0  0  0  0  0  0  0  0  0
   -3.7652   -1.2097    0.0000 C   0  0  0  0  0  0  0  0  0
   -4.4797   -0.7972    0.0000 C   0  0  0  0  0  0  0  0  0
   -5.1941   -1.2097    0.0000 C   0  0  0  0  0  0  0  0  0
   -5.1941   -2.0347    0.0000 C   0  0  0  0  0  0  0  0  0
   -5.9086   -2.4472    0.0000 C   0  0  0  0  0  0  0  0  0
   -6.6231   -2.0347    0.0000 C   0  0  0  0  0  0  0  0  0
   -6.6231   -1.2097    0.0000 C   0  0  0  0  0  0  0  0  0
   -5.9086   -0.7972    0.0000 C   0  0  0  0  0  0  0  0  0
   -2.3362    0.4403    0.0000 C   0  0  0  0  0  0  0  0  0
   -1.6218    0.0278    0.0000 N   0  0  0  0  0  0  0  0  0
   -0.9073    0.4403    0.0000 C   0  0  0  0  0  0  0  0  0
   -0.1928    0.0278    0.0000 C   0  0  0  0  0  0  0  0  0
    0.5216    0.4403    0.0000 O   0  0  0  0  0  0  0  0  0
    1.2361    0.0278    0.0000 C   0  0  0  0  0  0  0  0  0
    1.9506    0.4403    0.0000 C   0  0  0  0  0  0  0  0  0
    2.6651    0.0278    0.0000 C   0  0  0  0  0  0  0  0  0
    2.6651   -0.7972    0.0000 C   0  0  0  0  0  0  0  0  0
    1.9506   -1.2097    0.0000 C   0  0  0  0  0  0  0  0  0
    1.2361   -0.7972    0.0000 C   0  0  0  0  0  0  0  0  0
  1  2  1  0  0  0  0
  1  6  1  0  0  0  0
  2  3  1  0  0  0  0
  3  4  1  0  0  0  0
  3 13  1  0  0  0  0
  4  5  1  0  0  0  0
  5  6  1  0  0  0  0
  6  7  1  0  0  0  0
  7  8  4  0  0  0  0
  7 12  4  0  0  0  0
  8  9  4  0  0  0  0
  9 10  4  0  0  0  0
 10 11  4  0  0  0  0
 11 12  4  0  0  0  0
 13 14  1  0  0  0  0
 14 15  1  0  0  0  0
 15 16  1  0  0  0  0
 16 17  1  0  0  0  0
 17 18  1  0  0  0  0
 18 19  4  0  0  0  0
 18 23  4  0  0  0  0
 19 20  4  0  0  0  0
 20 21  4  0  0  0  0
 21 22  4  0  0  0  0
 22 23  4  0  0  0  0
M  END
>  <Name_Molregno>
469625

>  <5-HT1A>
7.21

>  <Alpha-1A>
6.14

>  <Alpha-1B>
6

$$$$
469628
  Marvin  02231216192D 0   1.00000     0.00000     0

 31 34  0  0  1  0  0  0  0  0999 V2000
   -3.0775   -0.0152    0.0000 O   0  0  0  0  0  0  0  0  0
   -2.3631    0.3973    0.0000 C   0  0  0  0  0  0  0  0  0
   -2.3631    1.2223    0.0000 C   0  0  0  0  0  0  0  0  0
   -3.0775    1.6348    0.0000 O   0  0  0  0  0  0  0  0  0
   -3.7920    1.2223    0.0000 C   0  0  0  0  0  0  0  0  0
   -3.7920    0.3973    0.0000 C   0  0  0  0  0  0  0  0  0
   -4.5851    0.6247    0.0000 C   0  0  0  0  0  0  0  0  0
   -5.1785    0.0516    0.0000 C   0  0  0  0  0  0  0  0  0
   -5.9716    0.2790    0.0000 C   0  0  0  0  0  0  0  0  0
   -6.1711    1.0795    0.0000 C   0  0  0  0  0  0  0  0  0
   -5.5777    1.6526    0.0000 C   0  0  0  0  0  0  0  0  0
   -4.7846    1.4252    0.0000 C   0  0  0  0  0  0  0  0  0
   -4.2292   -0.3023    0.0000 C   0  0  0  0  0  0  0  0  0
   -3.8419   -1.0307    0.0000 C   0  0  0  0  0  0  0  0  0
   -4.2791   -1.7304    0.0000 C   0  0  0  0  0  0  0  0  0
   -5.1036   -1.7016    0.0000 C   0  0  0  0  0  0  0  0  0
   -5.4909   -0.9732    0.0000 C   0  0  0  0  0  0  0  0  0
   -5.0537   -0.2735    0.0000 C   0  0  0  0  0  0  0  0  0
   -1.6486    1.6348    0.0000 C   0  0  0  0  0  0  0  0  0
   -0.9341    1.2223    0.0000 N   0  0  0  0  0  0  0  0  0
   -0.2197    1.6348    0.0000 C   0  0  0  0  0  0  0  0  0
    0.4948    1.2223    0.0000 C   0  0  0  0  0  0  0  0  0
    1.2093    1.6348    0.0000 O   0  0  0  0  0  0  0  0  0
    1.9238    1.2223    0.0000 C   0  0  0  0  0  0  0  0  0
    2.6382    1.6348    0.0000 C   0  0  0  0  0  0  0  0  0
    3.3527    1.2223    0.0000 C   0  0  0  0  0  0  0  0  0
    3.3527    0.3973    0.0000 C   0  0  0  0  0  0  0  0  0
    2.6382   -0.0152    0.0000 C   0  0  0  0  0  0  0  0  0
    1.9238    0.3973    0.0000 C   0  0  0  0  0  0  0  0  0
    1.2093   -0.0152    0.0000 O   0  0  0  0  0  0  0  0  0
    1.2093   -0.8402    0.0000 C   0  0  0  0  0  0  0  0  0
  1  2  1  0  0  0  0
  1  6  1  0  0  0  0
  2  3  1  0  0  0  0
  3  4  1  0  0  0  0
  3 19  1  0  0  0  0
  4  5  1  0  0  0  0
  5  6  1  0  0  0  0
  6  7  1  0  0  0  0
  6 13  1  0  0  0  0
  7  8  4  0  0  0  0
  7 12  4  0  0  0  0
  8  9  4  0  0  0  0
  9 10  4  0  0  0  0
 10 11  4  0  0  0  0
 11 12  4  0  0  0  0
 13 14  4  0  0  0  0
 13 18  4  0  0  0  0
 14 15  4  0  0  0  0
 15 16  4  0  0  0  0
 16 17  4  0  0  0  0
 17 18  4  0  0  0  0
 19 20  1  0  0  0  0
 20 21  1  0  0  0  0
 21 22  1  0  0  0  0
 22 23  1  0  0  0  0
 23 24  1  0  0  0  0
 24 25  4  0  0  0  0
 24 29  4  0  0  0  0
 25 26  4  0  0  0  0
 26 27  4  0  0  0  0
 27 28  4  0  0  0  0
 28 29  4  0  0  0  0
 29 30  1  0  0  0  0
 30 31  1  0  0  0  0
M  END
>  <Name_Molregno>
469628

>  <5-HT1A>
8.12

>  <Alpha-1A>
7.13

>  <Alpha-1B>
7.13

$$$$
469629
  Marvin  02231216192D 0   1.00000     0.00000     0

 33 36  0  0  1  0  0  0  0  0999 V2000
   -3.6522   -1.1307    0.0000 O   0  0  0  0  0  0  0  0  0
   -2.9378   -0.7182    0.0000 C   0  0  0  0  0  0  0  0  0
   -2.9378    0.1068    0.0000 C   0  0  0  0  0  0  0  0  0
   -3.6522    0.5193    0.0000 O   0  0  0  0  0  0  0  0  0
   -4.3667    0.1068    0.0000 C   0  0  0  0  0  0  0  0  0
   -4.3667   -0.7182    0.0000 C   0  0  0  0  0  0  0  0  0
   -4.5663   -1.5187    0.0000 C   0  0  0  0  0  0  0  0  0
   -3.9728   -2.0918    0.0000 C   0  0  0  0  0  0  0  0  0
   -4.1724   -2.8923    0.0000 C   0  0  0  0  0  0  0  0  0
   -4.9655   -3.1197    0.0000 C   0  0  0  0  0  0  0  0  0
   -5.5589   -2.5466    0.0000 C   0  0  0  0  0  0  0  0  0
   -5.3593   -1.7461    0.0000 C   0  0  0  0  0  0  0  0  0
   -5.1912   -0.7470    0.0000 C   0  0  0  0  0  0  0  0  0
   -5.5785   -1.4755    0.0000 C   0  0  0  0  0  0  0  0  0
   -6.4030   -1.5043    0.0000 C   0  0  0  0  0  0  0  0  0
   -6.8402   -0.8046    0.0000 C   0  0  0  0  0  0  0  0  0
   -6.4529   -0.0762    0.0000 C   0  0  0  0  0  0  0  0  0
   -5.6284   -0.0474    0.0000 C   0  0  0  0  0  0  0  0  0
   -2.2233    0.5193    0.0000 C   0  0  0  0  0  0  0  0  0
   -1.5088    0.1068    0.0000 N   0  0  0  0  0  0  0  0  0
   -0.7944    0.5193    0.0000 C   0  0  0  0  0  0  0  0  0
   -0.0799    0.1068    0.0000 C   0  0  0  0  0  0  0  0  0
    0.6346    0.5193    0.0000 O   0  0  0  0  0  0  0  0  0
    1.3491    0.1068    0.0000 C   0  0  0  0  0  0  0  0  0
    2.0635    0.5193    0.0000 C   0  0  0  0  0  0  0  0  0
    2.0635    1.3443    0.0000 O   0  0  0  0  0  0  0  0  0
    2.7780    1.7568    0.0000 C   0  0  0  0  0  0  0  0  0
    2.7780    0.1068    0.0000 C   0  0  0  0  0  0  0  0  0
    2.7780   -0.7182    0.0000 C   0  0  0  0  0  0  0  0  0
    2.0635   -1.1307    0.0000 C   0  0  0  0  0  0  0  0  0
    1.3491   -0.7182    0.0000 C   0  0  0  0  0  0  0  0  0
    0.6346   -1.1307    0.0000 O   0  0  0  0  0  0  0  0  0
    0.6346   -1.9557    0.0000 C   0  0  0  0  0  0  0  0  0
  1  2  1  0  0  0  0
  1  6  1  0  0  0  0
  2  3  1  0  0  0  0
  3  4  1  0  0  0  0
  3 19  1  0  0  0  0
  4  5  1  0  0  0  0
  5  6  1  0  0  0  0
  6  7  1  0  0  0  0
  6 13  1  0  0  0  0
  7  8  4  0  0  0  0
  7 12  4  0  0  0  0
  8  9  4  0  0  0  0
  9 10  4  0  0  0  0
 10 11  4  0  0  0  0
 11 12  4  0  0  0  0
 13 14  4  0  0  0  0
 13 18  4  0  0  0  0
 14 15  4  0  0  0  0
 15 16  4  0  0  0  0
 16 17  4  0  0  0  0
 17 18  4  0  0  0  0
 19 20  1  0  0  0  0
 20 21  1  0  0  0  0
 21 22  1  0  0  0  0
 22 23  1  0  0  0  0
 23 24  1  0  0  0  0
 24 25  4  0  0  0  0
 24 31  4  0  0  0  0
 25 26  1  0  0  0  0
 25 28  4  0  0  0  0
 26 27  1  0  0  0  0
 28 29  4  0  0  0  0
 29 30  4  0  0  0  0
 30 31  4  0  0  0  0
 31 32  1  0  0  0  0
 32 33  1  0  0  0  0
M  END
>  <Name_Molregno>
469629

>  <5-HT1A>
6.64

>  <Alpha-1A>
7.05

>  <Alpha-1B>
6.9

$$$$
469630
  Marvin  02231216192D 0   1.00000     0.00000     0

 29 32  0  0  1  0  0  0  0  0999 V2000
    0.0046    0.1418    0.0000 O   0  0  0  0  0  0  0  0  0
   -0.7098    0.5543    0.0000 C   0  0  0  0  0  0  0  0  0
   -0.7098    1.3793    0.0000 C   0  0  0  0  0  0  0  0  0
    0.0046    1.7918    0.0000 O   0  0  0  0  0  0  0  0  0
    0.7191    1.3793    0.0000 C   0  0  0  0  0  0  0  0  0
    0.7191    0.5543    0.0000 C   0  0  0  0  0  0  0  0  0
    1.4336    0.1418    0.0000 C   0  0  0  0  0  0  0  0  0
    2.1480    0.5543    0.0000 N   0  0  0  0  0  0  0  0  0
    2.8625    0.1418    0.0000 C   0  0  0  0  0  0  0  0  0
    3.5770    0.5543    0.0000 C   0  0  0  0  0  0  0  0  0
    4.2915    0.1418    0.0000 O   0  0  0  0  0  0  0  0  0
    5.0059    0.5543    0.0000 C   0  0  0  0  0  0  0  0  0
    5.0059    1.3793    0.0000 C   0  0  0  0  0  0  0  0  0
    5.7204    1.7918    0.0000 C   0  0  0  0  0  0  0  0  0
    6.4349    1.3793    0.0000 C   0  0  0  0  0  0  0  0  0
    6.4349    0.5543    0.0000 C   0  0  0  0  0  0  0  0  0
    5.7204    0.1418    0.0000 C   0  0  0  0  0  0  0  0  0
   -0.9094   -0.2462    0.0000 C   0  0  0  0  0  0  0  0  0
   -0.3160   -0.8193    0.0000 C   0  0  0  0  0  0  0  0  0
   -0.5156   -1.6198    0.0000 C   0  0  0  0  0  0  0  0  0
   -1.3086   -1.8472    0.0000 C   0  0  0  0  0  0  0  0  0
   -1.9021   -1.2741    0.0000 C   0  0  0  0  0  0  0  0  0
   -1.7025   -0.4736    0.0000 C   0  0  0  0  0  0  0  0  0
   -1.5343    0.5255    0.0000 C   0  0  0  0  0  0  0  0  0
   -1.9217   -0.2030    0.0000 C   0  0  0  0  0  0  0  0  0
   -2.7462   -0.2318    0.0000 C   0  0  0  0  0  0  0  0  0
   -3.1833    0.4679    0.0000 C   0  0  0  0  0  0  0  0  0
   -2.7960    1.1963    0.0000 C   0  0  0  0  0  0  0  0  0
   -1.9715    1.2251    0.0000 C   0  0  0  0  0  0  0  0  0
  1  2  1  0  0  0  0
  1  6  1  0  0  0  0
  2  3  1  0  0  0  0
  2 18  1  0  0  0  0
  2 24  1  0  0  0  0
  3  4  1  0  0  0  0
  4  5  1  0  0  0  0
  5  6  1  0  0  0  0
  6  7  1  0  0  0  0
  7  8  1  0  0  0  0
  8  9  1  0  0  0  0
  9 10  1  0  0  0  0
 10 11  1  0  0  0  0
 11 12  1  0  0  0  0
 12 13  4  0  0  0  0
 12 17  4  0  0  0  0
 13 14  4  0  0  0  0
 14 15  4  0  0  0  0
 15 16  4  0  0  0  0
 16 17  4  0  0  0  0
 18 19  4  0  0  0  0
 18 23  4  0  0  0  0
 19 20  4  0  0  0  0
 20 21  4  0  0  0  0
 21 22  4  0  0  0  0
 22 23  4  0  0  0  0
 24 25  4  0  0  0  0
 24 29  4  0  0  0  0
 25 26  4  0  0  0  0
 26 27  4  0  0  0  0
 27 28  4  0  0  0  0
 28 29  4  0  0  0  0
M  END
>  <Name_Molregno>
469630

>  <5-HT1A>
9.23

>  <Alpha-1A>
6.77

>  <Alpha-1B>
6.92

$$$$
469631
  Marvin  02231216192D 0   1.00000     0.00000     0

 31 34  0  0  1  0  0  0  0  0999 V2000
   -0.0078    0.1387    0.0000 O   0  0  0  0  0  0  0  0  0
   -0.7223    0.5512    0.0000 C   0  0  0  0  0  0  0  0  0
   -0.7223    1.3762    0.0000 C   0  0  0  0  0  0  0  0  0
   -0.0078    1.7887    0.0000 O   0  0  0  0  0  0  0  0  0
    0.7067    1.3762    0.0000 C   0  0  0  0  0  0  0  0  0
    0.7067    0.5512    0.0000 C   0  0  0  0  0  0  0  0  0
    1.4211    0.1387    0.0000 C   0  0  0  0  0  0  0  0  0
    2.1356    0.5512    0.0000 N   0  0  0  0  0  0  0  0  0
    2.8501    0.1387    0.0000 C   0  0  0  0  0  0  0  0  0
    3.5645    0.5512    0.0000 C   0  0  0  0  0  0  0  0  0
    4.2790    0.1387    0.0000 O   0  0  0  0  0  0  0  0  0
    4.9935    0.5512    0.0000 C   0  0  0  0  0  0  0  0  0
    4.9935    1.3762    0.0000 C   0  0  0  0  0  0  0  0  0
    5.7080    1.7887    0.0000 C   0  0  0  0  0  0  0  0  0
    6.4224    1.3762    0.0000 C   0  0  0  0  0  0  0  0  0
    6.4224    0.5512    0.0000 C   0  0  0  0  0  0  0  0  0
    5.7080    0.1387    0.0000 C   0  0  0  0  0  0  0  0  0
    5.7080   -0.6863    0.0000 O   0  0  0  0  0  0  0  0  0
    6.4224   -1.0988    0.0000 C   0  0  0  0  0  0  0  0  0
   -0.9219   -0.2493    0.0000 C   0  0  0  0  0  0  0  0  0
   -0.3284   -0.8224    0.0000 C   0  0  0  0  0  0  0  0  0
   -0.5280   -1.6228    0.0000 C   0  0  0  0  0  0  0  0  0
   -1.3210   -1.8502    0.0000 C   0  0  0  0  0  0  0  0  0
   -1.9145   -1.2772    0.0000 C   0  0  0  0  0  0  0  0  0
   -1.7149   -0.4767    0.0000 C   0  0  0  0  0  0  0  0  0
   -1.5468    0.5224    0.0000 C   0  0  0  0  0  0  0  0  0
   -1.9341   -0.2060    0.0000 C   0  0  0  0  0  0  0  0  0
   -2.7586   -0.2348    0.0000 C   0  0  0  0  0  0  0  0  0
   -3.1958    0.4649    0.0000 C   0  0  0  0  0  0  0  0  0
   -2.8085    1.1933    0.0000 C   0  0  0  0  0  0  0  0  0
   -1.9840    1.2221    0.0000 C   0  0  0  0  0  0  0  0  0
  1  2  1  0  0  0  0
  1  6  1  0  0  0  0
  2  3  1  0  0  0  0
  2 20  1  0  0  0  0
  2 26  1  0  0  0  0
  3  4  1  0  0  0  0
  4  5  1  0  0  0  0
  5  6  1  0  0  0  0
  6  7  1  0  0  0  0
  7  8  1  0  0  0  0
  8  9  1  0  0  0  0
  9 10  1  0  0  0  0
 10 11  1  0  0  0  0
 11 12  1  0  0  0  0
 12 13  4  0  0  0  0
 12 17  4  0  0  0  0
 13 14  4  0  0  0  0
 14 15  4  0  0  0  0
 15 16  4  0  0  0  0
 16 17  4  0  0  0  0
 17 18  1  0  0  0  0
 18 19  1  0  0  0  0
 20 21  4  0  0  0  0
 20 25  4  0  0  0  0
 21 22  4  0  0  0  0
 22 23  4  0  0  0  0
 23 24  4  0  0  0  0
 24 25  4  0  0  0  0
 26 27  4  0  0  0  0
 26 31  4  0  0  0  0
 27 28  4  0  0  0  0
 28 29  4  0  0  0  0
 29 30  4  0  0  0  0
 30 31  4  0  0  0  0
M  END
>  <Name_Molregno>
469631

>  <5-HT1A>
9.18

>  <Alpha-1A>
7.56

>  <Alpha-1B>
7.25

$$$$
469682
  Marvin  02231216192D 0   1.00000     0.00000     0

 33 36  0  0  1  0  0  0  0  0999 V2000
   -0.0570   -0.8720    0.0000 O   0  0  0  0  0  0  0  0  0
   -0.7715   -0.4595    0.0000 C   0  0  0  0  0  0  0  0  0
   -0.7715    0.3655    0.0000 C   0  0  0  0  0  0  0  0  0
   -0.0570    0.7780    0.0000 O   0  0  0  0  0  0  0  0  0
    0.6575    0.3655    0.0000 C   0  0  0  0  0  0  0  0  0
    0.6575   -0.4595    0.0000 C   0  0  0  0  0  0  0  0  0
    1.3719   -0.8720    0.0000 C   0  0  0  0  0  0  0  0  0
    2.0864   -0.4595    0.0000 N   0  0  0  0  0  0  0  0  0
    2.8009   -0.8720    0.0000 C   0  0  0  0  0  0  0  0  0
    3.5153   -0.4595    0.0000 C   0  0  0  0  0  0  0  0  0
    4.2298   -0.8720    0.0000 O   0  0  0  0  0  0  0  0  0
    4.9443   -0.4595    0.0000 C   0  0  0  0  0  0  0  0  0
    4.9443    0.3655    0.0000 C   0  0  0  0  0  0  0  0  0
    4.2298    0.7780    0.0000 O   0  0  0  0  0  0  0  0  0
    4.2298    1.6030    0.0000 C   0  0  0  0  0  0  0  0  0
    5.6588    0.7780    0.0000 C   0  0  0  0  0  0  0  0  0
    6.3732    0.3655    0.0000 C   0  0  0  0  0  0  0  0  0
    6.3732   -0.4595    0.0000 C   0  0  0  0  0  0  0  0  0
    5.6588   -0.8720    0.0000 C   0  0  0  0  0  0  0  0  0
    5.6588   -1.6970    0.0000 O   0  0  0  0  0  0  0  0  0
    6.3732   -2.1095    0.0000 C   0  0  0  0  0  0  0  0  0
   -0.9711   -1.2600    0.0000 C   0  0  0  0  0  0  0  0  0
   -0.3776   -1.8331    0.0000 C   0  0  0  0  0  0  0  0  0
   -0.5772   -2.6336    0.0000 C   0  0  0  0  0  0  0  0  0
   -1.3702   -2.8610    0.0000 C   0  0  0  0  0  0  0  0  0
   -1.9637   -2.2879    0.0000 C   0  0  0  0  0  0  0  0  0
   -1.7641   -1.4874    0.0000 C   0  0  0  0  0  0  0  0  0
   -1.5960   -0.4883    0.0000 C   0  0  0  0  0  0  0  0  0
   -1.9833   -1.2167    0.0000 C   0  0  0  0  0  0  0  0  0
   -2.8078   -1.2455    0.0000 C   0  0  0  0  0  0  0  0  0
   -3.2450   -0.5459    0.0000 C   0  0  0  0  0  0  0  0  0
   -2.8577    0.1825    0.0000 C   0  0  0  0  0  0  0  0  0
   -2.0332    0.2113    0.0000 C   0  0  0  0  0  0  0  0  0
  1  2  1  0  0  0  0
  1  6  1  0  0  0  0
  2  3  1  0  0  0  0
  2 22  1  0  0  0  0
  2 28  1  0  0  0  0
  3  4  1  0  0  0  0
  4  5  1  0  0  0  0
  5  6  1  0  0  0  0
  6  7  1  0  0  0  0
  7  8  1  0  0  0  0
  8  9  1  0  0  0  0
  9 10  1  0  0  0  0
 10 11  1  0  0  0  0
 11 12  1  0  0  0  0
 12 13  4  0  0  0  0
 12 19  4  0  0  0  0
 13 14  1  0  0  0  0
 13 16  4  0  0  0  0
 14 15  1  0  0  0  0
 16 17  4  0  0  0  0
 17 18  4  0  0  0  0
 18 19  4  0  0  0  0
 19 20  1  0  0  0  0
 20 21  1  0  0  0  0
 22 23  4  0  0  0  0
 22 27  4  0  0  0  0
 23 24  4  0  0  0  0
 24 25  4  0  0  0  0
 25 26  4  0  0  0  0
 26 27  4  0  0  0  0
 28 29  4  0  0  0  0
 28 33  4  0  0  0  0
 29 30  4  0  0  0  0
 30 31  4  0  0  0  0
 31 32  4  0  0  0  0
 32 33  4  0  0  0  0
M  END
>  <Name_Molregno>
469682

>  <5-HT1A>
8.85

>  <Alpha-1A>
6.47

>  <Alpha-1B>
6.49

$$$$
485853
  Marvin  02231216192D 0   1.00000     0.00000     0

 34 38  0  0  0  0  0  0  0  0999 V2000
   -8.8078   -3.6971    0.0000 S   0  0  0  0  0  0  0  0  0
   -8.3953   -2.9826    0.0000 O   0  0  0  0  0  0  0  0  0
   -9.4752   -3.2122    0.0000 O   0  0  0  0  0  0  0  0  0
   -8.0541   -4.0326    0.0000 N   0  0  0  0  0  0  0  0  0
   -8.1403   -4.8531    0.0000 C   0  0  0  0  0  0  0  0  0
   -8.9473   -5.0247    0.0000 C   0  0  0  0  0  0  0  0  0
   -9.3598   -4.3102    0.0000 C   0  0  0  0  0  0  0  0  0
   -7.3396   -3.6201    0.0000 C   0  0  0  0  0  0  0  0  0
   -7.3396   -2.7951    0.0000 C   0  0  0  0  0  0  0  0  0
   -6.6252   -2.3826    0.0000 C   0  0  0  0  0  0  0  0  0
   -5.9107   -2.7951    0.0000 C   0  0  0  0  0  0  0  0  0
   -5.9107   -3.6201    0.0000 C   0  0  0  0  0  0  0  0  0
   -6.6252   -4.0326    0.0000 C   0  0  0  0  0  0  0  0  0
   -6.6252   -1.5576    0.0000 C   0  0  0  0  0  0  0  0  0
   -5.9107   -1.1451    0.0000 C   0  0  0  0  0  0  0  0  0
   -5.9107   -0.3201    0.0000 C   0  0  0  0  0  0  0  0  0
   -5.1962    0.0924    0.0000 C   0  0  0  0  0  0  0  0  0
   -4.4818   -0.3201    0.0000 N   0  0  0  0  0  0  0  0  0
   -4.4818   -1.1451    0.0000 C   0  0  0  0  0  0  0  0  0
   -5.1962   -1.5576    0.0000 C   0  0  0  0  0  0  0  0  0
   -3.7673    0.0924    0.0000 C   0  0  0  0  0  0  0  0  0
   -3.7673    0.9174    0.0000 C   0  0  0  0  0  0  0  0  0
   -3.0528    1.3299    0.0000 O   0  0  0  0  0  0  0  0  0
   -3.0528    2.1549    0.0000 C   0  0  0  0  0  0  0  0  0
   -2.3383    2.5674    0.0000 C   0  0  0  0  0  0  0  0  0
   -2.3383    3.3924    0.0000 C   0  0  0  0  0  0  0  0  0
   -1.6239    3.8049    0.0000 N   0  0  0  0  0  0  0  0  0
   -0.9094    3.3924    0.0000 C   0  0  0  0  0  0  0  0  0
   -0.9094    2.5674    0.0000 C   0  0  0  0  0  0  0  0  0
   -1.6239    2.1549    0.0000 C   0  0  0  0  0  0  0  0  0
   -0.1949    3.8049    0.0000 C   0  0  0  0  0  0  0  0  0
   -3.0528    3.8049    0.0000 C   0  0  0  0  0  0  0  0  0
   -3.7673    3.3924    0.0000 C   0  0  0  0  0  0  0  0  0
   -3.7673    2.5674    0.0000 C   0  0  0  0  0  0  0  0  0
  1  2  2  0  0  0  0
  1  3  2  0  0  0  0
  1  4  1  0  0  0  0
  1  7  1  0  0  0  0
  4  5  1  0  0  0  0
  4  8  1  0  0  0  0
  5  6  1  0  0  0  0
  6  7  1  0  0  0  0
  8  9  4  0  0  0  0
  8 13  4  0  0  0  0
  9 10  4  0  0  0  0
 10 11  4  0  0  0  0
 10 14  1  0  0  0  0
 11 12  4  0  0  0  0
 12 13  4  0  0  0  0
 14 15  1  0  0  0  0
 15 16  1  0  0  0  0
 15 20  1  0  0  0  0
 16 17  1  0  0  0  0
 17 18  1  0  0  0  0
 18 19  1  0  0  0  0
 18 21  1  0  0  0  0
 19 20  1  0  0  0  0
 21 22  1  0  0  0  0
 22 23  1  0  0  0  0
 23 24  1  0  0  0  0
 24 25  4  0  0  0  0
 24 34  4  0  0  0  0
 25 26  4  0  0  0  0
 25 30  4  0  0  0  0
 26 27  4  0  0  0  0
 26 32  4  0  0  0  0
 27 28  4  0  0  0  0
 28 29  4  0  0  0  0
 28 31  1  0  0  0  0
 29 30  4  0  0  0  0
 32 33  4  0  0  0  0
 33 34  4  0  0  0  0
M  END
>  <Name_Molregno>
485853

>  <5-HT1A>
8.1

>  <5-HT1B>
7.9

>  <5-HT1D>
8.8

>  <5-HT1E>
5

>  <5-HT2A>
5.2

>  <5-HT2C>
5.4

>  <5-HT5>
5.8

>  <5-HT6>
5.8

>  <5-HT7>
7.8

>  <Alpha-1B>
6.8

>  <Beta-2>
5.8

>  <DOPAMINE D2>
6.3

>  <Serotonin transporter>
6.4

$$$$
486945
  Marvin  02231216192D 0   1.00000     0.00000     0

 32 35  0  0  0  0  0  0  0  0999 V2000
    2.0504   -5.0180    0.0000 S   0  0  0  0  0  0  0  0  0
    2.0504   -5.8430    0.0000 O   0  0  0  0  0  0  0  0  0
    2.8754   -5.0180    0.0000 O   0  0  0  0  0  0  0  0  0
    2.0504   -4.1930    0.0000 N   0  0  0  0  0  0  0  0  0
    2.7649   -3.7805    0.0000 C   0  0  0  0  0  0  0  0  0
    2.7649   -2.9555    0.0000 C   0  0  0  0  0  0  0  0  0
    3.4793   -2.5430    0.0000 C   0  0  0  0  0  0  0  0  0
    4.1938   -2.9555    0.0000 C   0  0  0  0  0  0  0  0  0
    4.1938   -3.7805    0.0000 C   0  0  0  0  0  0  0  0  0
    3.4793   -4.1930    0.0000 C   0  0  0  0  0  0  0  0  0
    3.4793   -1.7180    0.0000 C   0  0  0  0  0  0  0  0  0
    4.1938   -1.3055    0.0000 C   0  0  0  0  0  0  0  0  0
    4.1938   -0.4805    0.0000 C   0  0  0  0  0  0  0  0  0
    4.9083   -0.0680    0.0000 C   0  0  0  0  0  0  0  0  0
    5.6228   -0.4805    0.0000 N   0  0  0  0  0  0  0  0  0
    5.6228   -1.3055    0.0000 C   0  0  0  0  0  0  0  0  0
    4.9083   -1.7180    0.0000 C   0  0  0  0  0  0  0  0  0
    6.3372   -0.0680    0.0000 C   0  0  0  0  0  0  0  0  0
    6.3372    0.7570    0.0000 C   0  0  0  0  0  0  0  0  0
    7.0517    1.1695    0.0000 O   0  0  0  0  0  0  0  0  0
    7.0517    1.9945    0.0000 C   0  0  0  0  0  0  0  0  0
    7.7662    2.4070    0.0000 C   0  0  0  0  0  0  0  0  0
    7.7662    3.2320    0.0000 C   0  0  0  0  0  0  0  0  0
    8.4806    3.6445    0.0000 N   0  0  0  0  0  0  0  0  0
    9.1951    3.2320    0.0000 C   0  0  0  0  0  0  0  0  0
    9.1951    2.4070    0.0000 C   0  0  0  0  0  0  0  0  0
    8.4806    1.9945    0.0000 C   0  0  0  0  0  0  0  0  0
    9.9096    3.6445    0.0000 C   0  0  0  0  0  0  0  0  0
    7.0517    3.6445    0.0000 C   0  0  0  0  0  0  0  0  0
    6.3372    3.2320    0.0000 C   0  0  0  0  0  0  0  0  0
    6.3372    2.4070    0.0000 C   0  0  0  0  0  0  0  0  0
    1.2254   -5.0180    0.0000 C   0  0  0  0  0  0  0  0  0
  1  2  2  0  0  0  0
  1  3  2  0  0  0  0
  1  4  1  0  0  0  0
  1 32  1  0  0  0  0
  4  5  1  0  0  0  0
  5  6  4  0  0  0  0
  5 10  4  0  0  0  0
  6  7  4  0  0  0  0
  7  8  4  0  0  0  0
  7 11  1  0  0  0  0
  8  9  4  0  0  0  0
  9 10  4  0  0  0  0
 11 12  1  0  0  0  0
 12 13  1  0  0  0  0
 12 17  1  0  0  0  0
 13 14  1  0  0  0  0
 14 15  1  0  0  0  0
 15 16  1  0  0  0  0
 15 18  1  0  0  0  0
 16 17  1  0  0  0  0
 18 19  1  0  0  0  0
 19 20  1  0  0  0  0
 20 21  1  0  0  0  0
 21 22  4  0  0  0  0
 21 31  4  0  0  0  0
 22 23  4  0  0  0  0
 22 27  4  0  0  0  0
 23 24  4  0  0  0  0
 23 29  4  0  0  0  0
 24 25  4  0  0  0  0
 25 26  4  0  0  0  0
 25 28  1  0  0  0  0
 26 27  4  0  0  0  0
 29 30  4  0  0  0  0
 30 31  4  0  0  0  0
M  END
>  <Name_Molregno>
486945

>  <5-HT1A>
8.6

>  <5-HT1B>
8.7

>  <5-HT1D>
9.3

>  <5-HT1E>
5.6

>  <5-HT2A>
5.6

>  <5-HT2C>
6

>  <5-HT5>
5.9

>  <5-HT6>
5

>  <5-HT7>
7.7

>  <Alpha-1B>
6.7

>  <Beta-2>
6.3

>  <DOPAMINE D2>
7.2

>  <Serotonin transporter>
5.8

$$$$
498962
  Marvin  02231216192D 0   1.00000     0.00000     0

 29 31  0  0  0  0  0  0  0  0999 V2000
    4.6273    6.8992    0.0000 F   0  0  0  0  0  0  0  0  0
    4.6273    6.0742    0.0000 C   0  0  0  0  0  0  0  0  0
    5.3417    5.6617    0.0000 C   0  0  0  0  0  0  0  0  0
    5.3417    4.8367    0.0000 C   0  0  0  0  0  0  0  0  0
    4.6273    4.4242    0.0000 C   0  0  0  0  0  0  0  0  0
    3.9128    4.8367    0.0000 C   0  0  0  0  0  0  0  0  0
    3.9128    5.6617    0.0000 C   0  0  0  0  0  0  0  0  0
    4.6273    3.5992    0.0000 C   0  0  0  0  0  0  0  0  0
    5.3417    3.1867    0.0000 C   0  0  0  0  0  0  0  0  0
    5.3417    2.3617    0.0000 N   0  0  0  0  0  0  0  0  0
    6.0562    1.9492    0.0000 C   0  0  0  0  0  0  0  0  0
    6.0562    1.1242    0.0000 C   0  0  0  0  0  0  0  0  0
    5.3417    0.7117    0.0000 C   0  0  0  0  0  0  0  0  0
    4.6273    1.1242    0.0000 C   0  0  0  0  0  0  0  0  0
    4.6273    1.9492    0.0000 C   0  0  0  0  0  0  0  0  0
    5.3417   -0.1133    0.0000 C   0  0  0  0  0  0  0  0  0
    4.6273   -0.5258    0.0000 O   0  0  0  0  0  0  0  0  0
    6.0562   -0.5258    0.0000 C   0  0  0  0  0  0  0  0  0
    6.7707   -0.1133    0.0000 C   0  0  0  0  0  0  0  0  0
    7.4851   -0.5258    0.0000 C   0  0  0  0  0  0  0  0  0
    7.4851   -1.3508    0.0000 C   0  0  0  0  0  0  0  0  0
    6.7707   -1.7633    0.0000 C   0  0  0  0  0  0  0  0  0
    6.7707   -2.5883    0.0000 O   0  0  0  0  0  0  0  0  0
    7.4851   -3.0008    0.0000 C   0  0  0  0  0  0  0  0  0
    7.4851   -3.8258    0.0000 C   0  0  0  0  0  0  0  0  0
    8.1996   -4.2383    0.0000 F   0  0  0  0  0  0  0  0  0
    6.0562   -1.3508    0.0000 C   0  0  0  0  0  0  0  0  0
    5.3417   -1.7633    0.0000 O   0  0  0  0  0  0  0  0  0
    5.3417   -2.5883    0.0000 C   0  0  0  0  0  0  0  0  0
  1  2  1  0  0  0  0
  2  3  4  0  0  0  0
  2  7  4  0  0  0  0
  3  4  4  0  0  0  0
  4  5  4  0  0  0  0
  5  6  4  0  0  0  0
  5  8  1  0  0  0  0
  6  7  4  0  0  0  0
  8  9  1  0  0  0  0
  9 10  1  0  0  0  0
 10 11  1  0  0  0  0
 10 15  1  0  0  0  0
 11 12  1  0  0  0  0
 12 13  1  0  0  0  0
 13 14  1  0  0  0  0
 13 16  1  0  0  0  0
 14 15  1  0  0  0  0
 16 17  2  0  0  0  0
 16 18  1  0  0  0  0
 18 19  4  0  0  0  0
 18 27  4  0  0  0  0
 19 20  4  0  0  0  0
 20 21  4  0  0  0  0
 21 22  4  0  0  0  0
 22 23  1  0  0  0  0
 22 27  4  0  0  0  0
 23 24  1  0  0  0  0
 24 25  1  0  0  0  0
 25 26  1  0  0  0  0
 27 28  1  0  0  0  0
 28 29  1  0  0  0  0
M  END
>  <Name_Molregno>
498962

>  <5-HT1A>
5.77

>  <5-HT1B>
5.66

>  <5-HT1D>
6.15

>  <5-HT1E>
5

>  <5-HT2C>
6.89

>  <5-HT3>
5

>  <5-HT5>
5.8

>  <5-HT6>
5

>  <5-HT7>
6.68

>  <Alpha-1A>
6.84

>  <Alpha-1B>
6.26

>  <Alpha-2A>
6.06

>  <Alpha-2C>
6.48

>  <DOPAMINE D1>
5.85

>  <DOPAMINE D2>
5.42

>  <DOPAMINE D4>
6.76

>  <DOPAMINE D5>
5.13

>  <Dopamine transporter>
5

>  <HISTAMINE H1>
6.03

>  <HISTAMINE H2>
5.76

>  <HISTAMINE H3>
5

>  <Serotonin transporter>
5.51

$$$$
498964
  Marvin  02231216192D 0   1.00000     0.00000     0

 29 31  0  0  1  0  0  0  0  0999 V2000
    7.7806    5.8078    0.0000 F   0  0  0  0  0  0  0  0  0
    7.0662    5.3953    0.0000 C   0  0  0  0  0  0  0  0  0
    7.0662    4.5703    0.0000 C   0  0  0  0  0  0  0  0  0
    6.3517    4.1578    0.0000 O   0  0  0  0  0  0  0  0  0
    6.3517    3.3328    0.0000 C   0  0  0  0  0  0  0  0  0
    7.0662    2.9203    0.0000 C   0  0  0  0  0  0  0  0  0
    7.0662    2.0953    0.0000 C   0  0  0  0  0  0  0  0  0
    6.3517    1.6828    0.0000 C   0  0  0  0  0  0  0  0  0
    5.6372    2.0953    0.0000 C   0  0  0  0  0  0  0  0  0
    4.9227    1.6828    0.0000 C   0  0  0  0  0  0  0  0  0
    4.2083    2.0953    0.0000 O   0  0  0  0  0  0  0  0  0
    4.9227    0.8578    0.0000 C   0  0  0  0  0  0  0  0  0
    5.6372    0.4453    0.0000 C   0  0  0  0  0  0  0  0  0
    5.6372   -0.3797    0.0000 C   0  0  0  0  0  0  0  0  0
    4.9227   -0.7922    0.0000 N   0  0  0  0  0  0  0  0  0
    4.2083   -0.3797    0.0000 C   0  0  0  0  0  0  0  0  0
    4.2083    0.4453    0.0000 C   0  0  0  0  0  0  0  0  0
    4.9227   -1.6172    0.0000 C   0  0  0  0  0  0  0  0  0
    5.6372   -2.0297    0.0000 C   0  0  0  0  0  0  0  0  0
    5.6372   -2.8547    0.0000 C   0  0  0  0  0  0  0  0  0
    6.3517   -3.2672    0.0000 C   0  0  0  0  0  0  0  0  0
    6.3517   -4.0922    0.0000 C   0  0  0  0  0  0  0  0  0
    5.6372   -4.5047    0.0000 C   0  0  0  0  0  0  0  0  0
    4.9227   -4.0922    0.0000 C   0  0  0  0  0  0  0  0  0
    4.9227   -3.2672    0.0000 C   0  0  0  0  0  0  0  0  0
    5.6372   -5.3297    0.0000 C   0  0  0  0  0  0  0  0  0
    5.6372    2.9203    0.0000 C   0  0  0  0  0  0  0  0  0
    4.9227    3.3328    0.0000 O   0  0  0  0  0  0  0  0  0
    4.2083    2.9203    0.0000 C   0  0  0  0  0  0  0  0  0
  1  2  1  0  0  0  0
  2  3  1  0  0  0  0
  3  4  1  0  0  0  0
  4  5  1  0  0  0  0
  5  6  4  0  0  0  0
  5 27  4  0  0  0  0
  6  7  4  0  0  0  0
  7  8  4  0  0  0  0
  8  9  4  0  0  0  0
  9 10  1  0  0  0  0
  9 27  4  0  0  0  0
 10 11  1  0  0  0  0
 10 12  1  0  0  0  0
 12 13  1  0  0  0  0
 12 17  1  0  0  0  0
 13 14  1  0  0  0  0
 14 15  1  0  0  0  0
 15 16  1  0  0  0  0
 15 18  1  0  0  0  0
 16 17  1  0  0  0  0
 18 19  1  0  0  0  0
 19 20  1  0  0  0  0
 20 21  4  0  0  0  0
 20 25  4  0  0  0  0
 21 22  4  0  0  0  0
 22 23  4  0  0  0  0
 23 24  4  0  0  0  0
 23 26  1  0  0  0  0
 24 25  4  0  0  0  0
 27 28  1  0  0  0  0
 28 29  1  0  0  0  0
M  END
>  <Name_Molregno>
498964

>  <5-HT1A>
5

>  <5-HT1B>
5.31

>  <5-HT1D>
5.84

>  <5-HT1E>
5

>  <5-HT2C>
6.29

>  <5-HT3>
5

>  <5-HT5>
5

>  <5-HT6>
5

>  <5-HT7>
6.3

>  <Alpha-1B>
5

>  <Alpha-2A>
5

>  <Alpha-2C>
6.84

>  <DOPAMINE D1>
5.75

>  <DOPAMINE D2>
5

>  <DOPAMINE D4>
5.57

>  <Dopamine transporter>
5

>  <HISTAMINE H1>
6.36

>  <HISTAMINE H2>
5.94

>  <HISTAMINE H3>
5

>  <Serotonin transporter>
5.58

$$$$
513010
  Marvin  02231216192D 0   1.00000     0.00000     0

 22 24  0  0  1  0  0  0  0  0999 V2000
   -0.2296   -0.4433    0.0000 O   0  0  0  0  0  0  0  0  0
    0.5954   -0.4441    0.0000 C   0  0  0  0  0  0  0  0  0
    1.0086    0.2700    0.0000 O   0  0  0  0  0  0  0  0  0
    1.0072   -1.1590    0.0000 C   0  0  0  0  0  0  0  0  0
    1.8322   -1.1598    0.0000 C   0  0  0  0  0  0  0  0  0
    2.2440   -1.8747    0.0000 C   0  0  0  0  0  0  0  0  0
    1.8308   -2.5887    0.0000 C   0  0  0  0  0  0  0  0  0
    1.0058   -2.5879    0.0000 C   0  0  0  0  0  0  0  0  0
    0.5940   -1.8730    0.0000 C   0  0  0  0  0  0  0  0  0
   -0.6414    0.2716    0.0000 C   0  0  0  0  0  0  0  0  0
   -0.7796    1.0890    0.0000 C   0  0  0  0  0  0  0  0  0
   -1.7084    1.0735    0.0000 C   0  0  0  0  0  0  0  0  0
   -2.2690    1.5134    0.0000 N   0  0  0  0  0  0  0  0  0
   -2.1293    0.7003    0.0000 C   0  0  0  0  0  0  0  0  0
   -2.6492   -0.0120    0.0000 C   0  0  0  0  0  0  0  0  0
   -2.0289    0.3649    0.0000 C   0  0  0  0  0  0  0  0  0
   -1.1576    0.7003    0.0000 C   0  0  0  0  0  0  0  0  0
   -1.4378   -0.0757    0.0000 C   0  0  0  0  0  0  0  0  0
   -2.2499   -0.2210    0.0000 O   0  0  0  0  0  0  0  0  0
   -2.5301   -0.9969    0.0000 C   0  0  0  0  0  0  0  0  0
   -0.9059   -0.7063    0.0000 O   0  0  0  0  0  0  0  0  0
   -2.6916    2.2219    0.0000 C   0  0  0  0  0  0  0  0  0
  1  2  1  0  0  0  0
  1 10  1  0  0  0  0
  2  3  2  0  0  0  0
  2  4  1  0  0  0  0
  4  5  4  0  0  0  0
  4  9  4  0  0  0  0
  5  6  4  0  0  0  0
  6  7  4  0  0  0  0
  7  8  4  0  0  0  0
  8  9  4  0  0  0  0
 10 11  1  0  0  0  0
 10 17  1  0  0  0  0
 11 12  1  0  0  0  0
 12 13  1  0  0  0  0
 12 16  1  0  0  0  0
 13 14  1  0  0  0  0
 13 22  1  0  0  0  0
 14 15  1  0  0  0  0
 14 17  1  0  0  0  0
 15 16  1  0  0  0  0
 17 18  1  0  0  0  0
 18 19  1  0  0  0  0
 18 21  2  0  0  0  0
 19 20  1  0  0  0  0
M  END
>  <Name_Molregno>
513010

>  <5-HT1A>
5

>  <5-HT1B>
5.47

>  <5-HT1D>
5

>  <5-HT1E>
5

>  <5-HT3>
5.31

>  <5-HT5>
5

>  <5-HT6>
5

>  <5-HT7>
5

>  <Alpha-1A>
5.68

>  <Alpha-1B>
5

>  <Alpha-2A>
5

>  <Alpha-2C>
5

>  <Beta-1>
5

>  <Beta-2>
5

>  <DOPAMINE D1>
5

>  <DOPAMINE D2>
5

>  <DOPAMINE D4>
5

>  <DOPAMINE D5>
5

>  <Dopamine transporter>
6.67

>  <HISTAMINE H1>
5.67

>  <HISTAMINE H2>
5

>  <HISTAMINE H4>
5

>  <Muscarinic acetylcholine receptor M1>
5

>  <Muscarinic acetylcholine receptor M2>
5

>  <Muscarinic acetylcholine receptor M3>
5

>  <Muscarinic acetylcholine receptor M4>
5

>  <Muscarinic acetylcholine receptor M5>
5

>  <Norepinephrine transporter>
5.76

>  <Serotonin transporter>
6.68

$$$$
549798
  Marvin  02231216192D 0   1.00000     0.00000     0

 32 35  0  0  0  0  0  0  0  0999 V2000
   -2.3149   -2.3553    0.0000 O   0  0  0  0  0  0  0  0  0
   -1.6004   -2.7678    0.0000 C   0  0  0  0  0  0  0  0  0
   -1.6004   -3.5928    0.0000 C   0  0  0  0  0  0  0  0  0
   -0.8860   -4.0053    0.0000 C   0  0  0  0  0  0  0  0  0
   -0.8860   -4.8303    0.0000 N   0  0  0  0  0  0  0  0  0
   -0.1715   -5.2428    0.0000 C   0  0  0  0  0  0  0  0  0
   -0.1715   -6.0678    0.0000 C   0  0  0  0  0  0  0  0  0
   -0.8860   -6.4803    0.0000 C   0  0  0  0  0  0  0  0  0
   -1.6004   -6.0678    0.0000 C   0  0  0  0  0  0  0  0  0
   -1.6004   -5.2428    0.0000 C   0  0  0  0  0  0  0  0  0
   -2.3149   -1.5303    0.0000 C   0  0  0  0  0  0  0  0  0
   -3.0294   -1.1178    0.0000 C   0  0  0  0  0  0  0  0  0
   -3.0294   -0.2928    0.0000 C   0  0  0  0  0  0  0  0  0
   -2.3149    0.1197    0.0000 C   0  0  0  0  0  0  0  0  0
   -2.3149    0.9447    0.0000 N   0  0  0  0  0  0  0  0  0
   -3.0294    1.3572    0.0000 C   0  0  0  0  0  0  0  0  0
   -3.0294    2.1822    0.0000 C   0  0  0  0  0  0  0  0  0
   -2.3149    2.5947    0.0000 N   0  0  0  0  0  0  0  0  0
   -1.6004    2.1822    0.0000 C   0  0  0  0  0  0  0  0  0
   -1.6004    1.3572    0.0000 C   0  0  0  0  0  0  0  0  0
   -0.8860    0.9447    0.0000 O   0  0  0  0  0  0  0  0  0
   -2.3149    3.4197    0.0000 C   0  0  0  0  0  0  0  0  0
   -1.6004    3.8322    0.0000 O   0  0  0  0  0  0  0  0  0
   -3.0294    3.8322    0.0000 C   0  0  0  0  0  0  0  0  0
   -3.7438    3.4197    0.0000 C   0  0  0  0  0  0  0  0  0
   -4.4583    3.8322    0.0000 C   0  0  0  0  0  0  0  0  0
   -4.4583    4.6572    0.0000 C   0  0  0  0  0  0  0  0  0
   -3.7438    5.0697    0.0000 C   0  0  0  0  0  0  0  0  0
   -3.0294    4.6572    0.0000 C   0  0  0  0  0  0  0  0  0
   -5.1728    5.0697    0.0000 C   0  0  0  0  0  0  0  0  0
   -1.6004   -0.2928    0.0000 C   0  0  0  0  0  0  0  0  0
   -1.6004   -1.1178    0.0000 C   0  0  0  0  0  0  0  0  0
  1  2  1  0  0  0  0
  1 11  1  0  0  0  0
  2  3  1  0  0  0  0
  3  4  1  0  0  0  0
  4  5  1  0  0  0  0
  5  6  1  0  0  0  0
  5 10  1  0  0  0  0
  6  7  1  0  0  0  0
  7  8  1  0  0  0  0
  8  9  1  0  0  0  0
  9 10  1  0  0  0  0
 11 12  4  0  0  0  0
 11 32  4  0  0  0  0
 12 13  4  0  0  0  0
 13 14  4  0  0  0  0
 14 15  1  0  0  0  0
 14 31  4  0  0  0  0
 15 16  1  0  0  0  0
 15 20  1  0  0  0  0
 16 17  1  0  0  0  0
 17 18  1  0  0  0  0
 18 19  1  0  0  0  0
 18 22  1  0  0  0  0
 19 20  1  0  0  0  0
 20 21  2  0  0  0  0
 22 23  2  0  0  0  0
 22 24  1  0  0  0  0
 24 25  4  0  0  0  0
 24 29  4  0  0  0  0
 25 26  4  0  0  0  0
 26 27  4  0  0  0  0
 27 28  4  0  0  0  0
 27 30  1  0  0  0  0
 28 29  4  0  0  0  0
 31 32  4  0  0  0  0
M  END
>  <Name_Molregno>
549798

>  <Alpha-1A>
5.6

>  <Alpha-1B>
5.8

>  <HISTAMINE H1>
5.7

>  <HISTAMINE H3>
9.1

$$$$
549799
  Marvin  02231216192D 0   1.00000     0.00000     0

 29 31  0  0  0  0  0  0  0  0999 V2000
   -0.3825   -1.6405    0.0000 O   0  0  0  0  0  0  0  0  0
    0.3320   -1.2280    0.0000 C   0  0  0  0  0  0  0  0  0
    1.0465   -1.6405    0.0000 C   0  0  0  0  0  0  0  0  0
    1.7609   -1.2280    0.0000 C   0  0  0  0  0  0  0  0  0
    2.4754   -1.6405    0.0000 N   0  0  0  0  0  0  0  0  0
    3.1899   -1.2280    0.0000 C   0  0  0  0  0  0  0  0  0
    3.9043   -1.6405    0.0000 C   0  0  0  0  0  0  0  0  0
    3.9043   -2.4655    0.0000 C   0  0  0  0  0  0  0  0  0
    3.1899   -2.8780    0.0000 C   0  0  0  0  0  0  0  0  0
    2.4754   -2.4655    0.0000 C   0  0  0  0  0  0  0  0  0
   -1.0970   -1.2280    0.0000 C   0  0  0  0  0  0  0  0  0
   -1.8114   -1.6405    0.0000 C   0  0  0  0  0  0  0  0  0
   -2.5259   -1.2280    0.0000 C   0  0  0  0  0  0  0  0  0
   -2.5259   -0.4030    0.0000 C   0  0  0  0  0  0  0  0  0
   -3.2404    0.0095    0.0000 N   0  0  0  0  0  0  0  0  0
   -3.9548   -0.4030    0.0000 C   0  0  0  0  0  0  0  0  0
   -4.6693    0.0095    0.0000 C   0  0  0  0  0  0  0  0  0
   -4.6693    0.8345    0.0000 N   0  0  0  0  0  0  0  0  0
   -3.9548    1.2470    0.0000 C   0  0  0  0  0  0  0  0  0
   -3.2404    0.8345    0.0000 C   0  0  0  0  0  0  0  0  0
   -2.5259    1.2470    0.0000 O   0  0  0  0  0  0  0  0  0
   -5.3838    1.2470    0.0000 C   0  0  0  0  0  0  0  0  0
   -5.3838    2.0720    0.0000 O   0  0  0  0  0  0  0  0  0
   -6.0982    0.8345    0.0000 C   0  0  0  0  0  0  0  0  0
   -6.8127    0.4220    0.0000 C   0  0  0  0  0  0  0  0  0
   -6.5107    1.5489    0.0000 C   0  0  0  0  0  0  0  0  0
   -5.6857    0.1200    0.0000 C   0  0  0  0  0  0  0  0  0
   -1.8114    0.0095    0.0000 C   0  0  0  0  0  0  0  0  0
   -1.0970   -0.4030    0.0000 C   0  0  0  0  0  0  0  0  0
  1  2  1  0  0  0  0
  1 11  1  0  0  0  0
  2  3  1  0  0  0  0
  3  4  1  0  0  0  0
  4  5  1  0  0  0  0
  5  6  1  0  0  0  0
  5 10  1  0  0  0  0
  6  7  1  0  0  0  0
  7  8  1  0  0  0  0
  8  9  1  0  0  0  0
  9 10  1  0  0  0  0
 11 12  4  0  0  0  0
 11 29  4  0  0  0  0
 12 13  4  0  0  0  0
 13 14  4  0  0  0  0
 14 15  1  0  0  0  0
 14 28  4  0  0  0  0
 15 16  1  0  0  0  0
 15 20  1  0  0  0  0
 16 17  1  0  0  0  0
 17 18  1  0  0  0  0
 18 19  1  0  0  0  0
 18 22  1  0  0  0  0
 19 20  1  0  0  0  0
 20 21  2  0  0  0  0
 22 23  2  0  0  0  0
 22 24  1  0  0  0  0
 24 25  1  0  0  0  0
 24 26  1  0  0  0  0
 24 27  1  0  0  0  0
 28 29  4  0  0  0  0
M  END
>  <Name_Molregno>
549799

>  <Alpha-1A>
5.4

>  <Alpha-1B>
5.6

>  <HISTAMINE H1>
5.7

>  <HISTAMINE H3>
8.5

$$$$
549800
  Marvin  02231216192D 0   1.00000     0.00000     0

 33 37  0  0  0  0  0  0  0  0999 V2000
   -5.2125   -1.3071    0.0000 O   0  0  0  0  0  0  0  0  0
   -5.2125   -2.1321    0.0000 C   0  0  0  0  0  0  0  0  0
   -4.4980   -2.5446    0.0000 C   0  0  0  0  0  0  0  0  0
   -4.4980   -3.3696    0.0000 C   0  0  0  0  0  0  0  0  0
   -5.2125   -3.7821    0.0000 N   0  0  0  0  0  0  0  0  0
   -5.9269   -3.3696    0.0000 C   0  0  0  0  0  0  0  0  0
   -5.9269   -2.5446    0.0000 C   0  0  0  0  0  0  0  0  0
   -5.2125   -4.6071    0.0000 C   0  0  0  0  0  0  0  0  0
   -4.6291   -5.1904    0.0000 C   0  0  0  0  0  0  0  0  0
   -5.2125   -5.7738    0.0000 C   0  0  0  0  0  0  0  0  0
   -5.7958   -5.1904    0.0000 C   0  0  0  0  0  0  0  0  0
   -4.4980   -0.8946    0.0000 C   0  0  0  0  0  0  0  0  0
   -4.4980   -0.0696    0.0000 C   0  0  0  0  0  0  0  0  0
   -3.7835    0.3429    0.0000 C   0  0  0  0  0  0  0  0  0
   -3.0691   -0.0696    0.0000 C   0  0  0  0  0  0  0  0  0
   -2.3546    0.3429    0.0000 N   0  0  0  0  0  0  0  0  0
   -2.3546    1.1679    0.0000 C   0  0  0  0  0  0  0  0  0
   -1.6401    1.5804    0.0000 C   0  0  0  0  0  0  0  0  0
   -0.9257    1.1679    0.0000 N   0  0  0  0  0  0  0  0  0
   -0.9257    0.3429    0.0000 C   0  0  0  0  0  0  0  0  0
   -1.6401   -0.0696    0.0000 C   0  0  0  0  0  0  0  0  0
   -1.6401   -0.8946    0.0000 O   0  0  0  0  0  0  0  0  0
   -0.2112    1.5804    0.0000 C   0  0  0  0  0  0  0  0  0
   -0.2112    2.4054    0.0000 O   0  0  0  0  0  0  0  0  0
    0.5033    1.1679    0.0000 C   0  0  0  0  0  0  0  0  0
    1.2178    1.5804    0.0000 C   0  0  0  0  0  0  0  0  0
    1.9322    1.1679    0.0000 C   0  0  0  0  0  0  0  0  0
    1.9322    0.3429    0.0000 C   0  0  0  0  0  0  0  0  0
    1.2178   -0.0696    0.0000 C   0  0  0  0  0  0  0  0  0
    0.5033    0.3429    0.0000 C   0  0  0  0  0  0  0  0  0
    2.6467   -0.0696    0.0000 C   0  0  0  0  0  0  0  0  0
   -3.0691   -0.8946    0.0000 C   0  0  0  0  0  0  0  0  0
   -3.7835   -1.3071    0.0000 C   0  0  0  0  0  0  0  0  0
  1  2  1  0  0  0  0
  1 12  1  0  0  0  0
  2  3  1  0  0  0  0
  2  7  1  0  0  0  0
  3  4  1  0  0  0  0
  4  5  1  0  0  0  0
  5  6  1  0  0  0  0
  5  8  1  0  0  0  0
  6  7  1  0  0  0  0
  8  9  1  0  0  0  0
  8 11  1  0  0  0  0
  9 10  1  0  0  0  0
 10 11  1  0  0  0  0
 12 13  4  0  0  0  0
 12 33  4  0  0  0  0
 13 14  4  0  0  0  0
 14 15  4  0  0  0  0
 15 16  1  0  0  0  0
 15 32  4  0  0  0  0
 16 17  1  0  0  0  0
 16 21  1  0  0  0  0
 17 18  1  0  0  0  0
 18 19  1  0  0  0  0
 19 20  1  0  0  0  0
 19 23  1  0  0  0  0
 20 21  1  0  0  0  0
 21 22  2  0  0  0  0
 23 24  2  0  0  0  0
 23 25  1  0  0  0  0
 25 26  4  0  0  0  0
 25 30  4  0  0  0  0
 26 27  4  0  0  0  0
 27 28  4  0  0  0  0
 28 29  4  0  0  0  0
 28 31  1  0  0  0  0
 29 30  4  0  0  0  0
 32 33  4  0  0  0  0
M  END
>  <Name_Molregno>
549800

>  <Alpha-1A>
5.4

>  <Alpha-1B>
5.7

>  <HISTAMINE H1>
5.7

>  <HISTAMINE H3>
9

$$$$
549801
  Marvin  02231216192D 0   1.00000     0.00000     0

 33 37  0  0  0  0  0  0  0  0999 V2000
   -8.3495   -3.2048    0.0000 F   0  0  0  0  0  0  0  0  0
   -7.6350   -2.7923    0.0000 C   0  0  0  0  0  0  0  0  0
   -7.6350   -1.9673    0.0000 C   0  0  0  0  0  0  0  0  0
   -6.9205   -1.5548    0.0000 C   0  0  0  0  0  0  0  0  0
   -6.2060   -1.9673    0.0000 C   0  0  0  0  0  0  0  0  0
   -6.2060   -2.7923    0.0000 C   0  0  0  0  0  0  0  0  0
   -6.9205   -3.2048    0.0000 C   0  0  0  0  0  0  0  0  0
   -5.4916   -1.5548    0.0000 C   0  0  0  0  0  0  0  0  0
   -5.4916   -0.7298    0.0000 O   0  0  0  0  0  0  0  0  0
   -4.7771   -1.9673    0.0000 N   0  0  0  0  0  0  0  0  0
   -4.0626   -1.5548    0.0000 C   0  0  0  0  0  0  0  0  0
   -3.3482   -1.9673    0.0000 C   0  0  0  0  0  0  0  0  0
   -2.6337   -1.5548    0.0000 O   0  0  0  0  0  0  0  0  0
   -3.3482   -2.7923    0.0000 N   0  0  0  0  0  0  0  0  0
   -4.0626   -3.2048    0.0000 C   0  0  0  0  0  0  0  0  0
   -4.7771   -2.7923    0.0000 C   0  0  0  0  0  0  0  0  0
   -2.6337   -3.2048    0.0000 C   0  0  0  0  0  0  0  0  0
   -1.9192   -2.7923    0.0000 C   0  0  0  0  0  0  0  0  0
   -1.2047   -3.2048    0.0000 C   0  0  0  0  0  0  0  0  0
   -1.2047   -4.0298    0.0000 C   0  0  0  0  0  0  0  0  0
   -0.4903   -4.4423    0.0000 O   0  0  0  0  0  0  0  0  0
   -0.4903   -5.2673    0.0000 C   0  0  0  0  0  0  0  0  0
    0.2242   -5.6798    0.0000 C   0  0  0  0  0  0  0  0  0
    0.2242   -6.5048    0.0000 C   0  0  0  0  0  0  0  0  0
   -0.4903   -6.9173    0.0000 N   0  0  0  0  0  0  0  0  0
   -1.2047   -6.5048    0.0000 C   0  0  0  0  0  0  0  0  0
   -1.2047   -5.6798    0.0000 C   0  0  0  0  0  0  0  0  0
   -0.4903   -7.7423    0.0000 C   0  0  0  0  0  0  0  0  0
    0.0931   -8.3256    0.0000 C   0  0  0  0  0  0  0  0  0
   -0.4903   -8.9090    0.0000 C   0  0  0  0  0  0  0  0  0
   -1.0736   -8.3256    0.0000 C   0  0  0  0  0  0  0  0  0
   -1.9192   -4.4423    0.0000 C   0  0  0  0  0  0  0  0  0
   -2.6337   -4.0298    0.0000 C   0  0  0  0  0  0  0  0  0
  1  2  1  0  0  0  0
  2  3  4  0  0  0  0
  2  7  4  0  0  0  0
  3  4  4  0  0  0  0
  4  5  4  0  0  0  0
  5  6  4  0  0  0  0
  5  8  1  0  0  0  0
  6  7  4  0  0  0  0
  8  9  2  0  0  0  0
  8 10  1  0  0  0  0
 10 11  1  0  0  0  0
 10 16  1  0  0  0  0
 11 12  1  0  0  0  0
 12 13  2  0  0  0  0
 12 14  1  0  0  0  0
 14 15  1  0  0  0  0
 14 17  1  0  0  0  0
 15 16  1  0  0  0  0
 17 18  4  0  0  0  0
 17 33  4  0  0  0  0
 18 19  4  0  0  0  0
 19 20  4  0  0  0  0
 20 21  1  0  0  0  0
 20 32  4  0  0  0  0
 21 22  1  0  0  0  0
 22 23  1  0  0  0  0
 22 27  1  0  0  0  0
 23 24  1  0  0  0  0
 24 25  1  0  0  0  0
 25 26  1  0  0  0  0
 25 28  1  0  0  0  0
 26 27  1  0  0  0  0
 28 29  1  0  0  0  0
 28 31  1  0  0  0  0
 29 30  1  0  0  0  0
 30 31  1  0  0  0  0
 32 33  4  0  0  0  0
M  END
>  <Name_Molregno>
549801

>  <Alpha-1A>
5.5

>  <Alpha-1B>
5.5

>  <HISTAMINE H1>
5.6

>  <HISTAMINE H3>
9.2

$$$$
553241
  Marvin  02231216192D 0   1.00000     0.00000     0

 31 34  0  0  0  0  0  0  0  0999 V2000
   -2.2432   -2.7214    0.0000 O   0  0  0  0  0  0  0  0  0
   -1.5287   -3.1339    0.0000 C   0  0  0  0  0  0  0  0  0
   -1.5287   -3.9589    0.0000 C   0  0  0  0  0  0  0  0  0
   -0.8142   -4.3714    0.0000 C   0  0  0  0  0  0  0  0  0
   -0.8142   -5.1964    0.0000 N   0  0  0  0  0  0  0  0  0
   -0.0998   -5.6089    0.0000 C   0  0  0  0  0  0  0  0  0
   -0.0998   -6.4339    0.0000 C   0  0  0  0  0  0  0  0  0
   -0.8142   -6.8464    0.0000 C   0  0  0  0  0  0  0  0  0
   -1.5287   -6.4339    0.0000 C   0  0  0  0  0  0  0  0  0
   -1.5287   -5.6089    0.0000 C   0  0  0  0  0  0  0  0  0
   -2.2432   -1.8964    0.0000 C   0  0  0  0  0  0  0  0  0
   -2.9576   -1.4839    0.0000 C   0  0  0  0  0  0  0  0  0
   -2.9576   -0.6589    0.0000 C   0  0  0  0  0  0  0  0  0
   -2.2432   -0.2464    0.0000 C   0  0  0  0  0  0  0  0  0
   -2.2432    0.5786    0.0000 N   0  0  0  0  0  0  0  0  0
   -2.9576    0.9911    0.0000 C   0  0  0  0  0  0  0  0  0
   -2.9576    1.8161    0.0000 C   0  0  0  0  0  0  0  0  0
   -2.2432    2.2286    0.0000 N   0  0  0  0  0  0  0  0  0
   -1.5287    1.8161    0.0000 C   0  0  0  0  0  0  0  0  0
   -1.5287    0.9911    0.0000 C   0  0  0  0  0  0  0  0  0
   -0.8142    0.5786    0.0000 O   0  0  0  0  0  0  0  0  0
   -2.2432    3.0536    0.0000 C   0  0  0  0  0  0  0  0  0
   -1.5287    3.4661    0.0000 O   0  0  0  0  0  0  0  0  0
   -2.9576    3.4661    0.0000 C   0  0  0  0  0  0  0  0  0
   -3.6721    3.0536    0.0000 C   0  0  0  0  0  0  0  0  0
   -4.3866    3.4661    0.0000 C   0  0  0  0  0  0  0  0  0
   -4.3866    4.2911    0.0000 C   0  0  0  0  0  0  0  0  0
   -3.6721    4.7036    0.0000 C   0  0  0  0  0  0  0  0  0
   -2.9576    4.2911    0.0000 C   0  0  0  0  0  0  0  0  0
   -1.5287   -0.6589    0.0000 C   0  0  0  0  0  0  0  0  0
   -1.5287   -1.4839    0.0000 C   0  0  0  0  0  0  0  0  0
  1  2  1  0  0  0  0
  1 11  1  0  0  0  0
  2  3  1  0  0  0  0
  3  4  1  0  0  0  0
  4  5  1  0  0  0  0
  5  6  1  0  0  0  0
  5 10  1  0  0  0  0
  6  7  1  0  0  0  0
  7  8  1  0  0  0  0
  8  9  1  0  0  0  0
  9 10  1  0  0  0  0
 11 12  4  0  0  0  0
 11 31  4  0  0  0  0
 12 13  4  0  0  0  0
 13 14  4  0  0  0  0
 14 15  1  0  0  0  0
 14 30  4  0  0  0  0
 15 16  1  0  0  0  0
 15 20  1  0  0  0  0
 16 17  1  0  0  0  0
 17 18  1  0  0  0  0
 18 19  1  0  0  0  0
 18 22  1  0  0  0  0
 19 20  1  0  0  0  0
 20 21  2  0  0  0  0
 22 23  2  0  0  0  0
 22 24  1  0  0  0  0
 24 25  4  0  0  0  0
 24 29  4  0  0  0  0
 25 26  4  0  0  0  0
 26 27  4  0  0  0  0
 27 28  4  0  0  0  0
 28 29  4  0  0  0  0
 30 31  4  0  0  0  0
M  END
>  <Name_Molregno>
553241

>  <Alpha-1A>
5.6

>  <Alpha-1B>
5.6

>  <HISTAMINE H1>
5.9

>  <HISTAMINE H3>
8.4

$$$$
553351
  Marvin  02231216192D 0   1.00000     0.00000     0

 32 36  0  0  0  0  0  0  0  0999 V2000
   -4.9100   -1.2056    0.0000 O   0  0  0  0  0  0  0  0  0
   -4.9100   -2.0306    0.0000 C   0  0  0  0  0  0  0  0  0
   -4.1955   -2.4431    0.0000 C   0  0  0  0  0  0  0  0  0
   -4.1955   -3.2681    0.0000 C   0  0  0  0  0  0  0  0  0
   -4.9100   -3.6806    0.0000 N   0  0  0  0  0  0  0  0  0
   -5.6244   -3.2681    0.0000 C   0  0  0  0  0  0  0  0  0
   -5.6244   -2.4431    0.0000 C   0  0  0  0  0  0  0  0  0
   -4.9100   -4.5056    0.0000 C   0  0  0  0  0  0  0  0  0
   -4.3266   -5.0890    0.0000 C   0  0  0  0  0  0  0  0  0
   -4.9100   -5.6723    0.0000 C   0  0  0  0  0  0  0  0  0
   -5.4933   -5.0890    0.0000 C   0  0  0  0  0  0  0  0  0
   -4.1955   -0.7931    0.0000 C   0  0  0  0  0  0  0  0  0
   -4.1955    0.0319    0.0000 C   0  0  0  0  0  0  0  0  0
   -3.4810    0.4444    0.0000 C   0  0  0  0  0  0  0  0  0
   -2.7665    0.0319    0.0000 C   0  0  0  0  0  0  0  0  0
   -2.0521    0.4444    0.0000 N   0  0  0  0  0  0  0  0  0
   -2.0521    1.2694    0.0000 C   0  0  0  0  0  0  0  0  0
   -1.3376    1.6819    0.0000 C   0  0  0  0  0  0  0  0  0
   -0.6231    1.2694    0.0000 N   0  0  0  0  0  0  0  0  0
   -0.6231    0.4444    0.0000 C   0  0  0  0  0  0  0  0  0
   -1.3376    0.0319    0.0000 C   0  0  0  0  0  0  0  0  0
   -1.3376   -0.7931    0.0000 O   0  0  0  0  0  0  0  0  0
    0.0913    1.6819    0.0000 C   0  0  0  0  0  0  0  0  0
    0.0913    2.5069    0.0000 O   0  0  0  0  0  0  0  0  0
    0.8058    1.2694    0.0000 C   0  0  0  0  0  0  0  0  0
    1.5203    1.6819    0.0000 C   0  0  0  0  0  0  0  0  0
    2.2348    1.2694    0.0000 C   0  0  0  0  0  0  0  0  0
    2.2348    0.4444    0.0000 C   0  0  0  0  0  0  0  0  0
    1.5203    0.0319    0.0000 C   0  0  0  0  0  0  0  0  0
    0.8058    0.4444    0.0000 C   0  0  0  0  0  0  0  0  0
   -2.7665   -0.7931    0.0000 C   0  0  0  0  0  0  0  0  0
   -3.4810   -1.2056    0.0000 C   0  0  0  0  0  0  0  0  0
  1  2  1  0  0  0  0
  1 12  1  0  0  0  0
  2  3  1  0  0  0  0
  2  7  1  0  0  0  0
  3  4  1  0  0  0  0
  4  5  1  0  0  0  0
  5  6  1  0  0  0  0
  5  8  1  0  0  0  0
  6  7  1  0  0  0  0
  8  9  1  0  0  0  0
  8 11  1  0  0  0  0
  9 10  1  0  0  0  0
 10 11  1  0  0  0  0
 12 13  4  0  0  0  0
 12 32  4  0  0  0  0
 13 14  4  0  0  0  0
 14 15  4  0  0  0  0
 15 16  1  0  0  0  0
 15 31  4  0  0  0  0
 16 17  1  0  0  0  0
 16 21  1  0  0  0  0
 17 18  1  0  0  0  0
 18 19  1  0  0  0  0
 19 20  1  0  0  0  0
 19 23  1  0  0  0  0
 20 21  1  0  0  0  0
 21 22  2  0  0  0  0
 23 24  2  0  0  0  0
 23 25  1  0  0  0  0
 25 26  4  0  0  0  0
 25 30  4  0  0  0  0
 26 27  4  0  0  0  0
 27 28  4  0  0  0  0
 28 29  4  0  0  0  0
 29 30  4  0  0  0  0
 31 32  4  0  0  0  0
M  END
>  <Name_Molregno>
553351

>  <Alpha-1A>
5.4

>  <Alpha-1B>
5.6

>  <HISTAMINE H1>
5.6

>  <HISTAMINE H3>
8.5

$$$$
553352
  Marvin  02231216192D 0   1.00000     0.00000     0

 33 37  0  0  0  0  0  0  0  0999 V2000
   -8.3495   -3.2048    0.0000 Cl  0  0  0  0  0  0  0  0  0
   -7.6350   -2.7923    0.0000 C   0  0  0  0  0  0  0  0  0
   -7.6350   -1.9673    0.0000 C   0  0  0  0  0  0  0  0  0
   -6.9205   -1.5548    0.0000 C   0  0  0  0  0  0  0  0  0
   -6.2060   -1.9673    0.0000 C   0  0  0  0  0  0  0  0  0
   -6.2060   -2.7923    0.0000 C   0  0  0  0  0  0  0  0  0
   -6.9205   -3.2048    0.0000 C   0  0  0  0  0  0  0  0  0
   -5.4916   -1.5548    0.0000 C   0  0  0  0  0  0  0  0  0
   -5.4916   -0.7298    0.0000 O   0  0  0  0  0  0  0  0  0
   -4.7771   -1.9673    0.0000 N   0  0  0  0  0  0  0  0  0
   -4.0626   -1.5548    0.0000 C   0  0  0  0  0  0  0  0  0
   -3.3482   -1.9673    0.0000 C   0  0  0  0  0  0  0  0  0
   -2.6337   -1.5548    0.0000 O   0  0  0  0  0  0  0  0  0
   -3.3482   -2.7923    0.0000 N   0  0  0  0  0  0  0  0  0
   -4.0626   -3.2048    0.0000 C   0  0  0  0  0  0  0  0  0
   -4.7771   -2.7923    0.0000 C   0  0  0  0  0  0  0  0  0
   -2.6337   -3.2048    0.0000 C   0  0  0  0  0  0  0  0  0
   -1.9192   -2.7923    0.0000 C   0  0  0  0  0  0  0  0  0
   -1.2047   -3.2048    0.0000 C   0  0  0  0  0  0  0  0  0
   -1.2047   -4.0298    0.0000 C   0  0  0  0  0  0  0  0  0
   -0.4903   -4.4423    0.0000 O   0  0  0  0  0  0  0  0  0
   -0.4903   -5.2673    0.0000 C   0  0  0  0  0  0  0  0  0
    0.2242   -5.6798    0.0000 C   0  0  0  0  0  0  0  0  0
    0.2242   -6.5048    0.0000 C   0  0  0  0  0  0  0  0  0
   -0.4903   -6.9173    0.0000 N   0  0  0  0  0  0  0  0  0
   -1.2047   -6.5048    0.0000 C   0  0  0  0  0  0  0  0  0
   -1.2047   -5.6798    0.0000 C   0  0  0  0  0  0  0  0  0
   -0.4903   -7.7423    0.0000 C   0  0  0  0  0  0  0  0  0
    0.0931   -8.3256    0.0000 C   0  0  0  0  0  0  0  0  0
   -0.4903   -8.9090    0.0000 C   0  0  0  0  0  0  0  0  0
   -1.0736   -8.3256    0.0000 C   0  0  0  0  0  0  0  0  0
   -1.9192   -4.4423    0.0000 C   0  0  0  0  0  0  0  0  0
   -2.6337   -4.0298    0.0000 C   0  0  0  0  0  0  0  0  0
  1  2  1  0  0  0  0
  2  3  4  0  0  0  0
  2  7  4  0  0  0  0
  3  4  4  0  0  0  0
  4  5  4  0  0  0  0
  5  6  4  0  0  0  0
  5  8  1  0  0  0  0
  6  7  4  0  0  0  0
  8  9  2  0  0  0  0
  8 10  1  0  0  0  0
 10 11  1  0  0  0  0
 10 16  1  0  0  0  0
 11 12  1  0  0  0  0
 12 13  2  0  0  0  0
 12 14  1  0  0  0  0
 14 15  1  0  0  0  0
 14 17  1  0  0  0  0
 15 16  1  0  0  0  0
 17 18  4  0  0  0  0
 17 33  4  0  0  0  0
 18 19  4  0  0  0  0
 19 20  4  0  0  0  0
 20 21  1  0  0  0  0
 20 32  4  0  0  0  0
 21 22  1  0  0  0  0
 22 23  1  0  0  0  0
 22 27  1  0  0  0  0
 23 24  1  0  0  0  0
 24 25  1  0  0  0  0
 25 26  1  0  0  0  0
 25 28  1  0  0  0  0
 26 27  1  0  0  0  0
 28 29  1  0  0  0  0
 28 31  1  0  0  0  0
 29 30  1  0  0  0  0
 30 31  1  0  0  0  0
 32 33  4  0  0  0  0
M  END
>  <Name_Molregno>
553352

>  <Alpha-1A>
5.4

>  <Alpha-1B>
5.6

>  <HISTAMINE H1>
5.7

>  <HISTAMINE H3>
9.2

$$$$
554806
  Marvin  02231216192D 0   1.00000     0.00000     0

 37 40  0  0  1  0  0  0  0  0999 V2000
   -9.8882    1.6289    0.0000 O   0  0  0  0  0  0  0  0  0
  -10.6026    1.2164    0.0000 C   0  0  0  0  0  0  0  0  0
  -10.6026    0.3914    0.0000 C   0  0  0  0  0  0  0  0  0
   -9.8882   -0.0211    0.0000 O   0  0  0  0  0  0  0  0  0
   -9.1737    0.3914    0.0000 C   0  0  0  0  0  0  0  0  0
   -9.1737    1.2164    0.0000 C   0  0  0  0  0  0  0  0  0
   -8.4592    1.6289    0.0000 C   0  0  0  0  0  0  0  0  0
   -8.4592    2.4539    0.0000 O   0  0  0  0  0  0  0  0  0
   -7.7448    1.2164    0.0000 N   0  0  0  0  0  0  0  0  0
   -7.0303    1.6289    0.0000 C   0  0  0  0  0  0  0  0  0
   -6.3158    1.2164    0.0000 C   0  0  0  0  0  0  0  0  0
   -5.6014    1.6289    0.0000 C   0  0  0  0  0  0  0  0  0
   -4.8869    1.2164    0.0000 C   0  0  0  0  0  0  0  0  0
   -4.1724    1.6289    0.0000 C   0  0  0  0  0  0  0  0  0
   -3.4579    1.2164    0.0000 C   0  0  0  0  0  0  0  0  0
   -2.7435    1.6289    0.0000 N   0  0  0  0  0  0  0  0  0
   -2.7435    2.4539    0.0000 C   0  0  0  0  0  0  0  0  0
   -2.0290    1.2164    0.0000 C   0  0  0  0  0  0  0  0  0
   -1.3145    1.6289    0.0000 N   0  0  0  0  0  0  0  0  0
   -0.6001    1.2164    0.0000 C   0  0  0  0  0  0  0  0  0
    0.1144    1.6289    0.0000 N   0  0  0  0  0  0  0  0  0
   -0.6001    0.3914    0.0000 C   0  0  0  0  0  0  0  0  0
    0.1144   -0.0211    0.0000 C   0  0  0  0  0  0  0  0  0
    0.1144   -0.8461    0.0000 C   0  0  0  0  0  0  0  0  0
    0.8289   -1.2586    0.0000 O   0  0  0  0  0  0  0  0  0
    1.5434   -0.8461    0.0000 C   0  0  0  0  0  0  0  0  0
   -0.6001   -1.2586    0.0000 C   0  0  0  0  0  0  0  0  0
   -0.6001   -2.0836    0.0000 O   0  0  0  0  0  0  0  0  0
   -1.3145   -2.4961    0.0000 C   0  0  0  0  0  0  0  0  0
   -1.3145   -0.8461    0.0000 C   0  0  0  0  0  0  0  0  0
   -1.3145   -0.0211    0.0000 C   0  0  0  0  0  0  0  0  0
   -2.0290    0.3914    0.0000 N   0  0  0  0  0  0  0  0  0
   -7.7448    0.3914    0.0000 C   0  0  0  0  0  0  0  0  0
  -11.3171   -0.0211    0.0000 C   0  0  0  0  0  0  0  0  0
  -12.0316    0.3914    0.0000 C   0  0  0  0  0  0  0  0  0
  -12.0316    1.2164    0.0000 C   0  0  0  0  0  0  0  0  0
  -11.3171    1.6289    0.0000 C   0  0  0  0  0  0  0  0  0
  1  2  1  0  0  0  0
  1  6  1  0  0  0  0
  2  3  4  0  0  0  0
  2 37  4  0  0  0  0
  3  4  1  0  0  0  0
  3 34  4  0  0  0  0
  4  5  1  0  0  0  0
  5  6  1  0  0  0  0
  6  7  1  0  0  0  0
  7  8  2  0  0  0  0
  7  9  1  0  0  0  0
  9 10  1  0  0  0  0
  9 33  1  0  0  0  0
 10 11  1  0  0  0  0
 11 12  1  0  0  0  0
 12 13  1  0  0  0  0
 13 14  1  0  0  0  0
 14 15  1  0  0  0  0
 15 16  1  0  0  0  0
 16 17  1  0  0  0  0
 16 18  1  0  0  0  0
 18 19  4  0  0  0  0
 18 32  4  0  0  0  0
 19 20  4  0  0  0  0
 20 21  1  0  0  0  0
 20 22  4  0  0  0  0
 22 23  4  0  0  0  0
 22 31  4  0  0  0  0
 23 24  4  0  0  0  0
 24 25  1  0  0  0  0
 24 27  4  0  0  0  0
 25 26  1  0  0  0  0
 27 28  1  0  0  0  0
 27 30  4  0  0  0  0
 28 29  1  0  0  0  0
 30 31  4  0  0  0  0
 31 32  4  0  0  0  0
 34 35  4  0  0  0  0
 35 36  4  0  0  0  0
 36 37  4  0  0  0  0
M  END
>  <Name_Molregno>
554806

>  <Alpha-1A>
8.73

>  <Alpha-1B>
9.03

$$$$
558258
  Marvin  02231216192D 0   1.00000     0.00000     0

 37 42  0  0  1  0  0  0  0  0999 V2000
    0.2718   -1.7658    0.0000 O   0  0  0  0  0  0  0  0  0
    0.2718   -2.5908    0.0000 C   0  0  0  0  0  0  0  0  0
    0.9863   -3.0033    0.0000 C   0  0  0  0  0  0  0  0  0
    1.7007   -2.5908    0.0000 O   0  0  0  0  0  0  0  0  0
    1.7007   -1.7658    0.0000 C   0  0  0  0  0  0  0  0  0
    0.9863   -1.3533    0.0000 C   0  0  0  0  0  0  0  0  0
    0.9863   -0.5283    0.0000 C   0  0  0  0  0  0  0  0  0
    0.2718   -0.1158    0.0000 O   0  0  0  0  0  0  0  0  0
    1.7007   -0.1158    0.0000 N   0  0  0  0  0  0  0  0  0
    2.4152   -0.5283    0.0000 C   0  0  0  0  0  0  0  0  0
    3.1297   -0.1158    0.0000 C   0  0  0  0  0  0  0  0  0
    3.1297    0.7092    0.0000 N   0  0  0  0  0  0  0  0  0
    2.4152    1.1217    0.0000 C   0  0  0  0  0  0  0  0  0
    1.7007    0.7092    0.0000 C   0  0  0  0  0  0  0  0  0
    3.8441    1.1217    0.0000 C   0  0  0  0  0  0  0  0  0
    3.8441    1.9467    0.0000 N   0  0  0  0  0  0  0  0  0
    4.5586    2.3592    0.0000 C   0  0  0  0  0  0  0  0  0
    4.5586    3.1842    0.0000 N   0  0  0  0  0  0  0  0  0
    5.2731    1.9467    0.0000 C   0  0  0  0  0  0  0  0  0
    5.9876    2.3592    0.0000 C   0  0  0  0  0  0  0  0  0
    6.7020    1.9467    0.0000 C   0  0  0  0  0  0  0  0  0
    7.4165    2.3592    0.0000 O   0  0  0  0  0  0  0  0  0
    8.1310    1.9467    0.0000 C   0  0  0  0  0  0  0  0  0
    6.7020    1.1217    0.0000 C   0  0  0  0  0  0  0  0  0
    7.4165    0.7092    0.0000 O   0  0  0  0  0  0  0  0  0
    7.4165   -0.1158    0.0000 C   0  0  0  0  0  0  0  0  0
    5.9876    0.7092    0.0000 C   0  0  0  0  0  0  0  0  0
    5.2731    1.1217    0.0000 C   0  0  0  0  0  0  0  0  0
    4.5586    0.7092    0.0000 N   0  0  0  0  0  0  0  0  0
    3.8441   -0.5283    0.0000 C   0  0  0  0  0  0  0  0  0
    3.8441   -1.3533    0.0000 C   0  0  0  0  0  0  0  0  0
    3.1297   -1.7658    0.0000 C   0  0  0  0  0  0  0  0  0
    2.4152   -1.3533    0.0000 C   0  0  0  0  0  0  0  0  0
    0.9863   -3.8283    0.0000 C   0  0  0  0  0  0  0  0  0
    0.2718   -4.2408    0.0000 C   0  0  0  0  0  0  0  0  0
   -0.4427   -3.8283    0.0000 C   0  0  0  0  0  0  0  0  0
   -0.4427   -3.0033    0.0000 C   0  0  0  0  0  0  0  0  0
  1  2  1  0  0  0  0
  1  6  1  0  0  0  0
  2  3  4  0  0  0  0
  2 37  4  0  0  0  0
  3  4  1  0  0  0  0
  3 34  4  0  0  0  0
  4  5  1  0  0  0  0
  5  6  1  0  0  0  0
  6  7  1  0  0  0  0
  7  8  2  0  0  0  0
  7  9  1  0  0  0  0
  9 10  1  0  0  0  0
  9 14  1  0  0  0  0
 10 11  1  0  0  0  0
 10 33  1  0  0  0  0
 11 12  1  0  0  0  0
 11 30  1  0  0  0  0
 12 13  1  0  0  0  0
 12 15  1  0  0  0  0
 13 14  1  0  0  0  0
 15 16  4  0  0  0  0
 15 29  4  0  0  0  0
 16 17  4  0  0  0  0
 17 18  1  0  0  0  0
 17 19  4  0  0  0  0
 19 20  4  0  0  0  0
 19 28  4  0  0  0  0
 20 21  4  0  0  0  0
 21 22  1  0  0  0  0
 21 24  4  0  0  0  0
 22 23  1  0  0  0  0
 24 25  1  0  0  0  0
 24 27  4  0  0  0  0
 25 26  1  0  0  0  0
 27 28  4  0  0  0  0
 28 29  4  0  0  0  0
 30 31  1  0  0  0  0
 31 32  1  0  0  0  0
 32 33  1  0  0  0  0
 34 35  4  0  0  0  0
 35 36  4  0  0  0  0
 36 37  4  0  0  0  0
M  END
>  <Name_Molregno>
558258

>  <Alpha-1A>
8.04

>  <Alpha-1B>
8.63

$$$$
591110
  Marvin  02231216192D 0   1.00000     0.00000     0

 27 31  0  0  1  0  0  0  0  0999 V2000
    0.4188    1.2437    0.0000 O   0  0  0  0  0  0  0  0  0
   -0.3658    0.9887    0.0000 C   0  0  0  0  0  0  0  0  0
   -0.3658    0.1637    0.0000 C   0  0  0  0  0  0  0  0  0
    0.4188   -0.0912    0.0000 O   0  0  0  0  0  0  0  0  0
    0.9037    0.5762    0.0000 C   0  0  0  0  0  0  0  0  0
   -1.0803   -0.2488    0.0000 C   0  0  0  0  0  0  0  0  0
   -1.7947    0.1637    0.0000 C   0  0  0  0  0  0  0  0  0
   -2.5092   -0.2488    0.0000 C   0  0  0  0  0  0  0  0  0
   -3.2237    0.1637    0.0000 C   0  0  0  0  0  0  0  0  0
   -3.9382   -0.2488    0.0000 N   0  0  0  0  0  0  0  0  0
   -4.6526    0.1637    0.0000 C   0  0  0  0  0  0  0  0  0
   -4.6526    0.9887    0.0000 C   0  0  0  0  0  0  0  0  0
   -3.9382    1.4012    0.0000 C   0  0  0  0  0  0  0  0  0
   -3.9382    2.2262    0.0000 C   0  0  0  0  0  0  0  0  0
   -3.2237    2.6387    0.0000 C   0  0  0  0  0  0  0  0  0
   -3.2237    3.4637    0.0000 C   0  0  0  0  0  0  0  0  0
   -3.9382    3.8762    0.0000 O   0  0  0  0  0  0  0  0  0
   -2.5092    3.8762    0.0000 C   0  0  0  0  0  0  0  0  0
   -2.5092    2.2262    0.0000 C   0  0  0  0  0  0  0  0  0
   -2.5092    1.4012    0.0000 C   0  0  0  0  0  0  0  0  0
   -3.2237    0.9887    0.0000 C   0  0  0  0  0  0  0  0  0
   -1.7947    0.9887    0.0000 C   0  0  0  0  0  0  0  0  0
   -1.0803    1.4012    0.0000 C   0  0  0  0  0  0  0  0  0
   -1.7947    2.6387    0.0000 C   0  0  0  0  0  0  0  0  0
   -1.0803    2.2262    0.0000 O   0  0  0  0  0  0  0  0  0
   -1.7947    3.4637    0.0000 C   0  0  0  0  0  0  0  0  0
   -3.9382   -1.0738    0.0000 C   0  0  0  0  0  0  0  0  0
  1  2  1  0  0  0  0
  1  5  1  0  0  0  0
  2  3  4  0  0  0  0
  2 23  4  0  0  0  0
  3  4  1  0  0  0  0
  3  6  4  0  0  0  0
  4  5  1  0  0  0  0
  6  7  4  0  0  0  0
  7  8  1  0  0  0  0
  7 22  4  0  0  0  0
  8  9  1  0  0  0  0
  9 10  1  0  0  0  0
  9 21  1  0  0  0  0
 10 11  1  0  0  0  0
 10 27  1  0  0  0  0
 11 12  1  0  0  0  0
 12 13  1  0  0  0  0
 13 14  4  0  0  0  0
 13 21  4  0  0  0  0
 14 15  4  0  0  0  0
 15 16  1  0  0  0  0
 15 19  4  0  0  0  0
 16 17  2  0  0  0  0
 16 18  1  0  0  0  0
 19 20  4  0  0  0  0
 19 24  1  0  0  0  0
 20 21  4  0  0  0  0
 20 22  1  0  0  0  0
 22 23  4  0  0  0  0
 24 25  2  0  0  0  0
 24 26  1  0  0  0  0
M  END
>  <Name_Molregno>
591110

>  <5-HT1B>
7

>  <5-HT1D>
7.31

>  <5-HT1E>
5

>  <5-HT2A>
6.08

>  <5-HT2C>
5.97

>  <5-HT3>
5

>  <5-HT5>
5.65

>  <5-HT6>
6.59

>  <5-HT7>
7.17

>  <Alpha-1A>
8.7

>  <Alpha-1B>
5.92

>  <Alpha-2A>
5.89

>  <Alpha-2B>
6.6

>  <Alpha-2C>
6.74

>  <Beta-1>
5.07

>  <Beta-2>
5

>  <DOPAMINE D1>
6.05

>  <DOPAMINE D2>
6.07

>  <DOPAMINE D3>
6.51

>  <DOPAMINE D4>
6.58

>  <DOPAMINE D5>
5.62

>  <Dopamine transporter>
5

>  <HISTAMINE H1>
5

>  <HISTAMINE H2>
6.17

>  <HISTAMINE H3>
5

>  <HISTAMINE H4>
5

>  <Muscarinic acetylcholine receptor M1>
5

>  <Muscarinic acetylcholine receptor M2>
5

>  <Muscarinic acetylcholine receptor M3>
5

>  <Muscarinic acetylcholine receptor M4>
5

>  <Norepinephrine transporter>
5

>  <Serotonin transporter>
6.61

$$$$
594448
  Marvin  02231216192D 0   1.00000     0.00000     0

 24 27  0  0  1  0  0  0  0  0999 V2000
   -0.1249   -0.5370    0.0000 O   0  0  0  0  0  0  0  0  0
    0.6852   -0.6929    0.0000 C   0  0  0  0  0  0  0  0  0
   -0.3950    0.2426    0.0000 C   0  0  0  0  0  0  0  0  0
   -1.2051    0.3985    0.0000 C   0  0  0  0  0  0  0  0  0
   -1.4751    1.1780    0.0000 C   0  0  0  0  0  0  0  0  0
   -2.2853    1.3340    0.0000 C   0  0  0  0  0  0  0  0  0
   -2.8254    0.7103    0.0000 C   0  0  0  0  0  0  0  0  0
   -2.5553   -0.0692    0.0000 N   0  0  0  0  0  0  0  0  0
   -1.7452   -0.2251    0.0000 C   0  0  0  0  0  0  0  0  0
   -3.0954   -0.6929    0.0000 C   0  0  0  0  0  0  0  0  0
   -3.9055   -0.5370    0.0000 C   0  0  0  0  0  0  0  0  0
   -4.1756    0.2426    0.0000 C   0  0  0  0  0  0  0  0  0
   -4.9857    0.3985    0.0000 C   0  0  0  0  0  0  0  0  0
   -5.2558    1.1780    0.0000 C   0  0  0  0  0  0  0  0  0
   -6.0659    1.3340    0.0000 O   0  0  0  0  0  0  0  0  0
   -6.6060    0.7103    0.0000 C   0  0  0  0  0  0  0  0  0
   -4.7157    1.8017    0.0000 C   0  0  0  0  0  0  0  0  0
   -4.9857    2.5812    0.0000 O   0  0  0  0  0  0  0  0  0
   -3.9055    1.6458    0.0000 C   0  0  0  0  0  0  0  0  0
   -3.6355    0.8662    0.0000 C   0  0  0  0  0  0  0  0  0
   -0.9351    1.8017    0.0000 C   0  0  0  0  0  0  0  0  0
   -0.1249    1.6458    0.0000 C   0  0  0  0  0  0  0  0  0
    0.1451    0.8662    0.0000 C   0  0  0  0  0  0  0  0  0
    0.9553    0.7103    0.0000 O   0  0  0  0  0  0  0  0  0
  1  2  1  0  0  0  0
  1  3  1  0  0  0  0
  3  4  4  0  0  0  0
  3 23  4  0  0  0  0
  4  5  4  0  0  0  0
  4  9  1  0  0  0  0
  5  6  1  0  0  0  0
  5 21  4  0  0  0  0
  6  7  1  0  0  0  0
  7  8  1  0  0  0  0
  7 20  1  0  0  0  0
  8  9  1  0  0  0  0
  8 10  1  0  0  0  0
 10 11  1  0  0  0  0
 11 12  1  0  0  0  0
 12 13  4  0  0  0  0
 12 20  4  0  0  0  0
 13 14  4  0  0  0  0
 14 15  1  0  0  0  0
 14 17  4  0  0  0  0
 15 16  1  0  0  0  0
 17 18  1  0  0  0  0
 17 19  4  0  0  0  0
 19 20  4  0  0  0  0
 21 22  4  0  0  0  0
 22 23  4  0  0  0  0
 23 24  1  0  0  0  0
M  END
>  <Name_Molregno>
594448

>  <5-HT1A>
6.84

>  <5-HT1B>
5.16

>  <5-HT1D>
5

>  <5-HT1E>
5

>  <5-HT2A>
5

>  <5-HT3>
5

>  <5-HT5>
5

>  <5-HT6>
5

>  <5-HT7>
5

>  <Alpha-1A>
5

>  <Alpha-1B>
5

>  <Alpha-2A>
5

>  <Alpha-2B>
5.16

>  <Alpha-2C>
6.67

>  <Beta-1>
5

>  <Beta-2>
5

>  <DOPAMINE D1>
8.23

>  <DOPAMINE D2>
6.01

>  <DOPAMINE D4>
5.43

>  <DOPAMINE D5>
8.36

>  <Dopamine transporter>
5

>  <HISTAMINE H1>
5

>  <HISTAMINE H2>
5

>  <HISTAMINE H4>
5

>  <Muscarinic acetylcholine receptor M2>
5

>  <Muscarinic acetylcholine receptor M5>
5

>  <Norepinephrine transporter>
5

>  <Serotonin transporter>
5

$$$$
615397
  Marvin  02231216192D 0   1.00000     0.00000     0

 30 33  0  0  1  0  0  0  0  0999 V2000
    0.0454    0.1393    0.0000 S   0  0  0  0  0  0  0  0  0
   -0.5066    0.7524    0.0000 C   0  0  0  0  0  0  0  0  0
   -0.0941    1.4669    0.0000 S   0  0  0  0  0  0  0  0  0
    0.7128    1.2954    0.0000 C   0  0  0  0  0  0  0  0  0
    0.7991    0.4749    0.0000 C   0  0  0  0  0  0  0  0  0
    1.5136    0.0624    0.0000 C   0  0  0  0  0  0  0  0  0
    2.2280    0.4749    0.0000 N   0  0  0  0  0  0  0  0  0
    2.9425    0.0624    0.0000 C   0  0  0  0  0  0  0  0  0
    3.6570    0.4749    0.0000 C   0  0  0  0  0  0  0  0  0
    4.3714    0.0624    0.0000 O   0  0  0  0  0  0  0  0  0
    5.0859    0.4749    0.0000 C   0  0  0  0  0  0  0  0  0
    5.0859    1.2999    0.0000 C   0  0  0  0  0  0  0  0  0
    5.8004    1.7124    0.0000 C   0  0  0  0  0  0  0  0  0
    6.5149    1.2999    0.0000 C   0  0  0  0  0  0  0  0  0
    6.5149    0.4749    0.0000 C   0  0  0  0  0  0  0  0  0
    5.8004    0.0624    0.0000 C   0  0  0  0  0  0  0  0  0
    5.8004   -0.7626    0.0000 O   0  0  0  0  0  0  0  0  0
    6.5149   -1.1751    0.0000 C   0  0  0  0  0  0  0  0  0
   -0.9985    0.0901    0.0000 C   0  0  0  0  0  0  0  0  0
   -0.6709   -0.6671    0.0000 C   0  0  0  0  0  0  0  0  0
   -1.1627   -1.3294    0.0000 C   0  0  0  0  0  0  0  0  0
   -1.9823   -1.2346    0.0000 C   0  0  0  0  0  0  0  0  0
   -2.3099   -0.4774    0.0000 C   0  0  0  0  0  0  0  0  0
   -1.8180    0.1849    0.0000 C   0  0  0  0  0  0  0  0  0
   -1.2638    1.0801    0.0000 C   0  0  0  0  0  0  0  0  0
   -1.9261    0.5882    0.0000 C   0  0  0  0  0  0  0  0  0
   -2.6832    0.9158    0.0000 C   0  0  0  0  0  0  0  0  0
   -2.7781    1.7354    0.0000 C   0  0  0  0  0  0  0  0  0
   -2.1157    2.2272    0.0000 C   0  0  0  0  0  0  0  0  0
   -1.3586    1.8996    0.0000 C   0  0  0  0  0  0  0  0  0
  1  2  1  0  0  0  0
  1  5  1  0  0  0  0
  2  3  1  0  0  0  0
  2 19  1  0  0  0  0
  2 25  1  0  0  0  0
  3  4  1  0  0  0  0
  4  5  1  0  0  0  0
  5  6  1  0  0  0  0
  6  7  1  0  0  0  0
  7  8  1  0  0  0  0
  8  9  1  0  0  0  0
  9 10  1  0  0  0  0
 10 11  1  0  0  0  0
 11 12  4  0  0  0  0
 11 16  4  0  0  0  0
 12 13  4  0  0  0  0
 13 14  4  0  0  0  0
 14 15  4  0  0  0  0
 15 16  4  0  0  0  0
 16 17  1  0  0  0  0
 17 18  1  0  0  0  0
 19 20  4  0  0  0  0
 19 24  4  0  0  0  0
 20 21  4  0  0  0  0
 21 22  4  0  0  0  0
 22 23  4  0  0  0  0
 23 24  4  0  0  0  0
 25 26  4  0  0  0  0
 25 30  4  0  0  0  0
 26 27  4  0  0  0  0
 27 28  4  0  0  0  0
 28 29  4  0  0  0  0
 29 30  4  0  0  0  0
M  END
>  <Name_Molregno>
615397

>  <5-HT1A>
9.89

>  <Alpha-1A>
7.45

>  <Alpha-1B>
6.93

$$$$
615508
  Marvin  02231216192D 0   1.00000     0.00000     0

 32 35  0  0  1  0  0  0  0  0999 V2000
    0.0146   -0.9525    0.0000 O   0  0  0  0  0  0  0  0  0
   -0.5375   -0.3394    0.0000 C   0  0  0  0  0  0  0  0  0
   -0.1250    0.3751    0.0000 O   0  0  0  0  0  0  0  0  0
    0.6820    0.2036    0.0000 C   0  0  0  0  0  0  0  0  0
    0.7682   -0.6169    0.0000 C   0  0  0  0  0  0  0  0  0
    1.4827   -1.0294    0.0000 C   0  0  0  0  0  0  0  0  0
    2.1972   -0.6169    0.0000 N   0  0  0  0  0  0  0  0  0
    2.9116   -1.0294    0.0000 C   0  0  0  0  0  0  0  0  0
    3.6261   -0.6169    0.0000 C   0  0  0  0  0  0  0  0  0
    4.3406   -1.0294    0.0000 O   0  0  0  0  0  0  0  0  0
    5.0551   -0.6169    0.0000 C   0  0  0  0  0  0  0  0  0
    5.0551    0.2081    0.0000 C   0  0  0  0  0  0  0  0  0
    4.3406    0.6206    0.0000 O   0  0  0  0  0  0  0  0  0
    4.3406    1.4456    0.0000 C   0  0  0  0  0  0  0  0  0
    5.7695    0.6206    0.0000 C   0  0  0  0  0  0  0  0  0
    6.4840    0.2081    0.0000 C   0  0  0  0  0  0  0  0  0
    6.4840   -0.6169    0.0000 C   0  0  0  0  0  0  0  0  0
    5.7695   -1.0294    0.0000 C   0  0  0  0  0  0  0  0  0
    5.7695   -1.8544    0.0000 O   0  0  0  0  0  0  0  0  0
    6.4840   -2.2669    0.0000 C   0  0  0  0  0  0  0  0  0
   -1.0294   -1.0017    0.0000 C   0  0  0  0  0  0  0  0  0
   -0.7017   -1.7589    0.0000 C   0  0  0  0  0  0  0  0  0
   -1.1936   -2.4212    0.0000 C   0  0  0  0  0  0  0  0  0
   -2.0131   -2.3264    0.0000 C   0  0  0  0  0  0  0  0  0
   -2.3408   -1.5692    0.0000 C   0  0  0  0  0  0  0  0  0
   -1.8489   -0.9069    0.0000 C   0  0  0  0  0  0  0  0  0
   -1.2946   -0.0117    0.0000 C   0  0  0  0  0  0  0  0  0
   -1.9569   -0.5036    0.0000 C   0  0  0  0  0  0  0  0  0
   -2.7141   -0.1760    0.0000 C   0  0  0  0  0  0  0  0  0
   -2.8089    0.6436    0.0000 C   0  0  0  0  0  0  0  0  0
   -2.1466    1.1354    0.0000 C   0  0  0  0  0  0  0  0  0
   -1.3894    0.8078    0.0000 C   0  0  0  0  0  0  0  0  0
  1  2  1  0  0  0  0
  1  5  1  0  0  0  0
  2  3  1  0  0  0  0
  2 21  1  0  0  0  0
  2 27  1  0  0  0  0
  3  4  1  0  0  0  0
  4  5  1  0  0  0  0
  5  6  1  0  0  0  0
  6  7  1  0  0  0  0
  7  8  1  0  0  0  0
  8  9  1  0  0  0  0
  9 10  1  0  0  0  0
 10 11  1  0  0  0  0
 11 12  4  0  0  0  0
 11 18  4  0  0  0  0
 12 13  1  0  0  0  0
 12 15  4  0  0  0  0
 13 14  1  0  0  0  0
 15 16  4  0  0  0  0
 16 17  4  0  0  0  0
 17 18  4  0  0  0  0
 18 19  1  0  0  0  0
 19 20  1  0  0  0  0
 21 22  4  0  0  0  0
 21 26  4  0  0  0  0
 22 23  4  0  0  0  0
 23 24  4  0  0  0  0
 24 25  4  0  0  0  0
 25 26  4  0  0  0  0
 27 28  4  0  0  0  0
 27 32  4  0  0  0  0
 28 29  4  0  0  0  0
 29 30  4  0  0  0  0
 30 31  4  0  0  0  0
 31 32  4  0  0  0  0
M  END
>  <Name_Molregno>
615508

>  <5-HT1A>
7.27

>  <Alpha-1A>
7

>  <Alpha-1B>
7.12

$$$$
615510
  Marvin  02231216192D 0   1.00000     0.00000     0

 30 33  0  0  1  0  0  0  0  0999 V2000
    0.1323   -0.0134    0.0000 O   0  0  0  0  0  0  0  0  0
   -0.4197    0.5997    0.0000 C   0  0  0  0  0  0  0  0  0
   -0.0072    1.3142    0.0000 O   0  0  0  0  0  0  0  0  0
    0.7997    1.1426    0.0000 C   0  0  0  0  0  0  0  0  0
    0.8860    0.3222    0.0000 C   0  0  0  0  0  0  0  0  0
    1.6004   -0.0903    0.0000 C   0  0  0  0  0  0  0  0  0
    2.3149    0.3222    0.0000 N   0  0  0  0  0  0  0  0  0
    3.0294   -0.0903    0.0000 C   0  0  0  0  0  0  0  0  0
    3.7438    0.3222    0.0000 C   0  0  0  0  0  0  0  0  0
    4.4583   -0.0903    0.0000 O   0  0  0  0  0  0  0  0  0
    5.1728    0.3222    0.0000 C   0  0  0  0  0  0  0  0  0
    5.1728    1.1472    0.0000 C   0  0  0  0  0  0  0  0  0
    5.8873    1.5597    0.0000 C   0  0  0  0  0  0  0  0  0
    5.8873    2.3847    0.0000 O   0  0  0  0  0  0  0  0  0
    6.6017    2.7972    0.0000 C   0  0  0  0  0  0  0  0  0
    6.6017    1.1472    0.0000 C   0  0  0  0  0  0  0  0  0
    6.6017    0.3222    0.0000 C   0  0  0  0  0  0  0  0  0
    5.8873   -0.0903    0.0000 C   0  0  0  0  0  0  0  0  0
   -0.9116   -0.0626    0.0000 C   0  0  0  0  0  0  0  0  0
   -0.5840   -0.8198    0.0000 C   0  0  0  0  0  0  0  0  0
   -1.0759   -1.4821    0.0000 C   0  0  0  0  0  0  0  0  0
   -1.8954   -1.3873    0.0000 C   0  0  0  0  0  0  0  0  0
   -2.2231   -0.6301    0.0000 C   0  0  0  0  0  0  0  0  0
   -1.7312    0.0322    0.0000 C   0  0  0  0  0  0  0  0  0
   -1.1769    0.9273    0.0000 C   0  0  0  0  0  0  0  0  0
   -1.8392    0.4355    0.0000 C   0  0  0  0  0  0  0  0  0
   -2.5964    0.7631    0.0000 C   0  0  0  0  0  0  0  0  0
   -2.6912    1.5826    0.0000 C   0  0  0  0  0  0  0  0  0
   -2.0289    2.0745    0.0000 C   0  0  0  0  0  0  0  0  0
   -1.2717    1.7469    0.0000 C   0  0  0  0  0  0  0  0  0
  1  2  1  0  0  0  0
  1  5  1  0  0  0  0
  2  3  1  0  0  0  0
  2 19  1  0  0  0  0
  2 25  1  0  0  0  0
  3  4  1  0  0  0  0
  4  5  1  0  0  0  0
  5  6  1  0  0  0  0
  6  7  1  0  0  0  0
  7  8  1  0  0  0  0
  8  9  1  0  0  0  0
  9 10  1  0  0  0  0
 10 11  1  0  0  0  0
 11 12  4  0  0  0  0
 11 18  4  0  0  0  0
 12 13  4  0  0  0  0
 13 14  1  0  0  0  0
 13 16  4  0  0  0  0
 14 15  1  0  0  0  0
 16 17  4  0  0  0  0
 17 18  4  0  0  0  0
 19 20  4  0  0  0  0
 19 24  4  0  0  0  0
 20 21  4  0  0  0  0
 21 22  4  0  0  0  0
 22 23  4  0  0  0  0
 23 24  4  0  0  0  0
 25 26  4  0  0  0  0
 25 30  4  0  0  0  0
 26 27  4  0  0  0  0
 27 28  4  0  0  0  0
 28 29  4  0  0  0  0
 29 30  4  0  0  0  0
M  END
>  <Name_Molregno>
615510

>  <5-HT1A>
8.58

>  <Alpha-1A>
7.04

>  <Alpha-1B>
7.23

$$$$
615511
  Marvin  02231216192D 0   1.00000     0.00000     0

 30 33  0  0  1  0  0  0  0  0999 V2000
    0.0454    0.1393    0.0000 O   0  0  0  0  0  0  0  0  0
   -0.5066    0.7524    0.0000 C   0  0  0  0  0  0  0  0  0
   -0.0941    1.4669    0.0000 O   0  0  0  0  0  0  0  0  0
    0.7128    1.2954    0.0000 C   0  0  0  0  0  0  0  0  0
    0.7991    0.4749    0.0000 C   0  0  0  0  0  0  0  0  0
    1.5136    0.0624    0.0000 C   0  0  0  0  0  0  0  0  0
    2.2280    0.4749    0.0000 N   0  0  0  0  0  0  0  0  0
    2.9425    0.0624    0.0000 C   0  0  0  0  0  0  0  0  0
    3.6570    0.4749    0.0000 C   0  0  0  0  0  0  0  0  0
    4.3714    0.0624    0.0000 C   0  0  0  0  0  0  0  0  0
    5.0859    0.4749    0.0000 C   0  0  0  0  0  0  0  0  0
    5.0859    1.2999    0.0000 C   0  0  0  0  0  0  0  0  0
    5.8004    1.7124    0.0000 C   0  0  0  0  0  0  0  0  0
    6.5149    1.2999    0.0000 C   0  0  0  0  0  0  0  0  0
    6.5149    0.4749    0.0000 C   0  0  0  0  0  0  0  0  0
    5.8004    0.0624    0.0000 C   0  0  0  0  0  0  0  0  0
    5.8004   -0.7626    0.0000 O   0  0  0  0  0  0  0  0  0
    6.5149   -1.1751    0.0000 C   0  0  0  0  0  0  0  0  0
   -0.9985    0.0901    0.0000 C   0  0  0  0  0  0  0  0  0
   -0.6709   -0.6671    0.0000 C   0  0  0  0  0  0  0  0  0
   -1.1627   -1.3294    0.0000 C   0  0  0  0  0  0  0  0  0
   -1.9823   -1.2346    0.0000 C   0  0  0  0  0  0  0  0  0
   -2.3099   -0.4774    0.0000 C   0  0  0  0  0  0  0  0  0
   -1.8180    0.1849    0.0000 C   0  0  0  0  0  0  0  0  0
   -1.2638    1.0801    0.0000 C   0  0  0  0  0  0  0  0  0
   -1.9261    0.5882    0.0000 C   0  0  0  0  0  0  0  0  0
   -2.6832    0.9158    0.0000 C   0  0  0  0  0  0  0  0  0
   -2.7781    1.7354    0.0000 C   0  0  0  0  0  0  0  0  0
   -2.1157    2.2272    0.0000 C   0  0  0  0  0  0  0  0  0
   -1.3586    1.8996    0.0000 C   0  0  0  0  0  0  0  0  0
  1  2  1  0  0  0  0
  1  5  1  0  0  0  0
  2  3  1  0  0  0  0
  2 19  1  0  0  0  0
  2 25  1  0  0  0  0
  3  4  1  0  0  0  0
  4  5  1  0  0  0  0
  5  6  1  0  0  0  0
  6  7  1  0  0  0  0
  7  8  1  0  0  0  0
  8  9  1  0  0  0  0
  9 10  1  0  0  0  0
 10 11  1  0  0  0  0
 11 12  4  0  0  0  0
 11 16  4  0  0  0  0
 12 13  4  0  0  0  0
 13 14  4  0  0  0  0
 14 15  4  0  0  0  0
 15 16  4  0  0  0  0
 16 17  1  0  0  0  0
 17 18  1  0  0  0  0
 19 20  4  0  0  0  0
 19 24  4  0  0  0  0
 20 21  4  0  0  0  0
 21 22  4  0  0  0  0
 22 23  4  0  0  0  0
 23 24  4  0  0  0  0
 25 26  4  0  0  0  0
 25 30  4  0  0  0  0
 26 27  4  0  0  0  0
 27 28  4  0  0  0  0
 28 29  4  0  0  0  0
 29 30  4  0  0  0  0
M  END
>  <Name_Molregno>
615511

>  <5-HT1A>
8.1

>  <Alpha-1A>
7.31

>  <Alpha-1B>
7.38

$$$$
615585
  Marvin  02231216192D 0   1.00000     0.00000     0

 29 32  0  0  1  0  0  0  0  0999 V2000
    0.0414    0.1652    0.0000 O   0  0  0  0  0  0  0  0  0
   -0.5106    0.7783    0.0000 C   0  0  0  0  0  0  0  0  0
   -0.0981    1.4928    0.0000 O   0  0  0  0  0  0  0  0  0
    0.7088    1.3212    0.0000 C   0  0  0  0  0  0  0  0  0
    0.7951    0.5008    0.0000 C   0  0  0  0  0  0  0  0  0
    1.5095    0.0883    0.0000 C   0  0  0  0  0  0  0  0  0
    2.2240    0.5008    0.0000 N   0  0  0  0  0  0  0  0  0
    2.9385    0.0883    0.0000 C   0  0  0  0  0  0  0  0  0
    3.6529    0.5008    0.0000 C   0  0  0  0  0  0  0  0  0
    4.3674    0.0883    0.0000 O   0  0  0  0  0  0  0  0  0
    5.0819    0.5008    0.0000 C   0  0  0  0  0  0  0  0  0
    5.0819    1.3258    0.0000 C   0  0  0  0  0  0  0  0  0
    5.7964    1.7383    0.0000 C   0  0  0  0  0  0  0  0  0
    6.5108    1.3258    0.0000 C   0  0  0  0  0  0  0  0  0
    6.5108    0.5008    0.0000 C   0  0  0  0  0  0  0  0  0
    5.7964    0.0883    0.0000 C   0  0  0  0  0  0  0  0  0
    5.7964   -0.7367    0.0000 C   0  0  0  0  0  0  0  0  0
   -1.0025    0.1160    0.0000 C   0  0  0  0  0  0  0  0  0
   -0.6749   -0.6412    0.0000 C   0  0  0  0  0  0  0  0  0
   -1.1668   -1.3035    0.0000 C   0  0  0  0  0  0  0  0  0
   -1.9863   -1.2087    0.0000 C   0  0  0  0  0  0  0  0  0
   -2.3140   -0.4515    0.0000 C   0  0  0  0  0  0  0  0  0
   -1.8221    0.2108    0.0000 C   0  0  0  0  0  0  0  0  0
   -1.2678    1.1059    0.0000 C   0  0  0  0  0  0  0  0  0
   -1.9301    0.6141    0.0000 C   0  0  0  0  0  0  0  0  0
   -2.6873    0.9417    0.0000 C   0  0  0  0  0  0  0  0  0
   -2.7821    1.7612    0.0000 C   0  0  0  0  0  0  0  0  0
   -2.1198    2.2531    0.0000 C   0  0  0  0  0  0  0  0  0
   -1.3626    1.9255    0.0000 C   0  0  0  0  0  0  0  0  0
  1  2  1  0  0  0  0
  1  5  1  0  0  0  0
  2  3  1  0  0  0  0
  2 18  1  0  0  0  0
  2 24  1  0  0  0  0
  3  4  1  0  0  0  0
  4  5  1  0  0  0  0
  5  6  1  0  0  0  0
  6  7  1  0  0  0  0
  7  8  1  0  0  0  0
  8  9  1  0  0  0  0
  9 10  1  0  0  0  0
 10 11  1  0  0  0  0
 11 12  4  0  0  0  0
 11 16  4  0  0  0  0
 12 13  4  0  0  0  0
 13 14  4  0  0  0  0
 14 15  4  0  0  0  0
 15 16  4  0  0  0  0
 16 17  1  0  0  0  0
 18 19  4  0  0  0  0
 18 23  4  0  0  0  0
 19 20  4  0  0  0  0
 20 21  4  0  0  0  0
 21 22  4  0  0  0  0
 22 23  4  0  0  0  0
 24 25  4  0  0  0  0
 24 29  4  0  0  0  0
 25 26  4  0  0  0  0
 26 27  4  0  0  0  0
 27 28  4  0  0  0  0
 28 29  4  0  0  0  0
M  END
>  <Name_Molregno>
615585

>  <5-HT1A>
8.08

>  <Alpha-1A>
6.93

>  <Alpha-1B>
6.62

$$$$
615586
  Marvin  02231216192D 0   1.00000     0.00000     0

 30 33  0  0  1  0  0  0  0  0999 V2000
    0.0454    0.1393    0.0000 O   0  0  0  0  0  0  0  0  0
   -0.5066    0.7524    0.0000 C   0  0  0  0  0  0  0  0  0
   -0.0941    1.4669    0.0000 O   0  0  0  0  0  0  0  0  0
    0.7128    1.2954    0.0000 C   0  0  0  0  0  0  0  0  0
    0.7991    0.4749    0.0000 C   0  0  0  0  0  0  0  0  0
    1.5136    0.0624    0.0000 C   0  0  0  0  0  0  0  0  0
    2.2280    0.4749    0.0000 N   0  0  0  0  0  0  0  0  0
    2.9425    0.0624    0.0000 C   0  0  0  0  0  0  0  0  0
    3.6570    0.4749    0.0000 C   0  0  0  0  0  0  0  0  0
    4.3714    0.0624    0.0000 O   0  0  0  0  0  0  0  0  0
    5.0859    0.4749    0.0000 C   0  0  0  0  0  0  0  0  0
    5.0859    1.2999    0.0000 C   0  0  0  0  0  0  0  0  0
    5.8004    1.7124    0.0000 C   0  0  0  0  0  0  0  0  0
    6.5149    1.2999    0.0000 C   0  0  0  0  0  0  0  0  0
    6.5149    0.4749    0.0000 C   0  0  0  0  0  0  0  0  0
    5.8004    0.0624    0.0000 C   0  0  0  0  0  0  0  0  0
    5.8004   -0.7626    0.0000 O   0  0  0  0  0  0  0  0  0
    6.5149   -1.1751    0.0000 C   0  0  0  0  0  0  0  0  0
   -0.9985    0.0901    0.0000 C   0  0  0  0  0  0  0  0  0
   -0.6709   -0.6671    0.0000 C   0  0  0  0  0  0  0  0  0
   -1.1627   -1.3294    0.0000 C   0  0  0  0  0  0  0  0  0
   -1.9823   -1.2346    0.0000 C   0  0  0  0  0  0  0  0  0
   -2.3099   -0.4774    0.0000 C   0  0  0  0  0  0  0  0  0
   -1.8180    0.1849    0.0000 C   0  0  0  0  0  0  0  0  0
   -1.2638    1.0801    0.0000 C   0  0  0  0  0  0  0  0  0
   -1.9261    0.5882    0.0000 C   0  0  0  0  0  0  0  0  0
   -2.6832    0.9158    0.0000 C   0  0  0  0  0  0  0  0  0
   -2.7781    1.7354    0.0000 C   0  0  0  0  0  0  0  0  0
   -2.1157    2.2272    0.0000 C   0  0  0  0  0  0  0  0  0
   -1.3586    1.8996    0.0000 C   0  0  0  0  0  0  0  0  0
  1  2  1  0  0  0  0
  1  5  1  0  0  0  0
  2  3  1  0  0  0  0
  2 19  1  0  0  0  0
  2 25  1  0  0  0  0
  3  4  1  0  0  0  0
  4  5  1  0  0  0  0
  5  6  1  0  0  0  0
  6  7  1  0  0  0  0
  7  8  1  0  0  0  0
  8  9  1  0  0  0  0
  9 10  1  0  0  0  0
 10 11  1  0  0  0  0
 11 12  4  0  0  0  0
 11 16  4  0  0  0  0
 12 13  4  0  0  0  0
 13 14  4  0  0  0  0
 14 15  4  0  0  0  0
 15 16  4  0  0  0  0
 16 17  1  0  0  0  0
 17 18  1  0  0  0  0
 19 20  4  0  0  0  0
 19 24  4  0  0  0  0
 20 21  4  0  0  0  0
 21 22  4  0  0  0  0
 22 23  4  0  0  0  0
 23 24  4  0  0  0  0
 25 26  4  0  0  0  0
 25 30  4  0  0  0  0
 26 27  4  0  0  0  0
 27 28  4  0  0  0  0
 28 29  4  0  0  0  0
 29 30  4  0  0  0  0
M  END
>  <Name_Molregno>
615586

>  <5-HT1A>
9.22

>  <Alpha-1A>
7.71

>  <Alpha-1B>
7.33

$$$$
615587
  Marvin  02231216192D 0   1.00000     0.00000     0

 28 31  0  0  1  0  0  0  0  0999 V2000
    0.1139   -0.9352    0.0000 O   0  0  0  0  0  0  0  0  0
   -0.4381   -0.3221    0.0000 C   0  0  0  0  0  0  0  0  0
   -0.0256    0.3924    0.0000 O   0  0  0  0  0  0  0  0  0
    0.7814    0.2209    0.0000 C   0  0  0  0  0  0  0  0  0
    0.8676   -0.5996    0.0000 C   0  0  0  0  0  0  0  0  0
    1.5821   -1.0121    0.0000 C   0  0  0  0  0  0  0  0  0
    2.2965   -0.5996    0.0000 N   0  0  0  0  0  0  0  0  0
    3.0110   -1.0121    0.0000 C   0  0  0  0  0  0  0  0  0
    3.7255   -0.5996    0.0000 C   0  0  0  0  0  0  0  0  0
    4.4399   -1.0121    0.0000 O   0  0  0  0  0  0  0  0  0
    5.1544   -0.5996    0.0000 C   0  0  0  0  0  0  0  0  0
    5.1544    0.2254    0.0000 C   0  0  0  0  0  0  0  0  0
    5.8689    0.6379    0.0000 C   0  0  0  0  0  0  0  0  0
    6.5834    0.2254    0.0000 C   0  0  0  0  0  0  0  0  0
    6.5834   -0.5996    0.0000 C   0  0  0  0  0  0  0  0  0
    5.8689   -1.0121    0.0000 C   0  0  0  0  0  0  0  0  0
   -0.9300   -0.9844    0.0000 C   0  0  0  0  0  0  0  0  0
   -0.6024   -1.7415    0.0000 C   0  0  0  0  0  0  0  0  0
   -1.0942   -2.4039    0.0000 C   0  0  0  0  0  0  0  0  0
   -1.9138   -2.3090    0.0000 C   0  0  0  0  0  0  0  0  0
   -2.2414   -1.5519    0.0000 C   0  0  0  0  0  0  0  0  0
   -1.7495   -0.8896    0.0000 C   0  0  0  0  0  0  0  0  0
   -1.1953    0.0056    0.0000 C   0  0  0  0  0  0  0  0  0
   -1.8576   -0.4863    0.0000 C   0  0  0  0  0  0  0  0  0
   -2.6147   -0.1587    0.0000 C   0  0  0  0  0  0  0  0  0
   -2.7096    0.6609    0.0000 C   0  0  0  0  0  0  0  0  0
   -2.0472    1.1528    0.0000 C   0  0  0  0  0  0  0  0  0
   -1.2901    0.8251    0.0000 C   0  0  0  0  0  0  0  0  0
  1  2  1  0  0  0  0
  1  5  1  0  0  0  0
  2  3  1  0  0  0  0
  2 17  1  0  0  0  0
  2 23  1  0  0  0  0
  3  4  1  0  0  0  0
  4  5  1  0  0  0  0
  5  6  1  0  0  0  0
  6  7  1  0  0  0  0
  7  8  1  0  0  0  0
  8  9  1  0  0  0  0
  9 10  1  0  0  0  0
 10 11  1  0  0  0  0
 11 12  4  0  0  0  0
 11 16  4  0  0  0  0
 12 13  4  0  0  0  0
 13 14  4  0  0  0  0
 14 15  4  0  0  0  0
 15 16  4  0  0  0  0
 17 18  4  0  0  0  0
 17 22  4  0  0  0  0
 18 19  4  0  0  0  0
 19 20  4  0  0  0  0
 20 21  4  0  0  0  0
 21 22  4  0  0  0  0
 23 24  4  0  0  0  0
 23 28  4  0  0  0  0
 24 25  4  0  0  0  0
 25 26  4  0  0  0  0
 26 27  4  0  0  0  0
 27 28  4  0  0  0  0
M  END
>  <Name_Molregno>
615587

>  <5-HT1A>
8.45

>  <Alpha-1A>
7.43

>  <Alpha-1B>
7.2

$$$$
615588
  Marvin  02231216192D 0   1.00000     0.00000     0

 30 33  0  0  1  0  0  0  0  0999 V2000
   -3.8929    0.0290    0.0000 S   0  0  0  0  0  0  0  0  0
   -3.3408    0.6421    0.0000 C   0  0  0  0  0  0  0  0  0
   -2.5871    0.3066    0.0000 C   0  0  0  0  0  0  0  0  0
   -2.6734   -0.5139    0.0000 O   0  0  0  0  0  0  0  0  0
   -3.4804   -0.6854    0.0000 C   0  0  0  0  0  0  0  0  0
   -3.1527   -1.4426    0.0000 C   0  0  0  0  0  0  0  0  0
   -2.3332   -1.5374    0.0000 C   0  0  0  0  0  0  0  0  0
   -2.0055   -2.2946    0.0000 C   0  0  0  0  0  0  0  0  0
   -2.4974   -2.9569    0.0000 C   0  0  0  0  0  0  0  0  0
   -3.3169   -2.8621    0.0000 C   0  0  0  0  0  0  0  0  0
   -3.6446   -2.1049    0.0000 C   0  0  0  0  0  0  0  0  0
   -4.1427   -1.1773    0.0000 C   0  0  0  0  0  0  0  0  0
   -4.0479   -1.9969    0.0000 C   0  0  0  0  0  0  0  0  0
   -4.7102   -2.4888    0.0000 C   0  0  0  0  0  0  0  0  0
   -5.4673   -2.1611    0.0000 C   0  0  0  0  0  0  0  0  0
   -5.5622   -1.3416    0.0000 C   0  0  0  0  0  0  0  0  0
   -4.8998   -0.8497    0.0000 C   0  0  0  0  0  0  0  0  0
   -1.8727    0.7191    0.0000 C   0  0  0  0  0  0  0  0  0
   -1.1582    0.3066    0.0000 N   0  0  0  0  0  0  0  0  0
   -0.4437    0.7191    0.0000 C   0  0  0  0  0  0  0  0  0
    0.2707    0.3066    0.0000 C   0  0  0  0  0  0  0  0  0
    0.9852    0.7191    0.0000 O   0  0  0  0  0  0  0  0  0
    1.6997    0.3066    0.0000 C   0  0  0  0  0  0  0  0  0
    2.4141    0.7191    0.0000 C   0  0  0  0  0  0  0  0  0
    3.1286    0.3066    0.0000 C   0  0  0  0  0  0  0  0  0
    3.1286   -0.5184    0.0000 C   0  0  0  0  0  0  0  0  0
    2.4141   -0.9309    0.0000 C   0  0  0  0  0  0  0  0  0
    1.6997   -0.5184    0.0000 C   0  0  0  0  0  0  0  0  0
    0.9852   -0.9309    0.0000 O   0  0  0  0  0  0  0  0  0
    0.9852   -1.7559    0.0000 C   0  0  0  0  0  0  0  0  0
  1  2  1  0  0  0  0
  1  5  1  0  0  0  0
  2  3  1  0  0  0  0
  3  4  1  0  0  0  0
  3 18  1  0  0  0  0
  4  5  1  0  0  0  0
  5  6  1  0  0  0  0
  5 12  1  0  0  0  0
  6  7  4  0  0  0  0
  6 11  4  0  0  0  0
  7  8  4  0  0  0  0
  8  9  4  0  0  0  0
  9 10  4  0  0  0  0
 10 11  4  0  0  0  0
 12 13  4  0  0  0  0
 12 17  4  0  0  0  0
 13 14  4  0  0  0  0
 14 15  4  0  0  0  0
 15 16  4  0  0  0  0
 16 17  4  0  0  0  0
 18 19  1  0  0  0  0
 19 20  1  0  0  0  0
 20 21  1  0  0  0  0
 21 22  1  0  0  0  0
 22 23  1  0  0  0  0
 23 24  4  0  0  0  0
 23 28  4  0  0  0  0
 24 25  4  0  0  0  0
 25 26  4  0  0  0  0
 26 27  4  0  0  0  0
 27 28  4  0  0  0  0
 28 29  1  0  0  0  0
 29 30  1  0  0  0  0
M  END
>  <Name_Molregno>
615588

>  <5-HT1A>
8.99

>  <Alpha-1A>
7.68

>  <Alpha-1B>
7

$$$$
616482
  Marvin  02231216192D 0   1.00000     0.00000     0

 34 38  0  0  1  0  0  0  0  0999 V2000
    1.8637    1.9604    0.0000 O   0  0  0  0  0  0  0  0  0
    2.5311    2.4453    0.0000 C   0  0  0  0  0  0  0  0  0
    3.1986    1.9604    0.0000 O   0  0  0  0  0  0  0  0  0
    2.9436    1.1758    0.0000 C   0  0  0  0  0  0  0  0  0
    2.1186    1.1758    0.0000 C   0  0  0  0  0  0  0  0  0
    1.6337    0.5084    0.0000 C   0  0  0  0  0  0  0  0  0
    1.9693   -0.2453    0.0000 N   0  0  0  0  0  0  0  0  0
    1.4843   -0.9128    0.0000 C   0  0  0  0  0  0  0  0  0
    1.8199   -1.6664    0.0000 C   0  0  0  0  0  0  0  0  0
    1.3350   -2.3339    0.0000 O   0  0  0  0  0  0  0  0  0
    1.6705   -3.0875    0.0000 C   0  0  0  0  0  0  0  0  0
    2.4910   -3.1738    0.0000 C   0  0  0  0  0  0  0  0  0
    2.8266   -3.9275    0.0000 C   0  0  0  0  0  0  0  0  0
    2.3416   -4.5949    0.0000 C   0  0  0  0  0  0  0  0  0
    1.5212   -4.5087    0.0000 C   0  0  0  0  0  0  0  0  0
    1.1856   -3.7550    0.0000 C   0  0  0  0  0  0  0  0  0
    2.6772   -5.3486    0.0000 C   0  0  0  0  0  0  0  0  0
    3.4977   -5.4348    0.0000 C   0  0  0  0  0  0  0  0  0
    3.8332   -6.1885    0.0000 C   0  0  0  0  0  0  0  0  0
    3.3483   -6.8559    0.0000 C   0  0  0  0  0  0  0  0  0
    2.5278   -6.7697    0.0000 C   0  0  0  0  0  0  0  0  0
    2.1923   -6.0160    0.0000 C   0  0  0  0  0  0  0  0  0
    1.9238    3.0038    0.0000 C   0  0  0  0  0  0  0  0  0
    1.1366    2.7571    0.0000 C   0  0  0  0  0  0  0  0  0
    0.5293    3.3155    0.0000 C   0  0  0  0  0  0  0  0  0
    0.7093    4.1206    0.0000 C   0  0  0  0  0  0  0  0  0
    1.4965    4.3673    0.0000 C   0  0  0  0  0  0  0  0  0
    2.1038    3.8089    0.0000 C   0  0  0  0  0  0  0  0  0
    2.9361    3.1641    0.0000 C   0  0  0  0  0  0  0  0  0
    2.5162    3.8742    0.0000 C   0  0  0  0  0  0  0  0  0
    2.9212    4.5930    0.0000 C   0  0  0  0  0  0  0  0  0
    3.7461    4.6016    0.0000 C   0  0  0  0  0  0  0  0  0
    4.1661    3.8915    0.0000 C   0  0  0  0  0  0  0  0  0
    3.7611    3.1727    0.0000 C   0  0  0  0  0  0  0  0  0
  1  2  1  0  0  0  0
  1  5  1  0  0  0  0
  2  3  1  0  0  0  0
  2 23  1  0  0  0  0
  2 29  1  0  0  0  0
  3  4  1  0  0  0  0
  4  5  1  0  0  0  0
  5  6  1  0  0  0  0
  6  7  1  0  0  0  0
  7  8  1  0  0  0  0
  8  9  1  0  0  0  0
  9 10  1  0  0  0  0
 10 11  1  0  0  0  0
 11 12  4  0  0  0  0
 11 16  4  0  0  0  0
 12 13  4  0  0  0  0
 13 14  4  0  0  0  0
 14 15  4  0  0  0  0
 14 17  1  0  0  0  0
 15 16  4  0  0  0  0
 17 18  4  0  0  0  0
 17 22  4  0  0  0  0
 18 19  4  0  0  0  0
 19 20  4  0  0  0  0
 20 21  4  0  0  0  0
 21 22  4  0  0  0  0
 23 24  4  0  0  0  0
 23 28  4  0  0  0  0
 24 25  4  0  0  0  0
 25 26  4  0  0  0  0
 26 27  4  0  0  0  0
 27 28  4  0  0  0  0
 29 30  4  0  0  0  0
 29 34  4  0  0  0  0
 30 31  4  0  0  0  0
 31 32  4  0  0  0  0
 32 33  4  0  0  0  0
 33 34  4  0  0  0  0
M  END
>  <Name_Molregno>
616482

>  <5-HT1A>
6

>  <Alpha-1A>
6

>  <Alpha-1B>
6

$$$$
616483
  Marvin  02231216192D 0   1.00000     0.00000     0

 34 38  0  0  1  0  0  0  0  0999 V2000
    1.1924    1.7193    0.0000 O   0  0  0  0  0  0  0  0  0
    1.8598    2.2042    0.0000 C   0  0  0  0  0  0  0  0  0
    2.5273    1.7193    0.0000 O   0  0  0  0  0  0  0  0  0
    2.2723    0.9347    0.0000 C   0  0  0  0  0  0  0  0  0
    1.4473    0.9347    0.0000 C   0  0  0  0  0  0  0  0  0
    0.9624    0.2672    0.0000 C   0  0  0  0  0  0  0  0  0
    1.2980   -0.4864    0.0000 N   0  0  0  0  0  0  0  0  0
    0.8130   -1.1539    0.0000 C   0  0  0  0  0  0  0  0  0
    1.1486   -1.9075    0.0000 C   0  0  0  0  0  0  0  0  0
    0.6637   -2.5750    0.0000 O   0  0  0  0  0  0  0  0  0
    0.9992   -3.3287    0.0000 C   0  0  0  0  0  0  0  0  0
    1.8197   -3.4149    0.0000 C   0  0  0  0  0  0  0  0  0
    2.1553   -4.1686    0.0000 C   0  0  0  0  0  0  0  0  0
    1.6704   -4.8360    0.0000 C   0  0  0  0  0  0  0  0  0
    0.8499   -4.7498    0.0000 C   0  0  0  0  0  0  0  0  0
    0.5143   -3.9961    0.0000 C   0  0  0  0  0  0  0  0  0
    2.9758   -4.2548    0.0000 C   0  0  0  0  0  0  0  0  0
    3.4607   -3.5874    0.0000 C   0  0  0  0  0  0  0  0  0
    4.2812   -3.6736    0.0000 C   0  0  0  0  0  0  0  0  0
    4.6167   -4.4273    0.0000 C   0  0  0  0  0  0  0  0  0
    4.1318   -5.0947    0.0000 C   0  0  0  0  0  0  0  0  0
    3.3113   -5.0085    0.0000 C   0  0  0  0  0  0  0  0  0
    1.2526    2.7627    0.0000 C   0  0  0  0  0  0  0  0  0
    0.4653    2.5159    0.0000 C   0  0  0  0  0  0  0  0  0
   -0.1420    3.0744    0.0000 C   0  0  0  0  0  0  0  0  0
    0.0380    3.8795    0.0000 C   0  0  0  0  0  0  0  0  0
    0.8252    4.1262    0.0000 C   0  0  0  0  0  0  0  0  0
    1.4325    3.5678    0.0000 C   0  0  0  0  0  0  0  0  0
    2.2648    2.9230    0.0000 C   0  0  0  0  0  0  0  0  0
    1.8449    3.6331    0.0000 C   0  0  0  0  0  0  0  0  0
    2.2499    4.3518    0.0000 C   0  0  0  0  0  0  0  0  0
    3.0748    4.3605    0.0000 C   0  0  0  0  0  0  0  0  0
    3.4948    3.6504    0.0000 C   0  0  0  0  0  0  0  0  0
    3.0898    2.9316    0.0000 C   0  0  0  0  0  0  0  0  0
  1  2  1  0  0  0  0
  1  5  1  0  0  0  0
  2  3  1  0  0  0  0
  2 23  1  0  0  0  0
  2 29  1  0  0  0  0
  3  4  1  0  0  0  0
  4  5  1  0  0  0  0
  5  6  1  0  0  0  0
  6  7  1  0  0  0  0
  7  8  1  0  0  0  0
  8  9  1  0  0  0  0
  9 10  1  0  0  0  0
 10 11  1  0  0  0  0
 11 12  4  0  0  0  0
 11 16  4  0  0  0  0
 12 13  4  0  0  0  0
 13 14  4  0  0  0  0
 13 17  1  0  0  0  0
 14 15  4  0  0  0  0
 15 16  4  0  0  0  0
 17 18  4  0  0  0  0
 17 22  4  0  0  0  0
 18 19  4  0  0  0  0
 19 20  4  0  0  0  0
 20 21  4  0  0  0  0
 21 22  4  0  0  0  0
 23 24  4  0  0  0  0
 23 28  4  0  0  0  0
 24 25  4  0  0  0  0
 25 26  4  0  0  0  0
 26 27  4  0  0  0  0
 27 28  4  0  0  0  0
 29 30  4  0  0  0  0
 29 34  4  0  0  0  0
 30 31  4  0  0  0  0
 31 32  4  0  0  0  0
 32 33  4  0  0  0  0
 33 34  4  0  0  0  0
M  END
>  <Name_Molregno>
616483

>  <5-HT1A>
7.54

>  <Alpha-1A>
6

>  <Alpha-1B>
6

$$$$
616484
  Marvin  02231216192D 0   1.00000     0.00000     0

 34 38  0  0  1  0  0  0  0  0999 V2000
    1.9680    1.5052    0.0000 O   0  0  0  0  0  0  0  0  0
    2.6354    1.9901    0.0000 C   0  0  0  0  0  0  0  0  0
    3.3028    1.5052    0.0000 O   0  0  0  0  0  0  0  0  0
    3.0479    0.7206    0.0000 C   0  0  0  0  0  0  0  0  0
    2.2229    0.7206    0.0000 C   0  0  0  0  0  0  0  0  0
    1.7380    0.0532    0.0000 C   0  0  0  0  0  0  0  0  0
    2.0735   -0.7005    0.0000 N   0  0  0  0  0  0  0  0  0
    1.5886   -1.3680    0.0000 C   0  0  0  0  0  0  0  0  0
    1.9242   -2.1216    0.0000 C   0  0  0  0  0  0  0  0  0
    1.4392   -2.7891    0.0000 O   0  0  0  0  0  0  0  0  0
    1.7748   -3.5427    0.0000 C   0  0  0  0  0  0  0  0  0
    2.5953   -3.6290    0.0000 C   0  0  0  0  0  0  0  0  0
    2.9308   -4.3827    0.0000 C   0  0  0  0  0  0  0  0  0
    2.4459   -5.0501    0.0000 C   0  0  0  0  0  0  0  0  0
    1.6254   -4.9639    0.0000 C   0  0  0  0  0  0  0  0  0
    1.2899   -4.2102    0.0000 C   0  0  0  0  0  0  0  0  0
    0.4694   -4.1239    0.0000 C   0  0  0  0  0  0  0  0  0
   -0.0155   -4.7914    0.0000 C   0  0  0  0  0  0  0  0  0
   -0.8360   -4.7051    0.0000 C   0  0  0  0  0  0  0  0  0
   -1.1716   -3.9515    0.0000 C   0  0  0  0  0  0  0  0  0
   -0.6866   -3.2840    0.0000 C   0  0  0  0  0  0  0  0  0
    0.1338   -3.3703    0.0000 C   0  0  0  0  0  0  0  0  0
    2.0281    2.5486    0.0000 C   0  0  0  0  0  0  0  0  0
    1.2409    2.3019    0.0000 C   0  0  0  0  0  0  0  0  0
    0.6336    2.8603    0.0000 C   0  0  0  0  0  0  0  0  0
    0.8136    3.6654    0.0000 C   0  0  0  0  0  0  0  0  0
    1.6008    3.9121    0.0000 C   0  0  0  0  0  0  0  0  0
    2.2081    3.3537    0.0000 C   0  0  0  0  0  0  0  0  0
    3.0404    2.7089    0.0000 C   0  0  0  0  0  0  0  0  0
    2.6204    3.4190    0.0000 C   0  0  0  0  0  0  0  0  0
    3.0254    4.1378    0.0000 C   0  0  0  0  0  0  0  0  0
    3.8504    4.1464    0.0000 C   0  0  0  0  0  0  0  0  0
    4.2703    3.4363    0.0000 C   0  0  0  0  0  0  0  0  0
    3.8653    2.7175    0.0000 C   0  0  0  0  0  0  0  0  0
  1  2  1  0  0  0  0
  1  5  1  0  0  0  0
  2  3  1  0  0  0  0
  2 23  1  0  0  0  0
  2 29  1  0  0  0  0
  3  4  1  0  0  0  0
  4  5  1  0  0  0  0
  5  6  1  0  0  0  0
  6  7  1  0  0  0  0
  7  8  1  0  0  0  0
  8  9  1  0  0  0  0
  9 10  1  0  0  0  0
 10 11  1  0  0  0  0
 11 12  4  0  0  0  0
 11 16  4  0  0  0  0
 12 13  4  0  0  0  0
 13 14  4  0  0  0  0
 14 15  4  0  0  0  0
 15 16  4  0  0  0  0
 16 17  1  0  0  0  0
 17 18  4  0  0  0  0
 17 22  4  0  0  0  0
 18 19  4  0  0  0  0
 19 20  4  0  0  0  0
 20 21  4  0  0  0  0
 21 22  4  0  0  0  0
 23 24  4  0  0  0  0
 23 28  4  0  0  0  0
 24 25  4  0  0  0  0
 25 26  4  0  0  0  0
 26 27  4  0  0  0  0
 27 28  4  0  0  0  0
 29 30  4  0  0  0  0
 29 34  4  0  0  0  0
 30 31  4  0  0  0  0
 31 32  4  0  0  0  0
 32 33  4  0  0  0  0
 33 34  4  0  0  0  0
M  END
>  <Name_Molregno>
616484

>  <5-HT1A>
8.66

>  <Alpha-1A>
6.31

>  <Alpha-1B>
6

$$$$
616485
  Marvin  02231216192D 0   1.00000     0.00000     0

 32 35  0  0  1  0  0  0  0  0999 V2000
    0.0328    0.1366    0.0000 O   0  0  0  0  0  0  0  0  0
   -0.5192    0.7497    0.0000 C   0  0  0  0  0  0  0  0  0
   -0.1067    1.4641    0.0000 O   0  0  0  0  0  0  0  0  0
    0.7003    1.2926    0.0000 C   0  0  0  0  0  0  0  0  0
    0.7865    0.4721    0.0000 C   0  0  0  0  0  0  0  0  0
    1.5010    0.0596    0.0000 C   0  0  0  0  0  0  0  0  0
    2.2155    0.4721    0.0000 N   0  0  0  0  0  0  0  0  0
    2.9299    0.0596    0.0000 C   0  0  0  0  0  0  0  0  0
    3.6444    0.4721    0.0000 C   0  0  0  0  0  0  0  0  0
    4.3589    0.0596    0.0000 O   0  0  0  0  0  0  0  0  0
    5.0733    0.4721    0.0000 C   0  0  0  0  0  0  0  0  0
    5.0733    1.2971    0.0000 C   0  0  0  0  0  0  0  0  0
    5.7878    1.7096    0.0000 C   0  0  0  0  0  0  0  0  0
    6.5023    1.2971    0.0000 C   0  0  0  0  0  0  0  0  0
    6.5023    0.4721    0.0000 C   0  0  0  0  0  0  0  0  0
    5.7878    0.0596    0.0000 C   0  0  0  0  0  0  0  0  0
    5.7878   -0.7654    0.0000 O   0  0  0  0  0  0  0  0  0
    6.5023   -1.1779    0.0000 C   0  0  0  0  0  0  0  0  0
    6.5023   -2.0029    0.0000 C   0  0  0  0  0  0  0  0  0
    7.2168   -0.7654    0.0000 C   0  0  0  0  0  0  0  0  0
   -1.0111    0.0873    0.0000 C   0  0  0  0  0  0  0  0  0
   -0.6834   -0.6698    0.0000 C   0  0  0  0  0  0  0  0  0
   -1.1753   -1.3321    0.0000 C   0  0  0  0  0  0  0  0  0
   -1.9948   -1.2373    0.0000 C   0  0  0  0  0  0  0  0  0
   -2.3225   -0.4802    0.0000 C   0  0  0  0  0  0  0  0  0
   -1.8306    0.1821    0.0000 C   0  0  0  0  0  0  0  0  0
   -1.2763    1.0773    0.0000 C   0  0  0  0  0  0  0  0  0
   -1.9387    0.5854    0.0000 C   0  0  0  0  0  0  0  0  0
   -2.6958    0.9131    0.0000 C   0  0  0  0  0  0  0  0  0
   -2.7906    1.7326    0.0000 C   0  0  0  0  0  0  0  0  0
   -2.1283    2.2245    0.0000 C   0  0  0  0  0  0  0  0  0
   -1.3712    1.8968    0.0000 C   0  0  0  0  0  0  0  0  0
  1  2  1  0  0  0  0
  1  5  1  0  0  0  0
  2  3  1  0  0  0  0
  2 21  1  0  0  0  0
  2 27  1  0  0  0  0
  3  4  1  0  0  0  0
  4  5  1  0  0  0  0
  5  6  1  0  0  0  0
  6  7  1  0  0  0  0
  7  8  1  0  0  0  0
  8  9  1  0  0  0  0
  9 10  1  0  0  0  0
 10 11  1  0  0  0  0
 11 12  4  0  0  0  0
 11 16  4  0  0  0  0
 12 13  4  0  0  0  0
 13 14  4  0  0  0  0
 14 15  4  0  0  0  0
 15 16  4  0  0  0  0
 16 17  1  0  0  0  0
 17 18  1  0  0  0  0
 18 19  1  0  0  0  0
 18 20  1  0  0  0  0
 21 22  4  0  0  0  0
 21 26  4  0  0  0  0
 22 23  4  0  0  0  0
 23 24  4  0  0  0  0
 24 25  4  0  0  0  0
 25 26  4  0  0  0  0
 27 28  4  0  0  0  0
 27 32  4  0  0  0  0
 28 29  4  0  0  0  0
 29 30  4  0  0  0  0
 30 31  4  0  0  0  0
 31 32  4  0  0  0  0
M  END
>  <Name_Molregno>
616485

>  <5-HT1A>
8.77

>  <Alpha-1A>
8.68

>  <Alpha-1B>
7.7

$$$$
616565
  Marvin  02231216192D 0   1.00000     0.00000     0

 31 34  0  0  1  0  0  0  0  0999 V2000
    0.0375    0.1464    0.0000 O   0  0  0  0  0  0  0  0  0
   -0.5145    0.7595    0.0000 C   0  0  0  0  0  0  0  0  0
   -0.1020    1.4740    0.0000 O   0  0  0  0  0  0  0  0  0
    0.7050    1.3024    0.0000 C   0  0  0  0  0  0  0  0  0
    0.7912    0.4820    0.0000 C   0  0  0  0  0  0  0  0  0
    1.5057    0.0695    0.0000 C   0  0  0  0  0  0  0  0  0
    2.2201    0.4820    0.0000 N   0  0  0  0  0  0  0  0  0
    2.9346    0.0695    0.0000 C   0  0  0  0  0  0  0  0  0
    3.6491    0.4820    0.0000 C   0  0  0  0  0  0  0  0  0
    4.3635    0.0695    0.0000 O   0  0  0  0  0  0  0  0  0
    5.0780    0.4820    0.0000 C   0  0  0  0  0  0  0  0  0
    5.0780    1.3070    0.0000 C   0  0  0  0  0  0  0  0  0
    5.7925    1.7195    0.0000 C   0  0  0  0  0  0  0  0  0
    6.5070    1.3070    0.0000 C   0  0  0  0  0  0  0  0  0
    6.5070    0.4820    0.0000 C   0  0  0  0  0  0  0  0  0
    5.7925    0.0695    0.0000 C   0  0  0  0  0  0  0  0  0
    5.7925   -0.7555    0.0000 O   0  0  0  0  0  0  0  0  0
    6.5070   -1.1680    0.0000 C   0  0  0  0  0  0  0  0  0
    6.5070   -1.9930    0.0000 C   0  0  0  0  0  0  0  0  0
   -1.0064    0.0972    0.0000 C   0  0  0  0  0  0  0  0  0
   -0.6788   -0.6600    0.0000 C   0  0  0  0  0  0  0  0  0
   -1.1706   -1.3223    0.0000 C   0  0  0  0  0  0  0  0  0
   -1.9902   -1.2275    0.0000 C   0  0  0  0  0  0  0  0  0
   -2.3178   -0.4703    0.0000 C   0  0  0  0  0  0  0  0  0
   -1.8259    0.1920    0.0000 C   0  0  0  0  0  0  0  0  0
   -1.2717    1.0872    0.0000 C   0  0  0  0  0  0  0  0  0
   -1.9340    0.5953    0.0000 C   0  0  0  0  0  0  0  0  0
   -2.6911    0.9229    0.0000 C   0  0  0  0  0  0  0  0  0
   -2.7860    1.7424    0.0000 C   0  0  0  0  0  0  0  0  0
   -2.1236    2.2343    0.0000 C   0  0  0  0  0  0  0  0  0
   -1.3665    1.9067    0.0000 C   0  0  0  0  0  0  0  0  0
  1  2  1  0  0  0  0
  1  5  1  0  0  0  0
  2  3  1  0  0  0  0
  2 20  1  0  0  0  0
  2 26  1  0  0  0  0
  3  4  1  0  0  0  0
  4  5  1  0  0  0  0
  5  6  1  0  0  0  0
  6  7  1  0  0  0  0
  7  8  1  0  0  0  0
  8  9  1  0  0  0  0
  9 10  1  0  0  0  0
 10 11  1  0  0  0  0
 11 12  4  0  0  0  0
 11 16  4  0  0  0  0
 12 13  4  0  0  0  0
 13 14  4  0  0  0  0
 14 15  4  0  0  0  0
 15 16  4  0  0  0  0
 16 17  1  0  0  0  0
 17 18  1  0  0  0  0
 18 19  1  0  0  0  0
 20 21  4  0  0  0  0
 20 25  4  0  0  0  0
 21 22  4  0  0  0  0
 22 23  4  0  0  0  0
 23 24  4  0  0  0  0
 24 25  4  0  0  0  0
 26 27  4  0  0  0  0
 26 31  4  0  0  0  0
 27 28  4  0  0  0  0
 28 29  4  0  0  0  0
 29 30  4  0  0  0  0
 30 31  4  0  0  0  0
M  END
>  <Name_Molregno>
616565

>  <5-HT1A>
9.05

>  <Alpha-1A>
8.18

>  <Alpha-1B>
7.27

$$$$
616566
  Marvin  02231216192D 0   1.00000     0.00000     0

 32 35  0  0  1  0  0  0  0  0999 V2000
    0.0464    0.1773    0.0000 O   0  0  0  0  0  0  0  0  0
   -0.5056    0.7903    0.0000 C   0  0  0  0  0  0  0  0  0
   -0.0931    1.5048    0.0000 O   0  0  0  0  0  0  0  0  0
    0.7138    1.3333    0.0000 C   0  0  0  0  0  0  0  0  0
    0.8001    0.5128    0.0000 C   0  0  0  0  0  0  0  0  0
    1.5146    0.1003    0.0000 C   0  0  0  0  0  0  0  0  0
    2.2290    0.5128    0.0000 N   0  0  0  0  0  0  0  0  0
    2.9435    0.1003    0.0000 C   0  0  0  0  0  0  0  0  0
    3.6580    0.5128    0.0000 C   0  0  0  0  0  0  0  0  0
    4.3724    0.1003    0.0000 O   0  0  0  0  0  0  0  0  0
    5.0869    0.5128    0.0000 C   0  0  0  0  0  0  0  0  0
    5.0869    1.3378    0.0000 C   0  0  0  0  0  0  0  0  0
    5.8014    1.7503    0.0000 C   0  0  0  0  0  0  0  0  0
    5.8014    2.5753    0.0000 O   0  0  0  0  0  0  0  0  0
    6.5158    2.9878    0.0000 C   0  0  0  0  0  0  0  0  0
    6.5158    1.3378    0.0000 C   0  0  0  0  0  0  0  0  0
    6.5158    0.5128    0.0000 C   0  0  0  0  0  0  0  0  0
    7.2303    0.1003    0.0000 O   0  0  0  0  0  0  0  0  0
    7.2303   -0.7247    0.0000 C   0  0  0  0  0  0  0  0  0
    5.8014    0.1003    0.0000 C   0  0  0  0  0  0  0  0  0
   -0.9975    0.1280    0.0000 C   0  0  0  0  0  0  0  0  0
   -0.6699   -0.6291    0.0000 C   0  0  0  0  0  0  0  0  0
   -1.1618   -1.2914    0.0000 C   0  0  0  0  0  0  0  0  0
   -1.9813   -1.1966    0.0000 C   0  0  0  0  0  0  0  0  0
   -2.3089   -0.4395    0.0000 C   0  0  0  0  0  0  0  0  0
   -1.8170    0.2228    0.0000 C   0  0  0  0  0  0  0  0  0
   -1.2628    1.1180    0.0000 C   0  0  0  0  0  0  0  0  0
   -1.9251    0.6261    0.0000 C   0  0  0  0  0  0  0  0  0
   -2.6822    0.9538    0.0000 C   0  0  0  0  0  0  0  0  0
   -2.7771    1.7733    0.0000 C   0  0  0  0  0  0  0  0  0
   -2.1147    2.2652    0.0000 C   0  0  0  0  0  0  0  0  0
   -1.3576    1.9375    0.0000 C   0  0  0  0  0  0  0  0  0
  1  2  1  0  0  0  0
  1  5  1  0  0  0  0
  2  3  1  0  0  0  0
  2 21  1  0  0  0  0
  2 27  1  0  0  0  0
  3  4  1  0  0  0  0
  4  5  1  0  0  0  0
  5  6  1  0  0  0  0
  6  7  1  0  0  0  0
  7  8  1  0  0  0  0
  8  9  1  0  0  0  0
  9 10  1  0  0  0  0
 10 11  1  0  0  0  0
 11 12  4  0  0  0  0
 11 20  4  0  0  0  0
 12 13  4  0  0  0  0
 13 14  1  0  0  0  0
 13 16  4  0  0  0  0
 14 15  1  0  0  0  0
 16 17  4  0  0  0  0
 17 18  1  0  0  0  0
 17 20  4  0  0  0  0
 18 19  1  0  0  0  0
 21 22  4  0  0  0  0
 21 26  4  0  0  0  0
 22 23  4  0  0  0  0
 23 24  4  0  0  0  0
 24 25  4  0  0  0  0
 25 26  4  0  0  0  0
 27 28  4  0  0  0  0
 27 32  4  0  0  0  0
 28 29  4  0  0  0  0
 29 30  4  0  0  0  0
 30 31  4  0  0  0  0
 31 32  4  0  0  0  0
M  END
>  <Name_Molregno>
616566

>  <5-HT1A>
6

>  <Alpha-1A>
6.52

>  <Alpha-1B>
6.35

$$$$
616567
  Marvin  02231216192D 0   1.00000     0.00000     0

 32 35  0  0  1  0  0  0  0  0999 V2000
    0.0748   -1.0812    0.0000 O   0  0  0  0  0  0  0  0  0
   -0.4773   -0.4681    0.0000 C   0  0  0  0  0  0  0  0  0
   -0.0648    0.2464    0.0000 O   0  0  0  0  0  0  0  0  0
    0.7422    0.0748    0.0000 C   0  0  0  0  0  0  0  0  0
    0.8284   -0.7456    0.0000 C   0  0  0  0  0  0  0  0  0
    1.5429   -1.1581    0.0000 C   0  0  0  0  0  0  0  0  0
    2.2574   -0.7456    0.0000 N   0  0  0  0  0  0  0  0  0
    2.9719   -1.1581    0.0000 C   0  0  0  0  0  0  0  0  0
    3.6863   -0.7456    0.0000 C   0  0  0  0  0  0  0  0  0
    4.4008   -1.1581    0.0000 O   0  0  0  0  0  0  0  0  0
    5.1153   -0.7456    0.0000 C   0  0  0  0  0  0  0  0  0
    5.1153    0.0794    0.0000 C   0  0  0  0  0  0  0  0  0
    5.8297    0.4919    0.0000 C   0  0  0  0  0  0  0  0  0
    5.8297    1.3169    0.0000 O   0  0  0  0  0  0  0  0  0
    6.5442    1.7294    0.0000 C   0  0  0  0  0  0  0  0  0
    6.5442    0.0794    0.0000 C   0  0  0  0  0  0  0  0  0
    7.2587    0.4919    0.0000 O   0  0  0  0  0  0  0  0  0
    7.9732    0.0794    0.0000 C   0  0  0  0  0  0  0  0  0
    6.5442   -0.7456    0.0000 C   0  0  0  0  0  0  0  0  0
    5.8297   -1.1581    0.0000 C   0  0  0  0  0  0  0  0  0
   -0.9691   -1.1304    0.0000 C   0  0  0  0  0  0  0  0  0
   -0.6415   -1.8876    0.0000 C   0  0  0  0  0  0  0  0  0
   -1.1334   -2.5499    0.0000 C   0  0  0  0  0  0  0  0  0
   -1.9529   -2.4551    0.0000 C   0  0  0  0  0  0  0  0  0
   -2.2806   -1.6979    0.0000 C   0  0  0  0  0  0  0  0  0
   -1.7887   -1.0356    0.0000 C   0  0  0  0  0  0  0  0  0
   -1.2344   -0.1404    0.0000 C   0  0  0  0  0  0  0  0  0
   -1.8967   -0.6323    0.0000 C   0  0  0  0  0  0  0  0  0
   -2.6539   -0.3047    0.0000 C   0  0  0  0  0  0  0  0  0
   -2.7487    0.5148    0.0000 C   0  0  0  0  0  0  0  0  0
   -2.0864    1.0067    0.0000 C   0  0  0  0  0  0  0  0  0
   -1.3292    0.6791    0.0000 C   0  0  0  0  0  0  0  0  0
  1  2  1  0  0  0  0
  1  5  1  0  0  0  0
  2  3  1  0  0  0  0
  2 21  1  0  0  0  0
  2 27  1  0  0  0  0
  3  4  1  0  0  0  0
  4  5  1  0  0  0  0
  5  6  1  0  0  0  0
  6  7  1  0  0  0  0
  7  8  1  0  0  0  0
  8  9  1  0  0  0  0
  9 10  1  0  0  0  0
 10 11  1  0  0  0  0
 11 12  4  0  0  0  0
 11 20  4  0  0  0  0
 12 13  4  0  0  0  0
 13 14  1  0  0  0  0
 13 16  4  0  0  0  0
 14 15  1  0  0  0  0
 16 17  1  0  0  0  0
 16 19  4  0  0  0  0
 17 18  1  0  0  0  0
 19 20  4  0  0  0  0
 21 22  4  0  0  0  0
 21 26  4  0  0  0  0
 22 23  4  0  0  0  0
 23 24  4  0  0  0  0
 24 25  4  0  0  0  0
 25 26  4  0  0  0  0
 27 28  4  0  0  0  0
 27 32  4  0  0  0  0
 28 29  4  0  0  0  0
 29 30  4  0  0  0  0
 30 31  4  0  0  0  0
 31 32  4  0  0  0  0
M  END
>  <Name_Molregno>
616567

>  <5-HT1A>
7.01

>  <Alpha-1A>
6

>  <Alpha-1B>
6.86

$$$$
616568
  Marvin  02231216192D 0   1.00000     0.00000     0

 32 35  0  0  1  0  0  0  0  0999 V2000
    0.0315    0.1307    0.0000 O   0  0  0  0  0  0  0  0  0
   -0.5206    0.7438    0.0000 C   0  0  0  0  0  0  0  0  0
   -0.1081    1.4582    0.0000 O   0  0  0  0  0  0  0  0  0
    0.6989    1.2867    0.0000 C   0  0  0  0  0  0  0  0  0
    0.7852    0.4662    0.0000 C   0  0  0  0  0  0  0  0  0
    1.4996    0.0537    0.0000 C   0  0  0  0  0  0  0  0  0
    2.2141    0.4662    0.0000 N   0  0  0  0  0  0  0  0  0
    2.9286    0.0537    0.0000 C   0  0  0  0  0  0  0  0  0
    3.6430    0.4662    0.0000 C   0  0  0  0  0  0  0  0  0
    4.3575    0.0537    0.0000 O   0  0  0  0  0  0  0  0  0
    5.0720    0.4662    0.0000 C   0  0  0  0  0  0  0  0  0
    5.0720    1.2912    0.0000 C   0  0  0  0  0  0  0  0  0
    5.7865    1.7037    0.0000 C   0  0  0  0  0  0  0  0  0
    6.5009    1.2912    0.0000 C   0  0  0  0  0  0  0  0  0
    6.5009    0.4662    0.0000 C   0  0  0  0  0  0  0  0  0
    7.2154    0.0537    0.0000 O   0  0  0  0  0  0  0  0  0
    7.9299    0.4662    0.0000 C   0  0  0  0  0  0  0  0  0
    5.7865    0.0537    0.0000 C   0  0  0  0  0  0  0  0  0
    5.7865   -0.7713    0.0000 O   0  0  0  0  0  0  0  0  0
    6.5009   -1.1838    0.0000 C   0  0  0  0  0  0  0  0  0
   -1.0124    0.0815    0.0000 C   0  0  0  0  0  0  0  0  0
   -0.6848   -0.6757    0.0000 C   0  0  0  0  0  0  0  0  0
   -1.1767   -1.3380    0.0000 C   0  0  0  0  0  0  0  0  0
   -1.9962   -1.2432    0.0000 C   0  0  0  0  0  0  0  0  0
   -2.3239   -0.4861    0.0000 C   0  0  0  0  0  0  0  0  0
   -1.8320    0.1763    0.0000 C   0  0  0  0  0  0  0  0  0
   -1.2777    1.0714    0.0000 C   0  0  0  0  0  0  0  0  0
   -1.9400    0.5795    0.0000 C   0  0  0  0  0  0  0  0  0
   -2.6972    0.9072    0.0000 C   0  0  0  0  0  0  0  0  0
   -2.7920    1.7267    0.0000 C   0  0  0  0  0  0  0  0  0
   -2.1297    2.2186    0.0000 C   0  0  0  0  0  0  0  0  0
   -1.3725    1.8910    0.0000 C   0  0  0  0  0  0  0  0  0
  1  2  1  0  0  0  0
  1  5  1  0  0  0  0
  2  3  1  0  0  0  0
  2 21  1  0  0  0  0
  2 27  1  0  0  0  0
  3  4  1  0  0  0  0
  4  5  1  0  0  0  0
  5  6  1  0  0  0  0
  6  7  1  0  0  0  0
  7  8  1  0  0  0  0
  8  9  1  0  0  0  0
  9 10  1  0  0  0  0
 10 11  1  0  0  0  0
 11 12  4  0  0  0  0
 11 18  4  0  0  0  0
 12 13  4  0  0  0  0
 13 14  4  0  0  0  0
 14 15  4  0  0  0  0
 15 16  1  0  0  0  0
 15 18  4  0  0  0  0
 16 17  1  0  0  0  0
 18 19  1  0  0  0  0
 19 20  1  0  0  0  0
 21 22  4  0  0  0  0
 21 26  4  0  0  0  0
 22 23  4  0  0  0  0
 23 24  4  0  0  0  0
 24 25  4  0  0  0  0
 25 26  4  0  0  0  0
 27 28  4  0  0  0  0
 27 32  4  0  0  0  0
 28 29  4  0  0  0  0
 29 30  4  0  0  0  0
 30 31  4  0  0  0  0
 31 32  4  0  0  0  0
M  END
>  <Name_Molregno>
616568

>  <5-HT1A>
8.12

>  <Alpha-1A>
7.07

>  <Alpha-1B>
6.76

$$$$
688989
  Marvin  02231216192D 0   1.00000     0.00000     0

 20 23  0  0  0  0  0  0  0  0999 V2000
    0.9335    0.0052    0.0000 N   0  0  0  0  0  0  0  0  0
    1.1261   -0.7970    0.0000 C   0  0  0  0  0  0  0  0  0
    1.9485   -0.8618    0.0000 N   0  0  0  0  0  0  0  0  0
    2.2643   -0.0996    0.0000 C   0  0  0  0  0  0  0  0  0
    1.6370    0.4362    0.0000 C   0  0  0  0  0  0  0  0  0
    0.6190   -1.4477    0.0000 C   0  0  0  0  0  0  0  0  0
    0.9852   -2.1870    0.0000 N   0  0  0  0  0  0  0  0  0
    1.8085   -2.2394    0.0000 C   0  0  0  0  0  0  0  0  0
    2.1748   -2.9787    0.0000 C   0  0  0  0  0  0  0  0  0
    1.7177   -3.6655    0.0000 N   0  0  0  0  0  0  0  0  0
    0.8943   -3.6130    0.0000 C   0  0  0  0  0  0  0  0  0
    0.5281   -2.8738    0.0000 C   0  0  0  0  0  0  0  0  0
   -0.2060   -1.4570    0.0000 C   0  0  0  0  0  0  0  0  0
   -0.7276   -0.8177    0.0000 C   0  0  0  0  0  0  0  0  0
   -0.5530   -0.0114    0.0000 C   0  0  0  0  0  0  0  0  0
    0.1863    0.3548    0.0000 C   0  0  0  0  0  0  0  0  0
   -1.1640    0.5429    0.0000 C   0  0  0  0  0  0  0  0  0
   -1.9496    0.2910    0.0000 C   0  0  0  0  0  0  0  0  0
   -2.1241   -0.5154    0.0000 C   0  0  0  0  0  0  0  0  0
   -1.5131   -1.0697    0.0000 C   0  0  0  0  0  0  0  0  0
  1  2  4  0  0  0  0
  1  5  4  0  0  0  0
  1 16  1  0  0  0  0
  2  3  4  0  0  0  0
  2  6  1  0  0  0  0
  3  4  4  0  0  0  0
  4  5  4  0  0  0  0
  6  7  1  0  0  0  0
  6 13  2  0  0  0  0
  7  8  1  0  0  0  0
  7 12  1  0  0  0  0
  8  9  1  0  0  0  0
  9 10  1  0  0  0  0
 10 11  1  0  0  0  0
 11 12  1  0  0  0  0
 13 14  1  0  0  0  0
 14 15  4  0  0  0  0
 14 20  4  0  0  0  0
 15 16  1  0  0  0  0
 15 17  4  0  0  0  0
 17 18  4  0  0  0  0
 18 19  4  0  0  0  0
 19 20  4  0  0  0  0
M  END
>  <Name_Molregno>
688989

>  <5-HT2A>
8.1

>  <5-HT2C>
7.7

>  <Alpha-1A>
8.4

>  <Alpha-1B>
8.5

>  <HISTAMINE H1>
9.2

$$$$
1-Ethyl-3-{(1,4-cis)-4-[4-(1H-indol-4-yl)-piperazin-1-yl]-cyclohexyl}-1H-indole-
  Marvin  02231216192D 0   1.00000     0.00000     0

 11 10  0  0  0  0  0  0  0  0999 V2000
    0.6826   -0.6348    0.0000 O   0  0  0  0  0  0  0  0  0
   -0.0318   -1.0473    0.0000 N   0  0  0  0  0  0  0  0  0
   -0.0318   -1.8723    0.0000 N   0  0  0  0  0  0  0  0  0
   -0.7463   -2.2848    0.0000 C   0  0  0  0  0  0  0  0  0
   -1.4608   -1.8723    0.0000 C   0  0  0  0  0  0  0  0  0
   -2.1752   -2.2848    0.0000 C   0  0  0  0  0  0  0  0  0
   -2.8897   -1.8723    0.0000 C   0  0  0  0  0  0  0  0  0
    0.6826   -2.2848    0.0000 C   0  0  0  0  0  0  0  0  0
    1.3971   -1.8723    0.0000 C   0  0  0  0  0  0  0  0  0
    2.1116   -2.2848    0.0000 C   0  0  0  0  0  0  0  0  0
    2.8260   -1.8723    0.0000 C   0  0  0  0  0  0  0  0  0
  1  2  2  0  0  0  0
  2  3  1  0  0  0  0
  3  4  1  0  0  0  0
  3  8  1  0  0  0  0
  4  5  1  0  0  0  0
  5  6  1  0  0  0  0
  6  7  1  0  0  0  0
  8  9  1  0  0  0  0
  9 10  1  0  0  0  0
 10 11  1  0  0  0  0
M  END
>  <Name_Molregno>
1-Ethyl-3-{(1,4-cis)-4-[4-(1H-indol-4-yl)-piperazin-1-yl]-cyclohexyl}-1H-indole-5-carbonitrile

>  <5-HT1A>
7.6

>  <Alpha-1A>
8.18

>  <Alpha-1B>
6.6

>  <DOPAMINE D2>
7.08

>  <Dopamine transporter>
6.43

>  <Norepinephrine transporter>
6.45

>  <Serotonin transporter>
6.97

$$$$
3-{(1,4-cis)-4-[4-(1H-Indol-4-yl)-piperazin-1-yl]-cyclohexyl}-1-isopropyl-1H-ind
  Marvin  02231216192D 0   1.00000     0.00000     0

 27 30  0  0  1  0  0  0  0  0999 V2000
    0.7853    0.8061    0.0000 O   0  0  0  0  0  0  0  0  0
    1.6032    0.6984    0.0000 C   0  0  0  0  0  0  0  0  0
    2.3654    1.0142    0.0000 C   0  0  0  0  0  0  0  0  0
    3.1276    0.6984    0.0000 C   0  0  0  0  0  0  0  0  0
    3.2353    1.5164    0.0000 O   0  0  0  0  0  0  0  0  0
    3.4433   -0.0638    0.0000 C   0  0  0  0  0  0  0  0  0
    3.1276   -0.8260    0.0000 C   0  0  0  0  0  0  0  0  0
    2.3654   -1.1417    0.0000 N   0  0  0  0  0  0  0  0  0
    1.6032   -0.8260    0.0000 C   0  0  0  0  0  0  0  0  0
    1.2875   -0.0638    0.0000 C   0  0  0  0  0  0  0  0  0
    0.4696    0.0439    0.0000 C   0  0  0  0  0  0  0  0  0
   -0.0327   -0.6106    0.0000 C   0  0  0  0  0  0  0  0  0
    0.2831   -1.3728    0.0000 C   0  0  0  0  0  0  0  0  0
    1.1010   -1.4805    0.0000 C   0  0  0  0  0  0  0  0  0
    2.3654   -1.9667    0.0000 C   0  0  0  0  0  0  0  0  0
    3.0799   -2.3792    0.0000 C   0  0  0  0  0  0  0  0  0
    3.0799   -3.2042    0.0000 C   0  0  0  0  0  0  0  0  0
    2.3654   -3.6167    0.0000 C   0  0  0  0  0  0  0  0  0
    1.6510   -3.2042    0.0000 C   0  0  0  0  0  0  0  0  0
    1.6510   -2.3792    0.0000 C   0  0  0  0  0  0  0  0  0
    0.9365   -1.9667    0.0000 C   0  0  0  0  0  0  0  0  0
    3.6299   -1.4805    0.0000 C   0  0  0  0  0  0  0  0  0
    4.4478   -1.3728    0.0000 C   0  0  0  0  0  0  0  0  0
    4.7635   -0.6106    0.0000 C   0  0  0  0  0  0  0  0  0
    4.2613    0.0439    0.0000 C   0  0  0  0  0  0  0  0  0
    3.9456    0.8061    0.0000 C   0  0  0  0  0  0  0  0  0
    1.4955    1.5164    0.0000 C   0  0  0  0  0  0  0  0  0
  1  2  1  0  0  0  0
  2  3  1  0  0  0  0
  2 10  1  0  0  0  0
  2 27  1  0  0  0  0
  3  4  1  0  0  0  0
  4  5  1  0  0  0  0
  4  6  1  0  0  0  0
  4 26  1  0  0  0  0
  6  7  4  0  0  0  0
  6 25  4  0  0  0  0
  7  8  1  0  0  0  0
  7 22  4  0  0  0  0
  8  9  1  0  0  0  0
  8 15  1  0  0  0  0
  9 10  4  0  0  0  0
  9 14  4  0  0  0  0
 10 11  4  0  0  0  0
 11 12  4  0  0  0  0
 12 13  4  0  0  0  0
 13 14  4  0  0  0  0
 15 16  4  0  0  0  0
 15 20  4  0  0  0  0
 16 17  4  0  0  0  0
 17 18  4  0  0  0  0
 18 19  4  0  0  0  0
 19 20  4  0  0  0  0
 20 21  1  0  0  0  0
 22 23  4  0  0  0  0
 23 24  4  0  0  0  0
 24 25  4  0  0  0  0
M  END
>  <Name_Molregno>
3-{(1,4-cis)-4-[4-(1H-Indol-4-yl)-piperazin-1-yl]-cyclohexyl}-1-isopropyl-1H-indole-5-carbonitrile

>  <5-HT1A>
6.13

>  <Alpha-1A>
8.92

>  <Alpha-1B>
7.09

>  <DOPAMINE D2>
7.62

$$$$
9-OH-risperidone
  Marvin  02231216192D 0   1.00000     0.00000     0

 31 35  0  0  1  0  0  0  0  0999 V2000
    1.7758   -2.6889    0.0000 F   0  0  0  0  0  0  0  0  0
    2.0308   -1.9043    0.0000 C   0  0  0  0  0  0  0  0  0
    1.4788   -1.2912    0.0000 C   0  0  0  0  0  0  0  0  0
    1.7337   -0.5066    0.0000 C   0  0  0  0  0  0  0  0  0
    1.3212    0.2079    0.0000 O   0  0  0  0  0  0  0  0  0
    1.8732    0.8210    0.0000 N   0  0  0  0  0  0  0  0  0
    2.6269    0.4854    0.0000 C   0  0  0  0  0  0  0  0  0
    2.5407   -0.3350    0.0000 C   0  0  0  0  0  0  0  0  0
    3.0927   -0.9481    0.0000 C   0  0  0  0  0  0  0  0  0
    2.8378   -1.7327    0.0000 C   0  0  0  0  0  0  0  0  0
    3.3414    0.8979    0.0000 C   0  0  0  0  0  0  0  0  0
    3.3414    1.7229    0.0000 C   0  0  0  0  0  0  0  0  0
    4.0558    2.1354    0.0000 C   0  0  0  0  0  0  0  0  0
    4.7703    1.7229    0.0000 N   0  0  0  0  0  0  0  0  0
    4.7703    0.8979    0.0000 C   0  0  0  0  0  0  0  0  0
    4.0558    0.4854    0.0000 C   0  0  0  0  0  0  0  0  0
    5.4848    2.1354    0.0000 C   0  0  0  0  0  0  0  0  0
    6.1993    1.7229    0.0000 C   0  0  0  0  0  0  0  0  0
    6.9137    2.1354    0.0000 C   0  0  0  0  0  0  0  0  0
    7.6282    1.7229    0.0000 C   0  0  0  0  0  0  0  0  0
    7.6282    0.8979    0.0000 O   0  0  0  0  0  0  0  0  0
    8.3427    2.1354    0.0000 N   0  0  0  0  0  0  0  0  0
    8.3427    2.9604    0.0000 C   0  0  0  0  0  0  0  0  0
    7.6282    3.3729    0.0000 N   0  0  0  0  0  0  0  0  0
    6.9137    2.9604    0.0000 C   0  0  0  0  0  0  0  0  0
    6.1993    3.3729    0.0000 C   0  0  0  0  0  0  0  0  0
    9.0571    3.3729    0.0000 C   0  0  0  0  0  0  0  0  0
    9.0571    4.1979    0.0000 O   0  0  0  0  0  0  0  0  0
    9.7716    2.9604    0.0000 C   0  0  0  0  0  0  0  0  0
    9.7716    2.1354    0.0000 C   0  0  0  0  0  0  0  0  0
    9.0571    1.7229    0.0000 C   0  0  0  0  0  0  0  0  0
  1  2  1  0  0  0  0
  2  3  4  0  0  0  0
  2 10  4  0  0  0  0
  3  4  4  0  0  0  0
  4  5  4  0  0  0  0
  4  8  4  0  0  0  0
  5  6  4  0  0  0  0
  6  7  4  0  0  0  0
  7  8  4  0  0  0  0
  7 11  1  0  0  0  0
  8  9  4  0  0  0  0
  9 10  4  0  0  0  0
 11 12  1  0  0  0  0
 11 16  1  0  0  0  0
 12 13  1  0  0  0  0
 13 14  1  0  0  0  0
 14 15  1  0  0  0  0
 14 17  1  0  0  0  0
 15 16  1  0  0  0  0
 17 18  1  0  0  0  0
 18 19  1  0  0  0  0
 19 20  1  0  0  0  0
 19 25  2  0  0  0  0
 20 21  2  0  0  0  0
 20 22  1  0  0  0  0
 22 23  1  0  0  0  0
 22 31  1  0  0  0  0
 23 24  2  0  0  0  0
 23 27  1  0  0  0  0
 24 25  1  0  0  0  0
 25 26  1  0  0  0  0
 27 28  1  0  0  0  0
 27 29  1  0  0  0  0
 29 30  1  0  0  0  0
 30 31  1  0  0  0  0
M  END
>  <Name_Molregno>
9-OH-risperidone

>  <5-HT1A>
6.24

>  <5-HT1B>
7.51

>  <5-HT1D>
7.44

>  <5-HT1E>
5.49

>  <5-HT2A>
9

>  <5-HT2C>
7.32

>  <5-HT3>
5

>  <5-HT5>
6.56

>  <5-HT6>
5.62

>  <5-HT7>
8.57

>  <Alpha-1A>
8.6

>  <Alpha-1B>
9.15

>  <Alpha-2A>
7.92

>  <Alpha-2B>
7.63

>  <Alpha-2C>
8.2

>  <Beta-1>
5.15

>  <Beta-2>
5.15

>  <DOPAMINE D1>
7.39

>  <DOPAMINE D2>
8.61

>  <DOPAMINE D3>
9.07

>  <DOPAMINE D4>
7.4

>  <DOPAMINE D5>
7.54

>  <Dopamine transporter>
5

>  <HISTAMINE H1>
8.07

>  <HISTAMINE H2>
6.92

>  <HISTAMINE H4>
5.06

>  <Muscarinic acetylcholine receptor M1>
5

>  <Muscarinic acetylcholine receptor M2>
5

>  <Muscarinic acetylcholine receptor M3>
5

>  <Muscarinic acetylcholine receptor M4>
5

>  <Muscarinic acetylcholine receptor M5>
5

>  <Norepinephrine transporter>
5

>  <Serotonin transporter>
5.71

$$$$
ABANOQUIL
  Marvin  02231216192D 0   1.00000     0.00000     0

 29 32  0  0  0  0  0  0  0  0999 V2000
   -7.8228   -2.1186    0.0000 O   0  0  0  0  0  0  0  0  0
   -8.5372   -1.7061    0.0000 C   0  0  0  0  0  0  0  0  0
   -7.1083   -1.7061    0.0000 C   0  0  0  0  0  0  0  0  0
   -6.3938   -2.1186    0.0000 C   0  0  0  0  0  0  0  0  0
   -5.6793   -1.7061    0.0000 C   0  0  0  0  0  0  0  0  0
   -5.6793   -0.8811    0.0000 C   0  0  0  0  0  0  0  0  0
   -4.9649   -0.4686    0.0000 N   0  0  0  0  0  0  0  0  0
   -4.2504   -0.8811    0.0000 C   0  0  0  0  0  0  0  0  0
   -3.5359   -0.4686    0.0000 N   0  0  0  0  0  0  0  0  0
   -3.5359    0.3564    0.0000 C   0  0  0  0  0  0  0  0  0
   -2.8215    0.7689    0.0000 C   0  0  0  0  0  0  0  0  0
   -2.1070    0.3564    0.0000 C   0  0  0  0  0  0  0  0  0
   -1.3925    0.7689    0.0000 C   0  0  0  0  0  0  0  0  0
   -0.6780    0.3564    0.0000 C   0  0  0  0  0  0  0  0  0
    0.0364    0.7689    0.0000 O   0  0  0  0  0  0  0  0  0
    0.0364    1.5939    0.0000 C   0  0  0  0  0  0  0  0  0
   -0.6780   -0.4686    0.0000 C   0  0  0  0  0  0  0  0  0
    0.0364   -0.8811    0.0000 O   0  0  0  0  0  0  0  0  0
    0.0364   -1.7061    0.0000 C   0  0  0  0  0  0  0  0  0
   -1.3925   -0.8811    0.0000 C   0  0  0  0  0  0  0  0  0
   -2.1070   -0.4686    0.0000 C   0  0  0  0  0  0  0  0  0
   -2.8215   -0.8811    0.0000 C   0  0  0  0  0  0  0  0  0
   -4.2504   -1.7061    0.0000 C   0  0  0  0  0  0  0  0  0
   -4.9649   -2.1186    0.0000 C   0  0  0  0  0  0  0  0  0
   -4.9649   -2.9436    0.0000 N   0  0  0  0  0  0  0  0  0
   -6.3938   -0.4686    0.0000 C   0  0  0  0  0  0  0  0  0
   -7.1083   -0.8811    0.0000 C   0  0  0  0  0  0  0  0  0
   -7.8228   -0.4686    0.0000 O   0  0  0  0  0  0  0  0  0
   -7.8228    0.3564    0.0000 C   0  0  0  0  0  0  0  0  0
  1  2  1  0  0  0  0
  1  3  1  0  0  0  0
  3  4  4  0  0  0  0
  3 27  4  0  0  0  0
  4  5  4  0  0  0  0
  5  6  4  0  0  0  0
  5 24  4  0  0  0  0
  6  7  4  0  0  0  0
  6 26  4  0  0  0  0
  7  8  4  0  0  0  0
  8  9  1  0  0  0  0
  8 23  4  0  0  0  0
  9 10  1  0  0  0  0
  9 22  1  0  0  0  0
 10 11  1  0  0  0  0
 11 12  1  0  0  0  0
 12 13  4  0  0  0  0
 12 21  4  0  0  0  0
 13 14  4  0  0  0  0
 14 15  1  0  0  0  0
 14 17  4  0  0  0  0
 15 16  1  0  0  0  0
 17 18  1  0  0  0  0
 17 20  4  0  0  0  0
 18 19  1  0  0  0  0
 20 21  4  0  0  0  0
 21 22  1  0  0  0  0
 23 24  4  0  0  0  0
 24 25  1  0  0  0  0
 26 27  4  0  0  0  0
 27 28  1  0  0  0  0
 28 29  1  0  0  0  0
M  STY  1   1 DAT
M  SAL   1  1   7
M  SDT   1 MRV_IMPLICIT_H                                        
M  SDD   1     0.0000    0.0000    DR    ALL  0       0  
M  SED   1 IMPL_H1
M  END
>  <Name_Molregno>
ABANOQUIL

>  <Alpha-1A>
10.4

>  <Alpha-1B>
10.1

$$$$
Acetylsalicylic-acid
  Marvin  02231216192D 0   1.00000     0.00000     0

 13 13  0  0  0  0  0  0  0  0999 V2000
    0.0203    0.5019    0.0000 O   0  0  0  0  0  0  0  0  0
    0.7347    0.0894    0.0000 C   0  0  0  0  0  0  0  0  0
    1.4492    0.5019    0.0000 O   0  0  0  0  0  0  0  0  0
    0.7347   -0.7356    0.0000 C   0  0  0  0  0  0  0  0  0
   -0.6942    0.0894    0.0000 C   0  0  0  0  0  0  0  0  0
   -0.6942   -0.7356    0.0000 C   0  0  0  0  0  0  0  0  0
   -1.4087   -1.1481    0.0000 C   0  0  0  0  0  0  0  0  0
   -2.1232   -0.7356    0.0000 C   0  0  0  0  0  0  0  0  0
   -2.1232    0.0894    0.0000 C   0  0  0  0  0  0  0  0  0
   -1.4087    0.5019    0.0000 C   0  0  0  0  0  0  0  0  0
   -1.4087    1.3269    0.0000 C   0  0  0  0  0  0  0  0  0
   -2.1232    1.7394    0.0000 O   0  0  0  0  0  0  0  0  0
   -0.6942    1.7394    0.0000 O   0  0  0  0  0  0  0  0  0
  1  2  1  0  0  0  0
  1  5  1  0  0  0  0
  2  3  2  0  0  0  0
  2  4  1  0  0  0  0
  5  6  4  0  0  0  0
  5 10  4  0  0  0  0
  6  7  4  0  0  0  0
  7  8  4  0  0  0  0
  8  9  4  0  0  0  0
  9 10  4  0  0  0  0
 10 11  1  0  0  0  0
 11 12  1  0  0  0  0
 11 13  2  0  0  0  0
M  END
>  <Name_Molregno>
Acetylsalicylic-acid

>  <5-HT1A>
5

>  <5-HT1B>
5

>  <5-HT1D>
5

>  <5-HT2A>
5

>  <5-HT3>
5

>  <5-HT5>
5

>  <5-HT6>
5

>  <5-HT7>
5

>  <Alpha-1A>
5

>  <Alpha-1B>
5

>  <Alpha-2A>
5

>  <Alpha-2B>
5

>  <Alpha-2C>
5

>  <DOPAMINE D1>
5

>  <DOPAMINE D2>
5

>  <DOPAMINE D4>
5

>  <DOPAMINE D5>
5

>  <HISTAMINE H1>
5

>  <HISTAMINE H2>
5

>  <Muscarinic acetylcholine receptor M2>
5

>  <Muscarinic acetylcholine receptor M5>
5

$$$$
ALFUZOSIN
  Marvin  02231216192D 0   1.00000     0.00000     0

 28 30  0  0  1  0  0  0  0  0999 V2000
    0.1498    0.7597    0.0000 O   0  0  0  0  0  0  0  0  0
   -0.4022    1.3728    0.0000 C   0  0  0  0  0  0  0  0  0
    0.0103    2.0873    0.0000 C   0  0  0  0  0  0  0  0  0
    0.8173    1.9157    0.0000 C   0  0  0  0  0  0  0  0  0
    0.9035    1.0952    0.0000 C   0  0  0  0  0  0  0  0  0
    1.6180    0.6827    0.0000 C   0  0  0  0  0  0  0  0  0
    1.6180   -0.1423    0.0000 O   0  0  0  0  0  0  0  0  0
    2.3324    1.0952    0.0000 N   0  0  0  0  0  0  0  0  0
    3.0469    0.6827    0.0000 C   0  0  0  0  0  0  0  0  0
    3.7614    1.0952    0.0000 C   0  0  0  0  0  0  0  0  0
    4.4759    0.6827    0.0000 C   0  0  0  0  0  0  0  0  0
    5.1903    1.0952    0.0000 N   0  0  0  0  0  0  0  0  0
    5.1903    1.9202    0.0000 C   0  0  0  0  0  0  0  0  0
    5.9048    0.6827    0.0000 C   0  0  0  0  0  0  0  0  0
    6.6193    1.0952    0.0000 N   0  0  0  0  0  0  0  0  0
    7.3337    0.6827    0.0000 C   0  0  0  0  0  0  0  0  0
    8.0482    1.0952    0.0000 N   0  0  0  0  0  0  0  0  0
    7.3337   -0.1423    0.0000 C   0  0  0  0  0  0  0  0  0
    8.0482   -0.5548    0.0000 C   0  0  0  0  0  0  0  0  0
    8.0482   -1.3798    0.0000 C   0  0  0  0  0  0  0  0  0
    8.7627   -1.7923    0.0000 O   0  0  0  0  0  0  0  0  0
    9.4771   -1.3798    0.0000 C   0  0  0  0  0  0  0  0  0
    7.3337   -1.7923    0.0000 C   0  0  0  0  0  0  0  0  0
    7.3337   -2.6173    0.0000 O   0  0  0  0  0  0  0  0  0
    6.6193   -3.0298    0.0000 C   0  0  0  0  0  0  0  0  0
    6.6193   -1.3798    0.0000 C   0  0  0  0  0  0  0  0  0
    6.6193   -0.5548    0.0000 C   0  0  0  0  0  0  0  0  0
    5.9048   -0.1423    0.0000 N   0  0  0  0  0  0  0  0  0
  1  2  1  0  0  0  0
  1  5  1  0  0  0  0
  2  3  1  0  0  0  0
  3  4  1  0  0  0  0
  4  5  1  0  0  0  0
  5  6  1  0  0  0  0
  6  7  2  0  0  0  0
  6  8  1  0  0  0  0
  8  9  1  0  0  0  0
  9 10  1  0  0  0  0
 10 11  1  0  0  0  0
 11 12  1  0  0  0  0
 12 13  1  0  0  0  0
 12 14  1  0  0  0  0
 14 15  4  0  0  0  0
 14 28  4  0  0  0  0
 15 16  4  0  0  0  0
 16 17  1  0  0  0  0
 16 18  4  0  0  0  0
 18 19  4  0  0  0  0
 18 27  4  0  0  0  0
 19 20  4  0  0  0  0
 20 21  1  0  0  0  0
 20 23  4  0  0  0  0
 21 22  1  0  0  0  0
 23 24  1  0  0  0  0
 23 26  4  0  0  0  0
 24 25  1  0  0  0  0
 26 27  4  0  0  0  0
 27 28  4  0  0  0  0
M  END
>  <Name_Molregno>
ALFUZOSIN

>  <Alpha-1A>
8.09

>  <Alpha-1B>
8.55

$$$$
Amentoflavone
  Marvin  02231216192D 0   1.00000     0.00000     0

 40 45  0  0  0  0  0  0  0  0999 V2000
   -3.5941   -0.9772    0.0000 O   0  0  0  0  0  0  0  0  0
   -3.5941   -0.1522    0.0000 C   0  0  0  0  0  0  0  0  0
   -4.3085    0.2603    0.0000 C   0  0  0  0  0  0  0  0  0
   -5.0230   -0.1522    0.0000 C   0  0  0  0  0  0  0  0  0
   -5.7375    0.2603    0.0000 O   0  0  0  0  0  0  0  0  0
   -5.0230   -0.9772    0.0000 C   0  0  0  0  0  0  0  0  0
   -4.3085   -1.3897    0.0000 C   0  0  0  0  0  0  0  0  0
   -4.3085   -2.2147    0.0000 C   0  0  0  0  0  0  0  0  0
   -3.5941   -2.6272    0.0000 C   0  0  0  0  0  0  0  0  0
   -3.5941   -3.4522    0.0000 C   0  0  0  0  0  0  0  0  0
   -4.3085   -3.8647    0.0000 C   0  0  0  0  0  0  0  0  0
   -4.3085   -4.6897    0.0000 O   0  0  0  0  0  0  0  0  0
   -5.0230   -3.4522    0.0000 C   0  0  0  0  0  0  0  0  0
   -5.0230   -2.6272    0.0000 C   0  0  0  0  0  0  0  0  0
   -4.3085    1.0853    0.0000 C   0  0  0  0  0  0  0  0  0
   -5.0230    1.4978    0.0000 O   0  0  0  0  0  0  0  0  0
   -3.5941    1.4978    0.0000 C   0  0  0  0  0  0  0  0  0
   -2.8796    1.0853    0.0000 C   0  0  0  0  0  0  0  0  0
   -2.1651    1.4978    0.0000 O   0  0  0  0  0  0  0  0  0
   -2.8796    0.2603    0.0000 C   0  0  0  0  0  0  0  0  0
   -2.1651   -0.1522    0.0000 C   0  0  0  0  0  0  0  0  0
   -1.4507    0.2603    0.0000 C   0  0  0  0  0  0  0  0  0
   -0.7362   -0.1522    0.0000 C   0  0  0  0  0  0  0  0  0
   -0.7362   -0.9772    0.0000 C   0  0  0  0  0  0  0  0  0
   -1.4507   -1.3897    0.0000 C   0  0  0  0  0  0  0  0  0
   -2.1651   -0.9772    0.0000 C   0  0  0  0  0  0  0  0  0
   -2.8796   -1.3897    0.0000 O   0  0  0  0  0  0  0  0  0
   -0.0217    0.2603    0.0000 C   0  0  0  0  0  0  0  0  0
    0.6928   -0.1522    0.0000 O   0  0  0  0  0  0  0  0  0
    1.4072    0.2603    0.0000 C   0  0  0  0  0  0  0  0  0
    1.4072    1.0853    0.0000 C   0  0  0  0  0  0  0  0  0
    0.6928    1.4978    0.0000 C   0  0  0  0  0  0  0  0  0
    0.6928    2.3228    0.0000 O   0  0  0  0  0  0  0  0  0
   -0.0217    1.0853    0.0000 C   0  0  0  0  0  0  0  0  0
    2.1217    1.4978    0.0000 C   0  0  0  0  0  0  0  0  0
    2.1217    2.3228    0.0000 O   0  0  0  0  0  0  0  0  0
    2.8362    1.0853    0.0000 C   0  0  0  0  0  0  0  0  0
    2.8362    0.2603    0.0000 C   0  0  0  0  0  0  0  0  0
    3.5506   -0.1522    0.0000 O   0  0  0  0  0  0  0  0  0
    2.1217   -0.1522    0.0000 C   0  0  0  0  0  0  0  0  0
  1  2  1  0  0  0  0
  1  7  1  0  0  0  0
  2  3  4  0  0  0  0
  2 20  4  0  0  0  0
  3  4  1  0  0  0  0
  3 15  4  0  0  0  0
  4  5  2  0  0  0  0
  4  6  1  0  0  0  0
  6  7  2  0  0  0  0
  7  8  1  0  0  0  0
  8  9  4  0  0  0  0
  8 14  4  0  0  0  0
  9 10  4  0  0  0  0
 10 11  4  0  0  0  0
 11 12  1  0  0  0  0
 11 13  4  0  0  0  0
 13 14  4  0  0  0  0
 15 16  1  0  0  0  0
 15 17  4  0  0  0  0
 17 18  4  0  0  0  0
 18 19  1  0  0  0  0
 18 20  4  0  0  0  0
 20 21  1  0  0  0  0
 21 22  4  0  0  0  0
 21 26  4  0  0  0  0
 22 23  4  0  0  0  0
 23 24  4  0  0  0  0
 23 28  1  0  0  0  0
 24 25  4  0  0  0  0
 25 26  4  0  0  0  0
 26 27  1  0  0  0  0
 28 29  1  0  0  0  0
 28 34  2  0  0  0  0
 29 30  1  0  0  0  0
 30 31  4  0  0  0  0
 30 40  4  0  0  0  0
 31 32  1  0  0  0  0
 31 35  4  0  0  0  0
 32 33  2  0  0  0  0
 32 34  1  0  0  0  0
 35 36  1  0  0  0  0
 35 37  4  0  0  0  0
 37 38  4  0  0  0  0
 38 39  1  0  0  0  0
 38 40  4  0  0  0  0
M  END
>  <Name_Molregno>
Amentoflavone

>  <5-HT1A>
5

>  <5-HT1B>
5.39

>  <5-HT1D>
5

>  <5-HT2C>
5.59

>  <5-HT3>
5

>  <5-HT5>
5

>  <5-HT6>
5

>  <5-HT7>
5

>  <Alpha-1A>
5

>  <Alpha-1B>
5

>  <Alpha-2A>
5

>  <Alpha-2B>
5

>  <Alpha-2C>
5

>  <DOPAMINE D1>
5

>  <DOPAMINE D5>
5

>  <Muscarinic acetylcholine receptor M1>
5

>  <Muscarinic acetylcholine receptor M2>
5

>  <Muscarinic acetylcholine receptor M3>
5

>  <Muscarinic acetylcholine receptor M4>
5

>  <Muscarinic acetylcholine receptor M5>
5

>  <Norepinephrine transporter>
5

>  <Serotonin transporter>
5

$$$$
APOMORPHINE
  Marvin  02231216192D 0   1.00000     0.00000     0

 20 23  0  0  1  0  0  0  0  0999 V2000
    3.2214   -1.7908    0.0000 O   0  0  0  0  0  0  0  0  0
    3.2214   -0.9658    0.0000 C   0  0  0  0  0  0  0  0  0
    2.5070   -0.5533    0.0000 C   0  0  0  0  0  0  0  0  0
    2.5070    0.2717    0.0000 C   0  0  0  0  0  0  0  0  0
    1.7925    0.6842    0.0000 C   0  0  0  0  0  0  0  0  0
    1.0780    0.2717    0.0000 C   0  0  0  0  0  0  0  0  0
    0.3635    0.6842    0.0000 N   0  0  0  0  0  0  0  0  0
   -0.3509    0.2717    0.0000 C   0  0  0  0  0  0  0  0  0
   -0.3509   -0.5533    0.0000 C   0  0  0  0  0  0  0  0  0
    0.3635   -0.9658    0.0000 C   0  0  0  0  0  0  0  0  0
    1.0780   -0.5533    0.0000 C   0  0  0  0  0  0  0  0  0
    1.7925   -0.9658    0.0000 C   0  0  0  0  0  0  0  0  0
    1.7925   -1.7908    0.0000 C   0  0  0  0  0  0  0  0  0
    1.0780   -2.2033    0.0000 C   0  0  0  0  0  0  0  0  0
    0.3635   -1.7908    0.0000 C   0  0  0  0  0  0  0  0  0
    0.3635    1.5092    0.0000 C   0  0  0  0  0  0  0  0  0
    3.2214    0.6842    0.0000 C   0  0  0  0  0  0  0  0  0
    3.9359    0.2717    0.0000 C   0  0  0  0  0  0  0  0  0
    3.9359   -0.5533    0.0000 C   0  0  0  0  0  0  0  0  0
    4.6504   -0.9658    0.0000 O   0  0  0  0  0  0  0  0  0
  1  2  1  0  0  0  0
  2  3  4  0  0  0  0
  2 19  4  0  0  0  0
  3  4  4  0  0  0  0
  3 12  1  0  0  0  0
  4  5  1  0  0  0  0
  4 17  4  0  0  0  0
  5  6  1  0  0  0  0
  6  7  1  0  0  0  0
  6 11  1  0  0  0  0
  7  8  1  0  0  0  0
  7 16  1  0  0  0  0
  8  9  1  0  0  0  0
  9 10  1  0  0  0  0
 10 11  4  0  0  0  0
 10 15  4  0  0  0  0
 11 12  4  0  0  0  0
 12 13  4  0  0  0  0
 13 14  4  0  0  0  0
 14 15  4  0  0  0  0
 17 18  4  0  0  0  0
 18 19  4  0  0  0  0
 19 20  1  0  0  0  0
M  END
>  <Name_Molregno>
APOMORPHINE

>  <5-HT1A>
6.12

>  <5-HT1B>
5.53

>  <5-HT1D>
5.91

>  <5-HT2A>
6.63

>  <5-HT2C>
6.99

>  <Alpha-1A>
5.7

>  <Alpha-1B>
6.17

>  <Alpha-2A>
6.85

>  <Alpha-2B>
7.18

>  <Alpha-2C>
7.44

>  <Beta-1>
5

>  <Beta-2>
5

>  <DOPAMINE D1>
6.4

>  <DOPAMINE D2>
7.34

>  <DOPAMINE D3>
7.65

>  <DOPAMINE D4>
7.92

>  <DOPAMINE D5>
7.14

$$$$
ARIPIPRAZOLE
  Marvin  02231216192D 0   1.00000     0.00000     0

 30 33  0  0  0  0  0  0  0  0999 V2000
   -8.7485    0.0493    0.0000 Cl  0  0  0  0  0  0  0  0  0
   -8.7485   -0.7757    0.0000 C   0  0  0  0  0  0  0  0  0
   -8.0340   -1.1882    0.0000 C   0  0  0  0  0  0  0  0  0
   -7.3195   -0.7757    0.0000 N   0  0  0  0  0  0  0  0  0
   -7.3195    0.0493    0.0000 C   0  0  0  0  0  0  0  0  0
   -6.6051    0.4618    0.0000 C   0  0  0  0  0  0  0  0  0
   -5.8906    0.0493    0.0000 N   0  0  0  0  0  0  0  0  0
   -5.8906   -0.7757    0.0000 C   0  0  0  0  0  0  0  0  0
   -6.6051   -1.1882    0.0000 C   0  0  0  0  0  0  0  0  0
   -5.1761    0.4618    0.0000 C   0  0  0  0  0  0  0  0  0
   -4.4616    0.0493    0.0000 C   0  0  0  0  0  0  0  0  0
   -3.7472    0.4618    0.0000 C   0  0  0  0  0  0  0  0  0
   -3.0327    0.0493    0.0000 C   0  0  0  0  0  0  0  0  0
   -2.3182    0.4618    0.0000 O   0  0  0  0  0  0  0  0  0
   -1.6038    0.0493    0.0000 C   0  0  0  0  0  0  0  0  0
   -0.8893    0.4618    0.0000 C   0  0  0  0  0  0  0  0  0
   -0.1748    0.0493    0.0000 C   0  0  0  0  0  0  0  0  0
    0.5397    0.4618    0.0000 N   0  0  0  0  0  0  0  0  0
    1.2541    0.0493    0.0000 C   0  0  0  0  0  0  0  0  0
    1.9686    0.4618    0.0000 O   0  0  0  0  0  0  0  0  0
    1.2541   -0.7757    0.0000 C   0  0  0  0  0  0  0  0  0
    0.5397   -1.1882    0.0000 C   0  0  0  0  0  0  0  0  0
   -0.1748   -0.7757    0.0000 C   0  0  0  0  0  0  0  0  0
   -0.8893   -1.1882    0.0000 C   0  0  0  0  0  0  0  0  0
   -1.6038   -0.7757    0.0000 C   0  0  0  0  0  0  0  0  0
   -8.0340   -2.0132    0.0000 C   0  0  0  0  0  0  0  0  0
   -8.7485   -2.4257    0.0000 C   0  0  0  0  0  0  0  0  0
   -9.4629   -2.0132    0.0000 C   0  0  0  0  0  0  0  0  0
   -9.4629   -1.1882    0.0000 C   0  0  0  0  0  0  0  0  0
  -10.1774   -0.7757    0.0000 Cl  0  0  0  0  0  0  0  0  0
  1  2  1  0  0  0  0
  2  3  4  0  0  0  0
  2 29  4  0  0  0  0
  3  4  1  0  0  0  0
  3 26  4  0  0  0  0
  4  5  1  0  0  0  0
  4  9  1  0  0  0  0
  5  6  1  0  0  0  0
  6  7  1  0  0  0  0
  7  8  1  0  0  0  0
  7 10  1  0  0  0  0
  8  9  1  0  0  0  0
 10 11  1  0  0  0  0
 11 12  1  0  0  0  0
 12 13  1  0  0  0  0
 13 14  1  0  0  0  0
 14 15  1  0  0  0  0
 15 16  4  0  0  0  0
 15 25  4  0  0  0  0
 16 17  4  0  0  0  0
 17 18  1  0  0  0  0
 17 23  4  0  0  0  0
 18 19  1  0  0  0  0
 19 20  2  0  0  0  0
 19 21  1  0  0  0  0
 21 22  1  0  0  0  0
 22 23  1  0  0  0  0
 23 24  4  0  0  0  0
 24 25  4  0  0  0  0
 26 27  4  0  0  0  0
 27 28  4  0  0  0  0
 28 29  4  0  0  0  0
 29 30  1  0  0  0  0
M  END
>  <Name_Molregno>
ARIPIPRAZOLE

>  <5-HT1A>
8.21

>  <5-HT1B>
6.08

>  <5-HT1D>
7.18

>  <5-HT1E>
5.1

>  <5-HT2A>
7.85

>  <5-HT2C>
7.48

>  <5-HT3>
6.25

>  <5-HT5>
5.91

>  <5-HT6>
6.32

>  <5-HT7>
7.81

>  <Alpha-1A>
7.59

>  <Alpha-1B>
7.46

>  <Alpha-2A>
7.13

>  <Alpha-2B>
6.99

>  <Alpha-2C>
7.42

>  <Beta-1>
6.85

>  <Beta-2>
6.79

>  <DOPAMINE D1>
6.06

>  <DOPAMINE D2>
8.72

>  <DOPAMINE D3>
8.45

>  <DOPAMINE D4>
6.51

>  <DOPAMINE D5>
5.69

>  <Dopamine transporter>
5.49

>  <HISTAMINE H1>
7.56

>  <HISTAMINE H2>
5

>  <HISTAMINE H4>
5

>  <Muscarinic acetylcholine receptor M1>
5.17

>  <Muscarinic acetylcholine receptor M2>
5.45

>  <Muscarinic acetylcholine receptor M3>
5.33

>  <Muscarinic acetylcholine receptor M4>
5.82

>  <Muscarinic acetylcholine receptor M5>
5.63

>  <Norepinephrine transporter>
5.68

>  <Serotonin transporter>
6.48

$$$$
B-HT920
  Marvin  02231216192D 0   1.00000     0.00000     0

 14 15  0  0  0  0  0  0  0  0999 V2000
   -3.1193    0.1933    0.0000 S   0  0  0  0  0  0  0  0  0
   -2.3347   -0.0617    0.0000 C   0  0  0  0  0  0  0  0  0
   -1.6896    0.4527    0.0000 C   0  0  0  0  0  0  0  0  0
   -0.8853    0.2691    0.0000 C   0  0  0  0  0  0  0  0  0
   -0.5274   -0.4742    0.0000 N   0  0  0  0  0  0  0  0  0
   -0.8853   -1.2175    0.0000 C   0  0  0  0  0  0  0  0  0
   -1.6896   -1.4010    0.0000 C   0  0  0  0  0  0  0  0  0
   -2.3347   -0.8867    0.0000 C   0  0  0  0  0  0  0  0  0
   -3.1193   -1.1416    0.0000 N   0  0  0  0  0  0  0  0  0
   -3.6042   -0.4742    0.0000 C   0  0  0  0  0  0  0  0  0
   -4.4292   -0.4742    0.0000 N   0  0  0  0  0  0  0  0  0
    0.2976   -0.4742    0.0000 C   0  0  0  0  0  0  0  0  0
    0.7101   -1.1886    0.0000 C   0  0  0  0  0  0  0  0  0
    1.5351   -1.1886    0.0000 C   0  0  0  0  0  0  0  0  0
  1  2  4  0  0  0  0
  1 10  4  0  0  0  0
  2  3  1  0  0  0  0
  2  8  4  0  0  0  0
  3  4  1  0  0  0  0
  4  5  1  0  0  0  0
  5  6  1  0  0  0  0
  5 12  1  0  0  0  0
  6  7  1  0  0  0  0
  7  8  1  0  0  0  0
  8  9  4  0  0  0  0
  9 10  4  0  0  0  0
 10 11  1  0  0  0  0
 12 13  1  0  0  0  0
 13 14  2  0  0  0  0
M  END
>  <Name_Molregno>
B-HT920

>  <5-HT1A>
5.77

>  <5-HT1B>
5

>  <5-HT1D>
5

>  <5-HT2A>
5

>  <5-HT2C>
5

>  <Alpha-1A>
5

>  <Alpha-1B>
5.41

>  <Alpha-2A>
6.91

>  <Alpha-2B>
6.69

>  <Alpha-2C>
6.69

>  <Beta-1>
5

>  <Beta-2>
5

>  <DOPAMINE D1>
5

>  <DOPAMINE D2>
6.88

>  <DOPAMINE D3>
7.8

>  <DOPAMINE D4>
6.48

>  <DOPAMINE D5>
5.46

$$$$
BROMOCRIPTINE
  Marvin  02231216192D 0   1.00000     0.00000     0

 43 49  0  0  1  0  0  0  0  0999 V2000
    6.2699    4.4922    0.0000 Br  0  0  0  0  0  0  0  0  0
    6.7473    3.8193    0.0000 C   0  0  0  0  0  0  0  0  0
    7.5723    3.8193    0.0000 N   0  0  0  0  0  0  0  0  0
    7.8776    2.9622    0.0000 C   0  0  0  0  0  0  0  0  0
    7.1598    2.5497    0.0000 C   0  0  0  0  0  0  0  0  0
    6.4473    2.9622    0.0000 C   0  0  0  0  0  0  0  0  0
    5.7348    2.5497    0.0000 C   0  0  0  0  0  0  0  0  0
    5.7348    1.7247    0.0000 C   0  0  0  0  0  0  0  0  0
    5.0198    1.3130    0.0000 N   0  0  0  0  0  0  0  0  0
    5.0188    0.4880    0.0000 C   0  0  0  0  0  0  0  0  0
    5.7328    0.0747    0.0000 C   0  0  0  0  0  0  0  0  0
    6.4478    0.4863    0.0000 C   0  0  0  0  0  0  0  0  0
    6.4488    1.3113    0.0000 C   0  0  0  0  0  0  0  0  0
    7.1598    1.7247    0.0000 C   0  0  0  0  0  0  0  0  0
    7.8776    1.3122    0.0000 C   0  0  0  0  0  0  0  0  0
    8.5901    1.7247    0.0000 C   0  0  0  0  0  0  0  0  0
    8.5901    2.5497    0.0000 C   0  0  0  0  0  0  0  0  0
    5.7318   -0.7503    0.0000 C   0  0  0  0  0  0  0  0  0
    6.4458   -1.1637    0.0000 O   0  0  0  0  0  0  0  0  0
    5.0168   -1.1620    0.0000 N   0  0  0  0  0  0  0  0  0
    5.0159   -1.9870    0.0000 C   0  0  0  0  0  0  0  0  0
    5.1864   -2.7941    0.0000 O   0  0  0  0  0  0  0  0  0
    4.4715   -3.2058    0.0000 C   0  0  0  0  0  0  0  0  0
    5.1383   -3.6915    0.0000 O   0  0  0  0  0  0  0  0  0
    3.8590   -2.6530    0.0000 N   0  0  0  0  0  0  0  0  0
    3.0741   -2.9070    0.0000 C   0  0  0  0  0  0  0  0  0
    2.4617   -2.3543    0.0000 C   0  0  0  0  0  0  0  0  0
    1.6767   -2.6083    0.0000 C   0  0  0  0  0  0  0  0  0
    1.0643   -2.0555    0.0000 C   0  0  0  0  0  0  0  0  0
    1.5042   -3.4150    0.0000 C   0  0  0  0  0  0  0  0  0
    2.9016   -3.7138    0.0000 C   0  0  0  0  0  0  0  0  0
    2.1167   -3.9678    0.0000 O   0  0  0  0  0  0  0  0  0
    3.5140   -4.2665    0.0000 N   0  0  0  0  0  0  0  0  0
    4.2990   -4.0125    0.0000 C   0  0  0  0  0  0  0  0  0
    4.7831   -4.6806    0.0000 C   0  0  0  0  0  0  0  0  0
    4.2974   -5.3474    0.0000 C   0  0  0  0  0  0  0  0  0
    3.5131   -5.0915    0.0000 C   0  0  0  0  0  0  0  0  0
    4.1955   -1.8997    0.0000 C   0  0  0  0  0  0  0  0  0
    3.7838   -1.1848    0.0000 O   0  0  0  0  0  0  0  0  0
    5.8364   -1.9017    0.0000 C   0  0  0  0  0  0  0  0  0
    6.5514   -1.4901    0.0000 C   0  0  0  0  0  0  0  0  0
    6.3206   -2.5697    0.0000 C   0  0  0  0  0  0  0  0  0
    4.3058    1.7264    0.0000 C   0  0  0  0  0  0  0  0  0
  1  2  1  0  0  0  0
  2  3  4  0  0  0  0
  2  6  4  0  0  0  0
  3  4  4  0  0  0  0
  4  5  4  0  0  0  0
  4 17  4  0  0  0  0
  5  6  4  0  0  0  0
  5 14  4  0  0  0  0
  6  7  1  0  0  0  0
  7  8  1  0  0  0  0
  8  9  1  0  0  0  0
  8 13  1  0  0  0  0
  9 10  1  0  0  0  0
  9 43  1  0  0  0  0
 10 11  1  0  0  0  0
 11 12  1  0  0  0  0
 11 18  1  0  0  0  0
 12 13  2  0  0  0  0
 13 14  1  0  0  0  0
 14 15  4  0  0  0  0
 15 16  4  0  0  0  0
 16 17  4  0  0  0  0
 18 19  2  0  0  0  0
 18 20  1  0  0  0  0
 20 21  1  0  0  0  0
 21 22  1  0  0  0  0
 21 38  1  0  0  0  0
 21 40  1  0  0  0  0
 22 23  1  0  0  0  0
 23 24  1  0  0  0  0
 23 25  1  0  0  0  0
 23 34  1  0  0  0  0
 25 26  1  0  0  0  0
 25 38  1  0  0  0  0
 26 27  1  0  0  0  0
 26 31  1  0  0  0  0
 27 28  1  0  0  0  0
 28 29  1  0  0  0  0
 28 30  1  0  0  0  0
 31 32  2  0  0  0  0
 31 33  1  0  0  0  0
 33 34  1  0  0  0  0
 33 37  1  0  0  0  0
 34 35  1  0  0  0  0
 35 36  1  0  0  0  0
 36 37  1  0  0  0  0
 38 39  2  0  0  0  0
 40 41  1  0  0  0  0
 40 42  1  0  0  0  0
M  STY  1   1 DAT
M  SAL   1  1   3
M  SDT   1 MRV_IMPLICIT_H                                        
M  SDD   1     0.0000    0.0000    DR    ALL  0       0  
M  SED   1 IMPL_H1
M  END
>  <Name_Molregno>
BROMOCRIPTINE

>  <5-HT1A>
7.7

>  <5-HT1B>
6.45

>  <5-HT1D>
7.97

>  <5-HT2A>
6.97

>  <5-HT2C>
6.13

>  <5-HT6>
7.39

>  <Alpha-1A>
8.38

>  <Alpha-1B>
8.86

>  <Alpha-2A>
7.96

>  <Alpha-2B>
7.46

>  <Alpha-2C>
7.55

>  <Beta-1>
6.23

>  <Beta-2>
6.13

>  <DOPAMINE D1>
6

>  <DOPAMINE D2>
8.31

>  <DOPAMINE D3>
8.02

>  <DOPAMINE D4>
6.33

>  <DOPAMINE D5>
6.31

$$$$
Cabergoline
  Marvin  02231216192D 0   1.00000     0.00000     0

 33 36  0  0  1  0  0  0  0  0999 V2000
    0.1488   -3.1643    0.0000 O   0  0  0  0  0  0  0  0  0
   -0.5651   -2.7509    0.0000 C   0  0  0  0  0  0  0  0  0
   -1.2801   -3.1625    0.0000 N   0  0  0  0  0  0  0  0  0
   -1.2811   -3.9875    0.0000 C   0  0  0  0  0  0  0  0  0
   -1.9961   -4.3992    0.0000 C   0  0  0  0  0  0  0  0  0
   -1.9970   -5.2242    0.0000 C   0  0  0  0  0  0  0  0  0
   -2.7120   -5.6358    0.0000 N   0  0  0  0  0  0  0  0  0
   -2.7130   -6.4608    0.0000 C   0  0  0  0  0  0  0  0  0
   -3.4260   -5.2225    0.0000 C   0  0  0  0  0  0  0  0  0
   -1.9941   -2.7492    0.0000 C   0  0  0  0  0  0  0  0  0
   -2.7090   -3.1608    0.0000 O   0  0  0  0  0  0  0  0  0
   -1.9931   -1.9242    0.0000 N   0  0  0  0  0  0  0  0  0
   -2.7071   -1.5108    0.0000 C   0  0  0  0  0  0  0  0  0
   -3.4220   -1.9225    0.0000 C   0  0  0  0  0  0  0  0  0
   -0.5641   -1.9259    0.0000 C   0  0  0  0  0  0  0  0  0
    0.1508   -1.5143    0.0000 C   0  0  0  0  0  0  0  0  0
    0.1518   -0.6893    0.0000 C   0  0  0  0  0  0  0  0  0
   -0.5622   -0.2759    0.0000 C   0  0  0  0  0  0  0  0  0
   -1.2771   -0.6875    0.0000 N   0  0  0  0  0  0  0  0  0
   -1.2781   -1.5125    0.0000 C   0  0  0  0  0  0  0  0  0
   -1.9911   -0.2742    0.0000 C   0  0  0  0  0  0  0  0  0
   -2.7061   -0.6858    0.0000 C   0  0  0  0  0  0  0  0  0
   -3.4201   -0.2725    0.0000 C   0  0  0  0  0  0  0  0  0
   -0.5607    0.5482    0.0000 C   0  0  0  0  0  0  0  0  0
    0.1518    0.9607    0.0000 C   0  0  0  0  0  0  0  0  0
    0.8643    0.5482    0.0000 C   0  0  0  0  0  0  0  0  0
    0.8643   -0.2768    0.0000 C   0  0  0  0  0  0  0  0  0
    1.5822   -0.6893    0.0000 C   0  0  0  0  0  0  0  0  0
    2.2947   -0.2768    0.0000 C   0  0  0  0  0  0  0  0  0
    2.2947    0.5482    0.0000 C   0  0  0  0  0  0  0  0  0
    1.5822    0.9607    0.0000 C   0  0  0  0  0  0  0  0  0
    1.2768    1.8179    0.0000 N   0  0  0  0  0  0  0  0  0
    0.4518    1.8179    0.0000 C   0  0  0  0  0  0  0  0  0
  1  2  2  0  0  0  0
  2  3  1  0  0  0  0
  2 15  1  0  0  0  0
  3  4  1  0  0  0  0
  3 10  1  0  0  0  0
  4  5  1  0  0  0  0
  5  6  1  0  0  0  0
  6  7  1  0  0  0  0
  7  8  1  0  0  0  0
  7  9  1  0  0  0  0
 10 11  2  0  0  0  0
 10 12  1  0  0  0  0
 12 13  1  0  0  0  0
 13 14  1  0  0  0  0
 15 16  1  0  0  0  0
 15 20  1  0  0  0  0
 16 17  1  0  0  0  0
 17 18  1  0  0  0  0
 17 27  1  0  0  0  0
 18 19  1  0  0  0  0
 18 24  1  0  0  0  0
 19 20  1  0  0  0  0
 19 21  1  0  0  0  0
 21 22  1  0  0  0  0
 22 23  2  0  0  0  0
 24 25  1  0  0  0  0
 25 26  4  0  0  0  0
 25 33  4  0  0  0  0
 26 27  4  0  0  0  0
 26 31  4  0  0  0  0
 27 28  4  0  0  0  0
 28 29  4  0  0  0  0
 29 30  4  0  0  0  0
 30 31  4  0  0  0  0
 31 32  4  0  0  0  0
 32 33  4  0  0  0  0
M  STY  1   1 DAT
M  SAL   1  1  32
M  SDT   1 MRV_IMPLICIT_H                                        
M  SDD   1     0.0000    0.0000    DR    ALL  0       0  
M  SED   1 IMPL_H1
M  END
>  <Name_Molregno>
Cabergoline

>  <5-HT1A>
7.7

>  <5-HT1B>
6.32

>  <5-HT1D>
8.06

>  <5-HT2A>
8.21

>  <5-HT2C>
6.16

>  <Alpha-1A>
6.54

>  <Alpha-1B>
7.22

>  <Alpha-2A>
7.92

>  <Alpha-2B>
7.14

>  <Alpha-2C>
7.65

>  <Beta-1>
5

>  <Beta-2>
5

>  <DOPAMINE D1>
6.67

>  <DOPAMINE D2>
9.12

>  <DOPAMINE D3>
9.1

>  <DOPAMINE D4>
7.25

>  <DOPAMINE D5>
7.65

$$$$
Cathinone
  Marvin  02231216192D 0   1.00000     0.00000     0

 11 11  0  0  1  0  0  0  0  0999 V2000
    1.9974    0.2298    0.0000 O   0  0  0  0  0  0  0  0  0
    1.2829   -0.1827    0.0000 C   0  0  0  0  0  0  0  0  0
    0.5684    0.2298    0.0000 C   0  0  0  0  0  0  0  0  0
    0.5684    1.0548    0.0000 N   0  0  0  0  0  0  0  0  0
   -0.1461   -0.1827    0.0000 C   0  0  0  0  0  0  0  0  0
    1.2829   -1.0077    0.0000 C   0  0  0  0  0  0  0  0  0
    1.9974   -1.4202    0.0000 C   0  0  0  0  0  0  0  0  0
    1.9974   -2.2452    0.0000 C   0  0  0  0  0  0  0  0  0
    1.2829   -2.6577    0.0000 C   0  0  0  0  0  0  0  0  0
    0.5684   -2.2452    0.0000 C   0  0  0  0  0  0  0  0  0
    0.5684   -1.4202    0.0000 C   0  0  0  0  0  0  0  0  0
  1  2  2  0  0  0  0
  2  3  1  0  0  0  0
  2  6  1  0  0  0  0
  3  4  1  0  0  0  0
  3  5  1  0  0  0  0
  6  7  4  0  0  0  0
  6 11  4  0  0  0  0
  7  8  4  0  0  0  0
  8  9  4  0  0  0  0
  9 10  4  0  0  0  0
 10 11  4  0  0  0  0
M  END
>  <Name_Molregno>
Cathinone

>  <5-HT1A>
5

>  <5-HT1B>
5

>  <5-HT1D>
5

>  <5-HT1E>
5

>  <5-HT3>
5

>  <5-HT5>
5

>  <5-HT6>
5

>  <5-HT7>
5.57

>  <Alpha-1A>
5

>  <Alpha-1B>
5

>  <Alpha-2A>
5.17

>  <Alpha-2B>
6.04

>  <Alpha-2C>
6.12

>  <Beta-1>
5

>  <Beta-2>
5

>  <DOPAMINE D1>
5

>  <DOPAMINE D2>
5

>  <DOPAMINE D4>
5

>  <DOPAMINE D5>
5

>  <Dopamine transporter>
6.37

>  <HISTAMINE H1>
5

>  <HISTAMINE H2>
5

>  <HISTAMINE H4>
5

>  <Muscarinic acetylcholine receptor M1>
5

>  <Muscarinic acetylcholine receptor M2>
5

>  <Muscarinic acetylcholine receptor M3>
5

>  <Muscarinic acetylcholine receptor M4>
5

>  <Muscarinic acetylcholine receptor M5>
5

>  <Norepinephrine transporter>
6.76

>  <Serotonin transporter>
5.32

$$$$
CELECOXIB
  Marvin  02231216192D 0   1.00000     0.00000     0

 26 28  0  0  0  0  0  0  0  0999 V2000
   -2.2304    2.3034    0.0000 S   0  0  0  0  0  0  0  0  0
   -2.2304    3.1284    0.0000 O   0  0  0  0  0  0  0  0  0
   -3.0554    2.3034    0.0000 O   0  0  0  0  0  0  0  0  0
   -1.4054    2.3034    0.0000 N   0  0  0  0  0  0  0  0  0
   -2.2304    1.4784    0.0000 C   0  0  0  0  0  0  0  0  0
   -1.5159    1.0659    0.0000 C   0  0  0  0  0  0  0  0  0
   -1.5159    0.2409    0.0000 C   0  0  0  0  0  0  0  0  0
   -2.2304   -0.1716    0.0000 C   0  0  0  0  0  0  0  0  0
   -2.2304   -0.9966    0.0000 N   0  0  0  0  0  0  0  0  0
   -1.5629   -1.4815    0.0000 N   0  0  0  0  0  0  0  0  0
   -1.8179   -2.2662    0.0000 C   0  0  0  0  0  0  0  0  0
   -2.6429   -2.2662    0.0000 C   0  0  0  0  0  0  0  0  0
   -2.8978   -1.4815    0.0000 C   0  0  0  0  0  0  0  0  0
   -3.6824   -1.2266    0.0000 C   0  0  0  0  0  0  0  0  0
   -4.2955   -1.7786    0.0000 C   0  0  0  0  0  0  0  0  0
   -5.0802   -1.5237    0.0000 C   0  0  0  0  0  0  0  0  0
   -5.2517   -0.7167    0.0000 C   0  0  0  0  0  0  0  0  0
   -4.6386   -0.1647    0.0000 C   0  0  0  0  0  0  0  0  0
   -3.8540   -0.4196    0.0000 C   0  0  0  0  0  0  0  0  0
   -6.0363   -0.4618    0.0000 C   0  0  0  0  0  0  0  0  0
   -1.3330   -2.9336    0.0000 C   0  0  0  0  0  0  0  0  0
   -0.8480   -3.6010    0.0000 F   0  0  0  0  0  0  0  0  0
   -2.0004   -3.4185    0.0000 F   0  0  0  0  0  0  0  0  0
   -0.6655   -2.4487    0.0000 F   0  0  0  0  0  0  0  0  0
   -2.9448    0.2409    0.0000 C   0  0  0  0  0  0  0  0  0
   -2.9448    1.0659    0.0000 C   0  0  0  0  0  0  0  0  0
  1  2  2  0  0  0  0
  1  3  2  0  0  0  0
  1  4  1  0  0  0  0
  1  5  1  0  0  0  0
  5  6  4  0  0  0  0
  5 26  4  0  0  0  0
  6  7  4  0  0  0  0
  7  8  4  0  0  0  0
  8  9  1  0  0  0  0
  8 25  4  0  0  0  0
  9 10  4  0  0  0  0
  9 13  4  0  0  0  0
 10 11  4  0  0  0  0
 11 12  4  0  0  0  0
 11 21  1  0  0  0  0
 12 13  4  0  0  0  0
 13 14  1  0  0  0  0
 14 15  4  0  0  0  0
 14 19  4  0  0  0  0
 15 16  4  0  0  0  0
 16 17  4  0  0  0  0
 17 18  4  0  0  0  0
 17 20  1  0  0  0  0
 18 19  4  0  0  0  0
 21 22  1  0  0  0  0
 21 23  1  0  0  0  0
 21 24  1  0  0  0  0
 25 26  4  0  0  0  0
M  END
>  <Name_Molregno>
CELECOXIB

>  <5-HT1A>
5

>  <5-HT1B>
5

>  <5-HT1D>
5

>  <5-HT1E>
5

>  <5-HT2A>
5

>  <5-HT3>
5

>  <5-HT6>
5

>  <5-HT7>
5

>  <Alpha-1A>
5

>  <Alpha-1B>
5

>  <Alpha-2A>
5

>  <Alpha-2B>
5

>  <Alpha-2C>
5

>  <DOPAMINE D1>
5

>  <DOPAMINE D2>
5

>  <DOPAMINE D4>
5

>  <DOPAMINE D5>
5

>  <Dopamine transporter>
6.18

>  <HISTAMINE H1>
5

>  <HISTAMINE H2>
5

>  <Muscarinic acetylcholine receptor M2>
5

>  <Muscarinic acetylcholine receptor M5>
5

>  <Norepinephrine transporter>
5

>  <Serotonin transporter>
5

$$$$
CHLOROPHENYLPIPERAZINE
  Marvin  02231216192D 0   1.00000     0.00000     0

 13 14  0  0  0  0  0  0  0  0999 V2000
    1.2605    1.9269    0.0000 Cl  0  0  0  0  0  0  0  0  0
    1.2605    1.1019    0.0000 C   0  0  0  0  0  0  0  0  0
    1.9750    0.6894    0.0000 C   0  0  0  0  0  0  0  0  0
    1.9750   -0.1356    0.0000 C   0  0  0  0  0  0  0  0  0
    2.6894   -0.5481    0.0000 N   0  0  0  0  0  0  0  0  0
    3.4039   -0.1356    0.0000 C   0  0  0  0  0  0  0  0  0
    4.1184   -0.5481    0.0000 C   0  0  0  0  0  0  0  0  0
    4.1184   -1.3731    0.0000 N   0  0  0  0  0  0  0  0  0
    3.4039   -1.7856    0.0000 C   0  0  0  0  0  0  0  0  0
    2.6894   -1.3731    0.0000 C   0  0  0  0  0  0  0  0  0
    1.2605   -0.5481    0.0000 C   0  0  0  0  0  0  0  0  0
    0.5460   -0.1356    0.0000 C   0  0  0  0  0  0  0  0  0
    0.5460    0.6894    0.0000 C   0  0  0  0  0  0  0  0  0
  1  2  1  0  0  0  0
  2  3  4  0  0  0  0
  2 13  4  0  0  0  0
  3  4  4  0  0  0  0
  4  5  1  0  0  0  0
  4 11  4  0  0  0  0
  5  6  1  0  0  0  0
  5 10  1  0  0  0  0
  6  7  1  0  0  0  0
  7  8  1  0  0  0  0
  8  9  1  0  0  0  0
  9 10  1  0  0  0  0
 11 12  4  0  0  0  0
 12 13  4  0  0  0  0
M  END
>  <Name_Molregno>
CHLOROPHENYLPIPERAZINE

>  <5-HT1A>
6.88

>  <5-HT1B>
6.72

>  <5-HT1D>
6.23

>  <5-HT2A>
7.01

>  <5-HT2C>
7.55

>  <5-HT3>
6.37

>  <5-HT5>
5.87

>  <5-HT6>
5.7

>  <5-HT7>
6.79

>  <Alpha-1A>
5.86

>  <Alpha-1B>
6.04

>  <Alpha-2A>
6.84

>  <Alpha-2B>
6.98

>  <Alpha-2C>
6.91

>  <Beta-1>
5.63

>  <Beta-2>
5.46

>  <DOPAMINE D1>
5.15

>  <DOPAMINE D2>
5

>  <DOPAMINE D5>
5

>  <HISTAMINE H1>
6.49

>  <Norepinephrine transporter>
5.36

>  <Serotonin transporter>
6.13

$$$$
CHLORPROMAZINE
  Marvin  02231216192D 0   1.00000     0.00000     0

 21 23  0  0  0  0  0  0  0  0999 V2000
   -1.3730   -3.5598    0.0000 Cl  0  0  0  0  0  0  0  0  0
   -2.0875   -3.1473    0.0000 C   0  0  0  0  0  0  0  0  0
   -2.0875   -2.3223    0.0000 C   0  0  0  0  0  0  0  0  0
   -2.8019   -1.9098    0.0000 C   0  0  0  0  0  0  0  0  0
   -2.8019   -1.0848    0.0000 N   0  0  0  0  0  0  0  0  0
   -3.5164   -0.6723    0.0000 C   0  0  0  0  0  0  0  0  0
   -4.2309   -1.0848    0.0000 C   0  0  0  0  0  0  0  0  0
   -4.2309   -1.9098    0.0000 S   0  0  0  0  0  0  0  0  0
   -3.5164   -2.3223    0.0000 C   0  0  0  0  0  0  0  0  0
   -3.5164   -3.1473    0.0000 C   0  0  0  0  0  0  0  0  0
   -2.8019   -3.5598    0.0000 C   0  0  0  0  0  0  0  0  0
   -4.9453   -0.6723    0.0000 C   0  0  0  0  0  0  0  0  0
   -4.9453    0.1527    0.0000 C   0  0  0  0  0  0  0  0  0
   -4.2309    0.5652    0.0000 C   0  0  0  0  0  0  0  0  0
   -3.5164    0.1527    0.0000 C   0  0  0  0  0  0  0  0  0
   -2.0875   -0.6723    0.0000 C   0  0  0  0  0  0  0  0  0
   -1.3730   -1.0848    0.0000 C   0  0  0  0  0  0  0  0  0
   -0.6585   -0.6723    0.0000 C   0  0  0  0  0  0  0  0  0
    0.0560   -1.0848    0.0000 N   0  0  0  0  0  0  0  0  0
    0.7704   -0.6723    0.0000 C   0  0  0  0  0  0  0  0  0
    0.0560   -1.9098    0.0000 C   0  0  0  0  0  0  0  0  0
  1  2  1  0  0  0  0
  2  3  4  0  0  0  0
  2 11  4  0  0  0  0
  3  4  4  0  0  0  0
  4  5  1  0  0  0  0
  4  9  4  0  0  0  0
  5  6  1  0  0  0  0
  5 16  1  0  0  0  0
  6  7  4  0  0  0  0
  6 15  4  0  0  0  0
  7  8  1  0  0  0  0
  7 12  4  0  0  0  0
  8  9  1  0  0  0  0
  9 10  4  0  0  0  0
 10 11  4  0  0  0  0
 12 13  4  0  0  0  0
 13 14  4  0  0  0  0
 14 15  4  0  0  0  0
 16 17  1  0  0  0  0
 17 18  1  0  0  0  0
 18 19  1  0  0  0  0
 19 20  1  0  0  0  0
 19 21  1  0  0  0  0
M  END
>  <Name_Molregno>
CHLORPROMAZINE

>  <5-HT1A>
5.98

>  <5-HT1B>
5.83

>  <5-HT1D>
6.34

>  <5-HT1E>
6.46

>  <5-HT2A>
8.36

>  <5-HT2C>
7.74

>  <5-HT3>
6.01

>  <5-HT5>
6.93

>  <5-HT6>
7.59

>  <5-HT7>
7.54

>  <Alpha-1A>
9.55

>  <Alpha-1B>
9.09

>  <Alpha-2A>
6.71

>  <Alpha-2B>
7.81

>  <Alpha-2C>
7.36

>  <Beta-1>
5

>  <Beta-2>
5

>  <DOPAMINE D1>
7.1

>  <DOPAMINE D2>
8.51

>  <DOPAMINE D3>
8.58

>  <DOPAMINE D4>
8.03

>  <DOPAMINE D5>
6.82

>  <Dopamine transporter>
5

>  <HISTAMINE H1>
8.47

>  <HISTAMINE H2>
6.76

>  <HISTAMINE H3>
6

>  <HISTAMINE H4>
6.3

>  <Muscarinic acetylcholine receptor M1>
7.36

>  <Muscarinic acetylcholine receptor M2>
6.67

>  <Muscarinic acetylcholine receptor M3>
7.25

>  <Muscarinic acetylcholine receptor M4>
7.11

>  <Muscarinic acetylcholine receptor M5>
7.5

>  <Norepinephrine transporter>
5.61

>  <Serotonin transporter>
6.54

$$$$
cis-Thiothixene
  Marvin  02231216192D 0   1.00000     0.00000     0

 30 33  0  0  0  0  0  0  0  0999 V2000
    1.0940   -3.6931    0.0000 S   0  0  0  0  0  0  0  0  0
    1.8085   -3.2806    0.0000 C   0  0  0  0  0  0  0  0  0
    1.8085   -2.4556    0.0000 C   0  0  0  0  0  0  0  0  0
    2.5230   -2.0431    0.0000 C   0  0  0  0  0  0  0  0  0
    3.2375   -2.4556    0.0000 C   0  0  0  0  0  0  0  0  0
    3.9519   -2.0431    0.0000 S   0  0  0  0  0  0  0  0  0
    3.5394   -1.3286    0.0000 O   0  0  0  0  0  0  0  0  0
    4.3644   -2.7575    0.0000 O   0  0  0  0  0  0  0  0  0
    4.6664   -1.6306    0.0000 N   0  0  0  0  0  0  0  0  0
    5.3809   -2.0431    0.0000 C   0  0  0  0  0  0  0  0  0
    4.6664   -0.8056    0.0000 C   0  0  0  0  0  0  0  0  0
    3.2375   -3.2806    0.0000 C   0  0  0  0  0  0  0  0  0
    2.5230   -3.6931    0.0000 C   0  0  0  0  0  0  0  0  0
    1.0940   -2.0431    0.0000 C   0  0  0  0  0  0  0  0  0
    0.3796   -2.4556    0.0000 C   0  0  0  0  0  0  0  0  0
    0.3796   -3.2806    0.0000 C   0  0  0  0  0  0  0  0  0
   -0.3349   -3.6931    0.0000 C   0  0  0  0  0  0  0  0  0
   -1.0494   -3.2806    0.0000 C   0  0  0  0  0  0  0  0  0
   -1.0494   -2.4556    0.0000 C   0  0  0  0  0  0  0  0  0
   -0.3349   -2.0431    0.0000 C   0  0  0  0  0  0  0  0  0
    1.0940   -1.2181    0.0000 C   0  0  0  0  0  0  0  0  0
    0.3796   -0.8056    0.0000 C   0  0  0  0  0  0  0  0  0
   -0.3349   -1.2181    0.0000 C   0  0  0  0  0  0  0  0  0
   -1.0494   -0.8056    0.0000 N   0  0  0  0  0  0  0  0  0
   -1.7638   -1.2181    0.0000 C   0  0  0  0  0  0  0  0  0
   -2.4783   -0.8056    0.0000 C   0  0  0  0  0  0  0  0  0
   -2.4783    0.0194    0.0000 N   0  0  0  0  0  0  0  0  0
   -1.7638    0.4319    0.0000 C   0  0  0  0  0  0  0  0  0
   -1.0494    0.0194    0.0000 C   0  0  0  0  0  0  0  0  0
   -3.1928    0.4319    0.0000 C   0  0  0  0  0  0  0  0  0
  1  2  1  0  0  0  0
  1 16  1  0  0  0  0
  2  3  4  0  0  0  0
  2 13  4  0  0  0  0
  3  4  4  0  0  0  0
  3 14  1  0  0  0  0
  4  5  4  0  0  0  0
  5  6  1  0  0  0  0
  5 12  4  0  0  0  0
  6  7  2  0  0  0  0
  6  8  2  0  0  0  0
  6  9  1  0  0  0  0
  9 10  1  0  0  0  0
  9 11  1  0  0  0  0
 12 13  4  0  0  0  0
 14 15  1  0  0  0  0
 14 21  2  0  0  0  0
 15 16  4  0  0  0  0
 15 20  4  0  0  0  0
 16 17  4  0  0  0  0
 17 18  4  0  0  0  0
 18 19  4  0  0  0  0
 19 20  4  0  0  0  0
 21 22  1  0  0  0  0
 22 23  1  0  0  0  0
 23 24  1  0  0  0  0
 24 25  1  0  0  0  0
 24 29  1  0  0  0  0
 25 26  1  0  0  0  0
 26 27  1  0  0  0  0
 27 28  1  0  0  0  0
 27 30  1  0  0  0  0
 28 29  1  0  0  0  0
M  END
>  <Name_Molregno>
cis-Thiothixene

>  <5-HT1A>
6.39

>  <5-HT1B>
6.82

>  <5-HT1D>
6.18

>  <5-HT1E>
5

>  <5-HT2A>
7.42

>  <5-HT2C>
5.87

>  <5-HT3>
5.73

>  <5-HT5>
6.44

>  <5-HT6>
6.62

>  <5-HT7>
7.82

>  <Alpha-1A>
7.94

>  <Alpha-1B>
7.46

>  <Alpha-2A>
7.1

>  <Alpha-2B>
7.3

>  <Alpha-2C>
7.28

>  <Beta-1>
5

>  <Beta-2>
5

>  <DOPAMINE D1>
7.29

>  <DOPAMINE D2>
9.56

>  <DOPAMINE D3>
9.41

>  <DOPAMINE D4>
6.86

>  <DOPAMINE D5>
6.58

>  <Dopamine transporter>
5

>  <HISTAMINE H1>
8.23

>  <HISTAMINE H2>
6.39

>  <HISTAMINE H4>
5

>  <Muscarinic acetylcholine receptor M1>
5.3

>  <Muscarinic acetylcholine receptor M2>
5.34

>  <Muscarinic acetylcholine receptor M3>
5.27

>  <Muscarinic acetylcholine receptor M4>
5.4

>  <Muscarinic acetylcholine receptor M5>
5.32

>  <Norepinephrine transporter>
5

>  <Serotonin transporter>
5.41

$$$$
CLONIDINE
  Marvin  02231216192D 0   1.00000     0.00000     0

 14 15  0  0  0  0  0  0  0  0999 V2000
   -2.4456   -1.4014    0.0000 Cl  0  0  0  0  0  0  0  0  0
   -2.4456   -0.5764    0.0000 C   0  0  0  0  0  0  0  0  0
   -3.1600   -0.1639    0.0000 C   0  0  0  0  0  0  0  0  0
   -3.1600    0.6611    0.0000 C   0  0  0  0  0  0  0  0  0
   -2.4456    1.0736    0.0000 C   0  0  0  0  0  0  0  0  0
   -1.7311    0.6611    0.0000 C   0  0  0  0  0  0  0  0  0
   -1.0166    1.0736    0.0000 Cl  0  0  0  0  0  0  0  0  0
   -1.7311   -0.1639    0.0000 C   0  0  0  0  0  0  0  0  0
   -1.0166   -0.5764    0.0000 N   0  0  0  0  0  0  0  0  0
   -1.0166   -1.4014    0.0000 C   0  0  0  0  0  0  0  0  0
   -0.3492   -1.8863    0.0000 N   0  0  0  0  0  0  0  0  0
   -0.6041   -2.6709    0.0000 C   0  0  0  0  0  0  0  0  0
   -1.4291   -2.6709    0.0000 C   0  0  0  0  0  0  0  0  0
   -1.6841   -1.8863    0.0000 N   0  0  0  0  0  0  0  0  0
  1  2  1  0  0  0  0
  2  3  4  0  0  0  0
  2  8  4  0  0  0  0
  3  4  4  0  0  0  0
  4  5  4  0  0  0  0
  5  6  4  0  0  0  0
  6  7  1  0  0  0  0
  6  8  4  0  0  0  0
  8  9  1  0  0  0  0
  9 10  1  0  0  0  0
 10 11  1  0  0  0  0
 10 14  2  0  0  0  0
 11 12  1  0  0  0  0
 12 13  1  0  0  0  0
 13 14  1  0  0  0  0
M  END
>  <Name_Molregno>
CLONIDINE

>  <5-HT2A>
5

>  <Alpha-1A>
6.4

>  <Alpha-1B>
6.4

>  <Alpha-2A>
7.33

>  <Alpha-2B>
7.3

>  <Alpha-2C>
6.94

>  <Norepinephrine transporter>
6

$$$$
CLOZAPINE
  Marvin  02231216192D 0   1.00000     0.00000     0

 23 26  0  0  0  0  0  0  0  0999 V2000
   -0.5622   -2.2603    0.0000 Cl  0  0  0  0  0  0  0  0  0
    0.2262   -2.5035    0.0000 C   0  0  0  0  0  0  0  0  0
    0.8309   -1.9424    0.0000 C   0  0  0  0  0  0  0  0  0
    1.6193   -2.1855    0.0000 C   0  0  0  0  0  0  0  0  0
    2.1337   -1.5405    0.0000 N   0  0  0  0  0  0  0  0  0
    2.9587   -1.5405    0.0000 C   0  0  0  0  0  0  0  0  0
    3.3166   -0.7972    0.0000 N   0  0  0  0  0  0  0  0  0
    2.8519   -0.1156    0.0000 C   0  0  0  0  0  0  0  0  0
    3.2098    0.6277    0.0000 C   0  0  0  0  0  0  0  0  0
    4.0325    0.6894    0.0000 N   0  0  0  0  0  0  0  0  0
    4.4973    0.0077    0.0000 C   0  0  0  0  0  0  0  0  0
    4.1393   -0.7356    0.0000 C   0  0  0  0  0  0  0  0  0
    4.3905    1.4327    0.0000 C   0  0  0  0  0  0  0  0  0
    3.4730   -2.1855    0.0000 C   0  0  0  0  0  0  0  0  0
    3.2895   -2.9898    0.0000 C   0  0  0  0  0  0  0  0  0
    2.5462   -3.3478    0.0000 N   0  0  0  0  0  0  0  0  0
    1.8029   -2.9898    0.0000 C   0  0  0  0  0  0  0  0  0
    1.1981   -3.5510    0.0000 C   0  0  0  0  0  0  0  0  0
    0.4098   -3.3078    0.0000 C   0  0  0  0  0  0  0  0  0
    3.8942   -3.5510    0.0000 C   0  0  0  0  0  0  0  0  0
    4.6826   -3.3078    0.0000 C   0  0  0  0  0  0  0  0  0
    4.8662   -2.5035    0.0000 C   0  0  0  0  0  0  0  0  0
    4.2614   -1.9424    0.0000 C   0  0  0  0  0  0  0  0  0
  1  2  1  0  0  0  0
  2  3  4  0  0  0  0
  2 19  4  0  0  0  0
  3  4  4  0  0  0  0
  4  5  1  0  0  0  0
  4 17  4  0  0  0  0
  5  6  1  0  0  0  0
  6  7  1  0  0  0  0
  6 14  2  0  0  0  0
  7  8  1  0  0  0  0
  7 12  1  0  0  0  0
  8  9  1  0  0  0  0
  9 10  1  0  0  0  0
 10 11  1  0  0  0  0
 10 13  1  0  0  0  0
 11 12  1  0  0  0  0
 14 15  1  0  0  0  0
 14 23  1  0  0  0  0
 15 16  2  0  0  0  0
 15 20  1  0  0  0  0
 16 17  1  0  0  0  0
 17 18  4  0  0  0  0
 18 19  4  0  0  0  0
 20 21  2  0  0  0  0
 21 22  1  0  0  0  0
 22 23  2  0  0  0  0
M  END
>  <Name_Molregno>
CLOZAPINE

>  <5-HT1A>
6.88

>  <5-HT1B>
6.33

>  <5-HT1D>
6.27

>  <5-HT1E>
6.19

>  <5-HT2A>
8.22

>  <5-HT2C>
8

>  <5-HT3>
6.62

>  <5-HT5>
5.41

>  <5-HT6>
7.9

>  <5-HT7>
8.05

>  <Alpha-1A>
8.8

>  <Alpha-1B>
8.15

>  <Alpha-2A>
7.15

>  <Alpha-2B>
7.61

>  <Alpha-2C>
7.88

>  <Beta-1>
5.15

>  <Beta-2>
5.39

>  <DOPAMINE D1>
6.69

>  <DOPAMINE D2>
6.9

>  <DOPAMINE D3>
6.62

>  <DOPAMINE D4>
7.62

>  <DOPAMINE D5>
6.62

>  <Dopamine transporter>
5

>  <HISTAMINE H1>
8.81

>  <HISTAMINE H2>
6.82

>  <HISTAMINE H3>
5.25

>  <HISTAMINE H4>
6.15

>  <Muscarinic acetylcholine receptor M1>
8.26

>  <Muscarinic acetylcholine receptor M2>
7.17

>  <Muscarinic acetylcholine receptor M3>
7.59

>  <Muscarinic acetylcholine receptor M4>
7.85

>  <Muscarinic acetylcholine receptor M5>
7.79

>  <Norepinephrine transporter>
5.5

>  <Serotonin transporter>
5.73

$$$$
CYCLAZOSIN
  Marvin  02231216192D 0   1.00000     0.00000     0

 32 36  0  0  1  0  0  0  0  0999 V2000
   -5.9170   -3.5932    0.0000 O   0  0  0  0  0  0  0  0  0
   -6.4690   -2.9801    0.0000 C   0  0  0  0  0  0  0  0  0
   -6.0565   -2.2657    0.0000 C   0  0  0  0  0  0  0  0  0
   -5.2495   -2.4372    0.0000 C   0  0  0  0  0  0  0  0  0
   -5.1633   -3.2577    0.0000 C   0  0  0  0  0  0  0  0  0
   -4.4488   -3.6702    0.0000 C   0  0  0  0  0  0  0  0  0
   -4.4488   -4.4952    0.0000 O   0  0  0  0  0  0  0  0  0
   -3.7344   -3.2577    0.0000 N   0  0  0  0  0  0  0  0  0
   -3.0199   -3.6702    0.0000 C   0  0  0  0  0  0  0  0  0
   -2.3054   -3.2577    0.0000 C   0  0  0  0  0  0  0  0  0
   -2.3054   -2.4327    0.0000 N   0  0  0  0  0  0  0  0  0
   -3.0199   -2.0202    0.0000 C   0  0  0  0  0  0  0  0  0
   -3.7344   -2.4327    0.0000 C   0  0  0  0  0  0  0  0  0
   -1.5910   -2.0202    0.0000 C   0  0  0  0  0  0  0  0  0
   -1.5910   -1.1952    0.0000 N   0  0  0  0  0  0  0  0  0
   -0.8765   -0.7827    0.0000 C   0  0  0  0  0  0  0  0  0
   -0.8765    0.0423    0.0000 N   0  0  0  0  0  0  0  0  0
   -0.1620   -1.1952    0.0000 C   0  0  0  0  0  0  0  0  0
    0.5525   -0.7827    0.0000 C   0  0  0  0  0  0  0  0  0
    1.2669   -1.1952    0.0000 C   0  0  0  0  0  0  0  0  0
    1.9814   -0.7827    0.0000 O   0  0  0  0  0  0  0  0  0
    1.9814    0.0423    0.0000 C   0  0  0  0  0  0  0  0  0
    1.2669   -2.0202    0.0000 C   0  0  0  0  0  0  0  0  0
    1.9814   -2.4327    0.0000 O   0  0  0  0  0  0  0  0  0
    1.9814   -3.2577    0.0000 C   0  0  0  0  0  0  0  0  0
    0.5525   -2.4327    0.0000 C   0  0  0  0  0  0  0  0  0
   -0.1620   -2.0202    0.0000 C   0  0  0  0  0  0  0  0  0
   -0.8765   -2.4327    0.0000 N   0  0  0  0  0  0  0  0  0
   -1.5910   -3.6702    0.0000 C   0  0  0  0  0  0  0  0  0
   -1.5910   -4.4952    0.0000 C   0  0  0  0  0  0  0  0  0
   -2.3054   -4.9077    0.0000 C   0  0  0  0  0  0  0  0  0
   -3.0199   -4.4952    0.0000 C   0  0  0  0  0  0  0  0  0
  1  2  4  0  0  0  0
  1  5  4  0  0  0  0
  2  3  4  0  0  0  0
  3  4  4  0  0  0  0
  4  5  4  0  0  0  0
  5  6  1  0  0  0  0
  6  7  2  0  0  0  0
  6  8  1  0  0  0  0
  8  9  1  0  0  0  0
  8 13  1  0  0  0  0
  9 10  1  0  0  0  0
  9 32  1  0  0  0  0
 10 11  1  0  0  0  0
 10 29  1  0  0  0  0
 11 12  1  0  0  0  0
 11 14  1  0  0  0  0
 12 13  1  0  0  0  0
 14 15  4  0  0  0  0
 14 28  4  0  0  0  0
 15 16  4  0  0  0  0
 16 17  1  0  0  0  0
 16 18  4  0  0  0  0
 18 19  4  0  0  0  0
 18 27  4  0  0  0  0
 19 20  4  0  0  0  0
 20 21  1  0  0  0  0
 20 23  4  0  0  0  0
 21 22  1  0  0  0  0
 23 24  1  0  0  0  0
 23 26  4  0  0  0  0
 24 25  1  0  0  0  0
 26 27  4  0  0  0  0
 27 28  4  0  0  0  0
 29 30  1  0  0  0  0
 30 31  1  0  0  0  0
 31 32  1  0  0  0  0
M  END
>  <Name_Molregno>
CYCLAZOSIN

>  <Alpha-1A>
8.09

>  <Alpha-1B>
9.68

$$$$
D-cystine
  Marvin  02231216192D 0   1.00000     0.00000     0

 14 13  0  0  1  0  0  0  0  0999 V2000
    0.5597    0.5534    0.0000 S   0  0  0  0  0  0  0  0  0
   -0.1548    0.1409    0.0000 S   0  0  0  0  0  0  0  0  0
   -0.8693    0.5534    0.0000 C   0  0  0  0  0  0  0  0  0
   -1.5838    0.1409    0.0000 C   0  0  0  0  0  0  0  0  0
   -1.5838   -0.6841    0.0000 N   0  0  0  0  0  0  0  0  0
   -2.2982    0.5534    0.0000 C   0  0  0  0  0  0  0  0  0
   -3.0127    0.1409    0.0000 O   0  0  0  0  0  0  0  0  0
   -2.2982    1.3784    0.0000 O   0  0  0  0  0  0  0  0  0
    1.2741    0.1409    0.0000 C   0  0  0  0  0  0  0  0  0
    1.9886    0.5534    0.0000 C   0  0  0  0  0  0  0  0  0
    1.9886    1.3784    0.0000 N   0  0  0  0  0  0  0  0  0
    2.7031    0.1409    0.0000 C   0  0  0  0  0  0  0  0  0
    3.4175    0.5534    0.0000 O   0  0  0  0  0  0  0  0  0
    2.7031   -0.6841    0.0000 O   0  0  0  0  0  0  0  0  0
  1  2  1  0  0  0  0
  1  9  1  0  0  0  0
  2  3  1  0  0  0  0
  3  4  1  0  0  0  0
  4  5  1  0  0  0  0
  4  6  1  0  0  0  0
  6  7  1  0  0  0  0
  6  8  2  0  0  0  0
  9 10  1  0  0  0  0
 10 11  1  0  0  0  0
 10 12  1  0  0  0  0
 12 13  1  0  0  0  0
 12 14  2  0  0  0  0
M  END
>  <Name_Molregno>
D-cystine

>  <5-HT1A>
5

>  <5-HT1B>
5

>  <5-HT1D>
5

>  <5-HT3>
5

>  <5-HT5>
5

>  <5-HT6>
5

>  <5-HT7>
5

>  <Alpha-1A>
5

>  <Alpha-1B>
5

>  <Alpha-2A>
5

>  <Alpha-2B>
5

>  <Alpha-2C>
5

>  <DOPAMINE D1>
5

>  <DOPAMINE D2>
5

>  <DOPAMINE D3>
5

>  <DOPAMINE D5>
5

>  <Dopamine transporter>
5

>  <HISTAMINE H1>
5

>  <HISTAMINE H2>
5

>  <HISTAMINE H4>
5

>  <Muscarinic acetylcholine receptor M1>
5

>  <Muscarinic acetylcholine receptor M2>
5

>  <Muscarinic acetylcholine receptor M3>
5

>  <Muscarinic acetylcholine receptor M4>
5

>  <Muscarinic acetylcholine receptor M5>
5

>  <Norepinephrine transporter>
5

>  <Serotonin transporter>
5

$$$$
d-Fenfluramine
  Marvin  02231216192D 0   1.00000     0.00000     0

 16 16  0  0  1  0  0  0  0  0999 V2000
   -5.1694    0.5172    0.0000 F   0  0  0  0  0  0  0  0  0
   -4.4549    0.1047    0.0000 C   0  0  0  0  0  0  0  0  0
   -4.8674   -0.6097    0.0000 F   0  0  0  0  0  0  0  0  0
   -4.0424    0.8192    0.0000 F   0  0  0  0  0  0  0  0  0
   -3.7405   -0.3078    0.0000 C   0  0  0  0  0  0  0  0  0
   -3.0260    0.1047    0.0000 C   0  0  0  0  0  0  0  0  0
   -2.3115   -0.3078    0.0000 C   0  0  0  0  0  0  0  0  0
   -2.3115   -1.1328    0.0000 C   0  0  0  0  0  0  0  0  0
   -3.0260   -1.5453    0.0000 C   0  0  0  0  0  0  0  0  0
   -3.7405   -1.1328    0.0000 C   0  0  0  0  0  0  0  0  0
   -1.5971    0.1047    0.0000 C   0  0  0  0  0  0  0  0  0
   -0.8826   -0.3078    0.0000 C   0  0  0  0  0  0  0  0  0
   -0.1681    0.1047    0.0000 N   0  0  0  0  0  0  0  0  0
    0.5464   -0.3078    0.0000 C   0  0  0  0  0  0  0  0  0
    1.2608    0.1047    0.0000 C   0  0  0  0  0  0  0  0  0
   -0.8826   -1.1328    0.0000 C   0  0  0  0  0  0  0  0  0
  1  2  1  0  0  0  0
  2  3  1  0  0  0  0
  2  4  1  0  0  0  0
  2  5  1  0  0  0  0
  5  6  4  0  0  0  0
  5 10  4  0  0  0  0
  6  7  4  0  0  0  0
  7  8  4  0  0  0  0
  7 11  1  0  0  0  0
  8  9  4  0  0  0  0
  9 10  4  0  0  0  0
 11 12  1  0  0  0  0
 12 13  1  0  0  0  0
 12 16  1  0  0  0  0
 13 14  1  0  0  0  0
 14 15  1  0  0  0  0
M  END
>  <Name_Molregno>
d-Fenfluramine

>  <5-HT1A>
6.11

>  <5-HT1B>
5.67

>  <5-HT1D>
5.79

>  <5-HT1E>
5

>  <5-HT2A>
5.92

>  <5-HT2C>
6.27

>  <5-HT3>
5

>  <5-HT5>
5

>  <5-HT6>
5.01

>  <5-HT7>
5.17

>  <Alpha-1A>
5.52

>  <Alpha-1B>
5.62

>  <Alpha-2A>
6.26

>  <Alpha-2B>
6.65

>  <Alpha-2C>
6.68

>  <Beta-1>
5.67

>  <Beta-2>
5.07

>  <DOPAMINE D1>
5

>  <DOPAMINE D2>
5

>  <DOPAMINE D4>
5

>  <DOPAMINE D5>
5

>  <Dopamine transporter>
5

>  <HISTAMINE H1>
5

>  <HISTAMINE H2>
5

>  <Muscarinic acetylcholine receptor M1>
5.61

>  <Muscarinic acetylcholine receptor M2>
5.39

>  <Muscarinic acetylcholine receptor M3>
5.22

>  <Muscarinic acetylcholine receptor M4>
5.1

>  <Muscarinic acetylcholine receptor M5>
5

>  <Norepinephrine transporter>
5

>  <Serotonin transporter>
6.18

$$$$
Diclofenac
  Marvin  02231216192D 0   1.00000     0.00000     0

 19 20  0  0  0  0  0  0  0  0999 V2000
    1.8639   -0.1839    0.0000 Cl  0  0  0  0  0  0  0  0  0
    1.8639   -1.0089    0.0000 C   0  0  0  0  0  0  0  0  0
    2.5784   -1.4214    0.0000 C   0  0  0  0  0  0  0  0  0
    2.5784   -2.2464    0.0000 C   0  0  0  0  0  0  0  0  0
    1.8639   -2.6589    0.0000 C   0  0  0  0  0  0  0  0  0
    1.1494   -2.2464    0.0000 C   0  0  0  0  0  0  0  0  0
    0.4350   -2.6589    0.0000 Cl  0  0  0  0  0  0  0  0  0
    1.1494   -1.4214    0.0000 C   0  0  0  0  0  0  0  0  0
    0.4350   -1.0089    0.0000 N   0  0  0  0  0  0  0  0  0
   -0.2795   -1.4214    0.0000 C   0  0  0  0  0  0  0  0  0
   -0.2795   -2.2464    0.0000 C   0  0  0  0  0  0  0  0  0
   -0.9940   -2.6589    0.0000 C   0  0  0  0  0  0  0  0  0
   -1.7085   -2.2464    0.0000 C   0  0  0  0  0  0  0  0  0
   -1.7085   -1.4214    0.0000 C   0  0  0  0  0  0  0  0  0
   -0.9940   -1.0089    0.0000 C   0  0  0  0  0  0  0  0  0
   -0.9940   -0.1839    0.0000 C   0  0  0  0  0  0  0  0  0
   -0.2795    0.2286    0.0000 C   0  0  0  0  0  0  0  0  0
   -0.2795    1.0536    0.0000 O   0  0  0  0  0  0  0  0  0
    0.4350   -0.1839    0.0000 O   0  0  0  0  0  0  0  0  0
  1  2  1  0  0  0  0
  2  3  4  0  0  0  0
  2  8  4  0  0  0  0
  3  4  4  0  0  0  0
  4  5  4  0  0  0  0
  5  6  4  0  0  0  0
  6  7  1  0  0  0  0
  6  8  4  0  0  0  0
  8  9  1  0  0  0  0
  9 10  1  0  0  0  0
 10 11  4  0  0  0  0
 10 15  4  0  0  0  0
 11 12  4  0  0  0  0
 12 13  4  0  0  0  0
 13 14  4  0  0  0  0
 14 15  4  0  0  0  0
 15 16  1  0  0  0  0
 16 17  1  0  0  0  0
 17 18  1  0  0  0  0
 17 19  2  0  0  0  0
M  END
>  <Name_Molregno>
Diclofenac

>  <5-HT1A>
5

>  <5-HT1B>
5

>  <5-HT1D>
5

>  <5-HT1E>
5

>  <5-HT2A>
5

>  <5-HT3>
5

>  <5-HT5>
5

>  <5-HT6>
5

>  <5-HT7>
5

>  <Alpha-1A>
5

>  <Alpha-1B>
5

>  <Alpha-2A>
5

>  <Alpha-2B>
5

>  <Alpha-2C>
5

>  <DOPAMINE D1>
5

>  <DOPAMINE D2>
5

>  <DOPAMINE D4>
5

>  <DOPAMINE D5>
5

>  <HISTAMINE H1>
5

>  <HISTAMINE H2>
5

>  <Muscarinic acetylcholine receptor M2>
5

>  <Muscarinic acetylcholine receptor M5>
5

$$$$
DL-homocysteic-acid
  Marvin  02231216192D 0   1.00000     0.00000     0

 11 10  0  0  1  0  0  0  0  0999 V2000
   -2.6928   -0.0066    0.0000 S   0  0  0  0  0  0  0  0  0
   -3.4073   -0.4191    0.0000 O   0  0  0  0  0  0  0  0  0
   -2.2803   -0.7210    0.0000 O   0  0  0  0  0  0  0  0  0
   -3.1053    0.7079    0.0000 O   0  0  0  0  0  0  0  0  0
   -1.9783    0.4059    0.0000 C   0  0  0  0  0  0  0  0  0
   -1.2639   -0.0066    0.0000 C   0  0  0  0  0  0  0  0  0
   -0.5494    0.4059    0.0000 C   0  0  0  0  0  0  0  0  0
   -0.5494    1.2309    0.0000 N   0  0  0  0  0  0  0  0  0
    0.1651   -0.0066    0.0000 C   0  0  0  0  0  0  0  0  0
    0.8795    0.4059    0.0000 O   0  0  0  0  0  0  0  0  0
    0.1651   -0.8316    0.0000 O   0  0  0  0  0  0  0  0  0
  1  2  2  0  0  0  0
  1  3  2  0  0  0  0
  1  4  1  0  0  0  0
  1  5  1  0  0  0  0
  5  6  1  0  0  0  0
  6  7  1  0  0  0  0
  7  8  1  0  0  0  0
  7  9  1  0  0  0  0
  9 10  1  0  0  0  0
  9 11  2  0  0  0  0
M  END
>  <Name_Molregno>
DL-homocysteic-acid

>  <5-HT1A>
5

>  <5-HT1B>
5

>  <5-HT1D>
5

>  <5-HT3>
5

>  <5-HT5>
5

>  <5-HT6>
5

>  <5-HT7>
5

>  <Alpha-1A>
5

>  <Alpha-1B>
5

>  <Alpha-2A>
5

>  <Alpha-2B>
5

>  <Alpha-2C>
5

>  <DOPAMINE D1>
5

>  <DOPAMINE D2>
5

>  <DOPAMINE D3>
5

>  <DOPAMINE D5>
5

>  <Dopamine transporter>
5

>  <Muscarinic acetylcholine receptor M1>
5

>  <Muscarinic acetylcholine receptor M2>
5

>  <Muscarinic acetylcholine receptor M3>
5

>  <Muscarinic acetylcholine receptor M4>
5

>  <Muscarinic acetylcholine receptor M5>
5

>  <Norepinephrine transporter>
5

>  <Serotonin transporter>
5

$$$$
DL-homocysteine
  Marvin  02231216192D 0   1.00000     0.00000     0

  8  7  0  0  1  0  0  0  0  0999 V2000
   -0.0519    0.0021    0.0000 S   0  0  0  0  0  0  0  0  0
    0.6626    0.4146    0.0000 C   0  0  0  0  0  0  0  0  0
    1.3770    0.0021    0.0000 C   0  0  0  0  0  0  0  0  0
    2.0915    0.4146    0.0000 C   0  0  0  0  0  0  0  0  0
    2.0915    1.2396    0.0000 N   0  0  0  0  0  0  0  0  0
    2.8060    0.0021    0.0000 C   0  0  0  0  0  0  0  0  0
    3.5205    0.4146    0.0000 O   0  0  0  0  0  0  0  0  0
    2.8060   -0.8229    0.0000 O   0  0  0  0  0  0  0  0  0
  1  2  1  0  0  0  0
  2  3  1  0  0  0  0
  3  4  1  0  0  0  0
  4  5  1  0  0  0  0
  4  6  1  0  0  0  0
  6  7  1  0  0  0  0
  6  8  2  0  0  0  0
M  END
>  <Name_Molregno>
DL-homocysteine

>  <5-HT1A>
5

>  <5-HT1B>
5

>  <5-HT1D>
5

>  <5-HT3>
5

>  <5-HT5>
5

>  <5-HT6>
5

>  <5-HT7>
5

>  <Alpha-1A>
5

>  <Alpha-1B>
5

>  <Alpha-2A>
5

>  <Alpha-2B>
5

>  <Alpha-2C>
5

>  <DOPAMINE D1>
5

>  <DOPAMINE D2>
5

>  <DOPAMINE D3>
5

>  <DOPAMINE D5>
5

>  <Dopamine transporter>
5

>  <HISTAMINE H1>
5

>  <HISTAMINE H2>
5

>  <HISTAMINE H4>
5

>  <Muscarinic acetylcholine receptor M1>
5

>  <Muscarinic acetylcholine receptor M2>
5

>  <Muscarinic acetylcholine receptor M3>
5

>  <Muscarinic acetylcholine receptor M4>
5

>  <Muscarinic acetylcholine receptor M5>
5

>  <Norepinephrine transporter>
5

>  <Serotonin transporter>
5

$$$$
D-methionine
  Marvin  02231216192D 0   1.00000     0.00000     0

  9  8  0  0  1  0  0  0  0  0999 V2000
   -0.3763    1.2394    0.0000 S   0  0  0  0  0  0  0  0  0
    0.3381    0.8269    0.0000 C   0  0  0  0  0  0  0  0  0
    1.0526    1.2394    0.0000 C   0  0  0  0  0  0  0  0  0
    1.7671    0.8269    0.0000 C   0  0  0  0  0  0  0  0  0
    1.7671    0.0019    0.0000 N   0  0  0  0  0  0  0  0  0
    2.4816    1.2394    0.0000 C   0  0  0  0  0  0  0  0  0
    3.1960    0.8269    0.0000 O   0  0  0  0  0  0  0  0  0
    2.4816    2.0644    0.0000 O   0  0  0  0  0  0  0  0  0
   -1.0908    0.8269    0.0000 C   0  0  0  0  0  0  0  0  0
  1  2  1  0  0  0  0
  1  9  1  0  0  0  0
  2  3  1  0  0  0  0
  3  4  1  0  0  0  0
  4  5  1  0  0  0  0
  4  6  1  0  0  0  0
  6  7  1  0  0  0  0
  6  8  2  0  0  0  0
M  END
>  <Name_Molregno>
D-methionine

>  <5-HT1A>
5

>  <5-HT1B>
5

>  <5-HT1D>
5

>  <5-HT3>
5

>  <5-HT5>
5

>  <5-HT6>
5

>  <5-HT7>
5

>  <Alpha-1A>
5

>  <Alpha-1B>
5

>  <Alpha-2A>
5

>  <Alpha-2B>
5

>  <Alpha-2C>
5

>  <DOPAMINE D1>
5

>  <DOPAMINE D2>
5

>  <DOPAMINE D3>
5

>  <DOPAMINE D5>
5

>  <Dopamine transporter>
5

>  <HISTAMINE H1>
5

>  <HISTAMINE H2>
5

>  <HISTAMINE H4>
5

>  <Muscarinic acetylcholine receptor M1>
5

>  <Muscarinic acetylcholine receptor M2>
5

>  <Muscarinic acetylcholine receptor M3>
5

>  <Muscarinic acetylcholine receptor M4>
5

>  <Muscarinic acetylcholine receptor M5>
5

>  <Norepinephrine transporter>
5

>  <Serotonin transporter>
5

$$$$
DOXAZOSIN
  Marvin  02231216192D 0   1.00000     0.00000     0

 33 37  0  0  1  0  0  0  0  0999 V2000
   -6.4405   -2.0595    0.0000 O   0  0  0  0  0  0  0  0  0
   -6.4405   -2.8845    0.0000 C   0  0  0  0  0  0  0  0  0
   -5.7260   -3.2970    0.0000 C   0  0  0  0  0  0  0  0  0
   -5.0115   -2.8845    0.0000 O   0  0  0  0  0  0  0  0  0
   -5.0115   -2.0595    0.0000 C   0  0  0  0  0  0  0  0  0
   -5.7260   -1.6470    0.0000 C   0  0  0  0  0  0  0  0  0
   -5.7260   -0.8220    0.0000 C   0  0  0  0  0  0  0  0  0
   -6.4405   -0.4095    0.0000 O   0  0  0  0  0  0  0  0  0
   -5.0115   -0.4095    0.0000 N   0  0  0  0  0  0  0  0  0
   -5.0115    0.4155    0.0000 C   0  0  0  0  0  0  0  0  0
   -4.2971    0.8280    0.0000 C   0  0  0  0  0  0  0  0  0
   -3.5826    0.4155    0.0000 N   0  0  0  0  0  0  0  0  0
   -3.5826   -0.4095    0.0000 C   0  0  0  0  0  0  0  0  0
   -4.2971   -0.8220    0.0000 C   0  0  0  0  0  0  0  0  0
   -2.8681    0.8280    0.0000 C   0  0  0  0  0  0  0  0  0
   -2.8681    1.6530    0.0000 N   0  0  0  0  0  0  0  0  0
   -2.1537    2.0655    0.0000 C   0  0  0  0  0  0  0  0  0
   -2.1537    2.8905    0.0000 N   0  0  0  0  0  0  0  0  0
   -1.4392    1.6530    0.0000 C   0  0  0  0  0  0  0  0  0
   -0.7247    2.0655    0.0000 C   0  0  0  0  0  0  0  0  0
   -0.0102    1.6530    0.0000 C   0  0  0  0  0  0  0  0  0
    0.7042    2.0655    0.0000 O   0  0  0  0  0  0  0  0  0
    1.4187    1.6530    0.0000 C   0  0  0  0  0  0  0  0  0
   -0.0102    0.8280    0.0000 C   0  0  0  0  0  0  0  0  0
    0.7042    0.4155    0.0000 O   0  0  0  0  0  0  0  0  0
    0.7042   -0.4095    0.0000 C   0  0  0  0  0  0  0  0  0
   -0.7247    0.4155    0.0000 C   0  0  0  0  0  0  0  0  0
   -1.4392    0.8280    0.0000 C   0  0  0  0  0  0  0  0  0
   -2.1537    0.4155    0.0000 N   0  0  0  0  0  0  0  0  0
   -5.7260   -4.1220    0.0000 C   0  0  0  0  0  0  0  0  0
   -6.4405   -4.5345    0.0000 C   0  0  0  0  0  0  0  0  0
   -7.1550   -4.1220    0.0000 C   0  0  0  0  0  0  0  0  0
   -7.1550   -3.2970    0.0000 C   0  0  0  0  0  0  0  0  0
  1  2  1  0  0  0  0
  1  6  1  0  0  0  0
  2  3  4  0  0  0  0
  2 33  4  0  0  0  0
  3  4  1  0  0  0  0
  3 30  4  0  0  0  0
  4  5  1  0  0  0  0
  5  6  1  0  0  0  0
  6  7  1  0  0  0  0
  7  8  2  0  0  0  0
  7  9  1  0  0  0  0
  9 10  1  0  0  0  0
  9 14  1  0  0  0  0
 10 11  1  0  0  0  0
 11 12  1  0  0  0  0
 12 13  1  0  0  0  0
 12 15  1  0  0  0  0
 13 14  1  0  0  0  0
 15 16  4  0  0  0  0
 15 29  4  0  0  0  0
 16 17  4  0  0  0  0
 17 18  1  0  0  0  0
 17 19  4  0  0  0  0
 19 20  4  0  0  0  0
 19 28  4  0  0  0  0
 20 21  4  0  0  0  0
 21 22  1  0  0  0  0
 21 24  4  0  0  0  0
 22 23  1  0  0  0  0
 24 25  1  0  0  0  0
 24 27  4  0  0  0  0
 25 26  1  0  0  0  0
 27 28  4  0  0  0  0
 28 29  4  0  0  0  0
 30 31  4  0  0  0  0
 31 32  4  0  0  0  0
 32 33  4  0  0  0  0
M  END
>  <Name_Molregno>
DOXAZOSIN

>  <Alpha-1A>
9.04

>  <Alpha-1B>
9.1

>  <Alpha-2A>
6.14

>  <Alpha-2B>
5.3

>  <Alpha-2C>
6.55

$$$$
Ephedrine
  Marvin  02231216192D 0   1.00000     0.00000     0

 12 12  0  0  1  0  0  0  0  0999 V2000
    1.9192   -0.0549    0.0000 O   0  0  0  0  0  0  0  0  0
    1.2047   -0.4674    0.0000 C   0  0  0  0  0  0  0  0  0
    0.4903   -0.0549    0.0000 C   0  0  0  0  0  0  0  0  0
    0.4903    0.7701    0.0000 N   0  0  0  0  0  0  0  0  0
   -0.2242    1.1826    0.0000 C   0  0  0  0  0  0  0  0  0
   -0.2242   -0.4674    0.0000 C   0  0  0  0  0  0  0  0  0
    1.2047   -1.2924    0.0000 C   0  0  0  0  0  0  0  0  0
    1.9192   -1.7049    0.0000 C   0  0  0  0  0  0  0  0  0
    1.9192   -2.5299    0.0000 C   0  0  0  0  0  0  0  0  0
    1.2047   -2.9424    0.0000 C   0  0  0  0  0  0  0  0  0
    0.4903   -2.5299    0.0000 C   0  0  0  0  0  0  0  0  0
    0.4903   -1.7049    0.0000 C   0  0  0  0  0  0  0  0  0
  1  2  1  0  0  0  0
  2  3  1  0  0  0  0
  2  7  1  0  0  0  0
  3  4  1  0  0  0  0
  3  6  1  0  0  0  0
  4  5  1  0  0  0  0
  7  8  4  0  0  0  0
  7 12  4  0  0  0  0
  8  9  4  0  0  0  0
  9 10  4  0  0  0  0
 10 11  4  0  0  0  0
 11 12  4  0  0  0  0
M  END
>  <Name_Molregno>
Ephedrine

>  <5-HT1A>
5

>  <5-HT1B>
5

>  <5-HT1D>
5

>  <5-HT1E>
5

>  <5-HT3>
5

>  <5-HT5>
5

>  <5-HT6>
5

>  <5-HT7>
5.33

>  <Alpha-1A>
5

>  <Alpha-1B>
5

>  <Alpha-2A>
5.17

>  <Alpha-2B>
5.48

>  <Alpha-2C>
5.51

>  <Beta-1>
5

>  <Beta-2>
5

>  <DOPAMINE D1>
5

>  <DOPAMINE D2>
5

>  <DOPAMINE D4>
5

>  <DOPAMINE D5>
5

>  <Dopamine transporter>
5.38

>  <HISTAMINE H1>
5

>  <HISTAMINE H2>
5

>  <HISTAMINE H4>
5

>  <Muscarinic acetylcholine receptor M1>
5

>  <Muscarinic acetylcholine receptor M2>
5

>  <Muscarinic acetylcholine receptor M3>
5

>  <Muscarinic acetylcholine receptor M4>
5

>  <Muscarinic acetylcholine receptor M5>
5

>  <Norepinephrine transporter>
5.79

>  <Serotonin transporter>
5

$$$$
ERGOTAMINE
  Marvin  02231216192D 0   1.00000     0.00000     0

 43 50  0  0  1  0  0  0  0  0999 V2000
   -2.1239   -1.0172    0.0000 O   0  0  0  0  0  0  0  0  0
   -1.3035   -1.1045    0.0000 C   0  0  0  0  0  0  0  0  0
   -1.3025   -0.2795    0.0000 N   0  0  0  0  0  0  0  0  0
   -0.5876    0.1322    0.0000 C   0  0  0  0  0  0  0  0  0
    0.1264   -0.2812    0.0000 O   0  0  0  0  0  0  0  0  0
   -0.5866    0.9572    0.0000 C   0  0  0  0  0  0  0  0  0
    0.1284    1.3688    0.0000 C   0  0  0  0  0  0  0  0  0
    0.1294    2.1938    0.0000 C   0  0  0  0  0  0  0  0  0
   -0.5846    2.6072    0.0000 C   0  0  0  0  0  0  0  0  0
   -1.2996    2.1955    0.0000 N   0  0  0  0  0  0  0  0  0
   -1.3006    1.3705    0.0000 C   0  0  0  0  0  0  0  0  0
   -2.0136    2.6089    0.0000 C   0  0  0  0  0  0  0  0  0
   -0.5831    3.4313    0.0000 C   0  0  0  0  0  0  0  0  0
    0.1294    3.8438    0.0000 C   0  0  0  0  0  0  0  0  0
    0.8419    3.4313    0.0000 C   0  0  0  0  0  0  0  0  0
    0.8419    2.6063    0.0000 C   0  0  0  0  0  0  0  0  0
    1.5597    2.1938    0.0000 C   0  0  0  0  0  0  0  0  0
    2.2722    2.6063    0.0000 C   0  0  0  0  0  0  0  0  0
    2.2722    3.4313    0.0000 C   0  0  0  0  0  0  0  0  0
    1.5597    3.8438    0.0000 C   0  0  0  0  0  0  0  0  0
    1.2544    4.7010    0.0000 N   0  0  0  0  0  0  0  0  0
    0.4294    4.7010    0.0000 C   0  0  0  0  0  0  0  0  0
   -0.4830   -1.0192    0.0000 C   0  0  0  0  0  0  0  0  0
   -1.1330   -1.9116    0.0000 C   0  0  0  0  0  0  0  0  0
   -0.3797   -2.2481    0.0000 O   0  0  0  0  0  0  0  0  0
   -1.8479   -2.3233    0.0000 N   0  0  0  0  0  0  0  0  0
   -2.0204   -3.1301    0.0000 C   0  0  0  0  0  0  0  0  0
   -1.4080   -3.6828    0.0000 C   0  0  0  0  0  0  0  0  0
   -1.5805   -4.4896    0.0000 C   0  0  0  0  0  0  0  0  0
   -0.9681   -5.0424    0.0000 C   0  0  0  0  0  0  0  0  0
   -1.1406   -5.8491    0.0000 C   0  0  0  0  0  0  0  0  0
   -1.9255   -6.1031    0.0000 C   0  0  0  0  0  0  0  0  0
   -2.5379   -5.5504    0.0000 C   0  0  0  0  0  0  0  0  0
   -2.3654   -4.7436    0.0000 C   0  0  0  0  0  0  0  0  0
   -2.8054   -3.3841    0.0000 C   0  0  0  0  0  0  0  0  0
   -2.9779   -4.1908    0.0000 O   0  0  0  0  0  0  0  0  0
   -3.4178   -2.8313    0.0000 N   0  0  0  0  0  0  0  0  0
   -3.2453   -2.0245    0.0000 C   0  0  0  0  0  0  0  0  0
   -3.9593   -1.6112    0.0000 C   0  0  0  0  0  0  0  0  0
   -4.5730   -2.1625    0.0000 C   0  0  0  0  0  0  0  0  0
   -4.2384   -2.9165    0.0000 C   0  0  0  0  0  0  0  0  0
   -2.4604   -1.7705    0.0000 C   0  0  0  0  0  0  0  0  0
   -3.0117   -1.1568    0.0000 O   0  0  0  0  0  0  0  0  0
  1  2  1  0  0  0  0
  1 42  1  0  0  0  0
  2  3  1  0  0  0  0
  2 23  1  0  0  0  0
  2 24  1  0  0  0  0
  3  4  1  0  0  0  0
  4  5  2  0  0  0  0
  4  6  1  0  0  0  0
  6  7  1  0  0  0  0
  6 11  1  0  0  0  0
  7  8  2  0  0  0  0
  8  9  1  0  0  0  0
  8 16  1  0  0  0  0
  9 10  1  0  0  0  0
  9 13  1  0  0  0  0
 10 11  1  0  0  0  0
 10 12  1  0  0  0  0
 13 14  1  0  0  0  0
 14 15  4  0  0  0  0
 14 22  4  0  0  0  0
 15 16  4  0  0  0  0
 15 20  4  0  0  0  0
 16 17  4  0  0  0  0
 17 18  4  0  0  0  0
 18 19  4  0  0  0  0
 19 20  4  0  0  0  0
 20 21  4  0  0  0  0
 21 22  4  0  0  0  0
 24 25  2  0  0  0  0
 24 26  1  0  0  0  0
 26 27  1  0  0  0  0
 26 42  1  0  0  0  0
 27 28  1  0  0  0  0
 27 35  1  0  0  0  0
 28 29  1  0  0  0  0
 29 30  4  0  0  0  0
 29 34  4  0  0  0  0
 30 31  4  0  0  0  0
 31 32  4  0  0  0  0
 32 33  4  0  0  0  0
 33 34  4  0  0  0  0
 35 36  2  0  0  0  0
 35 37  1  0  0  0  0
 37 38  1  0  0  0  0
 37 41  1  0  0  0  0
 38 39  1  0  0  0  0
 38 42  1  0  0  0  0
 39 40  1  0  0  0  0
 40 41  1  0  0  0  0
 42 43  1  0  0  0  0
M  STY  1   1 DAT
M  SAL   1  1  21
M  SDT   1 MRV_IMPLICIT_H                                        
M  SDD   1     0.0000    0.0000    DR    ALL  0       0  
M  SED   1 IMPL_H1
M  END
>  <Name_Molregno>
ERGOTAMINE

>  <5-HT1A>
9.77

>  <5-HT1B>
8.33

>  <5-HT1D>
9

>  <5-HT1E>
6.58

>  <5-HT2A>
9.1

>  <5-HT2C>
8.37

>  <5-HT3>
5

>  <5-HT6>
7.92

>  <5-HT7>
5.89

>  <Alpha-1A>
5

>  <Alpha-1B>
5

>  <Alpha-2A>
6.97

>  <Alpha-2B>
7.05

>  <Alpha-2C>
5

>  <Beta-1>
5

>  <Beta-2>
5

>  <DOPAMINE D1>
5

>  <DOPAMINE D2>
5

>  <DOPAMINE D4>
5

>  <DOPAMINE D5>
6.77

>  <Dopamine transporter>
5

>  <HISTAMINE H1>
5

>  <HISTAMINE H2>
5

>  <Muscarinic acetylcholine receptor M1>
6.06

>  <Muscarinic acetylcholine receptor M2>
6.04

>  <Muscarinic acetylcholine receptor M3>
5

>  <Muscarinic acetylcholine receptor M4>
5

>  <Muscarinic acetylcholine receptor M5>
5

>  <Norepinephrine transporter>
5

>  <Serotonin transporter>
5

$$$$
ETORICOXIB
  Marvin  02231216192D 0   1.00000     0.00000     0

 24 26  0  0  0  0  0  0  0  0999 V2000
    1.3103    1.0543    0.0000 Cl  0  0  0  0  0  0  0  0  0
    1.3103    0.2293    0.0000 C   0  0  0  0  0  0  0  0  0
    2.0248   -0.1832    0.0000 C   0  0  0  0  0  0  0  0  0
    2.0248   -1.0082    0.0000 C   0  0  0  0  0  0  0  0  0
    1.3103   -1.4207    0.0000 C   0  0  0  0  0  0  0  0  0
    0.5958   -1.0082    0.0000 N   0  0  0  0  0  0  0  0  0
    0.5958   -0.1832    0.0000 C   0  0  0  0  0  0  0  0  0
    1.3103   -2.2457    0.0000 C   0  0  0  0  0  0  0  0  0
    2.0248   -2.6582    0.0000 C   0  0  0  0  0  0  0  0  0
    2.0248   -3.4832    0.0000 C   0  0  0  0  0  0  0  0  0
    1.3103   -3.8957    0.0000 C   0  0  0  0  0  0  0  0  0
    0.5958   -3.4832    0.0000 N   0  0  0  0  0  0  0  0  0
    0.5958   -2.6582    0.0000 C   0  0  0  0  0  0  0  0  0
    1.3103   -4.7207    0.0000 C   0  0  0  0  0  0  0  0  0
    2.7392   -1.4207    0.0000 C   0  0  0  0  0  0  0  0  0
    3.4537   -1.0082    0.0000 C   0  0  0  0  0  0  0  0  0
    4.1682   -1.4207    0.0000 C   0  0  0  0  0  0  0  0  0
    4.1682   -2.2457    0.0000 C   0  0  0  0  0  0  0  0  0
    4.8826   -2.6582    0.0000 S   0  0  0  0  0  0  0  0  0
    5.5971   -3.0707    0.0000 O   0  0  0  0  0  0  0  0  0
    4.4701   -3.3727    0.0000 O   0  0  0  0  0  0  0  0  0
    5.2951   -1.9437    0.0000 C   0  0  0  0  0  0  0  0  0
    3.4537   -2.6582    0.0000 C   0  0  0  0  0  0  0  0  0
    2.7392   -2.2457    0.0000 C   0  0  0  0  0  0  0  0  0
  1  2  1  0  0  0  0
  2  3  4  0  0  0  0
  2  7  4  0  0  0  0
  3  4  4  0  0  0  0
  4  5  4  0  0  0  0
  4 15  1  0  0  0  0
  5  6  4  0  0  0  0
  5  8  1  0  0  0  0
  6  7  4  0  0  0  0
  8  9  4  0  0  0  0
  8 13  4  0  0  0  0
  9 10  4  0  0  0  0
 10 11  4  0  0  0  0
 11 12  4  0  0  0  0
 11 14  1  0  0  0  0
 12 13  4  0  0  0  0
 15 16  4  0  0  0  0
 15 24  4  0  0  0  0
 16 17  4  0  0  0  0
 17 18  4  0  0  0  0
 18 19  1  0  0  0  0
 18 23  4  0  0  0  0
 19 20  2  0  0  0  0
 19 21  2  0  0  0  0
 19 22  1  0  0  0  0
 23 24  4  0  0  0  0
M  END
>  <Name_Molregno>
ETORICOXIB

>  <5-HT1A>
5

>  <5-HT1B>
5

>  <5-HT1D>
5

>  <5-HT1E>
5

>  <5-HT2A>
5

>  <5-HT3>
5

>  <5-HT6>
5

>  <5-HT7>
5

>  <Alpha-1A>
5

>  <Alpha-1B>
5

>  <Alpha-2A>
5

>  <Alpha-2B>
5

>  <Alpha-2C>
5

>  <DOPAMINE D1>
5

>  <DOPAMINE D2>
5

>  <DOPAMINE D5>
5

>  <Dopamine transporter>
5

>  <HISTAMINE H2>
5

>  <HISTAMINE H4>
5

>  <Muscarinic acetylcholine receptor M1>
5

>  <Norepinephrine transporter>
5

>  <Serotonin transporter>
5

$$$$
Fiduxosin
  Marvin  02231216192D 0   1.00000     0.00000     0

 40 46  0  0  1  0  0  0  0  0999 V2000
    0.5067    1.3899    0.0000 S   0  0  0  0  0  0  0  0  0
    1.1742    0.9049    0.0000 C   0  0  0  0  0  0  0  0  0
    0.9192    0.1203    0.0000 C   0  0  0  0  0  0  0  0  0
    1.4713   -0.4928    0.0000 N   0  0  0  0  0  0  0  0  0
    2.2782   -0.3212    0.0000 C   0  0  0  0  0  0  0  0  0
    2.8303   -0.9343    0.0000 O   0  0  0  0  0  0  0  0  0
    2.5332    0.4634    0.0000 N   0  0  0  0  0  0  0  0  0
    3.3402    0.6349    0.0000 C   0  0  0  0  0  0  0  0  0
    3.5951    1.4195    0.0000 C   0  0  0  0  0  0  0  0  0
    4.4021    1.5910    0.0000 C   0  0  0  0  0  0  0  0  0
    4.6570    2.3757    0.0000 C   0  0  0  0  0  0  0  0  0
    5.4640    2.5472    0.0000 N   0  0  0  0  0  0  0  0  0
    6.0771    1.9952    0.0000 C   0  0  0  0  0  0  0  0  0
    6.7915    2.4077    0.0000 C   0  0  0  0  0  0  0  0  0
    7.5762    2.1527    0.0000 C   0  0  0  0  0  0  0  0  0
    8.1893    2.7048    0.0000 C   0  0  0  0  0  0  0  0  0
    8.0177    3.5117    0.0000 O   0  0  0  0  0  0  0  0  0
    7.2331    3.7667    0.0000 C   0  0  0  0  0  0  0  0  0
    6.6200    3.2146    0.0000 C   0  0  0  0  0  0  0  0  0
    5.7995    3.3009    0.0000 C   0  0  0  0  0  0  0  0  0
    8.9739    2.4498    0.0000 C   0  0  0  0  0  0  0  0  0
    9.1454    1.6428    0.0000 C   0  0  0  0  0  0  0  0  0
    8.5323    1.0908    0.0000 C   0  0  0  0  0  0  0  0  0
    7.7477    1.3458    0.0000 C   0  0  0  0  0  0  0  0  0
    7.1346    0.7937    0.0000 O   0  0  0  0  0  0  0  0  0
    7.3061   -0.0132    0.0000 C   0  0  0  0  0  0  0  0  0
    1.9811    1.0765    0.0000 C   0  0  0  0  0  0  0  0  0
    2.2361    1.8611    0.0000 O   0  0  0  0  0  0  0  0  0
    0.0942    0.1203    0.0000 C   0  0  0  0  0  0  0  0  0
   -0.4578   -0.4928    0.0000 N   0  0  0  0  0  0  0  0  0
   -1.2648   -0.3212    0.0000 C   0  0  0  0  0  0  0  0  0
   -1.5197    0.4634    0.0000 C   0  0  0  0  0  0  0  0  0
   -0.9677    1.0765    0.0000 N   0  0  0  0  0  0  0  0  0
   -0.1607    0.9049    0.0000 C   0  0  0  0  0  0  0  0  0
   -1.8168   -0.9343    0.0000 C   0  0  0  0  0  0  0  0  0
   -1.5619   -1.7190    0.0000 C   0  0  0  0  0  0  0  0  0
   -2.1139   -2.3321    0.0000 C   0  0  0  0  0  0  0  0  0
   -2.9209   -2.1605    0.0000 C   0  0  0  0  0  0  0  0  0
   -3.1758   -1.3759    0.0000 C   0  0  0  0  0  0  0  0  0
   -2.6238   -0.7628    0.0000 C   0  0  0  0  0  0  0  0  0
  1  2  4  0  0  0  0
  1 34  4  0  0  0  0
  2  3  4  0  0  0  0
  2 27  1  0  0  0  0
  3  4  1  0  0  0  0
  3 29  4  0  0  0  0
  4  5  1  0  0  0  0
  5  6  2  0  0  0  0
  5  7  1  0  0  0  0
  7  8  1  0  0  0  0
  7 27  1  0  0  0  0
  8  9  1  0  0  0  0
  9 10  1  0  0  0  0
 10 11  1  0  0  0  0
 11 12  1  0  0  0  0
 12 13  1  0  0  0  0
 12 20  1  0  0  0  0
 13 14  1  0  0  0  0
 14 15  1  0  0  0  0
 14 19  1  0  0  0  0
 15 16  4  0  0  0  0
 15 24  4  0  0  0  0
 16 17  1  0  0  0  0
 16 21  4  0  0  0  0
 17 18  1  0  0  0  0
 18 19  1  0  0  0  0
 19 20  1  0  0  0  0
 21 22  4  0  0  0  0
 22 23  4  0  0  0  0
 23 24  4  0  0  0  0
 24 25  1  0  0  0  0
 25 26  1  0  0  0  0
 27 28  2  0  0  0  0
 29 30  4  0  0  0  0
 29 34  4  0  0  0  0
 30 31  4  0  0  0  0
 31 32  4  0  0  0  0
 31 35  1  0  0  0  0
 32 33  4  0  0  0  0
 33 34  4  0  0  0  0
 35 36  4  0  0  0  0
 35 40  4  0  0  0  0
 36 37  4  0  0  0  0
 37 38  4  0  0  0  0
 38 39  4  0  0  0  0
 39 40  4  0  0  0  0
M  END
>  <Name_Molregno>
Fiduxosin

>  <Alpha-1A>
9.8

>  <Alpha-1B>
7.6

$$$$
Fluorocarazolol
  Marvin  02231216192D 0   1.00000     0.00000     0

 23 25  0  0  1  0  0  0  0  0999 V2000
   -0.1270    1.0228    0.0000 F   0  0  0  0  0  0  0  0  0
    0.5874    0.6103    0.0000 C   0  0  0  0  0  0  0  0  0
    1.3019    1.0228    0.0000 C   0  0  0  0  0  0  0  0  0
    2.0164    0.6103    0.0000 N   0  0  0  0  0  0  0  0  0
    2.7309    1.0228    0.0000 C   0  0  0  0  0  0  0  0  0
    3.4453    0.6103    0.0000 C   0  0  0  0  0  0  0  0  0
    3.4453   -0.2147    0.0000 O   0  0  0  0  0  0  0  0  0
    4.1598    1.0228    0.0000 C   0  0  0  0  0  0  0  0  0
    4.8743    0.6103    0.0000 O   0  0  0  0  0  0  0  0  0
    5.5887    1.0228    0.0000 C   0  0  0  0  0  0  0  0  0
    6.3032    0.6103    0.0000 C   0  0  0  0  0  0  0  0  0
    6.4747   -0.1966    0.0000 C   0  0  0  0  0  0  0  0  0
    7.2952   -0.2829    0.0000 C   0  0  0  0  0  0  0  0  0
    7.6308    0.4708    0.0000 N   0  0  0  0  0  0  0  0  0
    7.0177    1.0228    0.0000 C   0  0  0  0  0  0  0  0  0
    7.0177    1.8478    0.0000 C   0  0  0  0  0  0  0  0  0
    6.3032    2.2603    0.0000 C   0  0  0  0  0  0  0  0  0
    5.5887    1.8478    0.0000 C   0  0  0  0  0  0  0  0  0
    7.6308   -1.0365    0.0000 C   0  0  0  0  0  0  0  0  0
    7.1459   -1.7040    0.0000 C   0  0  0  0  0  0  0  0  0
    6.3254   -1.6178    0.0000 C   0  0  0  0  0  0  0  0  0
    5.9898   -0.8641    0.0000 C   0  0  0  0  0  0  0  0  0
    1.3019    1.8478    0.0000 C   0  0  0  0  0  0  0  0  0
  1  2  1  0  0  0  0
  2  3  1  0  0  0  0
  3  4  1  0  0  0  0
  3 23  1  0  0  0  0
  4  5  1  0  0  0  0
  5  6  1  0  0  0  0
  6  7  1  0  0  0  0
  6  8  1  0  0  0  0
  8  9  1  0  0  0  0
  9 10  1  0  0  0  0
 10 11  4  0  0  0  0
 10 18  4  0  0  0  0
 11 12  4  0  0  0  0
 11 15  4  0  0  0  0
 12 13  4  0  0  0  0
 12 22  4  0  0  0  0
 13 14  4  0  0  0  0
 13 19  4  0  0  0  0
 14 15  4  0  0  0  0
 15 16  4  0  0  0  0
 16 17  4  0  0  0  0
 17 18  4  0  0  0  0
 19 20  4  0  0  0  0
 20 21  4  0  0  0  0
 21 22  4  0  0  0  0
M  STY  1   1 DAT
M  SAL   1  1  14
M  SDT   1 MRV_IMPLICIT_H                                        
M  SDD   1     0.0000    0.0000    DR    ALL  0       0  
M  SED   1 IMPL_H1
M  END
>  <Name_Molregno>
Fluorocarazolol

>  <5-HT1A>
6.97

>  <5-HT1B>
6.31

>  <5-HT1D>
5.5

>  <5-HT1E>
5

>  <5-HT3>
5

>  <5-HT5>
5

>  <5-HT6>
5

>  <5-HT7>
5.17

>  <Alpha-1A>
5.85

>  <Alpha-1B>
5.76

>  <Alpha-2A>
5.5

>  <Alpha-2B>
5.03

>  <Alpha-2C>
5.54

>  <Beta-1>
9.65

>  <Beta-2>
9.98

>  <DOPAMINE D1>
5

>  <DOPAMINE D5>
5

>  <Muscarinic acetylcholine receptor M1>
5.66

>  <Muscarinic acetylcholine receptor M2>
5

>  <Muscarinic acetylcholine receptor M3>
5.4

>  <Muscarinic acetylcholine receptor M4>
5.14

>  <Muscarinic acetylcholine receptor M5>
5.27

>  <Norepinephrine transporter>
5

>  <Serotonin transporter>
5

$$$$
Fluparoxan
  Marvin  02231216192D 0   1.00000     0.00000     0

 14 16  0  0  1  0  0  0  0  0999 V2000
   -2.9096    0.8157    0.0000 F   0  0  0  0  0  0  0  0  0
   -2.9096   -0.0093    0.0000 C   0  0  0  0  0  0  0  0  0
   -2.1951   -0.4218    0.0000 C   0  0  0  0  0  0  0  0  0
   -1.4806   -0.0093    0.0000 O   0  0  0  0  0  0  0  0  0
   -0.7662   -0.4218    0.0000 C   0  0  0  0  0  0  0  0  0
   -0.7662   -1.2468    0.0000 C   0  0  0  0  0  0  0  0  0
   -1.4806   -1.6593    0.0000 O   0  0  0  0  0  0  0  0  0
   -2.1951   -1.2468    0.0000 C   0  0  0  0  0  0  0  0  0
   -2.9096   -1.6593    0.0000 C   0  0  0  0  0  0  0  0  0
   -3.6240   -1.2468    0.0000 C   0  0  0  0  0  0  0  0  0
   -3.6240   -0.4218    0.0000 C   0  0  0  0  0  0  0  0  0
    0.0185   -1.5018    0.0000 C   0  0  0  0  0  0  0  0  0
    0.5034   -0.8343    0.0000 N   0  0  0  0  0  0  0  0  0
    0.0185   -0.1669    0.0000 C   0  0  0  0  0  0  0  0  0
  1  2  1  0  0  0  0
  2  3  4  0  0  0  0
  2 11  4  0  0  0  0
  3  4  1  0  0  0  0
  3  8  4  0  0  0  0
  4  5  1  0  0  0  0
  5  6  1  0  0  0  0
  5 14  1  0  0  0  0
  6  7  1  0  0  0  0
  6 12  1  0  0  0  0
  7  8  1  0  0  0  0
  8  9  4  0  0  0  0
  9 10  4  0  0  0  0
 10 11  4  0  0  0  0
 12 13  1  0  0  0  0
 13 14  1  0  0  0  0
M  END
>  <Name_Molregno>
Fluparoxan

>  <5-HT1A>
6.8

>  <5-HT1B>
6

>  <5-HT1D>
6

>  <5-HT2A>
6

>  <5-HT2C>
6

>  <Alpha-1A>
6.3

>  <Alpha-1B>
6

>  <Alpha-2A>
8.13

>  <Alpha-2B>
8.9

>  <Alpha-2C>
8.8

>  <DOPAMINE D2>
6

>  <DOPAMINE D3>
6

>  <Serotonin transporter>
6

$$$$
FLUPHENAZINE
  Marvin  02231216192D 0   1.00000     0.00000     0

 38 41  0  0  0  0  0  0  0  0999 V2000
   -7.1492   -1.5262    0.0000 S   0  0  0  0  0  0  0  0  0
   -7.1492   -2.3512    0.0000 C   0  0  0  0  0  0  0  0  0
   -6.4348   -2.7637    0.0000 C   0  0  0  0  0  0  0  0  0
   -5.7203   -2.3512    0.0000 N   0  0  0  0  0  0  0  0  0
   -5.7203   -1.5262    0.0000 C   0  0  0  0  0  0  0  0  0
   -6.4348   -1.1137    0.0000 C   0  0  0  0  0  0  0  0  0
   -6.4348   -0.2887    0.0000 C   0  0  0  0  0  0  0  0  0
   -5.7203    0.1238    0.0000 C   0  0  0  0  0  0  0  0  0
   -5.0058   -0.2887    0.0000 C   0  0  0  0  0  0  0  0  0
   -5.0058   -1.1137    0.0000 C   0  0  0  0  0  0  0  0  0
   -5.0058   -2.7637    0.0000 C   0  0  0  0  0  0  0  0  0
   -4.2914   -2.3512    0.0000 C   0  0  0  0  0  0  0  0  0
   -3.5769   -2.7637    0.0000 C   0  0  0  0  0  0  0  0  0
   -2.8624   -2.3512    0.0000 N   0  0  0  0  0  0  0  0  0
   -2.8624   -1.5262    0.0000 C   0  0  0  0  0  0  0  0  0
   -2.1479   -1.1137    0.0000 C   0  0  0  0  0  0  0  0  0
   -1.4335   -1.5262    0.0000 N   0  0  0  0  0  0  0  0  0
   -1.4335   -2.3512    0.0000 C   0  0  0  0  0  0  0  0  0
   -2.1479   -2.7637    0.0000 C   0  0  0  0  0  0  0  0  0
   -0.7190   -1.1137    0.0000 C   0  0  0  0  0  0  0  0  0
   -0.0045   -1.5262    0.0000 C   0  0  0  0  0  0  0  0  0
    0.7099   -1.1137    0.0000 O   0  0  0  0  0  0  0  0  0
    1.4244   -1.5262    0.0000 C   0  0  0  0  0  0  0  0  0
    1.4244   -2.3512    0.0000 O   0  0  0  0  0  0  0  0  0
    2.1389   -1.1137    0.0000 C   0  0  0  0  0  0  0  0  0
    2.8534   -1.5262    0.0000 C   0  0  0  0  0  0  0  0  0
    3.5678   -1.1137    0.0000 C   0  0  0  0  0  0  0  0  0
    4.2823   -1.5262    0.0000 C   0  0  0  0  0  0  0  0  0
    4.9968   -1.1137    0.0000 C   0  0  0  0  0  0  0  0  0
    5.7112   -1.5262    0.0000 C   0  0  0  0  0  0  0  0  0
   -6.4348   -3.5887    0.0000 C   0  0  0  0  0  0  0  0  0
   -7.1492   -4.0012    0.0000 C   0  0  0  0  0  0  0  0  0
   -7.8637   -3.5887    0.0000 C   0  0  0  0  0  0  0  0  0
   -7.8637   -2.7637    0.0000 C   0  0  0  0  0  0  0  0  0
   -7.1492   -4.8262    0.0000 C   0  0  0  0  0  0  0  0  0
   -7.1492   -5.6512    0.0000 F   0  0  0  0  0  0  0  0  0
   -7.9742   -4.8262    0.0000 F   0  0  0  0  0  0  0  0  0
   -6.3242   -4.8262    0.0000 F   0  0  0  0  0  0  0  0  0
  1  2  1  0  0  0  0
  1  6  1  0  0  0  0
  2  3  4  0  0  0  0
  2 34  4  0  0  0  0
  3  4  1  0  0  0  0
  3 31  4  0  0  0  0
  4  5  1  0  0  0  0
  4 11  1  0  0  0  0
  5  6  4  0  0  0  0
  5 10  4  0  0  0  0
  6  7  4  0  0  0  0
  7  8  4  0  0  0  0
  8  9  4  0  0  0  0
  9 10  4  0  0  0  0
 11 12  1  0  0  0  0
 12 13  1  0  0  0  0
 13 14  1  0  0  0  0
 14 15  1  0  0  0  0
 14 19  1  0  0  0  0
 15 16  1  0  0  0  0
 16 17  1  0  0  0  0
 17 18  1  0  0  0  0
 17 20  1  0  0  0  0
 18 19  1  0  0  0  0
 20 21  1  0  0  0  0
 21 22  1  0  0  0  0
 22 23  1  0  0  0  0
 23 24  2  0  0  0  0
 23 25  1  0  0  0  0
 25 26  1  0  0  0  0
 26 27  1  0  0  0  0
 27 28  1  0  0  0  0
 28 29  1  0  0  0  0
 29 30  1  0  0  0  0
 31 32  4  0  0  0  0
 32 33  4  0  0  0  0
 32 35  1  0  0  0  0
 33 34  4  0  0  0  0
 35 36  1  0  0  0  0
 35 37  1  0  0  0  0
 35 38  1  0  0  0  0
M  END
>  <Name_Molregno>
FLUPHENAZINE

>  <5-HT1A>
6.41

>  <5-HT1B>
6.48

>  <5-HT1D>
6.48

>  <5-HT1E>
6.27

>  <5-HT2A>
7.87

>  <5-HT2C>
6.05

>  <5-HT3>
5

>  <5-HT5>
6.84

>  <5-HT6>
7.46

>  <5-HT7>
8.1

>  <Alpha-1A>
8.19

>  <Alpha-1B>
7.89

>  <Alpha-2A>
6.5

>  <Alpha-2B>
7.09

>  <Alpha-2C>
7.54

>  <Beta-1>
5

>  <Beta-2>
5

>  <DOPAMINE D1>
7.55

>  <DOPAMINE D2>
9.22

>  <DOPAMINE D3>
9.33

>  <DOPAMINE D4>
7.52

>  <DOPAMINE D5>
7.82

>  <Dopamine transporter>
5

>  <HISTAMINE H1>
7.72

>  <HISTAMINE H2>
6.25

>  <HISTAMINE H3>
6

>  <HISTAMINE H4>
5

>  <Muscarinic acetylcholine receptor M1>
5.96

>  <Muscarinic acetylcholine receptor M2>
5.14

>  <Muscarinic acetylcholine receptor M3>
5.84

>  <Muscarinic acetylcholine receptor M4>
5.27

>  <Muscarinic acetylcholine receptor M5>
6.45

>  <Norepinephrine transporter>
5.51

>  <Serotonin transporter>
5.23

$$$$
HALOPERIDOL
  Marvin  02231216192D 0   1.00000     0.00000     0

 26 28  0  0  0  0  0  0  0  0999 V2000
    1.7138    2.6466    0.0000 Cl  0  0  0  0  0  0  0  0  0
    1.9960    1.8714    0.0000 C   0  0  0  0  0  0  0  0  0
    2.8084    1.7281    0.0000 C   0  0  0  0  0  0  0  0  0
    3.0906    0.9529    0.0000 C   0  0  0  0  0  0  0  0  0
    2.5603    0.3209    0.0000 C   0  0  0  0  0  0  0  0  0
    1.7478    0.4642    0.0000 C   0  0  0  0  0  0  0  0  0
    1.4657    1.2394    0.0000 C   0  0  0  0  0  0  0  0  0
    2.8425   -0.4543    0.0000 C   0  0  0  0  0  0  0  0  0
    2.0300   -0.5976    0.0000 O   0  0  0  0  0  0  0  0  0
    3.5569   -0.0418    0.0000 C   0  0  0  0  0  0  0  0  0
    4.2714   -0.4543    0.0000 C   0  0  0  0  0  0  0  0  0
    4.2714   -1.2793    0.0000 N   0  0  0  0  0  0  0  0  0
    3.5569   -1.6918    0.0000 C   0  0  0  0  0  0  0  0  0
    2.8425   -1.2793    0.0000 C   0  0  0  0  0  0  0  0  0
    4.9859   -1.6918    0.0000 C   0  0  0  0  0  0  0  0  0
    5.7003   -1.2793    0.0000 C   0  0  0  0  0  0  0  0  0
    6.4148   -1.6918    0.0000 C   0  0  0  0  0  0  0  0  0
    7.1293   -1.2793    0.0000 C   0  0  0  0  0  0  0  0  0
    7.1293   -0.4543    0.0000 O   0  0  0  0  0  0  0  0  0
    7.8438   -1.6918    0.0000 C   0  0  0  0  0  0  0  0  0
    8.5582   -1.2793    0.0000 C   0  0  0  0  0  0  0  0  0
    9.2727   -1.6918    0.0000 C   0  0  0  0  0  0  0  0  0
    9.2727   -2.5168    0.0000 C   0  0  0  0  0  0  0  0  0
    9.9872   -2.9293    0.0000 F   0  0  0  0  0  0  0  0  0
    8.5582   -2.9293    0.0000 C   0  0  0  0  0  0  0  0  0
    7.8438   -2.5168    0.0000 C   0  0  0  0  0  0  0  0  0
  1  2  1  0  0  0  0
  2  3  4  0  0  0  0
  2  7  4  0  0  0  0
  3  4  4  0  0  0  0
  4  5  4  0  0  0  0
  5  6  4  0  0  0  0
  5  8  1  0  0  0  0
  6  7  4  0  0  0  0
  8  9  1  0  0  0  0
  8 10  1  0  0  0  0
  8 14  1  0  0  0  0
 10 11  1  0  0  0  0
 11 12  1  0  0  0  0
 12 13  1  0  0  0  0
 12 15  1  0  0  0  0
 13 14  1  0  0  0  0
 15 16  1  0  0  0  0
 16 17  1  0  0  0  0
 17 18  1  0  0  0  0
 18 19  2  0  0  0  0
 18 20  1  0  0  0  0
 20 21  4  0  0  0  0
 20 26  4  0  0  0  0
 21 22  4  0  0  0  0
 22 23  4  0  0  0  0
 23 24  1  0  0  0  0
 23 25  4  0  0  0  0
 25 26  4  0  0  0  0
M  END
>  <Name_Molregno>
HALOPERIDOL

>  <5-HT1A>
5.67

>  <5-HT1B>
6.63

>  <5-HT1D>
5.56

>  <5-HT1E>
5.15

>  <5-HT2A>
7.01

>  <5-HT2C>
5.24

>  <5-HT3>
5

>  <5-HT5>
5.65

>  <5-HT6>
5.28

>  <5-HT7>
6.32

>  <Alpha-1A>
7.92

>  <Alpha-1B>
8.1

>  <Alpha-2A>
6.04

>  <Alpha-2B>
6.32

>  <Alpha-2C>
6.34

>  <Beta-1>
5

>  <Beta-2>
5.15

>  <DOPAMINE D1>
7.22

>  <DOPAMINE D2>
8.75

>  <DOPAMINE D3>
8.33

>  <DOPAMINE D4>
8.29

>  <DOPAMINE D5>
7.03

>  <Dopamine transporter>
5

>  <HISTAMINE H1>
6.04

>  <HISTAMINE H2>
6

>  <HISTAMINE H4>
5

>  <Muscarinic acetylcholine receptor M1>
5.4

>  <Muscarinic acetylcholine receptor M2>
5

>  <Muscarinic acetylcholine receptor M3>
5

>  <Muscarinic acetylcholine receptor M4>
5

>  <Muscarinic acetylcholine receptor M5>
5.59

>  <Norepinephrine transporter>
5.68

>  <Serotonin transporter>
5.74

$$$$
Hyperforin
  Marvin  02231216192D 0   1.00000     0.00000     0

 39 40  0  0  1  0  0  0  0  0999 V2000
   -0.0475    3.0141    0.0000 O   0  0  0  0  0  0  0  0  0
    0.7326    2.5988    0.0000 C   0  0  0  0  0  0  0  0  0
    1.6516    2.5995    0.0000 C   0  0  0  0  0  0  0  0  0
    1.7130    1.6464    0.0000 C   0  0  0  0  0  0  0  0  0
    1.3009    1.0655    0.0000 C   0  0  0  0  0  0  0  0  0
    0.9271    0.2926    0.0000 C   0  0  0  0  0  0  0  0  0
    0.6406   -0.4973    0.0000 C   0  0  0  0  0  0  0  0  0
   -0.1718   -0.6414    0.0000 C   0  0  0  0  0  0  0  0  0
   -0.7027   -0.0100    0.0000 C   0  0  0  0  0  0  0  0  0
   -0.4531   -1.4170    0.0000 C   0  0  0  0  0  0  0  0  0
    2.1172    1.2450    0.0000 C   0  0  0  0  0  0  0  0  0
    2.4176    0.4250    0.0000 C   0  0  0  0  0  0  0  0  0
    3.1181   -0.0803    0.0000 C   0  0  0  0  0  0  0  0  0
    3.0346   -0.9010    0.0000 C   0  0  0  0  0  0  0  0  0
    2.2821   -1.2391    0.0000 C   0  0  0  0  0  0  0  0  0
    1.6130   -0.7565    0.0000 C   0  0  0  0  0  0  0  0  0
    2.1987   -2.0599    0.0000 C   0  0  0  0  0  0  0  0  0
    2.9989    1.2958    0.0000 C   0  0  0  0  0  0  0  0  0
    2.0702    2.2319    0.0000 C   0  0  0  0  0  0  0  0  0
    2.8036    2.7016    0.0000 C   0  0  0  0  0  0  0  0  0
    2.8813    3.6702    0.0000 O   0  0  0  0  0  0  0  0  0
    3.6516    2.8271    0.0000 C   0  0  0  0  0  0  0  0  0
    3.9551    3.5942    0.0000 C   0  0  0  0  0  0  0  0  0
    4.1642    2.1806    0.0000 C   0  0  0  0  0  0  0  0  0
    2.0364    2.8705    0.0000 C   0  0  0  0  0  0  0  0  0
    2.9600    3.1637    0.0000 O   0  0  0  0  0  0  0  0  0
    1.1102    2.2212    0.0000 C   0  0  0  0  0  0  0  0  0
    0.8447    3.1353    0.0000 O   0  0  0  0  0  0  0  0  0
    0.6057    1.7969    0.0000 C   0  0  0  0  0  0  0  0  0
   -0.1558    1.3974    0.0000 C   0  0  0  0  0  0  0  0  0
   -0.9549    1.0682    0.0000 C   0  0  0  0  0  0  0  0  0
   -1.6085    1.5717    0.0000 C   0  0  0  0  0  0  0  0  0
   -2.3713    1.2575    0.0000 C   0  0  0  0  0  0  0  0  0
   -1.4992    2.3895    0.0000 C   0  0  0  0  0  0  0  0  0
    1.5780    3.5970    0.0000 C   0  0  0  0  0  0  0  0  0
    1.5386    4.4833    0.0000 C   0  0  0  0  0  0  0  0  0
    0.8065    4.8636    0.0000 C   0  0  0  0  0  0  0  0  0
    0.7698    5.6878    0.0000 C   0  0  0  0  0  0  0  0  0
    0.1111    4.4198    0.0000 C   0  0  0  0  0  0  0  0  0
  1  2  1  0  0  0  0
  2  3  1  0  0  0  0
  2 29  2  0  0  0  0
  3  4  1  0  0  0  0
  3 25  1  0  0  0  0
  3 35  1  0  0  0  0
  4  5  1  0  0  0  0
  5  6  1  0  0  0  0
  5 11  1  0  0  0  0
  6  7  1  0  0  0  0
  7  8  2  0  0  0  0
  8  9  1  0  0  0  0
  8 10  1  0  0  0  0
 11 12  1  0  0  0  0
 11 18  1  0  0  0  0
 11 19  1  0  0  0  0
 12 13  1  0  0  0  0
 13 14  1  0  0  0  0
 14 15  2  0  0  0  0
 15 16  1  0  0  0  0
 15 17  1  0  0  0  0
 19 20  1  0  0  0  0
 19 25  1  0  0  0  0
 19 27  1  0  0  0  0
 20 21  2  0  0  0  0
 20 22  1  0  0  0  0
 22 23  1  0  0  0  0
 22 24  1  0  0  0  0
 25 26  2  0  0  0  0
 27 28  2  0  0  0  0
 27 29  1  0  0  0  0
 29 30  1  0  0  0  0
 30 31  1  0  0  0  0
 31 32  2  0  0  0  0
 32 33  1  0  0  0  0
 32 34  1  0  0  0  0
 35 36  1  0  0  0  0
 36 37  2  0  0  0  0
 37 38  1  0  0  0  0
 37 39  1  0  0  0  0
M  END
>  <Name_Molregno>
Hyperforin

>  <5-HT1A>
5

>  <5-HT1D>
5

>  <5-HT3>
5

>  <5-HT5>
5

>  <5-HT6>
5

>  <5-HT7>
5

>  <Alpha-1A>
5

>  <Alpha-1B>
5

>  <Alpha-2A>
5

>  <Alpha-2B>
5

>  <Alpha-2C>
5

>  <DOPAMINE D1>
6.22

>  <DOPAMINE D5>
5

>  <Muscarinic acetylcholine receptor M1>
5

>  <Muscarinic acetylcholine receptor M2>
5

>  <Muscarinic acetylcholine receptor M3>
5

>  <Muscarinic acetylcholine receptor M4>
5

>  <Muscarinic acetylcholine receptor M5>
5

>  <Norepinephrine transporter>
5

>  <Serotonin transporter>
5

$$$$
Hypericin
  Marvin  02231216192D 0   1.00000     0.00000     0

 39 46  0  0  0  0  0  0  0  0999 V2000
   -0.3746   -3.0738    0.0000 O   0  0  0  0  0  0  0  0  0
    0.1655   -2.4502    0.0000 C   0  0  0  0  0  0  0  0  0
    0.9756   -2.6061    0.0000 C   0  0  0  0  0  0  0  0  0
    1.5157   -1.9824    0.0000 C   0  0  0  0  0  0  0  0  0
    1.2457   -1.2029    0.0000 C   0  0  0  0  0  0  0  0  0
    1.7858   -0.5792    0.0000 C   0  0  0  0  0  0  0  0  0
    2.5959   -0.7352    0.0000 C   0  0  0  0  0  0  0  0  0
    3.1360   -0.1115    0.0000 C   0  0  0  0  0  0  0  0  0
    3.9461   -0.2674    0.0000 C   0  0  0  0  0  0  0  0  0
    4.4862    0.3562    0.0000 O   0  0  0  0  0  0  0  0  0
    4.2162   -1.0470    0.0000 C   0  0  0  0  0  0  0  0  0
    3.6761   -1.6706    0.0000 C   0  0  0  0  0  0  0  0  0
    3.9461   -2.4502    0.0000 C   0  0  0  0  0  0  0  0  0
    3.4060   -3.0738    0.0000 C   0  0  0  0  0  0  0  0  0
    2.5959   -2.9179    0.0000 C   0  0  0  0  0  0  0  0  0
    2.0558   -3.5415    0.0000 C   0  0  0  0  0  0  0  0  0
    1.2457   -3.3856    0.0000 C   0  0  0  0  0  0  0  0  0
    0.7056   -4.0093    0.0000 O   0  0  0  0  0  0  0  0  0
    2.3258   -4.3211    0.0000 C   0  0  0  0  0  0  0  0  0
    1.7858   -4.9447    0.0000 O   0  0  0  0  0  0  0  0  0
    3.1360   -4.4770    0.0000 C   0  0  0  0  0  0  0  0  0
    3.6761   -3.8534    0.0000 C   0  0  0  0  0  0  0  0  0
    4.4862   -4.0093    0.0000 O   0  0  0  0  0  0  0  0  0
    2.3258   -2.1384    0.0000 C   0  0  0  0  0  0  0  0  0
    2.8659   -1.5147    0.0000 C   0  0  0  0  0  0  0  0  0
    4.7562   -2.6061    0.0000 C   0  0  0  0  0  0  0  0  0
    5.0263   -3.3856    0.0000 O   0  0  0  0  0  0  0  0  0
    5.2963   -1.9824    0.0000 C   0  0  0  0  0  0  0  0  0
    5.0263   -1.2029    0.0000 C   0  0  0  0  0  0  0  0  0
    5.5664   -0.5792    0.0000 O   0  0  0  0  0  0  0  0  0
    2.8659    0.6680    0.0000 C   0  0  0  0  0  0  0  0  0
    3.4060    1.2917    0.0000 O   0  0  0  0  0  0  0  0  0
    2.0558    0.8239    0.0000 C   0  0  0  0  0  0  0  0  0
    1.5157    0.2003    0.0000 C   0  0  0  0  0  0  0  0  0
    0.7056    0.3562    0.0000 C   0  0  0  0  0  0  0  0  0
    0.4355   -1.0470    0.0000 C   0  0  0  0  0  0  0  0  0
   -0.1046   -1.6706    0.0000 C   0  0  0  0  0  0  0  0  0
    0.1655   -0.2674    0.0000 C   0  0  0  0  0  0  0  0  0
   -0.6446   -0.1115    0.0000 O   0  0  0  0  0  0  0  0  0
  1  2  1  0  0  0  0
  2  3  4  0  0  0  0
  2 37  4  0  0  0  0
  3  4  4  0  0  0  0
  3 17  1  0  0  0  0
  4  5  4  0  0  0  0
  4 24  4  0  0  0  0
  5  6  4  0  0  0  0
  5 36  4  0  0  0  0
  6  7  4  0  0  0  0
  6 34  4  0  0  0  0
  7  8  4  0  0  0  0
  7 25  4  0  0  0  0
  8  9  1  0  0  0  0
  8 31  4  0  0  0  0
  9 10  2  0  0  0  0
  9 11  1  0  0  0  0
 11 12  4  0  0  0  0
 11 29  4  0  0  0  0
 12 13  4  0  0  0  0
 12 25  4  0  0  0  0
 13 14  4  0  0  0  0
 13 26  4  0  0  0  0
 14 15  4  0  0  0  0
 14 22  4  0  0  0  0
 15 16  4  0  0  0  0
 15 24  4  0  0  0  0
 16 17  1  0  0  0  0
 16 19  4  0  0  0  0
 17 18  2  0  0  0  0
 19 20  1  0  0  0  0
 19 21  4  0  0  0  0
 21 22  4  0  0  0  0
 22 23  1  0  0  0  0
 24 25  4  0  0  0  0
 26 27  1  0  0  0  0
 26 28  4  0  0  0  0
 28 29  4  0  0  0  0
 29 30  1  0  0  0  0
 31 32  1  0  0  0  0
 31 33  4  0  0  0  0
 33 34  4  0  0  0  0
 34 35  1  0  0  0  0
 36 37  4  0  0  0  0
 36 38  1  0  0  0  0
 38 39  1  0  0  0  0
M  END
>  <Name_Molregno>
Hypericin

>  <5-HT1A>
5

>  <5-HT1D>
5

>  <5-HT3>
5

>  <5-HT5>
5

>  <5-HT6>
5

>  <5-HT7>
5

>  <Alpha-1A>
5

>  <Alpha-1B>
5

>  <Alpha-2A>
5

>  <Alpha-2B>
5

>  <Alpha-2C>
5

>  <DOPAMINE D1>
5

>  <DOPAMINE D5>
5

>  <Muscarinic acetylcholine receptor M1>
5

>  <Muscarinic acetylcholine receptor M2>
5

>  <Muscarinic acetylcholine receptor M3>
5

>  <Muscarinic acetylcholine receptor M4>
5

>  <Muscarinic acetylcholine receptor M5>
5

>  <Norepinephrine transporter>
5

>  <Serotonin transporter>
5

$$$$
Hyperoside
  Marvin  02231216192D 0   1.00000     0.00000     0

 33 36  0  0  1  0  0  0  0  0999 V2000
    1.3731    1.4076    0.0000 O   0  0  0  0  0  0  0  0  0
    1.3731    2.2326    0.0000 C   0  0  0  0  0  0  0  0  0
    2.0876    2.6451    0.0000 C   0  0  0  0  0  0  0  0  0
    2.0876    3.4701    0.0000 O   0  0  0  0  0  0  0  0  0
    0.6587    2.6451    0.0000 C   0  0  0  0  0  0  0  0  0
    0.6587    3.4701    0.0000 O   0  0  0  0  0  0  0  0  0
   -0.0558    2.2326    0.0000 C   0  0  0  0  0  0  0  0  0
   -0.7703    2.6451    0.0000 O   0  0  0  0  0  0  0  0  0
   -0.0558    1.4076    0.0000 C   0  0  0  0  0  0  0  0  0
   -0.7703    0.9951    0.0000 O   0  0  0  0  0  0  0  0  0
    0.6587    0.9951    0.0000 C   0  0  0  0  0  0  0  0  0
    0.6587    0.1701    0.0000 O   0  0  0  0  0  0  0  0  0
    1.3731   -0.2424    0.0000 C   0  0  0  0  0  0  0  0  0
    1.3731   -1.0674    0.0000 C   0  0  0  0  0  0  0  0  0
    2.0876   -1.4799    0.0000 O   0  0  0  0  0  0  0  0  0
    2.8021   -1.0674    0.0000 C   0  0  0  0  0  0  0  0  0
    2.8021   -0.2424    0.0000 C   0  0  0  0  0  0  0  0  0
    2.0876    0.1701    0.0000 C   0  0  0  0  0  0  0  0  0
    2.0876    0.9951    0.0000 O   0  0  0  0  0  0  0  0  0
    3.5166    0.1701    0.0000 C   0  0  0  0  0  0  0  0  0
    3.5166    0.9951    0.0000 O   0  0  0  0  0  0  0  0  0
    4.2310   -0.2424    0.0000 C   0  0  0  0  0  0  0  0  0
    4.2310   -1.0674    0.0000 C   0  0  0  0  0  0  0  0  0
    4.9455   -1.4799    0.0000 O   0  0  0  0  0  0  0  0  0
    3.5166   -1.4799    0.0000 C   0  0  0  0  0  0  0  0  0
    0.6587   -1.4799    0.0000 C   0  0  0  0  0  0  0  0  0
    0.6587   -2.3049    0.0000 C   0  0  0  0  0  0  0  0  0
   -0.0558   -2.7174    0.0000 C   0  0  0  0  0  0  0  0  0
   -0.0558   -3.5424    0.0000 O   0  0  0  0  0  0  0  0  0
   -0.7703   -2.3049    0.0000 C   0  0  0  0  0  0  0  0  0
   -1.4847   -2.7174    0.0000 O   0  0  0  0  0  0  0  0  0
   -0.7703   -1.4799    0.0000 C   0  0  0  0  0  0  0  0  0
   -0.0558   -1.0674    0.0000 C   0  0  0  0  0  0  0  0  0
  1  2  1  0  0  0  0
  1 11  1  0  0  0  0
  2  3  1  0  0  0  0
  2  5  1  0  0  0  0
  3  4  1  0  0  0  0
  5  6  1  0  0  0  0
  5  7  1  0  0  0  0
  7  8  1  0  0  0  0
  7  9  1  0  0  0  0
  9 10  1  0  0  0  0
  9 11  1  0  0  0  0
 11 12  1  0  0  0  0
 12 13  1  0  0  0  0
 13 14  2  0  0  0  0
 13 18  1  0  0  0  0
 14 15  1  0  0  0  0
 14 26  1  0  0  0  0
 15 16  1  0  0  0  0
 16 17  1  0  0  0  0
 16 25  2  0  0  0  0
 17 18  2  0  0  0  0
 17 20  1  0  0  0  0
 18 19  1  0  0  0  0
 20 21  1  0  0  0  0
 20 22  2  0  0  0  0
 22 23  1  0  0  0  0
 23 24  2  0  0  0  0
 23 25  1  0  0  0  0
 26 27  4  0  0  0  0
 26 33  4  0  0  0  0
 27 28  4  0  0  0  0
 28 29  1  0  0  0  0
 28 30  4  0  0  0  0
 30 31  1  0  0  0  0
 30 32  4  0  0  0  0
 32 33  4  0  0  0  0
M  END
>  <Name_Molregno>
Hyperoside

>  <5-HT1A>
5

>  <5-HT1D>
5

>  <5-HT3>
5

>  <5-HT5>
5

>  <5-HT6>
5

>  <5-HT7>
5

>  <Alpha-1A>
5

>  <Alpha-1B>
5

>  <Alpha-2A>
5.38

>  <Alpha-2B>
5

>  <Alpha-2C>
5.13

>  <DOPAMINE D1>
5

>  <DOPAMINE D5>
5

>  <Muscarinic acetylcholine receptor M1>
5

>  <Muscarinic acetylcholine receptor M2>
5

>  <Muscarinic acetylcholine receptor M3>
5

>  <Muscarinic acetylcholine receptor M4>
5

>  <Muscarinic acetylcholine receptor M5>
5

>  <Norepinephrine transporter>
5

>  <Serotonin transporter>
5

$$$$
ibuprofen
  Marvin  02231216192D 0   1.00000     0.00000     0

 15 15  0  0  1  0  0  0  0  0999 V2000
    3.0591   -3.4943    0.0000 O   0  0  0  0  0  0  0  0  0
    3.0591   -2.6693    0.0000 C   0  0  0  0  0  0  0  0  0
    3.7735   -2.2568    0.0000 O   0  0  0  0  0  0  0  0  0
    2.3446   -2.2568    0.0000 C   0  0  0  0  0  0  0  0  0
    1.6301   -2.6693    0.0000 C   0  0  0  0  0  0  0  0  0
    2.3446   -1.4318    0.0000 C   0  0  0  0  0  0  0  0  0
    1.6301   -1.0193    0.0000 C   0  0  0  0  0  0  0  0  0
    1.6301   -0.1943    0.0000 C   0  0  0  0  0  0  0  0  0
    2.3446    0.2182    0.0000 C   0  0  0  0  0  0  0  0  0
    3.0591   -0.1943    0.0000 C   0  0  0  0  0  0  0  0  0
    3.0591   -1.0193    0.0000 C   0  0  0  0  0  0  0  0  0
    2.3446    1.0432    0.0000 C   0  0  0  0  0  0  0  0  0
    3.0591    1.4557    0.0000 C   0  0  0  0  0  0  0  0  0
    3.0591    2.2807    0.0000 C   0  0  0  0  0  0  0  0  0
    3.7735    1.0432    0.0000 C   0  0  0  0  0  0  0  0  0
  1  2  1  0  0  0  0
  2  3  2  0  0  0  0
  2  4  1  0  0  0  0
  4  5  1  0  0  0  0
  4  6  1  0  0  0  0
  6  7  4  0  0  0  0
  6 11  4  0  0  0  0
  7  8  4  0  0  0  0
  8  9  4  0  0  0  0
  9 10  4  0  0  0  0
  9 12  1  0  0  0  0
 10 11  4  0  0  0  0
 12 13  1  0  0  0  0
 13 14  1  0  0  0  0
 13 15  1  0  0  0  0
M  END
>  <Name_Molregno>
ibuprofen

>  <5-HT1A>
5

>  <5-HT1B>
5

>  <5-HT1D>
5

>  <5-HT1E>
5

>  <5-HT2A>
5

>  <5-HT3>
5

>  <5-HT6>
5

>  <5-HT7>
5

>  <Alpha-1A>
5

>  <Alpha-1B>
5

>  <Alpha-2A>
5

>  <Alpha-2B>
5

>  <Alpha-2C>
5

>  <DOPAMINE D1>
5

>  <DOPAMINE D2>
5

>  <DOPAMINE D4>
5

>  <DOPAMINE D5>
5

>  <Dopamine transporter>
5

>  <HISTAMINE H1>
5

>  <HISTAMINE H2>
5

>  <Muscarinic acetylcholine receptor M2>
5

>  <Muscarinic acetylcholine receptor M5>
5

>  <Norepinephrine transporter>
5

>  <Serotonin transporter>
5

$$$$
Ketorolac
  Marvin  02231216192D 0   1.00000     0.00000     0

 19 21  0  0  1  0  0  0  0  0999 V2000
    1.4450    2.2138    0.0000 O   0  0  0  0  0  0  0  0  0
    2.2520    2.0422    0.0000 C   0  0  0  0  0  0  0  0  0
    2.8040    2.6553    0.0000 O   0  0  0  0  0  0  0  0  0
    2.5069    1.2576    0.0000 C   0  0  0  0  0  0  0  0  0
    2.0220    0.5902    0.0000 C   0  0  0  0  0  0  0  0  0
    2.5069   -0.0773    0.0000 C   0  0  0  0  0  0  0  0  0
    3.2915    0.1777    0.0000 N   0  0  0  0  0  0  0  0  0
    3.2915    1.0027    0.0000 C   0  0  0  0  0  0  0  0  0
    4.0761    1.2576    0.0000 C   0  0  0  0  0  0  0  0  0
    4.5611    0.5902    0.0000 C   0  0  0  0  0  0  0  0  0
    4.0761   -0.0773    0.0000 C   0  0  0  0  0  0  0  0  0
    4.3311   -0.8619    0.0000 C   0  0  0  0  0  0  0  0  0
    5.1381   -1.0334    0.0000 O   0  0  0  0  0  0  0  0  0
    3.7791   -1.4750    0.0000 C   0  0  0  0  0  0  0  0  0
    4.0340   -2.2596    0.0000 C   0  0  0  0  0  0  0  0  0
    3.4820   -2.8727    0.0000 C   0  0  0  0  0  0  0  0  0
    2.6750   -2.7012    0.0000 C   0  0  0  0  0  0  0  0  0
    2.4201   -1.9166    0.0000 C   0  0  0  0  0  0  0  0  0
    2.9721   -1.3035    0.0000 C   0  0  0  0  0  0  0  0  0
  1  2  1  0  0  0  0
  2  3  2  0  0  0  0
  2  4  1  0  0  0  0
  4  5  1  0  0  0  0
  4  8  1  0  0  0  0
  5  6  1  0  0  0  0
  6  7  1  0  0  0  0
  7  8  4  0  0  0  0
  7 11  4  0  0  0  0
  8  9  4  0  0  0  0
  9 10  4  0  0  0  0
 10 11  4  0  0  0  0
 11 12  1  0  0  0  0
 12 13  2  0  0  0  0
 12 14  1  0  0  0  0
 14 15  4  0  0  0  0
 14 19  4  0  0  0  0
 15 16  4  0  0  0  0
 16 17  4  0  0  0  0
 17 18  4  0  0  0  0
 18 19  4  0  0  0  0
M  END
>  <Name_Molregno>
Ketorolac

>  <5-HT1A>
5

>  <5-HT1B>
5

>  <5-HT1D>
5

>  <5-HT1E>
5

>  <5-HT2A>
5

>  <5-HT3>
5

>  <5-HT5>
5

>  <5-HT6>
5

>  <5-HT7>
5

>  <Alpha-1A>
5

>  <Alpha-1B>
5

>  <Alpha-2A>
5

>  <Alpha-2B>
5

>  <Alpha-2C>
5

>  <DOPAMINE D1>
5

>  <DOPAMINE D2>
5

>  <DOPAMINE D4>
5

>  <DOPAMINE D5>
5

>  <Dopamine transporter>
5

>  <HISTAMINE H1>
5

>  <HISTAMINE H2>
5

>  <Muscarinic acetylcholine receptor M2>
5

>  <Muscarinic acetylcholine receptor M5>
5

>  <Norepinephrine transporter>
5

>  <Serotonin transporter>
5

$$$$
L-cysteic-acid
  Marvin  02231216192D 0   1.00000     0.00000     0

 10  9  0  0  1  0  0  0  0  0999 V2000
   -1.9749    0.1579    0.0000 S   0  0  0  0  0  0  0  0  0
   -2.6894    0.5704    0.0000 O   0  0  0  0  0  0  0  0  0
   -2.3874   -0.5565    0.0000 O   0  0  0  0  0  0  0  0  0
   -1.5624    0.8724    0.0000 O   0  0  0  0  0  0  0  0  0
   -1.2605   -0.2546    0.0000 C   0  0  0  0  0  0  0  0  0
   -0.5460    0.1579    0.0000 C   0  0  0  0  0  0  0  0  0
   -0.5460    0.9829    0.0000 N   0  0  0  0  0  0  0  0  0
    0.1685   -0.2546    0.0000 C   0  0  0  0  0  0  0  0  0
    0.8829    0.1579    0.0000 O   0  0  0  0  0  0  0  0  0
    0.1685   -1.0796    0.0000 O   0  0  0  0  0  0  0  0  0
  1  2  2  0  0  0  0
  1  3  2  0  0  0  0
  1  4  1  0  0  0  0
  1  5  1  0  0  0  0
  5  6  1  0  0  0  0
  6  7  1  0  0  0  0
  6  8  1  0  0  0  0
  8  9  1  0  0  0  0
  8 10  2  0  0  0  0
M  END
>  <Name_Molregno>
L-cysteic-acid

>  <5-HT1A>
5

>  <5-HT1B>
5

>  <5-HT1D>
5

>  <5-HT3>
5

>  <5-HT5>
5

>  <5-HT6>
5

>  <5-HT7>
5

>  <Alpha-1A>
5

>  <Alpha-1B>
5

>  <Alpha-2A>
5

>  <Alpha-2C>
5

>  <DOPAMINE D1>
5

>  <DOPAMINE D2>
5

>  <DOPAMINE D3>
5

>  <DOPAMINE D5>
5

>  <Dopamine transporter>
5

>  <HISTAMINE H1>
5

>  <HISTAMINE H2>
5

>  <HISTAMINE H4>
5

>  <Muscarinic acetylcholine receptor M1>
5

>  <Muscarinic acetylcholine receptor M2>
5

>  <Muscarinic acetylcholine receptor M3>
5

>  <Muscarinic acetylcholine receptor M4>
5

>  <Muscarinic acetylcholine receptor M5>
5

>  <Norepinephrine transporter>
5

>  <Serotonin transporter>
5

$$$$
L-cysteine
  Marvin  02231216192D 0   1.00000     0.00000     0

  7  6  0  0  1  0  0  0  0  0999 V2000
    1.5580    2.1190    0.0000 S   0  0  0  0  0  0  0  0  0
    1.1455    1.4045    0.0000 C   0  0  0  0  0  0  0  0  0
    1.5580    0.6901    0.0000 C   0  0  0  0  0  0  0  0  0
    2.3830    0.6901    0.0000 N   0  0  0  0  0  0  0  0  0
    1.1455   -0.0244    0.0000 C   0  0  0  0  0  0  0  0  0
    1.5580   -0.7389    0.0000 O   0  0  0  0  0  0  0  0  0
    0.3205   -0.0244    0.0000 O   0  0  0  0  0  0  0  0  0
  1  2  1  0  0  0  0
  2  3  1  0  0  0  0
  3  4  1  0  0  0  0
  3  5  1  0  0  0  0
  5  6  1  0  0  0  0
  5  7  2  0  0  0  0
M  END
>  <Name_Molregno>
L-cysteine

>  <5-HT1A>
5

>  <5-HT1B>
5

>  <5-HT1D>
5

>  <5-HT3>
5

>  <5-HT5>
5

>  <5-HT6>
5

>  <5-HT7>
5

>  <Alpha-1A>
5

>  <Alpha-1B>
5

>  <Alpha-2A>
5

>  <Alpha-2B>
5

>  <Alpha-2C>
5

>  <DOPAMINE D1>
5

>  <DOPAMINE D2>
5

>  <DOPAMINE D3>
5

>  <DOPAMINE D5>
5

>  <Dopamine transporter>
5

>  <HISTAMINE H1>
5

>  <HISTAMINE H2>
5

>  <HISTAMINE H4>
5

>  <Muscarinic acetylcholine receptor M1>
5

>  <Muscarinic acetylcholine receptor M2>
5

>  <Muscarinic acetylcholine receptor M3>
5

>  <Muscarinic acetylcholine receptor M4>
5

>  <Muscarinic acetylcholine receptor M5>
5

>  <Norepinephrine transporter>
5

>  <Serotonin transporter>
5

$$$$
L-cysteine-sulfinic-acid
  Marvin  02231216192D 0   1.00000     0.00000     0

  9  8  0  0  1  0  0  0  0  0999 V2000
   -2.0945    0.5537    0.0000 S   0  0  0  0  0  0  0  0  0
   -2.8090    0.1412    0.0000 O   0  0  0  0  0  0  0  0  0
   -2.0945    1.3787    0.0000 O   0  0  0  0  0  0  0  0  0
   -1.3800    0.1412    0.0000 C   0  0  0  0  0  0  0  0  0
   -0.6656    0.5537    0.0000 C   0  0  0  0  0  0  0  0  0
   -0.6656    1.3787    0.0000 N   0  0  0  0  0  0  0  0  0
    0.0489    0.1412    0.0000 C   0  0  0  0  0  0  0  0  0
    0.7634    0.5537    0.0000 O   0  0  0  0  0  0  0  0  0
    0.0489   -0.6838    0.0000 O   0  0  0  0  0  0  0  0  0
  1  2  2  0  0  0  0
  1  3  1  0  0  0  0
  1  4  1  0  0  0  0
  4  5  1  0  0  0  0
  5  6  1  0  0  0  0
  5  7  1  0  0  0  0
  7  8  1  0  0  0  0
  7  9  2  0  0  0  0
M  END
>  <Name_Molregno>
L-cysteine-sulfinic-acid

>  <5-HT1A>
5

>  <5-HT1B>
5

>  <5-HT1D>
5

>  <5-HT3>
5

>  <5-HT5>
5

>  <5-HT6>
5

>  <5-HT7>
5

>  <Alpha-1A>
5

>  <Alpha-1B>
5

>  <Alpha-2A>
5

>  <Alpha-2B>
5

>  <Alpha-2C>
5

>  <DOPAMINE D1>
5

>  <DOPAMINE D2>
5

>  <DOPAMINE D3>
5

>  <DOPAMINE D5>
5

>  <Dopamine transporter>
5

>  <HISTAMINE H1>
5

>  <HISTAMINE H2>
5

>  <HISTAMINE H4>
5

>  <Muscarinic acetylcholine receptor M1>
5

>  <Muscarinic acetylcholine receptor M2>
5

>  <Muscarinic acetylcholine receptor M3>
5

>  <Muscarinic acetylcholine receptor M4>
5

>  <Muscarinic acetylcholine receptor M5>
5

>  <Norepinephrine transporter>
5

>  <Serotonin transporter>
5

$$$$
L-homocysteine-thiolactone
  Marvin  02231216192D 0   1.00000     0.00000     0

  7  7  0  0  1  0  0  0  0  0999 V2000
    1.4299   -0.7189    0.0000 S   0  0  0  0  0  0  0  0  0
    1.1749   -1.5035    0.0000 C   0  0  0  0  0  0  0  0  0
    0.3499   -1.5035    0.0000 C   0  0  0  0  0  0  0  0  0
    0.0950   -0.7189    0.0000 C   0  0  0  0  0  0  0  0  0
   -0.6896   -0.4639    0.0000 N   0  0  0  0  0  0  0  0  0
    0.7624   -0.2339    0.0000 C   0  0  0  0  0  0  0  0  0
    0.7624    0.5911    0.0000 O   0  0  0  0  0  0  0  0  0
  1  2  1  0  0  0  0
  1  6  1  0  0  0  0
  2  3  1  0  0  0  0
  3  4  1  0  0  0  0
  4  5  1  0  0  0  0
  4  6  1  0  0  0  0
  6  7  2  0  0  0  0
M  END
>  <Name_Molregno>
L-homocysteine-thiolactone

>  <5-HT1A>
5

>  <5-HT3>
5

>  <5-HT5>
5

>  <5-HT6>
5

>  <5-HT7>
5

>  <Alpha-1A>
5

>  <Alpha-1B>
5

>  <Alpha-2A>
5

>  <Alpha-2B>
5

>  <Alpha-2C>
5

>  <DOPAMINE D1>
5

>  <DOPAMINE D2>
5

>  <DOPAMINE D5>
5

>  <Dopamine transporter>
5

>  <HISTAMINE H1>
5

>  <HISTAMINE H2>
5

>  <HISTAMINE H4>
5

>  <Muscarinic acetylcholine receptor M1>
5

>  <Muscarinic acetylcholine receptor M2>
5

>  <Muscarinic acetylcholine receptor M3>
5

>  <Muscarinic acetylcholine receptor M4>
5

>  <Muscarinic acetylcholine receptor M5>
5

>  <Norepinephrine transporter>
5

>  <Serotonin transporter>
5

$$$$
LOXAPINE
  Marvin  02231216192D 0   1.00000     0.00000     0

 23 26  0  0  0  0  0  0  0  0999 V2000
    3.9671    1.6854    0.0000 Cl  0  0  0  0  0  0  0  0  0
    3.1788    1.4422    0.0000 C   0  0  0  0  0  0  0  0  0
    2.5740    2.0033    0.0000 C   0  0  0  0  0  0  0  0  0
    1.7856    1.7602    0.0000 C   0  0  0  0  0  0  0  0  0
    1.6021    0.9558    0.0000 C   0  0  0  0  0  0  0  0  0
    0.8588    0.5979    0.0000 O   0  0  0  0  0  0  0  0  0
    0.1155    0.9558    0.0000 C   0  0  0  0  0  0  0  0  0
   -0.0681    1.7602    0.0000 C   0  0  0  0  0  0  0  0  0
    0.4463    2.4052    0.0000 N   0  0  0  0  0  0  0  0  0
    1.2713    2.4052    0.0000 C   0  0  0  0  0  0  0  0  0
    1.6292    3.1485    0.0000 N   0  0  0  0  0  0  0  0  0
    1.1645    3.8301    0.0000 C   0  0  0  0  0  0  0  0  0
    1.5224    4.5734    0.0000 C   0  0  0  0  0  0  0  0  0
    2.3451    4.6351    0.0000 N   0  0  0  0  0  0  0  0  0
    2.8099    3.9534    0.0000 C   0  0  0  0  0  0  0  0  0
    2.4519    3.2101    0.0000 C   0  0  0  0  0  0  0  0  0
    2.7031    5.3784    0.0000 C   0  0  0  0  0  0  0  0  0
   -0.8565    2.0033    0.0000 C   0  0  0  0  0  0  0  0  0
   -1.4612    1.4422    0.0000 C   0  0  0  0  0  0  0  0  0
   -1.2776    0.6379    0.0000 C   0  0  0  0  0  0  0  0  0
   -0.4893    0.3947    0.0000 C   0  0  0  0  0  0  0  0  0
    2.2068    0.3947    0.0000 C   0  0  0  0  0  0  0  0  0
    2.9952    0.6379    0.0000 C   0  0  0  0  0  0  0  0  0
  1  2  1  0  0  0  0
  2  3  4  0  0  0  0
  2 23  4  0  0  0  0
  3  4  4  0  0  0  0
  4  5  4  0  0  0  0
  4 10  1  0  0  0  0
  5  6  1  0  0  0  0
  5 22  4  0  0  0  0
  6  7  1  0  0  0  0
  7  8  4  0  0  0  0
  7 21  4  0  0  0  0
  8  9  1  0  0  0  0
  8 18  4  0  0  0  0
  9 10  2  0  0  0  0
 10 11  1  0  0  0  0
 11 12  1  0  0  0  0
 11 16  1  0  0  0  0
 12 13  1  0  0  0  0
 13 14  1  0  0  0  0
 14 15  1  0  0  0  0
 14 17  1  0  0  0  0
 15 16  1  0  0  0  0
 18 19  4  0  0  0  0
 19 20  4  0  0  0  0
 20 21  4  0  0  0  0
 22 23  4  0  0  0  0
M  END
>  <Name_Molregno>
LOXAPINE

>  <5-HT1A>
5.59

>  <5-HT1B>
6.41

>  <5-HT1D>
5.46

>  <5-HT1E>
5.85

>  <5-HT2A>
8.43

>  <5-HT2C>
7.9

>  <5-HT3>
6.72

>  <5-HT5>
6.11

>  <5-HT6>
7.46

>  <5-HT7>
7.06

>  <Alpha-1A>
7.51

>  <Alpha-1B>
7.28

>  <Alpha-2A>
6.82

>  <Alpha-2B>
6.97

>  <Alpha-2C>
7.1

>  <Beta-1>
5

>  <Beta-2>
5

>  <DOPAMINE D1>
7.27

>  <DOPAMINE D2>
7.74

>  <DOPAMINE D3>
7.64

>  <DOPAMINE D4>
8.04

>  <DOPAMINE D5>
7.12

>  <Dopamine transporter>
5

>  <HISTAMINE H1>
8.33

>  <HISTAMINE H2>
6.68

>  <HISTAMINE H4>
5.32

>  <Muscarinic acetylcholine receptor M1>
6.98

>  <Muscarinic acetylcholine receptor M2>
6.38

>  <Muscarinic acetylcholine receptor M3>
6.74

>  <Muscarinic acetylcholine receptor M4>
6.09

>  <Muscarinic acetylcholine receptor M5>
6.83

>  <Norepinephrine transporter>
5.24

>  <Serotonin transporter>
5

$$$$
Meloxicam
  Marvin  02231216192D 0   1.00000     0.00000     0

 23 25  0  0  0  0  0  0  0  0999 V2000
    1.0530    2.3261    0.0000 S   0  0  0  0  0  0  0  0  0
    0.2461    2.4976    0.0000 C   0  0  0  0  0  0  0  0  0
   -0.1664    1.7831    0.0000 C   0  0  0  0  0  0  0  0  0
    0.3856    1.1700    0.0000 N   0  0  0  0  0  0  0  0  0
    1.1393    1.5056    0.0000 C   0  0  0  0  0  0  0  0  0
    1.8537    1.0931    0.0000 N   0  0  0  0  0  0  0  0  0
    1.8537    0.2681    0.0000 C   0  0  0  0  0  0  0  0  0
    1.1393   -0.1444    0.0000 O   0  0  0  0  0  0  0  0  0
    2.5682   -0.1444    0.0000 C   0  0  0  0  0  0  0  0  0
    2.5682   -0.9694    0.0000 N   0  0  0  0  0  0  0  0  0
    3.2827   -1.3819    0.0000 S   0  0  0  0  0  0  0  0  0
    2.7524   -2.0139    0.0000 O   0  0  0  0  0  0  0  0  0
    3.8130   -2.0139    0.0000 O   0  0  0  0  0  0  0  0  0
    3.9972   -0.9694    0.0000 C   0  0  0  0  0  0  0  0  0
    3.9972   -0.1444    0.0000 C   0  0  0  0  0  0  0  0  0
    4.7116    0.2681    0.0000 C   0  0  0  0  0  0  0  0  0
    5.4261   -0.1444    0.0000 C   0  0  0  0  0  0  0  0  0
    5.4261   -0.9694    0.0000 C   0  0  0  0  0  0  0  0  0
    4.7116   -1.3819    0.0000 C   0  0  0  0  0  0  0  0  0
    3.2827    0.2681    0.0000 C   0  0  0  0  0  0  0  0  0
    3.2827    1.0931    0.0000 O   0  0  0  0  0  0  0  0  0
    1.8537   -1.3819    0.0000 C   0  0  0  0  0  0  0  0  0
   -0.0895    3.2513    0.0000 C   0  0  0  0  0  0  0  0  0
  1  2  4  0  0  0  0
  1  5  4  0  0  0  0
  2  3  4  0  0  0  0
  2 23  1  0  0  0  0
  3  4  4  0  0  0  0
  4  5  4  0  0  0  0
  5  6  1  0  0  0  0
  6  7  1  0  0  0  0
  7  8  1  0  0  0  0
  7  9  2  0  0  0  0
  9 10  1  0  0  0  0
  9 20  1  0  0  0  0
 10 11  1  0  0  0  0
 10 22  1  0  0  0  0
 11 12  2  0  0  0  0
 11 13  2  0  0  0  0
 11 14  1  0  0  0  0
 14 15  4  0  0  0  0
 14 19  4  0  0  0  0
 15 16  4  0  0  0  0
 15 20  1  0  0  0  0
 16 17  4  0  0  0  0
 17 18  4  0  0  0  0
 18 19  4  0  0  0  0
 20 21  2  0  0  0  0
M  END
>  <Name_Molregno>
Meloxicam

>  <5-HT1A>
5

>  <5-HT1B>
5

>  <5-HT1D>
5

>  <5-HT1E>
5

>  <5-HT2A>
5

>  <5-HT3>
5

>  <5-HT5>
5

>  <5-HT6>
5

>  <5-HT7>
5

>  <Alpha-1A>
5

>  <Alpha-1B>
5

>  <Alpha-2A>
5

>  <Alpha-2B>
5

>  <Alpha-2C>
5

>  <DOPAMINE D1>
5

>  <DOPAMINE D2>
5

>  <DOPAMINE D4>
5

>  <DOPAMINE D5>
5

>  <Dopamine transporter>
5

>  <HISTAMINE H1>
5

>  <HISTAMINE H2>
5

>  <HISTAMINE H4>
5

>  <Muscarinic acetylcholine receptor M2>
5

>  <Muscarinic acetylcholine receptor M5>
5

>  <Norepinephrine transporter>
5

>  <Serotonin transporter>
5

$$$$
Methcathinone
  Marvin  02231216192D 0   1.00000     0.00000     0

 12 12  0  0  1  0  0  0  0  0999 V2000
    1.9192   -0.0549    0.0000 O   0  0  0  0  0  0  0  0  0
    1.2047   -0.4674    0.0000 C   0  0  0  0  0  0  0  0  0
    0.4903   -0.0549    0.0000 C   0  0  0  0  0  0  0  0  0
    0.4903    0.7701    0.0000 N   0  0  0  0  0  0  0  0  0
   -0.2242    1.1826    0.0000 C   0  0  0  0  0  0  0  0  0
   -0.2242   -0.4674    0.0000 C   0  0  0  0  0  0  0  0  0
    1.2047   -1.2924    0.0000 C   0  0  0  0  0  0  0  0  0
    1.9192   -1.7049    0.0000 C   0  0  0  0  0  0  0  0  0
    1.9192   -2.5299    0.0000 C   0  0  0  0  0  0  0  0  0
    1.2047   -2.9424    0.0000 C   0  0  0  0  0  0  0  0  0
    0.4903   -2.5299    0.0000 C   0  0  0  0  0  0  0  0  0
    0.4903   -1.7049    0.0000 C   0  0  0  0  0  0  0  0  0
  1  2  2  0  0  0  0
  2  3  1  0  0  0  0
  2  7  1  0  0  0  0
  3  4  1  0  0  0  0
  3  6  1  0  0  0  0
  4  5  1  0  0  0  0
  7  8  4  0  0  0  0
  7 12  4  0  0  0  0
  8  9  4  0  0  0  0
  9 10  4  0  0  0  0
 10 11  4  0  0  0  0
 11 12  4  0  0  0  0
M  END
>  <Name_Molregno>
Methcathinone

>  <5-HT1A>
5

>  <5-HT1B>
5

>  <5-HT1D>
5

>  <5-HT1E>
5

>  <5-HT3>
5

>  <5-HT5>
5

>  <5-HT6>
5

>  <5-HT7>
6

>  <Alpha-1A>
5

>  <Alpha-1B>
5

>  <Alpha-2A>
5.04

>  <Alpha-2B>
5.81

>  <Alpha-2C>
6.22

>  <Beta-1>
5

>  <Beta-2>
5

>  <DOPAMINE D1>
5

>  <DOPAMINE D2>
5

>  <DOPAMINE D4>
5

>  <DOPAMINE D5>
5

>  <Dopamine transporter>
6.41

>  <HISTAMINE H1>
5

>  <HISTAMINE H2>
5

>  <HISTAMINE H4>
5

>  <Muscarinic acetylcholine receptor M1>
5

>  <Muscarinic acetylcholine receptor M2>
5

>  <Muscarinic acetylcholine receptor M3>
5

>  <Muscarinic acetylcholine receptor M4>
5

>  <Muscarinic acetylcholine receptor M5>
5

>  <Norepinephrine transporter>
6.87

>  <Serotonin transporter>
5.38

$$$$
METHYLPHENIDATE
  Marvin  02231216192D 0   1.00000     0.00000     0

 17 18  0  0  1  0  0  0  0  0999 V2000
   -0.3749   -0.6902    0.0000 O   0  0  0  0  0  0  0  0  0
    0.3395   -0.2777    0.0000 C   0  0  0  0  0  0  0  0  0
    0.3395    0.5473    0.0000 O   0  0  0  0  0  0  0  0  0
    1.0540   -0.6902    0.0000 C   0  0  0  0  0  0  0  0  0
    1.0540   -1.5152    0.0000 C   0  0  0  0  0  0  0  0  0
    1.7685   -1.9277    0.0000 N   0  0  0  0  0  0  0  0  0
    1.7685   -2.7527    0.0000 C   0  0  0  0  0  0  0  0  0
    1.0540   -3.1652    0.0000 C   0  0  0  0  0  0  0  0  0
    0.3395   -2.7527    0.0000 C   0  0  0  0  0  0  0  0  0
    0.3395   -1.9277    0.0000 C   0  0  0  0  0  0  0  0  0
    1.7685   -0.2777    0.0000 C   0  0  0  0  0  0  0  0  0
    1.7685    0.5473    0.0000 C   0  0  0  0  0  0  0  0  0
    2.4829    0.9598    0.0000 C   0  0  0  0  0  0  0  0  0
    3.1974    0.5473    0.0000 C   0  0  0  0  0  0  0  0  0
    3.1974   -0.2777    0.0000 C   0  0  0  0  0  0  0  0  0
    2.4829   -0.6902    0.0000 C   0  0  0  0  0  0  0  0  0
   -0.3749   -1.5152    0.0000 C   0  0  0  0  0  0  0  0  0
  1  2  1  0  0  0  0
  1 17  1  0  0  0  0
  2  3  2  0  0  0  0
  2  4  1  0  0  0  0
  4  5  1  0  0  0  0
  4 11  1  0  0  0  0
  5  6  1  0  0  0  0
  5 10  1  0  0  0  0
  6  7  1  0  0  0  0
  7  8  1  0  0  0  0
  8  9  1  0  0  0  0
  9 10  1  0  0  0  0
 11 12  4  0  0  0  0
 11 16  4  0  0  0  0
 12 13  4  0  0  0  0
 13 14  4  0  0  0  0
 14 15  4  0  0  0  0
 15 16  4  0  0  0  0
M  END
>  <Name_Molregno>
METHYLPHENIDATE

>  <5-HT1A>
5

>  <5-HT1B>
5

>  <5-HT1E>
5

>  <5-HT3>
5

>  <5-HT5>
5

>  <5-HT6>
5

>  <5-HT7>
5

>  <Alpha-1A>
5

>  <Alpha-1B>
5

>  <Alpha-2A>
5.25

>  <Alpha-2B>
5.61

>  <Alpha-2C>
6.07

>  <DOPAMINE D1>
5

>  <DOPAMINE D2>
5

>  <Dopamine transporter>
7.28

>  <Muscarinic acetylcholine receptor M1>
5

>  <Muscarinic acetylcholine receptor M2>
5

>  <Muscarinic acetylcholine receptor M3>
5

>  <Muscarinic acetylcholine receptor M4>
5

>  <Muscarinic acetylcholine receptor M5>
5

>  <Norepinephrine transporter>
6.46

>  <Serotonin transporter>
5

$$$$
METHYSERGIDE
  Marvin  02231216192D 0   1.00000     0.00000     0

 26 29  0  0  1  0  0  0  0  0999 V2000
   -5.6466   -4.8655    0.0000 O   0  0  0  0  0  0  0  0  0
   -5.6457   -4.0405    0.0000 C   0  0  0  0  0  0  0  0  0
   -4.9307   -3.6289    0.0000 C   0  0  0  0  0  0  0  0  0
   -4.9297   -2.8039    0.0000 N   0  0  0  0  0  0  0  0  0
   -4.2147   -2.3922    0.0000 C   0  0  0  0  0  0  0  0  0
   -3.5008   -2.8056    0.0000 O   0  0  0  0  0  0  0  0  0
   -4.2138   -1.5672    0.0000 C   0  0  0  0  0  0  0  0  0
   -3.4988   -1.1556    0.0000 C   0  0  0  0  0  0  0  0  0
   -3.4978   -0.3306    0.0000 C   0  0  0  0  0  0  0  0  0
   -4.2118    0.0828    0.0000 C   0  0  0  0  0  0  0  0  0
   -4.9267   -0.3289    0.0000 N   0  0  0  0  0  0  0  0  0
   -4.9277   -1.1539    0.0000 C   0  0  0  0  0  0  0  0  0
   -5.6407    0.0845    0.0000 C   0  0  0  0  0  0  0  0  0
   -4.2103    0.9069    0.0000 C   0  0  0  0  0  0  0  0  0
   -3.4978    1.3194    0.0000 C   0  0  0  0  0  0  0  0  0
   -2.7853    0.9069    0.0000 C   0  0  0  0  0  0  0  0  0
   -2.7853    0.0819    0.0000 C   0  0  0  0  0  0  0  0  0
   -2.0674   -0.3306    0.0000 C   0  0  0  0  0  0  0  0  0
   -1.3549    0.0819    0.0000 C   0  0  0  0  0  0  0  0  0
   -1.3549    0.9069    0.0000 C   0  0  0  0  0  0  0  0  0
   -2.0674    1.3194    0.0000 C   0  0  0  0  0  0  0  0  0
   -2.3728    2.1766    0.0000 N   0  0  0  0  0  0  0  0  0
   -3.1978    2.1766    0.0000 C   0  0  0  0  0  0  0  0  0
   -1.8973    2.8507    0.0000 C   0  0  0  0  0  0  0  0  0
   -4.2167   -4.0422    0.0000 C   0  0  0  0  0  0  0  0  0
   -4.2177   -4.8672    0.0000 C   0  0  0  0  0  0  0  0  0
  1  2  1  0  0  0  0
  2  3  1  0  0  0  0
  3  4  1  0  0  0  0
  3 25  1  0  0  0  0
  4  5  1  0  0  0  0
  5  6  2  0  0  0  0
  5  7  1  0  0  0  0
  7  8  1  0  0  0  0
  7 12  1  0  0  0  0
  8  9  2  0  0  0  0
  9 10  1  0  0  0  0
  9 17  1  0  0  0  0
 10 11  1  0  0  0  0
 10 14  1  0  0  0  0
 11 12  1  0  0  0  0
 11 13  1  0  0  0  0
 14 15  1  0  0  0  0
 15 16  4  0  0  0  0
 15 23  4  0  0  0  0
 16 17  4  0  0  0  0
 16 21  4  0  0  0  0
 17 18  4  0  0  0  0
 18 19  4  0  0  0  0
 19 20  4  0  0  0  0
 20 21  4  0  0  0  0
 21 22  4  0  0  0  0
 22 23  4  0  0  0  0
 22 24  1  0  0  0  0
 25 26  1  0  0  0  0
M  END
>  <Name_Molregno>
METHYSERGIDE

>  <5-HT1A>
7.81

>  <5-HT1B>
7.91

>  <5-HT1D>
7.56

>  <5-HT1E>
6.71

>  <5-HT2A>
8.05

>  <5-HT2C>
8.69

>  <5-HT3>
5

>  <5-HT5>
5

>  <5-HT6>
6.82

>  <5-HT7>
7.32

>  <Alpha-1A>
5

>  <Alpha-1B>
5

>  <Alpha-2A>
6.77

>  <Alpha-2B>
6.97

>  <Alpha-2C>
7.05

>  <Beta-1>
5

>  <Beta-2>
5

>  <DOPAMINE D1>
5

>  <DOPAMINE D2>
5

>  <DOPAMINE D4>
5

>  <DOPAMINE D5>
5

>  <Dopamine transporter>
5

>  <HISTAMINE H1>
5.26

>  <HISTAMINE H2>
5

>  <Muscarinic acetylcholine receptor M1>
5.26

>  <Muscarinic acetylcholine receptor M2>
5.21

>  <Muscarinic acetylcholine receptor M3>
5.33

>  <Muscarinic acetylcholine receptor M4>
5

>  <Muscarinic acetylcholine receptor M5>
5

>  <Norepinephrine transporter>
5

>  <Serotonin transporter>
5

$$$$
MOXONIDINE
  Marvin  02231216192D 0   1.00000     0.00000     0

 16 17  0  0  0  0  0  0  0  0999 V2000
   -0.4312    2.7407    0.0000 Cl  0  0  0  0  0  0  0  0  0
    0.2832    2.3282    0.0000 C   0  0  0  0  0  0  0  0  0
    0.9977    2.7407    0.0000 N   0  0  0  0  0  0  0  0  0
    1.7122    2.3282    0.0000 C   0  0  0  0  0  0  0  0  0
    1.7122    1.5032    0.0000 N   0  0  0  0  0  0  0  0  0
    0.9977    1.0907    0.0000 C   0  0  0  0  0  0  0  0  0
    0.9977    0.2657    0.0000 O   0  0  0  0  0  0  0  0  0
    1.7122   -0.1468    0.0000 C   0  0  0  0  0  0  0  0  0
    0.2832    1.5032    0.0000 C   0  0  0  0  0  0  0  0  0
   -0.4312    1.0907    0.0000 N   0  0  0  0  0  0  0  0  0
   -0.4312    0.2657    0.0000 C   0  0  0  0  0  0  0  0  0
   -1.0987   -0.2192    0.0000 N   0  0  0  0  0  0  0  0  0
   -0.8437   -1.0038    0.0000 C   0  0  0  0  0  0  0  0  0
   -0.0187   -1.0038    0.0000 C   0  0  0  0  0  0  0  0  0
    0.2362   -0.2192    0.0000 N   0  0  0  0  0  0  0  0  0
    2.4267    2.7407    0.0000 C   0  0  0  0  0  0  0  0  0
  1  2  1  0  0  0  0
  2  3  4  0  0  0  0
  2  9  4  0  0  0  0
  3  4  4  0  0  0  0
  4  5  4  0  0  0  0
  4 16  1  0  0  0  0
  5  6  4  0  0  0  0
  6  7  1  0  0  0  0
  6  9  4  0  0  0  0
  7  8  1  0  0  0  0
  9 10  1  0  0  0  0
 10 11  1  0  0  0  0
 11 12  1  0  0  0  0
 11 15  2  0  0  0  0
 12 13  1  0  0  0  0
 13 14  1  0  0  0  0
 14 15  1  0  0  0  0
M  END
>  <Name_Molregno>
MOXONIDINE

>  <Alpha-1A>
4.52

>  <Alpha-1B>
4.52

>  <Alpha-2A>
6.82

>  <Alpha-2C>
5.7

$$$$
N-(4-Acetamidophenyl)indomethacinamide
  Marvin  02231216192D 0   1.00000     0.00000     0

 37 40  0  0  0  0  0  0  0  0999 V2000
    0.5106    2.7433    0.0000 Cl  0  0  0  0  0  0  0  0  0
    1.3311    2.6571    0.0000 C   0  0  0  0  0  0  0  0  0
    1.8160    3.3245    0.0000 C   0  0  0  0  0  0  0  0  0
    2.6365    3.2383    0.0000 C   0  0  0  0  0  0  0  0  0
    2.9720    2.4846    0.0000 C   0  0  0  0  0  0  0  0  0
    2.4871    1.8172    0.0000 C   0  0  0  0  0  0  0  0  0
    1.6666    1.9034    0.0000 C   0  0  0  0  0  0  0  0  0
    3.7925    2.3984    0.0000 C   0  0  0  0  0  0  0  0  0
    4.2774    3.0658    0.0000 O   0  0  0  0  0  0  0  0  0
    4.1281    1.6447    0.0000 N   0  0  0  0  0  0  0  0  0
    3.7156    0.9302    0.0000 C   0  0  0  0  0  0  0  0  0
    4.2676    0.3171    0.0000 C   0  0  0  0  0  0  0  0  0
    4.0127   -0.4675    0.0000 C   0  0  0  0  0  0  0  0  0
    3.2057   -0.6390    0.0000 C   0  0  0  0  0  0  0  0  0
    2.9508   -1.4236    0.0000 O   0  0  0  0  0  0  0  0  0
    2.1438   -1.5952    0.0000 C   0  0  0  0  0  0  0  0  0
    2.6537   -0.0259    0.0000 C   0  0  0  0  0  0  0  0  0
    2.9086    0.7587    0.0000 C   0  0  0  0  0  0  0  0  0
    5.0213    0.6527    0.0000 C   0  0  0  0  0  0  0  0  0
    5.7358    0.2402    0.0000 C   0  0  0  0  0  0  0  0  0
    5.7358   -0.5848    0.0000 C   0  0  0  0  0  0  0  0  0
    5.0213   -0.9973    0.0000 O   0  0  0  0  0  0  0  0  0
    6.4502   -0.9973    0.0000 N   0  0  0  0  0  0  0  0  0
    7.1647   -0.5848    0.0000 C   0  0  0  0  0  0  0  0  0
    7.1647    0.2402    0.0000 C   0  0  0  0  0  0  0  0  0
    7.8792    0.6527    0.0000 C   0  0  0  0  0  0  0  0  0
    7.8792    1.4777    0.0000 C   0  0  0  0  0  0  0  0  0
    8.5936    1.8902    0.0000 C   0  0  0  0  0  0  0  0  0
    9.3081    1.4777    0.0000 C   0  0  0  0  0  0  0  0  0
   10.0226    1.8902    0.0000 N   0  0  0  0  0  0  0  0  0
   10.7371    1.4777    0.0000 C   0  0  0  0  0  0  0  0  0
   11.4515    1.8902    0.0000 O   0  0  0  0  0  0  0  0  0
   10.7371    0.6527    0.0000 C   0  0  0  0  0  0  0  0  0
    9.3081    0.6527    0.0000 C   0  0  0  0  0  0  0  0  0
    8.5936    0.2402    0.0000 C   0  0  0  0  0  0  0  0  0
    4.9351    1.4732    0.0000 C   0  0  0  0  0  0  0  0  0
    5.5481    2.0252    0.0000 C   0  0  0  0  0  0  0  0  0
  1  2  1  0  0  0  0
  2  3  4  0  0  0  0
  2  7  4  0  0  0  0
  3  4  4  0  0  0  0
  4  5  4  0  0  0  0
  5  6  4  0  0  0  0
  5  8  1  0  0  0  0
  6  7  4  0  0  0  0
  8  9  2  0  0  0  0
  8 10  1  0  0  0  0
 10 11  4  0  0  0  0
 10 36  4  0  0  0  0
 11 12  4  0  0  0  0
 11 18  4  0  0  0  0
 12 13  4  0  0  0  0
 12 19  4  0  0  0  0
 13 14  4  0  0  0  0
 14 15  1  0  0  0  0
 14 17  4  0  0  0  0
 15 16  1  0  0  0  0
 17 18  4  0  0  0  0
 19 20  1  0  0  0  0
 19 36  4  0  0  0  0
 20 21  1  0  0  0  0
 21 22  2  0  0  0  0
 21 23  1  0  0  0  0
 23 24  1  0  0  0  0
 24 25  1  0  0  0  0
 25 26  1  0  0  0  0
 26 27  4  0  0  0  0
 26 35  4  0  0  0  0
 27 28  4  0  0  0  0
 28 29  4  0  0  0  0
 29 30  1  0  0  0  0
 29 34  4  0  0  0  0
 30 31  1  0  0  0  0
 31 32  2  0  0  0  0
 31 33  1  0  0  0  0
 34 35  4  0  0  0  0
 36 37  1  0  0  0  0
M  END
>  <Name_Molregno>
N-(4-Acetamidophenyl)indomethacinamide

>  <5-HT1A>
5

>  <5-HT1B>
5

>  <5-HT1E>
5

>  <5-HT2A>
5

>  <5-HT3>
5

>  <5-HT6>
5

>  <5-HT7>
5

>  <Alpha-1A>
5

>  <Alpha-1B>
5

>  <Alpha-2A>
5

>  <Alpha-2B>
5

>  <Alpha-2C>
5

>  <DOPAMINE D1>
5

>  <DOPAMINE D2>
5

>  <DOPAMINE D5>
5

>  <Dopamine transporter>
5

>  <HISTAMINE H1>
5

>  <HISTAMINE H2>
5

>  <HISTAMINE H4>
5

>  <Muscarinic acetylcholine receptor M2>
5

>  <Muscarinic acetylcholine receptor M5>
5

>  <Serotonin transporter>
5

$$$$
Naproxen
  Marvin  02231216192D 0   1.00000     0.00000     0

 17 18  0  0  1  0  0  0  0  0999 V2000
   -5.3383   -1.4581    0.0000 O   0  0  0  0  0  0  0  0  0
   -6.0528   -1.0456    0.0000 C   0  0  0  0  0  0  0  0  0
   -4.6238   -1.0456    0.0000 C   0  0  0  0  0  0  0  0  0
   -3.9093   -1.4581    0.0000 C   0  0  0  0  0  0  0  0  0
   -3.1949   -1.0456    0.0000 C   0  0  0  0  0  0  0  0  0
   -3.1949   -0.2206    0.0000 C   0  0  0  0  0  0  0  0  0
   -2.4804    0.1919    0.0000 C   0  0  0  0  0  0  0  0  0
   -1.7659   -0.2206    0.0000 C   0  0  0  0  0  0  0  0  0
   -1.7659   -1.0456    0.0000 C   0  0  0  0  0  0  0  0  0
   -2.4804   -1.4581    0.0000 C   0  0  0  0  0  0  0  0  0
   -1.0515    0.1919    0.0000 C   0  0  0  0  0  0  0  0  0
   -0.3370   -0.2206    0.0000 C   0  0  0  0  0  0  0  0  0
    0.3775    0.1919    0.0000 O   0  0  0  0  0  0  0  0  0
   -0.3370   -1.0456    0.0000 O   0  0  0  0  0  0  0  0  0
   -1.0515    1.0169    0.0000 C   0  0  0  0  0  0  0  0  0
   -3.9093    0.1919    0.0000 C   0  0  0  0  0  0  0  0  0
   -4.6238   -0.2206    0.0000 C   0  0  0  0  0  0  0  0  0
  1  2  1  0  0  0  0
  1  3  1  0  0  0  0
  3  4  4  0  0  0  0
  3 17  4  0  0  0  0
  4  5  4  0  0  0  0
  5  6  4  0  0  0  0
  5 10  4  0  0  0  0
  6  7  4  0  0  0  0
  6 16  4  0  0  0  0
  7  8  4  0  0  0  0
  8  9  4  0  0  0  0
  8 11  1  0  0  0  0
  9 10  4  0  0  0  0
 11 12  1  0  0  0  0
 11 15  1  0  0  0  0
 12 13  1  0  0  0  0
 12 14  2  0  0  0  0
 16 17  4  0  0  0  0
M  END
>  <Name_Molregno>
Naproxen

>  <5-HT1A>
5

>  <5-HT1B>
5

>  <5-HT1D>
5

>  <5-HT1E>
5

>  <5-HT2A>
5

>  <5-HT3>
5

>  <5-HT5>
5

>  <5-HT6>
5

>  <5-HT7>
5

>  <Alpha-1A>
5

>  <Alpha-1B>
5

>  <Alpha-2A>
5

>  <Alpha-2B>
5

>  <Alpha-2C>
5

>  <DOPAMINE D1>
5

>  <DOPAMINE D2>
5

>  <DOPAMINE D4>
5

>  <DOPAMINE D5>
5

>  <Dopamine transporter>
5

>  <HISTAMINE H1>
5

>  <HISTAMINE H2>
5

>  <HISTAMINE H4>
5

>  <Muscarinic acetylcholine receptor M2>
5

>  <Muscarinic acetylcholine receptor M5>
5

>  <Norepinephrine transporter>
5

>  <Serotonin transporter>
5

$$$$
N-DESMETHYLCLOZAPINE
  Marvin  02231216192D 0   1.00000     0.00000     0

 22 25  0  0  0  0  0  0  0  0999 V2000
   -0.3818   -1.7384    0.0000 Cl  0  0  0  0  0  0  0  0  0
    0.4065   -1.9816    0.0000 C   0  0  0  0  0  0  0  0  0
    1.0113   -1.4204    0.0000 C   0  0  0  0  0  0  0  0  0
    1.7996   -1.6636    0.0000 C   0  0  0  0  0  0  0  0  0
    2.3140   -1.0186    0.0000 N   0  0  0  0  0  0  0  0  0
    3.1390   -1.0186    0.0000 C   0  0  0  0  0  0  0  0  0
    3.4969   -0.2753    0.0000 N   0  0  0  0  0  0  0  0  0
    3.0322    0.4063    0.0000 C   0  0  0  0  0  0  0  0  0
    3.3902    1.1496    0.0000 C   0  0  0  0  0  0  0  0  0
    4.2129    1.2113    0.0000 N   0  0  0  0  0  0  0  0  0
    4.6776    0.5296    0.0000 C   0  0  0  0  0  0  0  0  0
    4.3196   -0.2137    0.0000 C   0  0  0  0  0  0  0  0  0
    3.6534   -1.6636    0.0000 C   0  0  0  0  0  0  0  0  0
    3.4698   -2.4679    0.0000 C   0  0  0  0  0  0  0  0  0
    2.7265   -2.8259    0.0000 N   0  0  0  0  0  0  0  0  0
    1.9832   -2.4679    0.0000 C   0  0  0  0  0  0  0  0  0
    1.3784   -3.0291    0.0000 C   0  0  0  0  0  0  0  0  0
    0.5901   -2.7859    0.0000 C   0  0  0  0  0  0  0  0  0
    4.0746   -3.0291    0.0000 C   0  0  0  0  0  0  0  0  0
    4.8629   -2.7859    0.0000 C   0  0  0  0  0  0  0  0  0
    5.0465   -1.9816    0.0000 C   0  0  0  0  0  0  0  0  0
    4.4417   -1.4204    0.0000 C   0  0  0  0  0  0  0  0  0
  1  2  1  0  0  0  0
  2  3  4  0  0  0  0
  2 18  4  0  0  0  0
  3  4  4  0  0  0  0
  4  5  1  0  0  0  0
  4 16  4  0  0  0  0
  5  6  1  0  0  0  0
  6  7  1  0  0  0  0
  6 13  2  0  0  0  0
  7  8  1  0  0  0  0
  7 12  1  0  0  0  0
  8  9  1  0  0  0  0
  9 10  1  0  0  0  0
 10 11  1  0  0  0  0
 11 12  1  0  0  0  0
 13 14  1  0  0  0  0
 13 22  1  0  0  0  0
 14 15  2  0  0  0  0
 14 19  1  0  0  0  0
 15 16  1  0  0  0  0
 16 17  4  0  0  0  0
 17 18  4  0  0  0  0
 19 20  2  0  0  0  0
 20 21  1  0  0  0  0
 21 22  2  0  0  0  0
M  END
>  <Name_Molregno>
N-DESMETHYLCLOZAPINE

>  <5-HT1A>
7.86

>  <5-HT1B>
6.39

>  <5-HT1D>
6.32

>  <5-HT1E>
6.41

>  <5-HT2A>
7.96

>  <5-HT3>
6.57

>  <5-HT5>
6.46

>  <5-HT6>
7.94

>  <5-HT7>
7.22

>  <Alpha-1A>
6.98

>  <Alpha-1B>
7.07

>  <Alpha-2A>
6.86

>  <Alpha-2B>
7.02

>  <Alpha-2C>
6.93

>  <Beta-1>
5.2

>  <Beta-2>
5.33

>  <DOPAMINE D1>
7.84

>  <DOPAMINE D2>
7

>  <DOPAMINE D3>
6.82

>  <DOPAMINE D4>
7.28

>  <DOPAMINE D5>
6.55

>  <Dopamine transporter>
5

>  <HISTAMINE H1>
8.47

>  <HISTAMINE H2>
6.46

>  <HISTAMINE H4>
5.99

>  <Muscarinic acetylcholine receptor M1>
7.17

>  <Muscarinic acetylcholine receptor M2>
6.38

>  <Muscarinic acetylcholine receptor M3>
7.02

>  <Muscarinic acetylcholine receptor M4>
6.77

>  <Muscarinic acetylcholine receptor M5>
7.45

>  <Norepinephrine transporter>
6.31

>  <Serotonin transporter>
6.5

$$$$
Niguldipine
  Marvin  02231216192D 0   1.00000     0.00000     0

 45 49  0  0  1  0  0  0  0  0999 V2000
   -2.2895   -0.6147    0.0000 O   0  0  0  0  0  0  0  0  0
   -3.0040   -1.0272    0.0000 C   0  0  0  0  0  0  0  0  0
   -3.7184   -0.6147    0.0000 O   0  0  0  0  0  0  0  0  0
   -3.0040   -1.8522    0.0000 C   0  0  0  0  0  0  0  0  0
   -2.2895   -2.2647    0.0000 C   0  0  0  0  0  0  0  0  0
   -2.2895   -3.0897    0.0000 C   0  0  0  0  0  0  0  0  0
   -1.5750   -3.5022    0.0000 C   0  0  0  0  0  0  0  0  0
   -0.8605   -3.0897    0.0000 O   0  0  0  0  0  0  0  0  0
   -0.1461   -3.5022    0.0000 C   0  0  0  0  0  0  0  0  0
   -1.5750   -4.3272    0.0000 O   0  0  0  0  0  0  0  0  0
   -3.0040   -3.5022    0.0000 C   0  0  0  0  0  0  0  0  0
   -3.7184   -3.0897    0.0000 N   0  0  0  0  0  0  0  0  0
   -3.7184   -2.2647    0.0000 C   0  0  0  0  0  0  0  0  0
   -4.4329   -1.8522    0.0000 C   0  0  0  0  0  0  0  0  0
   -3.0040   -4.3272    0.0000 C   0  0  0  0  0  0  0  0  0
   -1.5750   -1.8522    0.0000 C   0  0  0  0  0  0  0  0  0
   -0.8605   -2.2647    0.0000 C   0  0  0  0  0  0  0  0  0
   -0.1461   -1.8522    0.0000 C   0  0  0  0  0  0  0  0  0
    0.5684   -2.2647    0.0000 N   0  3  0  0  0  0  0  0  0
    1.2829   -1.8522    0.0000 O   0  5  0  0  0  0  0  0  0
    0.5684   -3.0897    0.0000 O   0  5  0  0  0  0  0  0  0
   -0.1461   -1.0272    0.0000 C   0  0  0  0  0  0  0  0  0
   -0.8605   -0.6147    0.0000 C   0  0  0  0  0  0  0  0  0
   -1.5750   -1.0272    0.0000 C   0  0  0  0  0  0  0  0  0
   -2.2895    0.2103    0.0000 C   0  0  0  0  0  0  0  0  0
   -1.5750    0.6228    0.0000 C   0  0  0  0  0  0  0  0  0
   -1.5750    1.4478    0.0000 C   0  0  0  0  0  0  0  0  0
   -0.8605    1.8603    0.0000 N   0  0  0  0  0  0  0  0  0
   -0.8605    2.6853    0.0000 C   0  0  0  0  0  0  0  0  0
   -0.1461    3.0978    0.0000 C   0  0  0  0  0  0  0  0  0
    0.5684    2.6853    0.0000 C   0  0  0  0  0  0  0  0  0
    0.5684    1.8603    0.0000 C   0  0  0  0  0  0  0  0  0
   -0.1461    1.4478    0.0000 C   0  0  0  0  0  0  0  0  0
    0.7680    3.4858    0.0000 C   0  0  0  0  0  0  0  0  0
    0.1745    4.0588    0.0000 C   0  0  0  0  0  0  0  0  0
    0.3741    4.8593    0.0000 C   0  0  0  0  0  0  0  0  0
    1.1672    5.0867    0.0000 C   0  0  0  0  0  0  0  0  0
    1.7606    4.5137    0.0000 C   0  0  0  0  0  0  0  0  0
    1.5610    3.7132    0.0000 C   0  0  0  0  0  0  0  0  0
    1.3929    2.7141    0.0000 C   0  0  0  0  0  0  0  0  0
    1.7802    3.4425    0.0000 C   0  0  0  0  0  0  0  0  0
    2.6047    3.4713    0.0000 C   0  0  0  0  0  0  0  0  0
    3.0419    2.7716    0.0000 C   0  0  0  0  0  0  0  0  0
    2.6546    2.0432    0.0000 C   0  0  0  0  0  0  0  0  0
    1.8301    2.0144    0.0000 C   0  0  0  0  0  0  0  0  0
  1  2  1  0  0  0  0
  1 25  1  0  0  0  0
  2  3  2  0  0  0  0
  2  4  1  0  0  0  0
  4  5  1  0  0  0  0
  4 13  2  0  0  0  0
  5  6  1  0  0  0  0
  5 16  1  0  0  0  0
  6  7  1  0  0  0  0
  6 11  2  0  0  0  0
  7  8  1  0  0  0  0
  7 10  2  0  0  0  0
  8  9  1  0  0  0  0
 11 12  1  0  0  0  0
 11 15  1  0  0  0  0
 12 13  1  0  0  0  0
 13 14  1  0  0  0  0
 16 17  4  0  0  0  0
 16 24  4  0  0  0  0
 17 18  4  0  0  0  0
 18 19  1  0  0  0  0
 18 22  4  0  0  0  0
 19 20  1  0  0  0  0
 19 21  1  0  0  0  0
 22 23  4  0  0  0  0
 23 24  4  0  0  0  0
 25 26  1  0  0  0  0
 26 27  1  0  0  0  0
 27 28  1  0  0  0  0
 28 29  1  0  0  0  0
 28 33  1  0  0  0  0
 29 30  1  0  0  0  0
 30 31  1  0  0  0  0
 31 32  1  0  0  0  0
 31 34  1  0  0  0  0
 31 40  1  0  0  0  0
 32 33  1  0  0  0  0
 34 35  4  0  0  0  0
 34 39  4  0  0  0  0
 35 36  4  0  0  0  0
 36 37  4  0  0  0  0
 37 38  4  0  0  0  0
 38 39  4  0  0  0  0
 40 41  4  0  0  0  0
 40 45  4  0  0  0  0
 41 42  4  0  0  0  0
 42 43  4  0  0  0  0
 43 44  4  0  0  0  0
 44 45  4  0  0  0  0
M  CHG  3  19   1  20  -1  21  -1
M  END
>  <Name_Molregno>
Niguldipine

>  <Alpha-1A>
8.32

>  <Alpha-1B>
6.35

$$$$
nimesulide
  Marvin  02231216192D 0   1.00000     0.00000     0

 21 22  0  0  0  0  0  0  0  0999 V2000
    3.1126    1.9121    0.0000 S   0  0  0  0  0  0  0  0  0
    3.8271    2.3246    0.0000 O   0  0  0  0  0  0  0  0  0
    2.7001    2.6266    0.0000 O   0  0  0  0  0  0  0  0  0
    2.3982    1.4996    0.0000 N   0  0  0  0  0  0  0  0  0
    2.3982    0.6746    0.0000 C   0  0  0  0  0  0  0  0  0
    3.1126    0.2621    0.0000 C   0  0  0  0  0  0  0  0  0
    3.1126   -0.5629    0.0000 C   0  0  0  0  0  0  0  0  0
    2.3982   -0.9754    0.0000 C   0  0  0  0  0  0  0  0  0
    2.3982   -1.8004    0.0000 N   0  3  0  0  0  0  0  0  0
    1.6837   -2.2129    0.0000 O   0  5  0  0  0  0  0  0  0
    3.1126   -2.2129    0.0000 O   0  5  0  0  0  0  0  0  0
    1.6837   -0.5629    0.0000 C   0  0  0  0  0  0  0  0  0
    1.6837    0.2621    0.0000 C   0  0  0  0  0  0  0  0  0
    0.9692    0.6746    0.0000 O   0  0  0  0  0  0  0  0  0
    0.9692    1.4996    0.0000 C   0  0  0  0  0  0  0  0  0
    0.2548    1.9121    0.0000 C   0  0  0  0  0  0  0  0  0
    0.2548    2.7371    0.0000 C   0  0  0  0  0  0  0  0  0
    0.9692    3.1496    0.0000 C   0  0  0  0  0  0  0  0  0
    1.6837    2.7371    0.0000 C   0  0  0  0  0  0  0  0  0
    1.6837    1.9121    0.0000 C   0  0  0  0  0  0  0  0  0
    3.5251    1.1976    0.0000 C   0  0  0  0  0  0  0  0  0
  1  2  2  0  0  0  0
  1  3  2  0  0  0  0
  1  4  1  0  0  0  0
  1 21  1  0  0  0  0
  4  5  1  0  0  0  0
  5  6  4  0  0  0  0
  5 13  4  0  0  0  0
  6  7  4  0  0  0  0
  7  8  4  0  0  0  0
  8  9  1  0  0  0  0
  8 12  4  0  0  0  0
  9 10  1  0  0  0  0
  9 11  1  0  0  0  0
 12 13  4  0  0  0  0
 13 14  1  0  0  0  0
 14 15  1  0  0  0  0
 15 16  4  0  0  0  0
 15 20  4  0  0  0  0
 16 17  4  0  0  0  0
 17 18  4  0  0  0  0
 18 19  4  0  0  0  0
 19 20  4  0  0  0  0
M  CHG  3   9   1  10  -1  11  -1
M  END
>  <Name_Molregno>
nimesulide

>  <5-HT1A>
5

>  <5-HT1B>
5

>  <5-HT1D>
5

>  <5-HT1E>
5

>  <5-HT2A>
5

>  <5-HT3>
5

>  <5-HT5>
5

>  <5-HT6>
5

>  <5-HT7>
5

>  <Alpha-1A>
5

>  <Alpha-1B>
5

>  <Alpha-2A>
5

>  <Alpha-2B>
5

>  <Alpha-2C>
5

>  <DOPAMINE D1>
5

>  <DOPAMINE D2>
5

>  <DOPAMINE D4>
5

>  <DOPAMINE D5>
5

>  <Dopamine transporter>
5

>  <HISTAMINE H1>
5

>  <HISTAMINE H2>
5

>  <HISTAMINE H4>
5

>  <Muscarinic acetylcholine receptor M2>
5

>  <Muscarinic acetylcholine receptor M5>
5

>  <Norepinephrine transporter>
5

>  <Serotonin transporter>
5

$$$$
Norephedrine
  Marvin  02231216192D 0   1.00000     0.00000     0

 11 11  0  0  1  0  0  0  0  0999 V2000
    1.9974    0.2298    0.0000 O   0  0  0  0  0  0  0  0  0
    1.2829   -0.1827    0.0000 C   0  0  0  0  0  0  0  0  0
    0.5684    0.2298    0.0000 C   0  0  0  0  0  0  0  0  0
    0.5684    1.0548    0.0000 N   0  0  0  0  0  0  0  0  0
   -0.1461   -0.1827    0.0000 C   0  0  0  0  0  0  0  0  0
    1.2829   -1.0077    0.0000 C   0  0  0  0  0  0  0  0  0
    1.9974   -1.4202    0.0000 C   0  0  0  0  0  0  0  0  0
    1.9974   -2.2452    0.0000 C   0  0  0  0  0  0  0  0  0
    1.2829   -2.6577    0.0000 C   0  0  0  0  0  0  0  0  0
    0.5684   -2.2452    0.0000 C   0  0  0  0  0  0  0  0  0
    0.5684   -1.4202    0.0000 C   0  0  0  0  0  0  0  0  0
  1  2  1  0  0  0  0
  2  3  1  0  0  0  0
  2  6  1  0  0  0  0
  3  4  1  0  0  0  0
  3  5  1  0  0  0  0
  6  7  4  0  0  0  0
  6 11  4  0  0  0  0
  7  8  4  0  0  0  0
  8  9  4  0  0  0  0
  9 10  4  0  0  0  0
 10 11  4  0  0  0  0
M  END
>  <Name_Molregno>
Norephedrine

>  <5-HT1A>
5

>  <5-HT1B>
5

>  <5-HT1D>
5

>  <5-HT1E>
5

>  <5-HT3>
5

>  <5-HT5>
5

>  <5-HT6>
5

>  <5-HT7>
5.04

>  <Alpha-1A>
5

>  <Alpha-1B>
5

>  <Alpha-2A>
5.64

>  <Alpha-2B>
5.73

>  <Alpha-2C>
6.04

>  <Beta-1>
5

>  <Beta-2>
5

>  <DOPAMINE D1>
5

>  <DOPAMINE D2>
5

>  <DOPAMINE D4>
5

>  <DOPAMINE D5>
5

>  <Dopamine transporter>
5.76

>  <HISTAMINE H1>
5

>  <HISTAMINE H2>
5

>  <HISTAMINE H4>
5

>  <Muscarinic acetylcholine receptor M1>
5.04

>  <Muscarinic acetylcholine receptor M2>
5

>  <Muscarinic acetylcholine receptor M3>
5

>  <Muscarinic acetylcholine receptor M4>
5

>  <Muscarinic acetylcholine receptor M5>
5

>  <Norepinephrine transporter>
6.34

>  <Serotonin transporter>
5

$$$$
NOREPINEPHRINE
  Marvin  02231216192D 0   1.00000     0.00000     0

 12 12  0  0  1  0  0  0  0  0999 V2000
    3.1670    0.8378    0.0000 O   0  0  0  0  0  0  0  0  0
    2.4525    0.4253    0.0000 C   0  0  0  0  0  0  0  0  0
    2.4525   -0.3997    0.0000 C   0  0  0  0  0  0  0  0  0
    1.7381   -0.8122    0.0000 C   0  0  0  0  0  0  0  0  0
    1.0236   -0.3997    0.0000 C   0  0  0  0  0  0  0  0  0
    1.0236    0.4253    0.0000 C   0  0  0  0  0  0  0  0  0
    1.7381    0.8378    0.0000 C   0  0  0  0  0  0  0  0  0
    1.7381    1.6628    0.0000 O   0  0  0  0  0  0  0  0  0
    1.7381   -1.6372    0.0000 C   0  0  0  0  0  0  0  0  0
    2.4525   -2.0497    0.0000 O   0  0  0  0  0  0  0  0  0
    1.0236   -2.0497    0.0000 C   0  0  0  0  0  0  0  0  0
    1.0236   -2.8747    0.0000 N   0  0  0  0  0  0  0  0  0
  1  2  1  0  0  0  0
  2  3  4  0  0  0  0
  2  7  4  0  0  0  0
  3  4  4  0  0  0  0
  4  5  4  0  0  0  0
  4  9  1  0  0  0  0
  5  6  4  0  0  0  0
  6  7  4  0  0  0  0
  7  8  1  0  0  0  0
  9 10  1  0  0  0  0
  9 11  1  0  0  0  0
 11 12  1  0  0  0  0
M  END
>  <Name_Molregno>
NOREPINEPHRINE

>  <5-HT1A>
5

>  <5-HT2A>
5

>  <5-HT3>
5

>  <5-HT7>
5

>  <Alpha-1A>
5.33

>  <Alpha-1B>
5.1

>  <Alpha-2A>
6.32

>  <Alpha-2B>
6.02

>  <Alpha-2C>
6.43

>  <Beta-1>
5.45

>  <Beta-2>
4.9

>  <DOPAMINE D1>
5

>  <DOPAMINE D2>
5

>  <DOPAMINE D5>
5

>  <Dopamine transporter>
5.02

$$$$
Norfenfluramine
  Marvin  02231216192D 0   1.00000     0.00000     0

 14 14  0  0  1  0  0  0  0  0999 V2000
    0.4631   -1.9707    0.0000 F   0  0  0  0  0  0  0  0  0
    1.1776   -1.5582    0.0000 C   0  0  0  0  0  0  0  0  0
    1.5901   -2.2727    0.0000 F   0  0  0  0  0  0  0  0  0
    0.7651   -0.8437    0.0000 F   0  0  0  0  0  0  0  0  0
    1.8921   -1.1457    0.0000 C   0  0  0  0  0  0  0  0  0
    1.8921   -0.3207    0.0000 C   0  0  0  0  0  0  0  0  0
    2.6065    0.0918    0.0000 C   0  0  0  0  0  0  0  0  0
    3.3210   -0.3207    0.0000 C   0  0  0  0  0  0  0  0  0
    3.3210   -1.1457    0.0000 C   0  0  0  0  0  0  0  0  0
    2.6065   -1.5582    0.0000 C   0  0  0  0  0  0  0  0  0
    2.6065    0.9168    0.0000 C   0  0  0  0  0  0  0  0  0
    3.3210    1.3293    0.0000 C   0  0  0  0  0  0  0  0  0
    3.3210    2.1543    0.0000 N   0  0  0  0  0  0  0  0  0
    4.0355    0.9168    0.0000 C   0  0  0  0  0  0  0  0  0
  1  2  1  0  0  0  0
  2  3  1  0  0  0  0
  2  4  1  0  0  0  0
  2  5  1  0  0  0  0
  5  6  4  0  0  0  0
  5 10  4  0  0  0  0
  6  7  4  0  0  0  0
  7  8  4  0  0  0  0
  7 11  1  0  0  0  0
  8  9  4  0  0  0  0
  9 10  4  0  0  0  0
 11 12  1  0  0  0  0
 12 13  1  0  0  0  0
 12 14  1  0  0  0  0
M  END
>  <Name_Molregno>
Norfenfluramine

>  <5-HT1A>
5.77

>  <5-HT1B>
5.57

>  <5-HT1D>
5.88

>  <5-HT1E>
5

>  <5-HT3>
5

>  <5-HT5>
5

>  <5-HT6>
5

>  <5-HT7>
6.44

>  <Alpha-1A>
5.11

>  <Alpha-1B>
5

>  <Alpha-2A>
5.42

>  <Alpha-2B>
5.75

>  <Alpha-2C>
6.08

>  <Beta-1>
5

>  <Beta-2>
5

>  <DOPAMINE D1>
5

>  <DOPAMINE D2>
5

>  <DOPAMINE D4>
5

>  <DOPAMINE D5>
5

>  <Dopamine transporter>
5

>  <HISTAMINE H1>
5

>  <HISTAMINE H2>
5

>  <Muscarinic acetylcholine receptor M1>
5.42

>  <Muscarinic acetylcholine receptor M2>
5.24

>  <Muscarinic acetylcholine receptor M3>
6.04

>  <Muscarinic acetylcholine receptor M4>
5.31

>  <Muscarinic acetylcholine receptor M5>
5.78

>  <Norepinephrine transporter>
5

>  <Serotonin transporter>
5

$$$$
OLANZAPINE
  Marvin  02231216192D 0   1.00000     0.00000     0

 22 25  0  0  0  0  0  0  0  0999 V2000
   -1.5954    3.4952    0.0000 S   0  0  0  0  0  0  0  0  0
   -0.8919    3.0642    0.0000 C   0  0  0  0  0  0  0  0  0
   -0.1447    3.4138    0.0000 N   0  0  0  0  0  0  0  0  0
    0.5946    3.0476    0.0000 C   0  0  0  0  0  0  0  0  0
    0.7691    2.2413    0.0000 C   0  0  0  0  0  0  0  0  0
    0.2476    1.6020    0.0000 N   0  0  0  0  0  0  0  0  0
   -0.5774    1.6113    0.0000 C   0  0  0  0  0  0  0  0  0
   -0.9436    0.8720    0.0000 N   0  0  0  0  0  0  0  0  0
   -0.4865    0.1852    0.0000 C   0  0  0  0  0  0  0  0  0
   -0.8527   -0.5540    0.0000 C   0  0  0  0  0  0  0  0  0
   -1.6761   -0.6065    0.0000 N   0  0  0  0  0  0  0  0  0
   -2.1332    0.0803    0.0000 C   0  0  0  0  0  0  0  0  0
   -1.7669    0.8196    0.0000 C   0  0  0  0  0  0  0  0  0
   -2.0423   -1.3458    0.0000 C   0  0  0  0  0  0  0  0  0
   -1.0845    2.2620    0.0000 C   0  0  0  0  0  0  0  0  0
   -1.9069    2.1972    0.0000 C   0  0  0  0  0  0  0  0  0
   -2.2227    2.9594    0.0000 C   0  0  0  0  0  0  0  0  0
   -3.0249    3.1520    0.0000 C   0  0  0  0  0  0  0  0  0
    1.5547    1.9893    0.0000 C   0  0  0  0  0  0  0  0  0
    2.1657    2.5436    0.0000 C   0  0  0  0  0  0  0  0  0
    1.9912    3.3499    0.0000 C   0  0  0  0  0  0  0  0  0
    1.2056    3.6019    0.0000 C   0  0  0  0  0  0  0  0  0
  1  2  1  0  0  0  0
  1 17  1  0  0  0  0
  2  3  2  0  0  0  0
  2 15  1  0  0  0  0
  3  4  1  0  0  0  0
  4  5  4  0  0  0  0
  4 22  4  0  0  0  0
  5  6  1  0  0  0  0
  5 19  4  0  0  0  0
  6  7  1  0  0  0  0
  7  8  1  0  0  0  0
  7 15  2  0  0  0  0
  8  9  1  0  0  0  0
  8 13  1  0  0  0  0
  9 10  1  0  0  0  0
 10 11  1  0  0  0  0
 11 12  1  0  0  0  0
 11 14  1  0  0  0  0
 12 13  1  0  0  0  0
 15 16  1  0  0  0  0
 16 17  2  0  0  0  0
 17 18  1  0  0  0  0
 19 20  4  0  0  0  0
 20 21  4  0  0  0  0
 21 22  4  0  0  0  0
M  END
>  <Name_Molregno>
OLANZAPINE

>  <5-HT1A>
5.77

>  <5-HT1B>
6.23

>  <5-HT1D>
6.3

>  <5-HT1E>
5.66

>  <5-HT2A>
8.46

>  <5-HT2C>
7.86

>  <5-HT3>
6.69

>  <5-HT5>
5.92

>  <5-HT6>
7.97

>  <5-HT7>
6.73

>  <Alpha-1A>
6.95

>  <Alpha-1B>
6.58

>  <Alpha-2A>
6.51

>  <Alpha-2B>
6.97

>  <Alpha-2C>
7.21

>  <Beta-1>
5.15

>  <Beta-2>
5.15

>  <DOPAMINE D1>
7.3

>  <DOPAMINE D2>
7.67

>  <DOPAMINE D3>
7.53

>  <DOPAMINE D4>
7.73

>  <DOPAMINE D5>
7.09

>  <Dopamine transporter>
5

>  <HISTAMINE H1>
8.96

>  <HISTAMINE H2>
7.36

>  <HISTAMINE H4>
5

>  <Muscarinic acetylcholine receptor M1>
7.99

>  <Muscarinic acetylcholine receptor M2>
6.93

>  <Muscarinic acetylcholine receptor M3>
7.33

>  <Muscarinic acetylcholine receptor M4>
7.35

>  <Muscarinic acetylcholine receptor M5>
7.78

>  <Norepinephrine transporter>
5

>  <Serotonin transporter>
5.48

$$$$
ORG-5222
  Marvin  02231216192D 0   1.00000     0.00000     0

 20 23  0  0  1  0  0  0  0  0999 V2000
   -0.0754   -0.1702    0.0000 Cl  0  0  0  0  0  0  0  0  0
    0.7129   -0.4133    0.0000 C   0  0  0  0  0  0  0  0  0
    1.3177    0.1478    0.0000 C   0  0  0  0  0  0  0  0  0
    2.1060   -0.0954    0.0000 C   0  0  0  0  0  0  0  0  0
    2.6204    0.5496    0.0000 C   0  0  0  0  0  0  0  0  0
    3.4454    0.5496    0.0000 C   0  0  0  0  0  0  0  0  0
    3.9598   -0.0954    0.0000 C   0  0  0  0  0  0  0  0  0
    3.7762   -0.8997    0.0000 C   0  0  0  0  0  0  0  0  0
    3.0329   -1.2576    0.0000 O   0  0  0  0  0  0  0  0  0
    2.2896   -0.8997    0.0000 C   0  0  0  0  0  0  0  0  0
    1.6849   -1.4608    0.0000 C   0  0  0  0  0  0  0  0  0
    0.8965   -1.2176    0.0000 C   0  0  0  0  0  0  0  0  0
    4.3810   -1.4608    0.0000 C   0  0  0  0  0  0  0  0  0
    5.1693   -1.2176    0.0000 C   0  0  0  0  0  0  0  0  0
    5.3529   -0.4133    0.0000 C   0  0  0  0  0  0  0  0  0
    4.7482    0.1478    0.0000 C   0  0  0  0  0  0  0  0  0
    3.7004    1.3343    0.0000 C   0  0  0  0  0  0  0  0  0
    3.0329    1.8192    0.0000 N   0  0  0  0  0  0  0  0  0
    2.3655    1.3343    0.0000 C   0  0  0  0  0  0  0  0  0
    3.0329    2.6442    0.0000 C   0  0  0  0  0  0  0  0  0
  1  2  1  0  0  0  0
  2  3  4  0  0  0  0
  2 12  4  0  0  0  0
  3  4  4  0  0  0  0
  4  5  1  0  0  0  0
  4 10  4  0  0  0  0
  5  6  1  0  0  0  0
  5 19  1  0  0  0  0
  6  7  1  0  0  0  0
  6 17  1  0  0  0  0
  7  8  4  0  0  0  0
  7 16  4  0  0  0  0
  8  9  1  0  0  0  0
  8 13  4  0  0  0  0
  9 10  1  0  0  0  0
 10 11  4  0  0  0  0
 11 12  4  0  0  0  0
 13 14  4  0  0  0  0
 14 15  4  0  0  0  0
 15 16  4  0  0  0  0
 17 18  1  0  0  0  0
 18 19  1  0  0  0  0
 18 20  1  0  0  0  0
M  END
>  <Name_Molregno>
ORG-5222

>  <5-HT1A>
7.7

>  <5-HT1B>
8.34

>  <5-HT1D>
8.07

>  <5-HT1E>
7.69

>  <5-HT2A>
9.41

>  <5-HT2C>
9.63

>  <5-HT3>
6.35

>  <5-HT5>
8.4

>  <5-HT6>
8.85

>  <5-HT7>
9.05

>  <Alpha-1A>
8.36

>  <Alpha-1B>
8.41

>  <Alpha-2A>
8.08

>  <Alpha-2B>
8.64

>  <Alpha-2C>
7.82

>  <Beta-1>
5.3

>  <Beta-2>
5.3

>  <DOPAMINE D1>
8.54

>  <DOPAMINE D2>
8.72

>  <DOPAMINE D3>
8.74

>  <DOPAMINE D4>
8.58

>  <DOPAMINE D5>
7.64

>  <Dopamine transporter>
5.5

>  <HISTAMINE H1>
8.91

>  <HISTAMINE H2>
8.64

>  <HISTAMINE H4>
5

>  <Muscarinic acetylcholine receptor M1>
7.61

>  <Muscarinic acetylcholine receptor M2>
7.1

>  <Muscarinic acetylcholine receptor M3>
7.41

>  <Muscarinic acetylcholine receptor M4>
5

>  <Muscarinic acetylcholine receptor M5>
8.02

>  <Norepinephrine transporter>
5

>  <Serotonin transporter>
5.5

$$$$
PARECOXIB
  Marvin  02231216192D 0   1.00000     0.00000     0

 26 28  0  0  0  0  0  0  0  0999 V2000
    3.2898   -1.2399    0.0000 S   0  0  0  0  0  0  0  0  0
    3.7023   -0.5254    0.0000 O   0  0  0  0  0  0  0  0  0
    2.8773   -1.9544    0.0000 O   0  0  0  0  0  0  0  0  0
    4.0042   -1.6524    0.0000 N   0  0  0  0  0  0  0  0  0
    4.7187   -1.2399    0.0000 C   0  0  0  0  0  0  0  0  0
    4.7187   -0.4149    0.0000 O   0  0  0  0  0  0  0  0  0
    5.4332   -1.6524    0.0000 C   0  0  0  0  0  0  0  0  0
    6.1476   -1.2399    0.0000 C   0  0  0  0  0  0  0  0  0
    2.5753   -0.8274    0.0000 C   0  0  0  0  0  0  0  0  0
    1.8608   -1.2399    0.0000 C   0  0  0  0  0  0  0  0  0
    1.1463   -0.8274    0.0000 C   0  0  0  0  0  0  0  0  0
    1.1463   -0.0024    0.0000 C   0  0  0  0  0  0  0  0  0
    1.8608    0.4101    0.0000 C   0  0  0  0  0  0  0  0  0
    2.5753   -0.0024    0.0000 C   0  0  0  0  0  0  0  0  0
    0.4319    0.4101    0.0000 C   0  0  0  0  0  0  0  0  0
   -0.3218    0.0745    0.0000 C   0  0  0  0  0  0  0  0  0
   -0.8738    0.6876    0.0000 N   0  0  0  0  0  0  0  0  0
   -0.4613    1.4021    0.0000 O   0  0  0  0  0  0  0  0  0
    0.3456    1.2306    0.0000 C   0  0  0  0  0  0  0  0  0
    0.9587    1.7826    0.0000 C   0  0  0  0  0  0  0  0  0
   -0.4933   -0.7324    0.0000 C   0  0  0  0  0  0  0  0  0
    0.1198   -1.2845    0.0000 C   0  0  0  0  0  0  0  0  0
   -0.0518   -2.0914    0.0000 C   0  0  0  0  0  0  0  0  0
   -0.8364   -2.3464    0.0000 C   0  0  0  0  0  0  0  0  0
   -1.4495   -1.7943    0.0000 C   0  0  0  0  0  0  0  0  0
   -1.2779   -0.9874    0.0000 C   0  0  0  0  0  0  0  0  0
  1  2  2  0  0  0  0
  1  3  2  0  0  0  0
  1  4  1  0  0  0  0
  1  9  1  0  0  0  0
  4  5  1  0  0  0  0
  5  6  2  0  0  0  0
  5  7  1  0  0  0  0
  7  8  1  0  0  0  0
  9 10  4  0  0  0  0
  9 14  4  0  0  0  0
 10 11  4  0  0  0  0
 11 12  4  0  0  0  0
 12 13  4  0  0  0  0
 12 15  1  0  0  0  0
 13 14  4  0  0  0  0
 15 16  4  0  0  0  0
 15 19  4  0  0  0  0
 16 17  4  0  0  0  0
 16 21  1  0  0  0  0
 17 18  4  0  0  0  0
 18 19  4  0  0  0  0
 19 20  1  0  0  0  0
 21 22  4  0  0  0  0
 21 26  4  0  0  0  0
 22 23  4  0  0  0  0
 23 24  4  0  0  0  0
 24 25  4  0  0  0  0
 25 26  4  0  0  0  0
M  END
>  <Name_Molregno>
PARECOXIB

>  <5-HT1A>
5

>  <5-HT1B>
5

>  <5-HT1D>
5

>  <5-HT1E>
5

>  <5-HT2A>
5

>  <5-HT3>
5

>  <5-HT6>
5

>  <5-HT7>
5

>  <Alpha-1A>
5

>  <Alpha-1B>
5

>  <Alpha-2A>
5

>  <Alpha-2B>
5

>  <Alpha-2C>
5

>  <DOPAMINE D1>
5

>  <DOPAMINE D2>
5

>  <DOPAMINE D4>
5

>  <DOPAMINE D5>
5

>  <Dopamine transporter>
5

>  <HISTAMINE H1>
5

>  <HISTAMINE H2>
5

>  <HISTAMINE H4>
5

>  <Muscarinic acetylcholine receptor M2>
5

>  <Muscarinic acetylcholine receptor M5>
5

>  <Norepinephrine transporter>
5

>  <Serotonin transporter>
5

$$$$
PBR28
  Marvin  02231216192D 0   1.00000     0.00000     0

 26 28  0  0  0  0  0  0  0  0999 V2000
    0.4191    0.0796    0.0000 O   0  0  0  0  0  0  0  0  0
    0.4191   -0.7454    0.0000 C   0  0  0  0  0  0  0  0  0
    1.1336   -1.1579    0.0000 C   0  0  0  0  0  0  0  0  0
    1.1336   -1.9829    0.0000 C   0  0  0  0  0  0  0  0  0
    0.4191   -2.3954    0.0000 C   0  0  0  0  0  0  0  0  0
   -0.2953   -1.9829    0.0000 C   0  0  0  0  0  0  0  0  0
   -0.2953   -1.1579    0.0000 C   0  0  0  0  0  0  0  0  0
   -1.0098   -0.7454    0.0000 N   0  0  0  0  0  0  0  0  0
   -1.7243   -1.1579    0.0000 C   0  0  0  0  0  0  0  0  0
   -2.4387   -0.7454    0.0000 C   0  0  0  0  0  0  0  0  0
   -2.4387    0.0796    0.0000 C   0  0  0  0  0  0  0  0  0
   -3.1532    0.4921    0.0000 C   0  0  0  0  0  0  0  0  0
   -3.8677    0.0796    0.0000 C   0  0  0  0  0  0  0  0  0
   -3.8677   -0.7454    0.0000 C   0  0  0  0  0  0  0  0  0
   -3.1532   -1.1579    0.0000 C   0  0  0  0  0  0  0  0  0
   -3.1532   -1.9829    0.0000 O   0  0  0  0  0  0  0  0  0
   -3.8677   -2.3954    0.0000 C   0  0  0  0  0  0  0  0  0
   -1.0098    0.0796    0.0000 C   0  0  0  0  0  0  0  0  0
   -1.7243    0.4921    0.0000 O   0  0  0  0  0  0  0  0  0
   -0.2953    0.4921    0.0000 C   0  0  0  0  0  0  0  0  0
    1.1336    0.4921    0.0000 C   0  0  0  0  0  0  0  0  0
    1.1336    1.3171    0.0000 C   0  0  0  0  0  0  0  0  0
    1.8481    1.7296    0.0000 C   0  0  0  0  0  0  0  0  0
    2.5626    1.3171    0.0000 C   0  0  0  0  0  0  0  0  0
    2.5626    0.4921    0.0000 C   0  0  0  0  0  0  0  0  0
    1.8481    0.0796    0.0000 C   0  0  0  0  0  0  0  0  0
  1  2  1  0  0  0  0
  1 21  1  0  0  0  0
  2  3  4  0  0  0  0
  2  7  4  0  0  0  0
  3  4  4  0  0  0  0
  4  5  4  0  0  0  0
  5  6  4  0  0  0  0
  6  7  4  0  0  0  0
  7  8  1  0  0  0  0
  8  9  1  0  0  0  0
  8 18  1  0  0  0  0
  9 10  1  0  0  0  0
 10 11  4  0  0  0  0
 10 15  4  0  0  0  0
 11 12  4  0  0  0  0
 12 13  4  0  0  0  0
 13 14  4  0  0  0  0
 14 15  4  0  0  0  0
 15 16  1  0  0  0  0
 16 17  1  0  0  0  0
 18 19  2  0  0  0  0
 18 20  1  0  0  0  0
 21 22  4  0  0  0  0
 21 26  4  0  0  0  0
 22 23  4  0  0  0  0
 23 24  4  0  0  0  0
 24 25  4  0  0  0  0
 25 26  4  0  0  0  0
M  END
>  <Name_Molregno>
PBR28

>  <5-HT1A>
5

>  <5-HT1B>
5

>  <5-HT1D>
5

>  <5-HT1E>
5

>  <5-HT2A>
5

>  <5-HT3>
5

>  <5-HT5>
5

>  <5-HT6>
5

>  <5-HT7>
5

>  <Alpha-1A>
5

>  <Alpha-1B>
5

>  <Alpha-2A>
5

>  <Alpha-2B>
5

>  <Alpha-2C>
5

>  <Beta-1>
5

>  <Beta-2>
5

>  <DOPAMINE D1>
5

>  <DOPAMINE D2>
5

>  <DOPAMINE D4>
5

>  <Dopamine transporter>
5

>  <HISTAMINE H1>
5

>  <HISTAMINE H2>
5

>  <HISTAMINE H4>
5

>  <Muscarinic acetylcholine receptor M2>
5

>  <Muscarinic acetylcholine receptor M5>
5

>  <Norepinephrine transporter>
5

>  <Serotonin transporter>
5

$$$$
PERGOLIDE
  Marvin  02231216192D 0   1.00000     0.00000     0

 22 25  0  0  1  0  0  0  0  0999 V2000
    2.3775   -0.9399    0.0000 S   0  0  0  0  0  0  0  0  0
    1.6635   -0.5265    0.0000 C   0  0  0  0  0  0  0  0  0
    1.6645    0.2985    0.0000 C   0  0  0  0  0  0  0  0  0
    2.3795    0.7101    0.0000 C   0  0  0  0  0  0  0  0  0
    2.3805    1.5351    0.0000 C   0  0  0  0  0  0  0  0  0
    1.6665    1.9485    0.0000 C   0  0  0  0  0  0  0  0  0
    0.9515    1.5368    0.0000 N   0  0  0  0  0  0  0  0  0
    0.9505    0.7118    0.0000 C   0  0  0  0  0  0  0  0  0
    0.2376    1.9502    0.0000 C   0  0  0  0  0  0  0  0  0
   -0.4774    1.5385    0.0000 C   0  0  0  0  0  0  0  0  0
   -1.1914    1.9519    0.0000 C   0  0  0  0  0  0  0  0  0
    1.6680    2.7726    0.0000 C   0  0  0  0  0  0  0  0  0
    2.3805    3.1851    0.0000 C   0  0  0  0  0  0  0  0  0
    3.0930    2.7726    0.0000 C   0  0  0  0  0  0  0  0  0
    3.0930    1.9476    0.0000 C   0  0  0  0  0  0  0  0  0
    3.8108    1.5351    0.0000 C   0  0  0  0  0  0  0  0  0
    4.5233    1.9476    0.0000 C   0  0  0  0  0  0  0  0  0
    4.5233    2.7726    0.0000 C   0  0  0  0  0  0  0  0  0
    3.8108    3.1851    0.0000 C   0  0  0  0  0  0  0  0  0
    3.5055    4.0422    0.0000 N   0  0  0  0  0  0  0  0  0
    2.6805    4.0422    0.0000 C   0  0  0  0  0  0  0  0  0
    2.3765   -1.7649    0.0000 C   0  0  0  0  0  0  0  0  0
  1  2  1  0  0  0  0
  1 22  1  0  0  0  0
  2  3  1  0  0  0  0
  3  4  1  0  0  0  0
  3  8  1  0  0  0  0
  4  5  1  0  0  0  0
  5  6  1  0  0  0  0
  5 15  1  0  0  0  0
  6  7  1  0  0  0  0
  6 12  1  0  0  0  0
  7  8  1  0  0  0  0
  7  9  1  0  0  0  0
  9 10  1  0  0  0  0
 10 11  1  0  0  0  0
 12 13  1  0  0  0  0
 13 14  4  0  0  0  0
 13 21  4  0  0  0  0
 14 15  4  0  0  0  0
 14 19  4  0  0  0  0
 15 16  4  0  0  0  0
 16 17  4  0  0  0  0
 17 18  4  0  0  0  0
 18 19  4  0  0  0  0
 19 20  4  0  0  0  0
 20 21  4  0  0  0  0
M  STY  1   1 DAT
M  SAL   1  1  20
M  SDT   1 MRV_IMPLICIT_H                                        
M  SDD   1     0.0000    0.0000    DR    ALL  0       0  
M  SED   1 IMPL_H1
M  END
>  <Name_Molregno>
PERGOLIDE

>  <5-HT1A>
8.56

>  <5-HT1B>
6.55

>  <5-HT1D>
7.88

>  <5-HT2A>
8.08

>  <5-HT2C>
6.53

>  <Alpha-1A>
5.98

>  <Alpha-1B>
6.16

>  <Alpha-2A>
7.3

>  <Alpha-2B>
7.49

>  <Alpha-2C>
7.17

>  <Beta-1>
5

>  <Beta-2>
5

>  <DOPAMINE D1>
6.17

>  <DOPAMINE D2>
7.8

>  <DOPAMINE D3>
8.59

>  <DOPAMINE D4>
7.25

>  <DOPAMINE D5>
6.76

$$$$
PHENTOLAMINE
  Marvin  02231216192D 0   1.00000     0.00000     0

 21 23  0  0  0  0  0  0  0  0999 V2000
    4.7921    2.7933    0.0000 O   0  0  0  0  0  0  0  0  0
    4.0777    2.3808    0.0000 C   0  0  0  0  0  0  0  0  0
    4.0777    1.5558    0.0000 C   0  0  0  0  0  0  0  0  0
    3.3632    1.1433    0.0000 C   0  0  0  0  0  0  0  0  0
    3.3632    0.3183    0.0000 N   0  0  0  0  0  0  0  0  0
    4.0777   -0.0942    0.0000 C   0  0  0  0  0  0  0  0  0
    4.0777   -0.9192    0.0000 C   0  0  0  0  0  0  0  0  0
    4.7451   -1.4042    0.0000 N   0  0  0  0  0  0  0  0  0
    4.4902   -2.1888    0.0000 C   0  0  0  0  0  0  0  0  0
    3.6652   -2.1888    0.0000 C   0  0  0  0  0  0  0  0  0
    3.4102   -1.4042    0.0000 N   0  0  0  0  0  0  0  0  0
    2.6487   -0.0942    0.0000 C   0  0  0  0  0  0  0  0  0
    2.6487   -0.9192    0.0000 C   0  0  0  0  0  0  0  0  0
    1.9343   -1.3317    0.0000 C   0  0  0  0  0  0  0  0  0
    1.2198   -0.9192    0.0000 C   0  0  0  0  0  0  0  0  0
    1.2198   -0.0942    0.0000 C   0  0  0  0  0  0  0  0  0
    1.9343    0.3183    0.0000 C   0  0  0  0  0  0  0  0  0
    0.5053   -1.3317    0.0000 C   0  0  0  0  0  0  0  0  0
    2.6487    1.5558    0.0000 C   0  0  0  0  0  0  0  0  0
    2.6487    2.3808    0.0000 C   0  0  0  0  0  0  0  0  0
    3.3632    2.7933    0.0000 C   0  0  0  0  0  0  0  0  0
  1  2  1  0  0  0  0
  2  3  4  0  0  0  0
  2 21  4  0  0  0  0
  3  4  4  0  0  0  0
  4  5  1  0  0  0  0
  4 19  4  0  0  0  0
  5  6  1  0  0  0  0
  5 12  1  0  0  0  0
  6  7  1  0  0  0  0
  7  8  1  0  0  0  0
  7 11  2  0  0  0  0
  8  9  1  0  0  0  0
  9 10  1  0  0  0  0
 10 11  1  0  0  0  0
 12 13  4  0  0  0  0
 12 17  4  0  0  0  0
 13 14  4  0  0  0  0
 14 15  4  0  0  0  0
 15 16  4  0  0  0  0
 15 18  1  0  0  0  0
 16 17  4  0  0  0  0
 19 20  4  0  0  0  0
 20 21  4  0  0  0  0
M  END
>  <Name_Molregno>
PHENTOLAMINE

>  <5-HT1A>
5.67

>  <5-HT2A>
5.61

>  <Alpha-1A>
8.39

>  <Alpha-1B>
7.32

>  <Alpha-2A>
8.07

>  <Alpha-2B>
7.82

>  <Alpha-2C>
7.59

>  <DOPAMINE D1>
5

>  <DOPAMINE D2>
5

>  <HISTAMINE H1>
5.4

$$$$
Piribedil
  Marvin  02231216192D 0   1.00000     0.00000     0

 22 25  0  0  0  0  0  0  0  0999 V2000
   -6.9931    0.7446    0.0000 O   0  0  0  0  0  0  0  0  0
   -6.2084    0.4897    0.0000 C   0  0  0  0  0  0  0  0  0
   -5.4940    0.9022    0.0000 C   0  0  0  0  0  0  0  0  0
   -4.7795    0.4897    0.0000 C   0  0  0  0  0  0  0  0  0
   -4.7795   -0.3353    0.0000 C   0  0  0  0  0  0  0  0  0
   -5.4940   -0.7478    0.0000 C   0  0  0  0  0  0  0  0  0
   -6.2084   -0.3353    0.0000 C   0  0  0  0  0  0  0  0  0
   -6.9931   -0.5902    0.0000 O   0  0  0  0  0  0  0  0  0
   -7.4780    0.0772    0.0000 C   0  0  0  0  0  0  0  0  0
   -4.0650    0.9022    0.0000 C   0  0  0  0  0  0  0  0  0
   -3.3506    0.4897    0.0000 N   0  0  0  0  0  0  0  0  0
   -2.6361    0.9022    0.0000 C   0  0  0  0  0  0  0  0  0
   -1.9216    0.4897    0.0000 C   0  0  0  0  0  0  0  0  0
   -1.9216   -0.3353    0.0000 N   0  0  0  0  0  0  0  0  0
   -2.6361   -0.7478    0.0000 C   0  0  0  0  0  0  0  0  0
   -3.3506   -0.3353    0.0000 C   0  0  0  0  0  0  0  0  0
   -1.2071   -0.7478    0.0000 C   0  0  0  0  0  0  0  0  0
   -0.4927   -0.3353    0.0000 N   0  0  0  0  0  0  0  0  0
    0.2218   -0.7478    0.0000 C   0  0  0  0  0  0  0  0  0
    0.2218   -1.5728    0.0000 C   0  0  0  0  0  0  0  0  0
   -0.4927   -1.9853    0.0000 C   0  0  0  0  0  0  0  0  0
   -1.2071   -1.5728    0.0000 N   0  0  0  0  0  0  0  0  0
  1  2  1  0  0  0  0
  1  9  1  0  0  0  0
  2  3  4  0  0  0  0
  2  7  4  0  0  0  0
  3  4  4  0  0  0  0
  4  5  4  0  0  0  0
  4 10  1  0  0  0  0
  5  6  4  0  0  0  0
  6  7  4  0  0  0  0
  7  8  1  0  0  0  0
  8  9  1  0  0  0  0
 10 11  1  0  0  0  0
 11 12  1  0  0  0  0
 11 16  1  0  0  0  0
 12 13  1  0  0  0  0
 13 14  1  0  0  0  0
 14 15  1  0  0  0  0
 14 17  1  0  0  0  0
 15 16  1  0  0  0  0
 17 18  4  0  0  0  0
 17 22  4  0  0  0  0
 18 19  4  0  0  0  0
 19 20  4  0  0  0  0
 20 21  4  0  0  0  0
 21 22  4  0  0  0  0
M  END
>  <Name_Molregno>
Piribedil

>  <5-HT1A>
6.35

>  <5-HT1B>
5

>  <5-HT1D>
5

>  <5-HT2A>
5

>  <5-HT2C>
5

>  <Alpha-1A>
6.09

>  <Alpha-1B>
5.21

>  <Alpha-2A>
7.05

>  <Alpha-2B>
6.54

>  <Alpha-2C>
7.16

>  <Beta-1>
5

>  <Beta-2>
5

>  <DOPAMINE D1>
5

>  <DOPAMINE D2>
6.88

>  <DOPAMINE D3>
6.63

>  <DOPAMINE D4>
6.51

>  <DOPAMINE D5>
5

>  <Norepinephrine transporter>
5

$$$$
Piroxicam
  Marvin  02231216192D 0   1.00000     0.00000     0

 23 25  0  0  0  0  0  0  0  0999 V2000
    2.3267    1.3854    0.0000 S   0  0  0  0  0  0  0  0  0
    1.7964    2.0174    0.0000 O   0  0  0  0  0  0  0  0  0
    2.8570    2.0174    0.0000 O   0  0  0  0  0  0  0  0  0
    1.6123    0.9729    0.0000 N   0  0  0  0  0  0  0  0  0
    0.8978    1.3854    0.0000 C   0  0  0  0  0  0  0  0  0
    1.6123    0.1479    0.0000 C   0  0  0  0  0  0  0  0  0
    0.8978   -0.2646    0.0000 C   0  0  0  0  0  0  0  0  0
    0.1833    0.1479    0.0000 O   0  0  0  0  0  0  0  0  0
    0.8978   -1.0896    0.0000 N   0  0  0  0  0  0  0  0  0
    0.1833   -1.5021    0.0000 C   0  0  0  0  0  0  0  0  0
    0.1833   -2.3271    0.0000 N   0  0  0  0  0  0  0  0  0
   -0.5311   -2.7396    0.0000 C   0  0  0  0  0  0  0  0  0
   -1.2456   -2.3271    0.0000 C   0  0  0  0  0  0  0  0  0
   -1.2456   -1.5021    0.0000 C   0  0  0  0  0  0  0  0  0
   -0.5311   -1.0896    0.0000 C   0  0  0  0  0  0  0  0  0
    2.3267   -0.2646    0.0000 C   0  0  0  0  0  0  0  0  0
    2.3267   -1.0896    0.0000 O   0  0  0  0  0  0  0  0  0
    3.0412    0.1479    0.0000 C   0  0  0  0  0  0  0  0  0
    3.0412    0.9729    0.0000 C   0  0  0  0  0  0  0  0  0
    3.7557    1.3854    0.0000 C   0  0  0  0  0  0  0  0  0
    4.4702    0.9729    0.0000 C   0  0  0  0  0  0  0  0  0
    4.4702    0.1479    0.0000 C   0  0  0  0  0  0  0  0  0
    3.7557   -0.2646    0.0000 C   0  0  0  0  0  0  0  0  0
  1  2  2  0  0  0  0
  1  3  2  0  0  0  0
  1  4  1  0  0  0  0
  1 19  1  0  0  0  0
  4  5  1  0  0  0  0
  4  6  1  0  0  0  0
  6  7  2  0  0  0  0
  6 16  1  0  0  0  0
  7  8  1  0  0  0  0
  7  9  1  0  0  0  0
  9 10  1  0  0  0  0
 10 11  4  0  0  0  0
 10 15  4  0  0  0  0
 11 12  4  0  0  0  0
 12 13  4  0  0  0  0
 13 14  4  0  0  0  0
 14 15  4  0  0  0  0
 16 17  2  0  0  0  0
 16 18  1  0  0  0  0
 18 19  4  0  0  0  0
 18 23  4  0  0  0  0
 19 20  4  0  0  0  0
 20 21  4  0  0  0  0
 21 22  4  0  0  0  0
 22 23  4  0  0  0  0
M  END
>  <Name_Molregno>
Piroxicam

>  <5-HT1A>
5

>  <5-HT1B>
5

>  <5-HT1D>
5

>  <5-HT1E>
5

>  <5-HT2A>
5

>  <5-HT3>
5

>  <5-HT5>
5

>  <5-HT6>
5

>  <Alpha-1A>
5

>  <Alpha-1B>
5

>  <Alpha-2A>
5

>  <Alpha-2B>
5

>  <Alpha-2C>
5

>  <DOPAMINE D1>
5

>  <DOPAMINE D2>
5

>  <DOPAMINE D4>
5

>  <DOPAMINE D5>
5

>  <Dopamine transporter>
5

>  <HISTAMINE H1>
5

>  <HISTAMINE H2>
5

>  <Muscarinic acetylcholine receptor M2>
5

>  <Muscarinic acetylcholine receptor M5>
5

>  <Norepinephrine transporter>
5

>  <Serotonin transporter>
5

$$$$
PRAZOSIN
  Marvin  02231216192D 0   1.00000     0.00000     0

 28 31  0  0  0  0  0  0  0  0999 V2000
    1.9686   -3.1357    0.0000 O   0  0  0  0  0  0  0  0  0
    1.7137   -3.9204    0.0000 C   0  0  0  0  0  0  0  0  0
    0.8887   -3.9204    0.0000 C   0  0  0  0  0  0  0  0  0
    0.6338   -3.1357    0.0000 C   0  0  0  0  0  0  0  0  0
    1.3012   -2.6508    0.0000 C   0  0  0  0  0  0  0  0  0
    1.3012   -1.8258    0.0000 C   0  0  0  0  0  0  0  0  0
    0.5867   -1.4133    0.0000 O   0  0  0  0  0  0  0  0  0
    2.0157   -1.4133    0.0000 N   0  0  0  0  0  0  0  0  0
    2.0157   -0.5883    0.0000 C   0  0  0  0  0  0  0  0  0
    2.7302   -0.1758    0.0000 C   0  0  0  0  0  0  0  0  0
    3.4446   -0.5883    0.0000 N   0  0  0  0  0  0  0  0  0
    3.4446   -1.4133    0.0000 C   0  0  0  0  0  0  0  0  0
    2.7302   -1.8258    0.0000 C   0  0  0  0  0  0  0  0  0
    4.1591   -0.1758    0.0000 C   0  0  0  0  0  0  0  0  0
    4.1591    0.6492    0.0000 N   0  0  0  0  0  0  0  0  0
    4.8736    1.0617    0.0000 C   0  0  0  0  0  0  0  0  0
    4.8736    1.8867    0.0000 N   0  0  0  0  0  0  0  0  0
    5.5880    0.6492    0.0000 C   0  0  0  0  0  0  0  0  0
    6.3025    1.0617    0.0000 C   0  0  0  0  0  0  0  0  0
    7.0170    0.6492    0.0000 C   0  0  0  0  0  0  0  0  0
    7.7314    1.0617    0.0000 O   0  0  0  0  0  0  0  0  0
    7.7314    1.8867    0.0000 C   0  0  0  0  0  0  0  0  0
    7.0170   -0.1758    0.0000 C   0  0  0  0  0  0  0  0  0
    7.7314   -0.5883    0.0000 O   0  0  0  0  0  0  0  0  0
    7.7314   -1.4133    0.0000 C   0  0  0  0  0  0  0  0  0
    6.3025   -0.5883    0.0000 C   0  0  0  0  0  0  0  0  0
    5.5880   -0.1758    0.0000 C   0  0  0  0  0  0  0  0  0
    4.8736   -0.5883    0.0000 N   0  0  0  0  0  0  0  0  0
  1  2  4  0  0  0  0
  1  5  4  0  0  0  0
  2  3  4  0  0  0  0
  3  4  4  0  0  0  0
  4  5  4  0  0  0  0
  5  6  1  0  0  0  0
  6  7  2  0  0  0  0
  6  8  1  0  0  0  0
  8  9  1  0  0  0  0
  8 13  1  0  0  0  0
  9 10  1  0  0  0  0
 10 11  1  0  0  0  0
 11 12  1  0  0  0  0
 11 14  1  0  0  0  0
 12 13  1  0  0  0  0
 14 15  4  0  0  0  0
 14 28  4  0  0  0  0
 15 16  4  0  0  0  0
 16 17  1  0  0  0  0
 16 18  4  0  0  0  0
 18 19  4  0  0  0  0
 18 27  4  0  0  0  0
 19 20  4  0  0  0  0
 20 21  1  0  0  0  0
 20 23  4  0  0  0  0
 21 22  1  0  0  0  0
 23 24  1  0  0  0  0
 23 26  4  0  0  0  0
 24 25  1  0  0  0  0
 26 27  4  0  0  0  0
 27 28  4  0  0  0  0
M  END
>  <Name_Molregno>
PRAZOSIN

>  <5-HT1A>
5

>  <5-HT2A>
6.92

>  <5-HT3>
5

>  <5-HT7>
5

>  <Alpha-1A>
9.14

>  <Alpha-1B>
9.33

>  <Alpha-2A>
5.84

>  <Alpha-2B>
7.11

>  <Alpha-2C>
7.52

$$$$
PSILOCIN
  Marvin  02231216192D 0   1.00000     0.00000     0

 15 16  0  0  0  0  0  0  0  0999 V2000
    1.2794   -2.2041    0.0000 O   0  0  0  0  0  0  0  0  0
    1.2794   -1.3791    0.0000 C   0  0  0  0  0  0  0  0  0
    0.5650   -0.9666    0.0000 C   0  0  0  0  0  0  0  0  0
    0.5650   -0.1416    0.0000 C   0  0  0  0  0  0  0  0  0
   -0.2197    0.1134    0.0000 N   0  0  0  0  0  0  0  0  0
   -0.7046   -0.5541    0.0000 C   0  0  0  0  0  0  0  0  0
   -0.2197   -1.2215    0.0000 C   0  0  0  0  0  0  0  0  0
   -0.4746   -2.0061    0.0000 C   0  0  0  0  0  0  0  0  0
   -1.2816   -2.1777    0.0000 C   0  0  0  0  0  0  0  0  0
   -1.5365   -2.9623    0.0000 N   0  0  0  0  0  0  0  0  0
   -2.3435   -3.1338    0.0000 C   0  0  0  0  0  0  0  0  0
   -0.9845   -3.5754    0.0000 C   0  0  0  0  0  0  0  0  0
    1.2794    0.2709    0.0000 C   0  0  0  0  0  0  0  0  0
    1.9939   -0.1416    0.0000 C   0  0  0  0  0  0  0  0  0
    1.9939   -0.9666    0.0000 C   0  0  0  0  0  0  0  0  0
  1  2  1  0  0  0  0
  2  3  4  0  0  0  0
  2 15  4  0  0  0  0
  3  4  4  0  0  0  0
  3  7  4  0  0  0  0
  4  5  4  0  0  0  0
  4 13  4  0  0  0  0
  5  6  4  0  0  0  0
  6  7  4  0  0  0  0
  7  8  1  0  0  0  0
  8  9  1  0  0  0  0
  9 10  1  0  0  0  0
 10 11  1  0  0  0  0
 10 12  1  0  0  0  0
 13 14  4  0  0  0  0
 14 15  4  0  0  0  0
M  STY  1   1 DAT
M  SAL   1  1   5
M  SDT   1 MRV_IMPLICIT_H                                        
M  SDD   1     0.0000    0.0000    DR    ALL  0       0  
M  SED   1 IMPL_H1
M  END
>  <Name_Molregno>
PSILOCIN

>  <5-HT1A>
6.78

>  <5-HT1B>
6.66

>  <5-HT1D>
7.44

>  <5-HT1E>
7.28

>  <5-HT2A>
6.97

>  <5-HT3>
5

>  <5-HT5>
7.08

>  <5-HT6>
7.24

>  <5-HT7>
8.46

>  <Alpha-1A>
5

>  <Alpha-1B>
5

>  <Alpha-2A>
5.86

>  <Alpha-2B>
5.72

>  <Alpha-2C>
5

>  <Beta-1>
5

>  <DOPAMINE D1>
5

>  <DOPAMINE D2>
5

>  <DOPAMINE D4>
5

>  <DOPAMINE D5>
5

>  <Dopamine transporter>
5

>  <HISTAMINE H1>
6.52

>  <HISTAMINE H2>
5

>  <HISTAMINE H4>
5

>  <Muscarinic acetylcholine receptor M2>
5

>  <Muscarinic acetylcholine receptor M5>
5

>  <Norepinephrine transporter>
5

>  <Serotonin transporter>
5.42

$$$$
PSILOCYBIN
  Marvin  02231216192D 0   1.00000     0.00000     0

 19 20  0  0  0  0  0  0  0  0999 V2000
    0.6946   -2.4480    0.0000 P   0  0  0  0  0  0  0  0  0
   -0.0199   -2.0355    0.0000 O   0  0  0  0  0  0  0  0  0
   -0.0199   -1.2105    0.0000 C   0  0  0  0  0  0  0  0  0
   -0.7343   -0.7980    0.0000 C   0  0  0  0  0  0  0  0  0
   -0.7343    0.0270    0.0000 C   0  0  0  0  0  0  0  0  0
   -1.5190    0.2819    0.0000 N   0  0  0  0  0  0  0  0  0
   -2.0039   -0.3855    0.0000 C   0  0  0  0  0  0  0  0  0
   -1.5190   -1.0530    0.0000 C   0  0  0  0  0  0  0  0  0
   -1.7739   -1.8376    0.0000 C   0  0  0  0  0  0  0  0  0
   -2.5809   -2.0091    0.0000 C   0  0  0  0  0  0  0  0  0
   -2.8358   -2.7937    0.0000 N   0  0  0  0  0  0  0  0  0
   -3.6428   -2.9653    0.0000 C   0  0  0  0  0  0  0  0  0
   -2.2838   -3.4068    0.0000 C   0  0  0  0  0  0  0  0  0
   -0.0199    0.4395    0.0000 C   0  0  0  0  0  0  0  0  0
    0.6946    0.0270    0.0000 C   0  0  0  0  0  0  0  0  0
    0.6946   -0.7980    0.0000 C   0  0  0  0  0  0  0  0  0
    1.4091   -2.8605    0.0000 O   0  0  0  0  0  0  0  0  0
    0.2821   -3.1625    0.0000 O   0  0  0  0  0  0  0  0  0
    1.1071   -1.7336    0.0000 O   0  0  0  0  0  0  0  0  0
  1  2  1  0  0  0  0
  1 17  2  0  0  0  0
  1 18  1  0  0  0  0
  1 19  1  0  0  0  0
  2  3  1  0  0  0  0
  3  4  4  0  0  0  0
  3 16  4  0  0  0  0
  4  5  4  0  0  0  0
  4  8  4  0  0  0  0
  5  6  4  0  0  0  0
  5 14  4  0  0  0  0
  6  7  4  0  0  0  0
  7  8  4  0  0  0  0
  8  9  1  0  0  0  0
  9 10  1  0  0  0  0
 10 11  1  0  0  0  0
 11 12  1  0  0  0  0
 11 13  1  0  0  0  0
 14 15  4  0  0  0  0
 15 16  4  0  0  0  0
M  STY  1   1 DAT
M  SAL   1  1   6
M  SDT   1 MRV_IMPLICIT_H                                        
M  SDD   1     0.0000    0.0000    DR    ALL  0       0  
M  SED   1 IMPL_H1
M  END
>  <Name_Molregno>
PSILOCYBIN

>  <5-HT1A>
5

>  <5-HT1B>
5

>  <5-HT1D>
5.67

>  <5-HT1E>
6.71

>  <5-HT2A>
5

>  <5-HT3>
5

>  <5-HT5>
5.21

>  <5-HT6>
6.38

>  <5-HT7>
6.22

>  <Alpha-1A>
5

>  <Alpha-1B>
5

>  <Alpha-2A>
5

>  <Alpha-2B>
5

>  <Alpha-2C>
5

>  <DOPAMINE D1>
5

>  <DOPAMINE D2>
5

>  <DOPAMINE D4>
5

>  <DOPAMINE D5>
5

>  <Dopamine transporter>
5

>  <HISTAMINE H1>
5

>  <HISTAMINE H2>
5

>  <HISTAMINE H4>
5

>  <Muscarinic acetylcholine receptor M2>
5

>  <Muscarinic acetylcholine receptor M5>
5

>  <Norepinephrine transporter>
5

>  <Serotonin transporter>
5

$$$$
Quercetin
  Marvin  02231216192D 0   1.00000     0.00000     0

 22 24  0  0  0  0  0  0  0  0999 V2000
    0.2617    0.1403    0.0000 O   0  0  0  0  0  0  0  0  0
    0.9762    0.5528    0.0000 C   0  0  0  0  0  0  0  0  0
    0.9762    1.3778    0.0000 C   0  0  0  0  0  0  0  0  0
    0.2617    1.7903    0.0000 C   0  0  0  0  0  0  0  0  0
    0.2617    2.6153    0.0000 O   0  0  0  0  0  0  0  0  0
   -0.4528    1.3778    0.0000 C   0  0  0  0  0  0  0  0  0
   -1.1672    1.7903    0.0000 O   0  0  0  0  0  0  0  0  0
   -0.4528    0.5528    0.0000 C   0  0  0  0  0  0  0  0  0
   -1.1672    0.1403    0.0000 C   0  0  0  0  0  0  0  0  0
   -1.1672   -0.6847    0.0000 C   0  0  0  0  0  0  0  0  0
   -1.8817   -1.0972    0.0000 C   0  0  0  0  0  0  0  0  0
   -1.8817   -1.9222    0.0000 O   0  0  0  0  0  0  0  0  0
   -2.5962   -0.6847    0.0000 C   0  0  0  0  0  0  0  0  0
   -3.3106   -1.0972    0.0000 O   0  0  0  0  0  0  0  0  0
   -2.5962    0.1403    0.0000 C   0  0  0  0  0  0  0  0  0
   -1.8817    0.5528    0.0000 C   0  0  0  0  0  0  0  0  0
    1.6907    1.7903    0.0000 C   0  0  0  0  0  0  0  0  0
    1.6907    2.6153    0.0000 O   0  0  0  0  0  0  0  0  0
    2.4051    1.3778    0.0000 C   0  0  0  0  0  0  0  0  0
    2.4051    0.5528    0.0000 C   0  0  0  0  0  0  0  0  0
    3.1196    0.1403    0.0000 O   0  0  0  0  0  0  0  0  0
    1.6907    0.1403    0.0000 C   0  0  0  0  0  0  0  0  0
  1  2  1  0  0  0  0
  1  8  1  0  0  0  0
  2  3  4  0  0  0  0
  2 22  4  0  0  0  0
  3  4  1  0  0  0  0
  3 17  4  0  0  0  0
  4  5  2  0  0  0  0
  4  6  1  0  0  0  0
  6  7  1  0  0  0  0
  6  8  2  0  0  0  0
  8  9  1  0  0  0  0
  9 10  4  0  0  0  0
  9 16  4  0  0  0  0
 10 11  4  0  0  0  0
 11 12  1  0  0  0  0
 11 13  4  0  0  0  0
 13 14  1  0  0  0  0
 13 15  4  0  0  0  0
 15 16  4  0  0  0  0
 17 18  1  0  0  0  0
 17 19  4  0  0  0  0
 19 20  4  0  0  0  0
 20 21  1  0  0  0  0
 20 22  4  0  0  0  0
M  END
>  <Name_Molregno>
Quercetin

>  <5-HT1A>
5

>  <5-HT1D>
5

>  <5-HT3>
5

>  <5-HT5>
5

>  <5-HT6>
5

>  <5-HT7>
5

>  <Alpha-1A>
5

>  <Alpha-1B>
5

>  <Alpha-2A>
5

>  <Alpha-2B>
5

>  <Alpha-2C>
5

>  <DOPAMINE D1>
5

>  <DOPAMINE D5>
5

>  <Muscarinic acetylcholine receptor M1>
5

>  <Muscarinic acetylcholine receptor M2>
5

>  <Muscarinic acetylcholine receptor M3>
5

>  <Muscarinic acetylcholine receptor M4>
5

>  <Muscarinic acetylcholine receptor M5>
5

>  <Norepinephrine transporter>
5

>  <Serotonin transporter>
5

$$$$
Quercitrin
  Marvin  02231216192D 0   1.00000     0.00000     0

 32 35  0  0  1  0  0  0  0  0999 V2000
    1.5011    1.5398    0.0000 O   0  0  0  0  0  0  0  0  0
    1.5011    2.3648    0.0000 C   0  0  0  0  0  0  0  0  0
    2.2156    2.7773    0.0000 C   0  0  0  0  0  0  0  0  0
    0.7866    2.7773    0.0000 C   0  0  0  0  0  0  0  0  0
    0.7866    3.6023    0.0000 O   0  0  0  0  0  0  0  0  0
    0.0722    2.3648    0.0000 C   0  0  0  0  0  0  0  0  0
   -0.6423    2.7773    0.0000 O   0  0  0  0  0  0  0  0  0
    0.0722    1.5398    0.0000 C   0  0  0  0  0  0  0  0  0
   -0.6423    1.1273    0.0000 O   0  0  0  0  0  0  0  0  0
    0.7866    1.1273    0.0000 C   0  0  0  0  0  0  0  0  0
    0.7866    0.3023    0.0000 O   0  0  0  0  0  0  0  0  0
    1.5011   -0.1102    0.0000 C   0  0  0  0  0  0  0  0  0
    1.5011   -0.9352    0.0000 C   0  0  0  0  0  0  0  0  0
    2.2156   -1.3477    0.0000 O   0  0  0  0  0  0  0  0  0
    2.9300   -0.9352    0.0000 C   0  0  0  0  0  0  0  0  0
    2.9300   -0.1102    0.0000 C   0  0  0  0  0  0  0  0  0
    2.2156    0.3023    0.0000 C   0  0  0  0  0  0  0  0  0
    2.2156    1.1273    0.0000 O   0  0  0  0  0  0  0  0  0
    3.6445    0.3023    0.0000 C   0  0  0  0  0  0  0  0  0
    3.6445    1.1273    0.0000 O   0  0  0  0  0  0  0  0  0
    4.3590   -0.1102    0.0000 C   0  0  0  0  0  0  0  0  0
    4.3590   -0.9352    0.0000 C   0  0  0  0  0  0  0  0  0
    5.0734   -1.3477    0.0000 O   0  0  0  0  0  0  0  0  0
    3.6445   -1.3477    0.0000 C   0  0  0  0  0  0  0  0  0
    0.7866   -1.3477    0.0000 C   0  0  0  0  0  0  0  0  0
    0.7866   -2.1727    0.0000 C   0  0  0  0  0  0  0  0  0
    0.0722   -2.5852    0.0000 C   0  0  0  0  0  0  0  0  0
    0.0722   -3.4102    0.0000 O   0  0  0  0  0  0  0  0  0
   -0.6423   -2.1727    0.0000 C   0  0  0  0  0  0  0  0  0
   -1.3568   -2.5852    0.0000 O   0  0  0  0  0  0  0  0  0
   -0.6423   -1.3477    0.0000 C   0  0  0  0  0  0  0  0  0
    0.0722   -0.9352    0.0000 C   0  0  0  0  0  0  0  0  0
  1  2  1  0  0  0  0
  1 10  1  0  0  0  0
  2  3  1  0  0  0  0
  2  4  1  0  0  0  0
  4  5  1  0  0  0  0
  4  6  1  0  0  0  0
  6  7  1  0  0  0  0
  6  8  1  0  0  0  0
  8  9  1  0  0  0  0
  8 10  1  0  0  0  0
 10 11  1  0  0  0  0
 11 12  1  0  0  0  0
 12 13  2  0  0  0  0
 12 17  1  0  0  0  0
 13 14  1  0  0  0  0
 13 25  1  0  0  0  0
 14 15  1  0  0  0  0
 15 16  1  0  0  0  0
 15 24  2  0  0  0  0
 16 17  2  0  0  0  0
 16 19  1  0  0  0  0
 17 18  1  0  0  0  0
 19 20  1  0  0  0  0
 19 21  2  0  0  0  0
 21 22  1  0  0  0  0
 22 23  2  0  0  0  0
 22 24  1  0  0  0  0
 25 26  4  0  0  0  0
 25 32  4  0  0  0  0
 26 27  4  0  0  0  0
 27 28  1  0  0  0  0
 27 29  4  0  0  0  0
 29 30  1  0  0  0  0
 29 31  4  0  0  0  0
 31 32  4  0  0  0  0
M  END
>  <Name_Molregno>
Quercitrin

>  <5-HT1A>
5

>  <5-HT1D>
5

>  <5-HT3>
5

>  <5-HT5>
5

>  <5-HT6>
5

>  <5-HT7>
5

>  <Alpha-1A>
5

>  <Alpha-1B>
5

>  <Alpha-2A>
5

>  <Alpha-2B>
5

>  <Alpha-2C>
5

>  <DOPAMINE D1>
5

>  <DOPAMINE D5>
5

>  <Muscarinic acetylcholine receptor M1>
5

>  <Muscarinic acetylcholine receptor M2>
5

>  <Muscarinic acetylcholine receptor M3>
5

>  <Muscarinic acetylcholine receptor M4>
5

>  <Muscarinic acetylcholine receptor M5>
5

>  <Norepinephrine transporter>
5

>  <Serotonin transporter>
5

$$$$
QUETIAPINE
  Marvin  02231216192D 0   1.00000     0.00000     0

 27 30  0  0  0  0  0  0  0  0999 V2000
    0.4015    1.2563    0.0000 S   0  0  0  0  0  0  0  0  0
    1.2173    1.3793    0.0000 C   0  0  0  0  0  0  0  0  0
    1.8221    0.8181    0.0000 C   0  0  0  0  0  0  0  0  0
    2.6104    1.0613    0.0000 C   0  0  0  0  0  0  0  0  0
    2.7940    1.8656    0.0000 C   0  0  0  0  0  0  0  0  0
    2.1892    2.4268    0.0000 C   0  0  0  0  0  0  0  0  0
    1.4009    2.1836    0.0000 C   0  0  0  0  0  0  0  0  0
    1.7604   -0.0046    0.0000 C   0  0  0  0  0  0  0  0  0
    1.0788   -0.4693    0.0000 N   0  0  0  0  0  0  0  0  0
    0.2904   -0.2261    0.0000 C   0  0  0  0  0  0  0  0  0
   -0.0110    0.5418    0.0000 C   0  0  0  0  0  0  0  0  0
   -0.8268    0.6648    0.0000 C   0  0  0  0  0  0  0  0  0
   -1.3412    0.0198    0.0000 C   0  0  0  0  0  0  0  0  0
   -1.0398   -0.7482    0.0000 C   0  0  0  0  0  0  0  0  0
   -0.2240   -0.8711    0.0000 C   0  0  0  0  0  0  0  0  0
    2.4749   -0.4171    0.0000 N   0  0  0  0  0  0  0  0  0
    3.1893   -0.0046    0.0000 C   0  0  0  0  0  0  0  0  0
    3.9038   -0.4171    0.0000 C   0  0  0  0  0  0  0  0  0
    3.9038   -1.2421    0.0000 N   0  0  0  0  0  0  0  0  0
    3.1893   -1.6546    0.0000 C   0  0  0  0  0  0  0  0  0
    2.4749   -1.2421    0.0000 C   0  0  0  0  0  0  0  0  0
    4.6183   -1.6546    0.0000 C   0  0  0  0  0  0  0  0  0
    5.3328   -1.2421    0.0000 C   0  0  0  0  0  0  0  0  0
    6.0472   -1.6546    0.0000 O   0  0  0  0  0  0  0  0  0
    6.7617   -1.2421    0.0000 C   0  0  0  0  0  0  0  0  0
    7.4762   -1.6546    0.0000 C   0  0  0  0  0  0  0  0  0
    8.1906   -1.2421    0.0000 O   0  0  0  0  0  0  0  0  0
  1  2  1  0  0  0  0
  1 11  1  0  0  0  0
  2  3  4  0  0  0  0
  2  7  4  0  0  0  0
  3  4  4  0  0  0  0
  3  8  1  0  0  0  0
  4  5  4  0  0  0  0
  5  6  4  0  0  0  0
  6  7  4  0  0  0  0
  8  9  2  0  0  0  0
  8 16  1  0  0  0  0
  9 10  1  0  0  0  0
 10 11  4  0  0  0  0
 10 15  4  0  0  0  0
 11 12  4  0  0  0  0
 12 13  4  0  0  0  0
 13 14  4  0  0  0  0
 14 15  4  0  0  0  0
 16 17  1  0  0  0  0
 16 21  1  0  0  0  0
 17 18  1  0  0  0  0
 18 19  1  0  0  0  0
 19 20  1  0  0  0  0
 19 22  1  0  0  0  0
 20 21  1  0  0  0  0
 22 23  1  0  0  0  0
 23 24  1  0  0  0  0
 24 25  1  0  0  0  0
 25 26  1  0  0  0  0
 26 27  1  0  0  0  0
M  END
>  <Name_Molregno>
QUETIAPINE

>  <5-HT1A>
6.59

>  <5-HT1B>
5.83

>  <5-HT1D>
5.52

>  <5-HT1E>
5.76

>  <5-HT2A>
6.76

>  <5-HT2C>
5.82

>  <5-HT3>
5

>  <5-HT5>
5.51

>  <5-HT6>
6.35

>  <5-HT7>
6.74

>  <Alpha-1A>
7.66

>  <Alpha-1B>
7.41

>  <Alpha-2A>
5.51

>  <Alpha-2B>
6.44

>  <Alpha-2C>
7.18

>  <Beta-1>
5.15

>  <Beta-2>
5.15

>  <DOPAMINE D1>
5.95

>  <DOPAMINE D2>
6.51

>  <DOPAMINE D3>
6.59

>  <DOPAMINE D4>
5.77

>  <DOPAMINE D5>
5.79

>  <Dopamine transporter>
5

>  <HISTAMINE H1>
8.1

>  <HISTAMINE H2>
5

>  <HISTAMINE H4>
5

>  <Muscarinic acetylcholine receptor M1>
6.71

>  <Muscarinic acetylcholine receptor M2>
6.03

>  <Muscarinic acetylcholine receptor M3>
5.69

>  <Muscarinic acetylcholine receptor M4>
6.5

>  <Muscarinic acetylcholine receptor M5>
5.58

>  <Norepinephrine transporter>
5

>  <Serotonin transporter>
5.18

$$$$
RISPERIDONE
  Marvin  02231216192D 0   1.00000     0.00000     0

 30 34  0  0  0  0  0  0  0  0999 V2000
    1.8325   -2.9394    0.0000 F   0  0  0  0  0  0  0  0  0
    2.0875   -2.1548    0.0000 C   0  0  0  0  0  0  0  0  0
    1.5354   -1.5417    0.0000 C   0  0  0  0  0  0  0  0  0
    1.7904   -0.7571    0.0000 C   0  0  0  0  0  0  0  0  0
    1.3779   -0.0426    0.0000 O   0  0  0  0  0  0  0  0  0
    1.9299    0.5705    0.0000 N   0  0  0  0  0  0  0  0  0
    2.6836    0.2349    0.0000 C   0  0  0  0  0  0  0  0  0
    2.5974   -0.5856    0.0000 C   0  0  0  0  0  0  0  0  0
    3.1494   -1.1987    0.0000 C   0  0  0  0  0  0  0  0  0
    2.8945   -1.9833    0.0000 C   0  0  0  0  0  0  0  0  0
    3.3981    0.6474    0.0000 C   0  0  0  0  0  0  0  0  0
    3.3981    1.4724    0.0000 C   0  0  0  0  0  0  0  0  0
    4.1125    1.8849    0.0000 C   0  0  0  0  0  0  0  0  0
    4.8270    1.4724    0.0000 N   0  0  0  0  0  0  0  0  0
    4.8270    0.6474    0.0000 C   0  0  0  0  0  0  0  0  0
    4.1125    0.2349    0.0000 C   0  0  0  0  0  0  0  0  0
    5.5415    1.8849    0.0000 C   0  0  0  0  0  0  0  0  0
    6.2559    1.4724    0.0000 C   0  0  0  0  0  0  0  0  0
    6.9704    1.8849    0.0000 C   0  0  0  0  0  0  0  0  0
    7.6849    1.4724    0.0000 C   0  0  0  0  0  0  0  0  0
    7.6849    0.6474    0.0000 O   0  0  0  0  0  0  0  0  0
    8.3994    1.8849    0.0000 N   0  0  0  0  0  0  0  0  0
    8.3994    2.7099    0.0000 C   0  0  0  0  0  0  0  0  0
    7.6849    3.1224    0.0000 N   0  0  0  0  0  0  0  0  0
    6.9704    2.7099    0.0000 C   0  0  0  0  0  0  0  0  0
    6.2559    3.1224    0.0000 C   0  0  0  0  0  0  0  0  0
    9.1138    3.1224    0.0000 C   0  0  0  0  0  0  0  0  0
    9.8283    2.7099    0.0000 C   0  0  0  0  0  0  0  0  0
    9.8283    1.8849    0.0000 C   0  0  0  0  0  0  0  0  0
    9.1138    1.4724    0.0000 C   0  0  0  0  0  0  0  0  0
  1  2  1  0  0  0  0
  2  3  4  0  0  0  0
  2 10  4  0  0  0  0
  3  4  4  0  0  0  0
  4  5  4  0  0  0  0
  4  8  4  0  0  0  0
  5  6  4  0  0  0  0
  6  7  4  0  0  0  0
  7  8  4  0  0  0  0
  7 11  1  0  0  0  0
  8  9  4  0  0  0  0
  9 10  4  0  0  0  0
 11 12  1  0  0  0  0
 11 16  1  0  0  0  0
 12 13  1  0  0  0  0
 13 14  1  0  0  0  0
 14 15  1  0  0  0  0
 14 17  1  0  0  0  0
 15 16  1  0  0  0  0
 17 18  1  0  0  0  0
 18 19  1  0  0  0  0
 19 20  1  0  0  0  0
 19 25  2  0  0  0  0
 20 21  2  0  0  0  0
 20 22  1  0  0  0  0
 22 23  1  0  0  0  0
 22 30  1  0  0  0  0
 23 24  2  0  0  0  0
 23 27  1  0  0  0  0
 24 25  1  0  0  0  0
 25 26  1  0  0  0  0
 27 28  1  0  0  0  0
 28 29  1  0  0  0  0
 29 30  1  0  0  0  0
M  END
>  <Name_Molregno>
RISPERIDONE

>  <5-HT1A>
6.52

>  <5-HT1B>
7.66

>  <5-HT1D>
7.6

>  <5-HT1E>
5.44

>  <5-HT2A>
9.35

>  <5-HT2C>
7.74

>  <5-HT3>
5

>  <5-HT5>
6.69

>  <5-HT6>
5.7

>  <5-HT7>
8.4

>  <Alpha-1A>
8.38

>  <Alpha-1B>
8.05

>  <Alpha-2A>
7.46

>  <Alpha-2B>
7.34

>  <Alpha-2C>
8.56

>  <Beta-1>
5.15

>  <Beta-2>
5.15

>  <DOPAMINE D1>
6.61

>  <DOPAMINE D2>
8.58

>  <DOPAMINE D3>
8.17

>  <DOPAMINE D4>
8.17

>  <DOPAMINE D5>
7.03

>  <Dopamine transporter>
5

>  <HISTAMINE H1>
7.79

>  <HISTAMINE H2>
6.92

>  <HISTAMINE H4>
5

>  <Muscarinic acetylcholine receptor M1>
5.22

>  <Muscarinic acetylcholine receptor M2>
5.14

>  <Muscarinic acetylcholine receptor M3>
5

>  <Muscarinic acetylcholine receptor M4>
5.18

>  <Muscarinic acetylcholine receptor M5>
5

>  <Norepinephrine transporter>
5

>  <Serotonin transporter>
5.67

$$$$
ROFECOXIB
  Marvin  02231216192D 0   1.00000     0.00000     0

 22 24  0  0  0  0  0  0  0  0999 V2000
   -1.7307    1.7900    0.0000 S   0  0  0  0  0  0  0  0  0
   -1.7307    2.6150    0.0000 O   0  0  0  0  0  0  0  0  0
   -2.5557    1.7900    0.0000 O   0  0  0  0  0  0  0  0  0
   -0.9057    1.7900    0.0000 C   0  0  0  0  0  0  0  0  0
   -1.7307    0.9650    0.0000 C   0  0  0  0  0  0  0  0  0
   -1.0163    0.5525    0.0000 C   0  0  0  0  0  0  0  0  0
   -1.0163   -0.2725    0.0000 C   0  0  0  0  0  0  0  0  0
   -1.7307   -0.6850    0.0000 C   0  0  0  0  0  0  0  0  0
   -2.4452   -0.2725    0.0000 C   0  0  0  0  0  0  0  0  0
   -2.4452    0.5525    0.0000 C   0  0  0  0  0  0  0  0  0
   -1.7307   -1.5100    0.0000 C   0  0  0  0  0  0  0  0  0
   -1.0633   -1.9950    0.0000 C   0  0  0  0  0  0  0  0  0
   -1.3182   -2.7796    0.0000 O   0  0  0  0  0  0  0  0  0
   -2.1432   -2.7796    0.0000 C   0  0  0  0  0  0  0  0  0
   -2.6282   -3.4470    0.0000 O   0  0  0  0  0  0  0  0  0
   -2.3982   -1.9950    0.0000 C   0  0  0  0  0  0  0  0  0
   -3.1828   -1.7400    0.0000 C   0  0  0  0  0  0  0  0  0
   -3.7959   -2.2920    0.0000 C   0  0  0  0  0  0  0  0  0
   -4.5805   -2.0371    0.0000 C   0  0  0  0  0  0  0  0  0
   -4.7520   -1.2301    0.0000 C   0  0  0  0  0  0  0  0  0
   -4.1390   -0.6781    0.0000 C   0  0  0  0  0  0  0  0  0
   -3.3543   -0.9330    0.0000 C   0  0  0  0  0  0  0  0  0
  1  2  2  0  0  0  0
  1  3  2  0  0  0  0
  1  4  1  0  0  0  0
  1  5  1  0  0  0  0
  5  6  4  0  0  0  0
  5 10  4  0  0  0  0
  6  7  4  0  0  0  0
  7  8  4  0  0  0  0
  8  9  4  0  0  0  0
  8 11  1  0  0  0  0
  9 10  4  0  0  0  0
 11 12  1  0  0  0  0
 11 16  2  0  0  0  0
 12 13  1  0  0  0  0
 13 14  1  0  0  0  0
 14 15  2  0  0  0  0
 14 16  1  0  0  0  0
 16 17  1  0  0  0  0
 17 18  4  0  0  0  0
 17 22  4  0  0  0  0
 18 19  4  0  0  0  0
 19 20  4  0  0  0  0
 20 21  4  0  0  0  0
 21 22  4  0  0  0  0
M  END
>  <Name_Molregno>
ROFECOXIB

>  <5-HT1A>
5

>  <5-HT1B>
5

>  <5-HT1D>
5

>  <5-HT1E>
5

>  <5-HT2A>
5

>  <5-HT3>
5

>  <5-HT6>
5

>  <5-HT7>
5

>  <Alpha-1A>
5

>  <Alpha-1B>
5

>  <Alpha-2A>
5

>  <Alpha-2B>
5

>  <Alpha-2C>
5

>  <DOPAMINE D1>
5

>  <DOPAMINE D2>
5

>  <DOPAMINE D5>
5

>  <Dopamine transporter>
5

>  <HISTAMINE H2>
5

>  <Muscarinic acetylcholine receptor M2>
5

>  <Muscarinic acetylcholine receptor M5>
5

>  <Norepinephrine transporter>
5

>  <Serotonin transporter>
5

$$$$
Ropinirole
  Marvin  02231216192D 0   1.00000     0.00000     0

 19 20  0  0  0  0  0  0  0  0999 V2000
    0.9619   -1.7047    0.0000 O   0  0  0  0  0  0  0  0  0
    1.7869   -1.7047    0.0000 C   0  0  0  0  0  0  0  0  0
    2.2718   -2.3721    0.0000 N   0  0  0  0  0  0  0  0  0
    3.0565   -2.1172    0.0000 C   0  0  0  0  0  0  0  0  0
    3.0565   -1.2922    0.0000 C   0  0  0  0  0  0  0  0  0
    2.2718   -1.0372    0.0000 C   0  0  0  0  0  0  0  0  0
    3.7709   -0.8797    0.0000 C   0  0  0  0  0  0  0  0  0
    4.4854   -1.2922    0.0000 C   0  0  0  0  0  0  0  0  0
    4.4854   -2.1172    0.0000 C   0  0  0  0  0  0  0  0  0
    3.7709   -2.5297    0.0000 C   0  0  0  0  0  0  0  0  0
    3.7709   -0.0547    0.0000 C   0  0  0  0  0  0  0  0  0
    3.0565    0.3578    0.0000 C   0  0  0  0  0  0  0  0  0
    3.0565    1.1828    0.0000 N   0  0  0  0  0  0  0  0  0
    2.3420    1.5953    0.0000 C   0  0  0  0  0  0  0  0  0
    2.3420    2.4203    0.0000 C   0  0  0  0  0  0  0  0  0
    1.6275    2.8328    0.0000 C   0  0  0  0  0  0  0  0  0
    3.7709    1.5953    0.0000 C   0  0  0  0  0  0  0  0  0
    3.7709    2.4203    0.0000 C   0  0  0  0  0  0  0  0  0
    4.4854    2.8328    0.0000 C   0  0  0  0  0  0  0  0  0
  1  2  2  0  0  0  0
  2  3  1  0  0  0  0
  2  6  1  0  0  0  0
  3  4  1  0  0  0  0
  4  5  4  0  0  0  0
  4 10  4  0  0  0  0
  5  6  1  0  0  0  0
  5  7  4  0  0  0  0
  7  8  4  0  0  0  0
  7 11  1  0  0  0  0
  8  9  4  0  0  0  0
  9 10  4  0  0  0  0
 11 12  1  0  0  0  0
 12 13  1  0  0  0  0
 13 14  1  0  0  0  0
 13 17  1  0  0  0  0
 14 15  1  0  0  0  0
 15 16  1  0  0  0  0
 17 18  1  0  0  0  0
 18 19  1  0  0  0  0
M  END
>  <Name_Molregno>
Ropinirole

>  <5-HT1A>
6.28

>  <5-HT1B>
5

>  <5-HT1D>
5.86

>  <5-HT2A>
5

>  <5-HT2C>
5

>  <5-HT5>
5

>  <5-HT6>
5

>  <5-HT7>
5.82

>  <Alpha-1A>
5

>  <Alpha-1B>
5

>  <Alpha-2A>
5.73

>  <Alpha-2B>
6.12

>  <Alpha-2C>
5.92

>  <Beta-1>
5

>  <Beta-2>
5

>  <DOPAMINE D1>
5

>  <DOPAMINE D2>
6.45

>  <DOPAMINE D3>
7.5

>  <DOPAMINE D4>
6.07

>  <DOPAMINE D5>
5

$$$$
Roxindole
  Marvin  02231216192D 0   1.00000     0.00000     0

 26 29  0  0  0  0  0  0  0  0999 V2000
   -0.4898   -0.6830    0.0000 O   0  0  0  0  0  0  0  0  0
   -1.2043   -0.2705    0.0000 C   0  0  0  0  0  0  0  0  0
   -1.9188   -0.6830    0.0000 C   0  0  0  0  0  0  0  0  0
   -2.6332   -0.2705    0.0000 C   0  0  0  0  0  0  0  0  0
   -2.6332    0.5545    0.0000 C   0  0  0  0  0  0  0  0  0
   -3.4179    0.8095    0.0000 N   0  0  0  0  0  0  0  0  0
   -3.9028    0.1420    0.0000 C   0  0  0  0  0  0  0  0  0
   -3.4179   -0.5254    0.0000 C   0  0  0  0  0  0  0  0  0
   -3.6728   -1.3100    0.0000 C   0  0  0  0  0  0  0  0  0
   -3.1208   -1.9231    0.0000 C   0  0  0  0  0  0  0  0  0
   -3.3757   -2.7077    0.0000 C   0  0  0  0  0  0  0  0  0
   -2.8237   -3.3208    0.0000 C   0  0  0  0  0  0  0  0  0
   -3.0786   -4.1055    0.0000 N   0  0  0  0  0  0  0  0  0
   -2.5266   -4.7185    0.0000 C   0  0  0  0  0  0  0  0  0
   -2.7815   -5.5032    0.0000 C   0  0  0  0  0  0  0  0  0
   -3.5885   -5.6747    0.0000 C   0  0  0  0  0  0  0  0  0
   -4.1405   -5.0616    0.0000 C   0  0  0  0  0  0  0  0  0
   -3.8856   -4.2770    0.0000 C   0  0  0  0  0  0  0  0  0
   -3.8434   -6.4593    0.0000 C   0  0  0  0  0  0  0  0  0
   -3.2914   -7.0724    0.0000 C   0  0  0  0  0  0  0  0  0
   -3.5463   -7.8570    0.0000 C   0  0  0  0  0  0  0  0  0
   -4.3533   -8.0286    0.0000 C   0  0  0  0  0  0  0  0  0
   -4.9053   -7.4155    0.0000 C   0  0  0  0  0  0  0  0  0
   -4.6504   -6.6308    0.0000 C   0  0  0  0  0  0  0  0  0
   -1.9188    0.9670    0.0000 C   0  0  0  0  0  0  0  0  0
   -1.2043    0.5545    0.0000 C   0  0  0  0  0  0  0  0  0
  1  2  1  0  0  0  0
  2  3  4  0  0  0  0
  2 26  4  0  0  0  0
  3  4  4  0  0  0  0
  4  5  4  0  0  0  0
  4  8  4  0  0  0  0
  5  6  4  0  0  0  0
  5 25  4  0  0  0  0
  6  7  4  0  0  0  0
  7  8  4  0  0  0  0
  8  9  1  0  0  0  0
  9 10  1  0  0  0  0
 10 11  1  0  0  0  0
 11 12  1  0  0  0  0
 12 13  1  0  0  0  0
 13 14  1  0  0  0  0
 13 18  1  0  0  0  0
 14 15  1  0  0  0  0
 15 16  1  0  0  0  0
 16 17  2  0  0  0  0
 16 19  1  0  0  0  0
 17 18  1  0  0  0  0
 19 20  4  0  0  0  0
 19 24  4  0  0  0  0
 20 21  4  0  0  0  0
 21 22  4  0  0  0  0
 22 23  4  0  0  0  0
 23 24  4  0  0  0  0
 25 26  4  0  0  0  0
M  STY  1   1 DAT
M  SAL   1  1   6
M  SDT   1 MRV_IMPLICIT_H                                        
M  SDD   1     0.0000    0.0000    DR    ALL  0       0  
M  SED   1 IMPL_H1
M  END
>  <Name_Molregno>
Roxindole

>  <5-HT1A>
9.94

>  <5-HT1D>
7.2

>  <5-HT2A>
8.18

>  <5-HT2C>
6.51

>  <Alpha-1A>
8.59

>  <Alpha-1B>
8.55

>  <Alpha-2A>
8.21

>  <Alpha-2B>
8.34

>  <Alpha-2C>
8.75

>  <Beta-1>
5.57

>  <Beta-2>
6.03

>  <DOPAMINE D1>
6.33

>  <DOPAMINE D2>
8.45

>  <DOPAMINE D3>
8.93

>  <DOPAMINE D4>
8.23

>  <DOPAMINE D5>
6.72

$$$$
Rutin
  Marvin  02231216192D 0   1.00000     0.00000     0

 43 47  0  0  1  0  0  0  0  0999 V2000
   -0.5116   -0.2044    0.0000 O   0  0  0  0  0  0  0  0  0
   -0.5116    0.6206    0.0000 C   0  0  0  0  0  0  0  0  0
    0.2029    1.0331    0.0000 C   0  0  0  0  0  0  0  0  0
    0.2029    1.8581    0.0000 O   0  0  0  0  0  0  0  0  0
    0.9173    2.2706    0.0000 C   0  0  0  0  0  0  0  0  0
    0.9173    3.0956    0.0000 O   0  0  0  0  0  0  0  0  0
    1.6318    3.5081    0.0000 C   0  0  0  0  0  0  0  0  0
    1.6318    4.3331    0.0000 C   0  0  0  0  0  0  0  0  0
    2.3463    3.0956    0.0000 C   0  0  0  0  0  0  0  0  0
    3.0608    3.5081    0.0000 O   0  0  0  0  0  0  0  0  0
    2.3463    2.2706    0.0000 C   0  0  0  0  0  0  0  0  0
    3.0608    1.8581    0.0000 O   0  0  0  0  0  0  0  0  0
    1.6318    1.8581    0.0000 C   0  0  0  0  0  0  0  0  0
    1.6318    1.0331    0.0000 O   0  0  0  0  0  0  0  0  0
   -1.2261    1.0331    0.0000 C   0  0  0  0  0  0  0  0  0
   -1.2261    1.8581    0.0000 O   0  0  0  0  0  0  0  0  0
   -1.9405    0.6206    0.0000 C   0  0  0  0  0  0  0  0  0
   -2.6550    1.0331    0.0000 O   0  0  0  0  0  0  0  0  0
   -1.9405   -0.2044    0.0000 C   0  0  0  0  0  0  0  0  0
   -2.6550   -0.6169    0.0000 O   0  0  0  0  0  0  0  0  0
   -1.2261   -0.6169    0.0000 C   0  0  0  0  0  0  0  0  0
   -1.2261   -1.4419    0.0000 O   0  0  0  0  0  0  0  0  0
   -0.5116   -1.8544    0.0000 C   0  0  0  0  0  0  0  0  0
   -0.5116   -2.6794    0.0000 C   0  0  0  0  0  0  0  0  0
    0.2029   -3.0919    0.0000 O   0  0  0  0  0  0  0  0  0
    0.9173   -2.6794    0.0000 C   0  0  0  0  0  0  0  0  0
    0.9173   -1.8544    0.0000 C   0  0  0  0  0  0  0  0  0
    0.2029   -1.4419    0.0000 C   0  0  0  0  0  0  0  0  0
    0.2029   -0.6169    0.0000 O   0  0  0  0  0  0  0  0  0
    1.6318   -1.4419    0.0000 C   0  0  0  0  0  0  0  0  0
    1.6318   -0.6169    0.0000 O   0  0  0  0  0  0  0  0  0
    2.3463   -1.8544    0.0000 C   0  0  0  0  0  0  0  0  0
    2.3463   -2.6794    0.0000 C   0  0  0  0  0  0  0  0  0
    3.0608   -3.0919    0.0000 O   0  0  0  0  0  0  0  0  0
    1.6318   -3.0919    0.0000 C   0  0  0  0  0  0  0  0  0
   -1.2261   -3.0919    0.0000 C   0  0  0  0  0  0  0  0  0
   -1.2261   -3.9169    0.0000 C   0  0  0  0  0  0  0  0  0
   -1.9405   -4.3294    0.0000 C   0  0  0  0  0  0  0  0  0
   -1.9405   -5.1544    0.0000 O   0  0  0  0  0  0  0  0  0
   -2.6550   -3.9169    0.0000 C   0  0  0  0  0  0  0  0  0
   -3.3695   -4.3294    0.0000 O   0  0  0  0  0  0  0  0  0
   -2.6550   -3.0919    0.0000 C   0  0  0  0  0  0  0  0  0
   -1.9405   -2.6794    0.0000 C   0  0  0  0  0  0  0  0  0
  1  2  1  0  0  0  0
  1 21  1  0  0  0  0
  2  3  1  0  0  0  0
  2 15  1  0  0  0  0
  3  4  1  0  0  0  0
  4  5  1  0  0  0  0
  5  6  1  0  0  0  0
  5 13  1  0  0  0  0
  6  7  1  0  0  0  0
  7  8  1  0  0  0  0
  7  9  1  0  0  0  0
  9 10  1  0  0  0  0
  9 11  1  0  0  0  0
 11 12  1  0  0  0  0
 11 13  1  0  0  0  0
 13 14  1  0  0  0  0
 15 16  1  0  0  0  0
 15 17  1  0  0  0  0
 17 18  1  0  0  0  0
 17 19  1  0  0  0  0
 19 20  1  0  0  0  0
 19 21  1  0  0  0  0
 21 22  1  0  0  0  0
 22 23  1  0  0  0  0
 23 24  2  0  0  0  0
 23 28  1  0  0  0  0
 24 25  1  0  0  0  0
 24 36  1  0  0  0  0
 25 26  1  0  0  0  0
 26 27  4  0  0  0  0
 26 35  4  0  0  0  0
 27 28  1  0  0  0  0
 27 30  4  0  0  0  0
 28 29  2  0  0  0  0
 30 31  1  0  0  0  0
 30 32  4  0  0  0  0
 32 33  4  0  0  0  0
 33 34  1  0  0  0  0
 33 35  4  0  0  0  0
 36 37  4  0  0  0  0
 36 43  4  0  0  0  0
 37 38  4  0  0  0  0
 38 39  1  0  0  0  0
 38 40  4  0  0  0  0
 40 41  1  0  0  0  0
 40 42  4  0  0  0  0
 42 43  4  0  0  0  0
M  END
>  <Name_Molregno>
Rutin

>  <5-HT1A>
5

>  <5-HT1D>
5

>  <5-HT3>
5

>  <5-HT5>
5

>  <5-HT6>
5

>  <5-HT7>
5

>  <Alpha-1A>
5

>  <Alpha-1B>
5

>  <Alpha-2A>
5.03

>  <Alpha-2B>
5

>  <Alpha-2C>
5.02

>  <DOPAMINE D1>
5

>  <DOPAMINE D5>
5

>  <Muscarinic acetylcholine receptor M1>
5

>  <Muscarinic acetylcholine receptor M2>
5

>  <Muscarinic acetylcholine receptor M3>
5

>  <Muscarinic acetylcholine receptor M4>
5

>  <Muscarinic acetylcholine receptor M5>
7.45

>  <Norepinephrine transporter>
5

>  <Serotonin transporter>
5

$$$$
SalvinorinA
  Marvin  02231216192D 0   1.00000     0.00000     0

 31 34  0  0  1  0  0  0  0  0999 V2000
   -4.2035   -1.1582    0.0000 O   0  0  0  0  0  0  0  0  0
   -3.7910   -1.8727    0.0000 C   0  0  0  0  0  0  0  0  0
   -2.9660   -1.8727    0.0000 C   0  0  0  0  0  0  0  0  0
   -2.5535   -1.1582    0.0000 C   0  0  0  0  0  0  0  0  0
   -1.7285   -1.1582    0.0000 C   0  0  0  0  0  0  0  0  0
   -1.3160   -0.4437    0.0000 C   0  0  0  0  0  0  0  0  0
   -1.7285    0.2708    0.0000 C   0  0  0  0  0  0  0  0  0
   -2.5535    0.2708    0.0000 C   0  0  0  0  0  0  0  0  0
   -2.9660   -0.4437    0.0000 C   0  0  0  0  0  0  0  0  0
   -3.7910   -0.4437    0.0000 C   0  0  0  0  0  0  0  0  0
   -4.2035    0.2708    0.0000 O   0  0  0  0  0  0  0  0  0
   -0.9035    0.2708    0.0000 C   0  0  0  0  0  0  0  0  0
   -0.4910   -0.4437    0.0000 C   0  0  0  0  0  0  0  0  0
   -0.0785   -1.1582    0.0000 C   0  0  0  0  0  0  0  0  0
   -0.4910   -1.8727    0.0000 C   0  0  0  0  0  0  0  0  0
   -0.0785   -2.5871    0.0000 O   0  0  0  0  0  0  0  0  0
    0.7465   -2.5871    0.0000 C   0  0  0  0  0  0  0  0  0
    1.1590   -3.3016    0.0000 O   0  0  0  0  0  0  0  0  0
    1.1590   -1.8727    0.0000 C   0  0  0  0  0  0  0  0  0
   -1.3160   -1.8727    0.0000 C   0  0  0  0  0  0  0  0  0
   -1.7285   -2.5871    0.0000 O   0  0  0  0  0  0  0  0  0
   -0.0785    0.2708    0.0000 C   0  0  0  0  0  0  0  0  0
   -0.4910    0.9852    0.0000 O   0  0  0  0  0  0  0  0  0
   -0.0785    1.6997    0.0000 C   0  0  0  0  0  0  0  0  0
    0.7465    0.2708    0.0000 O   0  0  0  0  0  0  0  0  0
   -2.1410   -1.8727    0.0000 C   0  0  0  0  0  0  0  0  0
   -4.2035   -2.5871    0.0000 C   0  0  0  0  0  0  0  0  0
   -3.8680   -3.3408    0.0000 C   0  0  0  0  0  0  0  0  0
   -4.4811   -3.8928    0.0000 C   0  0  0  0  0  0  0  0  0
   -5.1956   -3.4803    0.0000 O   0  0  0  0  0  0  0  0  0
   -5.0240   -2.6734    0.0000 C   0  0  0  0  0  0  0  0  0
  1  2  1  0  0  0  0
  1 10  1  0  0  0  0
  2  3  1  0  0  0  0
  2 27  1  0  0  0  0
  3  4  1  0  0  0  0
  4  5  1  0  0  0  0
  4  9  1  0  0  0  0
  4 26  1  0  0  0  0
  5  6  1  0  0  0  0
  5 20  1  0  0  0  0
  6  7  1  0  0  0  0
  6 12  1  0  0  0  0
  6 13  1  0  0  0  0
  7  8  1  0  0  0  0
  8  9  1  0  0  0  0
  9 10  1  0  0  0  0
 10 11  2  0  0  0  0
 13 14  1  0  0  0  0
 13 22  1  0  0  0  0
 14 15  1  0  0  0  0
 15 16  1  0  0  0  0
 15 20  1  0  0  0  0
 16 17  1  0  0  0  0
 17 18  2  0  0  0  0
 17 19  1  0  0  0  0
 20 21  2  0  0  0  0
 22 23  1  0  0  0  0
 22 25  2  0  0  0  0
 23 24  1  0  0  0  0
 27 28  4  0  0  0  0
 27 31  4  0  0  0  0
 28 29  4  0  0  0  0
 29 30  4  0  0  0  0
 30 31  4  0  0  0  0
M  END
>  <Name_Molregno>
SalvinorinA

>  <5-HT1A>
5

>  <5-HT1B>
5

>  <5-HT1D>
5

>  <5-HT1E>
5

>  <5-HT3>
5

>  <5-HT5>
5

>  <5-HT6>
5

>  <5-HT7>
5

>  <Alpha-1A>
5

>  <Alpha-1B>
5

>  <DOPAMINE D1>
5

>  <DOPAMINE D2>
5

>  <DOPAMINE D3>
5

>  <DOPAMINE D5>
5

>  <HISTAMINE H1>
5

>  <Muscarinic acetylcholine receptor M1>
5

>  <Muscarinic acetylcholine receptor M2>
5

>  <Muscarinic acetylcholine receptor M3>
5

>  <Muscarinic acetylcholine receptor M4>
5

>  <Muscarinic acetylcholine receptor M5>
5

>  <Serotonin transporter>
5

$$$$
SPIPERONE
  Marvin  02231216192D 0   1.00000     0.00000     0

 29 32  0  0  0  0  0  0  0  0999 V2000
   10.5422    0.0060    0.0000 F   0  0  0  0  0  0  0  0  0
    9.7172    0.0060    0.0000 C   0  0  0  0  0  0  0  0  0
    9.3047   -0.7084    0.0000 C   0  0  0  0  0  0  0  0  0
    8.4797   -0.7084    0.0000 C   0  0  0  0  0  0  0  0  0
    8.0672    0.0060    0.0000 C   0  0  0  0  0  0  0  0  0
    8.4797    0.7205    0.0000 C   0  0  0  0  0  0  0  0  0
    9.3047    0.7205    0.0000 C   0  0  0  0  0  0  0  0  0
    7.2422    0.0060    0.0000 C   0  0  0  0  0  0  0  0  0
    6.8297    0.7205    0.0000 O   0  0  0  0  0  0  0  0  0
    6.8297   -0.7084    0.0000 C   0  0  0  0  0  0  0  0  0
    6.0047   -0.7084    0.0000 C   0  0  0  0  0  0  0  0  0
    5.5922   -1.4229    0.0000 C   0  0  0  0  0  0  0  0  0
    4.7672   -1.4229    0.0000 N   0  0  0  0  0  0  0  0  0
    4.3547   -2.1374    0.0000 C   0  0  0  0  0  0  0  0  0
    3.5297   -2.1374    0.0000 C   0  0  0  0  0  0  0  0  0
    3.1172   -1.4229    0.0000 C   0  0  0  0  0  0  0  0  0
    2.6323   -2.0903    0.0000 N   0  0  0  0  0  0  0  0  0
    1.8476   -1.8354    0.0000 C   0  0  0  0  0  0  0  0  0
    1.8476   -1.0104    0.0000 N   0  0  0  0  0  0  0  0  0
    2.6323   -0.7555    0.0000 C   0  0  0  0  0  0  0  0  0
    2.8872    0.0292    0.0000 O   0  0  0  0  0  0  0  0  0
    2.8872   -2.8750    0.0000 C   0  0  0  0  0  0  0  0  0
    3.6942   -3.0465    0.0000 C   0  0  0  0  0  0  0  0  0
    3.9491   -3.8311    0.0000 C   0  0  0  0  0  0  0  0  0
    3.3971   -4.4442    0.0000 C   0  0  0  0  0  0  0  0  0
    2.5901   -4.2727    0.0000 C   0  0  0  0  0  0  0  0  0
    2.3352   -3.4880    0.0000 C   0  0  0  0  0  0  0  0  0
    3.5297   -0.7084    0.0000 C   0  0  0  0  0  0  0  0  0
    4.3547   -0.7084    0.0000 C   0  0  0  0  0  0  0  0  0
  1  2  1  0  0  0  0
  2  3  4  0  0  0  0
  2  7  4  0  0  0  0
  3  4  4  0  0  0  0
  4  5  4  0  0  0  0
  5  6  4  0  0  0  0
  5  8  1  0  0  0  0
  6  7  4  0  0  0  0
  8  9  2  0  0  0  0
  8 10  1  0  0  0  0
 10 11  1  0  0  0  0
 11 12  1  0  0  0  0
 12 13  1  0  0  0  0
 13 14  1  0  0  0  0
 13 29  1  0  0  0  0
 14 15  1  0  0  0  0
 15 16  1  0  0  0  0
 16 17  1  0  0  0  0
 16 20  1  0  0  0  0
 16 28  1  0  0  0  0
 17 18  1  0  0  0  0
 17 22  1  0  0  0  0
 18 19  1  0  0  0  0
 19 20  1  0  0  0  0
 20 21  2  0  0  0  0
 22 23  4  0  0  0  0
 22 27  4  0  0  0  0
 23 24  4  0  0  0  0
 24 25  4  0  0  0  0
 25 26  4  0  0  0  0
 26 27  4  0  0  0  0
 28 29  1  0  0  0  0
M  END
>  <Name_Molregno>
SPIPERONE

>  <5-HT1A>
7

>  <5-HT1B>
5.5

>  <5-HT1D>
5.4

>  <5-HT1E>
5.3

>  <5-HT2A>
8.65

>  <5-HT2C>
6.12

>  <5-HT5>
4.2

>  <5-HT6>
5.8

>  <5-HT7>
7.17

>  <Alpha-1A>
7.9

>  <Alpha-1B>
8.51

>  <DOPAMINE D1>
6.42

>  <DOPAMINE D2>
10.02

>  <DOPAMINE D3>
9.55

>  <DOPAMINE D4>
9.31

>  <DOPAMINE D5>
5.35

>  <HISTAMINE H1>
6.4

$$$$
TAMSULOSIN
  Marvin  02231216192D 0   1.00000     0.00000     0

 28 29  0  0  1  0  0  0  0  0999 V2000
   -0.1258   -0.0053    0.0000 S   0  0  0  0  0  0  0  0  0
   -0.8402    0.4072    0.0000 O   0  0  0  0  0  0  0  0  0
   -0.5383   -0.7198    0.0000 O   0  0  0  0  0  0  0  0  0
    0.2867    0.7091    0.0000 N   0  0  0  0  0  0  0  0  0
    0.5887   -0.4178    0.0000 C   0  0  0  0  0  0  0  0  0
    1.3032   -0.0053    0.0000 C   0  0  0  0  0  0  0  0  0
    2.0176   -0.4178    0.0000 C   0  0  0  0  0  0  0  0  0
    2.0176   -1.2428    0.0000 C   0  0  0  0  0  0  0  0  0
    1.3032   -1.6553    0.0000 C   0  0  0  0  0  0  0  0  0
    0.5887   -1.2428    0.0000 C   0  0  0  0  0  0  0  0  0
   -0.1258   -1.6553    0.0000 O   0  0  0  0  0  0  0  0  0
   -0.1258   -2.4803    0.0000 C   0  0  0  0  0  0  0  0  0
    2.7321   -0.0053    0.0000 C   0  0  0  0  0  0  0  0  0
    3.4466   -0.4178    0.0000 C   0  0  0  0  0  0  0  0  0
    4.1611   -0.0053    0.0000 N   0  0  0  0  0  0  0  0  0
    4.8755   -0.4178    0.0000 C   0  0  0  0  0  0  0  0  0
    5.5900   -0.0053    0.0000 C   0  0  0  0  0  0  0  0  0
    6.3045   -0.4178    0.0000 O   0  0  0  0  0  0  0  0  0
    7.0189   -0.0053    0.0000 C   0  0  0  0  0  0  0  0  0
    7.0189    0.8197    0.0000 C   0  0  0  0  0  0  0  0  0
    7.7334    1.2322    0.0000 C   0  0  0  0  0  0  0  0  0
    8.4479    0.8197    0.0000 C   0  0  0  0  0  0  0  0  0
    8.4479   -0.0053    0.0000 C   0  0  0  0  0  0  0  0  0
    7.7334   -0.4178    0.0000 C   0  0  0  0  0  0  0  0  0
    7.7334   -1.2428    0.0000 O   0  0  0  0  0  0  0  0  0
    8.4479   -1.6553    0.0000 C   0  0  0  0  0  0  0  0  0
    9.1624   -1.2428    0.0000 C   0  0  0  0  0  0  0  0  0
    3.4466   -1.2428    0.0000 C   0  0  0  0  0  0  0  0  0
  1  2  2  0  0  0  0
  1  3  2  0  0  0  0
  1  4  1  0  0  0  0
  1  5  1  0  0  0  0
  5  6  4  0  0  0  0
  5 10  4  0  0  0  0
  6  7  4  0  0  0  0
  7  8  4  0  0  0  0
  7 13  1  0  0  0  0
  8  9  4  0  0  0  0
  9 10  4  0  0  0  0
 10 11  1  0  0  0  0
 11 12  1  0  0  0  0
 13 14  1  0  0  0  0
 14 15  1  0  0  0  0
 14 28  1  0  0  0  0
 15 16  1  0  0  0  0
 16 17  1  0  0  0  0
 17 18  1  0  0  0  0
 18 19  1  0  0  0  0
 19 20  4  0  0  0  0
 19 24  4  0  0  0  0
 20 21  4  0  0  0  0
 21 22  4  0  0  0  0
 22 23  4  0  0  0  0
 23 24  4  0  0  0  0
 24 25  1  0  0  0  0
 25 26  1  0  0  0  0
 26 27  1  0  0  0  0
M  END
>  <Name_Molregno>
TAMSULOSIN

>  <Alpha-1A>
9.82

>  <Alpha-1B>
8.77

$$$$
TERGURIDE
  Marvin  02231216192D 0   1.00000     0.00000     0

 25 28  0  0  1  0  0  0  0  0999 V2000
   -0.3965   -3.1617    0.0000 O   0  0  0  0  0  0  0  0  0
    0.3175   -3.5751    0.0000 C   0  0  0  0  0  0  0  0  0
    1.0325   -3.1634    0.0000 N   0  0  0  0  0  0  0  0  0
    1.0334   -2.3384    0.0000 C   0  0  0  0  0  0  0  0  0
    1.7484   -1.9268    0.0000 C   0  0  0  0  0  0  0  0  0
    1.7494   -1.1018    0.0000 C   0  0  0  0  0  0  0  0  0
    1.0354   -0.6884    0.0000 C   0  0  0  0  0  0  0  0  0
    0.3205   -1.1001    0.0000 N   0  0  0  0  0  0  0  0  0
    0.3195   -1.9251    0.0000 C   0  0  0  0  0  0  0  0  0
   -0.3935   -0.6867    0.0000 C   0  0  0  0  0  0  0  0  0
    1.0369    0.1357    0.0000 C   0  0  0  0  0  0  0  0  0
    1.7494    0.5482    0.0000 C   0  0  0  0  0  0  0  0  0
    2.4619    0.1357    0.0000 C   0  0  0  0  0  0  0  0  0
    2.4619   -0.6893    0.0000 C   0  0  0  0  0  0  0  0  0
    3.1798   -1.1018    0.0000 C   0  0  0  0  0  0  0  0  0
    3.8923   -0.6893    0.0000 C   0  0  0  0  0  0  0  0  0
    3.8923    0.1357    0.0000 C   0  0  0  0  0  0  0  0  0
    3.1798    0.5482    0.0000 C   0  0  0  0  0  0  0  0  0
    2.8744    1.4054    0.0000 N   0  0  0  0  0  0  0  0  0
    2.0494    1.4054    0.0000 C   0  0  0  0  0  0  0  0  0
    0.3165   -4.4001    0.0000 N   0  0  0  0  0  0  0  0  0
   -0.3985   -4.8117    0.0000 C   0  0  0  0  0  0  0  0  0
   -0.3994   -5.6367    0.0000 C   0  0  0  0  0  0  0  0  0
    1.0305   -4.8134    0.0000 C   0  0  0  0  0  0  0  0  0
    1.0295   -5.6384    0.0000 C   0  0  0  0  0  0  0  0  0
  1  2  2  0  0  0  0
  2  3  1  0  0  0  0
  2 21  1  0  0  0  0
  3  4  1  0  0  0  0
  4  5  1  0  0  0  0
  4  9  1  0  0  0  0
  5  6  1  0  0  0  0
  6  7  1  0  0  0  0
  6 14  1  0  0  0  0
  7  8  1  0  0  0  0
  7 11  1  0  0  0  0
  8  9  1  0  0  0  0
  8 10  1  0  0  0  0
 11 12  1  0  0  0  0
 12 13  4  0  0  0  0
 12 20  4  0  0  0  0
 13 14  4  0  0  0  0
 13 18  4  0  0  0  0
 14 15  4  0  0  0  0
 15 16  4  0  0  0  0
 16 17  4  0  0  0  0
 17 18  4  0  0  0  0
 18 19  4  0  0  0  0
 19 20  4  0  0  0  0
 21 22  1  0  0  0  0
 21 24  1  0  0  0  0
 22 23  1  0  0  0  0
 24 25  1  0  0  0  0
M  STY  1   1 DAT
M  SAL   1  1  19
M  SDT   1 MRV_IMPLICIT_H                                        
M  SDD   1     0.0000    0.0000    DR    ALL  0       0  
M  SED   1 IMPL_H1
M  END
>  <Name_Molregno>
TERGURIDE

>  <5-HT1A>
8.46

>  <5-HT1B>
6.59

>  <5-HT1D>
7.79

>  <5-HT2A>
8.32

>  <5-HT2C>
7.32

>  <Alpha-1A>
8.45

>  <Alpha-1B>
7.46

>  <Alpha-2A>
9.53

>  <Alpha-2B>
9.35

>  <Alpha-2C>
9.12

>  <Beta-1>
6.18

>  <Beta-2>
7.7

>  <DOPAMINE D1>
7.55

>  <DOPAMINE D2>
9.06

>  <DOPAMINE D3>
9

>  <DOPAMINE D4>
8.18

>  <DOPAMINE D5>
7.63

$$$$
THIORIDAZINE
  Marvin  02231216192D 0   1.00000     0.00000     0

 25 28  0  0  1  0  0  0  0  0999 V2000
    1.0601   -0.3753    0.0000 S   0  0  0  0  0  0  0  0  0
    1.7746    0.0372    0.0000 C   0  0  0  0  0  0  0  0  0
    1.7746    0.8622    0.0000 C   0  0  0  0  0  0  0  0  0
    1.0601    1.2747    0.0000 N   0  0  0  0  0  0  0  0  0
    0.3456    0.8622    0.0000 C   0  0  0  0  0  0  0  0  0
    0.3456    0.0372    0.0000 C   0  0  0  0  0  0  0  0  0
   -0.3689   -0.3753    0.0000 C   0  0  0  0  0  0  0  0  0
   -1.0833    0.0372    0.0000 C   0  0  0  0  0  0  0  0  0
   -1.0833    0.8622    0.0000 C   0  0  0  0  0  0  0  0  0
   -0.3689    1.2747    0.0000 C   0  0  0  0  0  0  0  0  0
    1.0601    2.0997    0.0000 C   0  0  0  0  0  0  0  0  0
    0.3456    2.5122    0.0000 C   0  0  0  0  0  0  0  0  0
    0.3456    3.3372    0.0000 C   0  0  0  0  0  0  0  0  0
   -0.3689    3.7497    0.0000 N   0  0  0  0  0  0  0  0  0
   -0.3689    4.5747    0.0000 C   0  0  0  0  0  0  0  0  0
    0.3456    4.9872    0.0000 C   0  0  0  0  0  0  0  0  0
    1.0601    4.5747    0.0000 C   0  0  0  0  0  0  0  0  0
    1.0601    3.7497    0.0000 C   0  0  0  0  0  0  0  0  0
   -1.0833    3.3372    0.0000 C   0  0  0  0  0  0  0  0  0
    2.4890    1.2747    0.0000 C   0  0  0  0  0  0  0  0  0
    3.2035    0.8622    0.0000 C   0  0  0  0  0  0  0  0  0
    3.9180    1.2747    0.0000 S   0  0  0  0  0  0  0  0  0
    3.9180    2.0997    0.0000 C   0  0  0  0  0  0  0  0  0
    3.2035    0.0372    0.0000 C   0  0  0  0  0  0  0  0  0
    2.4890   -0.3753    0.0000 C   0  0  0  0  0  0  0  0  0
  1  2  1  0  0  0  0
  1  6  1  0  0  0  0
  2  3  4  0  0  0  0
  2 25  4  0  0  0  0
  3  4  1  0  0  0  0
  3 20  4  0  0  0  0
  4  5  1  0  0  0  0
  4 11  1  0  0  0  0
  5  6  4  0  0  0  0
  5 10  4  0  0  0  0
  6  7  4  0  0  0  0
  7  8  4  0  0  0  0
  8  9  4  0  0  0  0
  9 10  4  0  0  0  0
 11 12  1  0  0  0  0
 12 13  1  0  0  0  0
 13 14  1  0  0  0  0
 13 18  1  0  0  0  0
 14 15  1  0  0  0  0
 14 19  1  0  0  0  0
 15 16  1  0  0  0  0
 16 17  1  0  0  0  0
 17 18  1  0  0  0  0
 20 21  4  0  0  0  0
 21 22  1  0  0  0  0
 21 24  4  0  0  0  0
 22 23  1  0  0  0  0
 24 25  4  0  0  0  0
M  END
>  <Name_Molregno>
THIORIDAZINE

>  <5-HT1A>
6.85

>  <5-HT1B>
6.96

>  <5-HT1D>
6.24

>  <5-HT1E>
6.71

>  <5-HT2A>
7.95

>  <5-HT2C>
7.28

>  <5-HT3>
5

>  <5-HT5>
6.44

>  <5-HT6>
7.24

>  <5-HT7>
7.05

>  <Alpha-1A>
8.6

>  <Alpha-1B>
8.62

>  <Alpha-2A>
6.87

>  <Alpha-2B>
6.47

>  <Alpha-2C>
7.13

>  <Beta-1>
5

>  <Beta-2>
5

>  <DOPAMINE D1>
7.03

>  <DOPAMINE D2>
8.31

>  <DOPAMINE D3>
8.59

>  <DOPAMINE D4>
8.21

>  <DOPAMINE D5>
6.6

>  <Dopamine transporter>
5.77

>  <HISTAMINE H1>
7.79

>  <HISTAMINE H2>
6.87

>  <HISTAMINE H4>
5.62

>  <Muscarinic acetylcholine receptor M1>
8.21

>  <Muscarinic acetylcholine receptor M2>
7.26

>  <Muscarinic acetylcholine receptor M3>
7.6

>  <Muscarinic acetylcholine receptor M4>
7.38

>  <Muscarinic acetylcholine receptor M5>
7.9

>  <Norepinephrine transporter>
6.07

>  <Serotonin transporter>
5.9

$$$$
VALDECOXIB
  Marvin  02231216192D 0   1.00000     0.00000     0

 22 24  0  0  0  0  0  0  0  0999 V2000
   -2.8104    3.0816    0.0000 S   0  0  0  0  0  0  0  0  0
   -2.8104    3.9066    0.0000 O   0  0  0  0  0  0  0  0  0
   -3.6354    3.0816    0.0000 O   0  0  0  0  0  0  0  0  0
   -1.9854    3.0816    0.0000 N   0  0  0  0  0  0  0  0  0
   -2.8104    2.2566    0.0000 C   0  0  0  0  0  0  0  0  0
   -2.0959    1.8441    0.0000 C   0  0  0  0  0  0  0  0  0
   -2.0959    1.0191    0.0000 C   0  0  0  0  0  0  0  0  0
   -2.8104    0.6066    0.0000 C   0  0  0  0  0  0  0  0  0
   -3.5249    1.0191    0.0000 C   0  0  0  0  0  0  0  0  0
   -3.5249    1.8441    0.0000 C   0  0  0  0  0  0  0  0  0
   -2.8104   -0.2184    0.0000 C   0  0  0  0  0  0  0  0  0
   -2.1430   -0.7033    0.0000 C   0  0  0  0  0  0  0  0  0
   -2.3979   -1.4879    0.0000 N   0  0  0  0  0  0  0  0  0
   -3.2229   -1.4879    0.0000 O   0  0  0  0  0  0  0  0  0
   -3.4778   -0.7033    0.0000 C   0  0  0  0  0  0  0  0  0
   -4.2625   -0.4483    0.0000 C   0  0  0  0  0  0  0  0  0
   -1.3583   -0.4483    0.0000 C   0  0  0  0  0  0  0  0  0
   -1.1868    0.3586    0.0000 C   0  0  0  0  0  0  0  0  0
   -0.4022    0.6136    0.0000 C   0  0  0  0  0  0  0  0  0
    0.2109    0.0615    0.0000 C   0  0  0  0  0  0  0  0  0
    0.0394   -0.7454    0.0000 C   0  0  0  0  0  0  0  0  0
   -0.7452   -1.0004    0.0000 C   0  0  0  0  0  0  0  0  0
  1  2  2  0  0  0  0
  1  3  2  0  0  0  0
  1  4  1  0  0  0  0
  1  5  1  0  0  0  0
  5  6  4  0  0  0  0
  5 10  4  0  0  0  0
  6  7  4  0  0  0  0
  7  8  4  0  0  0  0
  8  9  4  0  0  0  0
  8 11  1  0  0  0  0
  9 10  4  0  0  0  0
 11 12  4  0  0  0  0
 11 15  4  0  0  0  0
 12 13  4  0  0  0  0
 12 17  1  0  0  0  0
 13 14  4  0  0  0  0
 14 15  4  0  0  0  0
 15 16  1  0  0  0  0
 17 18  4  0  0  0  0
 17 22  4  0  0  0  0
 18 19  4  0  0  0  0
 19 20  4  0  0  0  0
 20 21  4  0  0  0  0
 21 22  4  0  0  0  0
M  END
>  <Name_Molregno>
VALDECOXIB

>  <5-HT1A>
5

>  <5-HT1B>
5

>  <5-HT1D>
5

>  <5-HT1E>
5

>  <5-HT2A>
5

>  <5-HT3>
5

>  <5-HT6>
5

>  <5-HT7>
5

>  <Alpha-1A>
5

>  <Alpha-1B>
5

>  <Alpha-2A>
5

>  <Alpha-2B>
5

>  <Alpha-2C>
5

>  <DOPAMINE D1>
5

>  <DOPAMINE D2>
5

>  <DOPAMINE D5>
5

>  <Dopamine transporter>
5

>  <HISTAMINE H1>
5

>  <HISTAMINE H2>
5

>  <Muscarinic acetylcholine receptor M2>
5

>  <Muscarinic acetylcholine receptor M5>
5

>  <Serotonin transporter>
5

$$$$
valeryl-salicylate
  Marvin  02231216192D 0   1.00000     0.00000     0

 16 16  0  0  0  0  0  0  0  0999 V2000
   -0.4431    0.9218    0.0000 O   0  0  0  0  0  0  0  0  0
    0.2714    1.3343    0.0000 C   0  0  0  0  0  0  0  0  0
    0.2714    2.1593    0.0000 O   0  0  0  0  0  0  0  0  0
    0.9859    0.9218    0.0000 C   0  0  0  0  0  0  0  0  0
    1.7003    1.3343    0.0000 C   0  0  0  0  0  0  0  0  0
    2.4148    0.9218    0.0000 C   0  0  0  0  0  0  0  0  0
    2.4148    0.0968    0.0000 C   0  0  0  0  0  0  0  0  0
   -0.4431    0.0968    0.0000 C   0  0  0  0  0  0  0  0  0
    0.2714   -0.3157    0.0000 C   0  0  0  0  0  0  0  0  0
    0.2714   -1.1407    0.0000 C   0  0  0  0  0  0  0  0  0
   -0.4431   -1.5532    0.0000 C   0  0  0  0  0  0  0  0  0
   -1.1576   -1.1407    0.0000 C   0  0  0  0  0  0  0  0  0
   -1.1576   -0.3157    0.0000 C   0  0  0  0  0  0  0  0  0
   -1.8720    0.0968    0.0000 C   0  0  0  0  0  0  0  0  0
   -2.5865   -0.3157    0.0000 O   0  0  0  0  0  0  0  0  0
   -1.8720    0.9218    0.0000 O   0  0  0  0  0  0  0  0  0
  1  2  1  0  0  0  0
  1  8  1  0  0  0  0
  2  3  2  0  0  0  0
  2  4  1  0  0  0  0
  4  5  1  0  0  0  0
  5  6  1  0  0  0  0
  6  7  1  0  0  0  0
  8  9  4  0  0  0  0
  8 13  4  0  0  0  0
  9 10  4  0  0  0  0
 10 11  4  0  0  0  0
 11 12  4  0  0  0  0
 12 13  4  0  0  0  0
 13 14  1  0  0  0  0
 14 15  1  0  0  0  0
 14 16  2  0  0  0  0
M  END
>  <Name_Molregno>
valeryl-salicylate

>  <5-HT1A>
5

>  <5-HT1B>
5

>  <5-HT1D>
5

>  <5-HT1E>
5

>  <5-HT2A>
5

>  <5-HT3>
5

>  <5-HT5>
5

>  <5-HT6>
5

>  <5-HT7>
5

>  <Alpha-1A>
5

>  <Alpha-1B>
5

>  <Alpha-2A>
5

>  <Alpha-2B>
5

>  <Alpha-2C>
5

>  <DOPAMINE D1>
5

>  <DOPAMINE D2>
5

>  <DOPAMINE D4>
5

>  <DOPAMINE D5>
5

>  <HISTAMINE H1>
5

>  <HISTAMINE H2>
5

>  <HISTAMINE H4>
5

>  <Muscarinic acetylcholine receptor M2>
5

>  <Muscarinic acetylcholine receptor M5>
5

$$$$
ZIPRASIDONE
  Marvin  02231216192D 0   1.00000     0.00000     0

 28 32  0  0  0  0  0  0  0  0999 V2000
   -5.2868    0.2535    0.0000 Cl  0  0  0  0  0  0  0  0  0
   -4.7347    0.8666    0.0000 C   0  0  0  0  0  0  0  0  0
   -4.9897    1.6513    0.0000 C   0  0  0  0  0  0  0  0  0
   -4.4376    2.2643    0.0000 C   0  0  0  0  0  0  0  0  0
   -4.5239    3.0848    0.0000 N   0  0  0  0  0  0  0  0  0
   -3.7702    3.4204    0.0000 C   0  0  0  0  0  0  0  0  0
   -3.5987    4.2274    0.0000 O   0  0  0  0  0  0  0  0  0
   -3.2182    2.8073    0.0000 C   0  0  0  0  0  0  0  0  0
   -3.6307    2.0928    0.0000 C   0  0  0  0  0  0  0  0  0
   -3.3757    1.3082    0.0000 C   0  0  0  0  0  0  0  0  0
   -3.9278    0.6951    0.0000 C   0  0  0  0  0  0  0  0  0
   -3.6728   -0.0895    0.0000 C   0  0  0  0  0  0  0  0  0
   -2.8658   -0.2610    0.0000 C   0  0  0  0  0  0  0  0  0
   -2.6109   -1.0457    0.0000 N   0  0  0  0  0  0  0  0  0
   -1.8039   -1.2172    0.0000 C   0  0  0  0  0  0  0  0  0
   -1.5490   -2.0018    0.0000 C   0  0  0  0  0  0  0  0  0
   -2.1010   -2.6149    0.0000 N   0  0  0  0  0  0  0  0  0
   -2.9080   -2.4434    0.0000 C   0  0  0  0  0  0  0  0  0
   -3.1629   -1.6588    0.0000 C   0  0  0  0  0  0  0  0  0
   -1.8461   -3.3995    0.0000 C   0  0  0  0  0  0  0  0  0
   -2.3310   -4.0670    0.0000 N   0  0  0  0  0  0  0  0  0
   -1.8461   -4.7344    0.0000 S   0  0  0  0  0  0  0  0  0
   -1.0615   -4.4795    0.0000 C   0  0  0  0  0  0  0  0  0
   -1.0615   -3.6545    0.0000 C   0  0  0  0  0  0  0  0  0
   -0.3470   -3.2420    0.0000 C   0  0  0  0  0  0  0  0  0
    0.3675   -3.6545    0.0000 C   0  0  0  0  0  0  0  0  0
    0.3675   -4.4795    0.0000 C   0  0  0  0  0  0  0  0  0
   -0.3470   -4.8920    0.0000 C   0  0  0  0  0  0  0  0  0
  1  2  1  0  0  0  0
  2  3  4  0  0  0  0
  2 11  4  0  0  0  0
  3  4  4  0  0  0  0
  4  5  1  0  0  0  0
  4  9  4  0  0  0  0
  5  6  1  0  0  0  0
  6  7  2  0  0  0  0
  6  8  1  0  0  0  0
  8  9  1  0  0  0  0
  9 10  4  0  0  0  0
 10 11  4  0  0  0  0
 11 12  1  0  0  0  0
 12 13  1  0  0  0  0
 13 14  1  0  0  0  0
 14 15  1  0  0  0  0
 14 19  1  0  0  0  0
 15 16  1  0  0  0  0
 16 17  1  0  0  0  0
 17 18  1  0  0  0  0
 17 20  1  0  0  0  0
 18 19  1  0  0  0  0
 20 21  4  0  0  0  0
 20 24  4  0  0  0  0
 21 22  4  0  0  0  0
 22 23  4  0  0  0  0
 23 24  4  0  0  0  0
 23 28  4  0  0  0  0
 24 25  4  0  0  0  0
 25 26  4  0  0  0  0
 26 27  4  0  0  0  0
 27 28  4  0  0  0  0
M  END
>  <Name_Molregno>
ZIPRASIDONE

>  <5-HT1A>
8.19

>  <5-HT1B>
8.7

>  <5-HT1D>
8.32

>  <5-HT1E>
6.17

>  <5-HT2A>
9.54

>  <5-HT2C>
8.82

>  <5-HT3>
5.7

>  <5-HT5>
6.54

>  <5-HT6>
7.17

>  <5-HT7>
8.23

>  <Alpha-1A>
7.74

>  <Alpha-1B>
8.05

>  <Alpha-2A>
6.8

>  <Alpha-2B>
7.32

>  <Alpha-2C>
7.15

>  <Beta-1>
5.3

>  <Beta-2>
5.15

>  <DOPAMINE D1>
7.1

>  <DOPAMINE D2>
8.39

>  <DOPAMINE D3>
8.21

>  <DOPAMINE D4>
7.43

>  <DOPAMINE D5>
6.82

>  <Dopamine transporter>
5

>  <HISTAMINE H1>
7.51

>  <HISTAMINE H2>
5.46

>  <HISTAMINE H4>
5

>  <Muscarinic acetylcholine receptor M1>
5.53

>  <Muscarinic acetylcholine receptor M2>
5.26

>  <Muscarinic acetylcholine receptor M3>
5.3

>  <Muscarinic acetylcholine receptor M4>
5.4

>  <Muscarinic acetylcholine receptor M5>
5.4

>  <Norepinephrine transporter>
7.36

>  <Serotonin transporter>
6.92

$$$$
ZOTEPINE
  Marvin  02231216192D 0   1.00000     0.00000     0

 22 24  0  0  0  0  0  0  0  0999 V2000
    1.8575   -4.4413    0.0000 Cl  0  0  0  0  0  0  0  0  0
    1.0691   -4.1981    0.0000 C   0  0  0  0  0  0  0  0  0
    0.8856   -3.3938    0.0000 C   0  0  0  0  0  0  0  0  0
    0.0972   -3.1507    0.0000 C   0  0  0  0  0  0  0  0  0
   -0.5076   -3.7118    0.0000 C   0  0  0  0  0  0  0  0  0
   -1.3233   -3.5888    0.0000 S   0  0  0  0  0  0  0  0  0
   -1.7358   -2.8744    0.0000 C   0  0  0  0  0  0  0  0  0
   -1.4344   -2.1064    0.0000 C   0  0  0  0  0  0  0  0  0
   -0.6461   -1.8632    0.0000 C   0  0  0  0  0  0  0  0  0
    0.0356   -2.3280    0.0000 C   0  0  0  0  0  0  0  0  0
    0.7500   -1.9155    0.0000 O   0  0  0  0  0  0  0  0  0
    1.4645   -2.3280    0.0000 C   0  0  0  0  0  0  0  0  0
    2.1790   -1.9155    0.0000 C   0  0  0  0  0  0  0  0  0
    2.8934   -2.3280    0.0000 N   0  0  0  0  0  0  0  0  0
    3.6079   -1.9155    0.0000 C   0  0  0  0  0  0  0  0  0
    2.8934   -3.1530    0.0000 C   0  0  0  0  0  0  0  0  0
   -1.9488   -1.4614    0.0000 C   0  0  0  0  0  0  0  0  0
   -2.7646   -1.5843    0.0000 C   0  0  0  0  0  0  0  0  0
   -3.0660   -2.3523    0.0000 C   0  0  0  0  0  0  0  0  0
   -2.5516   -2.9973    0.0000 C   0  0  0  0  0  0  0  0  0
   -0.3240   -4.5161    0.0000 C   0  0  0  0  0  0  0  0  0
    0.4644   -4.7593    0.0000 C   0  0  0  0  0  0  0  0  0
  1  2  1  0  0  0  0
  2  3  4  0  0  0  0
  2 22  4  0  0  0  0
  3  4  4  0  0  0  0
  4  5  4  0  0  0  0
  4 10  1  0  0  0  0
  5  6  1  0  0  0  0
  5 21  4  0  0  0  0
  6  7  1  0  0  0  0
  7  8  4  0  0  0  0
  7 20  4  0  0  0  0
  8  9  1  0  0  0  0
  8 17  4  0  0  0  0
  9 10  2  0  0  0  0
 10 11  1  0  0  0  0
 11 12  1  0  0  0  0
 12 13  1  0  0  0  0
 13 14  1  0  0  0  0
 14 15  1  0  0  0  0
 14 16  1  0  0  0  0
 17 18  4  0  0  0  0
 18 19  4  0  0  0  0
 19 20  4  0  0  0  0
 21 22  4  0  0  0  0
M  END
>  <Name_Molregno>
ZOTEPINE

>  <5-HT1A>
6.41

>  <5-HT1B>
7.23

>  <5-HT1D>
7.02

>  <5-HT1E>
6.23

>  <5-HT2A>
8.58

>  <5-HT2C>
8.49

>  <5-HT3>
6.33

>  <5-HT5>
7.54

>  <5-HT6>
8.22

>  <5-HT7>
7.92

>  <Alpha-1A>
8.15

>  <Alpha-1B>
8.3

>  <Alpha-2A>
6.68

>  <Alpha-2B>
8.27

>  <Alpha-2C>
7.02

>  <Beta-1>
5.19

>  <Beta-2>
5.32

>  <DOPAMINE D1>
7.15

>  <DOPAMINE D2>
7.98

>  <DOPAMINE D3>
8.19

>  <DOPAMINE D4>
7.57

>  <DOPAMINE D5>
6.61

>  <Dopamine transporter>
5.44

>  <HISTAMINE H1>
8.64

>  <HISTAMINE H2>
6.3

>  <HISTAMINE H4>
5.7

>  <Muscarinic acetylcholine receptor M1>
6.37

>  <Muscarinic acetylcholine receptor M2>
5.92

>  <Muscarinic acetylcholine receptor M3>
6.07

>  <Muscarinic acetylcholine receptor M4>
6.06

>  <Muscarinic acetylcholine receptor M5>
5.8

>  <Norepinephrine transporter>
6.28

>  <Serotonin transporter>
6.41

$$$$
