2724
  Marvin  02231216192D 0   1.00000     0.00000     0

 16 17  0  0  1  0  0  0  0  0999 V2000
    1.7558    2.8334    0.0000 O   0  0  0  0  0  0  0  0  0
    1.7558    2.0084    0.0000 C   0  0  0  0  0  0  0  0  0
    2.4703    1.5959    0.0000 C   0  0  0  0  0  0  0  0  0
    2.4703    0.7709    0.0000 C   0  0  0  0  0  0  0  0  0
    1.7558    0.3584    0.0000 C   0  0  0  0  0  0  0  0  0
    1.0413    0.7709    0.0000 C   0  0  0  0  0  0  0  0  0
    1.0413    1.5959    0.0000 C   0  0  0  0  0  0  0  0  0
    3.1847    0.3584    0.0000 C   0  0  0  0  0  0  0  0  0
    3.8992    0.7709    0.0000 C   0  0  0  0  0  0  0  0  0
    4.6137    0.3584    0.0000 C   0  0  0  0  0  0  0  0  0
    4.6137   -0.4666    0.0000 C   0  0  0  0  0  0  0  0  0
    3.8992   -0.8791    0.0000 N   0  0  0  0  0  0  0  0  0
    3.1847   -0.4666    0.0000 C   0  0  0  0  0  0  0  0  0
    3.8992   -1.7041    0.0000 C   0  0  0  0  0  0  0  0  0
    3.1847   -2.1166    0.0000 C   0  0  0  0  0  0  0  0  0
    3.1847   -2.9416    0.0000 C   0  0  0  0  0  0  0  0  0
  1  2  1  0  0  0  0
  2  3  4  0  0  0  0
  2  7  4  0  0  0  0
  3  4  4  0  0  0  0
  4  5  4  0  0  0  0
  4  8  1  0  0  0  0
  5  6  4  0  0  0  0
  6  7  4  0  0  0  0
  8  9  1  0  0  0  0
  8 13  1  0  0  0  0
  9 10  1  0  0  0  0
 10 11  1  0  0  0  0
 11 12  1  0  0  0  0
 12 13  1  0  0  0  0
 12 14  1  0  0  0  0
 14 15  1  0  0  0  0
 15 16  1  0  0  0  0
M  END
>  <Name_Molregno>
2724

>  <5-HT1A>
5.73

>  <5-HT1E>
5

>  <5-HT3>
5

>  <5-HT5>
5

>  <5-HT6>
5

>  <Alpha-1A>
5

>  <Alpha-1B>
5

>  <Beta-2>
5

>  <DOPAMINE D1>
5

>  <DOPAMINE D2>
6.47

>  <DOPAMINE D3>
6.93

>  <DOPAMINE D4>
6.29

>  <DOPAMINE D5>
5.31

>  <Dopamine transporter>
5

>  <Muscarinic acetylcholine receptor M1>
5

>  <Muscarinic acetylcholine receptor M2>
5

>  <Muscarinic acetylcholine receptor M3>
5

>  <Muscarinic acetylcholine receptor M4>
5

>  <Muscarinic acetylcholine receptor M5>
5

>  <Norepinephrine transporter>
5.64

>  <Serotonin transporter>
5

$$$$
4259
  Marvin  02231216192D 0   1.00000     0.00000     0

 27 31  0  0  1  0  0  0  0  0999 V2000
   -0.2544   -2.3296    0.0000 O   0  0  0  0  0  0  0  0  0
    0.3866   -1.8102    0.0000 C   0  0  0  0  0  0  0  0  0
    0.8114   -1.1029    0.0000 C   0  0  0  0  0  0  0  0  0
    1.6362   -1.1171    0.0000 C   0  0  0  0  0  0  0  0  0
    2.0364   -1.8386    0.0000 N   0  0  0  0  0  0  0  0  0
    1.6117   -2.5458    0.0000 C   0  0  0  0  0  0  0  0  0
    0.7868   -2.5317    0.0000 C   0  0  0  0  0  0  0  0  0
    2.8613   -1.8527    0.0000 C   0  0  0  0  0  0  0  0  0
    3.1740   -1.1970    0.0000 C   0  0  0  0  0  0  0  0  0
    2.8858   -0.4240    0.0000 C   0  0  0  0  0  0  0  0  0
    2.0609   -0.4098    0.0000 C   0  0  0  0  0  0  0  0  0
    1.6608    0.3116    0.0000 C   0  0  0  0  0  0  0  0  0
    2.0855    1.0189    0.0000 C   0  0  0  0  0  0  0  0  0
    2.9104    1.0047    0.0000 C   0  0  0  0  0  0  0  0  0
    3.3105    0.2833    0.0000 C   0  0  0  0  0  0  0  0  0
    4.1283    0.3922    0.0000 C   0  0  0  0  0  0  0  0  0
    4.7234   -0.1792    0.0000 C   0  0  0  0  0  0  0  0  0
    4.6476   -1.0008    0.0000 C   0  0  0  0  0  0  0  0  0
    3.9581   -1.4537    0.0000 C   0  0  0  0  0  0  0  0  0
    4.0056   -2.2773    0.0000 C   0  0  0  0  0  0  0  0  0
    4.7426   -2.6480    0.0000 C   0  0  0  0  0  0  0  0  0
    5.4321   -2.1951    0.0000 C   0  0  0  0  0  0  0  0  0
    5.3846   -1.3714    0.0000 C   0  0  0  0  0  0  0  0  0
   -0.2361   -1.2691    0.0000 C   0  0  0  0  0  0  0  0  0
   -0.8589   -0.7281    0.0000 C   0  0  0  0  0  0  0  0  0
    0.3049   -0.6464    0.0000 C   0  0  0  0  0  0  0  0  0
   -0.7772   -1.8919    0.0000 C   0  0  0  0  0  0  0  0  0
  1  2  1  0  0  0  0
  2  3  1  0  0  0  0
  2  7  1  0  0  0  0
  2 24  1  0  0  0  0
  3  4  1  0  0  0  0
  4  5  1  0  0  0  0
  4 11  1  0  0  0  0
  5  6  1  0  0  0  0
  5  8  1  0  0  0  0
  6  7  1  0  0  0  0
  8  9  1  0  0  0  0
  9 10  1  0  0  0  0
  9 19  1  0  0  0  0
 10 11  4  0  0  0  0
 10 15  4  0  0  0  0
 11 12  4  0  0  0  0
 12 13  4  0  0  0  0
 13 14  4  0  0  0  0
 14 15  4  0  0  0  0
 15 16  1  0  0  0  0
 16 17  1  0  0  0  0
 17 18  1  0  0  0  0
 18 19  4  0  0  0  0
 18 23  4  0  0  0  0
 19 20  4  0  0  0  0
 20 21  4  0  0  0  0
 21 22  4  0  0  0  0
 22 23  4  0  0  0  0
 24 25  1  0  0  0  0
 24 26  1  0  0  0  0
 24 27  1  0  0  0  0
M  END
>  <Name_Molregno>
4259

>  <5-HT1A>
6.08

>  <5-HT2A>
8.67

>  <DOPAMINE D1>
8.63

>  <DOPAMINE D2>
8.72

>  <DOPAMINE D3>
8.22

>  <DOPAMINE D4>
7.2

>  <DOPAMINE D5>
7.57

>  <HISTAMINE H1>
6.55

$$$$
4778
  Marvin  02231216192D 0   1.00000     0.00000     0

 20 22  0  0  1  0  0  0  0  0999 V2000
    0.1938   -0.4763    0.0000 Cl  0  0  0  0  0  0  0  0  0
    0.9083   -0.0638    0.0000 C   0  0  0  0  0  0  0  0  0
    1.6227   -0.4763    0.0000 C   0  0  0  0  0  0  0  0  0
    2.3372   -0.0638    0.0000 C   0  0  0  0  0  0  0  0  0
    2.3372    0.7612    0.0000 C   0  0  0  0  0  0  0  0  0
    1.6227    1.1737    0.0000 C   0  0  0  0  0  0  0  0  0
    0.9083    0.7612    0.0000 C   0  0  0  0  0  0  0  0  0
    0.1938    1.1737    0.0000 O   0  0  0  0  0  0  0  0  0
    2.9822    1.2756    0.0000 C   0  0  0  0  0  0  0  0  0
    3.7865    1.0920    0.0000 C   0  0  0  0  0  0  0  0  0
    4.1445    0.3487    0.0000 N   0  0  0  0  0  0  0  0  0
    3.7865   -0.3946    0.0000 C   0  0  0  0  0  0  0  0  0
    2.9822   -0.5782    0.0000 C   0  0  0  0  0  0  0  0  0
    4.9695    0.3487    0.0000 C   0  0  0  0  0  0  0  0  0
    2.7986    2.0799    0.0000 C   0  0  0  0  0  0  0  0  0
    2.0103    2.3230    0.0000 C   0  0  0  0  0  0  0  0  0
    1.8267    3.1274    0.0000 C   0  0  0  0  0  0  0  0  0
    2.4315    3.6885    0.0000 C   0  0  0  0  0  0  0  0  0
    3.2198    3.4453    0.0000 C   0  0  0  0  0  0  0  0  0
    3.4034    2.6410    0.0000 C   0  0  0  0  0  0  0  0  0
  1  2  1  0  0  0  0
  2  3  4  0  0  0  0
  2  7  4  0  0  0  0
  3  4  4  0  0  0  0
  4  5  4  0  0  0  0
  4 13  1  0  0  0  0
  5  6  4  0  0  0  0
  5  9  1  0  0  0  0
  6  7  4  0  0  0  0
  7  8  1  0  0  0  0
  9 10  1  0  0  0  0
  9 15  1  0  0  0  0
 10 11  1  0  0  0  0
 11 12  1  0  0  0  0
 11 14  1  0  0  0  0
 12 13  1  0  0  0  0
 15 16  4  0  0  0  0
 15 20  4  0  0  0  0
 16 17  4  0  0  0  0
 17 18  4  0  0  0  0
 18 19  4  0  0  0  0
 19 20  4  0  0  0  0
M  END
>  <Name_Molregno>
4778

>  <5-HT1A>
6.18

>  <5-HT2A>
7.88

>  <5-HT2C>
7.39

>  <5-HT3>
5

>  <DOPAMINE D1>
8.84

>  <DOPAMINE D2>
6.09

>  <DOPAMINE D3>
5.65

>  <DOPAMINE D4>
5.51

>  <DOPAMINE D5>
8.49

>  <HISTAMINE H1>
7

$$$$
16396
  Marvin  02231216192D 0   1.00000     0.00000     0

 37 41  0  0  0  0  0  0  0  0999 V2000
    9.4469    5.2044    0.0000 O   0  0  0  0  0  0  0  0  0
    9.1920    4.4198    0.0000 N   0  0  0  0  0  0  0  0  0
    8.3670    4.4198    0.0000 C   0  0  0  0  0  0  0  0  0
    8.1121    5.2044    0.0000 N   0  0  0  0  0  0  0  0  0
    8.7795    5.6894    0.0000 C   0  0  0  0  0  0  0  0  0
    8.7795    6.5144    0.0000 C   0  0  0  0  0  0  0  0  0
    7.8821    3.7524    0.0000 C   0  0  0  0  0  0  0  0  0
    8.2176    2.9987    0.0000 C   0  0  0  0  0  0  0  0  0
    7.7327    2.3313    0.0000 C   0  0  0  0  0  0  0  0  0
    8.0683    1.5776    0.0000 C   0  0  0  0  0  0  0  0  0
    6.9122    2.4175    0.0000 C   0  0  0  0  0  0  0  0  0
    6.5767    3.1712    0.0000 C   0  0  0  0  0  0  0  0  0
    7.0616    3.8386    0.0000 C   0  0  0  0  0  0  0  0  0
    6.4273    1.7501    0.0000 C   0  0  0  0  0  0  0  0  0
    6.7629    0.9964    0.0000 C   0  0  0  0  0  0  0  0  0
    6.2779    0.3289    0.0000 C   0  0  0  0  0  0  0  0  0
    5.4575    0.4152    0.0000 C   0  0  0  0  0  0  0  0  0
    5.1219    1.1689    0.0000 C   0  0  0  0  0  0  0  0  0
    5.6068    1.8363    0.0000 C   0  0  0  0  0  0  0  0  0
    4.9725   -0.2523    0.0000 C   0  0  0  0  0  0  0  0  0
    4.1521   -0.1660    0.0000 O   0  0  0  0  0  0  0  0  0
    5.3081   -1.0059    0.0000 N   0  0  0  0  0  0  0  0  0
    4.8232   -1.6734    0.0000 C   0  0  0  0  0  0  0  0  0
    5.1587   -2.4270    0.0000 C   0  0  0  0  0  0  0  0  0
    4.6738   -3.0945    0.0000 C   0  0  0  0  0  0  0  0  0
    5.0094   -3.8482    0.0000 N   0  0  0  0  0  0  0  0  0
    5.8298   -3.9344    0.0000 C   0  0  0  0  0  0  0  0  0
    6.1654   -4.6881    0.0000 C   0  0  0  0  0  0  0  0  0
    5.6805   -5.3555    0.0000 N   0  0  0  0  0  0  0  0  0
    4.8600   -5.2693    0.0000 C   0  0  0  0  0  0  0  0  0
    4.5244   -4.5156    0.0000 C   0  0  0  0  0  0  0  0  0
    6.0160   -6.1092    0.0000 C   0  0  0  0  0  0  0  0  0
    3.8533   -3.0082    0.0000 C   0  0  0  0  0  0  0  0  0
    3.3684   -3.6757    0.0000 O   0  0  0  0  0  0  0  0  0
    2.5479   -3.5894    0.0000 C   0  0  0  0  0  0  0  0  0
    3.5178   -2.2546    0.0000 C   0  0  0  0  0  0  0  0  0
    4.0027   -1.5871    0.0000 C   0  0  0  0  0  0  0  0  0
  1  2  4  0  0  0  0
  1  5  4  0  0  0  0
  2  3  4  0  0  0  0
  3  4  4  0  0  0  0
  3  7  1  0  0  0  0
  4  5  4  0  0  0  0
  5  6  1  0  0  0  0
  7  8  4  0  0  0  0
  7 13  4  0  0  0  0
  8  9  4  0  0  0  0
  9 10  1  0  0  0  0
  9 11  4  0  0  0  0
 11 12  4  0  0  0  0
 11 14  1  0  0  0  0
 12 13  4  0  0  0  0
 14 15  4  0  0  0  0
 14 19  4  0  0  0  0
 15 16  4  0  0  0  0
 16 17  4  0  0  0  0
 17 18  4  0  0  0  0
 17 20  1  0  0  0  0
 18 19  4  0  0  0  0
 20 21  2  0  0  0  0
 20 22  1  0  0  0  0
 22 23  1  0  0  0  0
 23 24  4  0  0  0  0
 23 37  4  0  0  0  0
 24 25  4  0  0  0  0
 25 26  1  0  0  0  0
 25 33  4  0  0  0  0
 26 27  1  0  0  0  0
 26 31  1  0  0  0  0
 27 28  1  0  0  0  0
 28 29  1  0  0  0  0
 29 30  1  0  0  0  0
 29 32  1  0  0  0  0
 30 31  1  0  0  0  0
 33 34  1  0  0  0  0
 33 36  4  0  0  0  0
 34 35  1  0  0  0  0
 36 37  4  0  0  0  0
M  END
>  <Name_Molregno>
16396

>  <5-HT1A>
7.14

>  <5-HT1B>
9.05

>  <5-HT1D>
8.78

>  <5-HT1E>
5.4

>  <5-HT2A>
7.59

>  <5-HT2C>
6.99

>  <5-HT5>
5.2

>  <5-HT6>
5.27

>  <5-HT7>
5.4

>  <DOPAMINE D1>
5

>  <DOPAMINE D2>
5

>  <DOPAMINE D3>
5

>  <DOPAMINE D4>
5

>  <DOPAMINE D5>
5

>  <HISTAMINE H1>
5

>  <Muscarinic acetylcholine receptor M1>
5

>  <Muscarinic acetylcholine receptor M2>
5

>  <Muscarinic acetylcholine receptor M3>
5

>  <Muscarinic acetylcholine receptor M4>
5

>  <Muscarinic acetylcholine receptor M5>
5

$$$$
22470
  Marvin  02231216192D 0   1.00000     0.00000     0

 22 24  0  0  1  0  0  0  0  0999 V2000
    1.4966    1.5869    0.0000 O   0  0  0  0  0  0  0  0  0
    2.2110    1.1744    0.0000 C   0  0  0  0  0  0  0  0  0
    2.2110    0.3494    0.0000 C   0  0  0  0  0  0  0  0  0
    2.9255   -0.0631    0.0000 C   0  0  0  0  0  0  0  0  0
    2.9255   -0.8881    0.0000 C   0  0  0  0  0  0  0  0  0
    2.2110   -1.3006    0.0000 N   0  0  0  0  0  0  0  0  0
    1.4966   -0.8881    0.0000 C   0  0  0  0  0  0  0  0  0
    1.4966   -0.0631    0.0000 C   0  0  0  0  0  0  0  0  0
    2.2110   -2.1256    0.0000 C   0  0  0  0  0  0  0  0  0
    1.4966   -2.5381    0.0000 C   0  0  0  0  0  0  0  0  0
    1.4966   -3.3631    0.0000 C   0  0  0  0  0  0  0  0  0
    2.2110   -3.7756    0.0000 C   0  0  0  0  0  0  0  0  0
    2.2110   -4.6006    0.0000 C   0  0  0  0  0  0  0  0  0
    1.4966   -5.0131    0.0000 C   0  0  0  0  0  0  0  0  0
    0.7821   -4.6006    0.0000 C   0  0  0  0  0  0  0  0  0
    0.7821   -3.7756    0.0000 C   0  0  0  0  0  0  0  0  0
    2.9255    1.5869    0.0000 C   0  0  0  0  0  0  0  0  0
    2.9255    2.4119    0.0000 C   0  0  0  0  0  0  0  0  0
    3.6400    2.8244    0.0000 C   0  0  0  0  0  0  0  0  0
    4.3544    2.4119    0.0000 C   0  0  0  0  0  0  0  0  0
    4.3544    1.5869    0.0000 C   0  0  0  0  0  0  0  0  0
    3.6400    1.1744    0.0000 C   0  0  0  0  0  0  0  0  0
  1  2  1  0  0  0  0
  2  3  1  0  0  0  0
  2 17  1  0  0  0  0
  3  4  1  0  0  0  0
  3  8  1  0  0  0  0
  4  5  1  0  0  0  0
  5  6  1  0  0  0  0
  6  7  1  0  0  0  0
  6  9  1  0  0  0  0
  7  8  1  0  0  0  0
  9 10  1  0  0  0  0
 10 11  1  0  0  0  0
 11 12  4  0  0  0  0
 11 16  4  0  0  0  0
 12 13  4  0  0  0  0
 13 14  4  0  0  0  0
 14 15  4  0  0  0  0
 15 16  4  0  0  0  0
 17 18  4  0  0  0  0
 17 22  4  0  0  0  0
 18 19  4  0  0  0  0
 19 20  4  0  0  0  0
 20 21  4  0  0  0  0
 21 22  4  0  0  0  0
M  END
>  <Name_Molregno>
22470

>  <5-HT1A>
5.47

>  <5-HT2A>
8.13

>  <5-HT2C>
6.28

>  <5-HT6>
5.56

>  <Alpha-1A>
5.73

>  <Alpha-1B>
5.8

>  <Alpha-2A>
5.8

>  <Alpha-2C>
5.93

>  <DOPAMINE D1>
6.49

>  <DOPAMINE D4>
5.41

>  <DOPAMINE D5>
5.54

>  <Dopamine transporter>
5

>  <HISTAMINE H1>
5.79

>  <Norepinephrine transporter>
5

>  <Serotonin transporter>
5.59

$$$$
42179
  Marvin  02231216192D 0   1.00000     0.00000     0

 31 34  0  0  0  0  0  0  0  0999 V2000
    0.8929    1.6421    0.0000 O   0  0  0  0  0  0  0  0  0
    1.6074    2.0546    0.0000 C   0  0  0  0  0  0  0  0  0
    0.8929    0.8171    0.0000 C   0  0  0  0  0  0  0  0  0
    1.6074    0.4046    0.0000 C   0  0  0  0  0  0  0  0  0
    1.6074   -0.4204    0.0000 C   0  0  0  0  0  0  0  0  0
    0.8929   -0.8329    0.0000 C   0  0  0  0  0  0  0  0  0
    0.1785   -0.4204    0.0000 C   0  0  0  0  0  0  0  0  0
    0.1785    0.4046    0.0000 C   0  0  0  0  0  0  0  0  0
   -0.5360    0.8171    0.0000 N   0  0  0  0  0  0  0  0  0
   -1.2505    0.4046    0.0000 C   0  0  0  0  0  0  0  0  0
   -1.9649    0.8171    0.0000 C   0  0  0  0  0  0  0  0  0
   -1.9649    1.6421    0.0000 N   0  0  0  0  0  0  0  0  0
   -1.2505    2.0546    0.0000 C   0  0  0  0  0  0  0  0  0
   -0.5360    1.6421    0.0000 C   0  0  0  0  0  0  0  0  0
   -2.6794    2.0546    0.0000 C   0  0  0  0  0  0  0  0  0
   -3.3939    1.6421    0.0000 C   0  0  0  0  0  0  0  0  0
   -4.1083    2.0546    0.0000 N   0  0  0  0  0  0  0  0  0
   -4.8228    1.6421    0.0000 C   0  0  0  0  0  0  0  0  0
   -4.8228    0.8171    0.0000 O   0  0  0  0  0  0  0  0  0
   -5.5373    2.0546    0.0000 C   0  0  0  0  0  0  0  0  0
   -6.2518    1.6421    0.0000 C   0  0  0  0  0  0  0  0  0
   -6.9662    2.0546    0.0000 C   0  0  0  0  0  0  0  0  0
   -6.9662    2.8796    0.0000 C   0  0  0  0  0  0  0  0  0
   -6.2518    3.2921    0.0000 C   0  0  0  0  0  0  0  0  0
   -5.5373    2.8796    0.0000 C   0  0  0  0  0  0  0  0  0
   -4.1083    2.8796    0.0000 C   0  0  0  0  0  0  0  0  0
   -4.8228    3.2921    0.0000 N   0  0  0  0  0  0  0  0  0
   -4.8228    4.1171    0.0000 C   0  0  0  0  0  0  0  0  0
   -4.1083    4.5296    0.0000 C   0  0  0  0  0  0  0  0  0
   -3.3939    4.1171    0.0000 C   0  0  0  0  0  0  0  0  0
   -3.3939    3.2921    0.0000 C   0  0  0  0  0  0  0  0  0
  1  2  1  0  0  0  0
  1  3  1  0  0  0  0
  3  4  4  0  0  0  0
  3  8  4  0  0  0  0
  4  5  4  0  0  0  0
  5  6  4  0  0  0  0
  6  7  4  0  0  0  0
  7  8  4  0  0  0  0
  8  9  1  0  0  0  0
  9 10  1  0  0  0  0
  9 14  1  0  0  0  0
 10 11  1  0  0  0  0
 11 12  1  0  0  0  0
 12 13  1  0  0  0  0
 12 15  1  0  0  0  0
 13 14  1  0  0  0  0
 15 16  1  0  0  0  0
 16 17  1  0  0  0  0
 17 18  1  0  0  0  0
 17 26  1  0  0  0  0
 18 19  2  0  0  0  0
 18 20  1  0  0  0  0
 20 21  1  0  0  0  0
 20 25  1  0  0  0  0
 21 22  1  0  0  0  0
 22 23  1  0  0  0  0
 23 24  1  0  0  0  0
 24 25  1  0  0  0  0
 26 27  4  0  0  0  0
 26 31  4  0  0  0  0
 27 28  4  0  0  0  0
 28 29  4  0  0  0  0
 29 30  4  0  0  0  0
 30 31  4  0  0  0  0
M  END
>  <Name_Molregno>
42179

>  <5-HT1A>
9.12

>  <5-HT1B>
5

>  <5-HT1D>
5

>  <5-HT1E>
5

>  <5-HT2A>
5.2

>  <5-HT5>
5

>  <5-HT6>
5

>  <5-HT7>
5

>  <Alpha-1A>
7.71

>  <Alpha-1B>
6.33

>  <Alpha-2A>
5

>  <Alpha-2B>
5

>  <Alpha-2C>
5.59

>  <DOPAMINE D1>
5

>  <DOPAMINE D2>
6.57

>  <DOPAMINE D3>
7.17

>  <DOPAMINE D4>
7.79

>  <DOPAMINE D5>
5

>  <HISTAMINE H1>
5

>  <HISTAMINE H2>
5

>  <HISTAMINE H4>
5

>  <Muscarinic acetylcholine receptor M2>
5

>  <Muscarinic acetylcholine receptor M5>
5

$$$$
66613
  Marvin  02231216192D 0   1.00000     0.00000     0

 14 15  0  0  1  0  0  0  0  0999 V2000
   -3.5937   -0.7341    0.0000 O   0  0  0  0  0  0  0  0  0
   -2.8091   -0.9890    0.0000 C   0  0  0  0  0  0  0  0  0
   -2.0946   -0.5765    0.0000 C   0  0  0  0  0  0  0  0  0
   -1.3801   -0.9890    0.0000 C   0  0  0  0  0  0  0  0  0
   -1.3801   -1.8140    0.0000 C   0  0  0  0  0  0  0  0  0
   -2.0946   -2.2265    0.0000 C   0  0  0  0  0  0  0  0  0
   -2.8091   -1.8140    0.0000 C   0  0  0  0  0  0  0  0  0
   -3.5937   -2.0690    0.0000 O   0  0  0  0  0  0  0  0  0
   -4.0786   -1.4015    0.0000 C   0  0  0  0  0  0  0  0  0
   -0.6657   -0.5765    0.0000 C   0  0  0  0  0  0  0  0  0
   -0.6657    0.2485    0.0000 C   0  0  0  0  0  0  0  0  0
    0.0488    0.6610    0.0000 N   0  0  0  0  0  0  0  0  0
    0.0488    1.4860    0.0000 C   0  0  0  0  0  0  0  0  0
   -1.3801    0.6610    0.0000 C   0  0  0  0  0  0  0  0  0
  1  2  1  0  0  0  0
  1  9  1  0  0  0  0
  2  3  4  0  0  0  0
  2  7  4  0  0  0  0
  3  4  4  0  0  0  0
  4  5  4  0  0  0  0
  4 10  1  0  0  0  0
  5  6  4  0  0  0  0
  6  7  4  0  0  0  0
  7  8  1  0  0  0  0
  8  9  1  0  0  0  0
 10 11  1  0  0  0  0
 11 12  1  0  0  0  0
 11 14  1  0  0  0  0
 12 13  1  0  0  0  0
M  END
>  <Name_Molregno>
66613

>  <5-HT1A>
5

>  <5-HT1B>
5

>  <5-HT1D>
5

>  <5-HT1E>
5

>  <5-HT2A>
5

>  <5-HT3>
5

>  <5-HT5>
5

>  <5-HT6>
5

>  <5-HT7>
5

>  <Alpha-1A>
5

>  <Alpha-1B>
5

>  <Alpha-2A>
5.6

>  <Alpha-2B>
5.75

>  <Alpha-2C>
5.95

>  <Beta-1>
5

>  <Beta-2>
5

>  <DOPAMINE D1>
5

>  <DOPAMINE D2>
5

>  <DOPAMINE D3>
5

>  <DOPAMINE D4>
5

>  <DOPAMINE D5>
5

>  <Dopamine transporter>
5

>  <HISTAMINE H1>
5.67

>  <HISTAMINE H2>
5

>  <Muscarinic acetylcholine receptor M1>
5

>  <Muscarinic acetylcholine receptor M2>
5

>  <Muscarinic acetylcholine receptor M3>
5.73

>  <Muscarinic acetylcholine receptor M4>
5.08

>  <Muscarinic acetylcholine receptor M5>
5.2

>  <Norepinephrine transporter>
5

>  <Serotonin transporter>
7.24

$$$$
88815
  Marvin  02231216192D 0   1.00000     0.00000     0

 14 15  0  0  1  0  0  0  0  0999 V2000
   -3.2072   -0.1654    0.0000 S   0  0  0  0  0  0  0  0  0
   -2.4226   -0.4204    0.0000 C   0  0  0  0  0  0  0  0  0
   -1.7081   -0.0079    0.0000 C   0  0  0  0  0  0  0  0  0
   -0.9937   -0.4204    0.0000 C   0  0  0  0  0  0  0  0  0
   -0.2792   -0.0079    0.0000 N   0  0  0  0  0  0  0  0  0
    0.4353   -0.4204    0.0000 C   0  0  0  0  0  0  0  0  0
    1.1498   -0.0079    0.0000 C   0  0  0  0  0  0  0  0  0
    1.8642   -0.4204    0.0000 C   0  0  0  0  0  0  0  0  0
   -0.9937   -1.2454    0.0000 C   0  0  0  0  0  0  0  0  0
   -1.7081   -1.6579    0.0000 C   0  0  0  0  0  0  0  0  0
   -2.4226   -1.2454    0.0000 C   0  0  0  0  0  0  0  0  0
   -3.2072   -1.5003    0.0000 N   0  0  0  0  0  0  0  0  0
   -3.6921   -0.8329    0.0000 C   0  0  0  0  0  0  0  0  0
   -4.5171   -0.8329    0.0000 N   0  0  0  0  0  0  0  0  0
  1  2  4  0  0  0  0
  1 13  4  0  0  0  0
  2  3  1  0  0  0  0
  2 11  4  0  0  0  0
  3  4  1  0  0  0  0
  4  5  1  0  0  0  0
  4  9  1  0  0  0  0
  5  6  1  0  0  0  0
  6  7  1  0  0  0  0
  7  8  1  0  0  0  0
  9 10  1  0  0  0  0
 10 11  1  0  0  0  0
 11 12  4  0  0  0  0
 12 13  4  0  0  0  0
 13 14  1  0  0  0  0
M  END
>  <Name_Molregno>
88815

>  <5-HT1A>
5.67

>  <5-HT1B>
5.26

>  <5-HT1D>
5.39

>  <5-HT1E>
5

>  <5-HT2A>
5

>  <5-HT2C>
5

>  <5-HT3>
5

>  <5-HT5>
5

>  <5-HT6>
5

>  <5-HT7>
5.93

>  <Alpha-1A>
5

>  <Alpha-1B>
5

>  <Alpha-2A>
6.44

>  <Alpha-2B>
6.68

>  <Alpha-2C>
6.14

>  <Beta-1>
5

>  <Beta-2>
5

>  <DOPAMINE D1>
5

>  <DOPAMINE D2>
6.55

>  <DOPAMINE D3>
8.51

>  <DOPAMINE D4>
7.4

>  <DOPAMINE D5>
5

>  <Dopamine transporter>
5

>  <HISTAMINE H1>
5

>  <HISTAMINE H2>
5.57

>  <HISTAMINE H4>
5

>  <Muscarinic acetylcholine receptor M1>
5

>  <Muscarinic acetylcholine receptor M2>
5

>  <Muscarinic acetylcholine receptor M3>
5

>  <Muscarinic acetylcholine receptor M4>
5

>  <Muscarinic acetylcholine receptor M5>
5

>  <Norepinephrine transporter>
5

>  <Serotonin transporter>
5

$$$$
100867
  Marvin  02231216192D 0   1.00000     0.00000     0

 22 25  0  0  0  0  0  0  0  0999 V2000
    0.1405   -0.4939    0.0000 N   0  0  0  0  0  0  0  0  0
    0.3912   -1.2799    0.0000 C   0  0  0  0  0  0  0  0  0
    1.1431   -1.6195    0.0000 C   0  0  0  0  0  0  0  0  0
    1.8131   -1.1381    0.0000 C   0  0  0  0  0  0  0  0  0
    2.5650   -1.4777    0.0000 C   0  0  0  0  0  0  0  0  0
    2.6469   -2.2986    0.0000 C   0  0  0  0  0  0  0  0  0
    1.9769   -2.7800    0.0000 C   0  0  0  0  0  0  0  0  0
    1.2250   -2.4404    0.0000 N   0  0  0  0  0  0  0  0  0
    0.5550   -2.9218    0.0000 C   0  0  0  0  0  0  0  0  0
   -0.1969   -2.5822    0.0000 C   0  0  0  0  0  0  0  0  0
   -0.2788   -1.7613    0.0000 C   0  0  0  0  0  0  0  0  0
   -0.9436   -1.2728    0.0000 C   0  0  0  0  0  0  0  0  0
   -0.6845   -0.4895    0.0000 C   0  0  0  0  0  0  0  0  0
   -1.2333    0.1265    0.0000 C   0  0  0  0  0  0  0  0  0
   -2.0411   -0.0407    0.0000 C   0  0  0  0  0  0  0  0  0
   -2.3002   -0.8240    0.0000 C   0  0  0  0  0  0  0  0  0
   -1.7515   -1.4400    0.0000 C   0  0  0  0  0  0  0  0  0
    0.6762   -1.8244    0.0000 C   0  0  0  0  0  0  0  0  0
    3.2350   -0.9963    0.0000 C   0  0  0  0  0  0  0  0  0
    3.1532   -0.1754    0.0000 C   0  0  0  0  0  0  0  0  0
    2.4013    0.1642    0.0000 C   0  0  0  0  0  0  0  0  0
    1.7313   -0.3172    0.0000 C   0  0  0  0  0  0  0  0  0
  1  2  4  0  0  0  0
  1 13  4  0  0  0  0
  2  3  1  0  0  0  0
  2 11  4  0  0  0  0
  3  4  1  0  0  0  0
  4  5  4  0  0  0  0
  4 22  4  0  0  0  0
  5  6  1  0  0  0  0
  5 19  4  0  0  0  0
  6  7  1  0  0  0  0
  7  8  1  0  0  0  0
  8  9  1  0  0  0  0
  8 18  1  0  0  0  0
  9 10  1  0  0  0  0
 10 11  1  0  0  0  0
 11 12  4  0  0  0  0
 12 13  4  0  0  0  0
 12 17  4  0  0  0  0
 13 14  4  0  0  0  0
 14 15  4  0  0  0  0
 15 16  4  0  0  0  0
 16 17  4  0  0  0  0
 19 20  4  0  0  0  0
 20 21  4  0  0  0  0
 21 22  4  0  0  0  0
M  STY  1   1 DAT
M  SAL   1  1   1
M  SDT   1 MRV_IMPLICIT_H                                        
M  SDD   1     0.0000    0.0000    DR    ALL  0       0  
M  SED   1 IMPL_H1
M  END
>  <Name_Molregno>
100867

>  <DOPAMINE D1>
8.22

>  <DOPAMINE D2>
7.48

>  <DOPAMINE D3>
7.49

>  <DOPAMINE D4>
6.97

>  <DOPAMINE D5>
8.03

$$$$
120674
  Marvin  02231216192D 0   1.00000     0.00000     0

 27 29  0  0  1  0  0  0  0  0999 V2000
    4.4208    6.3587    0.0000 F   0  0  0  0  0  0  0  0  0
    4.4208    5.5337    0.0000 C   0  0  0  0  0  0  0  0  0
    5.1353    5.1212    0.0000 C   0  0  0  0  0  0  0  0  0
    5.1353    4.2962    0.0000 C   0  0  0  0  0  0  0  0  0
    4.4208    3.8837    0.0000 C   0  0  0  0  0  0  0  0  0
    3.7063    4.2962    0.0000 C   0  0  0  0  0  0  0  0  0
    3.7063    5.1212    0.0000 C   0  0  0  0  0  0  0  0  0
    4.4208    3.0587    0.0000 C   0  0  0  0  0  0  0  0  0
    5.1353    2.6462    0.0000 C   0  0  0  0  0  0  0  0  0
    5.1353    1.8212    0.0000 N   0  0  0  0  0  0  0  0  0
    5.8497    1.4087    0.0000 C   0  0  0  0  0  0  0  0  0
    5.8497    0.5837    0.0000 C   0  0  0  0  0  0  0  0  0
    5.1353    0.1712    0.0000 C   0  0  0  0  0  0  0  0  0
    4.4208    0.5837    0.0000 C   0  0  0  0  0  0  0  0  0
    4.4208    1.4087    0.0000 C   0  0  0  0  0  0  0  0  0
    5.1353   -0.6538    0.0000 C   0  0  0  0  0  0  0  0  0
    4.4208   -1.0663    0.0000 O   0  0  0  0  0  0  0  0  0
    5.8497   -1.0663    0.0000 C   0  0  0  0  0  0  0  0  0
    6.5642   -0.6538    0.0000 C   0  0  0  0  0  0  0  0  0
    7.2787   -1.0663    0.0000 C   0  0  0  0  0  0  0  0  0
    7.2787   -1.8913    0.0000 C   0  0  0  0  0  0  0  0  0
    6.5642   -2.3038    0.0000 C   0  0  0  0  0  0  0  0  0
    6.5642   -3.1288    0.0000 O   0  0  0  0  0  0  0  0  0
    7.2787   -3.5413    0.0000 C   0  0  0  0  0  0  0  0  0
    5.8497   -1.8913    0.0000 C   0  0  0  0  0  0  0  0  0
    5.1353   -2.3038    0.0000 O   0  0  0  0  0  0  0  0  0
    5.1353   -3.1288    0.0000 C   0  0  0  0  0  0  0  0  0
  1  2  1  0  0  0  0
  2  3  4  0  0  0  0
  2  7  4  0  0  0  0
  3  4  4  0  0  0  0
  4  5  4  0  0  0  0
  5  6  4  0  0  0  0
  5  8  1  0  0  0  0
  6  7  4  0  0  0  0
  8  9  1  0  0  0  0
  9 10  1  0  0  0  0
 10 11  1  0  0  0  0
 10 15  1  0  0  0  0
 11 12  1  0  0  0  0
 12 13  1  0  0  0  0
 13 14  1  0  0  0  0
 13 16  1  0  0  0  0
 14 15  1  0  0  0  0
 16 17  1  0  0  0  0
 16 18  1  0  0  0  0
 18 19  4  0  0  0  0
 18 25  4  0  0  0  0
 19 20  4  0  0  0  0
 20 21  4  0  0  0  0
 21 22  4  0  0  0  0
 22 23  1  0  0  0  0
 22 25  4  0  0  0  0
 23 24  1  0  0  0  0
 25 26  1  0  0  0  0
 26 27  1  0  0  0  0
M  END
>  <Name_Molregno>
120674

>  <5-HT1A>
5

>  <5-HT1E>
5

>  <5-HT2A>
9.16

>  <5-HT2C>
7.37

>  <5-HT3>
5

>  <5-HT5>
5

>  <5-HT6>
5.46

>  <Alpha-1A>
6.41

>  <Alpha-1B>
6.37

>  <Alpha-2A>
5.72

>  <Alpha-2B>
6.57

>  <Alpha-2C>
5.84

>  <Beta-1>
5

>  <Beta-2>
5

>  <DOPAMINE D1>
5.67

>  <DOPAMINE D2>
5.23

>  <DOPAMINE D4>
5.42

>  <DOPAMINE D5>
5

>  <Dopamine transporter>
5

>  <HISTAMINE H1>
7.18

>  <HISTAMINE H4>
5

>  <Muscarinic acetylcholine receptor M1>
5

>  <Muscarinic acetylcholine receptor M2>
5

>  <Muscarinic acetylcholine receptor M3>
5

>  <Muscarinic acetylcholine receptor M4>
5

>  <Muscarinic acetylcholine receptor M5>
5

>  <Norepinephrine transporter>
5

>  <Serotonin transporter>
5

$$$$
178068
  Marvin  02231216192D 0   1.00000     0.00000     0

 32 35  0  0  0  0  0  0  0  0999 V2000
    3.7835    3.5848    0.0000 O   0  0  0  0  0  0  0  0  0
    3.0690    3.9973    0.0000 C   0  0  0  0  0  0  0  0  0
    3.7835    2.7598    0.0000 C   0  0  0  0  0  0  0  0  0
    4.4980    2.3473    0.0000 C   0  0  0  0  0  0  0  0  0
    4.4980    1.5223    0.0000 C   0  0  0  0  0  0  0  0  0
    3.7835    1.1098    0.0000 C   0  0  0  0  0  0  0  0  0
    3.7835    0.2848    0.0000 N   0  0  0  0  0  0  0  0  0
    4.4980   -0.1277    0.0000 C   0  0  0  0  0  0  0  0  0
    5.2124    0.2848    0.0000 O   0  0  0  0  0  0  0  0  0
    4.4980   -0.9527    0.0000 N   0  0  0  0  0  0  0  0  0
    5.2124   -1.3652    0.0000 C   0  0  0  0  0  0  0  0  0
    5.2124   -2.1902    0.0000 C   0  0  0  0  0  0  0  0  0
    4.4980   -2.6027    0.0000 N   0  0  0  0  0  0  0  0  0
    3.7835   -2.1902    0.0000 C   0  0  0  0  0  0  0  0  0
    3.7835   -1.3652    0.0000 C   0  0  0  0  0  0  0  0  0
    4.4980   -3.4277    0.0000 C   0  0  0  0  0  0  0  0  0
    5.2124   -3.8402    0.0000 C   0  0  0  0  0  0  0  0  0
    5.2124   -4.6652    0.0000 C   0  0  0  0  0  0  0  0  0
    4.4980   -5.0777    0.0000 C   0  0  0  0  0  0  0  0  0
    3.7835   -4.6652    0.0000 C   0  0  0  0  0  0  0  0  0
    3.7835   -3.8402    0.0000 C   0  0  0  0  0  0  0  0  0
    3.0690   -3.4277    0.0000 O   0  0  0  0  0  0  0  0  0
    2.3546   -3.8402    0.0000 C   0  0  0  0  0  0  0  0  0
    3.0690    1.5223    0.0000 C   0  0  0  0  0  0  0  0  0
    3.0690    2.3473    0.0000 C   0  0  0  0  0  0  0  0  0
    2.3546    2.7598    0.0000 N   0  0  0  0  0  0  0  0  0
    1.6401    2.3473    0.0000 C   0  0  0  0  0  0  0  0  0
    0.9256    2.7598    0.0000 C   0  0  0  0  0  0  0  0  0
    0.9256    3.5848    0.0000 N   0  0  0  0  0  0  0  0  0
    1.6401    3.9973    0.0000 C   0  0  0  0  0  0  0  0  0
    2.3546    3.5848    0.0000 C   0  0  0  0  0  0  0  0  0
    0.2111    3.9973    0.0000 C   0  0  0  0  0  0  0  0  0
  1  2  1  0  0  0  0
  1  3  1  0  0  0  0
  3  4  4  0  0  0  0
  3 25  4  0  0  0  0
  4  5  4  0  0  0  0
  5  6  4  0  0  0  0
  6  7  1  0  0  0  0
  6 24  4  0  0  0  0
  7  8  1  0  0  0  0
  8  9  2  0  0  0  0
  8 10  1  0  0  0  0
 10 11  1  0  0  0  0
 10 15  1  0  0  0  0
 11 12  1  0  0  0  0
 12 13  1  0  0  0  0
 13 14  1  0  0  0  0
 13 16  1  0  0  0  0
 14 15  1  0  0  0  0
 16 17  4  0  0  0  0
 16 21  4  0  0  0  0
 17 18  4  0  0  0  0
 18 19  4  0  0  0  0
 19 20  4  0  0  0  0
 20 21  4  0  0  0  0
 21 22  1  0  0  0  0
 22 23  1  0  0  0  0
 24 25  4  0  0  0  0
 25 26  1  0  0  0  0
 26 27  1  0  0  0  0
 26 31  1  0  0  0  0
 27 28  1  0  0  0  0
 28 29  1  0  0  0  0
 29 30  1  0  0  0  0
 29 32  1  0  0  0  0
 30 31  1  0  0  0  0
M  END
>  <Name_Molregno>
178068

>  <5-HT1A>
6.17

>  <5-HT1B>
8.44

>  <5-HT1D>
7.02

>  <5-HT2A>
5.17

>  <5-HT2C>
5.71

>  <5-HT6>
5.62

>  <5-HT7>
5.85

>  <DOPAMINE D1>
5

>  <DOPAMINE D2>
5

>  <DOPAMINE D3>
5

>  <DOPAMINE D4>
5

>  <DOPAMINE D5>
5

>  <HISTAMINE H1>
5

>  <Muscarinic acetylcholine receptor M1>
5

>  <Muscarinic acetylcholine receptor M2>
5

>  <Muscarinic acetylcholine receptor M3>
5

>  <Muscarinic acetylcholine receptor M4>
5

>  <Muscarinic acetylcholine receptor M5>
5

$$$$
199111
  Marvin  02231216192D 0   1.00000     0.00000     0

 14 15  0  0  1  0  0  0  0  0999 V2000
   -0.1663    0.8600    0.0000 N   0  0  0  0  0  0  0  0  0
    0.5482    0.4475    0.0000 C   0  0  0  0  0  0  0  0  0
    1.2627    0.8600    0.0000 C   0  0  0  0  0  0  0  0  0
    1.2627    1.6850    0.0000 C   0  0  0  0  0  0  0  0  0
    1.9771    2.0975    0.0000 C   0  0  0  0  0  0  0  0  0
    2.6916    1.6850    0.0000 C   0  0  0  0  0  0  0  0  0
    2.6916    0.8600    0.0000 C   0  0  0  0  0  0  0  0  0
    1.9771    0.4475    0.0000 C   0  0  0  0  0  0  0  0  0
    1.9771   -0.3775    0.0000 N   0  0  0  0  0  0  0  0  0
    2.6916   -0.7900    0.0000 C   0  0  0  0  0  0  0  0  0
    2.6916   -1.6150    0.0000 C   0  0  0  0  0  0  0  0  0
    1.2627   -0.7900    0.0000 C   0  0  0  0  0  0  0  0  0
    0.5482    2.0975    0.0000 C   0  0  0  0  0  0  0  0  0
   -0.1663    1.6850    0.0000 C   0  0  0  0  0  0  0  0  0
  1  2  4  0  0  0  0
  1 14  4  0  0  0  0
  2  3  4  0  0  0  0
  3  4  4  0  0  0  0
  3  8  1  0  0  0  0
  4  5  1  0  0  0  0
  4 13  4  0  0  0  0
  5  6  1  0  0  0  0
  6  7  1  0  0  0  0
  7  8  1  0  0  0  0
  8  9  1  0  0  0  0
  9 10  1  0  0  0  0
  9 12  1  0  0  0  0
 10 11  1  0  0  0  0
 13 14  4  0  0  0  0
M  END
>  <Name_Molregno>
199111

>  <5-HT1A>
5

>  <5-HT1B>
5

>  <5-HT2C>
5

>  <5-HT3>
5

>  <5-HT5>
5

>  <5-HT6>
5

>  <5-HT7>
5

>  <Beta-1>
5

>  <Beta-2>
5

>  <DOPAMINE D1>
5

>  <DOPAMINE D2>
5

>  <DOPAMINE D3>
5

>  <DOPAMINE D4>
5

>  <DOPAMINE D5>
5

>  <HISTAMINE H1>
5

>  <HISTAMINE H2>
5

>  <Muscarinic acetylcholine receptor M1>
5

>  <Muscarinic acetylcholine receptor M2>
5

>  <Muscarinic acetylcholine receptor M3>
5

>  <Muscarinic acetylcholine receptor M4>
5

>  <Muscarinic acetylcholine receptor M5>
5

$$$$
217067
  Marvin  02231216192D 0   1.00000     0.00000     0

 29 31  0  0  1  0  0  0  0  0999 V2000
   -1.2017    1.0936    0.0000 S   0  0  0  0  0  0  0  0  0
   -1.2017    0.2686    0.0000 O   0  0  0  0  0  0  0  0  0
   -1.2017    1.9186    0.0000 O   0  0  0  0  0  0  0  0  0
   -2.0267    1.0936    0.0000 C   0  0  0  0  0  0  0  0  0
   -2.4392    0.3791    0.0000 C   0  0  0  0  0  0  0  0  0
   -2.0267   -0.3354    0.0000 C   0  0  0  0  0  0  0  0  0
   -2.4392   -1.0498    0.0000 C   0  0  0  0  0  0  0  0  0
   -2.0267   -1.7643    0.0000 C   0  0  0  0  0  0  0  0  0
   -2.4392   -2.4788    0.0000 C   0  0  0  0  0  0  0  0  0
   -3.2642   -2.4788    0.0000 C   0  0  0  0  0  0  0  0  0
   -3.6767   -3.1932    0.0000 N   0  0  0  0  0  0  0  0  0
   -4.5017   -3.1932    0.0000 C   0  0  0  0  0  0  0  0  0
   -4.9142   -3.9077    0.0000 C   0  0  0  0  0  0  0  0  0
   -5.7392   -3.9077    0.0000 C   0  0  0  0  0  0  0  0  0
   -3.2642   -3.9077    0.0000 C   0  0  0  0  0  0  0  0  0
   -2.4392   -3.9077    0.0000 C   0  0  0  0  0  0  0  0  0
   -2.0267   -4.6222    0.0000 C   0  0  0  0  0  0  0  0  0
   -3.6767   -1.7643    0.0000 C   0  0  0  0  0  0  0  0  0
   -3.2642   -1.0498    0.0000 C   0  0  0  0  0  0  0  0  0
   -3.6767   -0.3354    0.0000 C   0  0  0  0  0  0  0  0  0
   -3.2642    0.3791    0.0000 C   0  0  0  0  0  0  0  0  0
   -0.3767    1.0936    0.0000 C   0  0  0  0  0  0  0  0  0
    0.0358    1.8081    0.0000 C   0  0  0  0  0  0  0  0  0
    0.8608    1.8081    0.0000 C   0  0  0  0  0  0  0  0  0
    1.2733    1.0936    0.0000 C   0  0  0  0  0  0  0  0  0
    2.0983    1.0936    0.0000 O   0  0  0  0  0  0  0  0  0
    2.5108    1.8081    0.0000 C   0  0  0  0  0  0  0  0  0
    0.8608    0.3791    0.0000 C   0  0  0  0  0  0  0  0  0
    0.0358    0.3791    0.0000 C   0  0  0  0  0  0  0  0  0
  1  2  2  0  0  0  0
  1  3  2  0  0  0  0
  1  4  1  0  0  0  0
  1 22  1  0  0  0  0
  4  5  1  0  0  0  0
  5  6  4  0  0  0  0
  5 21  4  0  0  0  0
  6  7  4  0  0  0  0
  7  8  1  0  0  0  0
  7 19  4  0  0  0  0
  8  9  1  0  0  0  0
  9 10  1  0  0  0  0
 10 11  1  0  0  0  0
 10 18  1  0  0  0  0
 11 12  1  0  0  0  0
 11 15  1  0  0  0  0
 12 13  1  0  0  0  0
 13 14  1  0  0  0  0
 15 16  1  0  0  0  0
 16 17  1  0  0  0  0
 18 19  1  0  0  0  0
 19 20  4  0  0  0  0
 20 21  4  0  0  0  0
 22 23  4  0  0  0  0
 22 29  4  0  0  0  0
 23 24  4  0  0  0  0
 24 25  4  0  0  0  0
 25 26  1  0  0  0  0
 25 28  4  0  0  0  0
 26 27  1  0  0  0  0
 28 29  4  0  0  0  0
M  END
>  <Name_Molregno>
217067

>  <5-HT1A>
6.8

>  <5-HT1B>
6

>  <5-HT1D>
6

>  <5-HT2A>
6

>  <5-HT2C>
6

>  <DOPAMINE D1>
6

>  <DOPAMINE D2>
7.03

>  <DOPAMINE D3>
8.88

>  <DOPAMINE D4>
5

>  <DOPAMINE D5>
6

$$$$
259724
  Marvin  02231216192D 0   1.00000     0.00000     0

 18 20  0  0  1  0  0  0  0  0999 V2000
    0.3094   -0.9505    0.0000 N   0  0  0  0  0  0  0  0  0
    1.0239   -0.5380    0.0000 C   0  0  0  0  0  0  0  0  0
    1.7384   -0.9505    0.0000 C   0  0  0  0  0  0  0  0  0
    2.4528   -0.5380    0.0000 C   0  0  0  0  0  0  0  0  0
    2.4528    0.2870    0.0000 C   0  0  0  0  0  0  0  0  0
    3.1673    0.6995    0.0000 N   0  0  0  0  0  0  0  0  0
    3.8818    0.2870    0.0000 C   0  0  0  0  0  0  0  0  0
    3.8818   -0.5380    0.0000 C   0  0  0  0  0  0  0  0  0
    3.1673   -0.9505    0.0000 C   0  0  0  0  0  0  0  0  0
    3.1673    1.5245    0.0000 C   0  0  0  0  0  0  0  0  0
    3.8818    1.9370    0.0000 C   0  0  0  0  0  0  0  0  0
    3.8818    2.7620    0.0000 C   0  0  0  0  0  0  0  0  0
    1.7384    0.6995    0.0000 C   0  0  0  0  0  0  0  0  0
    1.0239    0.2870    0.0000 C   0  0  0  0  0  0  0  0  0
    0.3094    0.6995    0.0000 C   0  0  0  0  0  0  0  0  0
   -0.4050    0.2870    0.0000 N   0  0  0  0  0  0  0  0  0
   -0.4050   -0.5380    0.0000 C   0  0  0  0  0  0  0  0  0
   -1.1195   -0.9505    0.0000 N   0  0  0  0  0  0  0  0  0
  1  2  4  0  0  0  0
  1 17  4  0  0  0  0
  2  3  1  0  0  0  0
  2 14  4  0  0  0  0
  3  4  1  0  0  0  0
  4  5  1  0  0  0  0
  4  9  1  0  0  0  0
  5  6  1  0  0  0  0
  5 13  1  0  0  0  0
  6  7  1  0  0  0  0
  6 10  1  0  0  0  0
  7  8  1  0  0  0  0
  8  9  1  0  0  0  0
 10 11  1  0  0  0  0
 11 12  1  0  0  0  0
 13 14  1  0  0  0  0
 14 15  4  0  0  0  0
 15 16  4  0  0  0  0
 16 17  4  0  0  0  0
 17 18  1  0  0  0  0
M  END
>  <Name_Molregno>
259724

>  <5-HT1A>
5

>  <5-HT1B>
5

>  <5-HT1D>
5

>  <5-HT2A>
5

>  <5-HT2C>
5.58

>  <Alpha-1A>
5

>  <Alpha-1B>
5

>  <Alpha-2A>
5

>  <Alpha-2B>
5

>  <Alpha-2C>
5

>  <Beta-1>
5

>  <Beta-2>
5

>  <DOPAMINE D1>
5

>  <DOPAMINE D2>
6.33

>  <DOPAMINE D3>
8.65

>  <DOPAMINE D4>
7.72

>  <DOPAMINE D5>
5

$$$$
263740
  Marvin  02231216192D 0   1.00000     0.00000     0

 17 20  0  0  1  0  0  0  0  0999 V2000
    0.0367   -1.7225    0.0000 N   0  0  0  0  0  0  0  0  0
    0.5528   -1.0788    0.0000 C   0  0  0  0  0  0  0  0  0
    1.3765   -1.0317    0.0000 C   0  0  0  0  0  0  0  0  0
    1.7475   -0.2948    0.0000 N   0  0  0  0  0  0  0  0  0
    2.5711   -0.2477    0.0000 C   0  0  0  0  0  0  0  0  0
    3.0238   -0.9374    0.0000 C   0  0  0  0  0  0  0  0  0
    2.6528   -1.6743    0.0000 C   0  0  0  0  0  0  0  0  0
    1.8291   -1.7214    0.0000 C   0  0  0  0  0  0  0  0  0
    1.2948    0.3949    0.0000 C   0  0  0  0  0  0  0  0  0
    0.4712    0.3478    0.0000 C   0  0  0  0  0  0  0  0  0
    0.1002   -0.3891    0.0000 C   0  0  0  0  0  0  0  0  0
   -0.6957   -0.6065    0.0000 C   0  0  0  0  0  0  0  0  0
   -0.7349   -1.4305    0.0000 C   0  0  0  0  0  0  0  0  0
   -1.4682   -1.8086    0.0000 C   0  0  0  0  0  0  0  0  0
   -2.1622   -1.3626    0.0000 C   0  0  0  0  0  0  0  0  0
   -2.1230   -0.5386    0.0000 C   0  0  0  0  0  0  0  0  0
   -1.3897   -0.1605    0.0000 C   0  0  0  0  0  0  0  0  0
  1  2  4  0  0  0  0
  1 13  4  0  0  0  0
  2  3  1  0  0  0  0
  2 11  4  0  0  0  0
  3  4  1  0  0  0  0
  3  8  1  0  0  0  0
  4  5  1  0  0  0  0
  4  9  1  0  0  0  0
  5  6  1  0  0  0  0
  6  7  1  0  0  0  0
  7  8  1  0  0  0  0
  9 10  1  0  0  0  0
 10 11  1  0  0  0  0
 11 12  4  0  0  0  0
 12 13  4  0  0  0  0
 12 17  4  0  0  0  0
 13 14  4  0  0  0  0
 14 15  4  0  0  0  0
 15 16  4  0  0  0  0
 16 17  4  0  0  0  0
M  STY  1   1 DAT
M  SAL   1  1   1
M  SDT   1 MRV_IMPLICIT_H                                        
M  SDD   1     0.0000    0.0000    DR    ALL  0       0  
M  SED   1 IMPL_H1
M  END
>  <Name_Molregno>
263740

>  <DOPAMINE D1>
5

>  <DOPAMINE D2>
5

>  <DOPAMINE D5>
5

$$$$
311694
  Marvin  02231216192D 0   1.00000     0.00000     0

 28 31  0  0  0  0  0  0  0  0999 V2000
    0.5437    1.4502    0.0000 O   0  0  0  0  0  0  0  0  0
    0.5437    0.6252    0.0000 C   0  0  0  0  0  0  0  0  0
    1.2582    0.2127    0.0000 C   0  0  0  0  0  0  0  0  0
    1.2582   -0.6123    0.0000 N   0  0  0  0  0  0  0  0  0
    1.9726   -1.0248    0.0000 C   0  0  0  0  0  0  0  0  0
    1.9726   -1.8498    0.0000 C   0  0  0  0  0  0  0  0  0
    1.2582   -2.2623    0.0000 N   0  0  0  0  0  0  0  0  0
    0.5437   -1.8498    0.0000 C   0  0  0  0  0  0  0  0  0
    0.5437   -1.0248    0.0000 C   0  0  0  0  0  0  0  0  0
    1.2582   -3.0873    0.0000 C   0  0  0  0  0  0  0  0  0
    1.9726   -3.4998    0.0000 C   0  0  0  0  0  0  0  0  0
    1.9726   -4.3248    0.0000 C   0  0  0  0  0  0  0  0  0
    1.2582   -4.7373    0.0000 C   0  0  0  0  0  0  0  0  0
    0.5437   -4.3248    0.0000 C   0  0  0  0  0  0  0  0  0
    0.5437   -3.4998    0.0000 C   0  0  0  0  0  0  0  0  0
   -0.1708    1.8627    0.0000 C   0  0  0  0  0  0  0  0  0
   -0.8852    1.4502    0.0000 C   0  0  0  0  0  0  0  0  0
   -1.5997    1.8627    0.0000 C   0  0  0  0  0  0  0  0  0
   -1.5997    2.6877    0.0000 C   0  0  0  0  0  0  0  0  0
   -0.8852    3.1002    0.0000 C   0  0  0  0  0  0  0  0  0
   -0.1708    2.6877    0.0000 C   0  0  0  0  0  0  0  0  0
    0.5437    3.1002    0.0000 C   0  0  0  0  0  0  0  0  0
    1.2582    2.6877    0.0000 C   0  0  0  0  0  0  0  0  0
    1.9726    3.1002    0.0000 C   0  0  0  0  0  0  0  0  0
    2.6871    2.6877    0.0000 C   0  0  0  0  0  0  0  0  0
    2.6871    1.8627    0.0000 C   0  0  0  0  0  0  0  0  0
    1.9726    1.4502    0.0000 C   0  0  0  0  0  0  0  0  0
    1.2582    1.8627    0.0000 C   0  0  0  0  0  0  0  0  0
  1  2  1  0  0  0  0
  1 16  1  0  0  0  0
  2  3  1  0  0  0  0
  3  4  1  0  0  0  0
  4  5  1  0  0  0  0
  4  9  1  0  0  0  0
  5  6  1  0  0  0  0
  6  7  1  0  0  0  0
  7  8  1  0  0  0  0
  7 10  1  0  0  0  0
  8  9  1  0  0  0  0
 10 11  4  0  0  0  0
 10 15  4  0  0  0  0
 11 12  4  0  0  0  0
 12 13  4  0  0  0  0
 13 14  4  0  0  0  0
 14 15  4  0  0  0  0
 16 17  4  0  0  0  0
 16 21  4  0  0  0  0
 17 18  4  0  0  0  0
 18 19  4  0  0  0  0
 19 20  4  0  0  0  0
 20 21  4  0  0  0  0
 21 22  1  0  0  0  0
 22 23  1  0  0  0  0
 23 24  4  0  0  0  0
 23 28  4  0  0  0  0
 24 25  4  0  0  0  0
 25 26  4  0  0  0  0
 26 27  4  0  0  0  0
 27 28  4  0  0  0  0
M  END
>  <Name_Molregno>
311694

>  <DOPAMINE D1>
5.83

>  <DOPAMINE D2>
5.38

>  <DOPAMINE D3>
5.54

>  <DOPAMINE D4>
5

>  <DOPAMINE D5>
6.21

$$$$
311772
  Marvin  02231216192D 0   1.00000     0.00000     0

 22 24  0  0  0  0  0  0  0  0999 V2000
   -0.1092   -0.4388    0.0000 O   0  0  0  0  0  0  0  0  0
    0.6053   -0.8513    0.0000 C   0  0  0  0  0  0  0  0  0
    1.3197   -0.4388    0.0000 C   0  0  0  0  0  0  0  0  0
    2.0342   -0.8513    0.0000 C   0  0  0  0  0  0  0  0  0
    2.7487   -0.4388    0.0000 N   0  0  0  0  0  0  0  0  0
    2.8349    0.3817    0.0000 C   0  0  0  0  0  0  0  0  0
    3.6419    0.5532    0.0000 C   0  0  0  0  0  0  0  0  0
    4.0544   -0.1612    0.0000 C   0  0  0  0  0  0  0  0  0
    3.5023   -0.7743    0.0000 C   0  0  0  0  0  0  0  0  0
   -0.8237   -0.8513    0.0000 C   0  0  0  0  0  0  0  0  0
   -0.8237   -1.6763    0.0000 C   0  0  0  0  0  0  0  0  0
   -1.5382   -2.0888    0.0000 C   0  0  0  0  0  0  0  0  0
   -2.2526   -1.6763    0.0000 C   0  0  0  0  0  0  0  0  0
   -2.2526   -0.8513    0.0000 C   0  0  0  0  0  0  0  0  0
   -1.5382   -0.4388    0.0000 C   0  0  0  0  0  0  0  0  0
   -1.5382    0.3862    0.0000 C   0  0  0  0  0  0  0  0  0
   -2.2526    0.7987    0.0000 C   0  0  0  0  0  0  0  0  0
   -2.9671    0.3862    0.0000 C   0  0  0  0  0  0  0  0  0
   -3.6816    0.7987    0.0000 C   0  0  0  0  0  0  0  0  0
   -3.6816    1.6237    0.0000 C   0  0  0  0  0  0  0  0  0
   -2.9671    2.0362    0.0000 C   0  0  0  0  0  0  0  0  0
   -2.2526    1.6237    0.0000 C   0  0  0  0  0  0  0  0  0
  1  2  1  0  0  0  0
  1 10  1  0  0  0  0
  2  3  1  0  0  0  0
  3  4  1  0  0  0  0
  4  5  1  0  0  0  0
  5  6  1  0  0  0  0
  5  9  1  0  0  0  0
  6  7  1  0  0  0  0
  7  8  1  0  0  0  0
  8  9  1  0  0  0  0
 10 11  4  0  0  0  0
 10 15  4  0  0  0  0
 11 12  4  0  0  0  0
 12 13  4  0  0  0  0
 13 14  4  0  0  0  0
 14 15  4  0  0  0  0
 15 16  1  0  0  0  0
 16 17  1  0  0  0  0
 17 18  4  0  0  0  0
 17 22  4  0  0  0  0
 18 19  4  0  0  0  0
 19 20  4  0  0  0  0
 20 21  4  0  0  0  0
 21 22  4  0  0  0  0
M  END
>  <Name_Molregno>
311772

>  <DOPAMINE D1>
6.95

>  <DOPAMINE D2>
6

>  <DOPAMINE D3>
5.53

>  <DOPAMINE D4>
5.9

>  <DOPAMINE D5>
6.95

$$$$
311934
  Marvin  02231216192D 0   1.00000     0.00000     0

 19 20  0  0  0  0  0  0  0  0999 V2000
    0.0515   -0.4871    0.0000 O   0  0  0  0  0  0  0  0  0
    0.7660   -0.8996    0.0000 C   0  0  0  0  0  0  0  0  0
    1.4804   -0.4871    0.0000 C   0  0  0  0  0  0  0  0  0
    2.1949   -0.8996    0.0000 N   0  0  0  0  0  0  0  0  0
    2.9094   -0.4871    0.0000 C   0  0  0  0  0  0  0  0  0
    2.1949   -1.7246    0.0000 C   0  0  0  0  0  0  0  0  0
   -0.6630   -0.8996    0.0000 C   0  0  0  0  0  0  0  0  0
   -0.6630   -1.7246    0.0000 C   0  0  0  0  0  0  0  0  0
   -1.3775   -2.1371    0.0000 C   0  0  0  0  0  0  0  0  0
   -2.0919   -1.7246    0.0000 C   0  0  0  0  0  0  0  0  0
   -2.0919   -0.8996    0.0000 C   0  0  0  0  0  0  0  0  0
   -1.3775   -0.4871    0.0000 C   0  0  0  0  0  0  0  0  0
   -1.3775    0.3379    0.0000 C   0  0  0  0  0  0  0  0  0
   -2.0919    0.7504    0.0000 C   0  0  0  0  0  0  0  0  0
   -2.8064    0.3379    0.0000 C   0  0  0  0  0  0  0  0  0
   -3.5209    0.7504    0.0000 C   0  0  0  0  0  0  0  0  0
   -3.5209    1.5754    0.0000 C   0  0  0  0  0  0  0  0  0
   -2.8064    1.9879    0.0000 C   0  0  0  0  0  0  0  0  0
   -2.0919    1.5754    0.0000 C   0  0  0  0  0  0  0  0  0
  1  2  1  0  0  0  0
  1  7  1  0  0  0  0
  2  3  1  0  0  0  0
  3  4  1  0  0  0  0
  4  5  1  0  0  0  0
  4  6  1  0  0  0  0
  7  8  4  0  0  0  0
  7 12  4  0  0  0  0
  8  9  4  0  0  0  0
  9 10  4  0  0  0  0
 10 11  4  0  0  0  0
 11 12  4  0  0  0  0
 12 13  1  0  0  0  0
 13 14  1  0  0  0  0
 14 15  4  0  0  0  0
 14 19  4  0  0  0  0
 15 16  4  0  0  0  0
 16 17  4  0  0  0  0
 17 18  4  0  0  0  0
 18 19  4  0  0  0  0
M  END
>  <Name_Molregno>
311934

>  <DOPAMINE D1>
6.46

>  <DOPAMINE D2>
5.56

>  <DOPAMINE D3>
5

>  <DOPAMINE D4>
5.56

>  <DOPAMINE D5>
6.38

$$$$
311955
  Marvin  02231216192D 0   1.00000     0.00000     0

 22 24  0  0  0  0  0  0  0  0999 V2000
   -0.5375    0.5150    0.0000 O   0  0  0  0  0  0  0  0  0
   -0.5375   -0.3100    0.0000 C   0  0  0  0  0  0  0  0  0
    0.1770   -0.7225    0.0000 C   0  0  0  0  0  0  0  0  0
    0.1770   -1.5475    0.0000 N   0  0  0  0  0  0  0  0  0
    0.8915   -1.9600    0.0000 C   0  0  0  0  0  0  0  0  0
    0.8915   -2.7850    0.0000 C   0  0  0  0  0  0  0  0  0
    0.1770   -3.1975    0.0000 C   0  0  0  0  0  0  0  0  0
   -0.5375   -2.7850    0.0000 C   0  0  0  0  0  0  0  0  0
   -0.5375   -1.9600    0.0000 C   0  0  0  0  0  0  0  0  0
   -1.2520    0.9275    0.0000 C   0  0  0  0  0  0  0  0  0
   -1.9664    0.5150    0.0000 C   0  0  0  0  0  0  0  0  0
   -2.6809    0.9275    0.0000 C   0  0  0  0  0  0  0  0  0
   -2.6809    1.7525    0.0000 C   0  0  0  0  0  0  0  0  0
   -1.9664    2.1650    0.0000 C   0  0  0  0  0  0  0  0  0
   -1.2520    1.7525    0.0000 C   0  0  0  0  0  0  0  0  0
   -0.5375    2.1650    0.0000 C   0  0  0  0  0  0  0  0  0
    0.1770    1.7525    0.0000 C   0  0  0  0  0  0  0  0  0
    0.8915    2.1650    0.0000 C   0  0  0  0  0  0  0  0  0
    1.6059    1.7525    0.0000 C   0  0  0  0  0  0  0  0  0
    1.6059    0.9275    0.0000 C   0  0  0  0  0  0  0  0  0
    0.8915    0.5150    0.0000 C   0  0  0  0  0  0  0  0  0
    0.1770    0.9275    0.0000 C   0  0  0  0  0  0  0  0  0
  1  2  1  0  0  0  0
  1 10  1  0  0  0  0
  2  3  1  0  0  0  0
  3  4  1  0  0  0  0
  4  5  1  0  0  0  0
  4  9  1  0  0  0  0
  5  6  1  0  0  0  0
  6  7  1  0  0  0  0
  7  8  1  0  0  0  0
  8  9  1  0  0  0  0
 10 11  4  0  0  0  0
 10 15  4  0  0  0  0
 11 12  4  0  0  0  0
 12 13  4  0  0  0  0
 13 14  4  0  0  0  0
 14 15  4  0  0  0  0
 15 16  1  0  0  0  0
 16 17  1  0  0  0  0
 17 18  4  0  0  0  0
 17 22  4  0  0  0  0
 18 19  4  0  0  0  0
 19 20  4  0  0  0  0
 20 21  4  0  0  0  0
 21 22  4  0  0  0  0
M  END
>  <Name_Molregno>
311955

>  <DOPAMINE D1>
7.47

>  <DOPAMINE D2>
5.99

>  <DOPAMINE D3>
5.11

>  <DOPAMINE D4>
5.35

>  <DOPAMINE D5>
7.37

$$$$
311956
  Marvin  02231216192D 0   1.00000     0.00000     0

 22 24  0  0  0  0  0  0  0  0999 V2000
    4.4118   -2.4938    0.0000 O   0  0  0  0  0  0  0  0  0
    3.6973   -2.0813    0.0000 C   0  0  0  0  0  0  0  0  0
    3.6973   -1.2563    0.0000 C   0  0  0  0  0  0  0  0  0
    4.4118   -0.8438    0.0000 N   0  0  0  0  0  0  0  0  0
    5.1263   -1.2563    0.0000 C   0  0  0  0  0  0  0  0  0
    5.1263   -2.0813    0.0000 C   0  0  0  0  0  0  0  0  0
    4.4118   -0.0188    0.0000 C   0  0  0  0  0  0  0  0  0
    3.6973    0.3937    0.0000 C   0  0  0  0  0  0  0  0  0
    3.6973    1.2187    0.0000 O   0  0  0  0  0  0  0  0  0
    2.9829    1.6312    0.0000 C   0  0  0  0  0  0  0  0  0
    2.2684    1.2187    0.0000 C   0  0  0  0  0  0  0  0  0
    1.5539    1.6312    0.0000 C   0  0  0  0  0  0  0  0  0
    1.5539    2.4562    0.0000 C   0  0  0  0  0  0  0  0  0
    2.2684    2.8687    0.0000 C   0  0  0  0  0  0  0  0  0
    2.9829    2.4562    0.0000 C   0  0  0  0  0  0  0  0  0
    3.6973    2.8687    0.0000 C   0  0  0  0  0  0  0  0  0
    4.4118    2.4562    0.0000 C   0  0  0  0  0  0  0  0  0
    5.1263    2.8687    0.0000 C   0  0  0  0  0  0  0  0  0
    5.8407    2.4562    0.0000 C   0  0  0  0  0  0  0  0  0
    5.8407    1.6312    0.0000 C   0  0  0  0  0  0  0  0  0
    5.1263    1.2187    0.0000 C   0  0  0  0  0  0  0  0  0
    4.4118    1.6312    0.0000 C   0  0  0  0  0  0  0  0  0
  1  2  1  0  0  0  0
  1  6  1  0  0  0  0
  2  3  1  0  0  0  0
  3  4  1  0  0  0  0
  4  5  1  0  0  0  0
  4  7  1  0  0  0  0
  5  6  1  0  0  0  0
  7  8  1  0  0  0  0
  8  9  1  0  0  0  0
  9 10  1  0  0  0  0
 10 11  4  0  0  0  0
 10 15  4  0  0  0  0
 11 12  4  0  0  0  0
 12 13  4  0  0  0  0
 13 14  4  0  0  0  0
 14 15  4  0  0  0  0
 15 16  1  0  0  0  0
 16 17  1  0  0  0  0
 17 18  4  0  0  0  0
 17 22  4  0  0  0  0
 18 19  4  0  0  0  0
 19 20  4  0  0  0  0
 20 21  4  0  0  0  0
 21 22  4  0  0  0  0
M  END
>  <Name_Molregno>
311956

>  <DOPAMINE D1>
6.7

>  <DOPAMINE D2>
5

>  <DOPAMINE D3>
5

>  <DOPAMINE D4>
5.19

>  <DOPAMINE D5>
6.44

$$$$
312003
  Marvin  02231216192D 0   1.00000     0.00000     0

 21 23  0  0  0  0  0  0  0  0999 V2000
   -0.6931    0.4024    0.0000 O   0  0  0  0  0  0  0  0  0
   -0.6931   -0.4226    0.0000 C   0  0  0  0  0  0  0  0  0
    0.0214   -0.8351    0.0000 C   0  0  0  0  0  0  0  0  0
    0.0214   -1.6601    0.0000 N   0  0  0  0  0  0  0  0  0
    0.6888   -2.1451    0.0000 C   0  0  0  0  0  0  0  0  0
    0.4339   -2.9297    0.0000 C   0  0  0  0  0  0  0  0  0
   -0.3911   -2.9297    0.0000 C   0  0  0  0  0  0  0  0  0
   -0.6460   -2.1451    0.0000 C   0  0  0  0  0  0  0  0  0
   -1.4075    0.8149    0.0000 C   0  0  0  0  0  0  0  0  0
   -2.1220    0.4024    0.0000 C   0  0  0  0  0  0  0  0  0
   -2.8365    0.8149    0.0000 C   0  0  0  0  0  0  0  0  0
   -2.8365    1.6399    0.0000 C   0  0  0  0  0  0  0  0  0
   -2.1220    2.0524    0.0000 C   0  0  0  0  0  0  0  0  0
   -1.4075    1.6399    0.0000 C   0  0  0  0  0  0  0  0  0
   -0.6931    2.0524    0.0000 C   0  0  0  0  0  0  0  0  0
    0.0214    1.6399    0.0000 C   0  0  0  0  0  0  0  0  0
    0.7359    2.0524    0.0000 C   0  0  0  0  0  0  0  0  0
    1.4503    1.6399    0.0000 C   0  0  0  0  0  0  0  0  0
    1.4503    0.8149    0.0000 C   0  0  0  0  0  0  0  0  0
    0.7359    0.4024    0.0000 C   0  0  0  0  0  0  0  0  0
    0.0214    0.8149    0.0000 C   0  0  0  0  0  0  0  0  0
  1  2  1  0  0  0  0
  1  9  1  0  0  0  0
  2  3  1  0  0  0  0
  3  4  1  0  0  0  0
  4  5  1  0  0  0  0
  4  8  1  0  0  0  0
  5  6  1  0  0  0  0
  6  7  1  0  0  0  0
  7  8  1  0  0  0  0
  9 10  4  0  0  0  0
  9 14  4  0  0  0  0
 10 11  4  0  0  0  0
 11 12  4  0  0  0  0
 12 13  4  0  0  0  0
 13 14  4  0  0  0  0
 14 15  1  0  0  0  0
 15 16  1  0  0  0  0
 16 17  4  0  0  0  0
 16 21  4  0  0  0  0
 17 18  4  0  0  0  0
 18 19  4  0  0  0  0
 19 20  4  0  0  0  0
 20 21  4  0  0  0  0
M  END
>  <Name_Molregno>
312003

>  <DOPAMINE D1>
6.42

>  <DOPAMINE D2>
5

>  <DOPAMINE D3>
5.74

>  <DOPAMINE D4>
5.85

>  <DOPAMINE D5>
6.02

$$$$
312018
  Marvin  02231216192D 0   1.00000     0.00000     0

 22 24  0  0  0  0  0  0  0  0999 V2000
   -0.9797   -0.4627    0.0000 O   0  0  0  0  0  0  0  0  0
   -0.2182    0.0222    0.0000 C   0  0  0  0  0  0  0  0  0
    0.0368    0.8068    0.0000 C   0  0  0  0  0  0  0  0  0
    0.8618    0.8068    0.0000 N   0  0  0  0  0  0  0  0  0
    1.1167    0.0222    0.0000 C   0  0  0  0  0  0  0  0  0
    1.8782   -0.4627    0.0000 C   0  0  0  0  0  0  0  0  0
    1.8782   -1.2877    0.0000 C   0  0  0  0  0  0  0  0  0
    1.1637   -1.7002    0.0000 C   0  0  0  0  0  0  0  0  0
    0.4493   -1.2877    0.0000 C   0  0  0  0  0  0  0  0  0
   -0.2652   -1.7002    0.0000 C   0  0  0  0  0  0  0  0  0
   -0.9797   -1.2877    0.0000 C   0  0  0  0  0  0  0  0  0
   -1.6942   -1.7002    0.0000 C   0  0  0  0  0  0  0  0  0
   -1.6942   -2.5252    0.0000 C   0  0  0  0  0  0  0  0  0
   -2.4086   -2.9377    0.0000 O   0  0  0  0  0  0  0  0  0
   -2.4086   -3.7627    0.0000 C   0  0  0  0  0  0  0  0  0
   -0.9797   -2.9377    0.0000 C   0  0  0  0  0  0  0  0  0
   -0.2652   -2.5252    0.0000 C   0  0  0  0  0  0  0  0  0
    1.1637   -2.5252    0.0000 C   0  0  0  0  0  0  0  0  0
    1.8782   -2.9377    0.0000 C   0  0  0  0  0  0  0  0  0
    2.5927   -2.5252    0.0000 C   0  0  0  0  0  0  0  0  0
    2.5927   -1.7002    0.0000 C   0  0  0  0  0  0  0  0  0
    1.3467    1.4743    0.0000 C   0  0  0  0  0  0  0  0  0
  1  2  1  0  0  0  0
  1 11  1  0  0  0  0
  2  3  1  0  0  0  0
  3  4  1  0  0  0  0
  4  5  1  0  0  0  0
  4 22  1  0  0  0  0
  5  6  1  0  0  0  0
  6  7  1  0  0  0  0
  7  8  4  0  0  0  0
  7 21  4  0  0  0  0
  8  9  1  0  0  0  0
  8 18  4  0  0  0  0
  9 10  1  0  0  0  0
 10 11  4  0  0  0  0
 10 17  4  0  0  0  0
 11 12  4  0  0  0  0
 12 13  4  0  0  0  0
 13 14  1  0  0  0  0
 13 16  4  0  0  0  0
 14 15  1  0  0  0  0
 16 17  4  0  0  0  0
 18 19  4  0  0  0  0
 19 20  4  0  0  0  0
 20 21  4  0  0  0  0
M  END
>  <Name_Molregno>
312018

>  <DOPAMINE D1>
7.45

>  <DOPAMINE D2>
6.8

>  <DOPAMINE D3>
5.8

>  <DOPAMINE D4>
6.26

>  <DOPAMINE D5>
8.74

$$$$
312019
  Marvin  02231216192D 0   1.00000     0.00000     0

 21 23  0  0  0  0  0  0  0  0999 V2000
   -0.3138   -0.2718    0.0000 O   0  0  0  0  0  0  0  0  0
    0.4477    0.2132    0.0000 C   0  0  0  0  0  0  0  0  0
    0.7027    0.9978    0.0000 C   0  0  0  0  0  0  0  0  0
    1.5277    0.9978    0.0000 N   0  0  0  0  0  0  0  0  0
    1.7826    0.2132    0.0000 C   0  0  0  0  0  0  0  0  0
    2.5441   -0.2718    0.0000 C   0  0  0  0  0  0  0  0  0
    2.5441   -1.0968    0.0000 C   0  0  0  0  0  0  0  0  0
    1.8296   -1.5093    0.0000 C   0  0  0  0  0  0  0  0  0
    1.1152   -1.0968    0.0000 C   0  0  0  0  0  0  0  0  0
    0.4007   -1.5093    0.0000 C   0  0  0  0  0  0  0  0  0
   -0.3138   -1.0968    0.0000 C   0  0  0  0  0  0  0  0  0
   -1.0282   -1.5093    0.0000 C   0  0  0  0  0  0  0  0  0
   -1.0282   -2.3343    0.0000 C   0  0  0  0  0  0  0  0  0
   -1.7427   -2.7468    0.0000 O   0  0  0  0  0  0  0  0  0
   -0.3138   -2.7468    0.0000 C   0  0  0  0  0  0  0  0  0
    0.4007   -2.3343    0.0000 C   0  0  0  0  0  0  0  0  0
    1.8296   -2.3343    0.0000 C   0  0  0  0  0  0  0  0  0
    2.5441   -2.7468    0.0000 C   0  0  0  0  0  0  0  0  0
    3.2586   -2.3343    0.0000 C   0  0  0  0  0  0  0  0  0
    3.2586   -1.5093    0.0000 C   0  0  0  0  0  0  0  0  0
    2.0126    1.6652    0.0000 C   0  0  0  0  0  0  0  0  0
  1  2  1  0  0  0  0
  1 11  1  0  0  0  0
  2  3  1  0  0  0  0
  3  4  1  0  0  0  0
  4  5  1  0  0  0  0
  4 21  1  0  0  0  0
  5  6  1  0  0  0  0
  6  7  1  0  0  0  0
  7  8  4  0  0  0  0
  7 20  4  0  0  0  0
  8  9  1  0  0  0  0
  8 17  4  0  0  0  0
  9 10  1  0  0  0  0
 10 11  4  0  0  0  0
 10 16  4  0  0  0  0
 11 12  4  0  0  0  0
 12 13  4  0  0  0  0
 13 14  1  0  0  0  0
 13 15  4  0  0  0  0
 15 16  4  0  0  0  0
 17 18  4  0  0  0  0
 18 19  4  0  0  0  0
 19 20  4  0  0  0  0
M  END
>  <Name_Molregno>
312019

>  <DOPAMINE D1>
8.49

>  <DOPAMINE D2>
6.56

>  <DOPAMINE D3>
5.86

>  <DOPAMINE D4>
6.43

>  <DOPAMINE D5>
9.24

$$$$
320346
  Marvin  02231216192D 0   1.00000     0.00000     0

 25 28  0  0  1  0  0  0  0  0999 V2000
   -0.3965   -3.1617    0.0000 O   0  0  0  0  0  0  0  0  0
    0.3175   -3.5751    0.0000 C   0  0  0  0  0  0  0  0  0
    1.0325   -3.1634    0.0000 N   0  0  0  0  0  0  0  0  0
    1.0334   -2.3384    0.0000 C   0  0  0  0  0  0  0  0  0
    1.7484   -1.9268    0.0000 C   0  0  0  0  0  0  0  0  0
    1.7494   -1.1018    0.0000 C   0  0  0  0  0  0  0  0  0
    1.0354   -0.6884    0.0000 C   0  0  0  0  0  0  0  0  0
    0.3205   -1.1001    0.0000 N   0  0  0  0  0  0  0  0  0
    0.3195   -1.9251    0.0000 C   0  0  0  0  0  0  0  0  0
   -0.3935   -0.6867    0.0000 C   0  0  0  0  0  0  0  0  0
    1.0369    0.1357    0.0000 C   0  0  0  0  0  0  0  0  0
    1.7494    0.5482    0.0000 C   0  0  0  0  0  0  0  0  0
    2.4619    0.1357    0.0000 C   0  0  0  0  0  0  0  0  0
    2.4619   -0.6893    0.0000 C   0  0  0  0  0  0  0  0  0
    3.1798   -1.1018    0.0000 C   0  0  0  0  0  0  0  0  0
    3.8923   -0.6893    0.0000 C   0  0  0  0  0  0  0  0  0
    3.8923    0.1357    0.0000 C   0  0  0  0  0  0  0  0  0
    3.1798    0.5482    0.0000 C   0  0  0  0  0  0  0  0  0
    2.8744    1.4054    0.0000 N   0  0  0  0  0  0  0  0  0
    2.0494    1.4054    0.0000 C   0  0  0  0  0  0  0  0  0
    0.3165   -4.4001    0.0000 N   0  0  0  0  0  0  0  0  0
   -0.3985   -4.8117    0.0000 C   0  0  0  0  0  0  0  0  0
   -0.3994   -5.6367    0.0000 C   0  0  0  0  0  0  0  0  0
    1.0305   -4.8134    0.0000 C   0  0  0  0  0  0  0  0  0
    1.0295   -5.6384    0.0000 C   0  0  0  0  0  0  0  0  0
  1  2  2  0  0  0  0
  2  3  1  0  0  0  0
  2 21  1  0  0  0  0
  3  4  1  0  0  0  0
  4  5  1  0  0  0  0
  4  9  1  0  0  0  0
  5  6  2  0  0  0  0
  6  7  1  0  0  0  0
  6 14  1  0  0  0  0
  7  8  1  0  0  0  0
  7 11  1  0  0  0  0
  8  9  1  0  0  0  0
  8 10  1  0  0  0  0
 11 12  1  0  0  0  0
 12 13  4  0  0  0  0
 12 20  4  0  0  0  0
 13 14  4  0  0  0  0
 13 18  4  0  0  0  0
 14 15  4  0  0  0  0
 15 16  4  0  0  0  0
 16 17  4  0  0  0  0
 17 18  4  0  0  0  0
 18 19  4  0  0  0  0
 19 20  4  0  0  0  0
 21 22  1  0  0  0  0
 21 24  1  0  0  0  0
 22 23  1  0  0  0  0
 24 25  1  0  0  0  0
M  STY  1   1 DAT
M  SAL   1  1  19
M  SDT   1 MRV_IMPLICIT_H                                        
M  SDD   1     0.0000    0.0000    DR    ALL  0       0  
M  SED   1 IMPL_H1
M  END
>  <Name_Molregno>
320346

>  <5-HT1A>
9.06

>  <5-HT1B>
7.73

>  <5-HT1D>
9.01

>  <5-HT2A>
8.71

>  <5-HT2C>
8.2

>  <Alpha-1A>
8.26

>  <Alpha-1B>
7.78

>  <Alpha-2A>
10.26

>  <Alpha-2B>
9.87

>  <Beta-1>
7.17

>  <Beta-2>
8.1

>  <DOPAMINE D1>
7.19

>  <DOPAMINE D2>
9.31

>  <DOPAMINE D3>
9.14

>  <DOPAMINE D4>
8.33

>  <DOPAMINE D5>
8.45

$$$$
327069
  Marvin  02231216192D 0   1.00000     0.00000     0

 31 34  0  0  0  0  0  0  0  0999 V2000
    4.9165    5.1026    0.0000 Cl  0  0  0  0  0  0  0  0  0
    4.9165    4.2776    0.0000 C   0  0  0  0  0  0  0  0  0
    5.6310    3.8651    0.0000 C   0  0  0  0  0  0  0  0  0
    5.6310    3.0401    0.0000 C   0  0  0  0  0  0  0  0  0
    4.9165    2.6276    0.0000 C   0  0  0  0  0  0  0  0  0
    4.9165    1.8026    0.0000 N   0  0  0  0  0  0  0  0  0
    5.6310    1.3901    0.0000 C   0  0  0  0  0  0  0  0  0
    5.6310    0.5651    0.0000 C   0  0  0  0  0  0  0  0  0
    4.9165    0.1526    0.0000 N   0  0  0  0  0  0  0  0  0
    4.2021    0.5651    0.0000 C   0  0  0  0  0  0  0  0  0
    4.2021    1.3901    0.0000 C   0  0  0  0  0  0  0  0  0
    4.9165   -0.6724    0.0000 C   0  0  0  0  0  0  0  0  0
    4.2021   -1.0849    0.0000 O   0  0  0  0  0  0  0  0  0
    5.6310   -1.0849    0.0000 N   0  0  0  0  0  0  0  0  0
    5.6310   -1.9099    0.0000 C   0  0  0  0  0  0  0  0  0
    6.3455   -2.3224    0.0000 C   0  0  0  0  0  0  0  0  0
    6.3455   -3.1474    0.0000 C   0  0  0  0  0  0  0  0  0
    7.0599   -3.5599    0.0000 N   0  0  0  0  0  0  0  0  0
    7.7744   -3.1474    0.0000 C   0  0  0  0  0  0  0  0  0
    8.4889   -3.5599    0.0000 C   0  0  0  0  0  0  0  0  0
    8.4889   -4.3849    0.0000 N   0  0  0  0  0  0  0  0  0
    7.7744   -4.7974    0.0000 C   0  0  0  0  0  0  0  0  0
    7.0599   -4.3849    0.0000 C   0  0  0  0  0  0  0  0  0
    9.2034   -4.7974    0.0000 C   0  0  0  0  0  0  0  0  0
    5.6310   -3.5599    0.0000 C   0  0  0  0  0  0  0  0  0
    5.6310   -4.3849    0.0000 O   0  0  0  0  0  0  0  0  0
    4.9165   -4.7974    0.0000 C   0  0  0  0  0  0  0  0  0
    4.9165   -3.1474    0.0000 C   0  0  0  0  0  0  0  0  0
    4.9165   -2.3224    0.0000 C   0  0  0  0  0  0  0  0  0
    4.2021    3.0401    0.0000 C   0  0  0  0  0  0  0  0  0
    4.2021    3.8651    0.0000 C   0  0  0  0  0  0  0  0  0
  1  2  1  0  0  0  0
  2  3  4  0  0  0  0
  2 31  4  0  0  0  0
  3  4  4  0  0  0  0
  4  5  4  0  0  0  0
  5  6  1  0  0  0  0
  5 30  4  0  0  0  0
  6  7  1  0  0  0  0
  6 11  1  0  0  0  0
  7  8  1  0  0  0  0
  8  9  1  0  0  0  0
  9 10  1  0  0  0  0
  9 12  1  0  0  0  0
 10 11  1  0  0  0  0
 12 13  2  0  0  0  0
 12 14  1  0  0  0  0
 14 15  1  0  0  0  0
 15 16  4  0  0  0  0
 15 29  4  0  0  0  0
 16 17  4  0  0  0  0
 17 18  1  0  0  0  0
 17 25  4  0  0  0  0
 18 19  1  0  0  0  0
 18 23  1  0  0  0  0
 19 20  1  0  0  0  0
 20 21  1  0  0  0  0
 21 22  1  0  0  0  0
 21 24  1  0  0  0  0
 22 23  1  0  0  0  0
 25 26  1  0  0  0  0
 25 28  4  0  0  0  0
 26 27  1  0  0  0  0
 28 29  4  0  0  0  0
 30 31  4  0  0  0  0
M  END
>  <Name_Molregno>
327069

>  <5-HT1A>
7.28

>  <5-HT1B>
8.74

>  <5-HT1D>
8.19

>  <5-HT2A>
6

>  <5-HT2C>
6.57

>  <5-HT6>
5.29

>  <5-HT7>
5

>  <DOPAMINE D1>
5

>  <DOPAMINE D2>
5

>  <DOPAMINE D3>
5

>  <DOPAMINE D4>
5

>  <DOPAMINE D5>
5

>  <HISTAMINE H1>
5

>  <Muscarinic acetylcholine receptor M1>
5

>  <Muscarinic acetylcholine receptor M2>
5

>  <Muscarinic acetylcholine receptor M3>
5

>  <Muscarinic acetylcholine receptor M4>
5

>  <Muscarinic acetylcholine receptor M5>
5

$$$$
327077
  Marvin  02231216192D 0   1.00000     0.00000     0

 31 34  0  0  0  0  0  0  0  0999 V2000
    4.9165    5.1026    0.0000 F   0  0  0  0  0  0  0  0  0
    4.9165    4.2776    0.0000 C   0  0  0  0  0  0  0  0  0
    5.6310    3.8651    0.0000 C   0  0  0  0  0  0  0  0  0
    5.6310    3.0401    0.0000 C   0  0  0  0  0  0  0  0  0
    4.9165    2.6276    0.0000 C   0  0  0  0  0  0  0  0  0
    4.9165    1.8026    0.0000 N   0  0  0  0  0  0  0  0  0
    5.6310    1.3901    0.0000 C   0  0  0  0  0  0  0  0  0
    5.6310    0.5651    0.0000 C   0  0  0  0  0  0  0  0  0
    4.9165    0.1526    0.0000 N   0  0  0  0  0  0  0  0  0
    4.2021    0.5651    0.0000 C   0  0  0  0  0  0  0  0  0
    4.2021    1.3901    0.0000 C   0  0  0  0  0  0  0  0  0
    4.9165   -0.6724    0.0000 C   0  0  0  0  0  0  0  0  0
    4.2021   -1.0849    0.0000 O   0  0  0  0  0  0  0  0  0
    5.6310   -1.0849    0.0000 N   0  0  0  0  0  0  0  0  0
    5.6310   -1.9099    0.0000 C   0  0  0  0  0  0  0  0  0
    6.3455   -2.3224    0.0000 C   0  0  0  0  0  0  0  0  0
    6.3455   -3.1474    0.0000 C   0  0  0  0  0  0  0  0  0
    7.0599   -3.5599    0.0000 N   0  0  0  0  0  0  0  0  0
    7.7744   -3.1474    0.0000 C   0  0  0  0  0  0  0  0  0
    8.4889   -3.5599    0.0000 C   0  0  0  0  0  0  0  0  0
    8.4889   -4.3849    0.0000 N   0  0  0  0  0  0  0  0  0
    7.7744   -4.7974    0.0000 C   0  0  0  0  0  0  0  0  0
    7.0599   -4.3849    0.0000 C   0  0  0  0  0  0  0  0  0
    9.2034   -4.7974    0.0000 C   0  0  0  0  0  0  0  0  0
    5.6310   -3.5599    0.0000 C   0  0  0  0  0  0  0  0  0
    5.6310   -4.3849    0.0000 O   0  0  0  0  0  0  0  0  0
    4.9165   -4.7974    0.0000 C   0  0  0  0  0  0  0  0  0
    4.9165   -3.1474    0.0000 C   0  0  0  0  0  0  0  0  0
    4.9165   -2.3224    0.0000 C   0  0  0  0  0  0  0  0  0
    4.2021    3.0401    0.0000 C   0  0  0  0  0  0  0  0  0
    4.2021    3.8651    0.0000 C   0  0  0  0  0  0  0  0  0
  1  2  1  0  0  0  0
  2  3  4  0  0  0  0
  2 31  4  0  0  0  0
  3  4  4  0  0  0  0
  4  5  4  0  0  0  0
  5  6  1  0  0  0  0
  5 30  4  0  0  0  0
  6  7  1  0  0  0  0
  6 11  1  0  0  0  0
  7  8  1  0  0  0  0
  8  9  1  0  0  0  0
  9 10  1  0  0  0  0
  9 12  1  0  0  0  0
 10 11  1  0  0  0  0
 12 13  2  0  0  0  0
 12 14  1  0  0  0  0
 14 15  1  0  0  0  0
 15 16  4  0  0  0  0
 15 29  4  0  0  0  0
 16 17  4  0  0  0  0
 17 18  1  0  0  0  0
 17 25  4  0  0  0  0
 18 19  1  0  0  0  0
 18 23  1  0  0  0  0
 19 20  1  0  0  0  0
 20 21  1  0  0  0  0
 21 22  1  0  0  0  0
 21 24  1  0  0  0  0
 22 23  1  0  0  0  0
 25 26  1  0  0  0  0
 25 28  4  0  0  0  0
 26 27  1  0  0  0  0
 28 29  4  0  0  0  0
 30 31  4  0  0  0  0
M  END
>  <Name_Molregno>
327077

>  <5-HT1A>
5.97

>  <5-HT1B>
7.42

>  <5-HT1D>
6.77

>  <5-HT2A>
5.35

>  <5-HT2C>
5

>  <5-HT6>
5

>  <5-HT7>
5

>  <DOPAMINE D1>
5

>  <DOPAMINE D2>
5

>  <DOPAMINE D3>
5

>  <DOPAMINE D4>
5

>  <DOPAMINE D5>
5

>  <HISTAMINE H1>
5

>  <Muscarinic acetylcholine receptor M1>
5

>  <Muscarinic acetylcholine receptor M2>
5

>  <Muscarinic acetylcholine receptor M3>
5

>  <Muscarinic acetylcholine receptor M4>
5

>  <Muscarinic acetylcholine receptor M5>
5

$$$$
327082
  Marvin  02231216192D 0   1.00000     0.00000     0

 36 40  0  0  0  0  0  0  0  0999 V2000
   -4.3490    4.5404    0.0000 O   0  0  0  0  0  0  0  0  0
   -5.0635    4.9529    0.0000 C   0  0  0  0  0  0  0  0  0
   -4.3490    3.7154    0.0000 C   0  0  0  0  0  0  0  0  0
   -3.6345    3.3029    0.0000 C   0  0  0  0  0  0  0  0  0
   -3.6345    2.4779    0.0000 C   0  0  0  0  0  0  0  0  0
   -4.3490    2.0654    0.0000 C   0  0  0  0  0  0  0  0  0
   -4.3490    1.2404    0.0000 N   0  0  0  0  0  0  0  0  0
   -3.6345    0.8279    0.0000 C   0  0  0  0  0  0  0  0  0
   -2.9201    1.2404    0.0000 O   0  0  0  0  0  0  0  0  0
   -3.6345    0.0029    0.0000 N   0  0  0  0  0  0  0  0  0
   -2.9201   -0.4096    0.0000 C   0  0  0  0  0  0  0  0  0
   -2.9201   -1.2346    0.0000 C   0  0  0  0  0  0  0  0  0
   -3.6345   -1.6471    0.0000 N   0  0  0  0  0  0  0  0  0
   -4.3490   -1.2346    0.0000 C   0  0  0  0  0  0  0  0  0
   -4.3490   -0.4096    0.0000 C   0  0  0  0  0  0  0  0  0
   -3.6345   -2.4721    0.0000 C   0  0  0  0  0  0  0  0  0
   -2.9201   -2.8846    0.0000 C   0  0  0  0  0  0  0  0  0
   -2.9201   -3.7096    0.0000 C   0  0  0  0  0  0  0  0  0
   -3.6345   -4.1221    0.0000 C   0  0  0  0  0  0  0  0  0
   -4.3490   -3.7096    0.0000 C   0  0  0  0  0  0  0  0  0
   -4.3490   -2.8846    0.0000 C   0  0  0  0  0  0  0  0  0
   -3.6345   -4.9471    0.0000 C   0  0  0  0  0  0  0  0  0
   -2.9201   -5.3596    0.0000 C   0  0  0  0  0  0  0  0  0
   -2.9201   -6.1846    0.0000 C   0  0  0  0  0  0  0  0  0
   -3.6345   -6.5971    0.0000 C   0  0  0  0  0  0  0  0  0
   -4.3490   -6.1846    0.0000 C   0  0  0  0  0  0  0  0  0
   -4.3490   -5.3596    0.0000 C   0  0  0  0  0  0  0  0  0
   -5.0635    2.4779    0.0000 C   0  0  0  0  0  0  0  0  0
   -5.0635    3.3029    0.0000 C   0  0  0  0  0  0  0  0  0
   -5.7779    3.7154    0.0000 N   0  0  0  0  0  0  0  0  0
   -6.4924    3.3029    0.0000 C   0  0  0  0  0  0  0  0  0
   -7.2069    3.7154    0.0000 C   0  0  0  0  0  0  0  0  0
   -7.2069    4.5404    0.0000 N   0  0  0  0  0  0  0  0  0
   -6.4924    4.9529    0.0000 C   0  0  0  0  0  0  0  0  0
   -5.7779    4.5404    0.0000 C   0  0  0  0  0  0  0  0  0
   -7.9214    4.9529    0.0000 C   0  0  0  0  0  0  0  0  0
  1  2  1  0  0  0  0
  1  3  1  0  0  0  0
  3  4  4  0  0  0  0
  3 29  4  0  0  0  0
  4  5  4  0  0  0  0
  5  6  4  0  0  0  0
  6  7  1  0  0  0  0
  6 28  4  0  0  0  0
  7  8  1  0  0  0  0
  8  9  2  0  0  0  0
  8 10  1  0  0  0  0
 10 11  1  0  0  0  0
 10 15  1  0  0  0  0
 11 12  1  0  0  0  0
 12 13  1  0  0  0  0
 13 14  1  0  0  0  0
 13 16  1  0  0  0  0
 14 15  1  0  0  0  0
 16 17  4  0  0  0  0
 16 21  4  0  0  0  0
 17 18  4  0  0  0  0
 18 19  4  0  0  0  0
 19 20  4  0  0  0  0
 19 22  1  0  0  0  0
 20 21  4  0  0  0  0
 22 23  4  0  0  0  0
 22 27  4  0  0  0  0
 23 24  4  0  0  0  0
 24 25  4  0  0  0  0
 25 26  4  0  0  0  0
 26 27  4  0  0  0  0
 28 29  4  0  0  0  0
 29 30  1  0  0  0  0
 30 31  1  0  0  0  0
 30 35  1  0  0  0  0
 31 32  1  0  0  0  0
 32 33  1  0  0  0  0
 33 34  1  0  0  0  0
 33 36  1  0  0  0  0
 34 35  1  0  0  0  0
M  END
>  <Name_Molregno>
327082

>  <5-HT1A>
6.39

>  <5-HT1B>
7.86

>  <5-HT1D>
6.68

>  <5-HT2A>
6.77

>  <5-HT2C>
8.19

>  <5-HT6>
5.84

>  <5-HT7>
5

>  <DOPAMINE D1>
5

>  <DOPAMINE D2>
5

>  <DOPAMINE D3>
5

>  <DOPAMINE D4>
5

>  <DOPAMINE D5>
5

>  <HISTAMINE H1>
5

>  <Muscarinic acetylcholine receptor M1>
5

>  <Muscarinic acetylcholine receptor M2>
5

>  <Muscarinic acetylcholine receptor M3>
5

>  <Muscarinic acetylcholine receptor M4>
5

>  <Muscarinic acetylcholine receptor M5>
5

$$$$
327083
  Marvin  02231216192D 0   1.00000     0.00000     0

 34 37  0  0  0  0  0  0  0  0999 V2000
    5.2566    5.4075    0.0000 F   0  0  0  0  0  0  0  0  0
    5.2566    4.5825    0.0000 C   0  0  0  0  0  0  0  0  0
    4.4316    4.5825    0.0000 F   0  0  0  0  0  0  0  0  0
    6.0816    4.5825    0.0000 F   0  0  0  0  0  0  0  0  0
    5.2566    3.7575    0.0000 C   0  0  0  0  0  0  0  0  0
    5.9711    3.3450    0.0000 C   0  0  0  0  0  0  0  0  0
    5.9711    2.5200    0.0000 C   0  0  0  0  0  0  0  0  0
    5.2566    2.1075    0.0000 C   0  0  0  0  0  0  0  0  0
    5.2566    1.2825    0.0000 N   0  0  0  0  0  0  0  0  0
    5.9711    0.8700    0.0000 C   0  0  0  0  0  0  0  0  0
    5.9711    0.0450    0.0000 C   0  0  0  0  0  0  0  0  0
    5.2566   -0.3675    0.0000 N   0  0  0  0  0  0  0  0  0
    4.5421    0.0450    0.0000 C   0  0  0  0  0  0  0  0  0
    4.5421    0.8700    0.0000 C   0  0  0  0  0  0  0  0  0
    5.2566   -1.1925    0.0000 C   0  0  0  0  0  0  0  0  0
    4.5421   -1.6050    0.0000 O   0  0  0  0  0  0  0  0  0
    5.9711   -1.6050    0.0000 N   0  0  0  0  0  0  0  0  0
    5.9711   -2.4300    0.0000 C   0  0  0  0  0  0  0  0  0
    6.6855   -2.8425    0.0000 C   0  0  0  0  0  0  0  0  0
    6.6855   -3.6675    0.0000 C   0  0  0  0  0  0  0  0  0
    7.4000   -4.0800    0.0000 N   0  0  0  0  0  0  0  0  0
    8.1145   -3.6675    0.0000 C   0  0  0  0  0  0  0  0  0
    8.8289   -4.0800    0.0000 C   0  0  0  0  0  0  0  0  0
    8.8289   -4.9050    0.0000 N   0  0  0  0  0  0  0  0  0
    8.1145   -5.3175    0.0000 C   0  0  0  0  0  0  0  0  0
    7.4000   -4.9050    0.0000 C   0  0  0  0  0  0  0  0  0
    9.5434   -5.3175    0.0000 C   0  0  0  0  0  0  0  0  0
    5.9711   -4.0800    0.0000 C   0  0  0  0  0  0  0  0  0
    5.9711   -4.9050    0.0000 O   0  0  0  0  0  0  0  0  0
    5.2566   -5.3175    0.0000 C   0  0  0  0  0  0  0  0  0
    5.2566   -3.6675    0.0000 C   0  0  0  0  0  0  0  0  0
    5.2566   -2.8425    0.0000 C   0  0  0  0  0  0  0  0  0
    4.5421    2.5200    0.0000 C   0  0  0  0  0  0  0  0  0
    4.5421    3.3450    0.0000 C   0  0  0  0  0  0  0  0  0
  1  2  1  0  0  0  0
  2  3  1  0  0  0  0
  2  4  1  0  0  0  0
  2  5  1  0  0  0  0
  5  6  4  0  0  0  0
  5 34  4  0  0  0  0
  6  7  4  0  0  0  0
  7  8  4  0  0  0  0
  8  9  1  0  0  0  0
  8 33  4  0  0  0  0
  9 10  1  0  0  0  0
  9 14  1  0  0  0  0
 10 11  1  0  0  0  0
 11 12  1  0  0  0  0
 12 13  1  0  0  0  0
 12 15  1  0  0  0  0
 13 14  1  0  0  0  0
 15 16  2  0  0  0  0
 15 17  1  0  0  0  0
 17 18  1  0  0  0  0
 18 19  4  0  0  0  0
 18 32  4  0  0  0  0
 19 20  4  0  0  0  0
 20 21  1  0  0  0  0
 20 28  4  0  0  0  0
 21 22  1  0  0  0  0
 21 26  1  0  0  0  0
 22 23  1  0  0  0  0
 23 24  1  0  0  0  0
 24 25  1  0  0  0  0
 24 27  1  0  0  0  0
 25 26  1  0  0  0  0
 28 29  1  0  0  0  0
 28 31  4  0  0  0  0
 29 30  1  0  0  0  0
 31 32  4  0  0  0  0
 33 34  4  0  0  0  0
M  END
>  <Name_Molregno>
327083

>  <5-HT1A>
6.42

>  <5-HT1B>
7.55

>  <5-HT1D>
6.46

>  <5-HT2A>
6.21

>  <5-HT2C>
5.55

>  <5-HT6>
5.54

>  <5-HT7>
5

>  <DOPAMINE D1>
5

>  <DOPAMINE D2>
5

>  <DOPAMINE D3>
5

>  <DOPAMINE D4>
5

>  <DOPAMINE D5>
5

>  <HISTAMINE H1>
5

>  <Muscarinic acetylcholine receptor M1>
5

>  <Muscarinic acetylcholine receptor M2>
5

>  <Muscarinic acetylcholine receptor M3>
5

>  <Muscarinic acetylcholine receptor M4>
5

>  <Muscarinic acetylcholine receptor M5>
5

$$$$
327090
  Marvin  02231216192D 0   1.00000     0.00000     0

 32 35  0  0  0  0  0  0  0  0999 V2000
   -6.3746    6.5338    0.0000 S   0  0  0  0  0  0  0  0  0
   -7.0891    6.9463    0.0000 C   0  0  0  0  0  0  0  0  0
   -6.3746    5.7088    0.0000 C   0  0  0  0  0  0  0  0  0
   -5.6602    5.2963    0.0000 C   0  0  0  0  0  0  0  0  0
   -5.6602    4.4713    0.0000 C   0  0  0  0  0  0  0  0  0
   -6.3746    4.0588    0.0000 C   0  0  0  0  0  0  0  0  0
   -6.3746    3.2338    0.0000 N   0  0  0  0  0  0  0  0  0
   -5.6602    2.8213    0.0000 C   0  0  0  0  0  0  0  0  0
   -5.6602    1.9963    0.0000 C   0  0  0  0  0  0  0  0  0
   -6.3746    1.5838    0.0000 N   0  0  0  0  0  0  0  0  0
   -7.0891    1.9963    0.0000 C   0  0  0  0  0  0  0  0  0
   -7.0891    2.8213    0.0000 C   0  0  0  0  0  0  0  0  0
   -6.3746    0.7588    0.0000 C   0  0  0  0  0  0  0  0  0
   -7.0891    0.3463    0.0000 O   0  0  0  0  0  0  0  0  0
   -5.6602    0.3463    0.0000 N   0  0  0  0  0  0  0  0  0
   -5.6602   -0.4787    0.0000 C   0  0  0  0  0  0  0  0  0
   -4.9457   -0.8912    0.0000 C   0  0  0  0  0  0  0  0  0
   -4.9457   -1.7162    0.0000 C   0  0  0  0  0  0  0  0  0
   -4.2312   -2.1287    0.0000 N   0  0  0  0  0  0  0  0  0
   -3.5167   -1.7162    0.0000 C   0  0  0  0  0  0  0  0  0
   -2.8023   -2.1287    0.0000 C   0  0  0  0  0  0  0  0  0
   -2.8023   -2.9537    0.0000 N   0  0  0  0  0  0  0  0  0
   -3.5167   -3.3662    0.0000 C   0  0  0  0  0  0  0  0  0
   -4.2312   -2.9537    0.0000 C   0  0  0  0  0  0  0  0  0
   -2.0878   -3.3662    0.0000 C   0  0  0  0  0  0  0  0  0
   -5.6602   -2.1287    0.0000 C   0  0  0  0  0  0  0  0  0
   -5.6602   -2.9537    0.0000 O   0  0  0  0  0  0  0  0  0
   -6.3746   -3.3662    0.0000 C   0  0  0  0  0  0  0  0  0
   -6.3746   -1.7162    0.0000 C   0  0  0  0  0  0  0  0  0
   -6.3746   -0.8912    0.0000 C   0  0  0  0  0  0  0  0  0
   -7.0891    4.4713    0.0000 C   0  0  0  0  0  0  0  0  0
   -7.0891    5.2963    0.0000 C   0  0  0  0  0  0  0  0  0
  1  2  1  0  0  0  0
  1  3  1  0  0  0  0
  3  4  4  0  0  0  0
  3 32  4  0  0  0  0
  4  5  4  0  0  0  0
  5  6  4  0  0  0  0
  6  7  1  0  0  0  0
  6 31  4  0  0  0  0
  7  8  1  0  0  0  0
  7 12  1  0  0  0  0
  8  9  1  0  0  0  0
  9 10  1  0  0  0  0
 10 11  1  0  0  0  0
 10 13  1  0  0  0  0
 11 12  1  0  0  0  0
 13 14  2  0  0  0  0
 13 15  1  0  0  0  0
 15 16  1  0  0  0  0
 16 17  4  0  0  0  0
 16 30  4  0  0  0  0
 17 18  4  0  0  0  0
 18 19  1  0  0  0  0
 18 26  4  0  0  0  0
 19 20  1  0  0  0  0
 19 24  1  0  0  0  0
 20 21  1  0  0  0  0
 21 22  1  0  0  0  0
 22 23  1  0  0  0  0
 22 25  1  0  0  0  0
 23 24  1  0  0  0  0
 26 27  1  0  0  0  0
 26 29  4  0  0  0  0
 27 28  1  0  0  0  0
 29 30  4  0  0  0  0
 31 32  4  0  0  0  0
M  END
>  <Name_Molregno>
327090

>  <5-HT1A>
6.05

>  <5-HT1B>
7.78

>  <5-HT1D>
6.48

>  <5-HT2A>
5.87

>  <5-HT2C>
5.94

>  <5-HT6>
5

>  <5-HT7>
5

>  <DOPAMINE D1>
5

>  <DOPAMINE D2>
5

>  <DOPAMINE D3>
5

>  <DOPAMINE D4>
5

>  <DOPAMINE D5>
5

>  <HISTAMINE H1>
5

>  <Muscarinic acetylcholine receptor M1>
5

>  <Muscarinic acetylcholine receptor M2>
5

>  <Muscarinic acetylcholine receptor M3>
5

>  <Muscarinic acetylcholine receptor M4>
5

>  <Muscarinic acetylcholine receptor M5>
5

$$$$
327091
  Marvin  02231216192D 0   1.00000     0.00000     0

 32 35  0  0  0  0  0  0  0  0999 V2000
    3.7835    3.5848    0.0000 O   0  0  0  0  0  0  0  0  0
    3.0690    3.9973    0.0000 C   0  0  0  0  0  0  0  0  0
    3.7835    2.7598    0.0000 C   0  0  0  0  0  0  0  0  0
    4.4980    2.3473    0.0000 C   0  0  0  0  0  0  0  0  0
    4.4980    1.5223    0.0000 C   0  0  0  0  0  0  0  0  0
    3.7835    1.1098    0.0000 C   0  0  0  0  0  0  0  0  0
    3.7835    0.2848    0.0000 N   0  0  0  0  0  0  0  0  0
    4.4980   -0.1277    0.0000 C   0  0  0  0  0  0  0  0  0
    5.2124    0.2848    0.0000 O   0  0  0  0  0  0  0  0  0
    4.4980   -0.9527    0.0000 C   0  0  0  0  0  0  0  0  0
    5.2124   -1.3652    0.0000 C   0  0  0  0  0  0  0  0  0
    5.2124   -2.1902    0.0000 C   0  0  0  0  0  0  0  0  0
    4.4980   -2.6027    0.0000 N   0  0  0  0  0  0  0  0  0
    3.7835   -2.1902    0.0000 C   0  0  0  0  0  0  0  0  0
    3.7835   -1.3652    0.0000 C   0  0  0  0  0  0  0  0  0
    4.4980   -3.4277    0.0000 C   0  0  0  0  0  0  0  0  0
    5.2124   -3.8402    0.0000 C   0  0  0  0  0  0  0  0  0
    5.2124   -4.6652    0.0000 C   0  0  0  0  0  0  0  0  0
    4.4980   -5.0777    0.0000 C   0  0  0  0  0  0  0  0  0
    3.7835   -4.6652    0.0000 C   0  0  0  0  0  0  0  0  0
    3.7835   -3.8402    0.0000 C   0  0  0  0  0  0  0  0  0
    3.0690   -3.4277    0.0000 O   0  0  0  0  0  0  0  0  0
    2.3546   -3.8402    0.0000 C   0  0  0  0  0  0  0  0  0
    3.0690    1.5223    0.0000 C   0  0  0  0  0  0  0  0  0
    3.0690    2.3473    0.0000 C   0  0  0  0  0  0  0  0  0
    2.3546    2.7598    0.0000 N   0  0  0  0  0  0  0  0  0
    1.6401    2.3473    0.0000 C   0  0  0  0  0  0  0  0  0
    0.9256    2.7598    0.0000 C   0  0  0  0  0  0  0  0  0
    0.9256    3.5848    0.0000 N   0  0  0  0  0  0  0  0  0
    1.6401    3.9973    0.0000 C   0  0  0  0  0  0  0  0  0
    2.3546    3.5848    0.0000 C   0  0  0  0  0  0  0  0  0
    0.2111    3.9973    0.0000 C   0  0  0  0  0  0  0  0  0
  1  2  1  0  0  0  0
  1  3  1  0  0  0  0
  3  4  4  0  0  0  0
  3 25  4  0  0  0  0
  4  5  4  0  0  0  0
  5  6  4  0  0  0  0
  6  7  1  0  0  0  0
  6 24  4  0  0  0  0
  7  8  1  0  0  0  0
  8  9  2  0  0  0  0
  8 10  1  0  0  0  0
 10 11  1  0  0  0  0
 10 15  1  0  0  0  0
 11 12  1  0  0  0  0
 12 13  1  0  0  0  0
 13 14  1  0  0  0  0
 13 16  1  0  0  0  0
 14 15  1  0  0  0  0
 16 17  4  0  0  0  0
 16 21  4  0  0  0  0
 17 18  4  0  0  0  0
 18 19  4  0  0  0  0
 19 20  4  0  0  0  0
 20 21  4  0  0  0  0
 21 22  1  0  0  0  0
 22 23  1  0  0  0  0
 24 25  4  0  0  0  0
 25 26  1  0  0  0  0
 26 27  1  0  0  0  0
 26 31  1  0  0  0  0
 27 28  1  0  0  0  0
 28 29  1  0  0  0  0
 29 30  1  0  0  0  0
 29 32  1  0  0  0  0
 30 31  1  0  0  0  0
M  END
>  <Name_Molregno>
327091

>  <5-HT1A>
7.81

>  <5-HT1B>
8.01

>  <5-HT1D>
7.81

>  <5-HT2A>
5

>  <5-HT2C>
5

>  <DOPAMINE D1>
5

>  <DOPAMINE D2>
5

>  <DOPAMINE D3>
5

>  <DOPAMINE D4>
5

>  <DOPAMINE D5>
5

>  <HISTAMINE H1>
5

>  <Muscarinic acetylcholine receptor M1>
5

>  <Muscarinic acetylcholine receptor M2>
5

>  <Muscarinic acetylcholine receptor M3>
5

>  <Muscarinic acetylcholine receptor M4>
5

>  <Muscarinic acetylcholine receptor M5>
5

$$$$
330283
  Marvin  02231216192D 0   1.00000     0.00000     0

 31 34  0  0  0  0  0  0  0  0999 V2000
    0.1076    0.0239    0.0000 Cl  0  0  0  0  0  0  0  0  0
    0.1076   -0.8011    0.0000 C   0  0  0  0  0  0  0  0  0
    0.8221   -1.2136    0.0000 C   0  0  0  0  0  0  0  0  0
    0.8221   -2.0386    0.0000 C   0  0  0  0  0  0  0  0  0
    0.1076   -2.4511    0.0000 C   0  0  0  0  0  0  0  0  0
   -0.6069   -2.0386    0.0000 C   0  0  0  0  0  0  0  0  0
   -0.6069   -1.2136    0.0000 C   0  0  0  0  0  0  0  0  0
   -1.3213   -0.8011    0.0000 N   0  0  0  0  0  0  0  0  0
   -2.0358   -1.2136    0.0000 C   0  0  0  0  0  0  0  0  0
   -2.7503   -0.8011    0.0000 C   0  0  0  0  0  0  0  0  0
   -2.7503    0.0239    0.0000 N   0  0  0  0  0  0  0  0  0
   -2.0358    0.4364    0.0000 C   0  0  0  0  0  0  0  0  0
   -1.3213    0.0239    0.0000 C   0  0  0  0  0  0  0  0  0
   -3.4647    0.4364    0.0000 C   0  0  0  0  0  0  0  0  0
   -3.4647    1.2614    0.0000 O   0  0  0  0  0  0  0  0  0
   -4.1792    0.0239    0.0000 N   0  0  0  0  0  0  0  0  0
   -4.8937    0.4364    0.0000 C   0  0  0  0  0  0  0  0  0
   -5.6082    0.0239    0.0000 C   0  0  0  0  0  0  0  0  0
   -6.3226    0.4364    0.0000 C   0  0  0  0  0  0  0  0  0
   -7.0371    0.0239    0.0000 N   0  0  0  0  0  0  0  0  0
   -7.0371   -0.8011    0.0000 C   0  0  0  0  0  0  0  0  0
   -7.7516   -1.2136    0.0000 C   0  0  0  0  0  0  0  0  0
   -8.4660   -0.8011    0.0000 N   0  0  0  0  0  0  0  0  0
   -8.4660    0.0239    0.0000 C   0  0  0  0  0  0  0  0  0
   -7.7516    0.4364    0.0000 C   0  0  0  0  0  0  0  0  0
   -9.1805   -1.2136    0.0000 C   0  0  0  0  0  0  0  0  0
   -6.3226    1.2614    0.0000 C   0  0  0  0  0  0  0  0  0
   -7.0371    1.6739    0.0000 O   0  0  0  0  0  0  0  0  0
   -7.0371    2.4989    0.0000 C   0  0  0  0  0  0  0  0  0
   -5.6082    1.6739    0.0000 C   0  0  0  0  0  0  0  0  0
   -4.8937    1.2614    0.0000 C   0  0  0  0  0  0  0  0  0
  1  2  1  0  0  0  0
  2  3  4  0  0  0  0
  2  7  4  0  0  0  0
  3  4  4  0  0  0  0
  4  5  4  0  0  0  0
  5  6  4  0  0  0  0
  6  7  4  0  0  0  0
  7  8  1  0  0  0  0
  8  9  1  0  0  0  0
  8 13  1  0  0  0  0
  9 10  1  0  0  0  0
 10 11  1  0  0  0  0
 11 12  1  0  0  0  0
 11 14  1  0  0  0  0
 12 13  1  0  0  0  0
 14 15  2  0  0  0  0
 14 16  1  0  0  0  0
 16 17  1  0  0  0  0
 17 18  4  0  0  0  0
 17 31  4  0  0  0  0
 18 19  4  0  0  0  0
 19 20  1  0  0  0  0
 19 27  4  0  0  0  0
 20 21  1  0  0  0  0
 20 25  1  0  0  0  0
 21 22  1  0  0  0  0
 22 23  1  0  0  0  0
 23 24  1  0  0  0  0
 23 26  1  0  0  0  0
 24 25  1  0  0  0  0
 27 28  1  0  0  0  0
 27 30  4  0  0  0  0
 28 29  1  0  0  0  0
 30 31  4  0  0  0  0
M  END
>  <Name_Molregno>
330283

>  <5-HT1A>
6.47

>  <5-HT1B>
7.95

>  <5-HT1D>
7.46

>  <5-HT2A>
5.22

>  <5-HT2C>
5.91

>  <5-HT6>
6.33

>  <5-HT7>
6.47

>  <DOPAMINE D1>
5

>  <DOPAMINE D2>
5

>  <DOPAMINE D3>
5

>  <DOPAMINE D4>
5

>  <DOPAMINE D5>
5

>  <HISTAMINE H1>
5

>  <Muscarinic acetylcholine receptor M1>
5

>  <Muscarinic acetylcholine receptor M2>
5

>  <Muscarinic acetylcholine receptor M3>
5

>  <Muscarinic acetylcholine receptor M4>
5

>  <Muscarinic acetylcholine receptor M5>
5

$$$$
330287
  Marvin  02231216192D 0   1.00000     0.00000     0

 31 34  0  0  0  0  0  0  0  0999 V2000
    0.1076    0.0239    0.0000 F   0  0  0  0  0  0  0  0  0
    0.1076   -0.8011    0.0000 C   0  0  0  0  0  0  0  0  0
    0.8221   -1.2136    0.0000 C   0  0  0  0  0  0  0  0  0
    0.8221   -2.0386    0.0000 C   0  0  0  0  0  0  0  0  0
    0.1076   -2.4511    0.0000 C   0  0  0  0  0  0  0  0  0
   -0.6069   -2.0386    0.0000 C   0  0  0  0  0  0  0  0  0
   -0.6069   -1.2136    0.0000 C   0  0  0  0  0  0  0  0  0
   -1.3213   -0.8011    0.0000 N   0  0  0  0  0  0  0  0  0
   -2.0358   -1.2136    0.0000 C   0  0  0  0  0  0  0  0  0
   -2.7503   -0.8011    0.0000 C   0  0  0  0  0  0  0  0  0
   -2.7503    0.0239    0.0000 N   0  0  0  0  0  0  0  0  0
   -2.0358    0.4364    0.0000 C   0  0  0  0  0  0  0  0  0
   -1.3213    0.0239    0.0000 C   0  0  0  0  0  0  0  0  0
   -3.4647    0.4364    0.0000 C   0  0  0  0  0  0  0  0  0
   -3.4647    1.2614    0.0000 O   0  0  0  0  0  0  0  0  0
   -4.1792    0.0239    0.0000 N   0  0  0  0  0  0  0  0  0
   -4.8937    0.4364    0.0000 C   0  0  0  0  0  0  0  0  0
   -5.6082    0.0239    0.0000 C   0  0  0  0  0  0  0  0  0
   -6.3226    0.4364    0.0000 C   0  0  0  0  0  0  0  0  0
   -7.0371    0.0239    0.0000 N   0  0  0  0  0  0  0  0  0
   -7.0371   -0.8011    0.0000 C   0  0  0  0  0  0  0  0  0
   -7.7516   -1.2136    0.0000 C   0  0  0  0  0  0  0  0  0
   -8.4660   -0.8011    0.0000 N   0  0  0  0  0  0  0  0  0
   -8.4660    0.0239    0.0000 C   0  0  0  0  0  0  0  0  0
   -7.7516    0.4364    0.0000 C   0  0  0  0  0  0  0  0  0
   -9.1805   -1.2136    0.0000 C   0  0  0  0  0  0  0  0  0
   -6.3226    1.2614    0.0000 C   0  0  0  0  0  0  0  0  0
   -7.0371    1.6739    0.0000 O   0  0  0  0  0  0  0  0  0
   -7.0371    2.4989    0.0000 C   0  0  0  0  0  0  0  0  0
   -5.6082    1.6739    0.0000 C   0  0  0  0  0  0  0  0  0
   -4.8937    1.2614    0.0000 C   0  0  0  0  0  0  0  0  0
  1  2  1  0  0  0  0
  2  3  4  0  0  0  0
  2  7  4  0  0  0  0
  3  4  4  0  0  0  0
  4  5  4  0  0  0  0
  5  6  4  0  0  0  0
  6  7  4  0  0  0  0
  7  8  1  0  0  0  0
  8  9  1  0  0  0  0
  8 13  1  0  0  0  0
  9 10  1  0  0  0  0
 10 11  1  0  0  0  0
 11 12  1  0  0  0  0
 11 14  1  0  0  0  0
 12 13  1  0  0  0  0
 14 15  2  0  0  0  0
 14 16  1  0  0  0  0
 16 17  1  0  0  0  0
 17 18  4  0  0  0  0
 17 31  4  0  0  0  0
 18 19  4  0  0  0  0
 19 20  1  0  0  0  0
 19 27  4  0  0  0  0
 20 21  1  0  0  0  0
 20 25  1  0  0  0  0
 21 22  1  0  0  0  0
 22 23  1  0  0  0  0
 23 24  1  0  0  0  0
 23 26  1  0  0  0  0
 24 25  1  0  0  0  0
 27 28  1  0  0  0  0
 27 30  4  0  0  0  0
 28 29  1  0  0  0  0
 30 31  4  0  0  0  0
M  END
>  <Name_Molregno>
330287

>  <5-HT1A>
6.5

>  <5-HT1B>
7.74

>  <5-HT1D>
6.99

>  <5-HT2A>
5

>  <5-HT2C>
5.97

>  <5-HT6>
6.08

>  <5-HT7>
5

>  <DOPAMINE D1>
5

>  <DOPAMINE D2>
5

>  <DOPAMINE D3>
5

>  <DOPAMINE D4>
5

>  <DOPAMINE D5>
5

>  <HISTAMINE H1>
5

>  <Muscarinic acetylcholine receptor M1>
5

>  <Muscarinic acetylcholine receptor M2>
5

>  <Muscarinic acetylcholine receptor M3>
5

>  <Muscarinic acetylcholine receptor M4>
5

>  <Muscarinic acetylcholine receptor M5>
5

$$$$
335202
  Marvin  02231216192D 0   1.00000     0.00000     0

 31 34  0  0  0  0  0  0  0  0999 V2000
   -5.3316    5.4643    0.0000 O   0  0  0  0  0  0  0  0  0
   -6.0461    5.8768    0.0000 C   0  0  0  0  0  0  0  0  0
   -4.6172    5.8768    0.0000 C   0  0  0  0  0  0  0  0  0
   -3.9027    5.4643    0.0000 C   0  0  0  0  0  0  0  0  0
   -3.1882    5.8768    0.0000 C   0  0  0  0  0  0  0  0  0
   -3.1882    6.7018    0.0000 C   0  0  0  0  0  0  0  0  0
   -3.9027    7.1143    0.0000 C   0  0  0  0  0  0  0  0  0
   -4.6172    6.7018    0.0000 C   0  0  0  0  0  0  0  0  0
   -2.4737    7.1143    0.0000 C   0  0  0  0  0  0  0  0  0
   -1.7593    6.7018    0.0000 C   0  0  0  0  0  0  0  0  0
   -1.7593    5.8768    0.0000 C   0  0  0  0  0  0  0  0  0
   -2.4737    5.4643    0.0000 C   0  0  0  0  0  0  0  0  0
   -2.4737    4.6393    0.0000 N   0  0  0  0  0  0  0  0  0
   -1.7593    4.2268    0.0000 C   0  0  0  0  0  0  0  0  0
   -1.7593    3.4018    0.0000 C   0  0  0  0  0  0  0  0  0
   -2.4737    2.9893    0.0000 N   0  0  0  0  0  0  0  0  0
   -3.1882    3.4018    0.0000 C   0  0  0  0  0  0  0  0  0
   -3.1882    4.2268    0.0000 C   0  0  0  0  0  0  0  0  0
   -2.4737    2.1643    0.0000 C   0  0  0  0  0  0  0  0  0
   -1.7593    1.7518    0.0000 C   0  0  0  0  0  0  0  0  0
   -1.7593    0.9268    0.0000 C   0  0  0  0  0  0  0  0  0
   -1.0448    0.5143    0.0000 C   0  0  0  0  0  0  0  0  0
   -1.0448   -0.3107    0.0000 N   0  0  0  0  0  0  0  0  0
   -0.3303   -0.7232    0.0000 N   0  0  0  0  0  0  0  0  0
   -0.3303   -1.5482    0.0000 C   0  0  0  0  0  0  0  0  0
   -1.0448   -1.9607    0.0000 C   0  0  0  0  0  0  0  0  0
   -1.0448   -2.7857    0.0000 O   0  0  0  0  0  0  0  0  0
   -1.7593   -1.5482    0.0000 N   0  0  0  0  0  0  0  0  0
   -2.4737   -1.9607    0.0000 C   0  0  0  0  0  0  0  0  0
   -1.7593   -0.7232    0.0000 C   0  0  0  0  0  0  0  0  0
   -2.4737   -0.3107    0.0000 O   0  0  0  0  0  0  0  0  0
  1  2  1  0  0  0  0
  1  3  1  0  0  0  0
  3  4  4  0  0  0  0
  3  8  4  0  0  0  0
  4  5  4  0  0  0  0
  5  6  4  0  0  0  0
  5 12  4  0  0  0  0
  6  7  4  0  0  0  0
  6  9  4  0  0  0  0
  7  8  4  0  0  0  0
  9 10  4  0  0  0  0
 10 11  4  0  0  0  0
 11 12  4  0  0  0  0
 12 13  1  0  0  0  0
 13 14  1  0  0  0  0
 13 18  1  0  0  0  0
 14 15  1  0  0  0  0
 15 16  1  0  0  0  0
 16 17  1  0  0  0  0
 16 19  1  0  0  0  0
 17 18  1  0  0  0  0
 19 20  1  0  0  0  0
 20 21  1  0  0  0  0
 21 22  1  0  0  0  0
 22 23  1  0  0  0  0
 23 24  1  0  0  0  0
 23 30  1  0  0  0  0
 24 25  2  0  0  0  0
 25 26  1  0  0  0  0
 26 27  2  0  0  0  0
 26 28  1  0  0  0  0
 28 29  1  0  0  0  0
 28 30  1  0  0  0  0
 30 31  2  0  0  0  0
M  END
>  <Name_Molregno>
335202

>  <5-HT1A>
8.87

>  <5-HT2A>
7.38

>  <5-HT2C>
7

>  <5-HT3>
5

>  <5-HT5>
6.64

>  <5-HT6>
6.92

>  <5-HT7>
8.04

>  <Alpha-2A>
5.99

>  <Alpha-2B>
6.5

>  <Alpha-2C>
7.63

>  <Beta-1>
6.32

>  <Beta-2>
7.22

>  <DOPAMINE D1>
5.13

>  <DOPAMINE D2>
7.66

>  <DOPAMINE D3>
7.2

>  <DOPAMINE D4>
8.07

>  <DOPAMINE D5>
5

>  <Dopamine transporter>
6.39

>  <HISTAMINE H1>
6.82

>  <HISTAMINE H2>
6.52

>  <HISTAMINE H3>
5

>  <HISTAMINE H4>
5

>  <Norepinephrine transporter>
5.16

>  <Serotonin transporter>
5.21

$$$$
336242
  Marvin  02231216192D 0   1.00000     0.00000     0

 24 28  0  0  1  0  0  0  0  0999 V2000
    2.2226   -2.0596    0.0000 N   0  3  0  0  0  0  0  0  0
    1.8516   -1.3227    0.0000 C   0  0  0  0  0  0  0  0  0
    1.0280   -1.2755    0.0000 C   0  0  0  0  0  0  0  0  0
    0.5119   -0.6319    0.0000 N   0  0  0  0  0  0  0  0  0
   -0.2597   -0.9238    0.0000 C   0  0  0  0  0  0  0  0  0
   -0.2205   -1.7479    0.0000 C   0  0  0  0  0  0  0  0  0
    0.5753   -1.9653    0.0000 C   0  0  0  0  0  0  0  0  0
    0.9463   -2.7021    0.0000 C   0  0  0  0  0  0  0  0  0
    1.7700   -2.7493    0.0000 C   0  0  0  0  0  0  0  0  0
   -0.9146   -2.1939    0.0000 C   0  0  0  0  0  0  0  0  0
   -1.6478   -1.8158    0.0000 C   0  0  0  0  0  0  0  0  0
   -1.6871   -0.9917    0.0000 C   0  0  0  0  0  0  0  0  0
   -0.9930   -0.5458    0.0000 C   0  0  0  0  0  0  0  0  0
    2.3043   -0.6329    0.0000 C   0  0  0  0  0  0  0  0  0
    3.1279   -0.6801    0.0000 C   0  0  0  0  0  0  0  0  0
    3.4989   -1.4170    0.0000 C   0  0  0  0  0  0  0  0  0
    3.0463   -2.1067    0.0000 C   0  0  0  0  0  0  0  0  0
    1.9333    0.1039    0.0000 C   0  0  0  0  0  0  0  0  0
    1.1096    0.1511    0.0000 C   0  0  0  0  0  0  0  0  0
    0.7387    0.8880    0.0000 C   0  0  0  0  0  0  0  0  0
    1.1913    1.5777    0.0000 C   0  0  0  0  0  0  0  0  0
    2.0150    1.5305    0.0000 C   0  0  0  0  0  0  0  0  0
    2.3860    0.7937    0.0000 C   0  0  0  0  0  0  0  0  0
    2.5936   -2.7964    0.0000 C   0  0  0  0  0  0  0  0  0
  1  2  1  0  0  0  0
  1  9  1  0  0  0  0
  1 17  1  0  0  0  0
  1 24  1  0  0  0  0
  2  3  1  0  0  0  0
  2 14  1  0  0  0  0
  3  4  4  0  0  0  0
  3  7  4  0  0  0  0
  4  5  4  0  0  0  0
  5  6  4  0  0  0  0
  5 13  4  0  0  0  0
  6  7  4  0  0  0  0
  6 10  4  0  0  0  0
  7  8  1  0  0  0  0
  8  9  1  0  0  0  0
 10 11  4  0  0  0  0
 11 12  4  0  0  0  0
 12 13  4  0  0  0  0
 14 15  1  0  0  0  0
 14 18  1  0  0  0  0
 15 16  1  0  0  0  0
 16 17  1  0  0  0  0
 18 19  4  0  0  0  0
 18 23  4  0  0  0  0
 19 20  4  0  0  0  0
 20 21  4  0  0  0  0
 21 22  4  0  0  0  0
 22 23  4  0  0  0  0
M  CHG  1   1   1
M  STY  1   1 DAT
M  SAL   1  1   4
M  SDT   1 MRV_IMPLICIT_H                                        
M  SDD   1     0.0000    0.0000    DR    ALL  0       0  
M  SED   1 IMPL_H1
M  END
>  <Name_Molregno>
336242

>  <DOPAMINE D1>
5

>  <DOPAMINE D2>
5

>  <DOPAMINE D5>
5

$$$$
336253
  Marvin  02231216192D 0   1.00000     0.00000     0

 24 26  0  0  0  0  0  0  0  0999 V2000
   -4.3147   -3.5228    0.0000 O   0  0  0  0  0  0  0  0  0
   -4.3147   -2.6978    0.0000 C   0  0  0  0  0  0  0  0  0
   -3.6002   -2.2853    0.0000 C   0  0  0  0  0  0  0  0  0
   -2.8857   -2.6978    0.0000 C   0  0  0  0  0  0  0  0  0
   -2.1712   -2.2853    0.0000 C   0  0  0  0  0  0  0  0  0
   -2.1712   -1.4603    0.0000 O   0  0  0  0  0  0  0  0  0
   -1.4568   -2.6978    0.0000 N   0  0  0  0  0  0  0  0  0
   -0.7423   -2.2853    0.0000 C   0  0  0  0  0  0  0  0  0
   -0.0278   -2.6978    0.0000 C   0  0  0  0  0  0  0  0  0
    0.6866   -2.2853    0.0000 C   0  0  0  0  0  0  0  0  0
    1.4403   -2.6209    0.0000 C   0  0  0  0  0  0  0  0  0
    1.9924   -2.0078    0.0000 C   0  0  0  0  0  0  0  0  0
    1.5799   -1.2933    0.0000 N   0  0  0  0  0  0  0  0  0
    0.7729   -1.4649    0.0000 C   0  0  0  0  0  0  0  0  0
    2.7993   -2.1793    0.0000 C   0  0  0  0  0  0  0  0  0
    3.0543   -2.9639    0.0000 C   0  0  0  0  0  0  0  0  0
    2.5022   -3.5770    0.0000 C   0  0  0  0  0  0  0  0  0
    1.6953   -3.4055    0.0000 C   0  0  0  0  0  0  0  0  0
   -5.0291   -2.2853    0.0000 C   0  0  0  0  0  0  0  0  0
   -5.7436   -2.6978    0.0000 C   0  0  0  0  0  0  0  0  0
   -6.4581   -2.2853    0.0000 C   0  0  0  0  0  0  0  0  0
   -6.4581   -1.4603    0.0000 C   0  0  0  0  0  0  0  0  0
   -5.7436   -1.0478    0.0000 C   0  0  0  0  0  0  0  0  0
   -5.0291   -1.4603    0.0000 C   0  0  0  0  0  0  0  0  0
  1  2  2  0  0  0  0
  2  3  1  0  0  0  0
  2 19  1  0  0  0  0
  3  4  1  0  0  0  0
  4  5  1  0  0  0  0
  5  6  2  0  0  0  0
  5  7  1  0  0  0  0
  7  8  1  0  0  0  0
  8  9  1  0  0  0  0
  9 10  1  0  0  0  0
 10 11  4  0  0  0  0
 10 14  4  0  0  0  0
 11 12  4  0  0  0  0
 11 18  4  0  0  0  0
 12 13  4  0  0  0  0
 12 15  4  0  0  0  0
 13 14  4  0  0  0  0
 15 16  4  0  0  0  0
 16 17  4  0  0  0  0
 17 18  4  0  0  0  0
 19 20  4  0  0  0  0
 19 24  4  0  0  0  0
 20 21  4  0  0  0  0
 21 22  4  0  0  0  0
 22 23  4  0  0  0  0
 23 24  4  0  0  0  0
M  STY  1   1 DAT
M  SAL   1  1  13
M  SDT   1 MRV_IMPLICIT_H                                        
M  SDD   1     0.0000    0.0000    DR    ALL  0       0  
M  SED   1 IMPL_H1
M  END
>  <Name_Molregno>
336253

>  <DOPAMINE D1>
5

>  <DOPAMINE D2>
5

>  <DOPAMINE D5>
5

$$$$
336254
  Marvin  02231216192D 0   1.00000     0.00000     0

 23 27  0  0  1  0  0  0  0  0999 V2000
   -0.1820    0.1589    0.0000 N   0  0  0  0  0  0  0  0  0
    0.3341    0.8025    0.0000 C   0  0  0  0  0  0  0  0  0
   -0.1186    1.4923    0.0000 C   0  0  0  0  0  0  0  0  0
    0.2524    2.2292    0.0000 C   0  0  0  0  0  0  0  0  0
    1.0761    2.2763    0.0000 C   0  0  0  0  0  0  0  0  0
    1.5287    1.5866    0.0000 N   0  0  0  0  0  0  0  0  0
    2.3524    1.6337    0.0000 C   0  0  0  0  0  0  0  0  0
    2.8050    0.9440    0.0000 C   0  0  0  0  0  0  0  0  0
    2.4340    0.2071    0.0000 C   0  0  0  0  0  0  0  0  0
    1.6104    0.1600    0.0000 C   0  0  0  0  0  0  0  0  0
    1.1577    0.8497    0.0000 C   0  0  0  0  0  0  0  0  0
    1.0326    0.0342    0.0000 C   0  0  0  0  0  0  0  0  0
    1.6762   -0.4819    0.0000 C   0  0  0  0  0  0  0  0  0
    1.5511   -1.2973    0.0000 C   0  0  0  0  0  0  0  0  0
    0.7823   -1.5967    0.0000 C   0  0  0  0  0  0  0  0  0
    0.1387   -1.0806    0.0000 C   0  0  0  0  0  0  0  0  0
    0.2638   -0.2651    0.0000 C   0  0  0  0  0  0  0  0  0
   -0.9144    1.2749    0.0000 C   0  0  0  0  0  0  0  0  0
   -0.9536    0.4508    0.0000 C   0  0  0  0  0  0  0  0  0
   -1.6869    0.0728    0.0000 C   0  0  0  0  0  0  0  0  0
   -2.3810    0.5188    0.0000 C   0  0  0  0  0  0  0  0  0
   -2.3418    1.3428    0.0000 C   0  0  0  0  0  0  0  0  0
   -1.6085    1.7209    0.0000 C   0  0  0  0  0  0  0  0  0
  1  2  4  0  0  0  0
  1 19  4  0  0  0  0
  2  3  4  0  0  0  0
  2 11  1  0  0  0  0
  3  4  1  0  0  0  0
  3 18  4  0  0  0  0
  4  5  1  0  0  0  0
  5  6  1  0  0  0  0
  6  7  1  0  0  0  0
  6 11  1  0  0  0  0
  7  8  1  0  0  0  0
  8  9  1  0  0  0  0
  9 10  1  0  0  0  0
 10 11  1  0  0  0  0
 11 12  1  0  0  0  0
 12 13  4  0  0  0  0
 12 17  4  0  0  0  0
 13 14  4  0  0  0  0
 14 15  4  0  0  0  0
 15 16  4  0  0  0  0
 16 17  4  0  0  0  0
 18 19  4  0  0  0  0
 18 23  4  0  0  0  0
 19 20  4  0  0  0  0
 20 21  4  0  0  0  0
 21 22  4  0  0  0  0
 22 23  4  0  0  0  0
M  STY  1   1 DAT
M  SAL   1  1   1
M  SDT   1 MRV_IMPLICIT_H                                        
M  SDD   1     0.0000    0.0000    DR    ALL  0       0  
M  SED   1 IMPL_H1
M  END
>  <Name_Molregno>
336254

>  <DOPAMINE D1>
5

>  <DOPAMINE D2>
5

>  <DOPAMINE D5>
5

$$$$
336308
  Marvin  02231216192D 0   1.00000     0.00000     0

 25 27  0  0  0  0  0  0  0  0999 V2000
   -5.7649   -1.6632    0.0000 O   0  0  0  0  0  0  0  0  0
   -5.7649   -0.8382    0.0000 C   0  0  0  0  0  0  0  0  0
   -5.0504   -0.4257    0.0000 C   0  0  0  0  0  0  0  0  0
   -4.3359   -0.8382    0.0000 C   0  0  0  0  0  0  0  0  0
   -3.6215   -0.4257    0.0000 C   0  0  0  0  0  0  0  0  0
   -2.9070   -0.8382    0.0000 C   0  0  0  0  0  0  0  0  0
   -2.9070   -1.6632    0.0000 O   0  0  0  0  0  0  0  0  0
   -2.1925   -0.4257    0.0000 N   0  0  0  0  0  0  0  0  0
   -1.4781   -0.8382    0.0000 C   0  0  0  0  0  0  0  0  0
   -0.7636   -0.4257    0.0000 C   0  0  0  0  0  0  0  0  0
   -0.0491   -0.8382    0.0000 C   0  0  0  0  0  0  0  0  0
    0.0371   -1.6587    0.0000 C   0  0  0  0  0  0  0  0  0
    0.8441   -1.8302    0.0000 C   0  0  0  0  0  0  0  0  0
    1.2566   -1.1157    0.0000 N   0  0  0  0  0  0  0  0  0
    0.7046   -0.5026    0.0000 C   0  0  0  0  0  0  0  0  0
    1.0990   -2.6148    0.0000 C   0  0  0  0  0  0  0  0  0
    0.5470   -3.2279    0.0000 C   0  0  0  0  0  0  0  0  0
   -0.2600   -3.0564    0.0000 C   0  0  0  0  0  0  0  0  0
   -0.5149   -2.2718    0.0000 C   0  0  0  0  0  0  0  0  0
   -6.4794   -0.4257    0.0000 C   0  0  0  0  0  0  0  0  0
   -7.1938   -0.8382    0.0000 C   0  0  0  0  0  0  0  0  0
   -7.9083   -0.4257    0.0000 C   0  0  0  0  0  0  0  0  0
   -7.9083    0.3993    0.0000 C   0  0  0  0  0  0  0  0  0
   -7.1938    0.8118    0.0000 C   0  0  0  0  0  0  0  0  0
   -6.4794    0.3993    0.0000 C   0  0  0  0  0  0  0  0  0
  1  2  2  0  0  0  0
  2  3  1  0  0  0  0
  2 20  1  0  0  0  0
  3  4  1  0  0  0  0
  4  5  1  0  0  0  0
  5  6  1  0  0  0  0
  6  7  2  0  0  0  0
  6  8  1  0  0  0  0
  8  9  1  0  0  0  0
  9 10  1  0  0  0  0
 10 11  1  0  0  0  0
 11 12  4  0  0  0  0
 11 15  4  0  0  0  0
 12 13  4  0  0  0  0
 12 19  4  0  0  0  0
 13 14  4  0  0  0  0
 13 16  4  0  0  0  0
 14 15  4  0  0  0  0
 16 17  4  0  0  0  0
 17 18  4  0  0  0  0
 18 19  4  0  0  0  0
 20 21  4  0  0  0  0
 20 25  4  0  0  0  0
 21 22  4  0  0  0  0
 22 23  4  0  0  0  0
 23 24  4  0  0  0  0
 24 25  4  0  0  0  0
M  STY  1   1 DAT
M  SAL   1  1  14
M  SDT   1 MRV_IMPLICIT_H                                        
M  SDD   1     0.0000    0.0000    DR    ALL  0       0  
M  SED   1 IMPL_H1
M  END
>  <Name_Molregno>
336308

>  <DOPAMINE D1>
5

>  <DOPAMINE D2>
5

>  <DOPAMINE D5>
5

$$$$
336361
  Marvin  02231216192D 0   1.00000     0.00000     0

 30 33  0  0  0  0  0  0  0  0999 V2000
    2.2628    2.2430    0.0000 O   0  0  0  0  0  0  0  0  0
    1.5483    2.6555    0.0000 C   0  0  0  0  0  0  0  0  0
    2.2628    1.4180    0.0000 C   0  0  0  0  0  0  0  0  0
    2.9773    1.0055    0.0000 C   0  0  0  0  0  0  0  0  0
    2.9773    0.1805    0.0000 C   0  0  0  0  0  0  0  0  0
    3.6917   -0.2320    0.0000 C   0  0  0  0  0  0  0  0  0
    4.4062    0.1805    0.0000 C   0  0  0  0  0  0  0  0  0
    5.1207   -0.2320    0.0000 C   0  0  0  0  0  0  0  0  0
    5.1207   -1.0570    0.0000 C   0  0  0  0  0  0  0  0  0
    4.4062   -1.4695    0.0000 C   0  0  0  0  0  0  0  0  0
    3.6917   -1.0570    0.0000 N   0  0  0  0  0  0  0  0  0
    2.9773   -1.4695    0.0000 C   0  0  0  0  0  0  0  0  0
    2.2628   -1.0570    0.0000 C   0  0  0  0  0  0  0  0  0
    2.2628   -0.2320    0.0000 C   0  0  0  0  0  0  0  0  0
    1.5483    0.1805    0.0000 C   0  0  0  0  0  0  0  0  0
    1.5483    1.0055    0.0000 C   0  0  0  0  0  0  0  0  0
    0.8338    1.4180    0.0000 O   0  0  0  0  0  0  0  0  0
    0.1194    1.0055    0.0000 C   0  0  0  0  0  0  0  0  0
    3.6917   -1.8820    0.0000 C   0  0  0  0  0  0  0  0  0
    4.4062   -2.2945    0.0000 C   0  0  0  0  0  0  0  0  0
    4.4062   -3.1195    0.0000 C   0  0  0  0  0  0  0  0  0
    5.1207   -3.5320    0.0000 C   0  0  0  0  0  0  0  0  0
    5.1207   -4.3570    0.0000 C   0  0  0  0  0  0  0  0  0
    4.4062   -4.7695    0.0000 C   0  0  0  0  0  0  0  0  0
    3.6917   -4.3570    0.0000 C   0  0  0  0  0  0  0  0  0
    3.6917   -3.5320    0.0000 C   0  0  0  0  0  0  0  0  0
    5.8351    0.1805    0.0000 C   0  0  0  0  0  0  0  0  0
    5.8351    1.0055    0.0000 C   0  0  0  0  0  0  0  0  0
    5.1207    1.4180    0.0000 C   0  0  0  0  0  0  0  0  0
    4.4062    1.0055    0.0000 C   0  0  0  0  0  0  0  0  0
  1  2  1  0  0  0  0
  1  3  1  0  0  0  0
  3  4  4  0  0  0  0
  3 16  4  0  0  0  0
  4  5  4  0  0  0  0
  5  6  1  0  0  0  0
  5 14  4  0  0  0  0
  6  7  1  0  0  0  0
  7  8  4  0  0  0  0
  7 30  4  0  0  0  0
  8  9  1  0  0  0  0
  8 27  4  0  0  0  0
  9 10  1  0  0  0  0
 10 11  1  0  0  0  0
 11 12  1  0  0  0  0
 11 19  1  0  0  0  0
 12 13  1  0  0  0  0
 13 14  1  0  0  0  0
 14 15  4  0  0  0  0
 15 16  4  0  0  0  0
 16 17  1  0  0  0  0
 17 18  1  0  0  0  0
 19 20  1  0  0  0  0
 20 21  1  0  0  0  0
 21 22  4  0  0  0  0
 21 26  4  0  0  0  0
 22 23  4  0  0  0  0
 23 24  4  0  0  0  0
 24 25  4  0  0  0  0
 25 26  4  0  0  0  0
 27 28  4  0  0  0  0
 28 29  4  0  0  0  0
 29 30  4  0  0  0  0
M  END
>  <Name_Molregno>
336361

>  <DOPAMINE D1>
5

>  <DOPAMINE D2>
5

>  <DOPAMINE D5>
5

$$$$
336384
  Marvin  02231216192D 0   1.00000     0.00000     0

 23 27  0  0  1  0  0  0  0  0999 V2000
   -0.1346   -0.6978    0.0000 N   0  0  0  0  0  0  0  0  0
    0.3815   -0.0542    0.0000 C   0  0  0  0  0  0  0  0  0
    1.2052   -0.0070    0.0000 C   0  0  0  0  0  0  0  0  0
    1.5762    0.7298    0.0000 N   0  0  0  0  0  0  0  0  0
    2.3998    0.7770    0.0000 C   0  0  0  0  0  0  0  0  0
    2.8525    0.0873    0.0000 C   0  0  0  0  0  0  0  0  0
    2.4815   -0.6496    0.0000 C   0  0  0  0  0  0  0  0  0
    1.6578   -0.6968    0.0000 C   0  0  0  0  0  0  0  0  0
    1.2868   -1.4336    0.0000 C   0  0  0  0  0  0  0  0  0
    1.7395   -2.1234    0.0000 C   0  0  0  0  0  0  0  0  0
    1.3685   -2.8602    0.0000 C   0  0  0  0  0  0  0  0  0
    0.5448   -2.9074    0.0000 C   0  0  0  0  0  0  0  0  0
    0.0922   -2.2177    0.0000 C   0  0  0  0  0  0  0  0  0
    0.4632   -1.4808    0.0000 C   0  0  0  0  0  0  0  0  0
    1.1235    1.4196    0.0000 C   0  0  0  0  0  0  0  0  0
    0.2999    1.3724    0.0000 C   0  0  0  0  0  0  0  0  0
   -0.0711    0.6355    0.0000 C   0  0  0  0  0  0  0  0  0
   -0.8670    0.4182    0.0000 C   0  0  0  0  0  0  0  0  0
   -0.9062   -0.4059    0.0000 C   0  0  0  0  0  0  0  0  0
   -1.6395   -0.7840    0.0000 C   0  0  0  0  0  0  0  0  0
   -2.3335   -0.3380    0.0000 C   0  0  0  0  0  0  0  0  0
   -2.2943    0.4861    0.0000 C   0  0  0  0  0  0  0  0  0
   -1.5611    0.8642    0.0000 C   0  0  0  0  0  0  0  0  0
  1  2  4  0  0  0  0
  1 19  4  0  0  0  0
  2  3  1  0  0  0  0
  2 17  4  0  0  0  0
  3  4  1  0  0  0  0
  3  8  1  0  0  0  0
  4  5  1  0  0  0  0
  4 15  1  0  0  0  0
  5  6  1  0  0  0  0
  6  7  1  0  0  0  0
  7  8  1  0  0  0  0
  8  9  1  0  0  0  0
  9 10  4  0  0  0  0
  9 14  4  0  0  0  0
 10 11  4  0  0  0  0
 11 12  4  0  0  0  0
 12 13  4  0  0  0  0
 13 14  4  0  0  0  0
 15 16  1  0  0  0  0
 16 17  1  0  0  0  0
 17 18  4  0  0  0  0
 18 19  4  0  0  0  0
 18 23  4  0  0  0  0
 19 20  4  0  0  0  0
 20 21  4  0  0  0  0
 21 22  4  0  0  0  0
 22 23  4  0  0  0  0
M  STY  1   1 DAT
M  SAL   1  1   1
M  SDT   1 MRV_IMPLICIT_H                                        
M  SDD   1     0.0000    0.0000    DR    ALL  0       0  
M  SED   1 IMPL_H1
M  END
>  <Name_Molregno>
336384

>  <DOPAMINE D1>
5

>  <DOPAMINE D2>
5

>  <DOPAMINE D5>
5

$$$$
336398
  Marvin  02231216192D 0   1.00000     0.00000     0

 22 25  0  0  0  0  0  0  0  0999 V2000
    0.5707   -0.1376    0.0000 N   0  0  0  0  0  0  0  0  0
    0.8482   -0.9146    0.0000 C   0  0  0  0  0  0  0  0  0
    1.6112   -1.2283    0.0000 C   0  0  0  0  0  0  0  0  0
    2.2644   -0.7243    0.0000 C   0  0  0  0  0  0  0  0  0
    3.0274   -1.0380    0.0000 C   0  0  0  0  0  0  0  0  0
    3.5616   -0.4093    0.0000 N   0  0  0  0  0  0  0  0  0
    3.1287    0.2930    0.0000 C   0  0  0  0  0  0  0  0  0
    2.3270    0.0983    0.0000 C   0  0  0  0  0  0  0  0  0
    4.3842   -0.4719    0.0000 C   0  0  0  0  0  0  0  0  0
    3.1373   -1.8557    0.0000 C   0  0  0  0  0  0  0  0  0
    2.4841   -2.3596    0.0000 C   0  0  0  0  0  0  0  0  0
    1.7210   -2.0459    0.0000 N   0  0  0  0  0  0  0  0  0
    1.0678   -2.5499    0.0000 C   0  0  0  0  0  0  0  0  0
    0.3048   -2.2362    0.0000 C   0  0  0  0  0  0  0  0  0
    0.1950   -1.4185    0.0000 C   0  0  0  0  0  0  0  0  0
   -0.4861   -0.9530    0.0000 C   0  0  0  0  0  0  0  0  0
   -0.2539   -0.1614    0.0000 C   0  0  0  0  0  0  0  0  0
   -0.8234    0.4356    0.0000 C   0  0  0  0  0  0  0  0  0
   -1.6251    0.2409    0.0000 C   0  0  0  0  0  0  0  0  0
   -1.8573   -0.5508    0.0000 C   0  0  0  0  0  0  0  0  0
   -1.2878   -1.1477    0.0000 C   0  0  0  0  0  0  0  0  0
    1.1516   -1.4490    0.0000 C   0  0  0  0  0  0  0  0  0
  1  2  4  0  0  0  0
  1 17  4  0  0  0  0
  2  3  1  0  0  0  0
  2 15  4  0  0  0  0
  3  4  1  0  0  0  0
  4  5  4  0  0  0  0
  4  8  4  0  0  0  0
  5  6  4  0  0  0  0
  5 10  1  0  0  0  0
  6  7  4  0  0  0  0
  6  9  1  0  0  0  0
  7  8  4  0  0  0  0
 10 11  1  0  0  0  0
 11 12  1  0  0  0  0
 12 13  1  0  0  0  0
 12 22  1  0  0  0  0
 13 14  1  0  0  0  0
 14 15  1  0  0  0  0
 15 16  4  0  0  0  0
 16 17  4  0  0  0  0
 16 21  4  0  0  0  0
 17 18  4  0  0  0  0
 18 19  4  0  0  0  0
 19 20  4  0  0  0  0
 20 21  4  0  0  0  0
M  STY  1   1 DAT
M  SAL   1  1   1
M  SDT   1 MRV_IMPLICIT_H                                        
M  SDD   1     0.0000    0.0000    DR    ALL  0       0  
M  SED   1 IMPL_H1
M  END
>  <Name_Molregno>
336398

>  <DOPAMINE D1>
5

>  <DOPAMINE D2>
5

>  <DOPAMINE D5>
5

$$$$
336399
  Marvin  02231216192D 0   1.00000     0.00000     0

 14 14  0  0  1  0  0  0  0  0999 V2000
   -1.5871    0.5681    0.0000 Br  0  0  0  0  0  0  0  0  0
   -0.7621    0.5681    0.0000 C   0  0  0  0  0  0  0  0  0
   -0.3496    1.2825    0.0000 C   0  0  0  0  0  0  0  0  0
    0.4754    1.2825    0.0000 C   0  0  0  0  0  0  0  0  0
    0.8879    0.5681    0.0000 O   0  0  0  0  0  0  0  0  0
    1.7129    0.5681    0.0000 C   0  0  0  0  0  0  0  0  0
    2.1254   -0.1464    0.0000 C   0  0  0  0  0  0  0  0  0
    0.8879    1.9970    0.0000 O   0  0  0  0  0  0  0  0  0
   -0.7621    1.9970    0.0000 C   0  0  0  0  0  0  0  0  0
   -1.5871    1.9970    0.0000 C   0  0  0  0  0  0  0  0  0
   -1.9996    2.7115    0.0000 C   0  0  0  0  0  0  0  0  0
   -1.5871    3.4260    0.0000 C   0  0  0  0  0  0  0  0  0
   -0.7621    3.4260    0.0000 C   0  0  0  0  0  0  0  0  0
   -0.3496    2.7115    0.0000 C   0  0  0  0  0  0  0  0  0
  1  2  1  0  0  0  0
  2  3  1  0  0  0  0
  3  4  1  0  0  0  0
  3  9  1  0  0  0  0
  4  5  1  0  0  0  0
  4  8  2  0  0  0  0
  5  6  1  0  0  0  0
  6  7  1  0  0  0  0
  9 10  4  0  0  0  0
  9 14  4  0  0  0  0
 10 11  4  0  0  0  0
 11 12  4  0  0  0  0
 12 13  4  0  0  0  0
 13 14  4  0  0  0  0
M  END
>  <Name_Molregno>
336399

>  <DOPAMINE D1>
5

>  <DOPAMINE D2>
5

>  <DOPAMINE D5>
5

$$$$
336408
  Marvin  02231216192D 0   1.00000     0.00000     0

 22 26  0  0  1  0  0  0  0  0999 V2000
   -0.0117   -1.0725    0.0000 N   0  0  0  0  0  0  0  0  0
    0.5164   -0.4387    0.0000 C   0  0  0  0  0  0  0  0  0
    1.3408   -0.4071    0.0000 C   0  0  0  0  0  0  0  0  0
    1.7256    0.3226    0.0000 N   0  0  0  0  0  0  0  0  0
    2.5386    0.1821    0.0000 C   0  0  0  0  0  0  0  0  0
    2.6562   -0.6344    0.0000 C   0  0  0  0  0  0  0  0  0
    1.9159   -0.9986    0.0000 C   0  0  0  0  0  0  0  0  0
    3.3859   -1.0193    0.0000 C   0  0  0  0  0  0  0  0  0
    4.0841   -0.5797    0.0000 C   0  0  0  0  0  0  0  0  0
    4.8138   -0.9645    0.0000 C   0  0  0  0  0  0  0  0  0
    4.8454   -1.7889    0.0000 C   0  0  0  0  0  0  0  0  0
    4.1473   -2.2285    0.0000 C   0  0  0  0  0  0  0  0  0
    3.4175   -1.8437    0.0000 C   0  0  0  0  0  0  0  0  0
    1.2861    1.0208    0.0000 C   0  0  0  0  0  0  0  0  0
    0.4617    0.9892    0.0000 C   0  0  0  0  0  0  0  0  0
    0.0769    0.2594    0.0000 C   0  0  0  0  0  0  0  0  0
   -0.7230    0.0571    0.0000 C   0  0  0  0  0  0  0  0  0
   -0.7777   -0.7661    0.0000 C   0  0  0  0  0  0  0  0  0
   -1.5180   -1.1303    0.0000 C   0  0  0  0  0  0  0  0  0
   -2.2035   -0.6713    0.0000 C   0  0  0  0  0  0  0  0  0
   -2.1488    0.1519    0.0000 C   0  0  0  0  0  0  0  0  0
   -1.4085    0.5161    0.0000 C   0  0  0  0  0  0  0  0  0
  1  2  4  0  0  0  0
  1 18  4  0  0  0  0
  2  3  1  0  0  0  0
  2 16  4  0  0  0  0
  3  4  1  0  0  0  0
  3  7  1  0  0  0  0
  4  5  1  0  0  0  0
  4 14  1  0  0  0  0
  5  6  1  0  0  0  0
  6  7  1  0  0  0  0
  6  8  1  0  0  0  0
  8  9  4  0  0  0  0
  8 13  4  0  0  0  0
  9 10  4  0  0  0  0
 10 11  4  0  0  0  0
 11 12  4  0  0  0  0
 12 13  4  0  0  0  0
 14 15  1  0  0  0  0
 15 16  1  0  0  0  0
 16 17  4  0  0  0  0
 17 18  4  0  0  0  0
 17 22  4  0  0  0  0
 18 19  4  0  0  0  0
 19 20  4  0  0  0  0
 20 21  4  0  0  0  0
 21 22  4  0  0  0  0
M  STY  1   1 DAT
M  SAL   1  1   1
M  SDT   1 MRV_IMPLICIT_H                                        
M  SDD   1     0.0000    0.0000    DR    ALL  0       0  
M  SED   1 IMPL_H1
M  END
>  <Name_Molregno>
336408

>  <DOPAMINE D1>
5

>  <DOPAMINE D2>
5

>  <DOPAMINE D5>
5

$$$$
336434
  Marvin  02231216192D 0   1.00000     0.00000     0

 16 16  0  0  1  0  0  0  0  0999 V2000
   -1.0968   -2.5258    0.0000 Br  0  0  0  0  0  0  0  0  0
   -1.0968   -1.7008    0.0000 C   0  0  0  0  0  0  0  0  0
   -0.3823   -1.2883    0.0000 C   0  0  0  0  0  0  0  0  0
    0.3322   -1.7008    0.0000 C   0  0  0  0  0  0  0  0  0
    1.0467   -1.2883    0.0000 C   0  0  0  0  0  0  0  0  0
    1.7611   -1.7008    0.0000 C   0  0  0  0  0  0  0  0  0
    2.4756   -1.2883    0.0000 O   0  0  0  0  0  0  0  0  0
    3.1901   -1.7008    0.0000 C   0  0  0  0  0  0  0  0  0
    3.9045   -1.2883    0.0000 C   0  0  0  0  0  0  0  0  0
    1.7611   -2.5258    0.0000 O   0  0  0  0  0  0  0  0  0
   -1.8112   -1.2883    0.0000 C   0  0  0  0  0  0  0  0  0
   -2.5257   -1.7008    0.0000 C   0  0  0  0  0  0  0  0  0
   -3.2402   -1.2883    0.0000 C   0  0  0  0  0  0  0  0  0
   -3.2402   -0.4633    0.0000 C   0  0  0  0  0  0  0  0  0
   -2.5257   -0.0508    0.0000 C   0  0  0  0  0  0  0  0  0
   -1.8112   -0.4633    0.0000 C   0  0  0  0  0  0  0  0  0
  1  2  1  0  0  0  0
  2  3  1  0  0  0  0
  2 11  1  0  0  0  0
  3  4  1  0  0  0  0
  4  5  1  0  0  0  0
  5  6  1  0  0  0  0
  6  7  1  0  0  0  0
  6 10  2  0  0  0  0
  7  8  1  0  0  0  0
  8  9  1  0  0  0  0
 11 12  4  0  0  0  0
 11 16  4  0  0  0  0
 12 13  4  0  0  0  0
 13 14  4  0  0  0  0
 14 15  4  0  0  0  0
 15 16  4  0  0  0  0
M  END
>  <Name_Molregno>
336434

>  <DOPAMINE D1>
5

>  <DOPAMINE D2>
5

>  <DOPAMINE D5>
5

$$$$
336442
  Marvin  02231216192D 0   1.00000     0.00000     0

 13 14  0  0  1  0  0  0  0  0999 V2000
   -0.9286    1.4404    0.0000 O   0  0  0  0  0  0  0  0  0
   -0.9286    0.6154    0.0000 C   0  0  0  0  0  0  0  0  0
   -1.6430    0.2029    0.0000 C   0  0  0  0  0  0  0  0  0
   -2.3575    0.6154    0.0000 C   0  0  0  0  0  0  0  0  0
   -2.3575    1.4404    0.0000 C   0  0  0  0  0  0  0  0  0
   -1.6430    1.8529    0.0000 C   0  0  0  0  0  0  0  0  0
   -1.6430    2.6779    0.0000 O   0  0  0  0  0  0  0  0  0
   -0.2141    0.2029    0.0000 C   0  0  0  0  0  0  0  0  0
    0.5004    0.6154    0.0000 C   0  0  0  0  0  0  0  0  0
    1.2148    0.2029    0.0000 C   0  0  0  0  0  0  0  0  0
    1.2148   -0.6221    0.0000 C   0  0  0  0  0  0  0  0  0
    0.5004   -1.0346    0.0000 C   0  0  0  0  0  0  0  0  0
   -0.2141   -0.6221    0.0000 C   0  0  0  0  0  0  0  0  0
  1  2  1  0  0  0  0
  1  6  1  0  0  0  0
  2  3  1  0  0  0  0
  2  8  1  0  0  0  0
  3  4  1  0  0  0  0
  4  5  1  0  0  0  0
  5  6  1  0  0  0  0
  6  7  2  0  0  0  0
  8  9  4  0  0  0  0
  8 13  4  0  0  0  0
  9 10  4  0  0  0  0
 10 11  4  0  0  0  0
 11 12  4  0  0  0  0
 12 13  4  0  0  0  0
M  END
>  <Name_Molregno>
336442

>  <DOPAMINE D1>
5

>  <DOPAMINE D2>
5

>  <DOPAMINE D5>
5

$$$$
336455
  Marvin  02231216192D 0   1.00000     0.00000     0

 20 22  0  0  0  0  0  0  0  0999 V2000
   -1.8873   -2.9098    0.0000 S   0  0  0  0  0  0  0  0  0
   -1.3000   -2.3304    0.0000 C   0  0  0  0  0  0  0  0  0
   -1.3377   -1.5063    0.0000 C   0  0  0  0  0  0  0  0  0
   -0.6427   -1.0616    0.0000 C   0  0  0  0  0  0  0  0  0
    0.0898   -1.4411    0.0000 N   0  0  0  0  0  0  0  0  0
    0.7847   -0.9965    0.0000 C   0  0  0  0  0  0  0  0  0
    1.5173   -1.3760    0.0000 C   0  0  0  0  0  0  0  0  0
    1.5549   -2.2001    0.0000 C   0  0  0  0  0  0  0  0  0
    0.8599   -2.6448    0.0000 C   0  0  0  0  0  0  0  0  0
    0.1274   -2.2653    0.0000 C   0  0  0  0  0  0  0  0  0
   -0.5675   -2.7099    0.0000 C   0  0  0  0  0  0  0  0  0
   -0.7021   -3.5239    0.0000 C   0  0  0  0  0  0  0  0  0
   -1.5178   -3.6474    0.0000 C   0  0  0  0  0  0  0  0  0
    0.8975   -3.4689    0.0000 C   0  0  0  0  0  0  0  0  0
    1.6301   -3.8484    0.0000 C   0  0  0  0  0  0  0  0  0
    2.3250   -3.4038    0.0000 C   0  0  0  0  0  0  0  0  0
    2.2874   -2.5796    0.0000 C   0  0  0  0  0  0  0  0  0
    0.0522   -0.6170    0.0000 C   0  0  0  0  0  0  0  0  0
    0.7471   -0.1724    0.0000 C   0  0  0  0  0  0  0  0  0
    0.7095    0.6518    0.0000 C   0  0  0  0  0  0  0  0  0
  1  2  4  0  0  0  0
  1 13  4  0  0  0  0
  2  3  1  0  0  0  0
  2 11  4  0  0  0  0
  3  4  1  0  0  0  0
  4  5  1  0  0  0  0
  5  6  1  0  0  0  0
  5 18  1  0  0  0  0
  6  7  1  0  0  0  0
  7  8  1  0  0  0  0
  8  9  4  0  0  0  0
  8 17  4  0  0  0  0
  9 10  1  0  0  0  0
  9 14  4  0  0  0  0
 10 11  1  0  0  0  0
 11 12  4  0  0  0  0
 12 13  4  0  0  0  0
 14 15  4  0  0  0  0
 15 16  4  0  0  0  0
 16 17  4  0  0  0  0
 18 19  1  0  0  0  0
 19 20  2  0  0  0  0
M  END
>  <Name_Molregno>
336455

>  <DOPAMINE D1>
5

>  <DOPAMINE D2>
5

>  <DOPAMINE D5>
5

$$$$
336466
  Marvin  02231216192D 0   1.00000     0.00000     0

 25 27  0  0  0  0  0  0  0  0999 V2000
    1.7723    1.4274    0.0000 O   0  0  0  0  0  0  0  0  0
    1.0578    1.8399    0.0000 C   0  0  0  0  0  0  0  0  0
    1.7723    0.6024    0.0000 C   0  0  0  0  0  0  0  0  0
    2.4868    0.1899    0.0000 C   0  0  0  0  0  0  0  0  0
    2.4868   -0.6351    0.0000 C   0  0  0  0  0  0  0  0  0
    3.2013   -1.0476    0.0000 C   0  0  0  0  0  0  0  0  0
    3.9157   -0.6351    0.0000 C   0  0  0  0  0  0  0  0  0
    4.6302   -1.0476    0.0000 C   0  0  0  0  0  0  0  0  0
    4.6302   -1.8726    0.0000 C   0  0  0  0  0  0  0  0  0
    3.9157   -2.2851    0.0000 C   0  0  0  0  0  0  0  0  0
    3.2013   -1.8726    0.0000 N   0  0  0  0  0  0  0  0  0
    2.4868   -2.2851    0.0000 C   0  0  0  0  0  0  0  0  0
    1.7723   -1.8726    0.0000 C   0  0  0  0  0  0  0  0  0
    1.7723   -1.0476    0.0000 C   0  0  0  0  0  0  0  0  0
    1.0578   -0.6351    0.0000 C   0  0  0  0  0  0  0  0  0
    1.0578    0.1899    0.0000 C   0  0  0  0  0  0  0  0  0
    0.3434    0.6024    0.0000 O   0  0  0  0  0  0  0  0  0
   -0.3711    0.1899    0.0000 C   0  0  0  0  0  0  0  0  0
    3.2013   -2.6976    0.0000 C   0  0  0  0  0  0  0  0  0
    2.4868   -3.1101    0.0000 C   0  0  0  0  0  0  0  0  0
    2.4868   -3.9351    0.0000 C   0  0  0  0  0  0  0  0  0
    5.3447   -0.6351    0.0000 C   0  0  0  0  0  0  0  0  0
    5.3447    0.1899    0.0000 C   0  0  0  0  0  0  0  0  0
    4.6302    0.6024    0.0000 C   0  0  0  0  0  0  0  0  0
    3.9157    0.1899    0.0000 C   0  0  0  0  0  0  0  0  0
  1  2  1  0  0  0  0
  1  3  1  0  0  0  0
  3  4  4  0  0  0  0
  3 16  4  0  0  0  0
  4  5  4  0  0  0  0
  5  6  1  0  0  0  0
  5 14  4  0  0  0  0
  6  7  1  0  0  0  0
  7  8  4  0  0  0  0
  7 25  4  0  0  0  0
  8  9  1  0  0  0  0
  8 22  4  0  0  0  0
  9 10  1  0  0  0  0
 10 11  1  0  0  0  0
 11 12  1  0  0  0  0
 11 19  1  0  0  0  0
 12 13  1  0  0  0  0
 13 14  1  0  0  0  0
 14 15  4  0  0  0  0
 15 16  4  0  0  0  0
 16 17  1  0  0  0  0
 17 18  1  0  0  0  0
 19 20  1  0  0  0  0
 20 21  2  0  0  0  0
 22 23  4  0  0  0  0
 23 24  4  0  0  0  0
 24 25  4  0  0  0  0
M  END
>  <Name_Molregno>
336466

>  <DOPAMINE D1>
5

>  <DOPAMINE D2>
5

>  <DOPAMINE D5>
5

$$$$
336480
  Marvin  02231216192D 0   1.00000     0.00000     0

 22 26  0  0  1  0  0  0  0  0999 V2000
    0.4105   -1.9659    0.0000 N   0  0  0  0  0  0  0  0  0
    0.9386   -1.3321    0.0000 C   0  0  0  0  0  0  0  0  0
    1.7630   -1.3005    0.0000 C   0  0  0  0  0  0  0  0  0
    2.1478   -0.5708    0.0000 N   0  0  0  0  0  0  0  0  0
    1.7083    0.1274    0.0000 C   0  0  0  0  0  0  0  0  0
    0.8839    0.0958    0.0000 C   0  0  0  0  0  0  0  0  0
    0.4990   -0.6340    0.0000 C   0  0  0  0  0  0  0  0  0
   -0.3008   -0.8363    0.0000 C   0  0  0  0  0  0  0  0  0
   -0.3555   -1.6595    0.0000 C   0  0  0  0  0  0  0  0  0
   -1.0958   -2.0236    0.0000 C   0  0  0  0  0  0  0  0  0
   -1.7813   -1.5646    0.0000 C   0  0  0  0  0  0  0  0  0
   -1.7266   -0.7415    0.0000 C   0  0  0  0  0  0  0  0  0
   -0.9863   -0.3773    0.0000 C   0  0  0  0  0  0  0  0  0
    2.9608   -0.7112    0.0000 C   0  0  0  0  0  0  0  0  0
    3.0784   -1.5278    0.0000 C   0  0  0  0  0  0  0  0  0
    2.3381   -1.8920    0.0000 C   0  0  0  0  0  0  0  0  0
    3.5523   -0.1361    0.0000 C   0  0  0  0  0  0  0  0  0
    3.3500    0.6637    0.0000 C   0  0  0  0  0  0  0  0  0
    3.9415    1.2388    0.0000 C   0  0  0  0  0  0  0  0  0
    4.7353    1.0141    0.0000 C   0  0  0  0  0  0  0  0  0
    4.9376    0.2143    0.0000 C   0  0  0  0  0  0  0  0  0
    4.3461   -0.3608    0.0000 C   0  0  0  0  0  0  0  0  0
  1  2  4  0  0  0  0
  1  9  4  0  0  0  0
  2  3  1  0  0  0  0
  2  7  4  0  0  0  0
  3  4  1  0  0  0  0
  3 16  1  0  0  0  0
  4  5  1  0  0  0  0
  4 14  1  0  0  0  0
  5  6  1  0  0  0  0
  6  7  1  0  0  0  0
  7  8  4  0  0  0  0
  8  9  4  0  0  0  0
  8 13  4  0  0  0  0
  9 10  4  0  0  0  0
 10 11  4  0  0  0  0
 11 12  4  0  0  0  0
 12 13  4  0  0  0  0
 14 15  1  0  0  0  0
 14 17  1  0  0  0  0
 15 16  1  0  0  0  0
 17 18  4  0  0  0  0
 17 22  4  0  0  0  0
 18 19  4  0  0  0  0
 19 20  4  0  0  0  0
 20 21  4  0  0  0  0
 21 22  4  0  0  0  0
M  STY  1   1 DAT
M  SAL   1  1   1
M  SDT   1 MRV_IMPLICIT_H                                        
M  SDD   1     0.0000    0.0000    DR    ALL  0       0  
M  SED   1 IMPL_H1
M  END
>  <Name_Molregno>
336480

>  <DOPAMINE D1>
5

>  <DOPAMINE D2>
5

>  <DOPAMINE D5>
5

$$$$
336496
  Marvin  02231216192D 0   1.00000     0.00000     0

 12 13  0  0  1  0  0  0  0  0999 V2000
    3.4869    0.1765    0.0000 O   0  0  0  0  0  0  0  0  0
    3.2320   -0.6081    0.0000 C   0  0  0  0  0  0  0  0  0
    2.4070   -0.6081    0.0000 C   0  0  0  0  0  0  0  0  0
    2.1520    0.1765    0.0000 C   0  0  0  0  0  0  0  0  0
    1.3674    0.4314    0.0000 C   0  0  0  0  0  0  0  0  0
    0.7543   -0.1206    0.0000 C   0  0  0  0  0  0  0  0  0
   -0.0303    0.1343    0.0000 C   0  0  0  0  0  0  0  0  0
   -0.2018    0.9413    0.0000 C   0  0  0  0  0  0  0  0  0
    0.4112    1.4933    0.0000 C   0  0  0  0  0  0  0  0  0
    1.1959    1.2384    0.0000 C   0  0  0  0  0  0  0  0  0
    2.8195    0.6614    0.0000 C   0  0  0  0  0  0  0  0  0
    2.8195    1.4864    0.0000 O   0  0  0  0  0  0  0  0  0
  1  2  1  0  0  0  0
  1 11  1  0  0  0  0
  2  3  1  0  0  0  0
  3  4  1  0  0  0  0
  4  5  1  0  0  0  0
  4 11  1  0  0  0  0
  5  6  4  0  0  0  0
  5 10  4  0  0  0  0
  6  7  4  0  0  0  0
  7  8  4  0  0  0  0
  8  9  4  0  0  0  0
  9 10  4  0  0  0  0
 11 12  2  0  0  0  0
M  END
>  <Name_Molregno>
336496

>  <DOPAMINE D1>
5

>  <DOPAMINE D2>
5

>  <DOPAMINE D5>
5

$$$$
336500
  Marvin  02231216192D 0   1.00000     0.00000     0

 20 24  0  0  1  0  0  0  0  0999 V2000
    1.3099   -1.3154    0.0000 N   0  0  0  0  0  0  0  0  0
    0.9743   -0.5618    0.0000 C   0  0  0  0  0  0  0  0  0
    0.1897   -0.3068    0.0000 C   0  0  0  0  0  0  0  0  0
    0.0182    0.5001    0.0000 N   0  0  0  0  0  0  0  0  0
    0.6313    1.0522    0.0000 C   0  0  0  0  0  0  0  0  0
    1.4159    0.7972    0.0000 C   0  0  0  0  0  0  0  0  0
    1.5874   -0.0097    0.0000 C   0  0  0  0  0  0  0  0  0
    2.3019   -0.4222    0.0000 C   0  0  0  0  0  0  0  0  0
    2.1304   -1.2292    0.0000 C   0  0  0  0  0  0  0  0  0
    2.7435   -1.7812    0.0000 C   0  0  0  0  0  0  0  0  0
    3.5281   -1.5263    0.0000 C   0  0  0  0  0  0  0  0  0
    3.6996   -0.7193    0.0000 C   0  0  0  0  0  0  0  0  0
    3.0865   -0.1673    0.0000 C   0  0  0  0  0  0  0  0  0
   -0.8023    0.5864    0.0000 C   0  0  0  0  0  0  0  0  0
   -1.1378   -0.1673    0.0000 C   0  0  0  0  0  0  0  0  0
   -0.5248   -0.7193    0.0000 C   0  0  0  0  0  0  0  0  0
   -0.6963   -1.5263    0.0000 C   0  0  0  0  0  0  0  0  0
   -1.4809   -1.7812    0.0000 C   0  0  0  0  0  0  0  0  0
   -2.0940   -1.2292    0.0000 C   0  0  0  0  0  0  0  0  0
   -1.9225   -0.4222    0.0000 C   0  0  0  0  0  0  0  0  0
  1  2  4  0  0  0  0
  1  9  4  0  0  0  0
  2  3  1  0  0  0  0
  2  7  4  0  0  0  0
  3  4  1  0  0  0  0
  3 16  1  0  0  0  0
  4  5  1  0  0  0  0
  4 14  1  0  0  0  0
  5  6  1  0  0  0  0
  6  7  1  0  0  0  0
  7  8  4  0  0  0  0
  8  9  4  0  0  0  0
  8 13  4  0  0  0  0
  9 10  4  0  0  0  0
 10 11  4  0  0  0  0
 11 12  4  0  0  0  0
 12 13  4  0  0  0  0
 14 15  1  0  0  0  0
 15 16  4  0  0  0  0
 15 20  4  0  0  0  0
 16 17  4  0  0  0  0
 17 18  4  0  0  0  0
 18 19  4  0  0  0  0
 19 20  4  0  0  0  0
M  STY  1   1 DAT
M  SAL   1  1   1
M  SDT   1 MRV_IMPLICIT_H                                        
M  SDD   1     0.0000    0.0000    DR    ALL  0       0  
M  SED   1 IMPL_H1
M  END
>  <Name_Molregno>
336500

>  <DOPAMINE D1>
5

>  <DOPAMINE D2>
5

>  <DOPAMINE D5>
5

$$$$
336504
  Marvin  02231216192D 0   1.00000     0.00000     0

 22 26  0  0  1  0  0  0  0  0999 V2000
   -0.2503   -0.7712    0.0000 N   0  0  0  0  0  0  0  0  0
    0.2778   -0.1374    0.0000 C   0  0  0  0  0  0  0  0  0
    1.1022   -0.1058    0.0000 C   0  0  0  0  0  0  0  0  0
    1.4870    0.6240    0.0000 N   0  0  0  0  0  0  0  0  0
    2.3000    0.4835    0.0000 C   0  0  0  0  0  0  0  0  0
    2.4176   -0.3331    0.0000 C   0  0  0  0  0  0  0  0  0
    1.6773   -0.6973    0.0000 C   0  0  0  0  0  0  0  0  0
    1.5368   -1.5102    0.0000 C   0  0  0  0  0  0  0  0  0
    2.1706   -2.0384    0.0000 C   0  0  0  0  0  0  0  0  0
    2.0301   -2.8513    0.0000 C   0  0  0  0  0  0  0  0  0
    1.2559   -3.1361    0.0000 C   0  0  0  0  0  0  0  0  0
    0.6221   -2.6080    0.0000 C   0  0  0  0  0  0  0  0  0
    0.7626   -1.7950    0.0000 C   0  0  0  0  0  0  0  0  0
    1.0475    1.3221    0.0000 C   0  0  0  0  0  0  0  0  0
    0.2231    1.2905    0.0000 C   0  0  0  0  0  0  0  0  0
   -0.1618    0.5608    0.0000 C   0  0  0  0  0  0  0  0  0
   -0.9616    0.3584    0.0000 C   0  0  0  0  0  0  0  0  0
   -1.0163   -0.4647    0.0000 C   0  0  0  0  0  0  0  0  0
   -1.7566   -0.8289    0.0000 C   0  0  0  0  0  0  0  0  0
   -2.4421   -0.3699    0.0000 C   0  0  0  0  0  0  0  0  0
   -2.3874    0.4533    0.0000 C   0  0  0  0  0  0  0  0  0
   -1.6471    0.8174    0.0000 C   0  0  0  0  0  0  0  0  0
  1  2  4  0  0  0  0
  1 18  4  0  0  0  0
  2  3  1  0  0  0  0
  2 16  4  0  0  0  0
  3  4  1  0  0  0  0
  3  7  1  0  0  0  0
  4  5  1  0  0  0  0
  4 14  1  0  0  0  0
  5  6  1  0  0  0  0
  6  7  1  0  0  0  0
  7  8  1  0  0  0  0
  8  9  4  0  0  0  0
  8 13  4  0  0  0  0
  9 10  4  0  0  0  0
 10 11  4  0  0  0  0
 11 12  4  0  0  0  0
 12 13  4  0  0  0  0
 14 15  1  0  0  0  0
 15 16  1  0  0  0  0
 16 17  4  0  0  0  0
 17 18  4  0  0  0  0
 17 22  4  0  0  0  0
 18 19  4  0  0  0  0
 19 20  4  0  0  0  0
 20 21  4  0  0  0  0
 21 22  4  0  0  0  0
M  STY  1   1 DAT
M  SAL   1  1   1
M  SDT   1 MRV_IMPLICIT_H                                        
M  SDD   1     0.0000    0.0000    DR    ALL  0       0  
M  SED   1 IMPL_H1
M  END
>  <Name_Molregno>
336504

>  <DOPAMINE D1>
5

>  <DOPAMINE D2>
5

>  <DOPAMINE D5>
5

$$$$
336505
  Marvin  02231216192D 0   1.00000     0.00000     0

 12 13  0  0  1  0  0  0  0  0999 V2000
   -0.1833    0.4071    0.0000 O   0  0  0  0  0  0  0  0  0
   -0.4382   -0.3776    0.0000 C   0  0  0  0  0  0  0  0  0
   -1.2632   -0.3776    0.0000 C   0  0  0  0  0  0  0  0  0
   -1.5182    0.4071    0.0000 C   0  0  0  0  0  0  0  0  0
   -0.8507    0.8920    0.0000 C   0  0  0  0  0  0  0  0  0
   -0.8507    1.7170    0.0000 O   0  0  0  0  0  0  0  0  0
   -1.7482   -1.0450    0.0000 C   0  0  0  0  0  0  0  0  0
   -1.4126   -1.7987    0.0000 C   0  0  0  0  0  0  0  0  0
   -1.8975   -2.4661    0.0000 C   0  0  0  0  0  0  0  0  0
   -2.7180   -2.3799    0.0000 C   0  0  0  0  0  0  0  0  0
   -3.0536   -1.6262    0.0000 C   0  0  0  0  0  0  0  0  0
   -2.5687   -0.9588    0.0000 C   0  0  0  0  0  0  0  0  0
  1  2  1  0  0  0  0
  1  5  1  0  0  0  0
  2  3  1  0  0  0  0
  3  4  1  0  0  0  0
  3  7  1  0  0  0  0
  4  5  1  0  0  0  0
  5  6  2  0  0  0  0
  7  8  4  0  0  0  0
  7 12  4  0  0  0  0
  8  9  4  0  0  0  0
  9 10  4  0  0  0  0
 10 11  4  0  0  0  0
 11 12  4  0  0  0  0
M  END
>  <Name_Molregno>
336505

>  <DOPAMINE D1>
5

>  <DOPAMINE D2>
5

>  <DOPAMINE D5>
5

$$$$
336537
  Marvin  02231216192D 0   1.00000     0.00000     0

 23 26  0  0  0  0  0  0  0  0999 V2000
    0.3598   -0.2967    0.0000 N   0  0  0  0  0  0  0  0  0
    0.6106   -1.0826    0.0000 C   0  0  0  0  0  0  0  0  0
    1.3625   -1.4222    0.0000 C   0  0  0  0  0  0  0  0  0
    2.0325   -0.9409    0.0000 C   0  0  0  0  0  0  0  0  0
    2.7843   -1.2804    0.0000 C   0  0  0  0  0  0  0  0  0
    2.8662   -2.1014    0.0000 C   0  0  0  0  0  0  0  0  0
    2.1962   -2.5827    0.0000 C   0  0  0  0  0  0  0  0  0
    1.4443   -2.2431    0.0000 N   0  0  0  0  0  0  0  0  0
    0.7743   -2.7245    0.0000 C   0  0  0  0  0  0  0  0  0
    0.0224   -2.3849    0.0000 C   0  0  0  0  0  0  0  0  0
   -0.0594   -1.5640    0.0000 C   0  0  0  0  0  0  0  0  0
   -0.7243   -1.0755    0.0000 C   0  0  0  0  0  0  0  0  0
   -0.4652   -0.2923    0.0000 C   0  0  0  0  0  0  0  0  0
   -1.0139    0.3238    0.0000 C   0  0  0  0  0  0  0  0  0
   -1.8218    0.1565    0.0000 C   0  0  0  0  0  0  0  0  0
   -2.0809   -0.6267    0.0000 C   0  0  0  0  0  0  0  0  0
   -1.5322   -1.2427    0.0000 C   0  0  0  0  0  0  0  0  0
    1.5262   -3.0641    0.0000 C   0  0  0  0  0  0  0  0  0
    2.2781   -3.4036    0.0000 C   0  0  0  0  0  0  0  0  0
    3.4544   -0.7991    0.0000 C   0  0  0  0  0  0  0  0  0
    3.3725    0.0219    0.0000 C   0  0  0  0  0  0  0  0  0
    2.6206    0.3614    0.0000 C   0  0  0  0  0  0  0  0  0
    1.9506   -0.1199    0.0000 C   0  0  0  0  0  0  0  0  0
  1  2  4  0  0  0  0
  1 13  4  0  0  0  0
  2  3  1  0  0  0  0
  2 11  4  0  0  0  0
  3  4  1  0  0  0  0
  4  5  4  0  0  0  0
  4 23  4  0  0  0  0
  5  6  1  0  0  0  0
  5 20  4  0  0  0  0
  6  7  1  0  0  0  0
  7  8  1  0  0  0  0
  8  9  1  0  0  0  0
  8 18  1  0  0  0  0
  9 10  1  0  0  0  0
 10 11  1  0  0  0  0
 11 12  4  0  0  0  0
 12 13  4  0  0  0  0
 12 17  4  0  0  0  0
 13 14  4  0  0  0  0
 14 15  4  0  0  0  0
 15 16  4  0  0  0  0
 16 17  4  0  0  0  0
 18 19  1  0  0  0  0
 20 21  4  0  0  0  0
 21 22  4  0  0  0  0
 22 23  4  0  0  0  0
M  STY  1   1 DAT
M  SAL   1  1   1
M  SDT   1 MRV_IMPLICIT_H                                        
M  SDD   1     0.0000    0.0000    DR    ALL  0       0  
M  SED   1 IMPL_H1
M  END
>  <Name_Molregno>
336537

>  <DOPAMINE D1>
7.28

>  <DOPAMINE D2>
6.84

>  <DOPAMINE D4>
6.42

>  <DOPAMINE D5>
7.74

$$$$
336538
  Marvin  02231216192D 0   1.00000     0.00000     0

 23 25  0  0  0  0  0  0  0  0999 V2000
    0.9668    3.6013    0.0000 O   0  0  0  0  0  0  0  0  0
    0.2524    4.0138    0.0000 C   0  0  0  0  0  0  0  0  0
    0.9668    2.7763    0.0000 C   0  0  0  0  0  0  0  0  0
    1.6813    2.3638    0.0000 C   0  0  0  0  0  0  0  0  0
    1.6813    1.5388    0.0000 C   0  0  0  0  0  0  0  0  0
    2.3958    1.1263    0.0000 C   0  0  0  0  0  0  0  0  0
    3.1102    1.5388    0.0000 C   0  0  0  0  0  0  0  0  0
    3.8247    1.1263    0.0000 C   0  0  0  0  0  0  0  0  0
    3.8247    0.3013    0.0000 C   0  0  0  0  0  0  0  0  0
    3.1102   -0.1112    0.0000 C   0  0  0  0  0  0  0  0  0
    2.3958    0.3013    0.0000 N   0  0  0  0  0  0  0  0  0
    1.6813   -0.1112    0.0000 C   0  0  0  0  0  0  0  0  0
    0.9668    0.3013    0.0000 C   0  0  0  0  0  0  0  0  0
    0.9668    1.1263    0.0000 C   0  0  0  0  0  0  0  0  0
    0.2524    1.5388    0.0000 C   0  0  0  0  0  0  0  0  0
    0.2524    2.3638    0.0000 C   0  0  0  0  0  0  0  0  0
   -0.4621    2.7763    0.0000 O   0  0  0  0  0  0  0  0  0
   -1.1766    2.3638    0.0000 C   0  0  0  0  0  0  0  0  0
    1.9109    0.9687    0.0000 C   0  0  0  0  0  0  0  0  0
    4.5392    1.5388    0.0000 C   0  0  0  0  0  0  0  0  0
    4.5392    2.3638    0.0000 C   0  0  0  0  0  0  0  0  0
    3.8247    2.7763    0.0000 C   0  0  0  0  0  0  0  0  0
    3.1102    2.3638    0.0000 C   0  0  0  0  0  0  0  0  0
  1  2  1  0  0  0  0
  1  3  1  0  0  0  0
  3  4  4  0  0  0  0
  3 16  4  0  0  0  0
  4  5  4  0  0  0  0
  5  6  1  0  0  0  0
  5 14  4  0  0  0  0
  6  7  1  0  0  0  0
  7  8  4  0  0  0  0
  7 23  4  0  0  0  0
  8  9  1  0  0  0  0
  8 20  4  0  0  0  0
  9 10  1  0  0  0  0
 10 11  1  0  0  0  0
 11 12  1  0  0  0  0
 11 19  1  0  0  0  0
 12 13  1  0  0  0  0
 13 14  1  0  0  0  0
 14 15  4  0  0  0  0
 15 16  4  0  0  0  0
 16 17  1  0  0  0  0
 17 18  1  0  0  0  0
 20 21  4  0  0  0  0
 21 22  4  0  0  0  0
 22 23  4  0  0  0  0
M  END
>  <Name_Molregno>
336538

>  <DOPAMINE D1>
6.29

>  <DOPAMINE D2>
5.3

>  <DOPAMINE D4>
5.6

>  <DOPAMINE D5>
5.58

$$$$
336543
  Marvin  02231216192D 0   1.00000     0.00000     0

 29 33  0  0  0  0  0  0  0  0999 V2000
    1.5843    1.6909    0.0000 N   0  0  0  0  0  0  0  0  0
    1.8351    0.9049    0.0000 C   0  0  0  0  0  0  0  0  0
    2.5869    0.5654    0.0000 C   0  0  0  0  0  0  0  0  0
    3.2570    1.0467    0.0000 C   0  0  0  0  0  0  0  0  0
    4.0088    0.7072    0.0000 C   0  0  0  0  0  0  0  0  0
    4.0907   -0.1138    0.0000 C   0  0  0  0  0  0  0  0  0
    3.4207   -0.5951    0.0000 C   0  0  0  0  0  0  0  0  0
    2.6688   -0.2556    0.0000 N   0  0  0  0  0  0  0  0  0
    1.9988   -0.7369    0.0000 C   0  0  0  0  0  0  0  0  0
    1.2469   -0.3973    0.0000 C   0  0  0  0  0  0  0  0  0
    1.1650    0.4236    0.0000 C   0  0  0  0  0  0  0  0  0
    0.5002    0.9121    0.0000 C   0  0  0  0  0  0  0  0  0
    0.7593    1.6953    0.0000 C   0  0  0  0  0  0  0  0  0
    0.2106    2.3113    0.0000 C   0  0  0  0  0  0  0  0  0
   -0.5973    2.1441    0.0000 C   0  0  0  0  0  0  0  0  0
   -0.8564    1.3609    0.0000 C   0  0  0  0  0  0  0  0  0
   -0.3077    0.7448    0.0000 C   0  0  0  0  0  0  0  0  0
    2.7507   -1.0765    0.0000 C   0  0  0  0  0  0  0  0  0
    3.5025   -1.4161    0.0000 C   0  0  0  0  0  0  0  0  0
    3.5844   -2.2370    0.0000 C   0  0  0  0  0  0  0  0  0
    4.3363   -2.5766    0.0000 C   0  0  0  0  0  0  0  0  0
    4.4181   -3.3975    0.0000 C   0  0  0  0  0  0  0  0  0
    3.7481   -3.8788    0.0000 C   0  0  0  0  0  0  0  0  0
    2.9962   -3.5393    0.0000 C   0  0  0  0  0  0  0  0  0
    2.9144   -2.7183    0.0000 C   0  0  0  0  0  0  0  0  0
    4.6788    1.1885    0.0000 C   0  0  0  0  0  0  0  0  0
    4.5970    2.0094    0.0000 C   0  0  0  0  0  0  0  0  0
    3.8451    2.3490    0.0000 C   0  0  0  0  0  0  0  0  0
    3.1751    1.8677    0.0000 C   0  0  0  0  0  0  0  0  0
  1  2  4  0  0  0  0
  1 13  4  0  0  0  0
  2  3  1  0  0  0  0
  2 11  4  0  0  0  0
  3  4  1  0  0  0  0
  4  5  4  0  0  0  0
  4 29  4  0  0  0  0
  5  6  1  0  0  0  0
  5 26  4  0  0  0  0
  6  7  1  0  0  0  0
  7  8  1  0  0  0  0
  8  9  1  0  0  0  0
  8 18  1  0  0  0  0
  9 10  1  0  0  0  0
 10 11  1  0  0  0  0
 11 12  4  0  0  0  0
 12 13  4  0  0  0  0
 12 17  4  0  0  0  0
 13 14  4  0  0  0  0
 14 15  4  0  0  0  0
 15 16  4  0  0  0  0
 16 17  4  0  0  0  0
 18 19  1  0  0  0  0
 19 20  1  0  0  0  0
 20 21  4  0  0  0  0
 20 25  4  0  0  0  0
 21 22  4  0  0  0  0
 22 23  4  0  0  0  0
 23 24  4  0  0  0  0
 24 25  4  0  0  0  0
 26 27  4  0  0  0  0
 27 28  4  0  0  0  0
 28 29  4  0  0  0  0
M  STY  1   1 DAT
M  SAL   1  1   1
M  SDT   1 MRV_IMPLICIT_H                                        
M  SDD   1     0.0000    0.0000    DR    ALL  0       0  
M  SED   1 IMPL_H1
M  END
>  <Name_Molregno>
336543

>  <DOPAMINE D1>
5

>  <DOPAMINE D2>
5

>  <DOPAMINE D5>
5

$$$$
336544
  Marvin  02231216192D 0   1.00000     0.00000     0

 25 29  0  0  0  0  0  0  0  0999 V2000
    1.1489    0.2869    0.0000 N   0  0  0  0  0  0  0  0  0
    1.3996   -0.4991    0.0000 C   0  0  0  0  0  0  0  0  0
    2.1515   -0.8386    0.0000 C   0  0  0  0  0  0  0  0  0
    2.8215   -0.3573    0.0000 C   0  0  0  0  0  0  0  0  0
    3.5734   -0.6969    0.0000 C   0  0  0  0  0  0  0  0  0
    3.6553   -1.5178    0.0000 C   0  0  0  0  0  0  0  0  0
    2.9852   -1.9991    0.0000 C   0  0  0  0  0  0  0  0  0
    2.2334   -1.6596    0.0000 N   0  0  0  0  0  0  0  0  0
    1.5633   -2.1409    0.0000 C   0  0  0  0  0  0  0  0  0
    0.8115   -1.8014    0.0000 C   0  0  0  0  0  0  0  0  0
    0.7296   -0.9804    0.0000 C   0  0  0  0  0  0  0  0  0
    0.0648   -0.4920    0.0000 C   0  0  0  0  0  0  0  0  0
    0.3239    0.2913    0.0000 C   0  0  0  0  0  0  0  0  0
   -0.2249    0.9073    0.0000 C   0  0  0  0  0  0  0  0  0
   -1.0327    0.7401    0.0000 C   0  0  0  0  0  0  0  0  0
   -1.2919   -0.0431    0.0000 C   0  0  0  0  0  0  0  0  0
   -0.7431   -0.6592    0.0000 C   0  0  0  0  0  0  0  0  0
    2.3152   -2.4805    0.0000 C   0  0  0  0  0  0  0  0  0
    1.6452   -2.9619    0.0000 C   0  0  0  0  0  0  0  0  0
    1.3056   -3.7137    0.0000 C   0  0  0  0  0  0  0  0  0
    0.8243   -3.0437    0.0000 C   0  0  0  0  0  0  0  0  0
    4.2434   -0.2155    0.0000 C   0  0  0  0  0  0  0  0  0
    4.1615    0.6054    0.0000 C   0  0  0  0  0  0  0  0  0
    3.4097    0.9450    0.0000 C   0  0  0  0  0  0  0  0  0
    2.7397    0.4636    0.0000 C   0  0  0  0  0  0  0  0  0
  1  2  4  0  0  0  0
  1 13  4  0  0  0  0
  2  3  1  0  0  0  0
  2 11  4  0  0  0  0
  3  4  1  0  0  0  0
  4  5  4  0  0  0  0
  4 25  4  0  0  0  0
  5  6  1  0  0  0  0
  5 22  4  0  0  0  0
  6  7  1  0  0  0  0
  7  8  1  0  0  0  0
  8  9  1  0  0  0  0
  8 18  1  0  0  0  0
  9 10  1  0  0  0  0
 10 11  1  0  0  0  0
 11 12  4  0  0  0  0
 12 13  4  0  0  0  0
 12 17  4  0  0  0  0
 13 14  4  0  0  0  0
 14 15  4  0  0  0  0
 15 16  4  0  0  0  0
 16 17  4  0  0  0  0
 18 19  1  0  0  0  0
 19 20  1  0  0  0  0
 19 21  1  0  0  0  0
 20 21  1  0  0  0  0
 22 23  4  0  0  0  0
 23 24  4  0  0  0  0
 24 25  4  0  0  0  0
M  STY  1   1 DAT
M  SAL   1  1   1
M  SDT   1 MRV_IMPLICIT_H                                        
M  SDD   1     0.0000    0.0000    DR    ALL  0       0  
M  SED   1 IMPL_H1
M  END
>  <Name_Molregno>
336544

>  <DOPAMINE D1>
6.12

>  <DOPAMINE D2>
5.3

>  <DOPAMINE D4>
5.3

>  <DOPAMINE D5>
6.05

$$$$
336546
  Marvin  02231216192D 0   1.00000     0.00000     0

 19 21  0  0  0  0  0  0  0  0999 V2000
   -0.0062   -0.9132    0.0000 N   0  0  0  0  0  0  0  0  0
    0.5811   -0.3338    0.0000 C   0  0  0  0  0  0  0  0  0
    0.5435    0.4903    0.0000 C   0  0  0  0  0  0  0  0  0
    1.2384    0.9350    0.0000 C   0  0  0  0  0  0  0  0  0
    1.9710    0.5555    0.0000 N   0  0  0  0  0  0  0  0  0
    2.6659    1.0001    0.0000 C   0  0  0  0  0  0  0  0  0
    3.3984    0.6206    0.0000 C   0  0  0  0  0  0  0  0  0
    3.4360   -0.2035    0.0000 C   0  0  0  0  0  0  0  0  0
    2.7411   -0.6482    0.0000 C   0  0  0  0  0  0  0  0  0
    2.0086   -0.2687    0.0000 C   0  0  0  0  0  0  0  0  0
    1.3136   -0.7133    0.0000 C   0  0  0  0  0  0  0  0  0
    1.1791   -1.5273    0.0000 C   0  0  0  0  0  0  0  0  0
    0.3634   -1.6508    0.0000 C   0  0  0  0  0  0  0  0  0
    2.7787   -1.4723    0.0000 C   0  0  0  0  0  0  0  0  0
    3.5112   -1.8518    0.0000 C   0  0  0  0  0  0  0  0  0
    4.2062   -1.4072    0.0000 C   0  0  0  0  0  0  0  0  0
    4.1686   -0.5830    0.0000 C   0  0  0  0  0  0  0  0  0
    1.5170   -0.1334    0.0000 C   0  0  0  0  0  0  0  0  0
   -0.8201   -0.7787    0.0000 C   0  0  0  0  0  0  0  0  0
  1  2  4  0  0  0  0
  1 13  4  0  0  0  0
  1 19  1  0  0  0  0
  2  3  1  0  0  0  0
  2 11  4  0  0  0  0
  3  4  1  0  0  0  0
  4  5  1  0  0  0  0
  5  6  1  0  0  0  0
  5 18  1  0  0  0  0
  6  7  1  0  0  0  0
  7  8  1  0  0  0  0
  8  9  4  0  0  0  0
  8 17  4  0  0  0  0
  9 10  1  0  0  0  0
  9 14  4  0  0  0  0
 10 11  1  0  0  0  0
 11 12  4  0  0  0  0
 12 13  4  0  0  0  0
 14 15  4  0  0  0  0
 15 16  4  0  0  0  0
 16 17  4  0  0  0  0
M  END
>  <Name_Molregno>
336546

>  <DOPAMINE D1>
6.61

>  <DOPAMINE D2>
6.37

>  <DOPAMINE D4>
5.78

>  <DOPAMINE D5>
6.45

$$$$
336559
  Marvin  02231216192D 0   1.00000     0.00000     0

 18 20  0  0  0  0  0  0  0  0999 V2000
   -0.0147   -0.9409    0.0000 S   0  0  0  0  0  0  0  0  0
    0.5726   -0.3615    0.0000 C   0  0  0  0  0  0  0  0  0
    0.5350    0.4627    0.0000 C   0  0  0  0  0  0  0  0  0
    1.2299    0.9073    0.0000 C   0  0  0  0  0  0  0  0  0
    1.9624    0.5278    0.0000 N   0  0  0  0  0  0  0  0  0
    2.6574    0.9724    0.0000 C   0  0  0  0  0  0  0  0  0
    3.3899    0.5929    0.0000 C   0  0  0  0  0  0  0  0  0
    3.4275   -0.2312    0.0000 C   0  0  0  0  0  0  0  0  0
    2.7326   -0.6758    0.0000 C   0  0  0  0  0  0  0  0  0
    2.0000   -0.2963    0.0000 C   0  0  0  0  0  0  0  0  0
    1.3051   -0.7410    0.0000 C   0  0  0  0  0  0  0  0  0
    1.1705   -1.5549    0.0000 C   0  0  0  0  0  0  0  0  0
    0.3548   -1.6785    0.0000 C   0  0  0  0  0  0  0  0  0
    2.7702   -1.5000    0.0000 C   0  0  0  0  0  0  0  0  0
    3.5027   -1.8795    0.0000 C   0  0  0  0  0  0  0  0  0
    4.1976   -1.4349    0.0000 C   0  0  0  0  0  0  0  0  0
    4.1600   -0.6107    0.0000 C   0  0  0  0  0  0  0  0  0
    1.5084   -0.1610    0.0000 C   0  0  0  0  0  0  0  0  0
  1  2  4  0  0  0  0
  1 13  4  0  0  0  0
  2  3  1  0  0  0  0
  2 11  4  0  0  0  0
  3  4  1  0  0  0  0
  4  5  1  0  0  0  0
  5  6  1  0  0  0  0
  5 18  1  0  0  0  0
  6  7  1  0  0  0  0
  7  8  1  0  0  0  0
  8  9  4  0  0  0  0
  8 17  4  0  0  0  0
  9 10  1  0  0  0  0
  9 14  4  0  0  0  0
 10 11  1  0  0  0  0
 11 12  4  0  0  0  0
 12 13  4  0  0  0  0
 14 15  4  0  0  0  0
 15 16  4  0  0  0  0
 16 17  4  0  0  0  0
M  END
>  <Name_Molregno>
336559

>  <DOPAMINE D1>
7.32

>  <DOPAMINE D2>
6.87

>  <DOPAMINE D4>
6.52

>  <DOPAMINE D5>
7.28

$$$$
336561
  Marvin  02231216192D 0   1.00000     0.00000     0

 17 19  0  0  0  0  0  0  0  0999 V2000
   -0.3341   -0.0907    0.0000 N   0  0  0  0  0  0  0  0  0
    0.3547   -0.5447    0.0000 C   0  0  0  0  0  0  0  0  0
    1.0337   -0.0761    0.0000 C   0  0  0  0  0  0  0  0  0
    1.8550   -0.1536    0.0000 C   0  0  0  0  0  0  0  0  0
    2.4344   -0.7409    0.0000 C   0  0  0  0  0  0  0  0  0
    2.5008   -1.5632    0.0000 C   0  0  0  0  0  0  0  0  0
    2.0230   -2.2358    0.0000 N   0  0  0  0  0  0  0  0  0
    1.2247   -2.4439    0.0000 C   0  0  0  0  0  0  0  0  0
    0.4794   -2.0902    0.0000 C   0  0  0  0  0  0  0  0  0
    0.1358   -1.3401    0.0000 C   0  0  0  0  0  0  0  0  0
   -0.6884   -1.3777    0.0000 C   0  0  0  0  0  0  0  0  0
   -0.9788   -0.6056    0.0000 C   0  0  0  0  0  0  0  0  0
   -1.7927   -0.4710    0.0000 C   0  0  0  0  0  0  0  0  0
   -2.3163   -1.1086    0.0000 C   0  0  0  0  0  0  0  0  0
   -2.0258   -1.8808    0.0000 C   0  0  0  0  0  0  0  0  0
   -1.2119   -2.0154    0.0000 C   0  0  0  0  0  0  0  0  0
    2.4916   -2.9148    0.0000 C   0  0  0  0  0  0  0  0  0
  1  2  4  0  0  0  0
  1 12  4  0  0  0  0
  2  3  1  0  0  0  0
  2 10  4  0  0  0  0
  3  4  1  0  0  0  0
  4  5  1  0  0  0  0
  5  6  1  0  0  0  0
  6  7  1  0  0  0  0
  7  8  1  0  0  0  0
  7 17  1  0  0  0  0
  8  9  1  0  0  0  0
  9 10  1  0  0  0  0
 10 11  4  0  0  0  0
 11 12  4  0  0  0  0
 11 16  4  0  0  0  0
 12 13  4  0  0  0  0
 13 14  4  0  0  0  0
 14 15  4  0  0  0  0
 15 16  4  0  0  0  0
M  STY  1   1 DAT
M  SAL   1  1   1
M  SDT   1 MRV_IMPLICIT_H                                        
M  SDD   1     0.0000    0.0000    DR    ALL  0       0  
M  SED   1 IMPL_H1
M  END
>  <Name_Molregno>
336561

>  <DOPAMINE D1>
5

>  <DOPAMINE D2>
5

>  <DOPAMINE D5>
5

$$$$
336569
  Marvin  02231216192D 0   1.00000     0.00000     0

 23 26  0  0  1  0  0  0  0  0999 V2000
   -3.6841    1.1134    0.0000 N   0  0  0  0  0  0  0  0  0
   -2.9952    0.6594    0.0000 C   0  0  0  0  0  0  0  0  0
   -2.3163    1.1281    0.0000 C   0  0  0  0  0  0  0  0  0
   -1.4949    1.0506    0.0000 C   0  0  0  0  0  0  0  0  0
   -0.9155    0.4633    0.0000 C   0  0  0  0  0  0  0  0  0
   -0.8492   -0.3590    0.0000 C   0  0  0  0  0  0  0  0  0
   -1.3269   -1.0316    0.0000 N   0  0  0  0  0  0  0  0  0
   -2.1252   -1.2397    0.0000 C   0  0  0  0  0  0  0  0  0
   -2.8706   -0.8860    0.0000 C   0  0  0  0  0  0  0  0  0
   -3.2142   -0.1360    0.0000 C   0  0  0  0  0  0  0  0  0
   -4.0383   -0.1736    0.0000 C   0  0  0  0  0  0  0  0  0
   -4.3287    0.5986    0.0000 C   0  0  0  0  0  0  0  0  0
   -5.1427    0.7332    0.0000 C   0  0  0  0  0  0  0  0  0
   -5.6662    0.0956    0.0000 C   0  0  0  0  0  0  0  0  0
   -5.3758   -0.6766    0.0000 C   0  0  0  0  0  0  0  0  0
   -4.5618   -0.8112    0.0000 C   0  0  0  0  0  0  0  0  0
   -0.8583   -1.7106    0.0000 C   0  0  0  0  0  0  0  0  0
   -0.0537   -0.5780    0.0000 C   0  0  0  0  0  0  0  0  0
    0.5336    0.0014    0.0000 C   0  0  0  0  0  0  0  0  0
    1.3290   -0.2175    0.0000 C   0  0  0  0  0  0  0  0  0
    1.5371   -1.0158    0.0000 C   0  0  0  0  0  0  0  0  0
    0.9498   -1.5952    0.0000 C   0  0  0  0  0  0  0  0  0
    0.1544   -1.3763    0.0000 C   0  0  0  0  0  0  0  0  0
  1  2  4  0  0  0  0
  1 12  4  0  0  0  0
  2  3  1  0  0  0  0
  2 10  4  0  0  0  0
  3  4  1  0  0  0  0
  4  5  1  0  0  0  0
  5  6  1  0  0  0  0
  6  7  1  0  0  0  0
  6 18  1  0  0  0  0
  7  8  1  0  0  0  0
  7 17  1  0  0  0  0
  8  9  1  0  0  0  0
  9 10  1  0  0  0  0
 10 11  4  0  0  0  0
 11 12  4  0  0  0  0
 11 16  4  0  0  0  0
 12 13  4  0  0  0  0
 13 14  4  0  0  0  0
 14 15  4  0  0  0  0
 15 16  4  0  0  0  0
 18 19  4  0  0  0  0
 18 23  4  0  0  0  0
 19 20  4  0  0  0  0
 20 21  4  0  0  0  0
 21 22  4  0  0  0  0
 22 23  4  0  0  0  0
M  STY  1   1 DAT
M  SAL   1  1   1
M  SDT   1 MRV_IMPLICIT_H                                        
M  SDD   1     0.0000    0.0000    DR    ALL  0       0  
M  SED   1 IMPL_H1
M  END
>  <Name_Molregno>
336569

>  <DOPAMINE D1>
5

>  <DOPAMINE D2>
7

>  <DOPAMINE D5>
5

$$$$
336577
  Marvin  02231216192D 0   1.00000     0.00000     0

 22 25  0  0  0  0  0  0  0  0999 V2000
    0.1700    0.2188    0.0000 N   0  0  0  0  0  0  0  0  0
    0.6922   -0.4199    0.0000 C   0  0  0  0  0  0  0  0  0
    1.4800   -0.1749    0.0000 C   0  0  0  0  0  0  0  0  0
    2.2409   -0.4937    0.0000 C   0  0  0  0  0  0  0  0  0
    2.6189   -1.2270    0.0000 C   0  0  0  0  0  0  0  0  0
    2.4371   -2.0318    0.0000 C   0  0  0  0  0  0  0  0  0
    1.7806   -2.5313    0.0000 N   0  0  0  0  0  0  0  0  0
    0.9566   -2.4920    0.0000 C   0  0  0  0  0  0  0  0  0
    0.3505   -1.9322    0.0000 C   0  0  0  0  0  0  0  0  0
    0.2461   -1.1139    0.0000 C   0  0  0  0  0  0  0  0  0
   -0.5517   -0.9041    0.0000 C   0  0  0  0  0  0  0  0  0
   -0.5988   -0.0804    0.0000 C   0  0  0  0  0  0  0  0  0
   -1.3356    0.2906    0.0000 C   0  0  0  0  0  0  0  0  0
   -2.0254   -0.1619    0.0000 C   0  0  0  0  0  0  0  0  0
   -1.9784   -0.9856    0.0000 C   0  0  0  0  0  0  0  0  0
   -1.2415   -1.3567    0.0000 C   0  0  0  0  0  0  0  0  0
    2.0255   -3.3192    0.0000 C   0  0  0  0  0  0  0  0  0
    2.8303   -3.5010    0.0000 C   0  0  0  0  0  0  0  0  0
    3.4430   -1.2663    0.0000 C   0  0  0  0  0  0  0  0  0
    3.8891   -0.5723    0.0000 C   0  0  0  0  0  0  0  0  0
    3.5111    0.1610    0.0000 C   0  0  0  0  0  0  0  0  0
    2.6870    0.2003    0.0000 C   0  0  0  0  0  0  0  0  0
  1  2  4  0  0  0  0
  1 12  4  0  0  0  0
  2  3  1  0  0  0  0
  2 10  4  0  0  0  0
  3  4  1  0  0  0  0
  4  5  4  0  0  0  0
  4 22  4  0  0  0  0
  5  6  1  0  0  0  0
  5 19  4  0  0  0  0
  6  7  1  0  0  0  0
  7  8  1  0  0  0  0
  7 17  1  0  0  0  0
  8  9  1  0  0  0  0
  9 10  1  0  0  0  0
 10 11  4  0  0  0  0
 11 12  4  0  0  0  0
 11 16  4  0  0  0  0
 12 13  4  0  0  0  0
 13 14  4  0  0  0  0
 14 15  4  0  0  0  0
 15 16  4  0  0  0  0
 17 18  1  0  0  0  0
 19 20  4  0  0  0  0
 20 21  4  0  0  0  0
 21 22  4  0  0  0  0
M  STY  1   1 DAT
M  SAL   1  1   1
M  SDT   1 MRV_IMPLICIT_H                                        
M  SDD   1     0.0000    0.0000    DR    ALL  0       0  
M  SED   1 IMPL_H1
M  END
>  <Name_Molregno>
336577

>  <DOPAMINE D1>
5

>  <DOPAMINE D2>
5

>  <DOPAMINE D5>
5

$$$$
336594
  Marvin  02231216192D 0   1.00000     0.00000     0

 24 27  0  0  1  0  0  0  0  0999 V2000
   -2.3916   -2.1472    0.0000 O   0  0  0  0  0  0  0  0  0
   -1.8396   -2.7603    0.0000 C   0  0  0  0  0  0  0  0  0
   -1.0326   -2.5888    0.0000 N   0  0  0  0  0  0  0  0  0
   -0.7777   -1.8042    0.0000 C   0  0  0  0  0  0  0  0  0
   -1.3297   -1.1911    0.0000 C   0  0  0  0  0  0  0  0  0
   -1.0748   -0.4064    0.0000 C   0  0  0  0  0  0  0  0  0
   -0.2901   -0.1515    0.0000 C   0  0  0  0  0  0  0  0  0
   -0.2901    0.6735    0.0000 C   0  0  0  0  0  0  0  0  0
   -1.0748    0.9284    0.0000 C   0  0  0  0  0  0  0  0  0
   -1.5597    0.2610    0.0000 C   0  0  0  0  0  0  0  0  0
    0.4243    1.0860    0.0000 C   0  0  0  0  0  0  0  0  0
    1.1388    0.6735    0.0000 C   0  0  0  0  0  0  0  0  0
    1.1388   -0.1515    0.0000 C   0  0  0  0  0  0  0  0  0
    0.4243   -0.5640    0.0000 C   0  0  0  0  0  0  0  0  0
   -0.4806   -3.2019    0.0000 C   0  0  0  0  0  0  0  0  0
   -0.7355   -3.9865    0.0000 C   0  0  0  0  0  0  0  0  0
   -1.5425   -4.1580    0.0000 C   0  0  0  0  0  0  0  0  0
   -2.0945   -3.5449    0.0000 C   0  0  0  0  0  0  0  0  0
    0.3264   -3.0303    0.0000 C   0  0  0  0  0  0  0  0  0
    0.5813   -2.2457    0.0000 C   0  0  0  0  0  0  0  0  0
    1.3883   -2.0742    0.0000 C   0  0  0  0  0  0  0  0  0
    1.9403   -2.6873    0.0000 C   0  0  0  0  0  0  0  0  0
    1.6854   -3.4719    0.0000 C   0  0  0  0  0  0  0  0  0
    0.8784   -3.6434    0.0000 C   0  0  0  0  0  0  0  0  0
  1  2  2  0  0  0  0
  2  3  1  0  0  0  0
  2 18  1  0  0  0  0
  3  4  1  0  0  0  0
  3 15  1  0  0  0  0
  4  5  1  0  0  0  0
  5  6  1  0  0  0  0
  6  7  1  0  0  0  0
  6 10  2  0  0  0  0
  7  8  4  0  0  0  0
  7 14  4  0  0  0  0
  8  9  1  0  0  0  0
  8 11  4  0  0  0  0
  9 10  1  0  0  0  0
 11 12  4  0  0  0  0
 12 13  4  0  0  0  0
 13 14  4  0  0  0  0
 15 16  1  0  0  0  0
 15 19  1  0  0  0  0
 16 17  1  0  0  0  0
 17 18  1  0  0  0  0
 19 20  4  0  0  0  0
 19 24  4  0  0  0  0
 20 21  4  0  0  0  0
 21 22  4  0  0  0  0
 22 23  4  0  0  0  0
 23 24  4  0  0  0  0
M  END
>  <Name_Molregno>
336594

>  <DOPAMINE D1>
5

>  <DOPAMINE D2>
5

>  <DOPAMINE D5>
5

$$$$
336597
  Marvin  02231216192D 0   1.00000     0.00000     0

 23 26  0  0  1  0  0  0  0  0999 V2000
   -2.8772   -0.3305    0.0000 N   0  0  0  0  0  0  0  0  0
   -2.1884   -0.7845    0.0000 C   0  0  0  0  0  0  0  0  0
   -1.5094   -0.3158    0.0000 C   0  0  0  0  0  0  0  0  0
   -0.6880   -0.3933    0.0000 C   0  0  0  0  0  0  0  0  0
   -0.1086   -0.9806    0.0000 C   0  0  0  0  0  0  0  0  0
   -0.0423   -1.8029    0.0000 C   0  0  0  0  0  0  0  0  0
   -0.5201   -2.4755    0.0000 N   0  0  0  0  0  0  0  0  0
   -1.3184   -2.6836    0.0000 C   0  0  0  0  0  0  0  0  0
   -2.0637   -2.3299    0.0000 C   0  0  0  0  0  0  0  0  0
   -2.4073   -1.5799    0.0000 C   0  0  0  0  0  0  0  0  0
   -3.2314   -1.6175    0.0000 C   0  0  0  0  0  0  0  0  0
   -3.5219   -0.8453    0.0000 C   0  0  0  0  0  0  0  0  0
   -4.3358   -0.7107    0.0000 C   0  0  0  0  0  0  0  0  0
   -4.8593   -1.3483    0.0000 C   0  0  0  0  0  0  0  0  0
   -4.5689   -2.1205    0.0000 C   0  0  0  0  0  0  0  0  0
   -3.7550   -2.2551    0.0000 C   0  0  0  0  0  0  0  0  0
   -0.0515   -3.1545    0.0000 C   0  0  0  0  0  0  0  0  0
    0.6414   -0.6370    0.0000 C   0  0  0  0  0  0  0  0  0
    0.7189    0.1843    0.0000 C   0  0  0  0  0  0  0  0  0
    1.4689    0.5279    0.0000 C   0  0  0  0  0  0  0  0  0
    2.1415    0.0502    0.0000 C   0  0  0  0  0  0  0  0  0
    2.0640   -0.7712    0.0000 C   0  0  0  0  0  0  0  0  0
    1.3140   -1.1148    0.0000 C   0  0  0  0  0  0  0  0  0
  1  2  4  0  0  0  0
  1 12  4  0  0  0  0
  2  3  1  0  0  0  0
  2 10  4  0  0  0  0
  3  4  1  0  0  0  0
  4  5  1  0  0  0  0
  5  6  1  0  0  0  0
  5 18  1  0  0  0  0
  6  7  1  0  0  0  0
  7  8  1  0  0  0  0
  7 17  1  0  0  0  0
  8  9  1  0  0  0  0
  9 10  1  0  0  0  0
 10 11  4  0  0  0  0
 11 12  4  0  0  0  0
 11 16  4  0  0  0  0
 12 13  4  0  0  0  0
 13 14  4  0  0  0  0
 14 15  4  0  0  0  0
 15 16  4  0  0  0  0
 18 19  4  0  0  0  0
 18 23  4  0  0  0  0
 19 20  4  0  0  0  0
 20 21  4  0  0  0  0
 21 22  4  0  0  0  0
 22 23  4  0  0  0  0
M  STY  1   1 DAT
M  SAL   1  1   1
M  SDT   1 MRV_IMPLICIT_H                                        
M  SDD   1     0.0000    0.0000    DR    ALL  0       0  
M  SED   1 IMPL_H1
M  END
>  <Name_Molregno>
336597

>  <DOPAMINE D1>
5

>  <DOPAMINE D2>
5

>  <DOPAMINE D5>
5

$$$$
336599
  Marvin  02231216192D 0   1.00000     0.00000     0

 23 26  0  0  1  0  0  0  0  0999 V2000
   -0.1800   -1.0834    0.0000 N   0  0  0  0  0  0  0  0  0
    0.5089   -0.6294    0.0000 C   0  0  0  0  0  0  0  0  0
    0.2899    0.1661    0.0000 C   0  0  0  0  0  0  0  0  0
    0.6335    0.9161    0.0000 C   0  0  0  0  0  0  0  0  0
    1.3789    1.2698    0.0000 C   0  0  0  0  0  0  0  0  0
    2.1772    1.0617    0.0000 N   0  0  0  0  0  0  0  0  0
    2.6549    0.3891    0.0000 C   0  0  0  0  0  0  0  0  0
    2.5886   -0.4332    0.0000 C   0  0  0  0  0  0  0  0  0
    2.0092   -1.0205    0.0000 C   0  0  0  0  0  0  0  0  0
    1.1879   -1.0980    0.0000 C   0  0  0  0  0  0  0  0  0
    0.9797   -1.8963    0.0000 C   0  0  0  0  0  0  0  0  0
    1.5670   -2.4757    0.0000 C   0  0  0  0  0  0  0  0  0
    1.3589   -3.2740    0.0000 C   0  0  0  0  0  0  0  0  0
    0.5635   -3.4929    0.0000 C   0  0  0  0  0  0  0  0  0
   -0.0238   -2.9135    0.0000 C   0  0  0  0  0  0  0  0  0
    0.1843   -2.1152    0.0000 C   0  0  0  0  0  0  0  0  0
    2.6458    1.7407    0.0000 C   0  0  0  0  0  0  0  0  0
   -0.5342    0.2037    0.0000 C   0  0  0  0  0  0  0  0  0
   -0.8246   -0.5685    0.0000 C   0  0  0  0  0  0  0  0  0
   -1.6386   -0.7031    0.0000 C   0  0  0  0  0  0  0  0  0
   -2.1621   -0.0655    0.0000 C   0  0  0  0  0  0  0  0  0
   -1.8717    0.7067    0.0000 C   0  0  0  0  0  0  0  0  0
   -1.0577    0.8413    0.0000 C   0  0  0  0  0  0  0  0  0
  1  2  4  0  0  0  0
  1 19  4  0  0  0  0
  2  3  4  0  0  0  0
  2 10  1  0  0  0  0
  3  4  1  0  0  0  0
  3 18  4  0  0  0  0
  4  5  1  0  0  0  0
  5  6  1  0  0  0  0
  6  7  1  0  0  0  0
  6 17  1  0  0  0  0
  7  8  1  0  0  0  0
  8  9  1  0  0  0  0
  9 10  1  0  0  0  0
 10 11  1  0  0  0  0
 11 12  4  0  0  0  0
 11 16  4  0  0  0  0
 12 13  4  0  0  0  0
 13 14  4  0  0  0  0
 14 15  4  0  0  0  0
 15 16  4  0  0  0  0
 18 19  4  0  0  0  0
 18 23  4  0  0  0  0
 19 20  4  0  0  0  0
 20 21  4  0  0  0  0
 21 22  4  0  0  0  0
 22 23  4  0  0  0  0
M  STY  1   1 DAT
M  SAL   1  1   1
M  SDT   1 MRV_IMPLICIT_H                                        
M  SDD   1     0.0000    0.0000    DR    ALL  0       0  
M  SED   1 IMPL_H1
M  END
>  <Name_Molregno>
336599

>  <DOPAMINE D1>
5

>  <DOPAMINE D2>
5

>  <DOPAMINE D5>
5

$$$$
336601
  Marvin  02231216192D 0   1.00000     0.00000     0

 25 27  0  0  1  0  0  0  0  0999 V2000
   -5.7649   -1.6632    0.0000 O   0  0  0  0  0  0  0  0  0
   -5.7649   -0.8382    0.0000 C   0  0  0  0  0  0  0  0  0
   -5.0504   -0.4257    0.0000 C   0  0  0  0  0  0  0  0  0
   -4.3359   -0.8382    0.0000 C   0  0  0  0  0  0  0  0  0
   -3.6215   -0.4257    0.0000 C   0  0  0  0  0  0  0  0  0
   -2.9070   -0.8382    0.0000 C   0  0  0  0  0  0  0  0  0
   -2.9070   -1.6632    0.0000 O   0  0  0  0  0  0  0  0  0
   -2.1925   -0.4257    0.0000 N   0  0  0  0  0  0  0  0  0
   -1.4781   -0.8382    0.0000 C   0  0  0  0  0  0  0  0  0
   -0.7636   -0.4257    0.0000 C   0  0  0  0  0  0  0  0  0
   -0.0491   -0.8382    0.0000 C   0  0  0  0  0  0  0  0  0
    0.0371   -1.6587    0.0000 C   0  0  0  0  0  0  0  0  0
    0.8441   -1.8302    0.0000 C   0  0  0  0  0  0  0  0  0
    1.2566   -1.1157    0.0000 C   0  0  0  0  0  0  0  0  0
    0.7046   -0.5026    0.0000 C   0  0  0  0  0  0  0  0  0
    1.0990   -2.6148    0.0000 C   0  0  0  0  0  0  0  0  0
    0.5470   -3.2279    0.0000 C   0  0  0  0  0  0  0  0  0
   -0.2600   -3.0564    0.0000 C   0  0  0  0  0  0  0  0  0
   -0.5149   -2.2718    0.0000 C   0  0  0  0  0  0  0  0  0
   -6.4794   -0.4257    0.0000 C   0  0  0  0  0  0  0  0  0
   -7.1938   -0.8382    0.0000 C   0  0  0  0  0  0  0  0  0
   -7.9083   -0.4257    0.0000 C   0  0  0  0  0  0  0  0  0
   -7.9083    0.3993    0.0000 C   0  0  0  0  0  0  0  0  0
   -7.1938    0.8118    0.0000 C   0  0  0  0  0  0  0  0  0
   -6.4794    0.3993    0.0000 C   0  0  0  0  0  0  0  0  0
  1  2  1  0  0  0  0
  2  3  1  0  0  0  0
  2 20  1  0  0  0  0
  3  4  1  0  0  0  0
  4  5  1  0  0  0  0
  5  6  1  0  0  0  0
  6  7  2  0  0  0  0
  6  8  1  0  0  0  0
  8  9  1  0  0  0  0
  9 10  1  0  0  0  0
 10 11  1  0  0  0  0
 11 12  1  0  0  0  0
 11 15  2  0  0  0  0
 12 13  4  0  0  0  0
 12 19  4  0  0  0  0
 13 14  1  0  0  0  0
 13 16  4  0  0  0  0
 14 15  1  0  0  0  0
 16 17  4  0  0  0  0
 17 18  4  0  0  0  0
 18 19  4  0  0  0  0
 20 21  4  0  0  0  0
 20 25  4  0  0  0  0
 21 22  4  0  0  0  0
 22 23  4  0  0  0  0
 23 24  4  0  0  0  0
 24 25  4  0  0  0  0
M  END
>  <Name_Molregno>
336601

>  <DOPAMINE D1>
5

>  <DOPAMINE D2>
5

>  <DOPAMINE D5>
5

$$$$
336604
  Marvin  02231216192D 0   1.00000     0.00000     0

 18 20  0  0  0  0  0  0  0  0999 V2000
   -1.4325   -0.2058    0.0000 N   0  0  0  0  0  0  0  0  0
   -0.8506   -0.7906    0.0000 C   0  0  0  0  0  0  0  0  0
   -0.0266   -0.7495    0.0000 C   0  0  0  0  0  0  0  0  0
    0.3498   -0.0154    0.0000 C   0  0  0  0  0  0  0  0  0
    1.1738    0.0257    0.0000 C   0  0  0  0  0  0  0  0  0
    1.6214   -0.6673    0.0000 C   0  0  0  0  0  0  0  0  0
    1.2450   -1.4014    0.0000 C   0  0  0  0  0  0  0  0  0
    0.4210   -1.4425    0.0000 N   0  0  0  0  0  0  0  0  0
    0.0446   -2.1767    0.0000 C   0  0  0  0  0  0  0  0  0
   -0.7794   -2.2178    0.0000 C   0  0  0  0  0  0  0  0  0
   -1.2270   -1.5247    0.0000 C   0  0  0  0  0  0  0  0  0
   -2.0415   -1.3936    0.0000 C   0  0  0  0  0  0  0  0  0
   -2.1685   -0.5785    0.0000 C   0  0  0  0  0  0  0  0  0
   -2.9379   -0.2809    0.0000 C   0  0  0  0  0  0  0  0  0
   -3.5804   -0.7984    0.0000 C   0  0  0  0  0  0  0  0  0
   -3.4534   -1.6136    0.0000 C   0  0  0  0  0  0  0  0  0
   -2.6839   -1.9112    0.0000 C   0  0  0  0  0  0  0  0  0
   -0.3485   -1.1449    0.0000 C   0  0  0  0  0  0  0  0  0
  1  2  4  0  0  0  0
  1 13  4  0  0  0  0
  2  3  1  0  0  0  0
  2 11  4  0  0  0  0
  3  4  1  0  0  0  0
  4  5  1  0  0  0  0
  5  6  1  0  0  0  0
  6  7  1  0  0  0  0
  7  8  1  0  0  0  0
  8  9  1  0  0  0  0
  8 18  1  0  0  0  0
  9 10  1  0  0  0  0
 10 11  1  0  0  0  0
 11 12  4  0  0  0  0
 12 13  4  0  0  0  0
 12 17  4  0  0  0  0
 13 14  4  0  0  0  0
 14 15  4  0  0  0  0
 15 16  4  0  0  0  0
 16 17  4  0  0  0  0
M  STY  1   1 DAT
M  SAL   1  1   1
M  SDT   1 MRV_IMPLICIT_H                                        
M  SDD   1     0.0000    0.0000    DR    ALL  0       0  
M  SED   1 IMPL_H1
M  END
>  <Name_Molregno>
336604

>  <DOPAMINE D1>
5

>  <DOPAMINE D2>
5

>  <DOPAMINE D5>
5

$$$$
336623
  Marvin  02231216192D 0   1.00000     0.00000     0

 21 24  0  0  0  0  0  0  0  0999 V2000
   -2.5276    0.5874    0.0000 N   0  0  0  0  0  0  0  0  0
   -1.9457    0.0026    0.0000 C   0  0  0  0  0  0  0  0  0
   -1.1217    0.0437    0.0000 C   0  0  0  0  0  0  0  0  0
   -0.7453    0.7778    0.0000 C   0  0  0  0  0  0  0  0  0
    0.0786    0.8189    0.0000 C   0  0  0  0  0  0  0  0  0
    0.5262    0.1259    0.0000 C   0  0  0  0  0  0  0  0  0
    0.1498   -0.6083    0.0000 C   0  0  0  0  0  0  0  0  0
   -0.6741   -0.6494    0.0000 N   0  0  0  0  0  0  0  0  0
   -1.0505   -1.3835    0.0000 C   0  0  0  0  0  0  0  0  0
   -1.8745   -1.4246    0.0000 C   0  0  0  0  0  0  0  0  0
   -2.3221   -0.7315    0.0000 C   0  0  0  0  0  0  0  0  0
   -3.1366   -0.6004    0.0000 C   0  0  0  0  0  0  0  0  0
   -3.2636    0.2147    0.0000 C   0  0  0  0  0  0  0  0  0
   -4.0331    0.5123    0.0000 C   0  0  0  0  0  0  0  0  0
   -4.6755   -0.0052    0.0000 C   0  0  0  0  0  0  0  0  0
   -4.5485   -0.8204    0.0000 C   0  0  0  0  0  0  0  0  0
   -3.7791   -1.1180    0.0000 C   0  0  0  0  0  0  0  0  0
   -0.2266   -1.3424    0.0000 C   0  0  0  0  0  0  0  0  0
   -0.6030   -2.0765    0.0000 C   0  0  0  0  0  0  0  0  0
   -0.5619   -2.9005    0.0000 C   0  0  0  0  0  0  0  0  0
   -1.2960   -2.5241    0.0000 C   0  0  0  0  0  0  0  0  0
  1  2  4  0  0  0  0
  1 13  4  0  0  0  0
  2  3  1  0  0  0  0
  2 11  4  0  0  0  0
  3  4  1  0  0  0  0
  4  5  1  0  0  0  0
  5  6  1  0  0  0  0
  6  7  1  0  0  0  0
  7  8  1  0  0  0  0
  8  9  1  0  0  0  0
  8 18  1  0  0  0  0
  9 10  1  0  0  0  0
 10 11  1  0  0  0  0
 11 12  4  0  0  0  0
 12 13  4  0  0  0  0
 12 17  4  0  0  0  0
 13 14  4  0  0  0  0
 14 15  4  0  0  0  0
 15 16  4  0  0  0  0
 16 17  4  0  0  0  0
 18 19  1  0  0  0  0
 19 20  1  0  0  0  0
 19 21  1  0  0  0  0
 20 21  1  0  0  0  0
M  STY  1   1 DAT
M  SAL   1  1   1
M  SDT   1 MRV_IMPLICIT_H                                        
M  SDD   1     0.0000    0.0000    DR    ALL  0       0  
M  SED   1 IMPL_H1
M  END
>  <Name_Molregno>
336623

>  <DOPAMINE D1>
5

>  <DOPAMINE D2>
5

>  <DOPAMINE D5>
5

$$$$
336628
  Marvin  02231216192D 0   1.00000     0.00000     0

 23 26  0  0  1  0  0  0  0  0999 V2000
   -0.2025   -0.2842    0.0000 N   0  0  0  0  0  0  0  0  0
    0.4863   -0.7382    0.0000 C   0  0  0  0  0  0  0  0  0
    1.1653   -0.2696    0.0000 C   0  0  0  0  0  0  0  0  0
    1.9867   -0.3471    0.0000 C   0  0  0  0  0  0  0  0  0
    2.5661   -0.9344    0.0000 C   0  0  0  0  0  0  0  0  0
    2.6324   -1.7567    0.0000 C   0  0  0  0  0  0  0  0  0
    2.1546   -2.4293    0.0000 N   0  0  0  0  0  0  0  0  0
    1.3563   -2.6374    0.0000 C   0  0  0  0  0  0  0  0  0
    0.6110   -2.2837    0.0000 C   0  0  0  0  0  0  0  0  0
    0.2674   -1.5337    0.0000 C   0  0  0  0  0  0  0  0  0
   -0.5568   -1.5713    0.0000 C   0  0  0  0  0  0  0  0  0
   -0.8472   -0.7991    0.0000 C   0  0  0  0  0  0  0  0  0
   -1.6611   -0.6645    0.0000 C   0  0  0  0  0  0  0  0  0
   -2.1847   -1.3021    0.0000 C   0  0  0  0  0  0  0  0  0
   -1.8942   -2.0743    0.0000 C   0  0  0  0  0  0  0  0  0
   -1.0803   -2.2089    0.0000 C   0  0  0  0  0  0  0  0  0
    2.6232   -3.1083    0.0000 C   0  0  0  0  0  0  0  0  0
    2.3404    0.3982    0.0000 C   0  0  0  0  0  0  0  0  0
    1.8718    1.0772    0.0000 C   0  0  0  0  0  0  0  0  0
    2.2255    1.8225    0.0000 C   0  0  0  0  0  0  0  0  0
    3.0478    1.8889    0.0000 C   0  0  0  0  0  0  0  0  0
    3.5164    1.2099    0.0000 C   0  0  0  0  0  0  0  0  0
    3.1627    0.4646    0.0000 C   0  0  0  0  0  0  0  0  0
  1  2  4  0  0  0  0
  1 12  4  0  0  0  0
  2  3  1  0  0  0  0
  2 10  4  0  0  0  0
  3  4  1  0  0  0  0
  4  5  1  0  0  0  0
  4 18  1  0  0  0  0
  5  6  1  0  0  0  0
  6  7  1  0  0  0  0
  7  8  1  0  0  0  0
  7 17  1  0  0  0  0
  8  9  1  0  0  0  0
  9 10  1  0  0  0  0
 10 11  4  0  0  0  0
 11 12  4  0  0  0  0
 11 16  4  0  0  0  0
 12 13  4  0  0  0  0
 13 14  4  0  0  0  0
 14 15  4  0  0  0  0
 15 16  4  0  0  0  0
 18 19  4  0  0  0  0
 18 23  4  0  0  0  0
 19 20  4  0  0  0  0
 20 21  4  0  0  0  0
 21 22  4  0  0  0  0
 22 23  4  0  0  0  0
M  STY  1   1 DAT
M  SAL   1  1   1
M  SDT   1 MRV_IMPLICIT_H                                        
M  SDD   1     0.0000    0.0000    DR    ALL  0       0  
M  SED   1 IMPL_H1
M  END
>  <Name_Molregno>
336628

>  <DOPAMINE D1>
6.13

>  <DOPAMINE D2>
6.03

>  <DOPAMINE D5>
6.95

$$$$
336632
  Marvin  02231216192D 0   1.00000     0.00000     0

 24 27  0  0  1  0  0  0  0  0999 V2000
    0.9320    0.8347    0.0000 N   0  0  0  0  0  0  0  0  0
    1.5139    0.2499    0.0000 C   0  0  0  0  0  0  0  0  0
    2.3378    0.2910    0.0000 C   0  0  0  0  0  0  0  0  0
    2.7142    1.0251    0.0000 C   0  0  0  0  0  0  0  0  0
    3.5382    1.0662    0.0000 C   0  0  0  0  0  0  0  0  0
    3.9858    0.3732    0.0000 C   0  0  0  0  0  0  0  0  0
    3.6094   -0.3609    0.0000 C   0  0  0  0  0  0  0  0  0
    2.7854   -0.4020    0.0000 N   0  0  0  0  0  0  0  0  0
    2.4090   -1.1362    0.0000 C   0  0  0  0  0  0  0  0  0
    1.5850   -1.1773    0.0000 C   0  0  0  0  0  0  0  0  0
    1.1375   -0.4842    0.0000 C   0  0  0  0  0  0  0  0  0
    0.3230   -0.3531    0.0000 C   0  0  0  0  0  0  0  0  0
    0.1960    0.4621    0.0000 C   0  0  0  0  0  0  0  0  0
   -0.5735    0.7597    0.0000 C   0  0  0  0  0  0  0  0  0
   -1.2160    0.2421    0.0000 C   0  0  0  0  0  0  0  0  0
   -1.0890   -0.5731    0.0000 C   0  0  0  0  0  0  0  0  0
   -0.3195   -0.8707    0.0000 C   0  0  0  0  0  0  0  0  0
    2.0160   -0.1044    0.0000 C   0  0  0  0  0  0  0  0  0
    4.0570   -1.0540    0.0000 C   0  0  0  0  0  0  0  0  0
    4.8809   -1.0129    0.0000 C   0  0  0  0  0  0  0  0  0
    5.3285   -1.7059    0.0000 C   0  0  0  0  0  0  0  0  0
    4.9521   -2.4400    0.0000 C   0  0  0  0  0  0  0  0  0
    4.1282   -2.4811    0.0000 C   0  0  0  0  0  0  0  0  0
    3.6806   -1.7881    0.0000 C   0  0  0  0  0  0  0  0  0
  1  2  4  0  0  0  0
  1 13  4  0  0  0  0
  2  3  1  0  0  0  0
  2 11  4  0  0  0  0
  3  4  1  0  0  0  0
  4  5  1  0  0  0  0
  5  6  1  0  0  0  0
  6  7  1  0  0  0  0
  7  8  1  0  0  0  0
  7 19  1  0  0  0  0
  8  9  1  0  0  0  0
  8 18  1  0  0  0  0
  9 10  1  0  0  0  0
 10 11  1  0  0  0  0
 11 12  4  0  0  0  0
 12 13  4  0  0  0  0
 12 17  4  0  0  0  0
 13 14  4  0  0  0  0
 14 15  4  0  0  0  0
 15 16  4  0  0  0  0
 16 17  4  0  0  0  0
 19 20  4  0  0  0  0
 19 24  4  0  0  0  0
 20 21  4  0  0  0  0
 21 22  4  0  0  0  0
 22 23  4  0  0  0  0
 23 24  4  0  0  0  0
M  STY  1   1 DAT
M  SAL   1  1   1
M  SDT   1 MRV_IMPLICIT_H                                        
M  SDD   1     0.0000    0.0000    DR    ALL  0       0  
M  SED   1 IMPL_H1
M  END
>  <Name_Molregno>
336632

>  <DOPAMINE D1>
5

>  <DOPAMINE D2>
6.3

>  <DOPAMINE D5>
5

$$$$
336640
  Marvin  02231216192D 0   1.00000     0.00000     0

 23 27  0  0  1  0  0  0  0  0999 V2000
    0.4762   -2.1601    0.0000 N   0  0  0  0  0  0  0  0  0
    0.9923   -1.5165    0.0000 C   0  0  0  0  0  0  0  0  0
    1.8160   -1.4694    0.0000 C   0  0  0  0  0  0  0  0  0
    2.1870   -0.7325    0.0000 N   0  0  0  0  0  0  0  0  0
    1.7343   -0.0427    0.0000 C   0  0  0  0  0  0  0  0  0
    0.9107   -0.0899    0.0000 C   0  0  0  0  0  0  0  0  0
    0.5397   -0.8268    0.0000 C   0  0  0  0  0  0  0  0  0
   -0.2562   -1.0441    0.0000 C   0  0  0  0  0  0  0  0  0
   -0.2954   -1.8682    0.0000 C   0  0  0  0  0  0  0  0  0
   -1.0286   -2.2463    0.0000 C   0  0  0  0  0  0  0  0  0
   -1.7227   -1.8003    0.0000 C   0  0  0  0  0  0  0  0  0
   -1.6835   -0.9762    0.0000 C   0  0  0  0  0  0  0  0  0
   -0.9502   -0.5981    0.0000 C   0  0  0  0  0  0  0  0  0
    3.0106   -0.6853    0.0000 C   0  0  0  0  0  0  0  0  0
    3.4633   -1.3751    0.0000 C   0  0  0  0  0  0  0  0  0
    3.0923   -2.1119    0.0000 C   0  0  0  0  0  0  0  0  0
    2.2686   -2.1591    0.0000 C   0  0  0  0  0  0  0  0  0
    3.3816    0.0515    0.0000 C   0  0  0  0  0  0  0  0  0
    2.9290    0.7413    0.0000 C   0  0  0  0  0  0  0  0  0
    3.3000    1.4782    0.0000 C   0  0  0  0  0  0  0  0  0
    4.1236    1.5253    0.0000 C   0  0  0  0  0  0  0  0  0
    4.5763    0.8356    0.0000 C   0  0  0  0  0  0  0  0  0
    4.2053    0.0987    0.0000 C   0  0  0  0  0  0  0  0  0
  1  2  4  0  0  0  0
  1  9  4  0  0  0  0
  2  3  1  0  0  0  0
  2  7  4  0  0  0  0
  3  4  1  0  0  0  0
  3 17  1  0  0  0  0
  4  5  1  0  0  0  0
  4 14  1  0  0  0  0
  5  6  1  0  0  0  0
  6  7  1  0  0  0  0
  7  8  4  0  0  0  0
  8  9  4  0  0  0  0
  8 13  4  0  0  0  0
  9 10  4  0  0  0  0
 10 11  4  0  0  0  0
 11 12  4  0  0  0  0
 12 13  4  0  0  0  0
 14 15  1  0  0  0  0
 14 18  1  0  0  0  0
 15 16  1  0  0  0  0
 16 17  1  0  0  0  0
 18 19  4  0  0  0  0
 18 23  4  0  0  0  0
 19 20  4  0  0  0  0
 20 21  4  0  0  0  0
 21 22  4  0  0  0  0
 22 23  4  0  0  0  0
M  STY  1   1 DAT
M  SAL   1  1   1
M  SDT   1 MRV_IMPLICIT_H                                        
M  SDD   1     0.0000    0.0000    DR    ALL  0       0  
M  SED   1 IMPL_H1
M  END
>  <Name_Molregno>
336640

>  <DOPAMINE D1>
5

>  <DOPAMINE D2>
5

>  <DOPAMINE D5>
5

$$$$
336642
  Marvin  02231216192D 0   1.00000     0.00000     0

 13 14  0  0  1  0  0  0  0  0999 V2000
    3.2786    0.3068    0.0000 O   0  0  0  0  0  0  0  0  0
    3.2786   -0.5182    0.0000 C   0  0  0  0  0  0  0  0  0
    2.5641   -0.9307    0.0000 C   0  0  0  0  0  0  0  0  0
    1.8497   -0.5182    0.0000 C   0  0  0  0  0  0  0  0  0
    1.8497    0.3068    0.0000 C   0  0  0  0  0  0  0  0  0
    1.1352    0.7193    0.0000 C   0  0  0  0  0  0  0  0  0
    0.4207    0.3068    0.0000 C   0  0  0  0  0  0  0  0  0
   -0.2937    0.7193    0.0000 C   0  0  0  0  0  0  0  0  0
   -0.2937    1.5443    0.0000 C   0  0  0  0  0  0  0  0  0
    0.4207    1.9568    0.0000 C   0  0  0  0  0  0  0  0  0
    1.1352    1.5443    0.0000 C   0  0  0  0  0  0  0  0  0
    2.5641    0.7193    0.0000 C   0  0  0  0  0  0  0  0  0
    2.5641    1.5443    0.0000 O   0  0  0  0  0  0  0  0  0
  1  2  1  0  0  0  0
  1 12  1  0  0  0  0
  2  3  1  0  0  0  0
  3  4  1  0  0  0  0
  4  5  1  0  0  0  0
  5  6  1  0  0  0  0
  5 12  1  0  0  0  0
  6  7  4  0  0  0  0
  6 11  4  0  0  0  0
  7  8  4  0  0  0  0
  8  9  4  0  0  0  0
  9 10  4  0  0  0  0
 10 11  4  0  0  0  0
 12 13  2  0  0  0  0
M  END
>  <Name_Molregno>
336642

>  <DOPAMINE D1>
5

>  <DOPAMINE D2>
5

>  <DOPAMINE D5>
5

$$$$
336646
  Marvin  02231216192D 0   1.00000     0.00000     0

 19 21  0  0  0  0  0  0  0  0999 V2000
    0.0255   -0.6767    0.0000 N   0  0  0  0  0  0  0  0  0
    0.7400   -0.2642    0.0000 C   0  0  0  0  0  0  0  0  0
    1.4545   -0.6767    0.0000 C   0  0  0  0  0  0  0  0  0
    1.4545   -1.5017    0.0000 C   0  0  0  0  0  0  0  0  0
    0.7400   -1.9142    0.0000 C   0  0  0  0  0  0  0  0  0
    0.0255   -1.5017    0.0000 C   0  0  0  0  0  0  0  0  0
   -0.6889   -1.9142    0.0000 C   0  0  0  0  0  0  0  0  0
   -1.4034   -1.5017    0.0000 C   0  0  0  0  0  0  0  0  0
   -1.4034   -0.6767    0.0000 C   0  0  0  0  0  0  0  0  0
   -0.6889   -0.2642    0.0000 C   0  0  0  0  0  0  0  0  0
   -2.1179   -1.9142    0.0000 C   0  0  0  0  0  0  0  0  0
   -2.1179   -2.7392    0.0000 C   0  0  0  0  0  0  0  0  0
   -1.4034   -3.1517    0.0000 C   0  0  0  0  0  0  0  0  0
   -0.6889   -2.7392    0.0000 C   0  0  0  0  0  0  0  0  0
    0.7400   -2.7392    0.0000 C   0  0  0  0  0  0  0  0  0
    1.4545   -3.1517    0.0000 C   0  0  0  0  0  0  0  0  0
    2.1689   -2.7392    0.0000 C   0  0  0  0  0  0  0  0  0
    2.1689   -1.9142    0.0000 C   0  0  0  0  0  0  0  0  0
   -0.4594   -1.3441    0.0000 C   0  0  0  0  0  0  0  0  0
  1  2  1  0  0  0  0
  1 10  1  0  0  0  0
  1 19  1  0  0  0  0
  2  3  1  0  0  0  0
  3  4  1  0  0  0  0
  4  5  4  0  0  0  0
  4 18  4  0  0  0  0
  5  6  1  0  0  0  0
  5 15  4  0  0  0  0
  6  7  1  0  0  0  0
  7  8  4  0  0  0  0
  7 14  4  0  0  0  0
  8  9  1  0  0  0  0
  8 11  4  0  0  0  0
  9 10  1  0  0  0  0
 11 12  4  0  0  0  0
 12 13  4  0  0  0  0
 13 14  4  0  0  0  0
 15 16  4  0  0  0  0
 16 17  4  0  0  0  0
 17 18  4  0  0  0  0
M  END
>  <Name_Molregno>
336646

>  <DOPAMINE D1>
8.14

>  <DOPAMINE D2>
7.45

>  <DOPAMINE D3>
7.3

>  <DOPAMINE D4>
6.87

>  <DOPAMINE D5>
8.14

$$$$
336648
  Marvin  02231216192D 0   1.00000     0.00000     0

 16 16  0  0  1  0  0  0  0  0999 V2000
   -0.6758   -1.9725    0.0000 Br  0  0  0  0  0  0  0  0  0
    0.0387   -2.3850    0.0000 C   0  0  0  0  0  0  0  0  0
    0.7531   -1.9725    0.0000 C   0  0  0  0  0  0  0  0  0
    1.4676   -2.3850    0.0000 C   0  0  0  0  0  0  0  0  0
    2.1821   -1.9725    0.0000 C   0  0  0  0  0  0  0  0  0
    2.8965   -2.3850    0.0000 C   0  0  0  0  0  0  0  0  0
    3.6110   -1.9725    0.0000 O   0  0  0  0  0  0  0  0  0
    4.3255   -2.3850    0.0000 C   0  0  0  0  0  0  0  0  0
    5.0400   -1.9725    0.0000 C   0  0  0  0  0  0  0  0  0
    2.8965   -3.2100    0.0000 O   0  0  0  0  0  0  0  0  0
    2.1821   -1.1475    0.0000 C   0  0  0  0  0  0  0  0  0
    1.4676   -0.7350    0.0000 C   0  0  0  0  0  0  0  0  0
    1.4676    0.0900    0.0000 C   0  0  0  0  0  0  0  0  0
    2.1821    0.5025    0.0000 C   0  0  0  0  0  0  0  0  0
    2.8965    0.0900    0.0000 C   0  0  0  0  0  0  0  0  0
    2.8965   -0.7350    0.0000 C   0  0  0  0  0  0  0  0  0
  1  2  1  0  0  0  0
  2  3  1  0  0  0  0
  3  4  1  0  0  0  0
  4  5  1  0  0  0  0
  5  6  1  0  0  0  0
  5 11  1  0  0  0  0
  6  7  1  0  0  0  0
  6 10  2  0  0  0  0
  7  8  1  0  0  0  0
  8  9  1  0  0  0  0
 11 12  4  0  0  0  0
 11 16  4  0  0  0  0
 12 13  4  0  0  0  0
 13 14  4  0  0  0  0
 14 15  4  0  0  0  0
 15 16  4  0  0  0  0
M  END
>  <Name_Molregno>
336648

>  <DOPAMINE D1>
5

>  <DOPAMINE D2>
5

>  <DOPAMINE D5>
5

$$$$
336649
  Marvin  02231216192D 0   1.00000     0.00000     0

 24 27  0  0  1  0  0  0  0  0999 V2000
   -0.0637   -0.3024    0.0000 O   0  0  0  0  0  0  0  0  0
    0.4883   -0.9155    0.0000 C   0  0  0  0  0  0  0  0  0
    1.2953   -0.7440    0.0000 N   0  0  0  0  0  0  0  0  0
    1.8473   -1.3571    0.0000 C   0  0  0  0  0  0  0  0  0
    1.5924   -2.1417    0.0000 C   0  0  0  0  0  0  0  0  0
    0.7854   -2.3132    0.0000 C   0  0  0  0  0  0  0  0  0
    0.2334   -1.7001    0.0000 C   0  0  0  0  0  0  0  0  0
   -0.5736   -1.8717    0.0000 C   0  0  0  0  0  0  0  0  0
   -0.8285   -2.6563    0.0000 C   0  0  0  0  0  0  0  0  0
   -1.6355   -2.8278    0.0000 C   0  0  0  0  0  0  0  0  0
   -2.1875   -2.2147    0.0000 C   0  0  0  0  0  0  0  0  0
   -1.9326   -1.4301    0.0000 C   0  0  0  0  0  0  0  0  0
   -1.1256   -1.2586    0.0000 C   0  0  0  0  0  0  0  0  0
    1.5502    0.0406    0.0000 C   0  0  0  0  0  0  0  0  0
    2.3572    0.2122    0.0000 C   0  0  0  0  0  0  0  0  0
    2.6121    0.9968    0.0000 C   0  0  0  0  0  0  0  0  0
    3.3968    1.2517    0.0000 C   0  0  0  0  0  0  0  0  0
    3.3968    2.0767    0.0000 C   0  0  0  0  0  0  0  0  0
    2.6121    2.3317    0.0000 N   0  0  0  0  0  0  0  0  0
    2.1272    1.6642    0.0000 C   0  0  0  0  0  0  0  0  0
    4.1112    2.4892    0.0000 C   0  0  0  0  0  0  0  0  0
    4.8257    2.0767    0.0000 C   0  0  0  0  0  0  0  0  0
    4.8257    1.2517    0.0000 C   0  0  0  0  0  0  0  0  0
    4.1112    0.8392    0.0000 C   0  0  0  0  0  0  0  0  0
  1  2  2  0  0  0  0
  2  3  1  0  0  0  0
  2  7  1  0  0  0  0
  3  4  1  0  0  0  0
  3 14  1  0  0  0  0
  4  5  1  0  0  0  0
  5  6  1  0  0  0  0
  6  7  1  0  0  0  0
  7  8  1  0  0  0  0
  8  9  4  0  0  0  0
  8 13  4  0  0  0  0
  9 10  4  0  0  0  0
 10 11  4  0  0  0  0
 11 12  4  0  0  0  0
 12 13  4  0  0  0  0
 14 15  1  0  0  0  0
 15 16  1  0  0  0  0
 16 17  4  0  0  0  0
 16 20  4  0  0  0  0
 17 18  4  0  0  0  0
 17 24  4  0  0  0  0
 18 19  4  0  0  0  0
 18 21  4  0  0  0  0
 19 20  4  0  0  0  0
 21 22  4  0  0  0  0
 22 23  4  0  0  0  0
 23 24  4  0  0  0  0
M  STY  1   1 DAT
M  SAL   1  1  19
M  SDT   1 MRV_IMPLICIT_H                                        
M  SDD   1     0.0000    0.0000    DR    ALL  0       0  
M  SED   1 IMPL_H1
M  END
>  <Name_Molregno>
336649

>  <DOPAMINE D1>
5

>  <DOPAMINE D2>
5

>  <DOPAMINE D5>
5

$$$$
336655
  Marvin  02231216192D 0   1.00000     0.00000     0

 24 27  0  0  1  0  0  0  0  0999 V2000
   -1.2245   -0.8771    0.0000 N   0  0  0  0  0  0  0  0  0
   -0.6426   -1.4620    0.0000 C   0  0  0  0  0  0  0  0  0
    0.1814   -1.4209    0.0000 C   0  0  0  0  0  0  0  0  0
    0.5578   -0.6867    0.0000 C   0  0  0  0  0  0  0  0  0
    1.3817   -0.6456    0.0000 C   0  0  0  0  0  0  0  0  0
    1.8293   -1.3387    0.0000 C   0  0  0  0  0  0  0  0  0
    1.4529   -2.0728    0.0000 C   0  0  0  0  0  0  0  0  0
    0.6290   -2.1139    0.0000 N   0  0  0  0  0  0  0  0  0
    0.2526   -2.8480    0.0000 C   0  0  0  0  0  0  0  0  0
   -0.5714   -2.8891    0.0000 C   0  0  0  0  0  0  0  0  0
   -1.0190   -2.1961    0.0000 C   0  0  0  0  0  0  0  0  0
   -1.8335   -2.0650    0.0000 C   0  0  0  0  0  0  0  0  0
   -1.9605   -1.2498    0.0000 C   0  0  0  0  0  0  0  0  0
   -2.7300   -0.9522    0.0000 C   0  0  0  0  0  0  0  0  0
   -3.3724   -1.4698    0.0000 C   0  0  0  0  0  0  0  0  0
   -3.2454   -2.2850    0.0000 C   0  0  0  0  0  0  0  0  0
   -2.4760   -2.5825    0.0000 C   0  0  0  0  0  0  0  0  0
   -0.1405   -1.8163    0.0000 C   0  0  0  0  0  0  0  0  0
    0.1102    0.0063    0.0000 C   0  0  0  0  0  0  0  0  0
   -0.7138   -0.0348    0.0000 C   0  0  0  0  0  0  0  0  0
   -1.1614    0.6582    0.0000 C   0  0  0  0  0  0  0  0  0
   -0.7850    1.3924    0.0000 C   0  0  0  0  0  0  0  0  0
    0.0390    1.4335    0.0000 C   0  0  0  0  0  0  0  0  0
    0.4866    0.7404    0.0000 C   0  0  0  0  0  0  0  0  0
  1  2  4  0  0  0  0
  1 13  4  0  0  0  0
  2  3  1  0  0  0  0
  2 11  4  0  0  0  0
  3  4  1  0  0  0  0
  4  5  1  0  0  0  0
  4 19  1  0  0  0  0
  5  6  1  0  0  0  0
  6  7  1  0  0  0  0
  7  8  1  0  0  0  0
  8  9  1  0  0  0  0
  8 18  1  0  0  0  0
  9 10  1  0  0  0  0
 10 11  1  0  0  0  0
 11 12  4  0  0  0  0
 12 13  4  0  0  0  0
 12 17  4  0  0  0  0
 13 14  4  0  0  0  0
 14 15  4  0  0  0  0
 15 16  4  0  0  0  0
 16 17  4  0  0  0  0
 19 20  4  0  0  0  0
 19 24  4  0  0  0  0
 20 21  4  0  0  0  0
 21 22  4  0  0  0  0
 22 23  4  0  0  0  0
 23 24  4  0  0  0  0
M  STY  1   1 DAT
M  SAL   1  1   1
M  SDT   1 MRV_IMPLICIT_H                                        
M  SDD   1     0.0000    0.0000    DR    ALL  0       0  
M  SED   1 IMPL_H1
M  END
>  <Name_Molregno>
336655

>  <DOPAMINE D1>
5

>  <DOPAMINE D2>
5

>  <DOPAMINE D5>
5

$$$$
336663
  Marvin  02231216192D 0   1.00000     0.00000     0

 24 27  0  0  1  0  0  0  0  0999 V2000
    0.1624   -0.0054    0.0000 N   0  0  0  0  0  0  0  0  0
    0.7442    0.5794    0.0000 C   0  0  0  0  0  0  0  0  0
    0.3679    1.3136    0.0000 C   0  0  0  0  0  0  0  0  0
    0.8154    2.0066    0.0000 C   0  0  0  0  0  0  0  0  0
    1.6394    1.9655    0.0000 C   0  0  0  0  0  0  0  0  0
    2.0158    1.2314    0.0000 N   0  0  0  0  0  0  0  0  0
    2.8398    1.1903    0.0000 C   0  0  0  0  0  0  0  0  0
    3.2162    0.4561    0.0000 C   0  0  0  0  0  0  0  0  0
    2.7686   -0.2369    0.0000 C   0  0  0  0  0  0  0  0  0
    1.9446   -0.1958    0.0000 C   0  0  0  0  0  0  0  0  0
    1.5682    0.5383    0.0000 C   0  0  0  0  0  0  0  0  0
    1.3567   -0.2591    0.0000 C   0  0  0  0  0  0  0  0  0
    1.9415   -0.8410    0.0000 C   0  0  0  0  0  0  0  0  0
    1.7300   -1.6384    0.0000 C   0  0  0  0  0  0  0  0  0
    0.9337   -1.8540    0.0000 C   0  0  0  0  0  0  0  0  0
    0.3489   -1.2721    0.0000 C   0  0  0  0  0  0  0  0  0
    0.5604   -0.4746    0.0000 C   0  0  0  0  0  0  0  0  0
    2.0611    0.4076    0.0000 C   0  0  0  0  0  0  0  0  0
   -0.4467    1.1824    0.0000 C   0  0  0  0  0  0  0  0  0
   -0.5737    0.3673    0.0000 C   0  0  0  0  0  0  0  0  0
   -1.3431    0.0697    0.0000 C   0  0  0  0  0  0  0  0  0
   -1.9856    0.5872    0.0000 C   0  0  0  0  0  0  0  0  0
   -1.8586    1.4024    0.0000 C   0  0  0  0  0  0  0  0  0
   -1.0891    1.7000    0.0000 C   0  0  0  0  0  0  0  0  0
  1  2  4  0  0  0  0
  1 20  4  0  0  0  0
  2  3  4  0  0  0  0
  2 11  1  0  0  0  0
  3  4  1  0  0  0  0
  3 19  4  0  0  0  0
  4  5  1  0  0  0  0
  5  6  1  0  0  0  0
  6  7  1  0  0  0  0
  6 18  1  0  0  0  0
  7  8  1  0  0  0  0
  8  9  1  0  0  0  0
  9 10  1  0  0  0  0
 10 11  1  0  0  0  0
 11 12  1  0  0  0  0
 12 13  4  0  0  0  0
 12 17  4  0  0  0  0
 13 14  4  0  0  0  0
 14 15  4  0  0  0  0
 15 16  4  0  0  0  0
 16 17  4  0  0  0  0
 19 20  4  0  0  0  0
 19 24  4  0  0  0  0
 20 21  4  0  0  0  0
 21 22  4  0  0  0  0
 22 23  4  0  0  0  0
 23 24  4  0  0  0  0
M  STY  1   1 DAT
M  SAL   1  1   1
M  SDT   1 MRV_IMPLICIT_H                                        
M  SDD   1     0.0000    0.0000    DR    ALL  0       0  
M  SED   1 IMPL_H1
M  END
>  <Name_Molregno>
336663

>  <DOPAMINE D1>
5

>  <DOPAMINE D2>
5

>  <DOPAMINE D5>
5

$$$$
336666
  Marvin  02231216192D 0   1.00000     0.00000     0

 20 22  0  0  0  0  0  0  0  0999 V2000
    0.3810   -0.8391    0.0000 O   0  0  0  0  0  0  0  0  0
    1.0955   -0.4266    0.0000 C   0  0  0  0  0  0  0  0  0
    1.0955    0.3984    0.0000 C   0  0  0  0  0  0  0  0  0
    1.8099    0.8109    0.0000 C   0  0  0  0  0  0  0  0  0
    1.8099    1.6359    0.0000 C   0  0  0  0  0  0  0  0  0
    2.5244    2.0484    0.0000 C   0  0  0  0  0  0  0  0  0
    3.2389    1.6359    0.0000 N   0  0  0  0  0  0  0  0  0
    3.9533    2.0484    0.0000 C   0  0  0  0  0  0  0  0  0
    4.6678    1.6359    0.0000 C   0  0  0  0  0  0  0  0  0
    4.6678    0.8109    0.0000 C   0  0  0  0  0  0  0  0  0
    3.9533    0.3984    0.0000 C   0  0  0  0  0  0  0  0  0
    3.2389    0.8109    0.0000 C   0  0  0  0  0  0  0  0  0
    2.5244    0.3984    0.0000 C   0  0  0  0  0  0  0  0  0
    2.5244   -0.4266    0.0000 C   0  0  0  0  0  0  0  0  0
    1.8099   -0.8391    0.0000 C   0  0  0  0  0  0  0  0  0
    3.9533   -0.4266    0.0000 C   0  0  0  0  0  0  0  0  0
    4.6678   -0.8391    0.0000 C   0  0  0  0  0  0  0  0  0
    5.3823   -0.4266    0.0000 C   0  0  0  0  0  0  0  0  0
    5.3823    0.3984    0.0000 C   0  0  0  0  0  0  0  0  0
    2.7539    0.9685    0.0000 C   0  0  0  0  0  0  0  0  0
  1  2  1  0  0  0  0
  2  3  4  0  0  0  0
  2 15  4  0  0  0  0
  3  4  4  0  0  0  0
  4  5  1  0  0  0  0
  4 13  4  0  0  0  0
  5  6  1  0  0  0  0
  6  7  1  0  0  0  0
  7  8  1  0  0  0  0
  7 20  1  0  0  0  0
  8  9  1  0  0  0  0
  9 10  1  0  0  0  0
 10 11  4  0  0  0  0
 10 19  4  0  0  0  0
 11 12  1  0  0  0  0
 11 16  4  0  0  0  0
 12 13  1  0  0  0  0
 13 14  4  0  0  0  0
 14 15  4  0  0  0  0
 16 17  4  0  0  0  0
 17 18  4  0  0  0  0
 18 19  4  0  0  0  0
M  END
>  <Name_Molregno>
336666

>  <DOPAMINE D1>
9.16

>  <DOPAMINE D2>
7.68

>  <DOPAMINE D3>
7.31

>  <DOPAMINE D4>
7.95

>  <DOPAMINE D5>
8.81

$$$$
340961
  Marvin  02231216192D 0   1.00000     0.00000     0

 21 23  0  0  0  0  0  0  0  0999 V2000
    0.3310   -1.6397    0.0000 Cl  0  0  0  0  0  0  0  0  0
    1.0454   -1.2272    0.0000 C   0  0  0  0  0  0  0  0  0
    1.0454   -0.4022    0.0000 C   0  0  0  0  0  0  0  0  0
    1.7599    0.0103    0.0000 C   0  0  0  0  0  0  0  0  0
    1.7599    0.8353    0.0000 C   0  0  0  0  0  0  0  0  0
    2.4744    1.2478    0.0000 C   0  0  0  0  0  0  0  0  0
    3.1889    0.8353    0.0000 N   0  0  0  0  0  0  0  0  0
    3.9033    1.2478    0.0000 C   0  0  0  0  0  0  0  0  0
    4.6178    0.8353    0.0000 C   0  0  0  0  0  0  0  0  0
    4.6178    0.0103    0.0000 C   0  0  0  0  0  0  0  0  0
    3.9033   -0.4022    0.0000 C   0  0  0  0  0  0  0  0  0
    3.1889    0.0103    0.0000 C   0  0  0  0  0  0  0  0  0
    2.4744   -0.4022    0.0000 C   0  0  0  0  0  0  0  0  0
    2.4744   -1.2272    0.0000 C   0  0  0  0  0  0  0  0  0
    1.7599   -1.6397    0.0000 C   0  0  0  0  0  0  0  0  0
    1.7599   -2.4647    0.0000 O   0  0  0  0  0  0  0  0  0
    3.9033   -1.2272    0.0000 C   0  0  0  0  0  0  0  0  0
    4.6178   -1.6397    0.0000 C   0  0  0  0  0  0  0  0  0
    5.3323   -1.2272    0.0000 C   0  0  0  0  0  0  0  0  0
    5.3323   -0.4022    0.0000 C   0  0  0  0  0  0  0  0  0
    2.7039    0.1678    0.0000 C   0  0  0  0  0  0  0  0  0
  1  2  1  0  0  0  0
  2  3  4  0  0  0  0
  2 15  4  0  0  0  0
  3  4  4  0  0  0  0
  4  5  1  0  0  0  0
  4 13  4  0  0  0  0
  5  6  1  0  0  0  0
  6  7  1  0  0  0  0
  7  8  1  0  0  0  0
  7 21  1  0  0  0  0
  8  9  1  0  0  0  0
  9 10  1  0  0  0  0
 10 11  4  0  0  0  0
 10 20  4  0  0  0  0
 11 12  1  0  0  0  0
 11 17  4  0  0  0  0
 12 13  1  0  0  0  0
 13 14  4  0  0  0  0
 14 15  4  0  0  0  0
 15 16  1  0  0  0  0
 17 18  4  0  0  0  0
 18 19  4  0  0  0  0
 19 20  4  0  0  0  0
M  END
>  <Name_Molregno>
340961

>  <DOPAMINE D1>
8.24

>  <DOPAMINE D2>
8.51

>  <DOPAMINE D3>
7.56

>  <DOPAMINE D5>
8.41

$$$$
341251
  Marvin  02231216192D 0   1.00000     0.00000     0

 20 22  0  0  0  0  0  0  0  0999 V2000
    1.6040    0.1461    0.0000 O   0  0  0  0  0  0  0  0  0
    0.8896   -0.2664    0.0000 C   0  0  0  0  0  0  0  0  0
    0.8896   -1.0914    0.0000 C   0  0  0  0  0  0  0  0  0
    1.6040   -1.5039    0.0000 C   0  0  0  0  0  0  0  0  0
    2.3185   -1.0914    0.0000 C   0  0  0  0  0  0  0  0  0
    3.0330   -1.5039    0.0000 C   0  0  0  0  0  0  0  0  0
    3.0330   -2.3289    0.0000 C   0  0  0  0  0  0  0  0  0
    2.3185   -2.7414    0.0000 C   0  0  0  0  0  0  0  0  0
    1.6040   -2.3289    0.0000 N   0  0  0  0  0  0  0  0  0
    0.8896   -2.7414    0.0000 C   0  0  0  0  0  0  0  0  0
    0.1751   -2.3289    0.0000 C   0  0  0  0  0  0  0  0  0
    0.1751   -1.5039    0.0000 C   0  0  0  0  0  0  0  0  0
   -0.5394   -1.0914    0.0000 C   0  0  0  0  0  0  0  0  0
   -0.5394   -0.2664    0.0000 C   0  0  0  0  0  0  0  0  0
    0.1751    0.1461    0.0000 C   0  0  0  0  0  0  0  0  0
    1.1191   -1.6615    0.0000 C   0  0  0  0  0  0  0  0  0
    3.7475   -1.0914    0.0000 C   0  0  0  0  0  0  0  0  0
    3.7475   -0.2664    0.0000 C   0  0  0  0  0  0  0  0  0
    3.0330    0.1461    0.0000 C   0  0  0  0  0  0  0  0  0
    2.3185   -0.2664    0.0000 C   0  0  0  0  0  0  0  0  0
  1  2  1  0  0  0  0
  2  3  4  0  0  0  0
  2 15  4  0  0  0  0
  3  4  1  0  0  0  0
  3 12  4  0  0  0  0
  4  5  1  0  0  0  0
  5  6  4  0  0  0  0
  5 20  4  0  0  0  0
  6  7  1  0  0  0  0
  6 17  4  0  0  0  0
  7  8  1  0  0  0  0
  8  9  1  0  0  0  0
  9 10  1  0  0  0  0
  9 16  1  0  0  0  0
 10 11  1  0  0  0  0
 11 12  1  0  0  0  0
 12 13  4  0  0  0  0
 13 14  4  0  0  0  0
 14 15  4  0  0  0  0
 17 18  4  0  0  0  0
 18 19  4  0  0  0  0
 19 20  4  0  0  0  0
M  END
>  <Name_Molregno>
341251

>  <DOPAMINE D1>
7.63

>  <DOPAMINE D2>
7.59

>  <DOPAMINE D3>
6.67

>  <DOPAMINE D5>
7.98

$$$$
341293
  Marvin  02231216192D 0   1.00000     0.00000     0

 21 23  0  0  0  0  0  0  0  0999 V2000
   -1.4484    0.1191    0.0000 O   0  0  0  0  0  0  0  0  0
   -1.4484    0.9441    0.0000 C   0  0  0  0  0  0  0  0  0
   -2.1629   -0.2934    0.0000 C   0  0  0  0  0  0  0  0  0
   -2.1629   -1.1184    0.0000 C   0  0  0  0  0  0  0  0  0
   -1.4484   -1.5309    0.0000 C   0  0  0  0  0  0  0  0  0
   -0.7339   -1.1184    0.0000 C   0  0  0  0  0  0  0  0  0
   -0.0195   -1.5309    0.0000 C   0  0  0  0  0  0  0  0  0
   -0.0195   -2.3559    0.0000 C   0  0  0  0  0  0  0  0  0
   -0.7339   -2.7684    0.0000 C   0  0  0  0  0  0  0  0  0
   -1.4484   -2.3559    0.0000 N   0  0  0  0  0  0  0  0  0
   -2.1629   -2.7684    0.0000 C   0  0  0  0  0  0  0  0  0
   -2.8774   -2.3559    0.0000 C   0  0  0  0  0  0  0  0  0
   -2.8774   -1.5309    0.0000 C   0  0  0  0  0  0  0  0  0
   -3.5918   -1.1184    0.0000 C   0  0  0  0  0  0  0  0  0
   -3.5918   -0.2934    0.0000 C   0  0  0  0  0  0  0  0  0
   -2.8774    0.1191    0.0000 C   0  0  0  0  0  0  0  0  0
   -1.9333   -1.6885    0.0000 C   0  0  0  0  0  0  0  0  0
    0.6950   -1.1184    0.0000 C   0  0  0  0  0  0  0  0  0
    0.6950   -0.2934    0.0000 C   0  0  0  0  0  0  0  0  0
   -0.0195    0.1191    0.0000 C   0  0  0  0  0  0  0  0  0
   -0.7339   -0.2934    0.0000 C   0  0  0  0  0  0  0  0  0
  1  2  1  0  0  0  0
  1  3  1  0  0  0  0
  3  4  4  0  0  0  0
  3 16  4  0  0  0  0
  4  5  1  0  0  0  0
  4 13  4  0  0  0  0
  5  6  1  0  0  0  0
  6  7  4  0  0  0  0
  6 21  4  0  0  0  0
  7  8  1  0  0  0  0
  7 18  4  0  0  0  0
  8  9  1  0  0  0  0
  9 10  1  0  0  0  0
 10 11  1  0  0  0  0
 10 17  1  0  0  0  0
 11 12  1  0  0  0  0
 12 13  1  0  0  0  0
 13 14  4  0  0  0  0
 14 15  4  0  0  0  0
 15 16  4  0  0  0  0
 18 19  4  0  0  0  0
 19 20  4  0  0  0  0
 20 21  4  0  0  0  0
M  END
>  <Name_Molregno>
341293

>  <DOPAMINE D1>
7.77

>  <DOPAMINE D2>
7.1

>  <DOPAMINE D3>
5.74

>  <DOPAMINE D5>
7.26

$$$$
341318
  Marvin  02231216192D 0   1.00000     0.00000     0

 21 23  0  0  0  0  0  0  0  0999 V2000
    0.3270   -0.4954    0.0000 O   0  0  0  0  0  0  0  0  0
    1.0414   -0.0829    0.0000 C   0  0  0  0  0  0  0  0  0
    1.0414    0.7421    0.0000 C   0  0  0  0  0  0  0  0  0
    1.7559    1.1546    0.0000 C   0  0  0  0  0  0  0  0  0
    1.7559    1.9796    0.0000 C   0  0  0  0  0  0  0  0  0
    2.4704    2.3921    0.0000 C   0  0  0  0  0  0  0  0  0
    3.1849    1.9796    0.0000 N   0  0  0  0  0  0  0  0  0
    3.8993    2.3921    0.0000 C   0  0  0  0  0  0  0  0  0
    4.6138    1.9796    0.0000 C   0  0  0  0  0  0  0  0  0
    4.6138    1.1546    0.0000 C   0  0  0  0  0  0  0  0  0
    5.3283    0.7421    0.0000 C   0  0  0  0  0  0  0  0  0
    5.3283   -0.0829    0.0000 C   0  0  0  0  0  0  0  0  0
    6.0427   -0.4954    0.0000 O   0  0  0  0  0  0  0  0  0
    4.6138   -0.4954    0.0000 C   0  0  0  0  0  0  0  0  0
    3.8993   -0.0829    0.0000 C   0  0  0  0  0  0  0  0  0
    3.8993    0.7421    0.0000 C   0  0  0  0  0  0  0  0  0
    3.1849    1.1546    0.0000 C   0  0  0  0  0  0  0  0  0
    2.4704    0.7421    0.0000 C   0  0  0  0  0  0  0  0  0
    2.4704   -0.0829    0.0000 C   0  0  0  0  0  0  0  0  0
    1.7559   -0.4954    0.0000 C   0  0  0  0  0  0  0  0  0
    2.6999    1.3121    0.0000 C   0  0  0  0  0  0  0  0  0
  1  2  1  0  0  0  0
  2  3  4  0  0  0  0
  2 20  4  0  0  0  0
  3  4  4  0  0  0  0
  4  5  1  0  0  0  0
  4 18  4  0  0  0  0
  5  6  1  0  0  0  0
  6  7  1  0  0  0  0
  7  8  1  0  0  0  0
  7 21  1  0  0  0  0
  8  9  1  0  0  0  0
  9 10  1  0  0  0  0
 10 11  4  0  0  0  0
 10 16  4  0  0  0  0
 11 12  4  0  0  0  0
 12 13  1  0  0  0  0
 12 14  4  0  0  0  0
 14 15  4  0  0  0  0
 15 16  4  0  0  0  0
 16 17  1  0  0  0  0
 17 18  1  0  0  0  0
 18 19  4  0  0  0  0
 19 20  4  0  0  0  0
M  END
>  <Name_Molregno>
341318

>  <DOPAMINE D1>
8.59

>  <DOPAMINE D2>
7.47

>  <DOPAMINE D3>
6.47

>  <DOPAMINE D5>
9.02

$$$$
341319
  Marvin  02231216192D 0   1.00000     0.00000     0

 23 25  0  0  0  0  0  0  0  0999 V2000
   -6.0296   -0.4982    0.0000 O   0  0  0  0  0  0  0  0  0
   -6.0296   -1.3232    0.0000 C   0  0  0  0  0  0  0  0  0
   -5.3152   -0.0857    0.0000 C   0  0  0  0  0  0  0  0  0
   -5.3152    0.7393    0.0000 C   0  0  0  0  0  0  0  0  0
   -4.6007    1.1518    0.0000 C   0  0  0  0  0  0  0  0  0
   -4.6007    1.9768    0.0000 C   0  0  0  0  0  0  0  0  0
   -3.8862    2.3893    0.0000 C   0  0  0  0  0  0  0  0  0
   -3.1717    1.9768    0.0000 N   0  0  0  0  0  0  0  0  0
   -2.4573    2.3893    0.0000 C   0  0  0  0  0  0  0  0  0
   -1.7428    1.9768    0.0000 C   0  0  0  0  0  0  0  0  0
   -1.7428    1.1518    0.0000 C   0  0  0  0  0  0  0  0  0
   -1.0283    0.7393    0.0000 C   0  0  0  0  0  0  0  0  0
   -1.0283   -0.0857    0.0000 C   0  0  0  0  0  0  0  0  0
   -0.3139   -0.4982    0.0000 O   0  0  0  0  0  0  0  0  0
    0.4006   -0.0857    0.0000 C   0  0  0  0  0  0  0  0  0
   -1.7428   -0.4982    0.0000 C   0  0  0  0  0  0  0  0  0
   -2.4573   -0.0857    0.0000 C   0  0  0  0  0  0  0  0  0
   -2.4573    0.7393    0.0000 C   0  0  0  0  0  0  0  0  0
   -3.1717    1.1518    0.0000 C   0  0  0  0  0  0  0  0  0
   -3.8862    0.7393    0.0000 C   0  0  0  0  0  0  0  0  0
   -3.8862   -0.0857    0.0000 C   0  0  0  0  0  0  0  0  0
   -4.6007   -0.4982    0.0000 C   0  0  0  0  0  0  0  0  0
   -3.6567    1.3093    0.0000 C   0  0  0  0  0  0  0  0  0
  1  2  1  0  0  0  0
  1  3  1  0  0  0  0
  3  4  4  0  0  0  0
  3 22  4  0  0  0  0
  4  5  4  0  0  0  0
  5  6  1  0  0  0  0
  5 20  4  0  0  0  0
  6  7  1  0  0  0  0
  7  8  1  0  0  0  0
  8  9  1  0  0  0  0
  8 23  1  0  0  0  0
  9 10  1  0  0  0  0
 10 11  1  0  0  0  0
 11 12  4  0  0  0  0
 11 18  4  0  0  0  0
 12 13  4  0  0  0  0
 13 14  1  0  0  0  0
 13 16  4  0  0  0  0
 14 15  1  0  0  0  0
 16 17  4  0  0  0  0
 17 18  4  0  0  0  0
 18 19  1  0  0  0  0
 19 20  1  0  0  0  0
 20 21  4  0  0  0  0
 21 22  4  0  0  0  0
M  END
>  <Name_Molregno>
341319

>  <DOPAMINE D1>
7.8

>  <DOPAMINE D2>
8.7

>  <DOPAMINE D3>
6.99

>  <DOPAMINE D5>
7.92

$$$$
341495
  Marvin  02231216192D 0   1.00000     0.00000     0

 21 23  0  0  0  0  0  0  0  0999 V2000
   -5.4665   -0.7767    0.0000 O   0  0  0  0  0  0  0  0  0
   -5.4665   -1.6017    0.0000 C   0  0  0  0  0  0  0  0  0
   -4.7520   -0.3642    0.0000 C   0  0  0  0  0  0  0  0  0
   -4.7520    0.4608    0.0000 C   0  0  0  0  0  0  0  0  0
   -4.0375    0.8733    0.0000 C   0  0  0  0  0  0  0  0  0
   -4.0375    1.6983    0.0000 C   0  0  0  0  0  0  0  0  0
   -3.3231    2.1108    0.0000 C   0  0  0  0  0  0  0  0  0
   -2.6086    1.6983    0.0000 N   0  0  0  0  0  0  0  0  0
   -1.8941    2.1108    0.0000 C   0  0  0  0  0  0  0  0  0
   -1.1796    1.6983    0.0000 C   0  0  0  0  0  0  0  0  0
   -1.1796    0.8733    0.0000 C   0  0  0  0  0  0  0  0  0
   -1.8941    0.4608    0.0000 C   0  0  0  0  0  0  0  0  0
   -2.6086    0.8733    0.0000 C   0  0  0  0  0  0  0  0  0
   -3.3231    0.4608    0.0000 C   0  0  0  0  0  0  0  0  0
   -3.3231   -0.3642    0.0000 C   0  0  0  0  0  0  0  0  0
   -4.0375   -0.7767    0.0000 C   0  0  0  0  0  0  0  0  0
   -1.8941   -0.3642    0.0000 C   0  0  0  0  0  0  0  0  0
   -1.1796   -0.7767    0.0000 C   0  0  0  0  0  0  0  0  0
   -0.4652   -0.3642    0.0000 C   0  0  0  0  0  0  0  0  0
   -0.4652    0.4608    0.0000 C   0  0  0  0  0  0  0  0  0
   -3.0935    1.0309    0.0000 C   0  0  0  0  0  0  0  0  0
  1  2  1  0  0  0  0
  1  3  1  0  0  0  0
  3  4  4  0  0  0  0
  3 16  4  0  0  0  0
  4  5  4  0  0  0  0
  5  6  1  0  0  0  0
  5 14  4  0  0  0  0
  6  7  1  0  0  0  0
  7  8  1  0  0  0  0
  8  9  1  0  0  0  0
  8 21  1  0  0  0  0
  9 10  1  0  0  0  0
 10 11  1  0  0  0  0
 11 12  4  0  0  0  0
 11 20  4  0  0  0  0
 12 13  1  0  0  0  0
 12 17  4  0  0  0  0
 13 14  1  0  0  0  0
 14 15  4  0  0  0  0
 15 16  4  0  0  0  0
 17 18  4  0  0  0  0
 18 19  4  0  0  0  0
 19 20  4  0  0  0  0
M  END
>  <Name_Molregno>
341495

>  <DOPAMINE D1>
7.58

>  <DOPAMINE D2>
8.16

>  <DOPAMINE D3>
7.12

>  <DOPAMINE D4>
7.36

>  <DOPAMINE D5>
7.53

$$$$
341497
  Marvin  02231216192D 0   1.00000     0.00000     0

 21 23  0  0  0  0  0  0  0  0999 V2000
   -4.7162   -0.5690    0.0000 Cl  0  0  0  0  0  0  0  0  0
   -4.0017   -0.9815    0.0000 C   0  0  0  0  0  0  0  0  0
   -3.2872   -0.5690    0.0000 C   0  0  0  0  0  0  0  0  0
   -3.2872    0.2560    0.0000 C   0  0  0  0  0  0  0  0  0
   -2.5727    0.6685    0.0000 C   0  0  0  0  0  0  0  0  0
   -1.8583    0.2560    0.0000 N   0  0  0  0  0  0  0  0  0
   -1.1438    0.6685    0.0000 C   0  0  0  0  0  0  0  0  0
   -0.4293    0.2560    0.0000 C   0  0  0  0  0  0  0  0  0
   -0.4293   -0.5690    0.0000 C   0  0  0  0  0  0  0  0  0
   -1.1438   -0.9815    0.0000 C   0  0  0  0  0  0  0  0  0
   -1.8583   -0.5690    0.0000 C   0  0  0  0  0  0  0  0  0
   -2.5727   -0.9815    0.0000 C   0  0  0  0  0  0  0  0  0
   -2.5727   -1.8065    0.0000 C   0  0  0  0  0  0  0  0  0
   -3.2872   -2.2190    0.0000 C   0  0  0  0  0  0  0  0  0
   -4.0017   -1.8065    0.0000 C   0  0  0  0  0  0  0  0  0
   -4.7162   -2.2190    0.0000 O   0  0  0  0  0  0  0  0  0
   -1.1438   -1.8065    0.0000 C   0  0  0  0  0  0  0  0  0
   -0.4293   -2.2190    0.0000 C   0  0  0  0  0  0  0  0  0
    0.2851   -1.8065    0.0000 C   0  0  0  0  0  0  0  0  0
    0.2851   -0.9815    0.0000 C   0  0  0  0  0  0  0  0  0
   -2.3432   -0.4114    0.0000 C   0  0  0  0  0  0  0  0  0
  1  2  1  0  0  0  0
  2  3  4  0  0  0  0
  2 15  4  0  0  0  0
  3  4  1  0  0  0  0
  3 12  4  0  0  0  0
  4  5  1  0  0  0  0
  5  6  1  0  0  0  0
  6  7  1  0  0  0  0
  6 21  1  0  0  0  0
  7  8  1  0  0  0  0
  8  9  1  0  0  0  0
  9 10  4  0  0  0  0
  9 20  4  0  0  0  0
 10 11  1  0  0  0  0
 10 17  4  0  0  0  0
 11 12  1  0  0  0  0
 12 13  4  0  0  0  0
 13 14  4  0  0  0  0
 14 15  4  0  0  0  0
 15 16  1  0  0  0  0
 17 18  4  0  0  0  0
 18 19  4  0  0  0  0
 19 20  4  0  0  0  0
M  END
>  <Name_Molregno>
341497

>  <DOPAMINE D1>
9.17

>  <DOPAMINE D2>
8.35

>  <DOPAMINE D3>
7.61

>  <DOPAMINE D4>
7.73

>  <DOPAMINE D5>
10.26

$$$$
341794
  Marvin  02231216192D 0   1.00000     0.00000     0

 21 23  0  0  0  0  0  0  0  0999 V2000
    0.3310   -1.6397    0.0000 O   0  0  0  0  0  0  0  0  0
    1.0454   -1.2272    0.0000 C   0  0  0  0  0  0  0  0  0
    1.0454   -0.4022    0.0000 C   0  0  0  0  0  0  0  0  0
    1.7599    0.0103    0.0000 C   0  0  0  0  0  0  0  0  0
    1.7599    0.8353    0.0000 C   0  0  0  0  0  0  0  0  0
    2.4744    1.2478    0.0000 C   0  0  0  0  0  0  0  0  0
    3.1889    0.8353    0.0000 N   0  0  0  0  0  0  0  0  0
    3.9033    1.2478    0.0000 C   0  0  0  0  0  0  0  0  0
    4.6178    0.8353    0.0000 C   0  0  0  0  0  0  0  0  0
    4.6178    0.0103    0.0000 C   0  0  0  0  0  0  0  0  0
    3.9033   -0.4022    0.0000 C   0  0  0  0  0  0  0  0  0
    3.1889    0.0103    0.0000 C   0  0  0  0  0  0  0  0  0
    2.4744   -0.4022    0.0000 C   0  0  0  0  0  0  0  0  0
    2.4744   -1.2272    0.0000 C   0  0  0  0  0  0  0  0  0
    1.7599   -1.6397    0.0000 C   0  0  0  0  0  0  0  0  0
    1.7599   -2.4647    0.0000 N   0  0  0  0  0  0  0  0  0
    3.9033   -1.2272    0.0000 C   0  0  0  0  0  0  0  0  0
    4.6178   -1.6397    0.0000 C   0  0  0  0  0  0  0  0  0
    5.3323   -1.2272    0.0000 C   0  0  0  0  0  0  0  0  0
    5.3323   -0.4022    0.0000 C   0  0  0  0  0  0  0  0  0
    2.7039    0.1678    0.0000 C   0  0  0  0  0  0  0  0  0
  1  2  1  0  0  0  0
  2  3  4  0  0  0  0
  2 15  4  0  0  0  0
  3  4  4  0  0  0  0
  4  5  1  0  0  0  0
  4 13  4  0  0  0  0
  5  6  1  0  0  0  0
  6  7  1  0  0  0  0
  7  8  1  0  0  0  0
  7 21  1  0  0  0  0
  8  9  1  0  0  0  0
  9 10  1  0  0  0  0
 10 11  4  0  0  0  0
 10 20  4  0  0  0  0
 11 12  1  0  0  0  0
 11 17  4  0  0  0  0
 12 13  1  0  0  0  0
 13 14  4  0  0  0  0
 14 15  4  0  0  0  0
 15 16  1  0  0  0  0
 17 18  4  0  0  0  0
 18 19  4  0  0  0  0
 19 20  4  0  0  0  0
M  END
>  <Name_Molregno>
341794

>  <DOPAMINE D1>
7.85

>  <DOPAMINE D2>
7.5

>  <DOPAMINE D5>
7.02

$$$$
341800
  Marvin  02231216192D 0   1.00000     0.00000     0

 20 22  0  0  0  0  0  0  0  0999 V2000
    0.9629    0.2847    0.0000 O   0  0  0  0  0  0  0  0  0
    0.9629   -0.5403    0.0000 C   0  0  0  0  0  0  0  0  0
    1.6773   -0.9528    0.0000 C   0  0  0  0  0  0  0  0  0
    1.6773   -1.7778    0.0000 C   0  0  0  0  0  0  0  0  0
    2.3918   -2.1903    0.0000 C   0  0  0  0  0  0  0  0  0
    3.1063   -1.7778    0.0000 C   0  0  0  0  0  0  0  0  0
    3.8208   -2.1903    0.0000 C   0  0  0  0  0  0  0  0  0
    3.8208   -3.0153    0.0000 C   0  0  0  0  0  0  0  0  0
    3.1063   -3.4278    0.0000 C   0  0  0  0  0  0  0  0  0
    2.3918   -3.0153    0.0000 N   0  0  0  0  0  0  0  0  0
    1.6773   -3.4278    0.0000 C   0  0  0  0  0  0  0  0  0
    0.9629   -3.0153    0.0000 C   0  0  0  0  0  0  0  0  0
    0.9629   -2.1903    0.0000 C   0  0  0  0  0  0  0  0  0
    0.2484   -1.7778    0.0000 C   0  0  0  0  0  0  0  0  0
    0.2484   -0.9528    0.0000 C   0  0  0  0  0  0  0  0  0
    1.9069   -2.3479    0.0000 C   0  0  0  0  0  0  0  0  0
    4.5352   -1.7778    0.0000 C   0  0  0  0  0  0  0  0  0
    4.5352   -0.9528    0.0000 C   0  0  0  0  0  0  0  0  0
    3.8208   -0.5403    0.0000 C   0  0  0  0  0  0  0  0  0
    3.1063   -0.9528    0.0000 C   0  0  0  0  0  0  0  0  0
  1  2  1  0  0  0  0
  2  3  4  0  0  0  0
  2 15  4  0  0  0  0
  3  4  4  0  0  0  0
  4  5  1  0  0  0  0
  4 13  4  0  0  0  0
  5  6  1  0  0  0  0
  6  7  4  0  0  0  0
  6 20  4  0  0  0  0
  7  8  1  0  0  0  0
  7 17  4  0  0  0  0
  8  9  1  0  0  0  0
  9 10  1  0  0  0  0
 10 11  1  0  0  0  0
 10 16  1  0  0  0  0
 11 12  1  0  0  0  0
 12 13  1  0  0  0  0
 13 14  4  0  0  0  0
 14 15  4  0  0  0  0
 17 18  4  0  0  0  0
 18 19  4  0  0  0  0
 19 20  4  0  0  0  0
M  END
>  <Name_Molregno>
341800

>  <DOPAMINE D1>
8.32

>  <DOPAMINE D2>
7.57

>  <DOPAMINE D3>
6.53

>  <DOPAMINE D5>
7.4

$$$$
341801
  Marvin  02231216192D 0   1.00000     0.00000     0

 21 23  0  0  0  0  0  0  0  0999 V2000
   -3.3819    0.2489    0.0000 O   0  0  0  0  0  0  0  0  0
   -4.0964    0.6614    0.0000 C   0  0  0  0  0  0  0  0  0
   -3.3819   -0.5761    0.0000 C   0  0  0  0  0  0  0  0  0
   -2.6674   -0.9886    0.0000 C   0  0  0  0  0  0  0  0  0
   -2.6674   -1.8136    0.0000 C   0  0  0  0  0  0  0  0  0
   -1.9530   -2.2261    0.0000 C   0  0  0  0  0  0  0  0  0
   -1.2385   -1.8136    0.0000 C   0  0  0  0  0  0  0  0  0
   -0.5240   -2.2261    0.0000 C   0  0  0  0  0  0  0  0  0
   -0.5240   -3.0511    0.0000 C   0  0  0  0  0  0  0  0  0
   -1.2385   -3.4636    0.0000 C   0  0  0  0  0  0  0  0  0
   -1.9530   -3.0511    0.0000 N   0  0  0  0  0  0  0  0  0
   -2.6674   -3.4636    0.0000 C   0  0  0  0  0  0  0  0  0
   -3.3819   -3.0511    0.0000 C   0  0  0  0  0  0  0  0  0
   -3.3819   -2.2261    0.0000 C   0  0  0  0  0  0  0  0  0
   -4.0964   -1.8136    0.0000 C   0  0  0  0  0  0  0  0  0
   -4.0964   -0.9886    0.0000 C   0  0  0  0  0  0  0  0  0
   -2.4379   -2.3837    0.0000 C   0  0  0  0  0  0  0  0  0
    0.1904   -1.8136    0.0000 C   0  0  0  0  0  0  0  0  0
    0.1904   -0.9886    0.0000 C   0  0  0  0  0  0  0  0  0
   -0.5240   -0.5761    0.0000 C   0  0  0  0  0  0  0  0  0
   -1.2385   -0.9886    0.0000 C   0  0  0  0  0  0  0  0  0
  1  2  1  0  0  0  0
  1  3  1  0  0  0  0
  3  4  4  0  0  0  0
  3 16  4  0  0  0  0
  4  5  4  0  0  0  0
  5  6  1  0  0  0  0
  5 14  4  0  0  0  0
  6  7  1  0  0  0  0
  7  8  4  0  0  0  0
  7 21  4  0  0  0  0
  8  9  1  0  0  0  0
  8 18  4  0  0  0  0
  9 10  1  0  0  0  0
 10 11  1  0  0  0  0
 11 12  1  0  0  0  0
 11 17  1  0  0  0  0
 12 13  1  0  0  0  0
 13 14  1  0  0  0  0
 14 15  4  0  0  0  0
 15 16  4  0  0  0  0
 18 19  4  0  0  0  0
 19 20  4  0  0  0  0
 20 21  4  0  0  0  0
M  END
>  <Name_Molregno>
341801

>  <DOPAMINE D1>
6.67

>  <DOPAMINE D2>
7.44

>  <DOPAMINE D3>
6.82

>  <DOPAMINE D5>
5.98

$$$$
341802
  Marvin  02231216192D 0   1.00000     0.00000     0

 23 25  0  0  0  0  0  0  0  0999 V2000
    1.4741   -0.1428    0.0000 Cl  0  0  0  0  0  0  0  0  0
    0.7597   -0.5553    0.0000 C   0  0  0  0  0  0  0  0  0
    0.7597   -1.3803    0.0000 C   0  0  0  0  0  0  0  0  0
    1.4741   -1.7928    0.0000 C   0  0  0  0  0  0  0  0  0
    2.1886   -1.3803    0.0000 C   0  0  0  0  0  0  0  0  0
    2.9031   -1.7928    0.0000 C   0  0  0  0  0  0  0  0  0
    2.9031   -2.6178    0.0000 C   0  0  0  0  0  0  0  0  0
    2.1886   -3.0303    0.0000 C   0  0  0  0  0  0  0  0  0
    1.4741   -2.6178    0.0000 N   0  0  0  0  0  0  0  0  0
    0.7597   -3.0303    0.0000 C   0  0  0  0  0  0  0  0  0
    0.0452   -2.6178    0.0000 C   0  0  0  0  0  0  0  0  0
    0.0452   -1.7928    0.0000 C   0  0  0  0  0  0  0  0  0
   -0.6693   -1.3803    0.0000 C   0  0  0  0  0  0  0  0  0
   -0.6693   -0.5553    0.0000 C   0  0  0  0  0  0  0  0  0
   -1.3838   -0.1428    0.0000 Cl  0  0  0  0  0  0  0  0  0
    0.0452   -0.1428    0.0000 C   0  0  0  0  0  0  0  0  0
    0.0452    0.6822    0.0000 O   0  0  0  0  0  0  0  0  0
   -0.6693    1.0947    0.0000 C   0  0  0  0  0  0  0  0  0
    0.9892   -1.9504    0.0000 C   0  0  0  0  0  0  0  0  0
    3.6175   -1.3803    0.0000 C   0  0  0  0  0  0  0  0  0
    3.6175   -0.5553    0.0000 C   0  0  0  0  0  0  0  0  0
    2.9031   -0.1428    0.0000 C   0  0  0  0  0  0  0  0  0
    2.1886   -0.5553    0.0000 C   0  0  0  0  0  0  0  0  0
  1  2  1  0  0  0  0
  2  3  4  0  0  0  0
  2 16  4  0  0  0  0
  3  4  1  0  0  0  0
  3 12  4  0  0  0  0
  4  5  1  0  0  0  0
  5  6  4  0  0  0  0
  5 23  4  0  0  0  0
  6  7  1  0  0  0  0
  6 20  4  0  0  0  0
  7  8  1  0  0  0  0
  8  9  1  0  0  0  0
  9 10  1  0  0  0  0
  9 19  1  0  0  0  0
 10 11  1  0  0  0  0
 11 12  1  0  0  0  0
 12 13  4  0  0  0  0
 13 14  4  0  0  0  0
 14 15  1  0  0  0  0
 14 16  4  0  0  0  0
 16 17  1  0  0  0  0
 17 18  1  0  0  0  0
 20 21  4  0  0  0  0
 21 22  4  0  0  0  0
 22 23  4  0  0  0  0
M  END
>  <Name_Molregno>
341802

>  <DOPAMINE D1>
7.53

>  <DOPAMINE D2>
7.64

>  <DOPAMINE D3>
6.38

>  <DOPAMINE D5>
7.23

$$$$
341811
  Marvin  02231216192D 0   1.00000     0.00000     0

 21 23  0  0  0  0  0  0  0  0999 V2000
    1.5417    0.0772    0.0000 Cl  0  0  0  0  0  0  0  0  0
    0.8272   -0.3353    0.0000 C   0  0  0  0  0  0  0  0  0
    0.8272   -1.1603    0.0000 C   0  0  0  0  0  0  0  0  0
    1.5417   -1.5728    0.0000 C   0  0  0  0  0  0  0  0  0
    2.2562   -1.1603    0.0000 C   0  0  0  0  0  0  0  0  0
    2.9706   -1.5728    0.0000 C   0  0  0  0  0  0  0  0  0
    2.9706   -2.3978    0.0000 C   0  0  0  0  0  0  0  0  0
    2.2562   -2.8103    0.0000 C   0  0  0  0  0  0  0  0  0
    1.5417   -2.3978    0.0000 N   0  0  0  0  0  0  0  0  0
    0.8272   -2.8103    0.0000 C   0  0  0  0  0  0  0  0  0
    0.1128   -2.3978    0.0000 C   0  0  0  0  0  0  0  0  0
    0.1128   -1.5728    0.0000 C   0  0  0  0  0  0  0  0  0
   -0.6017   -1.1603    0.0000 C   0  0  0  0  0  0  0  0  0
   -0.6017   -0.3353    0.0000 C   0  0  0  0  0  0  0  0  0
    0.1128    0.0772    0.0000 C   0  0  0  0  0  0  0  0  0
    0.1128    0.9022    0.0000 O   0  0  0  0  0  0  0  0  0
    1.0568   -1.7304    0.0000 C   0  0  0  0  0  0  0  0  0
    3.6851   -1.1603    0.0000 C   0  0  0  0  0  0  0  0  0
    3.6851   -0.3353    0.0000 C   0  0  0  0  0  0  0  0  0
    2.9706    0.0772    0.0000 C   0  0  0  0  0  0  0  0  0
    2.2562   -0.3353    0.0000 C   0  0  0  0  0  0  0  0  0
  1  2  1  0  0  0  0
  2  3  4  0  0  0  0
  2 15  4  0  0  0  0
  3  4  1  0  0  0  0
  3 12  4  0  0  0  0
  4  5  1  0  0  0  0
  5  6  4  0  0  0  0
  5 21  4  0  0  0  0
  6  7  1  0  0  0  0
  6 18  4  0  0  0  0
  7  8  1  0  0  0  0
  8  9  1  0  0  0  0
  9 10  1  0  0  0  0
  9 17  1  0  0  0  0
 10 11  1  0  0  0  0
 11 12  1  0  0  0  0
 12 13  4  0  0  0  0
 13 14  4  0  0  0  0
 14 15  4  0  0  0  0
 15 16  1  0  0  0  0
 18 19  4  0  0  0  0
 19 20  4  0  0  0  0
 20 21  4  0  0  0  0
M  END
>  <Name_Molregno>
341811

>  <DOPAMINE D1>
8.76

>  <DOPAMINE D2>
9.45

>  <DOPAMINE D3>
8.73

>  <DOPAMINE D5>
8.91

$$$$
341837
  Marvin  02231216192D 0   1.00000     0.00000     0

 22 24  0  0  0  0  0  0  0  0999 V2000
   -4.5699   -0.5483    0.0000 Cl  0  0  0  0  0  0  0  0  0
   -3.8554   -0.9608    0.0000 C   0  0  0  0  0  0  0  0  0
   -3.1409   -0.5483    0.0000 C   0  0  0  0  0  0  0  0  0
   -3.1409    0.2767    0.0000 C   0  0  0  0  0  0  0  0  0
   -2.4265    0.6892    0.0000 C   0  0  0  0  0  0  0  0  0
   -1.7120    0.2767    0.0000 N   0  0  0  0  0  0  0  0  0
   -0.9975    0.6892    0.0000 C   0  0  0  0  0  0  0  0  0
   -0.2831    0.2767    0.0000 C   0  0  0  0  0  0  0  0  0
   -0.2831   -0.5483    0.0000 C   0  0  0  0  0  0  0  0  0
   -0.9975   -0.9608    0.0000 C   0  0  0  0  0  0  0  0  0
   -1.7120   -0.5483    0.0000 C   0  0  0  0  0  0  0  0  0
   -2.4265   -0.9608    0.0000 C   0  0  0  0  0  0  0  0  0
   -2.4265   -1.7858    0.0000 C   0  0  0  0  0  0  0  0  0
   -3.1409   -2.1983    0.0000 C   0  0  0  0  0  0  0  0  0
   -3.1409   -3.0233    0.0000 Cl  0  0  0  0  0  0  0  0  0
   -3.8554   -1.7858    0.0000 C   0  0  0  0  0  0  0  0  0
   -4.5699   -2.1983    0.0000 O   0  0  0  0  0  0  0  0  0
   -0.9975   -1.7858    0.0000 C   0  0  0  0  0  0  0  0  0
   -0.2831   -2.1983    0.0000 C   0  0  0  0  0  0  0  0  0
    0.4314   -1.7858    0.0000 C   0  0  0  0  0  0  0  0  0
    0.4314   -0.9608    0.0000 C   0  0  0  0  0  0  0  0  0
   -2.1969   -0.3908    0.0000 C   0  0  0  0  0  0  0  0  0
  1  2  1  0  0  0  0
  2  3  4  0  0  0  0
  2 16  4  0  0  0  0
  3  4  1  0  0  0  0
  3 12  4  0  0  0  0
  4  5  1  0  0  0  0
  5  6  1  0  0  0  0
  6  7  1  0  0  0  0
  6 22  1  0  0  0  0
  7  8  1  0  0  0  0
  8  9  1  0  0  0  0
  9 10  4  0  0  0  0
  9 21  4  0  0  0  0
 10 11  1  0  0  0  0
 10 18  4  0  0  0  0
 11 12  1  0  0  0  0
 12 13  4  0  0  0  0
 13 14  4  0  0  0  0
 14 15  1  0  0  0  0
 14 16  4  0  0  0  0
 16 17  1  0  0  0  0
 18 19  4  0  0  0  0
 19 20  4  0  0  0  0
 20 21  4  0  0  0  0
M  END
>  <Name_Molregno>
341837

>  <DOPAMINE D1>
8.45

>  <DOPAMINE D2>
7.24

>  <DOPAMINE D5>
8.92

$$$$
344371
  Marvin  02231216192D 0   1.00000     0.00000     0

 27 29  0  0  0  0  0  0  0  0999 V2000
   -8.3424    3.5017    0.0000 O   0  0  0  0  0  0  0  0  0
   -9.0569    3.9142    0.0000 C   0  0  0  0  0  0  0  0  0
   -8.3424    2.6767    0.0000 C   0  0  0  0  0  0  0  0  0
   -7.6279    2.2642    0.0000 C   0  0  0  0  0  0  0  0  0
   -7.6279    1.4392    0.0000 C   0  0  0  0  0  0  0  0  0
   -6.9134    1.0267    0.0000 N   0  0  0  0  0  0  0  0  0
   -6.1990    1.4392    0.0000 C   0  0  0  0  0  0  0  0  0
   -5.4845    1.0267    0.0000 C   0  0  0  0  0  0  0  0  0
   -5.4845    0.2017    0.0000 N   0  0  0  0  0  0  0  0  0
   -6.1990   -0.2108    0.0000 C   0  0  0  0  0  0  0  0  0
   -6.9134    0.2017    0.0000 C   0  0  0  0  0  0  0  0  0
   -4.7700   -0.2108    0.0000 C   0  0  0  0  0  0  0  0  0
   -4.0556    0.2017    0.0000 C   0  0  0  0  0  0  0  0  0
   -3.3411   -0.2108    0.0000 C   0  0  0  0  0  0  0  0  0
   -2.6266    0.2017    0.0000 C   0  0  0  0  0  0  0  0  0
   -1.9121   -0.2108    0.0000 N   0  0  0  0  0  0  0  0  0
   -1.1977    0.2017    0.0000 N   0  0  0  0  0  0  0  0  0
   -0.4832   -0.2108    0.0000 C   0  0  0  0  0  0  0  0  0
   -0.4832   -1.0358    0.0000 C   0  0  0  0  0  0  0  0  0
    0.2313   -1.4483    0.0000 O   0  0  0  0  0  0  0  0  0
   -1.1977   -1.4483    0.0000 N   0  0  0  0  0  0  0  0  0
   -1.1977   -2.2733    0.0000 C   0  0  0  0  0  0  0  0  0
   -1.9121   -1.0358    0.0000 C   0  0  0  0  0  0  0  0  0
   -2.6266   -1.4483    0.0000 O   0  0  0  0  0  0  0  0  0
   -8.3424    1.0267    0.0000 C   0  0  0  0  0  0  0  0  0
   -9.0569    1.4392    0.0000 C   0  0  0  0  0  0  0  0  0
   -9.0569    2.2642    0.0000 C   0  0  0  0  0  0  0  0  0
  1  2  1  0  0  0  0
  1  3  1  0  0  0  0
  3  4  4  0  0  0  0
  3 27  4  0  0  0  0
  4  5  4  0  0  0  0
  5  6  1  0  0  0  0
  5 25  4  0  0  0  0
  6  7  1  0  0  0  0
  6 11  1  0  0  0  0
  7  8  1  0  0  0  0
  8  9  1  0  0  0  0
  9 10  1  0  0  0  0
  9 12  1  0  0  0  0
 10 11  1  0  0  0  0
 12 13  1  0  0  0  0
 13 14  1  0  0  0  0
 14 15  1  0  0  0  0
 15 16  1  0  0  0  0
 16 17  1  0  0  0  0
 16 23  1  0  0  0  0
 17 18  2  0  0  0  0
 18 19  1  0  0  0  0
 19 20  2  0  0  0  0
 19 21  1  0  0  0  0
 21 22  1  0  0  0  0
 21 23  1  0  0  0  0
 23 24  2  0  0  0  0
 25 26  4  0  0  0  0
 26 27  4  0  0  0  0
M  END
>  <Name_Molregno>
344371

>  <5-HT1A>
8.96

>  <5-HT1B>
6.64

>  <5-HT1E>
5

>  <5-HT2A>
5.68

>  <5-HT3>
5

>  <5-HT5>
5

>  <5-HT6>
5

>  <5-HT7>
6.48

>  <Alpha-1A>
6.38

>  <Alpha-1B>
6.42

>  <Alpha-2A>
6.6

>  <Alpha-2C>
6.96

>  <DOPAMINE D2>
5.59

>  <DOPAMINE D3>
5

>  <DOPAMINE D4>
5

>  <DOPAMINE D5>
5

>  <Dopamine transporter>
5

>  <HISTAMINE H1>
6.08

>  <HISTAMINE H2>
5.67

>  <HISTAMINE H3>
5

>  <HISTAMINE H4>
5

>  <Norepinephrine transporter>
5

>  <Serotonin transporter>
5

$$$$
353989
  Marvin  02231216192D 0   1.00000     0.00000     0

 35 39  0  0  0  0  0  0  0  0999 V2000
    4.8139   -2.2981    0.0000 F   0  0  0  0  0  0  0  0  0
    5.0688   -1.5134    0.0000 C   0  0  0  0  0  0  0  0  0
    5.8535   -1.7684    0.0000 F   0  0  0  0  0  0  0  0  0
    4.2842   -1.2585    0.0000 F   0  0  0  0  0  0  0  0  0
    5.3238   -0.7288    0.0000 C   0  0  0  0  0  0  0  0  0
    4.7717   -0.1157    0.0000 C   0  0  0  0  0  0  0  0  0
    5.0267    0.6689    0.0000 C   0  0  0  0  0  0  0  0  0
    4.4747    1.2820    0.0000 N   0  0  0  0  0  0  0  0  0
    4.7296    2.0666    0.0000 C   0  0  0  0  0  0  0  0  0
    5.5142    2.3215    0.0000 C   0  0  0  0  0  0  0  0  0
    5.5142    3.1465    0.0000 C   0  0  0  0  0  0  0  0  0
    4.7296    3.4015    0.0000 N   0  0  0  0  0  0  0  0  0
    4.2447    2.7340    0.0000 C   0  0  0  0  0  0  0  0  0
    3.4197    2.7340    0.0000 O   0  0  0  0  0  0  0  0  0
    4.4747    4.1861    0.0000 C   0  0  0  0  0  0  0  0  0
    3.6677    4.3576    0.0000 C   0  0  0  0  0  0  0  0  0
    3.4127    5.1423    0.0000 C   0  0  0  0  0  0  0  0  0
    2.6058    5.3138    0.0000 O   0  0  0  0  0  0  0  0  0
    2.3508    6.0984    0.0000 C   0  0  0  0  0  0  0  0  0
    1.5439    6.2699    0.0000 C   0  0  0  0  0  0  0  0  0
    1.2889    7.0546    0.0000 N   0  0  0  0  0  0  0  0  0
    0.5043    7.3095    0.0000 C   0  0  0  0  0  0  0  0  0
    0.5043    8.1345    0.0000 C   0  0  0  0  0  0  0  0  0
    1.2889    8.3894    0.0000 C   0  0  0  0  0  0  0  0  0
    1.7738    7.7220    0.0000 C   0  0  0  0  0  0  0  0  0
    3.9648    5.7553    0.0000 C   0  0  0  0  0  0  0  0  0
    4.7717    5.5838    0.0000 C   0  0  0  0  0  0  0  0  0
    5.0267    4.7992    0.0000 C   0  0  0  0  0  0  0  0  0
    6.2287    3.5590    0.0000 C   0  0  0  0  0  0  0  0  0
    6.9432    3.1465    0.0000 C   0  0  0  0  0  0  0  0  0
    6.9432    2.3215    0.0000 C   0  0  0  0  0  0  0  0  0
    6.2287    1.9090    0.0000 C   0  0  0  0  0  0  0  0  0
    5.8337    0.8404    0.0000 C   0  0  0  0  0  0  0  0  0
    6.3857    0.2273    0.0000 C   0  0  0  0  0  0  0  0  0
    6.1308   -0.5573    0.0000 C   0  0  0  0  0  0  0  0  0
  1  2  1  0  0  0  0
  2  3  1  0  0  0  0
  2  4  1  0  0  0  0
  2  5  1  0  0  0  0
  5  6  4  0  0  0  0
  5 35  4  0  0  0  0
  6  7  4  0  0  0  0
  7  8  1  0  0  0  0
  7 33  4  0  0  0  0
  8  9  2  0  0  0  0
  9 10  1  0  0  0  0
  9 13  1  0  0  0  0
 10 11  4  0  0  0  0
 10 32  4  0  0  0  0
 11 12  1  0  0  0  0
 11 29  4  0  0  0  0
 12 13  1  0  0  0  0
 12 15  1  0  0  0  0
 13 14  2  0  0  0  0
 15 16  4  0  0  0  0
 15 28  4  0  0  0  0
 16 17  4  0  0  0  0
 17 18  1  0  0  0  0
 17 26  4  0  0  0  0
 18 19  1  0  0  0  0
 19 20  1  0  0  0  0
 20 21  1  0  0  0  0
 21 22  1  0  0  0  0
 21 25  1  0  0  0  0
 22 23  1  0  0  0  0
 23 24  1  0  0  0  0
 24 25  1  0  0  0  0
 26 27  4  0  0  0  0
 27 28  4  0  0  0  0
 29 30  4  0  0  0  0
 30 31  4  0  0  0  0
 31 32  4  0  0  0  0
 33 34  4  0  0  0  0
 34 35  4  0  0  0  0
M  END
>  <Name_Molregno>
353989

>  <Alpha-1A>
7.11

>  <DOPAMINE D5>
6.03

$$$$
354450
  Marvin  02231216192D 0   1.00000     0.00000     0

 36 39  0  0  0  0  0  0  0  0999 V2000
   -5.8001    7.0298    0.0000 F   0  0  0  0  0  0  0  0  0
   -5.8863    6.2093    0.0000 C   0  0  0  0  0  0  0  0  0
   -6.7068    6.2956    0.0000 F   0  0  0  0  0  0  0  0  0
   -5.0658    6.1231    0.0000 F   0  0  0  0  0  0  0  0  0
   -5.9725    5.3888    0.0000 C   0  0  0  0  0  0  0  0  0
   -5.3051    4.9039    0.0000 C   0  0  0  0  0  0  0  0  0
   -5.3913    4.0834    0.0000 C   0  0  0  0  0  0  0  0  0
   -4.7239    3.5985    0.0000 N   0  0  0  0  0  0  0  0  0
   -4.8101    2.7780    0.0000 C   0  0  0  0  0  0  0  0  0
   -5.5246    2.3655    0.0000 C   0  0  0  0  0  0  0  0  0
   -5.3531    1.5586    0.0000 C   0  0  0  0  0  0  0  0  0
   -4.5326    1.4723    0.0000 N   0  0  0  0  0  0  0  0  0
   -4.1970    2.2260    0.0000 C   0  0  0  0  0  0  0  0  0
   -3.3901    2.3975    0.0000 O   0  0  0  0  0  0  0  0  0
   -4.1201    0.7579    0.0000 C   0  0  0  0  0  0  0  0  0
   -3.2951    0.7579    0.0000 C   0  0  0  0  0  0  0  0  0
   -2.8826    0.0434    0.0000 C   0  0  0  0  0  0  0  0  0
   -2.0576    0.0434    0.0000 O   0  0  0  0  0  0  0  0  0
   -1.6451   -0.6711    0.0000 C   0  0  0  0  0  0  0  0  0
   -0.8201   -0.6711    0.0000 C   0  0  0  0  0  0  0  0  0
   -0.4076   -1.3855    0.0000 C   0  0  0  0  0  0  0  0  0
    0.4174   -1.3855    0.0000 N   0  0  0  0  0  0  0  0  0
    0.8299   -2.1000    0.0000 C   0  0  0  0  0  0  0  0  0
    1.6549   -2.1000    0.0000 C   0  0  0  0  0  0  0  0  0
    0.8299   -0.6711    0.0000 C   0  0  0  0  0  0  0  0  0
    1.6549   -0.6711    0.0000 C   0  0  0  0  0  0  0  0  0
   -3.2951   -0.6711    0.0000 C   0  0  0  0  0  0  0  0  0
   -4.1201   -0.6711    0.0000 C   0  0  0  0  0  0  0  0  0
   -4.5326    0.0434    0.0000 C   0  0  0  0  0  0  0  0  0
   -5.9662    1.0065    0.0000 C   0  0  0  0  0  0  0  0  0
   -6.7508    1.2615    0.0000 C   0  0  0  0  0  0  0  0  0
   -6.9223    2.0684    0.0000 C   0  0  0  0  0  0  0  0  0
   -6.3092    2.6205    0.0000 C   0  0  0  0  0  0  0  0  0
   -6.1450    3.7479    0.0000 C   0  0  0  0  0  0  0  0  0
   -6.8124    4.2328    0.0000 C   0  0  0  0  0  0  0  0  0
   -6.7262    5.0533    0.0000 C   0  0  0  0  0  0  0  0  0
  1  2  1  0  0  0  0
  2  3  1  0  0  0  0
  2  4  1  0  0  0  0
  2  5  1  0  0  0  0
  5  6  4  0  0  0  0
  5 36  4  0  0  0  0
  6  7  4  0  0  0  0
  7  8  1  0  0  0  0
  7 34  4  0  0  0  0
  8  9  2  0  0  0  0
  9 10  1  0  0  0  0
  9 13  1  0  0  0  0
 10 11  4  0  0  0  0
 10 33  4  0  0  0  0
 11 12  1  0  0  0  0
 11 30  4  0  0  0  0
 12 13  1  0  0  0  0
 12 15  1  0  0  0  0
 13 14  2  0  0  0  0
 15 16  4  0  0  0  0
 15 29  4  0  0  0  0
 16 17  4  0  0  0  0
 17 18  1  0  0  0  0
 17 27  4  0  0  0  0
 18 19  1  0  0  0  0
 19 20  1  0  0  0  0
 20 21  1  0  0  0  0
 21 22  1  0  0  0  0
 22 23  1  0  0  0  0
 22 25  1  0  0  0  0
 23 24  1  0  0  0  0
 25 26  1  0  0  0  0
 27 28  4  0  0  0  0
 28 29  4  0  0  0  0
 30 31  4  0  0  0  0
 31 32  4  0  0  0  0
 32 33  4  0  0  0  0
 34 35  4  0  0  0  0
 35 36  4  0  0  0  0
M  END
>  <Name_Molregno>
354450

>  <DOPAMINE D5>
6.39

$$$$
357194
  Marvin  02231216192D 0   1.00000     0.00000     0

 36 40  0  0  0  0  0  0  0  0999 V2000
   -4.3023   -2.5888    0.0000 Cl  0  0  0  0  0  0  0  0  0
   -3.5139   -2.8320    0.0000 C   0  0  0  0  0  0  0  0  0
   -2.9092   -2.2708    0.0000 C   0  0  0  0  0  0  0  0  0
   -2.1208   -2.5140    0.0000 C   0  0  0  0  0  0  0  0  0
   -1.6064   -1.8690    0.0000 N   0  0  0  0  0  0  0  0  0
   -0.7814   -1.8690    0.0000 C   0  0  0  0  0  0  0  0  0
   -0.4235   -1.1257    0.0000 N   0  0  0  0  0  0  0  0  0
   -0.8882   -0.4440    0.0000 C   0  0  0  0  0  0  0  0  0
   -0.5303    0.2993    0.0000 C   0  0  0  0  0  0  0  0  0
    0.2924    0.3609    0.0000 N   0  0  0  0  0  0  0  0  0
    0.7572   -0.3207    0.0000 C   0  0  0  0  0  0  0  0  0
    0.3992   -1.0640    0.0000 C   0  0  0  0  0  0  0  0  0
    0.6504    1.1042    0.0000 C   0  0  0  0  0  0  0  0  0
   -0.2670   -2.5140    0.0000 C   0  0  0  0  0  0  0  0  0
   -0.4506   -3.3183    0.0000 C   0  0  0  0  0  0  0  0  0
   -1.1939   -3.6763    0.0000 N   0  0  0  0  0  0  0  0  0
   -1.1939   -4.5013    0.0000 N   0  0  0  0  0  0  0  0  0
   -0.4795   -4.9138    0.0000 C   0  0  0  0  0  0  0  0  0
    0.2350   -4.5013    0.0000 O   0  0  0  0  0  0  0  0  0
   -0.4795   -5.7388    0.0000 C   0  0  0  0  0  0  0  0  0
    0.2350   -6.1513    0.0000 C   0  0  0  0  0  0  0  0  0
    0.9495   -5.7388    0.0000 O   0  0  0  0  0  0  0  0  0
    0.9495   -4.9138    0.0000 C   0  0  0  0  0  0  0  0  0
    0.2350   -6.9763    0.0000 C   0  0  0  0  0  0  0  0  0
   -0.4795   -7.3888    0.0000 C   0  0  0  0  0  0  0  0  0
   -1.1939   -6.9763    0.0000 C   0  0  0  0  0  0  0  0  0
   -1.1939   -6.1513    0.0000 C   0  0  0  0  0  0  0  0  0
   -1.9084   -5.7388    0.0000 O   0  0  0  0  0  0  0  0  0
   -2.6229   -6.1513    0.0000 C   0  0  0  0  0  0  0  0  0
   -1.9372   -3.3183    0.0000 C   0  0  0  0  0  0  0  0  0
   -2.5420   -3.8795    0.0000 C   0  0  0  0  0  0  0  0  0
   -3.3303   -3.6363    0.0000 C   0  0  0  0  0  0  0  0  0
    0.1541   -3.8795    0.0000 C   0  0  0  0  0  0  0  0  0
    0.9425   -3.6363    0.0000 C   0  0  0  0  0  0  0  0  0
    1.1261   -2.8320    0.0000 C   0  0  0  0  0  0  0  0  0
    0.5213   -2.2708    0.0000 C   0  0  0  0  0  0  0  0  0
  1  2  1  0  0  0  0
  2  3  4  0  0  0  0
  2 32  4  0  0  0  0
  3  4  4  0  0  0  0
  4  5  1  0  0  0  0
  4 30  4  0  0  0  0
  5  6  2  0  0  0  0
  6  7  1  0  0  0  0
  6 14  1  0  0  0  0
  7  8  1  0  0  0  0
  7 12  1  0  0  0  0
  8  9  1  0  0  0  0
  9 10  1  0  0  0  0
 10 11  1  0  0  0  0
 10 13  1  0  0  0  0
 11 12  1  0  0  0  0
 14 15  4  0  0  0  0
 14 36  4  0  0  0  0
 15 16  1  0  0  0  0
 15 33  4  0  0  0  0
 16 17  1  0  0  0  0
 16 30  1  0  0  0  0
 17 18  1  0  0  0  0
 18 19  2  0  0  0  0
 18 20  1  0  0  0  0
 20 21  4  0  0  0  0
 20 27  4  0  0  0  0
 21 22  1  0  0  0  0
 21 24  4  0  0  0  0
 22 23  1  0  0  0  0
 24 25  4  0  0  0  0
 25 26  4  0  0  0  0
 26 27  4  0  0  0  0
 27 28  1  0  0  0  0
 28 29  1  0  0  0  0
 30 31  4  0  0  0  0
 31 32  4  0  0  0  0
 33 34  4  0  0  0  0
 34 35  4  0  0  0  0
 35 36  4  0  0  0  0
M  END
>  <Name_Molregno>
357194

>  <5-HT2A>
7.86

>  <Alpha-2A>
6.77

>  <DOPAMINE D1>
8.8

>  <DOPAMINE D2>
6.47

>  <DOPAMINE D4>
5.74

>  <DOPAMINE D5>
7.42

$$$$
357219
  Marvin  02231216192D 0   1.00000     0.00000     0

 33 37  0  0  0  0  0  0  0  0999 V2000
    0.3873    0.8347    0.0000 Cl  0  0  0  0  0  0  0  0  0
    1.1017    1.2472    0.0000 C   0  0  0  0  0  0  0  0  0
    1.1017    2.0722    0.0000 C   0  0  0  0  0  0  0  0  0
    1.8162    2.4847    0.0000 C   0  0  0  0  0  0  0  0  0
    2.5307    2.0722    0.0000 C   0  0  0  0  0  0  0  0  0
    2.5307    1.2472    0.0000 C   0  0  0  0  0  0  0  0  0
    1.8162    0.8347    0.0000 C   0  0  0  0  0  0  0  0  0
    1.8162    0.0097    0.0000 C   0  0  0  0  0  0  0  0  0
    1.1017   -0.4028    0.0000 O   0  0  0  0  0  0  0  0  0
    2.5307   -0.4028    0.0000 N   0  0  0  0  0  0  0  0  0
    2.5307   -1.2278    0.0000 N   0  0  0  0  0  0  0  0  0
    3.2740   -1.5858    0.0000 C   0  0  0  0  0  0  0  0  0
    3.4576   -2.3901    0.0000 C   0  0  0  0  0  0  0  0  0
    4.2459   -2.6333    0.0000 C   0  0  0  0  0  0  0  0  0
    4.8507   -2.0721    0.0000 C   0  0  0  0  0  0  0  0  0
    4.6671   -1.2678    0.0000 C   0  0  0  0  0  0  0  0  0
    3.8787   -1.0246    0.0000 C   0  0  0  0  0  0  0  0  0
    2.9432   -3.0351    0.0000 C   0  0  0  0  0  0  0  0  0
    2.1182   -3.0351    0.0000 N   0  0  0  0  0  0  0  0  0
    1.6038   -2.3901    0.0000 C   0  0  0  0  0  0  0  0  0
    0.8154   -2.6333    0.0000 C   0  0  0  0  0  0  0  0  0
    0.2107   -2.0721    0.0000 C   0  0  0  0  0  0  0  0  0
   -0.5777   -2.3153    0.0000 Cl  0  0  0  0  0  0  0  0  0
    0.3943   -1.2678    0.0000 C   0  0  0  0  0  0  0  0  0
    1.1826   -1.0246    0.0000 C   0  0  0  0  0  0  0  0  0
    1.7874   -1.5858    0.0000 C   0  0  0  0  0  0  0  0  0
    3.3011   -3.7784    0.0000 N   0  0  0  0  0  0  0  0  0
    4.1238   -3.8401    0.0000 C   0  0  0  0  0  0  0  0  0
    4.4818   -4.5833    0.0000 C   0  0  0  0  0  0  0  0  0
    4.0170   -5.2650    0.0000 N   0  0  0  0  0  0  0  0  0
    3.1943   -5.2033    0.0000 C   0  0  0  0  0  0  0  0  0
    2.8364   -4.4600    0.0000 C   0  0  0  0  0  0  0  0  0
    4.3750   -6.0083    0.0000 C   0  0  0  0  0  0  0  0  0
  1  2  1  0  0  0  0
  2  3  4  0  0  0  0
  2  7  4  0  0  0  0
  3  4  4  0  0  0  0
  4  5  4  0  0  0  0
  5  6  4  0  0  0  0
  6  7  4  0  0  0  0
  7  8  1  0  0  0  0
  8  9  2  0  0  0  0
  8 10  1  0  0  0  0
 10 11  1  0  0  0  0
 11 12  1  0  0  0  0
 11 26  1  0  0  0  0
 12 13  4  0  0  0  0
 12 17  4  0  0  0  0
 13 14  4  0  0  0  0
 13 18  1  0  0  0  0
 14 15  4  0  0  0  0
 15 16  4  0  0  0  0
 16 17  4  0  0  0  0
 18 19  2  0  0  0  0
 18 27  1  0  0  0  0
 19 20  1  0  0  0  0
 20 21  4  0  0  0  0
 20 26  4  0  0  0  0
 21 22  4  0  0  0  0
 22 23  1  0  0  0  0
 22 24  4  0  0  0  0
 24 25  4  0  0  0  0
 25 26  4  0  0  0  0
 27 28  1  0  0  0  0
 27 32  1  0  0  0  0
 28 29  1  0  0  0  0
 29 30  1  0  0  0  0
 30 31  1  0  0  0  0
 30 33  1  0  0  0  0
 31 32  1  0  0  0  0
M  END
>  <Name_Molregno>
357219

>  <5-HT2A>
9

>  <Alpha-2A>
6.34

>  <DOPAMINE D1>
8.39

>  <DOPAMINE D2>
6.74

>  <DOPAMINE D4>
6.06

>  <DOPAMINE D5>
7.14

$$$$
357242
  Marvin  02231216192D 0   1.00000     0.00000     0

 36 41  0  0  0  0  0  0  0  0999 V2000
   -4.2025   -2.5109    0.0000 Cl  0  0  0  0  0  0  0  0  0
   -3.4142   -2.7541    0.0000 C   0  0  0  0  0  0  0  0  0
   -2.8094   -2.1929    0.0000 C   0  0  0  0  0  0  0  0  0
   -2.0211   -2.4361    0.0000 C   0  0  0  0  0  0  0  0  0
   -1.5067   -1.7911    0.0000 N   0  0  0  0  0  0  0  0  0
   -0.6817   -1.7911    0.0000 C   0  0  0  0  0  0  0  0  0
   -0.3237   -1.0478    0.0000 N   0  0  0  0  0  0  0  0  0
   -0.7885   -0.3661    0.0000 C   0  0  0  0  0  0  0  0  0
   -0.4305    0.3772    0.0000 C   0  0  0  0  0  0  0  0  0
    0.3922    0.4388    0.0000 N   0  0  0  0  0  0  0  0  0
    0.8569   -0.2428    0.0000 C   0  0  0  0  0  0  0  0  0
    0.4990   -0.9861    0.0000 C   0  0  0  0  0  0  0  0  0
    0.7501    1.1821    0.0000 C   0  0  0  0  0  0  0  0  0
   -0.1673   -2.4361    0.0000 C   0  0  0  0  0  0  0  0  0
   -0.3509   -3.2404    0.0000 C   0  0  0  0  0  0  0  0  0
   -1.0942   -3.5984    0.0000 N   0  0  0  0  0  0  0  0  0
   -1.0942   -4.4234    0.0000 N   0  0  0  0  0  0  0  0  0
   -1.8087   -4.8359    0.0000 C   0  0  0  0  0  0  0  0  0
   -2.5231   -4.4234    0.0000 O   0  0  0  0  0  0  0  0  0
   -1.8087   -5.6609    0.0000 C   0  0  0  0  0  0  0  0  0
   -2.5231   -6.0734    0.0000 C   0  0  0  0  0  0  0  0  0
   -2.5231   -6.8984    0.0000 C   0  0  0  0  0  0  0  0  0
   -1.8087   -7.3109    0.0000 C   0  0  0  0  0  0  0  0  0
   -1.0942   -6.8984    0.0000 C   0  0  0  0  0  0  0  0  0
   -1.0942   -6.0734    0.0000 C   0  0  0  0  0  0  0  0  0
   -3.2376   -7.3109    0.0000 C   0  0  0  0  0  0  0  0  0
   -3.9521   -6.8984    0.0000 C   0  0  0  0  0  0  0  0  0
   -3.9521   -6.0734    0.0000 C   0  0  0  0  0  0  0  0  0
   -3.2376   -5.6609    0.0000 C   0  0  0  0  0  0  0  0  0
   -1.8375   -3.2404    0.0000 C   0  0  0  0  0  0  0  0  0
   -2.4422   -3.8016    0.0000 C   0  0  0  0  0  0  0  0  0
   -3.2306   -3.5584    0.0000 C   0  0  0  0  0  0  0  0  0
    0.2539   -3.8016    0.0000 C   0  0  0  0  0  0  0  0  0
    1.0422   -3.5584    0.0000 C   0  0  0  0  0  0  0  0  0
    1.2258   -2.7541    0.0000 C   0  0  0  0  0  0  0  0  0
    0.6210   -2.1929    0.0000 C   0  0  0  0  0  0  0  0  0
  1  2  1  0  0  0  0
  2  3  4  0  0  0  0
  2 32  4  0  0  0  0
  3  4  4  0  0  0  0
  4  5  1  0  0  0  0
  4 30  4  0  0  0  0
  5  6  2  0  0  0  0
  6  7  1  0  0  0  0
  6 14  1  0  0  0  0
  7  8  1  0  0  0  0
  7 12  1  0  0  0  0
  8  9  1  0  0  0  0
  9 10  1  0  0  0  0
 10 11  1  0  0  0  0
 10 13  1  0  0  0  0
 11 12  1  0  0  0  0
 14 15  4  0  0  0  0
 14 36  4  0  0  0  0
 15 16  1  0  0  0  0
 15 33  4  0  0  0  0
 16 17  1  0  0  0  0
 16 30  1  0  0  0  0
 17 18  1  0  0  0  0
 18 19  2  0  0  0  0
 18 20  1  0  0  0  0
 20 21  4  0  0  0  0
 20 25  4  0  0  0  0
 21 22  4  0  0  0  0
 21 29  4  0  0  0  0
 22 23  4  0  0  0  0
 22 26  4  0  0  0  0
 23 24  4  0  0  0  0
 24 25  4  0  0  0  0
 26 27  4  0  0  0  0
 27 28  4  0  0  0  0
 28 29  4  0  0  0  0
 30 31  4  0  0  0  0
 31 32  4  0  0  0  0
 33 34  4  0  0  0  0
 34 35  4  0  0  0  0
 35 36  4  0  0  0  0
M  END
>  <Name_Molregno>
357242

>  <5-HT2A>
9

>  <Alpha-2A>
6.05

>  <DOPAMINE D1>
8.42

>  <DOPAMINE D2>
6.34

>  <DOPAMINE D4>
6.01

>  <DOPAMINE D5>
6.98

$$$$
357390
  Marvin  02231216192D 0   1.00000     0.00000     0

 37 41  0  0  0  0  0  0  0  0999 V2000
   -4.7351   -2.6013    0.0000 Cl  0  0  0  0  0  0  0  0  0
   -3.9468   -2.8445    0.0000 C   0  0  0  0  0  0  0  0  0
   -3.3420   -2.2833    0.0000 C   0  0  0  0  0  0  0  0  0
   -2.5537   -2.5265    0.0000 C   0  0  0  0  0  0  0  0  0
   -2.0393   -1.8815    0.0000 N   0  0  0  0  0  0  0  0  0
   -1.2143   -1.8815    0.0000 C   0  0  0  0  0  0  0  0  0
   -0.8563   -1.1382    0.0000 N   0  0  0  0  0  0  0  0  0
   -1.3211   -0.4565    0.0000 C   0  0  0  0  0  0  0  0  0
   -0.9631    0.2868    0.0000 C   0  0  0  0  0  0  0  0  0
   -0.1404    0.3484    0.0000 N   0  0  0  0  0  0  0  0  0
    0.3243   -0.3332    0.0000 C   0  0  0  0  0  0  0  0  0
   -0.0336   -1.0765    0.0000 C   0  0  0  0  0  0  0  0  0
    0.2175    1.0917    0.0000 C   0  0  0  0  0  0  0  0  0
   -0.6999   -2.5265    0.0000 C   0  0  0  0  0  0  0  0  0
   -0.8835   -3.3308    0.0000 C   0  0  0  0  0  0  0  0  0
   -1.6268   -3.6888    0.0000 N   0  0  0  0  0  0  0  0  0
   -1.6268   -4.5138    0.0000 N   0  0  0  0  0  0  0  0  0
   -0.9123   -4.9263    0.0000 C   0  0  0  0  0  0  0  0  0
   -0.1978   -4.5138    0.0000 O   0  0  0  0  0  0  0  0  0
   -0.9123   -5.7513    0.0000 C   0  0  0  0  0  0  0  0  0
   -0.1978   -6.1638    0.0000 C   0  0  0  0  0  0  0  0  0
   -0.1978   -6.9888    0.0000 C   0  0  0  0  0  0  0  0  0
   -0.9123   -7.4013    0.0000 C   0  0  0  0  0  0  0  0  0
   -1.6268   -6.9888    0.0000 C   0  0  0  0  0  0  0  0  0
   -1.6268   -6.1638    0.0000 C   0  0  0  0  0  0  0  0  0
   -2.3412   -5.7513    0.0000 F   0  0  0  0  0  0  0  0  0
    0.5166   -5.7513    0.0000 C   0  0  0  0  0  0  0  0  0
    1.2311   -5.3388    0.0000 F   0  0  0  0  0  0  0  0  0
    0.9291   -6.4657    0.0000 F   0  0  0  0  0  0  0  0  0
    0.1041   -5.0368    0.0000 F   0  0  0  0  0  0  0  0  0
   -2.3701   -3.3308    0.0000 C   0  0  0  0  0  0  0  0  0
   -2.9748   -3.8919    0.0000 C   0  0  0  0  0  0  0  0  0
   -3.7632   -3.6488    0.0000 C   0  0  0  0  0  0  0  0  0
   -0.2787   -3.8919    0.0000 C   0  0  0  0  0  0  0  0  0
    0.5096   -3.6488    0.0000 C   0  0  0  0  0  0  0  0  0
    0.6932   -2.8445    0.0000 C   0  0  0  0  0  0  0  0  0
    0.0885   -2.2833    0.0000 C   0  0  0  0  0  0  0  0  0
  1  2  1  0  0  0  0
  2  3  4  0  0  0  0
  2 33  4  0  0  0  0
  3  4  4  0  0  0  0
  4  5  1  0  0  0  0
  4 31  4  0  0  0  0
  5  6  2  0  0  0  0
  6  7  1  0  0  0  0
  6 14  1  0  0  0  0
  7  8  1  0  0  0  0
  7 12  1  0  0  0  0
  8  9  1  0  0  0  0
  9 10  1  0  0  0  0
 10 11  1  0  0  0  0
 10 13  1  0  0  0  0
 11 12  1  0  0  0  0
 14 15  4  0  0  0  0
 14 37  4  0  0  0  0
 15 16  1  0  0  0  0
 15 34  4  0  0  0  0
 16 17  1  0  0  0  0
 16 31  1  0  0  0  0
 17 18  1  0  0  0  0
 18 19  2  0  0  0  0
 18 20  1  0  0  0  0
 20 21  4  0  0  0  0
 20 25  4  0  0  0  0
 21 22  4  0  0  0  0
 21 27  1  0  0  0  0
 22 23  4  0  0  0  0
 23 24  4  0  0  0  0
 24 25  4  0  0  0  0
 25 26  1  0  0  0  0
 27 28  1  0  0  0  0
 27 29  1  0  0  0  0
 27 30  1  0  0  0  0
 31 32  4  0  0  0  0
 32 33  4  0  0  0  0
 34 35  4  0  0  0  0
 35 36  4  0  0  0  0
 36 37  4  0  0  0  0
M  END
>  <Name_Molregno>
357390

>  <5-HT2A>
8.92

>  <Alpha-2A>
5.7

>  <DOPAMINE D1>
8.6

>  <DOPAMINE D2>
6.42

>  <DOPAMINE D4>
5.7

>  <DOPAMINE D5>
8.15

$$$$
357418
  Marvin  02231216192D 0   1.00000     0.00000     0

 34 38  0  0  0  0  0  0  0  0999 V2000
    0.2845    1.3449    0.0000 Cl  0  0  0  0  0  0  0  0  0
    0.9990    1.7574    0.0000 C   0  0  0  0  0  0  0  0  0
    0.9990    2.5824    0.0000 C   0  0  0  0  0  0  0  0  0
    1.7135    2.9949    0.0000 C   0  0  0  0  0  0  0  0  0
    2.4279    2.5824    0.0000 C   0  0  0  0  0  0  0  0  0
    2.4279    1.7574    0.0000 C   0  0  0  0  0  0  0  0  0
    3.1424    1.3449    0.0000 N   0  0  0  0  0  0  0  0  0
    1.7135    1.3449    0.0000 C   0  0  0  0  0  0  0  0  0
    1.7135    0.5199    0.0000 C   0  0  0  0  0  0  0  0  0
    0.9990    0.1074    0.0000 O   0  0  0  0  0  0  0  0  0
    2.4279    0.1074    0.0000 N   0  0  0  0  0  0  0  0  0
    2.4279   -0.7176    0.0000 N   0  0  0  0  0  0  0  0  0
    3.1712   -1.0755    0.0000 C   0  0  0  0  0  0  0  0  0
    3.3548   -1.8798    0.0000 C   0  0  0  0  0  0  0  0  0
    4.1432   -2.1230    0.0000 C   0  0  0  0  0  0  0  0  0
    4.7479   -1.5619    0.0000 C   0  0  0  0  0  0  0  0  0
    4.5644   -0.7576    0.0000 C   0  0  0  0  0  0  0  0  0
    3.7760   -0.5144    0.0000 C   0  0  0  0  0  0  0  0  0
    2.8404   -2.5248    0.0000 C   0  0  0  0  0  0  0  0  0
    2.0154   -2.5248    0.0000 N   0  0  0  0  0  0  0  0  0
    1.5011   -1.8798    0.0000 C   0  0  0  0  0  0  0  0  0
    0.7127   -2.1230    0.0000 C   0  0  0  0  0  0  0  0  0
    0.1080   -1.5619    0.0000 C   0  0  0  0  0  0  0  0  0
   -0.6804   -1.8050    0.0000 Cl  0  0  0  0  0  0  0  0  0
    0.2915   -0.7576    0.0000 C   0  0  0  0  0  0  0  0  0
    1.0799   -0.5144    0.0000 C   0  0  0  0  0  0  0  0  0
    1.6846   -1.0755    0.0000 C   0  0  0  0  0  0  0  0  0
    3.1984   -3.2681    0.0000 N   0  0  0  0  0  0  0  0  0
    4.0211   -3.3298    0.0000 C   0  0  0  0  0  0  0  0  0
    4.3791   -4.0731    0.0000 C   0  0  0  0  0  0  0  0  0
    3.9143   -4.7547    0.0000 N   0  0  0  0  0  0  0  0  0
    3.0916   -4.6931    0.0000 C   0  0  0  0  0  0  0  0  0
    2.7337   -3.9498    0.0000 C   0  0  0  0  0  0  0  0  0
    4.2723   -5.4980    0.0000 C   0  0  0  0  0  0  0  0  0
  1  2  1  0  0  0  0
  2  3  4  0  0  0  0
  2  8  4  0  0  0  0
  3  4  4  0  0  0  0
  4  5  4  0  0  0  0
  5  6  4  0  0  0  0
  6  7  1  0  0  0  0
  6  8  4  0  0  0  0
  8  9  1  0  0  0  0
  9 10  2  0  0  0  0
  9 11  1  0  0  0  0
 11 12  1  0  0  0  0
 12 13  1  0  0  0  0
 12 27  1  0  0  0  0
 13 14  4  0  0  0  0
 13 18  4  0  0  0  0
 14 15  4  0  0  0  0
 14 19  1  0  0  0  0
 15 16  4  0  0  0  0
 16 17  4  0  0  0  0
 17 18  4  0  0  0  0
 19 20  2  0  0  0  0
 19 28  1  0  0  0  0
 20 21  1  0  0  0  0
 21 22  4  0  0  0  0
 21 27  4  0  0  0  0
 22 23  4  0  0  0  0
 23 24  1  0  0  0  0
 23 25  4  0  0  0  0
 25 26  4  0  0  0  0
 26 27  4  0  0  0  0
 28 29  1  0  0  0  0
 28 33  1  0  0  0  0
 29 30  1  0  0  0  0
 30 31  1  0  0  0  0
 31 32  1  0  0  0  0
 31 34  1  0  0  0  0
 32 33  1  0  0  0  0
M  END
>  <Name_Molregno>
357418

>  <5-HT2A>
9.05

>  <Alpha-2A>
6.49

>  <DOPAMINE D1>
8.59

>  <DOPAMINE D2>
6.3

>  <DOPAMINE D4>
6.09

>  <DOPAMINE D5>
7.28

$$$$
357419
  Marvin  02231216192D 0   1.00000     0.00000     0

 34 38  0  0  0  0  0  0  0  0999 V2000
   -4.1474   -2.6924    0.0000 Cl  0  0  0  0  0  0  0  0  0
   -3.3590   -2.9355    0.0000 C   0  0  0  0  0  0  0  0  0
   -2.7543   -2.3744    0.0000 C   0  0  0  0  0  0  0  0  0
   -1.9659   -2.6176    0.0000 C   0  0  0  0  0  0  0  0  0
   -1.4515   -1.9726    0.0000 N   0  0  0  0  0  0  0  0  0
   -0.6265   -1.9726    0.0000 C   0  0  0  0  0  0  0  0  0
   -0.2686   -1.2293    0.0000 N   0  0  0  0  0  0  0  0  0
   -0.7333   -0.5476    0.0000 C   0  0  0  0  0  0  0  0  0
   -0.3754    0.1957    0.0000 C   0  0  0  0  0  0  0  0  0
    0.4473    0.2573    0.0000 N   0  0  0  0  0  0  0  0  0
    0.9121   -0.4243    0.0000 C   0  0  0  0  0  0  0  0  0
    0.5541   -1.1676    0.0000 C   0  0  0  0  0  0  0  0  0
    0.8053    1.0006    0.0000 C   0  0  0  0  0  0  0  0  0
   -0.1122   -2.6176    0.0000 C   0  0  0  0  0  0  0  0  0
   -0.2957   -3.4219    0.0000 C   0  0  0  0  0  0  0  0  0
   -1.0390   -3.7798    0.0000 N   0  0  0  0  0  0  0  0  0
   -1.0390   -4.6048    0.0000 N   0  0  0  0  0  0  0  0  0
   -0.3246   -5.0173    0.0000 C   0  0  0  0  0  0  0  0  0
    0.3899   -4.6048    0.0000 O   0  0  0  0  0  0  0  0  0
   -0.3246   -5.8423    0.0000 C   0  0  0  0  0  0  0  0  0
    0.3899   -6.2548    0.0000 C   0  0  0  0  0  0  0  0  0
    0.3899   -7.0798    0.0000 C   0  0  0  0  0  0  0  0  0
   -0.3246   -7.4923    0.0000 C   0  0  0  0  0  0  0  0  0
   -1.0390   -7.0798    0.0000 C   0  0  0  0  0  0  0  0  0
   -1.0390   -6.2548    0.0000 C   0  0  0  0  0  0  0  0  0
   -1.7535   -5.8423    0.0000 C   0  0  0  0  0  0  0  0  0
    1.1044   -5.8423    0.0000 C   0  0  0  0  0  0  0  0  0
   -1.7823   -3.4219    0.0000 C   0  0  0  0  0  0  0  0  0
   -2.3871   -3.9830    0.0000 C   0  0  0  0  0  0  0  0  0
   -3.1755   -3.7398    0.0000 C   0  0  0  0  0  0  0  0  0
    0.3090   -3.9830    0.0000 C   0  0  0  0  0  0  0  0  0
    1.0974   -3.7398    0.0000 C   0  0  0  0  0  0  0  0  0
    1.2810   -2.9355    0.0000 C   0  0  0  0  0  0  0  0  0
    0.6762   -2.3744    0.0000 C   0  0  0  0  0  0  0  0  0
  1  2  1  0  0  0  0
  2  3  4  0  0  0  0
  2 30  4  0  0  0  0
  3  4  4  0  0  0  0
  4  5  1  0  0  0  0
  4 28  4  0  0  0  0
  5  6  2  0  0  0  0
  6  7  1  0  0  0  0
  6 14  1  0  0  0  0
  7  8  1  0  0  0  0
  7 12  1  0  0  0  0
  8  9  1  0  0  0  0
  9 10  1  0  0  0  0
 10 11  1  0  0  0  0
 10 13  1  0  0  0  0
 11 12  1  0  0  0  0
 14 15  4  0  0  0  0
 14 34  4  0  0  0  0
 15 16  1  0  0  0  0
 15 31  4  0  0  0  0
 16 17  1  0  0  0  0
 16 28  1  0  0  0  0
 17 18  1  0  0  0  0
 18 19  2  0  0  0  0
 18 20  1  0  0  0  0
 20 21  4  0  0  0  0
 20 25  4  0  0  0  0
 21 22  4  0  0  0  0
 21 27  1  0  0  0  0
 22 23  4  0  0  0  0
 23 24  4  0  0  0  0
 24 25  4  0  0  0  0
 25 26  1  0  0  0  0
 28 29  4  0  0  0  0
 29 30  4  0  0  0  0
 31 32  4  0  0  0  0
 32 33  4  0  0  0  0
 33 34  4  0  0  0  0
M  END
>  <Name_Molregno>
357419

>  <5-HT2A>
8.66

>  <Alpha-2A>
6.1

>  <DOPAMINE D1>
8.52

>  <DOPAMINE D2>
6.54

>  <DOPAMINE D4>
5.73

>  <DOPAMINE D5>
7.51

$$$$
357447
  Marvin  02231216192D 0   1.00000     0.00000     0

 34 38  0  0  0  0  0  0  0  0999 V2000
   -4.1474   -2.6924    0.0000 Cl  0  0  0  0  0  0  0  0  0
   -3.3590   -2.9355    0.0000 C   0  0  0  0  0  0  0  0  0
   -2.7543   -2.3744    0.0000 C   0  0  0  0  0  0  0  0  0
   -1.9659   -2.6176    0.0000 C   0  0  0  0  0  0  0  0  0
   -1.4515   -1.9726    0.0000 N   0  0  0  0  0  0  0  0  0
   -0.6265   -1.9726    0.0000 C   0  0  0  0  0  0  0  0  0
   -0.2686   -1.2293    0.0000 N   0  0  0  0  0  0  0  0  0
   -0.7333   -0.5476    0.0000 C   0  0  0  0  0  0  0  0  0
   -0.3754    0.1957    0.0000 C   0  0  0  0  0  0  0  0  0
    0.4473    0.2573    0.0000 N   0  0  0  0  0  0  0  0  0
    0.9121   -0.4243    0.0000 C   0  0  0  0  0  0  0  0  0
    0.5541   -1.1676    0.0000 C   0  0  0  0  0  0  0  0  0
    0.8053    1.0006    0.0000 C   0  0  0  0  0  0  0  0  0
   -0.1122   -2.6176    0.0000 C   0  0  0  0  0  0  0  0  0
   -0.2957   -3.4219    0.0000 C   0  0  0  0  0  0  0  0  0
   -1.0390   -3.7798    0.0000 N   0  0  0  0  0  0  0  0  0
   -1.0390   -4.6048    0.0000 N   0  0  0  0  0  0  0  0  0
   -0.3246   -5.0173    0.0000 C   0  0  0  0  0  0  0  0  0
    0.3899   -4.6048    0.0000 O   0  0  0  0  0  0  0  0  0
   -0.3246   -5.8423    0.0000 C   0  0  0  0  0  0  0  0  0
    0.3899   -6.2548    0.0000 C   0  0  0  0  0  0  0  0  0
    0.3899   -7.0798    0.0000 C   0  0  0  0  0  0  0  0  0
   -0.3246   -7.4923    0.0000 C   0  0  0  0  0  0  0  0  0
   -1.0390   -7.0798    0.0000 C   0  0  0  0  0  0  0  0  0
   -1.0390   -6.2548    0.0000 C   0  0  0  0  0  0  0  0  0
   -1.7535   -5.8423    0.0000 N   0  0  0  0  0  0  0  0  0
    1.1044   -5.8423    0.0000 C   0  0  0  0  0  0  0  0  0
   -1.7823   -3.4219    0.0000 C   0  0  0  0  0  0  0  0  0
   -2.3871   -3.9830    0.0000 C   0  0  0  0  0  0  0  0  0
   -3.1755   -3.7398    0.0000 C   0  0  0  0  0  0  0  0  0
    0.3090   -3.9830    0.0000 C   0  0  0  0  0  0  0  0  0
    1.0974   -3.7398    0.0000 C   0  0  0  0  0  0  0  0  0
    1.2810   -2.9355    0.0000 C   0  0  0  0  0  0  0  0  0
    0.6762   -2.3744    0.0000 C   0  0  0  0  0  0  0  0  0
  1  2  1  0  0  0  0
  2  3  4  0  0  0  0
  2 30  4  0  0  0  0
  3  4  4  0  0  0  0
  4  5  1  0  0  0  0
  4 28  4  0  0  0  0
  5  6  2  0  0  0  0
  6  7  1  0  0  0  0
  6 14  1  0  0  0  0
  7  8  1  0  0  0  0
  7 12  1  0  0  0  0
  8  9  1  0  0  0  0
  9 10  1  0  0  0  0
 10 11  1  0  0  0  0
 10 13  1  0  0  0  0
 11 12  1  0  0  0  0
 14 15  4  0  0  0  0
 14 34  4  0  0  0  0
 15 16  1  0  0  0  0
 15 31  4  0  0  0  0
 16 17  1  0  0  0  0
 16 28  1  0  0  0  0
 17 18  1  0  0  0  0
 18 19  2  0  0  0  0
 18 20  1  0  0  0  0
 20 21  4  0  0  0  0
 20 25  4  0  0  0  0
 21 22  4  0  0  0  0
 21 27  1  0  0  0  0
 22 23  4  0  0  0  0
 23 24  4  0  0  0  0
 24 25  4  0  0  0  0
 25 26  1  0  0  0  0
 28 29  4  0  0  0  0
 29 30  4  0  0  0  0
 31 32  4  0  0  0  0
 32 33  4  0  0  0  0
 33 34  4  0  0  0  0
M  END
>  <Name_Molregno>
357447

>  <5-HT2A>
8.54

>  <Alpha-2A>
6.34

>  <DOPAMINE D1>
8.49

>  <DOPAMINE D2>
5.99

>  <DOPAMINE D4>
5.31

>  <DOPAMINE D5>
7.24

$$$$
361051
  Marvin  02231216192D 0   1.00000     0.00000     0

 23 26  0  0  0  0  0  0  0  0999 V2000
    0.3583    0.2680    0.0000 N   0  0  0  0  0  0  0  0  0
    0.7190   -0.4740    0.0000 C   0  0  0  0  0  0  0  0  0
    1.5965   -0.6861    0.0000 C   0  0  0  0  0  0  0  0  0
    2.3385   -0.3254    0.0000 C   0  0  0  0  0  0  0  0  0
    2.9108   -0.9196    0.0000 C   0  0  0  0  0  0  0  0  0
    2.5225   -1.6476    0.0000 C   0  0  0  0  0  0  0  0  0
    2.7015   -2.5324    0.0000 C   0  0  0  0  0  0  0  0  0
    2.1073   -3.1047    0.0000 N   0  0  0  0  0  0  0  0  0
    1.3145   -2.8763    0.0000 C   0  0  0  0  0  0  0  0  0
    1.1160   -2.0755    0.0000 C   0  0  0  0  0  0  0  0  0
    0.3233   -1.8471    0.0000 C   0  0  0  0  0  0  0  0  0
    0.1247   -1.0463    0.0000 C   0  0  0  0  0  0  0  0  0
   -0.6032   -0.6580    0.0000 C   0  0  0  0  0  0  0  0  0
   -0.4588    0.1542    0.0000 C   0  0  0  0  0  0  0  0  0
   -1.0901    0.6854    0.0000 C   0  0  0  0  0  0  0  0  0
   -1.8657    0.4042    0.0000 C   0  0  0  0  0  0  0  0  0
   -2.0101   -0.4080    0.0000 C   0  0  0  0  0  0  0  0  0
   -1.3788   -0.9392    0.0000 C   0  0  0  0  0  0  0  0  0
    2.3058   -3.9055    0.0000 C   0  0  0  0  0  0  0  0  0
    3.7115   -0.7211    0.0000 C   0  0  0  0  0  0  0  0  0
    3.9400    0.0716    0.0000 C   0  0  0  0  0  0  0  0  0
    3.3677    0.6658    0.0000 C   0  0  0  0  0  0  0  0  0
    2.5669    0.4673    0.0000 C   0  0  0  0  0  0  0  0  0
  1  2  4  0  0  0  0
  1 14  4  0  0  0  0
  2  3  1  0  0  0  0
  2 12  4  0  0  0  0
  3  4  1  0  0  0  0
  4  5  4  0  0  0  0
  4 23  4  0  0  0  0
  5  6  1  0  0  0  0
  5 20  4  0  0  0  0
  6  7  1  0  0  0  0
  7  8  1  0  0  0  0
  8  9  1  0  0  0  0
  8 19  1  0  0  0  0
  9 10  1  0  0  0  0
 10 11  1  0  0  0  0
 11 12  1  0  0  0  0
 12 13  4  0  0  0  0
 13 14  4  0  0  0  0
 13 18  4  0  0  0  0
 14 15  4  0  0  0  0
 15 16  4  0  0  0  0
 16 17  4  0  0  0  0
 17 18  4  0  0  0  0
 20 21  4  0  0  0  0
 21 22  4  0  0  0  0
 22 23  4  0  0  0  0
M  STY  1   1 DAT
M  SAL   1  1   1
M  SDT   1 MRV_IMPLICIT_H                                        
M  SDD   1     0.0000    0.0000    DR    ALL  0       0  
M  SED   1 IMPL_H1
M  END
>  <Name_Molregno>
361051

>  <DOPAMINE D1>
6.7

>  <DOPAMINE D2>
7.07

>  <DOPAMINE D3>
6.28

>  <DOPAMINE D4>
6.74

>  <DOPAMINE D5>
7.1

$$$$
361078
  Marvin  02231216192D 0   1.00000     0.00000     0

 23 26  0  0  0  0  0  0  0  0999 V2000
    0.2199    0.0739    0.0000 N   0  0  0  0  0  0  0  0  0
    0.5806   -0.6681    0.0000 C   0  0  0  0  0  0  0  0  0
    1.4581   -0.8802    0.0000 C   0  0  0  0  0  0  0  0  0
    2.2001   -0.5195    0.0000 C   0  0  0  0  0  0  0  0  0
    2.7724   -1.1137    0.0000 C   0  0  0  0  0  0  0  0  0
    2.3841   -1.8416    0.0000 C   0  0  0  0  0  0  0  0  0
    2.5631   -2.7265    0.0000 C   0  0  0  0  0  0  0  0  0
    1.9689   -3.2988    0.0000 C   0  0  0  0  0  0  0  0  0
    1.1761   -3.0703    0.0000 N   0  0  0  0  0  0  0  0  0
    0.9776   -2.2696    0.0000 C   0  0  0  0  0  0  0  0  0
    0.1849   -2.0411    0.0000 C   0  0  0  0  0  0  0  0  0
   -0.0136   -1.2404    0.0000 C   0  0  0  0  0  0  0  0  0
   -0.7416   -0.8521    0.0000 C   0  0  0  0  0  0  0  0  0
   -0.5972   -0.0398    0.0000 C   0  0  0  0  0  0  0  0  0
   -1.2285    0.4913    0.0000 C   0  0  0  0  0  0  0  0  0
   -2.0041    0.2102    0.0000 C   0  0  0  0  0  0  0  0  0
   -2.1485   -0.6021    0.0000 C   0  0  0  0  0  0  0  0  0
   -1.5172   -1.1332    0.0000 C   0  0  0  0  0  0  0  0  0
    0.5819   -3.6426    0.0000 C   0  0  0  0  0  0  0  0  0
    3.5731   -0.9152    0.0000 C   0  0  0  0  0  0  0  0  0
    3.8016   -0.1224    0.0000 C   0  0  0  0  0  0  0  0  0
    3.2293    0.4718    0.0000 C   0  0  0  0  0  0  0  0  0
    2.4285    0.2733    0.0000 C   0  0  0  0  0  0  0  0  0
  1  2  4  0  0  0  0
  1 14  4  0  0  0  0
  2  3  1  0  0  0  0
  2 12  4  0  0  0  0
  3  4  1  0  0  0  0
  4  5  4  0  0  0  0
  4 23  4  0  0  0  0
  5  6  1  0  0  0  0
  5 20  4  0  0  0  0
  6  7  1  0  0  0  0
  7  8  1  0  0  0  0
  8  9  1  0  0  0  0
  9 10  1  0  0  0  0
  9 19  1  0  0  0  0
 10 11  1  0  0  0  0
 11 12  1  0  0  0  0
 12 13  4  0  0  0  0
 13 14  4  0  0  0  0
 13 18  4  0  0  0  0
 14 15  4  0  0  0  0
 15 16  4  0  0  0  0
 16 17  4  0  0  0  0
 17 18  4  0  0  0  0
 20 21  4  0  0  0  0
 21 22  4  0  0  0  0
 22 23  4  0  0  0  0
M  STY  1   1 DAT
M  SAL   1  1   1
M  SDT   1 MRV_IMPLICIT_H                                        
M  SDD   1     0.0000    0.0000    DR    ALL  0       0  
M  SED   1 IMPL_H1
M  END
>  <Name_Molregno>
361078

>  <DOPAMINE D1>
8.63

>  <DOPAMINE D2>
8.18

>  <DOPAMINE D3>
6.56

>  <DOPAMINE D4>
7.01

>  <DOPAMINE D5>
8.88

$$$$
361616
  Marvin  02231216192D 0   1.00000     0.00000     0

 20 23  0  0  1  0  0  0  0  0999 V2000
   -0.8000    2.9458    0.0000 O   0  0  0  0  0  0  0  0  0
   -0.0855    3.3583    0.0000 C   0  0  0  0  0  0  0  0  0
    0.6290    2.9458    0.0000 C   0  0  0  0  0  0  0  0  0
    1.3435    3.3583    0.0000 N   0  0  0  0  0  0  0  0  0
    2.0579    2.9458    0.0000 C   0  0  0  0  0  0  0  0  0
    2.0579    2.1208    0.0000 C   0  0  0  0  0  0  0  0  0
    1.3435    1.7083    0.0000 C   0  0  0  0  0  0  0  0  0
    0.6290    2.1208    0.0000 C   0  0  0  0  0  0  0  0  0
   -0.0855    1.7083    0.0000 C   0  0  0  0  0  0  0  0  0
   -0.0855    0.8833    0.0000 C   0  0  0  0  0  0  0  0  0
   -0.8000    0.4708    0.0000 C   0  0  0  0  0  0  0  0  0
   -0.8000   -0.3542    0.0000 O   0  0  0  0  0  0  0  0  0
   -1.5144    0.8833    0.0000 C   0  0  0  0  0  0  0  0  0
   -2.2289    0.4708    0.0000 O   0  0  0  0  0  0  0  0  0
   -1.5144    1.7083    0.0000 C   0  0  0  0  0  0  0  0  0
   -0.8000    2.1208    0.0000 C   0  0  0  0  0  0  0  0  0
    1.3435    0.8833    0.0000 C   0  0  0  0  0  0  0  0  0
    2.0579    0.4708    0.0000 C   0  0  0  0  0  0  0  0  0
    2.7724    0.8833    0.0000 C   0  0  0  0  0  0  0  0  0
    2.7724    1.7083    0.0000 C   0  0  0  0  0  0  0  0  0
  1  2  1  0  0  0  0
  1 16  1  0  0  0  0
  2  3  1  0  0  0  0
  3  4  1  0  0  0  0
  3  8  1  0  0  0  0
  4  5  1  0  0  0  0
  5  6  1  0  0  0  0
  6  7  4  0  0  0  0
  6 20  4  0  0  0  0
  7  8  1  0  0  0  0
  7 17  4  0  0  0  0
  8  9  1  0  0  0  0
  9 10  4  0  0  0  0
  9 16  4  0  0  0  0
 10 11  4  0  0  0  0
 11 12  1  0  0  0  0
 11 13  4  0  0  0  0
 13 14  1  0  0  0  0
 13 15  4  0  0  0  0
 15 16  4  0  0  0  0
 17 18  4  0  0  0  0
 18 19  4  0  0  0  0
 19 20  4  0  0  0  0
M  END
>  <Name_Molregno>
361616

>  <Alpha-2A>
6.74

>  <Alpha-2B>
8

>  <Alpha-2C>
8.7

>  <DOPAMINE D1>
7.01

>  <DOPAMINE D2>
5.72

>  <DOPAMINE D3>
6.41

>  <DOPAMINE D4>
7.05

>  <DOPAMINE D5>
8.15

$$$$
382415
  Marvin  02231216192D 0   1.00000     0.00000     0

 18 19  0  0  0  0  0  0  0  0999 V2000
   -0.7360    1.4792    0.0000 S   0  0  0  0  0  0  0  0  0
   -0.9909    0.6946    0.0000 C   0  0  0  0  0  0  0  0  0
   -1.8159    0.6946    0.0000 C   0  0  0  0  0  0  0  0  0
   -2.0709    1.4792    0.0000 N   0  0  0  0  0  0  0  0  0
   -1.4034    1.9642    0.0000 C   0  0  0  0  0  0  0  0  0
   -1.4034    2.7892    0.0000 C   0  0  0  0  0  0  0  0  0
   -0.6890    3.2017    0.0000 F   0  0  0  0  0  0  0  0  0
   -2.3008    0.0272    0.0000 C   0  0  0  0  0  0  0  0  0
   -2.7858   -0.6403    0.0000 C   0  0  0  0  0  0  0  0  0
   -3.2707   -1.3077    0.0000 C   0  0  0  0  0  0  0  0  0
   -2.9351   -2.0614    0.0000 C   0  0  0  0  0  0  0  0  0
   -3.4201   -2.7288    0.0000 C   0  0  0  0  0  0  0  0  0
   -4.2405   -2.6426    0.0000 C   0  0  0  0  0  0  0  0  0
   -4.5761   -1.8889    0.0000 C   0  0  0  0  0  0  0  0  0
   -5.3966   -1.8027    0.0000 F   0  0  0  0  0  0  0  0  0
   -4.0912   -1.2215    0.0000 C   0  0  0  0  0  0  0  0  0
   -3.0845   -3.4825    0.0000 C   0  0  0  0  0  0  0  0  0
   -2.7489   -4.2362    0.0000 N   0  0  0  0  0  0  0  0  0
  1  2  4  0  0  0  0
  1  5  4  0  0  0  0
  2  3  4  0  0  0  0
  3  4  4  0  0  0  0
  3  8  1  0  0  0  0
  4  5  4  0  0  0  0
  5  6  1  0  0  0  0
  6  7  1  0  0  0  0
  8  9  3  0  0  0  0
  9 10  1  0  0  0  0
 10 11  4  0  0  0  0
 10 16  4  0  0  0  0
 11 12  4  0  0  0  0
 12 13  4  0  0  0  0
 12 17  1  0  0  0  0
 13 14  4  0  0  0  0
 14 15  1  0  0  0  0
 14 16  4  0  0  0  0
 17 18  3  0  0  0  0
M  END
>  <Name_Molregno>
382415

>  <5-HT1A>
5

>  <5-HT1B>
5

>  <5-HT1D>
5

>  <5-HT1E>
5

>  <5-HT2A>
5

>  <5-HT2C>
5

>  <5-HT3>
5

>  <5-HT5>
5

>  <5-HT6>
5

>  <5-HT7>
5

>  <Alpha-1A>
5

>  <Alpha-1B>
5

>  <Alpha-2A>
5

>  <Alpha-2B>
5

>  <Alpha-2C>
5

>  <Beta-1>
5

>  <Beta-2>
5

>  <DOPAMINE D1>
5

>  <DOPAMINE D2>
5

>  <DOPAMINE D3>
5

>  <DOPAMINE D4>
5

>  <DOPAMINE D5>
5

>  <Dopamine transporter>
5

>  <HISTAMINE H1>
5

>  <HISTAMINE H2>
5

>  <HISTAMINE H3>
5

>  <HISTAMINE H4>
5

>  <Muscarinic acetylcholine receptor M1>
5

>  <Muscarinic acetylcholine receptor M2>
5

>  <Muscarinic acetylcholine receptor M3>
5

>  <Muscarinic acetylcholine receptor M4>
5

>  <Muscarinic acetylcholine receptor M5>
5

>  <Norepinephrine transporter>
5

>  <Serotonin transporter>
5

$$$$
388818
  Marvin  02231216192D 0   1.00000     0.00000     0

 21 23  0  0  0  0  0  0  0  0999 V2000
    0.4061   -1.1671    0.0000 O   0  0  0  0  0  0  0  0  0
    1.1206   -0.7546    0.0000 C   0  0  0  0  0  0  0  0  0
    1.1206    0.0704    0.0000 C   0  0  0  0  0  0  0  0  0
    1.8351    0.4829    0.0000 C   0  0  0  0  0  0  0  0  0
    1.8351    1.3079    0.0000 C   0  0  0  0  0  0  0  0  0
    2.5966    1.7928    0.0000 C   0  0  0  0  0  0  0  0  0
    2.8515    2.5774    0.0000 C   0  0  0  0  0  0  0  0  0
    3.6765    2.5774    0.0000 N   0  0  0  0  0  0  0  0  0
    3.9314    1.7928    0.0000 C   0  0  0  0  0  0  0  0  0
    4.6930    1.3079    0.0000 C   0  0  0  0  0  0  0  0  0
    4.6930    0.4829    0.0000 C   0  0  0  0  0  0  0  0  0
    3.9785    0.0704    0.0000 C   0  0  0  0  0  0  0  0  0
    3.2640    0.4829    0.0000 C   0  0  0  0  0  0  0  0  0
    2.5495    0.0704    0.0000 C   0  0  0  0  0  0  0  0  0
    2.5495   -0.7546    0.0000 C   0  0  0  0  0  0  0  0  0
    1.8351   -1.1671    0.0000 C   0  0  0  0  0  0  0  0  0
    3.9785   -0.7546    0.0000 C   0  0  0  0  0  0  0  0  0
    4.6930   -1.1671    0.0000 C   0  0  0  0  0  0  0  0  0
    5.4074   -0.7546    0.0000 C   0  0  0  0  0  0  0  0  0
    5.4074    0.0704    0.0000 C   0  0  0  0  0  0  0  0  0
    4.1614    3.2449    0.0000 C   0  0  0  0  0  0  0  0  0
  1  2  1  0  0  0  0
  2  3  4  0  0  0  0
  2 16  4  0  0  0  0
  3  4  4  0  0  0  0
  4  5  1  0  0  0  0
  4 14  4  0  0  0  0
  5  6  1  0  0  0  0
  6  7  1  0  0  0  0
  7  8  1  0  0  0  0
  8  9  1  0  0  0  0
  8 21  1  0  0  0  0
  9 10  1  0  0  0  0
 10 11  1  0  0  0  0
 11 12  4  0  0  0  0
 11 20  4  0  0  0  0
 12 13  1  0  0  0  0
 12 17  4  0  0  0  0
 13 14  1  0  0  0  0
 14 15  4  0  0  0  0
 15 16  4  0  0  0  0
 17 18  4  0  0  0  0
 18 19  4  0  0  0  0
 19 20  4  0  0  0  0
M  END
>  <Name_Molregno>
388818

>  <DOPAMINE D1>
7.86

>  <DOPAMINE D3>
5.21

>  <DOPAMINE D5>
7.77

$$$$
388820
  Marvin  02231216192D 0   1.00000     0.00000     0

 22 24  0  0  0  0  0  0  0  0999 V2000
   -5.6423   -1.0758    0.0000 O   0  0  0  0  0  0  0  0  0
   -5.6423   -1.9008    0.0000 C   0  0  0  0  0  0  0  0  0
   -4.9278   -0.6633    0.0000 C   0  0  0  0  0  0  0  0  0
   -4.9278    0.1617    0.0000 C   0  0  0  0  0  0  0  0  0
   -4.2133    0.5742    0.0000 C   0  0  0  0  0  0  0  0  0
   -4.2133    1.3992    0.0000 C   0  0  0  0  0  0  0  0  0
   -3.4518    1.8841    0.0000 C   0  0  0  0  0  0  0  0  0
   -3.1969    2.6687    0.0000 C   0  0  0  0  0  0  0  0  0
   -2.3719    2.6687    0.0000 N   0  0  0  0  0  0  0  0  0
   -2.1170    1.8841    0.0000 C   0  0  0  0  0  0  0  0  0
   -1.3555    1.3992    0.0000 C   0  0  0  0  0  0  0  0  0
   -1.3555    0.5742    0.0000 C   0  0  0  0  0  0  0  0  0
   -2.0699    0.1617    0.0000 C   0  0  0  0  0  0  0  0  0
   -2.7844    0.5742    0.0000 C   0  0  0  0  0  0  0  0  0
   -3.4989    0.1617    0.0000 C   0  0  0  0  0  0  0  0  0
   -3.4989   -0.6633    0.0000 C   0  0  0  0  0  0  0  0  0
   -4.2133   -1.0758    0.0000 C   0  0  0  0  0  0  0  0  0
   -2.0699   -0.6633    0.0000 C   0  0  0  0  0  0  0  0  0
   -1.3555   -1.0758    0.0000 C   0  0  0  0  0  0  0  0  0
   -0.6410   -0.6633    0.0000 C   0  0  0  0  0  0  0  0  0
   -0.6410    0.1617    0.0000 C   0  0  0  0  0  0  0  0  0
   -1.8870    3.3362    0.0000 C   0  0  0  0  0  0  0  0  0
  1  2  1  0  0  0  0
  1  3  1  0  0  0  0
  3  4  4  0  0  0  0
  3 17  4  0  0  0  0
  4  5  4  0  0  0  0
  5  6  1  0  0  0  0
  5 15  4  0  0  0  0
  6  7  1  0  0  0  0
  7  8  1  0  0  0  0
  8  9  1  0  0  0  0
  9 10  1  0  0  0  0
  9 22  1  0  0  0  0
 10 11  1  0  0  0  0
 11 12  1  0  0  0  0
 12 13  4  0  0  0  0
 12 21  4  0  0  0  0
 13 14  1  0  0  0  0
 13 18  4  0  0  0  0
 14 15  1  0  0  0  0
 15 16  4  0  0  0  0
 16 17  4  0  0  0  0
 18 19  4  0  0  0  0
 19 20  4  0  0  0  0
 20 21  4  0  0  0  0
M  END
>  <Name_Molregno>
388820

>  <DOPAMINE D1>
7.54

>  <DOPAMINE D2>
7.61

>  <DOPAMINE D3>
5.5

>  <DOPAMINE D5>
7.26

$$$$
388822
  Marvin  02231216192D 0   1.00000     0.00000     0

 21 23  0  0  0  0  0  0  0  0999 V2000
    0.4312   -1.1445    0.0000 O   0  0  0  0  0  0  0  0  0
    1.1457   -0.7320    0.0000 C   0  0  0  0  0  0  0  0  0
    1.1457    0.0930    0.0000 C   0  0  0  0  0  0  0  0  0
    1.8601    0.5055    0.0000 C   0  0  0  0  0  0  0  0  0
    1.8601    1.3305    0.0000 C   0  0  0  0  0  0  0  0  0
    2.6217    1.8155    0.0000 C   0  0  0  0  0  0  0  0  0
    2.8766    2.6001    0.0000 N   0  0  0  0  0  0  0  0  0
    3.7016    2.6001    0.0000 C   0  0  0  0  0  0  0  0  0
    3.9565    1.8155    0.0000 C   0  0  0  0  0  0  0  0  0
    4.7180    1.3305    0.0000 C   0  0  0  0  0  0  0  0  0
    4.7180    0.5055    0.0000 C   0  0  0  0  0  0  0  0  0
    4.0036    0.0930    0.0000 C   0  0  0  0  0  0  0  0  0
    3.2891    0.5055    0.0000 C   0  0  0  0  0  0  0  0  0
    2.5746    0.0930    0.0000 C   0  0  0  0  0  0  0  0  0
    2.5746   -0.7320    0.0000 C   0  0  0  0  0  0  0  0  0
    1.8601   -1.1445    0.0000 C   0  0  0  0  0  0  0  0  0
    4.0036   -0.7320    0.0000 C   0  0  0  0  0  0  0  0  0
    4.7180   -1.1445    0.0000 C   0  0  0  0  0  0  0  0  0
    5.4325   -0.7320    0.0000 C   0  0  0  0  0  0  0  0  0
    5.4325    0.0930    0.0000 C   0  0  0  0  0  0  0  0  0
    2.3917    3.2675    0.0000 C   0  0  0  0  0  0  0  0  0
  1  2  1  0  0  0  0
  2  3  4  0  0  0  0
  2 16  4  0  0  0  0
  3  4  4  0  0  0  0
  4  5  1  0  0  0  0
  4 14  4  0  0  0  0
  5  6  1  0  0  0  0
  6  7  1  0  0  0  0
  7  8  1  0  0  0  0
  7 21  1  0  0  0  0
  8  9  1  0  0  0  0
  9 10  1  0  0  0  0
 10 11  1  0  0  0  0
 11 12  4  0  0  0  0
 11 20  4  0  0  0  0
 12 13  1  0  0  0  0
 12 17  4  0  0  0  0
 13 14  1  0  0  0  0
 14 15  4  0  0  0  0
 15 16  4  0  0  0  0
 17 18  4  0  0  0  0
 18 19  4  0  0  0  0
 19 20  4  0  0  0  0
M  END
>  <Name_Molregno>
388822

>  <DOPAMINE D1>
8.53

>  <DOPAMINE D2>
7.38

>  <DOPAMINE D3>
7

>  <DOPAMINE D5>
8.01

$$$$
388823
  Marvin  02231216192D 0   1.00000     0.00000     0

 22 24  0  0  0  0  0  0  0  0999 V2000
   -5.5048   -1.0661    0.0000 O   0  0  0  0  0  0  0  0  0
   -5.5048   -1.8911    0.0000 C   0  0  0  0  0  0  0  0  0
   -4.7903   -0.6536    0.0000 C   0  0  0  0  0  0  0  0  0
   -4.7903    0.1714    0.0000 C   0  0  0  0  0  0  0  0  0
   -4.0758    0.5839    0.0000 C   0  0  0  0  0  0  0  0  0
   -4.0758    1.4089    0.0000 C   0  0  0  0  0  0  0  0  0
   -3.3143    1.8938    0.0000 C   0  0  0  0  0  0  0  0  0
   -3.0594    2.6784    0.0000 N   0  0  0  0  0  0  0  0  0
   -2.2344    2.6784    0.0000 C   0  0  0  0  0  0  0  0  0
   -1.9795    1.8938    0.0000 C   0  0  0  0  0  0  0  0  0
   -1.2179    1.4089    0.0000 C   0  0  0  0  0  0  0  0  0
   -1.2179    0.5839    0.0000 C   0  0  0  0  0  0  0  0  0
   -1.9324    0.1714    0.0000 C   0  0  0  0  0  0  0  0  0
   -2.6469    0.5839    0.0000 C   0  0  0  0  0  0  0  0  0
   -3.3613    0.1714    0.0000 C   0  0  0  0  0  0  0  0  0
   -3.3613   -0.6536    0.0000 C   0  0  0  0  0  0  0  0  0
   -4.0758   -1.0661    0.0000 C   0  0  0  0  0  0  0  0  0
   -1.9324   -0.6536    0.0000 C   0  0  0  0  0  0  0  0  0
   -1.2179   -1.0661    0.0000 C   0  0  0  0  0  0  0  0  0
   -0.5035   -0.6536    0.0000 C   0  0  0  0  0  0  0  0  0
   -0.5035    0.1714    0.0000 C   0  0  0  0  0  0  0  0  0
   -3.5443    3.3458    0.0000 C   0  0  0  0  0  0  0  0  0
  1  2  1  0  0  0  0
  1  3  1  0  0  0  0
  3  4  4  0  0  0  0
  3 17  4  0  0  0  0
  4  5  4  0  0  0  0
  5  6  1  0  0  0  0
  5 15  4  0  0  0  0
  6  7  1  0  0  0  0
  7  8  1  0  0  0  0
  8  9  1  0  0  0  0
  8 22  1  0  0  0  0
  9 10  1  0  0  0  0
 10 11  1  0  0  0  0
 11 12  1  0  0  0  0
 12 13  4  0  0  0  0
 12 21  4  0  0  0  0
 13 14  1  0  0  0  0
 13 18  4  0  0  0  0
 14 15  1  0  0  0  0
 15 16  4  0  0  0  0
 16 17  4  0  0  0  0
 18 19  4  0  0  0  0
 19 20  4  0  0  0  0
 20 21  4  0  0  0  0
M  END
>  <Name_Molregno>
388823

>  <DOPAMINE D1>
7.69

>  <DOPAMINE D2>
7.06

>  <DOPAMINE D3>
6.29

>  <DOPAMINE D5>
8.34

$$$$
388825
  Marvin  02231216192D 0   1.00000     0.00000     0

 22 24  0  0  0  0  0  0  0  0999 V2000
    0.0764   -0.4273    0.0000 O   0  0  0  0  0  0  0  0  0
    0.7909   -0.0148    0.0000 C   0  0  0  0  0  0  0  0  0
    0.7909    0.8102    0.0000 C   0  0  0  0  0  0  0  0  0
    1.5054    1.2227    0.0000 C   0  0  0  0  0  0  0  0  0
    1.5054    2.0477    0.0000 C   0  0  0  0  0  0  0  0  0
    2.2198    2.4602    0.0000 C   0  0  0  0  0  0  0  0  0
    2.2198    3.2852    0.0000 C   0  0  0  0  0  0  0  0  0
    2.9343    3.6977    0.0000 N   0  0  0  0  0  0  0  0  0
    3.6488    3.2852    0.0000 C   0  0  0  0  0  0  0  0  0
    3.6488    2.4602    0.0000 C   0  0  0  0  0  0  0  0  0
    4.3633    2.0477    0.0000 C   0  0  0  0  0  0  0  0  0
    4.3633    1.2227    0.0000 C   0  0  0  0  0  0  0  0  0
    3.6488    0.8102    0.0000 C   0  0  0  0  0  0  0  0  0
    2.9343    1.2227    0.0000 C   0  0  0  0  0  0  0  0  0
    2.2198    0.8102    0.0000 C   0  0  0  0  0  0  0  0  0
    2.2198   -0.0148    0.0000 C   0  0  0  0  0  0  0  0  0
    1.5054   -0.4273    0.0000 C   0  0  0  0  0  0  0  0  0
    3.6488   -0.0148    0.0000 C   0  0  0  0  0  0  0  0  0
    4.3633   -0.4273    0.0000 C   0  0  0  0  0  0  0  0  0
    5.0777   -0.0148    0.0000 C   0  0  0  0  0  0  0  0  0
    5.0777    0.8102    0.0000 C   0  0  0  0  0  0  0  0  0
    2.9343    4.5227    0.0000 C   0  0  0  0  0  0  0  0  0
  1  2  1  0  0  0  0
  2  3  4  0  0  0  0
  2 17  4  0  0  0  0
  3  4  4  0  0  0  0
  4  5  1  0  0  0  0
  4 15  4  0  0  0  0
  5  6  1  0  0  0  0
  6  7  1  0  0  0  0
  7  8  1  0  0  0  0
  8  9  1  0  0  0  0
  8 22  1  0  0  0  0
  9 10  1  0  0  0  0
 10 11  1  0  0  0  0
 11 12  1  0  0  0  0
 12 13  4  0  0  0  0
 12 21  4  0  0  0  0
 13 14  1  0  0  0  0
 13 18  4  0  0  0  0
 14 15  1  0  0  0  0
 15 16  4  0  0  0  0
 16 17  4  0  0  0  0
 18 19  4  0  0  0  0
 19 20  4  0  0  0  0
 20 21  4  0  0  0  0
M  END
>  <Name_Molregno>
388825

>  <DOPAMINE D1>
7.08

>  <DOPAMINE D3>
5.4

>  <DOPAMINE D5>
7.02

$$$$
388826
  Marvin  02231216192D 0   1.00000     0.00000     0

 23 25  0  0  0  0  0  0  0  0999 V2000
    0.3435   -1.6273    0.0000 O   0  0  0  0  0  0  0  0  0
    0.3435   -2.4523    0.0000 C   0  0  0  0  0  0  0  0  0
    1.0580   -1.2148    0.0000 C   0  0  0  0  0  0  0  0  0
    1.0580   -0.3898    0.0000 C   0  0  0  0  0  0  0  0  0
    1.7725    0.0227    0.0000 C   0  0  0  0  0  0  0  0  0
    1.7725    0.8477    0.0000 C   0  0  0  0  0  0  0  0  0
    2.4869    1.2602    0.0000 C   0  0  0  0  0  0  0  0  0
    2.4869    2.0852    0.0000 C   0  0  0  0  0  0  0  0  0
    3.2014    2.4977    0.0000 N   0  0  0  0  0  0  0  0  0
    3.9159    2.0852    0.0000 C   0  0  0  0  0  0  0  0  0
    3.9159    1.2602    0.0000 C   0  0  0  0  0  0  0  0  0
    4.6303    0.8477    0.0000 C   0  0  0  0  0  0  0  0  0
    4.6303    0.0227    0.0000 C   0  0  0  0  0  0  0  0  0
    3.9159   -0.3898    0.0000 C   0  0  0  0  0  0  0  0  0
    3.2014    0.0227    0.0000 C   0  0  0  0  0  0  0  0  0
    2.4869   -0.3898    0.0000 C   0  0  0  0  0  0  0  0  0
    2.4869   -1.2148    0.0000 C   0  0  0  0  0  0  0  0  0
    1.7725   -1.6273    0.0000 C   0  0  0  0  0  0  0  0  0
    3.9159   -1.2148    0.0000 C   0  0  0  0  0  0  0  0  0
    4.6303   -1.6273    0.0000 C   0  0  0  0  0  0  0  0  0
    5.3448   -1.2148    0.0000 C   0  0  0  0  0  0  0  0  0
    5.3448   -0.3898    0.0000 C   0  0  0  0  0  0  0  0  0
    3.2014    3.3227    0.0000 C   0  0  0  0  0  0  0  0  0
  1  2  1  0  0  0  0
  1  3  1  0  0  0  0
  3  4  4  0  0  0  0
  3 18  4  0  0  0  0
  4  5  4  0  0  0  0
  5  6  1  0  0  0  0
  5 16  4  0  0  0  0
  6  7  1  0  0  0  0
  7  8  1  0  0  0  0
  8  9  1  0  0  0  0
  9 10  1  0  0  0  0
  9 23  1  0  0  0  0
 10 11  1  0  0  0  0
 11 12  1  0  0  0  0
 12 13  1  0  0  0  0
 13 14  4  0  0  0  0
 13 22  4  0  0  0  0
 14 15  1  0  0  0  0
 14 19  4  0  0  0  0
 15 16  1  0  0  0  0
 16 17  4  0  0  0  0
 17 18  4  0  0  0  0
 19 20  4  0  0  0  0
 20 21  4  0  0  0  0
 21 22  4  0  0  0  0
M  END
>  <Name_Molregno>
388826

>  <DOPAMINE D1>
7.63

>  <DOPAMINE D3>
5.87

>  <DOPAMINE D5>
7.28

$$$$
388828
  Marvin  02231216192D 0   1.00000     0.00000     0

 22 25  0  0  1  0  0  0  0  0999 V2000
   -1.8111   -3.7737    0.0000 O   0  0  0  0  0  0  0  0  0
   -2.4763   -4.2617    0.0000 C   0  0  0  0  0  0  0  0  0
   -1.9011   -2.9537    0.0000 C   0  0  0  0  0  0  0  0  0
   -1.2358   -2.4657    0.0000 C   0  0  0  0  0  0  0  0  0
   -1.3258   -1.6456    0.0000 C   0  0  0  0  0  0  0  0  0
   -0.5953   -1.2623    0.0000 C   0  0  0  0  0  0  0  0  0
   -0.4396   -0.4521    0.0000 C   0  0  0  0  0  0  0  0  0
   -0.9759    0.1748    0.0000 C   0  0  0  0  0  0  0  0  0
   -1.8004    0.1464    0.0000 N   0  0  0  0  0  0  0  0  0
   -2.2922   -0.5160    0.0000 C   0  0  0  0  0  0  0  0  0
   -2.0810   -1.3135    0.0000 C   0  0  0  0  0  0  0  0  0
   -2.7462   -1.8015    0.0000 C   0  0  0  0  0  0  0  0  0
   -2.6563   -2.6216    0.0000 C   0  0  0  0  0  0  0  0  0
   -3.1167   -0.5445    0.0000 C   0  0  0  0  0  0  0  0  0
   -3.6531    0.0824    0.0000 C   0  0  0  0  0  0  0  0  0
   -3.4973    0.8926    0.0000 C   0  0  0  0  0  0  0  0  0
   -2.7668    1.2760    0.0000 C   0  0  0  0  0  0  0  0  0
   -2.0116    0.9439    0.0000 C   0  0  0  0  0  0  0  0  0
   -4.4641   -0.0686    0.0000 C   0  0  0  0  0  0  0  0  0
   -4.7389   -0.8465    0.0000 C   0  0  0  0  0  0  0  0  0
   -4.2025   -1.4734    0.0000 C   0  0  0  0  0  0  0  0  0
   -3.3915   -1.3224    0.0000 C   0  0  0  0  0  0  0  0  0
  1  2  1  0  0  0  0
  1  3  1  0  0  0  0
  3  4  4  0  0  0  0
  3 13  4  0  0  0  0
  4  5  4  0  0  0  0
  5  6  1  0  0  0  0
  5 11  4  0  0  0  0
  6  7  1  0  0  0  0
  7  8  1  0  0  0  0
  8  9  1  0  0  0  0
  9 10  1  0  0  0  0
  9 18  1  0  0  0  0
 10 11  1  0  0  0  0
 10 14  1  0  0  0  0
 11 12  4  0  0  0  0
 12 13  4  0  0  0  0
 14 15  4  0  0  0  0
 14 22  4  0  0  0  0
 15 16  1  0  0  0  0
 15 19  4  0  0  0  0
 16 17  1  0  0  0  0
 17 18  1  0  0  0  0
 19 20  4  0  0  0  0
 20 21  4  0  0  0  0
 21 22  4  0  0  0  0
M  END
>  <Name_Molregno>
388828

>  <DOPAMINE D1>
5

>  <DOPAMINE D3>
5

>  <DOPAMINE D5>
5

$$$$
388830
  Marvin  02231216192D 0   1.00000     0.00000     0

 20 22  0  0  0  0  0  0  0  0999 V2000
    0.3919   -1.1491    0.0000 O   0  0  0  0  0  0  0  0  0
    1.1064   -0.7366    0.0000 C   0  0  0  0  0  0  0  0  0
    1.1064    0.0884    0.0000 C   0  0  0  0  0  0  0  0  0
    1.8209    0.5009    0.0000 C   0  0  0  0  0  0  0  0  0
    1.8209    1.3259    0.0000 C   0  0  0  0  0  0  0  0  0
    2.5824    1.8108    0.0000 C   0  0  0  0  0  0  0  0  0
    2.8373    2.5955    0.0000 C   0  0  0  0  0  0  0  0  0
    3.6623    2.5955    0.0000 N   0  0  0  0  0  0  0  0  0
    3.9172    1.8108    0.0000 C   0  0  0  0  0  0  0  0  0
    4.6788    1.3259    0.0000 C   0  0  0  0  0  0  0  0  0
    4.6788    0.5009    0.0000 C   0  0  0  0  0  0  0  0  0
    3.9643    0.0884    0.0000 C   0  0  0  0  0  0  0  0  0
    3.2498    0.5009    0.0000 C   0  0  0  0  0  0  0  0  0
    2.5354    0.0884    0.0000 C   0  0  0  0  0  0  0  0  0
    2.5354   -0.7366    0.0000 C   0  0  0  0  0  0  0  0  0
    1.8209   -1.1491    0.0000 C   0  0  0  0  0  0  0  0  0
    3.9643   -0.7366    0.0000 C   0  0  0  0  0  0  0  0  0
    4.6788   -1.1491    0.0000 C   0  0  0  0  0  0  0  0  0
    5.3932   -0.7366    0.0000 C   0  0  0  0  0  0  0  0  0
    5.3932    0.0884    0.0000 C   0  0  0  0  0  0  0  0  0
  1  2  1  0  0  0  0
  2  3  4  0  0  0  0
  2 16  4  0  0  0  0
  3  4  4  0  0  0  0
  4  5  1  0  0  0  0
  4 14  4  0  0  0  0
  5  6  1  0  0  0  0
  6  7  1  0  0  0  0
  7  8  1  0  0  0  0
  8  9  1  0  0  0  0
  9 10  1  0  0  0  0
 10 11  1  0  0  0  0
 11 12  4  0  0  0  0
 11 20  4  0  0  0  0
 12 13  1  0  0  0  0
 12 17  4  0  0  0  0
 13 14  1  0  0  0  0
 14 15  4  0  0  0  0
 15 16  4  0  0  0  0
 17 18  4  0  0  0  0
 18 19  4  0  0  0  0
 19 20  4  0  0  0  0
M  END
>  <Name_Molregno>
388830

>  <DOPAMINE D1>
6.54

>  <DOPAMINE D3>
5.16

>  <DOPAMINE D5>
6.5

$$$$
388833
  Marvin  02231216192D 0   1.00000     0.00000     0

 22 24  0  0  0  0  0  0  0  0999 V2000
    6.9053    1.3157    0.0000 Cl  0  0  0  0  0  0  0  0  0
    6.0895    1.4387    0.0000 C   0  0  0  0  0  0  0  0  0
    5.5751    0.7936    0.0000 C   0  0  0  0  0  0  0  0  0
    4.7594    0.9166    0.0000 C   0  0  0  0  0  0  0  0  0
    4.4579    1.6846    0.0000 C   0  0  0  0  0  0  0  0  0
    4.9723    2.3296    0.0000 C   0  0  0  0  0  0  0  0  0
    5.7881    2.2066    0.0000 C   0  0  0  0  0  0  0  0  0
    6.3025    2.8516    0.0000 O   0  0  0  0  0  0  0  0  0
    6.0011    3.6196    0.0000 C   0  0  0  0  0  0  0  0  0
    4.2450    0.2716    0.0000 C   0  0  0  0  0  0  0  0  0
    3.4292    0.3946    0.0000 C   0  0  0  0  0  0  0  0  0
    2.9148   -0.2505    0.0000 N   0  0  0  0  0  0  0  0  0
    3.2728   -0.9938    0.0000 C   0  0  0  0  0  0  0  0  0
    2.9148   -1.7371    0.0000 C   0  0  0  0  0  0  0  0  0
    2.1105   -1.9206    0.0000 C   0  0  0  0  0  0  0  0  0
    1.4655   -1.4063    0.0000 C   0  0  0  0  0  0  0  0  0
    1.4655   -0.5813    0.0000 C   0  0  0  0  0  0  0  0  0
    2.1105   -0.0669    0.0000 C   0  0  0  0  0  0  0  0  0
    0.7510   -0.1688    0.0000 C   0  0  0  0  0  0  0  0  0
    0.0365   -0.5813    0.0000 C   0  0  0  0  0  0  0  0  0
    0.0365   -1.4063    0.0000 C   0  0  0  0  0  0  0  0  0
    0.7510   -1.8188    0.0000 C   0  0  0  0  0  0  0  0  0
  1  2  1  0  0  0  0
  2  3  4  0  0  0  0
  2  7  4  0  0  0  0
  3  4  4  0  0  0  0
  4  5  4  0  0  0  0
  4 10  1  0  0  0  0
  5  6  4  0  0  0  0
  6  7  4  0  0  0  0
  7  8  1  0  0  0  0
  8  9  1  0  0  0  0
 10 11  1  0  0  0  0
 11 12  1  0  0  0  0
 12 13  1  0  0  0  0
 12 18  1  0  0  0  0
 13 14  1  0  0  0  0
 14 15  1  0  0  0  0
 15 16  1  0  0  0  0
 16 17  4  0  0  0  0
 16 22  4  0  0  0  0
 17 18  1  0  0  0  0
 17 19  4  0  0  0  0
 19 20  4  0  0  0  0
 20 21  4  0  0  0  0
 21 22  4  0  0  0  0
M  END
>  <Name_Molregno>
388833

>  <DOPAMINE D1>
5

>  <DOPAMINE D3>
5

>  <DOPAMINE D5>
5

$$$$
388835
  Marvin  02231216192D 0   1.00000     0.00000     0

 22 25  0  0  1  0  0  0  0  0999 V2000
    5.2148   -0.9932    0.0000 Cl  0  0  0  0  0  0  0  0  0
    4.5505   -0.5040    0.0000 C   0  0  0  0  0  0  0  0  0
    4.6420    0.3159    0.0000 C   0  0  0  0  0  0  0  0  0
    3.9777    0.8051    0.0000 C   0  0  0  0  0  0  0  0  0
    4.0693    1.6251    0.0000 C   0  0  0  0  0  0  0  0  0
    3.4050    2.1143    0.0000 C   0  0  0  0  0  0  0  0  0
    2.6491    1.7836    0.0000 N   0  0  0  0  0  0  0  0  0
    2.5576    0.9637    0.0000 C   0  0  0  0  0  0  0  0  0
    3.2219    0.4745    0.0000 C   0  0  0  0  0  0  0  0  0
    3.1304   -0.3455    0.0000 C   0  0  0  0  0  0  0  0  0
    3.7947   -0.8347    0.0000 C   0  0  0  0  0  0  0  0  0
    3.7032   -1.6546    0.0000 O   0  0  0  0  0  0  0  0  0
    2.9473   -1.9853    0.0000 C   0  0  0  0  0  0  0  0  0
    1.8595    0.5240    0.0000 C   0  0  0  0  0  0  0  0  0
    1.0805    0.7957    0.0000 C   0  0  0  0  0  0  0  0  0
    0.8072    1.5741    0.0000 C   0  0  0  0  0  0  0  0  0
    1.2454    2.2731    0.0000 C   0  0  0  0  0  0  0  0  0
    2.0652    2.3663    0.0000 C   0  0  0  0  0  0  0  0  0
    0.4558    0.2569    0.0000 C   0  0  0  0  0  0  0  0  0
    0.6100   -0.5535    0.0000 C   0  0  0  0  0  0  0  0  0
    1.3890   -0.8252    0.0000 C   0  0  0  0  0  0  0  0  0
    2.0137   -0.2864    0.0000 C   0  0  0  0  0  0  0  0  0
  1  2  1  0  0  0  0
  2  3  4  0  0  0  0
  2 11  4  0  0  0  0
  3  4  4  0  0  0  0
  4  5  1  0  0  0  0
  4  9  4  0  0  0  0
  5  6  1  0  0  0  0
  6  7  1  0  0  0  0
  7  8  1  0  0  0  0
  7 18  1  0  0  0  0
  8  9  1  0  0  0  0
  8 14  1  0  0  0  0
  9 10  4  0  0  0  0
 10 11  4  0  0  0  0
 11 12  1  0  0  0  0
 12 13  1  0  0  0  0
 14 15  4  0  0  0  0
 14 22  4  0  0  0  0
 15 16  1  0  0  0  0
 15 19  4  0  0  0  0
 16 17  1  0  0  0  0
 17 18  1  0  0  0  0
 19 20  4  0  0  0  0
 20 21  4  0  0  0  0
 21 22  4  0  0  0  0
M  END
>  <Name_Molregno>
388835

>  <DOPAMINE D1>
5

>  <DOPAMINE D3>
5

>  <DOPAMINE D5>
5

$$$$
388837
  Marvin  02231216192D 0   1.00000     0.00000     0

 22 24  0  0  0  0  0  0  0  0999 V2000
   -3.9149    0.4801    0.0000 O   0  0  0  0  0  0  0  0  0
   -4.6986    0.7377    0.0000 C   0  0  0  0  0  0  0  0  0
   -3.7460   -0.3274    0.0000 C   0  0  0  0  0  0  0  0  0
   -2.9623   -0.5850    0.0000 C   0  0  0  0  0  0  0  0  0
   -2.7934   -1.3925    0.0000 C   0  0  0  0  0  0  0  0  0
   -1.9243   -1.6369    0.0000 C   0  0  0  0  0  0  0  0  0
   -1.1695   -1.3038    0.0000 C   0  0  0  0  0  0  0  0  0
   -0.6195   -1.9187    0.0000 C   0  0  0  0  0  0  0  0  0
   -1.0344   -2.6318    0.0000 C   0  0  0  0  0  0  0  0  0
   -0.8882   -3.5227    0.0000 C   0  0  0  0  0  0  0  0  0
   -1.5031   -4.0727    0.0000 C   0  0  0  0  0  0  0  0  0
   -2.2869   -3.8151    0.0000 N   0  0  0  0  0  0  0  0  0
   -2.4557   -3.0076    0.0000 C   0  0  0  0  0  0  0  0  0
   -3.2395   -2.7501    0.0000 C   0  0  0  0  0  0  0  0  0
   -3.4084   -1.9425    0.0000 C   0  0  0  0  0  0  0  0  0
   -4.1921   -1.6850    0.0000 C   0  0  0  0  0  0  0  0  0
   -4.3610   -0.8774    0.0000 C   0  0  0  0  0  0  0  0  0
   -2.9018   -4.3651    0.0000 C   0  0  0  0  0  0  0  0  0
    0.1880   -1.7499    0.0000 C   0  0  0  0  0  0  0  0  0
    0.4455   -0.9661    0.0000 C   0  0  0  0  0  0  0  0  0
   -0.1044   -0.3512    0.0000 C   0  0  0  0  0  0  0  0  0
   -0.9120   -0.5200    0.0000 C   0  0  0  0  0  0  0  0  0
  1  2  1  0  0  0  0
  1  3  1  0  0  0  0
  3  4  4  0  0  0  0
  3 17  4  0  0  0  0
  4  5  4  0  0  0  0
  5  6  1  0  0  0  0
  5 15  4  0  0  0  0
  6  7  1  0  0  0  0
  7  8  4  0  0  0  0
  7 22  4  0  0  0  0
  8  9  1  0  0  0  0
  8 19  4  0  0  0  0
  9 10  1  0  0  0  0
 10 11  1  0  0  0  0
 11 12  1  0  0  0  0
 12 13  1  0  0  0  0
 12 18  1  0  0  0  0
 13 14  1  0  0  0  0
 14 15  1  0  0  0  0
 15 16  4  0  0  0  0
 16 17  4  0  0  0  0
 19 20  4  0  0  0  0
 20 21  4  0  0  0  0
 21 22  4  0  0  0  0
M  END
>  <Name_Molregno>
388837

>  <DOPAMINE D1>
6.86

>  <DOPAMINE D3>
4.62

>  <DOPAMINE D5>
7.12

$$$$
388839
  Marvin  02231216192D 0   1.00000     0.00000     0

 21 23  0  0  0  0  0  0  0  0999 V2000
   -4.1818    0.5216    0.0000 O   0  0  0  0  0  0  0  0  0
   -4.0130   -0.2859    0.0000 C   0  0  0  0  0  0  0  0  0
   -3.2292   -0.5435    0.0000 C   0  0  0  0  0  0  0  0  0
   -3.0604   -1.3510    0.0000 C   0  0  0  0  0  0  0  0  0
   -2.1913   -1.5953    0.0000 C   0  0  0  0  0  0  0  0  0
   -1.4365   -1.2623    0.0000 C   0  0  0  0  0  0  0  0  0
   -0.8865   -1.8772    0.0000 C   0  0  0  0  0  0  0  0  0
   -1.3014   -2.5903    0.0000 C   0  0  0  0  0  0  0  0  0
   -1.1552   -3.4812    0.0000 C   0  0  0  0  0  0  0  0  0
   -1.7701   -4.0312    0.0000 C   0  0  0  0  0  0  0  0  0
   -2.5539   -3.7736    0.0000 N   0  0  0  0  0  0  0  0  0
   -2.7227   -2.9661    0.0000 C   0  0  0  0  0  0  0  0  0
   -3.5065   -2.7085    0.0000 C   0  0  0  0  0  0  0  0  0
   -3.6753   -1.9010    0.0000 C   0  0  0  0  0  0  0  0  0
   -4.4591   -1.6434    0.0000 C   0  0  0  0  0  0  0  0  0
   -4.6279   -0.8359    0.0000 C   0  0  0  0  0  0  0  0  0
   -3.1688   -4.3236    0.0000 C   0  0  0  0  0  0  0  0  0
   -0.0790   -1.7084    0.0000 C   0  0  0  0  0  0  0  0  0
    0.1786   -0.9246    0.0000 C   0  0  0  0  0  0  0  0  0
   -0.3714   -0.3097    0.0000 C   0  0  0  0  0  0  0  0  0
   -1.1789   -0.4785    0.0000 C   0  0  0  0  0  0  0  0  0
  1  2  1  0  0  0  0
  2  3  4  0  0  0  0
  2 16  4  0  0  0  0
  3  4  4  0  0  0  0
  4  5  1  0  0  0  0
  4 14  4  0  0  0  0
  5  6  1  0  0  0  0
  6  7  4  0  0  0  0
  6 21  4  0  0  0  0
  7  8  1  0  0  0  0
  7 18  4  0  0  0  0
  8  9  1  0  0  0  0
  9 10  1  0  0  0  0
 10 11  1  0  0  0  0
 11 12  1  0  0  0  0
 11 17  1  0  0  0  0
 12 13  1  0  0  0  0
 13 14  1  0  0  0  0
 14 15  4  0  0  0  0
 15 16  4  0  0  0  0
 18 19  4  0  0  0  0
 19 20  4  0  0  0  0
 20 21  4  0  0  0  0
M  END
>  <Name_Molregno>
388839

>  <DOPAMINE D1>
7.15

>  <DOPAMINE D3>
6.11

>  <DOPAMINE D5>
7.16

$$$$
388843
  Marvin  02231216192D 0   1.00000     0.00000     0

 24 26  0  0  0  0  0  0  0  0999 V2000
    0.5307    3.8725    0.0000 O   0  0  0  0  0  0  0  0  0
   -0.2531    4.1300    0.0000 C   0  0  0  0  0  0  0  0  0
    0.6995    3.0649    0.0000 C   0  0  0  0  0  0  0  0  0
    1.4833    2.8074    0.0000 C   0  0  0  0  0  0  0  0  0
    1.6521    1.9998    0.0000 C   0  0  0  0  0  0  0  0  0
    2.5212    1.7555    0.0000 C   0  0  0  0  0  0  0  0  0
    3.2760    2.0886    0.0000 C   0  0  0  0  0  0  0  0  0
    3.8260    1.4736    0.0000 C   0  0  0  0  0  0  0  0  0
    3.4111    0.7605    0.0000 C   0  0  0  0  0  0  0  0  0
    3.5573   -0.1303    0.0000 C   0  0  0  0  0  0  0  0  0
    2.9424   -0.6803    0.0000 C   0  0  0  0  0  0  0  0  0
    2.1586   -0.4228    0.0000 N   0  0  0  0  0  0  0  0  0
    1.9898    0.3848    0.0000 C   0  0  0  0  0  0  0  0  0
    1.2060    0.6423    0.0000 C   0  0  0  0  0  0  0  0  0
    1.0372    1.4499    0.0000 C   0  0  0  0  0  0  0  0  0
    0.2534    1.7074    0.0000 C   0  0  0  0  0  0  0  0  0
    0.0846    2.5149    0.0000 C   0  0  0  0  0  0  0  0  0
   -0.6992    2.7725    0.0000 O   0  0  0  0  0  0  0  0  0
   -1.3141    2.2225    0.0000 C   0  0  0  0  0  0  0  0  0
    1.5437   -0.9728    0.0000 C   0  0  0  0  0  0  0  0  0
    4.6335    1.6425    0.0000 C   0  0  0  0  0  0  0  0  0
    4.8911    2.4262    0.0000 C   0  0  0  0  0  0  0  0  0
    4.3411    3.0412    0.0000 C   0  0  0  0  0  0  0  0  0
    3.5336    2.8723    0.0000 C   0  0  0  0  0  0  0  0  0
  1  2  1  0  0  0  0
  1  3  1  0  0  0  0
  3  4  4  0  0  0  0
  3 17  4  0  0  0  0
  4  5  4  0  0  0  0
  5  6  1  0  0  0  0
  5 15  4  0  0  0  0
  6  7  1  0  0  0  0
  7  8  4  0  0  0  0
  7 24  4  0  0  0  0
  8  9  1  0  0  0  0
  8 21  4  0  0  0  0
  9 10  1  0  0  0  0
 10 11  1  0  0  0  0
 11 12  1  0  0  0  0
 12 13  1  0  0  0  0
 12 20  1  0  0  0  0
 13 14  1  0  0  0  0
 14 15  1  0  0  0  0
 15 16  4  0  0  0  0
 16 17  4  0  0  0  0
 17 18  1  0  0  0  0
 18 19  1  0  0  0  0
 21 22  4  0  0  0  0
 22 23  4  0  0  0  0
 23 24  4  0  0  0  0
M  END
>  <Name_Molregno>
388843

>  <DOPAMINE D1>
6.24

>  <DOPAMINE D3>
4.83

>  <DOPAMINE D5>
6.29

$$$$
389011
  Marvin  02231216192D 0   1.00000     0.00000     0

 25 26  0  0  1  0  0  0  0  0999 V2000
   -2.9244    1.8604    0.0000 S   0  0  0  0  0  0  0  0  0
   -3.7494    1.8604    0.0000 O   0  0  0  0  0  0  0  0  0
   -2.0994    1.8604    0.0000 O   0  0  0  0  0  0  0  0  0
   -2.9244    2.6854    0.0000 C   0  0  0  0  0  0  0  0  0
   -3.6388    3.0979    0.0000 C   0  0  0  0  0  0  0  0  0
   -2.9244    1.0354    0.0000 C   0  0  0  0  0  0  0  0  0
   -2.2099    0.6229    0.0000 C   0  0  0  0  0  0  0  0  0
   -2.2099   -0.2021    0.0000 C   0  0  0  0  0  0  0  0  0
   -1.4954   -0.6146    0.0000 C   0  0  0  0  0  0  0  0  0
   -0.7810   -0.2021    0.0000 O   0  0  0  0  0  0  0  0  0
   -1.4954   -1.4396    0.0000 N   0  0  0  0  0  0  0  0  0
   -0.7810   -1.8521    0.0000 C   0  0  0  0  0  0  0  0  0
   -0.7810   -2.6771    0.0000 C   0  0  0  0  0  0  0  0  0
   -0.1135   -3.1620    0.0000 N   0  0  0  0  0  0  0  0  0
   -0.3685   -3.9466    0.0000 C   0  0  0  0  0  0  0  0  0
   -1.1935   -3.9466    0.0000 C   0  0  0  0  0  0  0  0  0
   -1.4484   -3.1620    0.0000 C   0  0  0  0  0  0  0  0  0
    0.6711   -2.9071    0.0000 C   0  0  0  0  0  0  0  0  0
    1.2842   -3.4591    0.0000 C   0  0  0  0  0  0  0  0  0
   -2.9244   -0.6146    0.0000 C   0  0  0  0  0  0  0  0  0
   -2.9244   -1.4396    0.0000 O   0  0  0  0  0  0  0  0  0
   -3.6388   -1.8521    0.0000 C   0  0  0  0  0  0  0  0  0
   -3.6388   -0.2021    0.0000 C   0  0  0  0  0  0  0  0  0
   -3.6388    0.6229    0.0000 C   0  0  0  0  0  0  0  0  0
   -4.3533    1.0354    0.0000 N   0  0  0  0  0  0  0  0  0
  1  2  2  0  0  0  0
  1  3  2  0  0  0  0
  1  4  1  0  0  0  0
  1  6  1  0  0  0  0
  4  5  1  0  0  0  0
  6  7  4  0  0  0  0
  6 24  4  0  0  0  0
  7  8  4  0  0  0  0
  8  9  1  0  0  0  0
  8 20  4  0  0  0  0
  9 10  2  0  0  0  0
  9 11  1  0  0  0  0
 11 12  1  0  0  0  0
 12 13  1  0  0  0  0
 13 14  1  0  0  0  0
 13 17  1  0  0  0  0
 14 15  1  0  0  0  0
 14 18  1  0  0  0  0
 15 16  1  0  0  0  0
 16 17  1  0  0  0  0
 18 19  1  0  0  0  0
 20 21  1  0  0  0  0
 20 23  4  0  0  0  0
 21 22  1  0  0  0  0
 23 24  4  0  0  0  0
 24 25  1  0  0  0  0
M  END
>  <Name_Molregno>
389011

>  <5-HT1A>
5

>  <5-HT1B>
5.76

>  <5-HT1D>
5.87

>  <5-HT1E>
5

>  <5-HT2A>
5.64

>  <5-HT2C>
5

>  <5-HT3>
5

>  <5-HT5>
5

>  <5-HT6>
5.38

>  <5-HT7>
7.47

>  <Alpha-1A>
5

>  <Alpha-1B>
5

>  <Alpha-2A>
5.95

>  <Alpha-2C>
5.81

>  <Beta-1>
5

>  <Beta-2>
5

>  <DOPAMINE D1>
5

>  <DOPAMINE D2>
8.71

>  <DOPAMINE D3>
8.51

>  <DOPAMINE D4>
5.63

>  <DOPAMINE D5>
5

>  <Dopamine transporter>
5

>  <HISTAMINE H1>
5

>  <HISTAMINE H2>
5

>  <HISTAMINE H4>
5

>  <Muscarinic acetylcholine receptor M1>
5

>  <Muscarinic acetylcholine receptor M2>
5

>  <Muscarinic acetylcholine receptor M3>
5

>  <Muscarinic acetylcholine receptor M4>
5

>  <Muscarinic acetylcholine receptor M5>
5

>  <Norepinephrine transporter>
5

>  <Serotonin transporter>
5

$$$$
404485
  Marvin  02231216192D 0   1.00000     0.00000     0

 28 31  0  0  0  0  0  0  0  0999 V2000
    5.2539    0.7371    0.0000 S   0  0  0  0  0  0  0  0  0
    4.5394    1.1496    0.0000 O   0  0  0  0  0  0  0  0  0
    5.5894    1.4908    0.0000 O   0  0  0  0  0  0  0  0  0
    4.7689    0.0697    0.0000 N   0  0  0  0  0  0  0  0  0
    3.9439    0.0697    0.0000 C   0  0  0  0  0  0  0  0  0
    3.5314   -0.6448    0.0000 C   0  0  0  0  0  0  0  0  0
    2.7064   -0.6448    0.0000 C   0  0  0  0  0  0  0  0  0
    2.2939   -1.3593    0.0000 C   0  0  0  0  0  0  0  0  0
    1.4689   -1.3593    0.0000 N   0  0  0  0  0  0  0  0  0
    1.0564   -2.0737    0.0000 C   0  0  0  0  0  0  0  0  0
    0.2314   -2.0737    0.0000 C   0  0  0  0  0  0  0  0  0
   -0.1811   -1.3593    0.0000 N   0  0  0  0  0  0  0  0  0
    0.2314   -0.6448    0.0000 C   0  0  0  0  0  0  0  0  0
    1.0564   -0.6448    0.0000 C   0  0  0  0  0  0  0  0  0
   -1.0061   -1.3593    0.0000 C   0  0  0  0  0  0  0  0  0
   -1.4186   -2.0737    0.0000 C   0  0  0  0  0  0  0  0  0
   -2.2436   -2.0737    0.0000 C   0  0  0  0  0  0  0  0  0
   -2.6561   -1.3593    0.0000 C   0  0  0  0  0  0  0  0  0
   -2.2436   -0.6448    0.0000 C   0  0  0  0  0  0  0  0  0
   -1.4186   -0.6448    0.0000 C   0  0  0  0  0  0  0  0  0
    5.2539   -0.5978    0.0000 C   0  0  0  0  0  0  0  0  0
    4.9989   -1.3824    0.0000 O   0  0  0  0  0  0  0  0  0
    6.0385   -0.3428    0.0000 C   0  0  0  0  0  0  0  0  0
    6.0385    0.4822    0.0000 C   0  0  0  0  0  0  0  0  0
    6.7529    0.8947    0.0000 C   0  0  0  0  0  0  0  0  0
    7.4674    0.4822    0.0000 C   0  0  0  0  0  0  0  0  0
    7.4674   -0.3428    0.0000 C   0  0  0  0  0  0  0  0  0
    6.7529   -0.7553    0.0000 C   0  0  0  0  0  0  0  0  0
  1  2  2  0  0  0  0
  1  3  2  0  0  0  0
  1  4  1  0  0  0  0
  1 24  1  0  0  0  0
  4  5  1  0  0  0  0
  4 21  1  0  0  0  0
  5  6  1  0  0  0  0
  6  7  1  0  0  0  0
  7  8  1  0  0  0  0
  8  9  1  0  0  0  0
  9 10  1  0  0  0  0
  9 14  1  0  0  0  0
 10 11  1  0  0  0  0
 11 12  1  0  0  0  0
 12 13  1  0  0  0  0
 12 15  1  0  0  0  0
 13 14  1  0  0  0  0
 15 16  4  0  0  0  0
 15 20  4  0  0  0  0
 16 17  4  0  0  0  0
 17 18  4  0  0  0  0
 18 19  4  0  0  0  0
 19 20  4  0  0  0  0
 21 22  2  0  0  0  0
 21 23  1  0  0  0  0
 23 24  4  0  0  0  0
 23 28  4  0  0  0  0
 24 25  4  0  0  0  0
 25 26  4  0  0  0  0
 26 27  4  0  0  0  0
 27 28  4  0  0  0  0
M  END
>  <Name_Molregno>
404485

>  <DOPAMINE D2>
7.91

>  <DOPAMINE D3>
7.18

>  <DOPAMINE D5>
6.1

$$$$
404486
  Marvin  02231216192D 0   1.00000     0.00000     0

 29 32  0  0  0  0  0  0  0  0999 V2000
   -0.1634    0.0928    0.0000 Cl  0  0  0  0  0  0  0  0  0
    0.6616    0.0928    0.0000 C   0  0  0  0  0  0  0  0  0
    1.0741    0.8072    0.0000 C   0  0  0  0  0  0  0  0  0
    1.8991    0.8072    0.0000 C   0  0  0  0  0  0  0  0  0
    2.3116    0.0928    0.0000 C   0  0  0  0  0  0  0  0  0
    3.1366    0.0928    0.0000 N   0  0  0  0  0  0  0  0  0
    3.5491    0.8072    0.0000 C   0  0  0  0  0  0  0  0  0
    4.3741    0.8072    0.0000 C   0  0  0  0  0  0  0  0  0
    4.7866    0.0928    0.0000 N   0  0  0  0  0  0  0  0  0
    4.3741   -0.6217    0.0000 C   0  0  0  0  0  0  0  0  0
    3.5491   -0.6217    0.0000 C   0  0  0  0  0  0  0  0  0
    5.6116    0.0928    0.0000 C   0  0  0  0  0  0  0  0  0
    6.0241    0.8072    0.0000 C   0  0  0  0  0  0  0  0  0
    6.8491    0.8072    0.0000 C   0  0  0  0  0  0  0  0  0
    7.2616    1.5217    0.0000 C   0  0  0  0  0  0  0  0  0
    8.0866    1.5217    0.0000 N   0  0  0  0  0  0  0  0  0
    8.5715    0.8543    0.0000 S   0  0  0  0  0  0  0  0  0
    7.8570    0.4418    0.0000 O   0  0  0  0  0  0  0  0  0
    8.9071    0.1006    0.0000 O   0  0  0  0  0  0  0  0  0
    9.3561    1.1092    0.0000 C   0  0  0  0  0  0  0  0  0
    9.3561    1.9342    0.0000 C   0  0  0  0  0  0  0  0  0
   10.0706    2.3467    0.0000 C   0  0  0  0  0  0  0  0  0
   10.7851    1.9342    0.0000 C   0  0  0  0  0  0  0  0  0
   10.7851    1.1092    0.0000 C   0  0  0  0  0  0  0  0  0
   10.0706    0.6967    0.0000 C   0  0  0  0  0  0  0  0  0
    8.5715    2.1891    0.0000 C   0  0  0  0  0  0  0  0  0
    8.3166    2.9738    0.0000 O   0  0  0  0  0  0  0  0  0
    1.8991   -0.6217    0.0000 C   0  0  0  0  0  0  0  0  0
    1.0741   -0.6217    0.0000 C   0  0  0  0  0  0  0  0  0
  1  2  1  0  0  0  0
  2  3  4  0  0  0  0
  2 29  4  0  0  0  0
  3  4  4  0  0  0  0
  4  5  4  0  0  0  0
  5  6  1  0  0  0  0
  5 28  4  0  0  0  0
  6  7  1  0  0  0  0
  6 11  1  0  0  0  0
  7  8  1  0  0  0  0
  8  9  1  0  0  0  0
  9 10  1  0  0  0  0
  9 12  1  0  0  0  0
 10 11  1  0  0  0  0
 12 13  1  0  0  0  0
 13 14  1  0  0  0  0
 14 15  1  0  0  0  0
 15 16  1  0  0  0  0
 16 17  1  0  0  0  0
 16 26  1  0  0  0  0
 17 18  2  0  0  0  0
 17 19  2  0  0  0  0
 17 20  1  0  0  0  0
 20 21  4  0  0  0  0
 20 25  4  0  0  0  0
 21 22  4  0  0  0  0
 21 26  1  0  0  0  0
 22 23  4  0  0  0  0
 23 24  4  0  0  0  0
 24 25  4  0  0  0  0
 26 27  2  0  0  0  0
 28 29  4  0  0  0  0
M  END
>  <Name_Molregno>
404486

>  <DOPAMINE D2>
5.88

>  <DOPAMINE D3>
6.54

>  <DOPAMINE D5>
6.64

$$$$
404487
  Marvin  02231216192D 0   1.00000     0.00000     0

 32 35  0  0  0  0  0  0  0  0999 V2000
    6.6619    0.9459    0.0000 S   0  0  0  0  0  0  0  0  0
    5.9475    1.3584    0.0000 O   0  0  0  0  0  0  0  0  0
    6.9975    1.6996    0.0000 O   0  0  0  0  0  0  0  0  0
    6.1770    0.2785    0.0000 N   0  0  0  0  0  0  0  0  0
    5.3520    0.2785    0.0000 C   0  0  0  0  0  0  0  0  0
    4.9395   -0.4360    0.0000 C   0  0  0  0  0  0  0  0  0
    4.1145   -0.4360    0.0000 C   0  0  0  0  0  0  0  0  0
    3.7020   -1.1505    0.0000 C   0  0  0  0  0  0  0  0  0
    2.8770   -1.1505    0.0000 N   0  0  0  0  0  0  0  0  0
    2.4645   -1.8650    0.0000 C   0  0  0  0  0  0  0  0  0
    1.6395   -1.8650    0.0000 C   0  0  0  0  0  0  0  0  0
    1.2270   -1.1505    0.0000 N   0  0  0  0  0  0  0  0  0
    1.6395   -0.4360    0.0000 C   0  0  0  0  0  0  0  0  0
    2.4645   -0.4360    0.0000 C   0  0  0  0  0  0  0  0  0
    0.4020   -1.1505    0.0000 C   0  0  0  0  0  0  0  0  0
   -0.0105   -1.8650    0.0000 C   0  0  0  0  0  0  0  0  0
   -0.8355   -1.8650    0.0000 C   0  0  0  0  0  0  0  0  0
   -1.2480   -1.1505    0.0000 C   0  0  0  0  0  0  0  0  0
   -0.8355   -0.4360    0.0000 C   0  0  0  0  0  0  0  0  0
   -0.0105   -0.4360    0.0000 C   0  0  0  0  0  0  0  0  0
   -1.2480   -2.5794    0.0000 C   0  0  0  0  0  0  0  0  0
   -1.6605   -3.2939    0.0000 F   0  0  0  0  0  0  0  0  0
   -0.5335   -2.9919    0.0000 F   0  0  0  0  0  0  0  0  0
   -1.9625   -2.1669    0.0000 F   0  0  0  0  0  0  0  0  0
    6.6619   -0.3890    0.0000 C   0  0  0  0  0  0  0  0  0
    6.4070   -1.1736    0.0000 O   0  0  0  0  0  0  0  0  0
    7.4466   -0.1340    0.0000 C   0  0  0  0  0  0  0  0  0
    7.4466    0.6910    0.0000 C   0  0  0  0  0  0  0  0  0
    8.1610    1.1035    0.0000 C   0  0  0  0  0  0  0  0  0
    8.8755    0.6910    0.0000 C   0  0  0  0  0  0  0  0  0
    8.8755   -0.1340    0.0000 C   0  0  0  0  0  0  0  0  0
    8.1610   -0.5465    0.0000 C   0  0  0  0  0  0  0  0  0
  1  2  2  0  0  0  0
  1  3  2  0  0  0  0
  1  4  1  0  0  0  0
  1 28  1  0  0  0  0
  4  5  1  0  0  0  0
  4 25  1  0  0  0  0
  5  6  1  0  0  0  0
  6  7  1  0  0  0  0
  7  8  1  0  0  0  0
  8  9  1  0  0  0  0
  9 10  1  0  0  0  0
  9 14  1  0  0  0  0
 10 11  1  0  0  0  0
 11 12  1  0  0  0  0
 12 13  1  0  0  0  0
 12 15  1  0  0  0  0
 13 14  1  0  0  0  0
 15 16  4  0  0  0  0
 15 20  4  0  0  0  0
 16 17  4  0  0  0  0
 17 18  4  0  0  0  0
 17 21  1  0  0  0  0
 18 19  4  0  0  0  0
 19 20  4  0  0  0  0
 21 22  1  0  0  0  0
 21 23  1  0  0  0  0
 21 24  1  0  0  0  0
 25 26  2  0  0  0  0
 25 27  1  0  0  0  0
 27 28  4  0  0  0  0
 27 32  4  0  0  0  0
 28 29  4  0  0  0  0
 29 30  4  0  0  0  0
 30 31  4  0  0  0  0
 31 32  4  0  0  0  0
M  END
>  <Name_Molregno>
404487

>  <DOPAMINE D2>
5.97

>  <DOPAMINE D3>
6.97

>  <DOPAMINE D5>
5.76

$$$$
404488
  Marvin  02231216192D 0   1.00000     0.00000     0

 30 33  0  0  0  0  0  0  0  0999 V2000
    5.7993    0.5474    0.0000 S   0  0  0  0  0  0  0  0  0
    5.0848    0.9599    0.0000 O   0  0  0  0  0  0  0  0  0
    6.1349    1.3010    0.0000 O   0  0  0  0  0  0  0  0  0
    5.3144   -0.1201    0.0000 N   0  0  0  0  0  0  0  0  0
    4.4894   -0.1201    0.0000 C   0  0  0  0  0  0  0  0  0
    4.0769   -0.8346    0.0000 C   0  0  0  0  0  0  0  0  0
    3.2519   -0.8346    0.0000 C   0  0  0  0  0  0  0  0  0
    2.8394   -1.5490    0.0000 C   0  0  0  0  0  0  0  0  0
    2.0144   -1.5490    0.0000 N   0  0  0  0  0  0  0  0  0
    1.6019   -2.2635    0.0000 C   0  0  0  0  0  0  0  0  0
    0.7769   -2.2635    0.0000 C   0  0  0  0  0  0  0  0  0
    0.3644   -1.5490    0.0000 N   0  0  0  0  0  0  0  0  0
    0.7769   -0.8346    0.0000 C   0  0  0  0  0  0  0  0  0
    1.6019   -0.8346    0.0000 C   0  0  0  0  0  0  0  0  0
   -0.4606   -1.5490    0.0000 C   0  0  0  0  0  0  0  0  0
   -0.8731   -2.2635    0.0000 C   0  0  0  0  0  0  0  0  0
   -1.6981   -2.2635    0.0000 C   0  0  0  0  0  0  0  0  0
   -2.1106   -1.5490    0.0000 C   0  0  0  0  0  0  0  0  0
   -1.6981   -0.8346    0.0000 C   0  0  0  0  0  0  0  0  0
   -0.8731   -0.8346    0.0000 C   0  0  0  0  0  0  0  0  0
   -0.4606   -0.1201    0.0000 O   0  0  0  0  0  0  0  0  0
   -0.8731    0.5944    0.0000 C   0  0  0  0  0  0  0  0  0
    5.7993   -0.7875    0.0000 C   0  0  0  0  0  0  0  0  0
    5.5444   -1.5721    0.0000 O   0  0  0  0  0  0  0  0  0
    6.5839   -0.5326    0.0000 C   0  0  0  0  0  0  0  0  0
    6.5839    0.2924    0.0000 C   0  0  0  0  0  0  0  0  0
    7.2984    0.7049    0.0000 C   0  0  0  0  0  0  0  0  0
    8.0129    0.2924    0.0000 C   0  0  0  0  0  0  0  0  0
    8.0129   -0.5326    0.0000 C   0  0  0  0  0  0  0  0  0
    7.2984   -0.9451    0.0000 C   0  0  0  0  0  0  0  0  0
  1  2  2  0  0  0  0
  1  3  2  0  0  0  0
  1  4  1  0  0  0  0
  1 26  1  0  0  0  0
  4  5  1  0  0  0  0
  4 23  1  0  0  0  0
  5  6  1  0  0  0  0
  6  7  1  0  0  0  0
  7  8  1  0  0  0  0
  8  9  1  0  0  0  0
  9 10  1  0  0  0  0
  9 14  1  0  0  0  0
 10 11  1  0  0  0  0
 11 12  1  0  0  0  0
 12 13  1  0  0  0  0
 12 15  1  0  0  0  0
 13 14  1  0  0  0  0
 15 16  4  0  0  0  0
 15 20  4  0  0  0  0
 16 17  4  0  0  0  0
 17 18  4  0  0  0  0
 18 19  4  0  0  0  0
 19 20  4  0  0  0  0
 20 21  1  0  0  0  0
 21 22  1  0  0  0  0
 23 24  2  0  0  0  0
 23 25  1  0  0  0  0
 25 26  4  0  0  0  0
 25 30  4  0  0  0  0
 26 27  4  0  0  0  0
 27 28  4  0  0  0  0
 28 29  4  0  0  0  0
 29 30  4  0  0  0  0
M  END
>  <Name_Molregno>
404488

>  <DOPAMINE D2>
7.33

>  <DOPAMINE D3>
6.73

>  <DOPAMINE D5>
5.95

$$$$
404489
  Marvin  02231216192D 0   1.00000     0.00000     0

 27 30  0  0  0  0  0  0  0  0999 V2000
    0.7687   -1.2635    0.0000 O   0  0  0  0  0  0  0  0  0
    0.7687   -2.0885    0.0000 C   0  0  0  0  0  0  0  0  0
    0.0543   -2.5010    0.0000 N   0  0  0  0  0  0  0  0  0
    0.0543   -3.3260    0.0000 C   0  0  0  0  0  0  0  0  0
    0.7687   -3.7385    0.0000 N   0  0  0  0  0  0  0  0  0
    1.4832   -3.3260    0.0000 C   0  0  0  0  0  0  0  0  0
    1.4832   -2.5010    0.0000 C   0  0  0  0  0  0  0  0  0
    2.1977   -2.0885    0.0000 C   0  0  0  0  0  0  0  0  0
    2.9122   -2.5010    0.0000 C   0  0  0  0  0  0  0  0  0
    2.9122   -3.3260    0.0000 C   0  0  0  0  0  0  0  0  0
    2.1977   -3.7385    0.0000 C   0  0  0  0  0  0  0  0  0
   -0.6602   -2.0885    0.0000 C   0  0  0  0  0  0  0  0  0
   -1.3747   -2.5010    0.0000 C   0  0  0  0  0  0  0  0  0
   -2.0891   -2.0885    0.0000 C   0  0  0  0  0  0  0  0  0
   -2.8036   -2.5010    0.0000 C   0  0  0  0  0  0  0  0  0
   -3.5181   -2.0885    0.0000 N   0  0  0  0  0  0  0  0  0
   -4.2325   -2.5010    0.0000 C   0  0  0  0  0  0  0  0  0
   -4.9470   -2.0885    0.0000 C   0  0  0  0  0  0  0  0  0
   -4.9470   -1.2635    0.0000 N   0  0  0  0  0  0  0  0  0
   -4.2325   -0.8510    0.0000 C   0  0  0  0  0  0  0  0  0
   -3.5181   -1.2635    0.0000 C   0  0  0  0  0  0  0  0  0
   -5.6615   -0.8510    0.0000 C   0  0  0  0  0  0  0  0  0
   -6.3760   -1.2635    0.0000 C   0  0  0  0  0  0  0  0  0
   -7.0904   -0.8510    0.0000 C   0  0  0  0  0  0  0  0  0
   -7.0904   -0.0260    0.0000 C   0  0  0  0  0  0  0  0  0
   -6.3760    0.3865    0.0000 C   0  0  0  0  0  0  0  0  0
   -5.6615   -0.0260    0.0000 C   0  0  0  0  0  0  0  0  0
  1  2  2  0  0  0  0
  2  3  1  0  0  0  0
  2  7  1  0  0  0  0
  3  4  1  0  0  0  0
  3 12  1  0  0  0  0
  4  5  2  0  0  0  0
  5  6  1  0  0  0  0
  6  7  4  0  0  0  0
  6 11  4  0  0  0  0
  7  8  4  0  0  0  0
  8  9  4  0  0  0  0
  9 10  4  0  0  0  0
 10 11  4  0  0  0  0
 12 13  1  0  0  0  0
 13 14  1  0  0  0  0
 14 15  1  0  0  0  0
 15 16  1  0  0  0  0
 16 17  1  0  0  0  0
 16 21  1  0  0  0  0
 17 18  1  0  0  0  0
 18 19  1  0  0  0  0
 19 20  1  0  0  0  0
 19 22  1  0  0  0  0
 20 21  1  0  0  0  0
 22 23  4  0  0  0  0
 22 27  4  0  0  0  0
 23 24  4  0  0  0  0
 24 25  4  0  0  0  0
 25 26  4  0  0  0  0
 26 27  4  0  0  0  0
M  END
>  <Name_Molregno>
404489

>  <DOPAMINE D2>
6.17

>  <DOPAMINE D3>
6.28

>  <DOPAMINE D5>
5

$$$$
404490
  Marvin  02231216192D 0   1.00000     0.00000     0

 28 31  0  0  0  0  0  0  0  0999 V2000
    0.8860    2.5854    0.0000 Cl  0  0  0  0  0  0  0  0  0
    1.6005    2.1729    0.0000 C   0  0  0  0  0  0  0  0  0
    2.3150    2.5854    0.0000 C   0  0  0  0  0  0  0  0  0
    3.0295    2.1729    0.0000 C   0  0  0  0  0  0  0  0  0
    3.0295    1.3479    0.0000 C   0  0  0  0  0  0  0  0  0
    3.7439    0.9354    0.0000 N   0  0  0  0  0  0  0  0  0
    4.4584    1.3479    0.0000 C   0  0  0  0  0  0  0  0  0
    5.1729    0.9354    0.0000 C   0  0  0  0  0  0  0  0  0
    5.1729    0.1104    0.0000 N   0  0  0  0  0  0  0  0  0
    4.4584   -0.3021    0.0000 C   0  0  0  0  0  0  0  0  0
    3.7439    0.1104    0.0000 C   0  0  0  0  0  0  0  0  0
    5.8873   -0.3021    0.0000 C   0  0  0  0  0  0  0  0  0
    5.8873   -1.1271    0.0000 C   0  0  0  0  0  0  0  0  0
    6.6018   -1.5396    0.0000 C   0  0  0  0  0  0  0  0  0
    6.6018   -2.3646    0.0000 C   0  0  0  0  0  0  0  0  0
    7.3163   -2.7771    0.0000 N   0  0  0  0  0  0  0  0  0
    7.3163   -3.6021    0.0000 C   0  0  0  0  0  0  0  0  0
    8.0308   -4.0146    0.0000 N   0  0  0  0  0  0  0  0  0
    8.7452   -3.6021    0.0000 C   0  0  0  0  0  0  0  0  0
    8.7452   -2.7771    0.0000 C   0  0  0  0  0  0  0  0  0
    9.4597   -2.3646    0.0000 C   0  0  0  0  0  0  0  0  0
   10.1742   -2.7771    0.0000 C   0  0  0  0  0  0  0  0  0
   10.1742   -3.6021    0.0000 C   0  0  0  0  0  0  0  0  0
    9.4597   -4.0146    0.0000 C   0  0  0  0  0  0  0  0  0
    8.0308   -2.3646    0.0000 C   0  0  0  0  0  0  0  0  0
    8.0308   -1.5396    0.0000 O   0  0  0  0  0  0  0  0  0
    2.3150    0.9354    0.0000 C   0  0  0  0  0  0  0  0  0
    1.6005    1.3479    0.0000 C   0  0  0  0  0  0  0  0  0
  1  2  1  0  0  0  0
  2  3  4  0  0  0  0
  2 28  4  0  0  0  0
  3  4  4  0  0  0  0
  4  5  4  0  0  0  0
  5  6  1  0  0  0  0
  5 27  4  0  0  0  0
  6  7  1  0  0  0  0
  6 11  1  0  0  0  0
  7  8  1  0  0  0  0
  8  9  1  0  0  0  0
  9 10  1  0  0  0  0
  9 12  1  0  0  0  0
 10 11  1  0  0  0  0
 12 13  1  0  0  0  0
 13 14  1  0  0  0  0
 14 15  1  0  0  0  0
 15 16  1  0  0  0  0
 16 17  1  0  0  0  0
 16 25  1  0  0  0  0
 17 18  2  0  0  0  0
 18 19  1  0  0  0  0
 19 20  4  0  0  0  0
 19 24  4  0  0  0  0
 20 21  4  0  0  0  0
 20 25  1  0  0  0  0
 21 22  4  0  0  0  0
 22 23  4  0  0  0  0
 23 24  4  0  0  0  0
 25 26  2  0  0  0  0
 27 28  4  0  0  0  0
M  END
>  <Name_Molregno>
404490

>  <DOPAMINE D2>
5.92

>  <DOPAMINE D3>
5.75

>  <DOPAMINE D5>
6.29

$$$$
404491
  Marvin  02231216192D 0   1.00000     0.00000     0

 31 34  0  0  0  0  0  0  0  0999 V2000
    1.2883    4.4393    0.0000 F   0  0  0  0  0  0  0  0  0
    1.2883    3.6143    0.0000 C   0  0  0  0  0  0  0  0  0
    0.4633    3.6143    0.0000 F   0  0  0  0  0  0  0  0  0
    2.1133    3.6143    0.0000 F   0  0  0  0  0  0  0  0  0
    1.2883    2.7893    0.0000 C   0  0  0  0  0  0  0  0  0
    2.0028    2.3768    0.0000 C   0  0  0  0  0  0  0  0  0
    2.0028    1.5518    0.0000 C   0  0  0  0  0  0  0  0  0
    2.7173    1.1393    0.0000 N   0  0  0  0  0  0  0  0  0
    3.4318    1.5518    0.0000 C   0  0  0  0  0  0  0  0  0
    4.1462    1.1393    0.0000 C   0  0  0  0  0  0  0  0  0
    4.1462    0.3143    0.0000 N   0  0  0  0  0  0  0  0  0
    3.4318   -0.0982    0.0000 C   0  0  0  0  0  0  0  0  0
    2.7173    0.3143    0.0000 C   0  0  0  0  0  0  0  0  0
    4.8607   -0.0982    0.0000 C   0  0  0  0  0  0  0  0  0
    4.8607   -0.9232    0.0000 C   0  0  0  0  0  0  0  0  0
    5.5752   -1.3357    0.0000 C   0  0  0  0  0  0  0  0  0
    5.5752   -2.1607    0.0000 C   0  0  0  0  0  0  0  0  0
    6.2896   -2.5732    0.0000 N   0  0  0  0  0  0  0  0  0
    6.2896   -3.3982    0.0000 C   0  0  0  0  0  0  0  0  0
    7.0041   -3.8107    0.0000 N   0  0  0  0  0  0  0  0  0
    7.7186   -3.3982    0.0000 C   0  0  0  0  0  0  0  0  0
    7.7186   -2.5732    0.0000 C   0  0  0  0  0  0  0  0  0
    8.4331   -2.1607    0.0000 C   0  0  0  0  0  0  0  0  0
    9.1475   -2.5732    0.0000 C   0  0  0  0  0  0  0  0  0
    9.1475   -3.3982    0.0000 C   0  0  0  0  0  0  0  0  0
    8.4331   -3.8107    0.0000 C   0  0  0  0  0  0  0  0  0
    7.0041   -2.1607    0.0000 C   0  0  0  0  0  0  0  0  0
    7.0041   -1.3357    0.0000 O   0  0  0  0  0  0  0  0  0
    1.2883    1.1393    0.0000 C   0  0  0  0  0  0  0  0  0
    0.5739    1.5518    0.0000 C   0  0  0  0  0  0  0  0  0
    0.5739    2.3768    0.0000 C   0  0  0  0  0  0  0  0  0
  1  2  1  0  0  0  0
  2  3  1  0  0  0  0
  2  4  1  0  0  0  0
  2  5  1  0  0  0  0
  5  6  4  0  0  0  0
  5 31  4  0  0  0  0
  6  7  4  0  0  0  0
  7  8  1  0  0  0  0
  7 29  4  0  0  0  0
  8  9  1  0  0  0  0
  8 13  1  0  0  0  0
  9 10  1  0  0  0  0
 10 11  1  0  0  0  0
 11 12  1  0  0  0  0
 11 14  1  0  0  0  0
 12 13  1  0  0  0  0
 14 15  1  0  0  0  0
 15 16  1  0  0  0  0
 16 17  1  0  0  0  0
 17 18  1  0  0  0  0
 18 19  1  0  0  0  0
 18 27  1  0  0  0  0
 19 20  2  0  0  0  0
 20 21  1  0  0  0  0
 21 22  4  0  0  0  0
 21 26  4  0  0  0  0
 22 23  4  0  0  0  0
 22 27  1  0  0  0  0
 23 24  4  0  0  0  0
 24 25  4  0  0  0  0
 25 26  4  0  0  0  0
 27 28  2  0  0  0  0
 29 30  4  0  0  0  0
 30 31  4  0  0  0  0
M  END
>  <Name_Molregno>
404491

>  <DOPAMINE D2>
6.07

>  <DOPAMINE D3>
6.99

>  <DOPAMINE D5>
5.77

$$$$
404494
  Marvin  02231216192D 0   1.00000     0.00000     0

 29 32  0  0  0  0  0  0  0  0999 V2000
   -7.2872    1.0929    0.0000 O   0  0  0  0  0  0  0  0  0
   -8.0017    0.6804    0.0000 C   0  0  0  0  0  0  0  0  0
   -7.2872    1.9179    0.0000 C   0  0  0  0  0  0  0  0  0
   -8.0017    2.3304    0.0000 C   0  0  0  0  0  0  0  0  0
   -8.0017    3.1554    0.0000 C   0  0  0  0  0  0  0  0  0
   -7.2872    3.5679    0.0000 C   0  0  0  0  0  0  0  0  0
   -6.5727    3.1554    0.0000 C   0  0  0  0  0  0  0  0  0
   -6.5727    2.3304    0.0000 C   0  0  0  0  0  0  0  0  0
   -5.8583    1.9179    0.0000 N   0  0  0  0  0  0  0  0  0
   -5.1438    2.3304    0.0000 C   0  0  0  0  0  0  0  0  0
   -4.4293    1.9179    0.0000 C   0  0  0  0  0  0  0  0  0
   -4.4293    1.0929    0.0000 N   0  0  0  0  0  0  0  0  0
   -5.1438    0.6804    0.0000 C   0  0  0  0  0  0  0  0  0
   -5.8583    1.0929    0.0000 C   0  0  0  0  0  0  0  0  0
   -3.7148    0.6804    0.0000 C   0  0  0  0  0  0  0  0  0
   -3.7148   -0.1446    0.0000 C   0  0  0  0  0  0  0  0  0
   -3.0004   -0.5571    0.0000 C   0  0  0  0  0  0  0  0  0
   -3.0004   -1.3821    0.0000 C   0  0  0  0  0  0  0  0  0
   -2.2859   -1.7946    0.0000 N   0  0  0  0  0  0  0  0  0
   -2.2859   -2.6196    0.0000 C   0  0  0  0  0  0  0  0  0
   -1.5714   -3.0321    0.0000 N   0  0  0  0  0  0  0  0  0
   -0.8570   -2.6196    0.0000 C   0  0  0  0  0  0  0  0  0
   -0.8570   -1.7946    0.0000 C   0  0  0  0  0  0  0  0  0
   -0.1425   -1.3821    0.0000 C   0  0  0  0  0  0  0  0  0
    0.5720   -1.7946    0.0000 C   0  0  0  0  0  0  0  0  0
    0.5720   -2.6196    0.0000 C   0  0  0  0  0  0  0  0  0
   -0.1425   -3.0321    0.0000 C   0  0  0  0  0  0  0  0  0
   -1.5714   -1.3821    0.0000 C   0  0  0  0  0  0  0  0  0
   -1.5714   -0.5571    0.0000 O   0  0  0  0  0  0  0  0  0
  1  2  1  0  0  0  0
  1  3  1  0  0  0  0
  3  4  4  0  0  0  0
  3  8  4  0  0  0  0
  4  5  4  0  0  0  0
  5  6  4  0  0  0  0
  6  7  4  0  0  0  0
  7  8  4  0  0  0  0
  8  9  1  0  0  0  0
  9 10  1  0  0  0  0
  9 14  1  0  0  0  0
 10 11  1  0  0  0  0
 11 12  1  0  0  0  0
 12 13  1  0  0  0  0
 12 15  1  0  0  0  0
 13 14  1  0  0  0  0
 15 16  1  0  0  0  0
 16 17  1  0  0  0  0
 17 18  1  0  0  0  0
 18 19  1  0  0  0  0
 19 20  1  0  0  0  0
 19 28  1  0  0  0  0
 20 21  2  0  0  0  0
 21 22  1  0  0  0  0
 22 23  4  0  0  0  0
 22 27  4  0  0  0  0
 23 24  4  0  0  0  0
 23 28  1  0  0  0  0
 24 25  4  0  0  0  0
 25 26  4  0  0  0  0
 26 27  4  0  0  0  0
 28 29  2  0  0  0  0
M  END
>  <Name_Molregno>
404494

>  <5-HT1A>
7.44

>  <DOPAMINE D2>
7.83

>  <DOPAMINE D3>
6.51

>  <DOPAMINE D5>
5

$$$$
404498
  Marvin  02231216192D 0   1.00000     0.00000     0

 26 29  0  0  0  0  0  0  0  0999 V2000
   -4.0391    2.4085    0.0000 O   0  0  0  0  0  0  0  0  0
   -3.2141    2.4085    0.0000 C   0  0  0  0  0  0  0  0  0
   -2.7292    1.7411    0.0000 N   0  0  0  0  0  0  0  0  0
   -1.9445    1.9960    0.0000 C   0  0  0  0  0  0  0  0  0
   -1.9445    2.8210    0.0000 C   0  0  0  0  0  0  0  0  0
   -2.7292    3.0760    0.0000 C   0  0  0  0  0  0  0  0  0
   -1.2301    3.2335    0.0000 C   0  0  0  0  0  0  0  0  0
   -0.5156    2.8210    0.0000 C   0  0  0  0  0  0  0  0  0
   -0.5156    1.9960    0.0000 C   0  0  0  0  0  0  0  0  0
   -1.2301    1.5835    0.0000 C   0  0  0  0  0  0  0  0  0
   -2.9841    0.9565    0.0000 C   0  0  0  0  0  0  0  0  0
   -2.4321    0.3434    0.0000 C   0  0  0  0  0  0  0  0  0
   -2.6870   -0.4413    0.0000 C   0  0  0  0  0  0  0  0  0
   -2.1350   -1.0543    0.0000 C   0  0  0  0  0  0  0  0  0
   -2.3899   -1.8390    0.0000 N   0  0  0  0  0  0  0  0  0
   -1.8379   -2.4521    0.0000 C   0  0  0  0  0  0  0  0  0
   -2.0928   -3.2367    0.0000 C   0  0  0  0  0  0  0  0  0
   -2.8998   -3.4082    0.0000 N   0  0  0  0  0  0  0  0  0
   -3.4518   -2.7951    0.0000 C   0  0  0  0  0  0  0  0  0
   -3.1969   -2.0105    0.0000 C   0  0  0  0  0  0  0  0  0
   -3.1547   -4.1928    0.0000 C   0  0  0  0  0  0  0  0  0
   -2.6027   -4.8059    0.0000 C   0  0  0  0  0  0  0  0  0
   -2.8576   -5.5905    0.0000 C   0  0  0  0  0  0  0  0  0
   -3.6646   -5.7621    0.0000 C   0  0  0  0  0  0  0  0  0
   -4.2166   -5.1490    0.0000 C   0  0  0  0  0  0  0  0  0
   -3.9617   -4.3644    0.0000 C   0  0  0  0  0  0  0  0  0
  1  2  2  0  0  0  0
  2  3  1  0  0  0  0
  2  6  1  0  0  0  0
  3  4  1  0  0  0  0
  3 11  1  0  0  0  0
  4  5  4  0  0  0  0
  4 10  4  0  0  0  0
  5  6  1  0  0  0  0
  5  7  4  0  0  0  0
  7  8  4  0  0  0  0
  8  9  4  0  0  0  0
  9 10  4  0  0  0  0
 11 12  1  0  0  0  0
 12 13  1  0  0  0  0
 13 14  1  0  0  0  0
 14 15  1  0  0  0  0
 15 16  1  0  0  0  0
 15 20  1  0  0  0  0
 16 17  1  0  0  0  0
 17 18  1  0  0  0  0
 18 19  1  0  0  0  0
 18 21  1  0  0  0  0
 19 20  1  0  0  0  0
 21 22  4  0  0  0  0
 21 26  4  0  0  0  0
 22 23  4  0  0  0  0
 23 24  4  0  0  0  0
 24 25  4  0  0  0  0
 25 26  4  0  0  0  0
M  END
>  <Name_Molregno>
404498

>  <5-HT1A>
6.91

>  <5-HT7>
7.13

>  <DOPAMINE D2>
6.81

>  <DOPAMINE D3>
7.1

>  <DOPAMINE D5>
5.75

$$$$
404499
  Marvin  02231216192D 0   1.00000     0.00000     0

 27 30  0  0  0  0  0  0  0  0999 V2000
    2.9711   -4.2950    0.0000 Cl  0  0  0  0  0  0  0  0  0
    3.2261   -3.5104    0.0000 C   0  0  0  0  0  0  0  0  0
    2.6741   -2.8973    0.0000 C   0  0  0  0  0  0  0  0  0
    2.9290   -2.1127    0.0000 C   0  0  0  0  0  0  0  0  0
    3.7360   -1.9412    0.0000 C   0  0  0  0  0  0  0  0  0
    3.9909   -1.1565    0.0000 N   0  0  0  0  0  0  0  0  0
    3.4389   -0.5434    0.0000 C   0  0  0  0  0  0  0  0  0
    3.6938    0.2412    0.0000 C   0  0  0  0  0  0  0  0  0
    4.5008    0.4127    0.0000 N   0  0  0  0  0  0  0  0  0
    5.0528   -0.2004    0.0000 C   0  0  0  0  0  0  0  0  0
    4.7979   -0.9850    0.0000 C   0  0  0  0  0  0  0  0  0
    4.7557    1.1973    0.0000 C   0  0  0  0  0  0  0  0  0
    5.5627    1.3689    0.0000 C   0  0  0  0  0  0  0  0  0
    5.8176    2.1535    0.0000 C   0  0  0  0  0  0  0  0  0
    6.6246    2.3250    0.0000 C   0  0  0  0  0  0  0  0  0
    6.8795    3.1096    0.0000 N   0  0  0  0  0  0  0  0  0
    7.6642    3.3646    0.0000 C   0  0  0  0  0  0  0  0  0
    7.6642    4.1896    0.0000 C   0  0  0  0  0  0  0  0  0
    6.8795    4.4445    0.0000 C   0  0  0  0  0  0  0  0  0
    6.3946    3.7771    0.0000 C   0  0  0  0  0  0  0  0  0
    5.5696    3.7771    0.0000 O   0  0  0  0  0  0  0  0  0
    8.3786    4.6021    0.0000 C   0  0  0  0  0  0  0  0  0
    9.0931    4.1896    0.0000 C   0  0  0  0  0  0  0  0  0
    9.0931    3.3646    0.0000 C   0  0  0  0  0  0  0  0  0
    8.3786    2.9521    0.0000 C   0  0  0  0  0  0  0  0  0
    4.2880   -2.5542    0.0000 C   0  0  0  0  0  0  0  0  0
    4.0331   -3.3389    0.0000 C   0  0  0  0  0  0  0  0  0
  1  2  1  0  0  0  0
  2  3  4  0  0  0  0
  2 27  4  0  0  0  0
  3  4  4  0  0  0  0
  4  5  4  0  0  0  0
  5  6  1  0  0  0  0
  5 26  4  0  0  0  0
  6  7  1  0  0  0  0
  6 11  1  0  0  0  0
  7  8  1  0  0  0  0
  8  9  1  0  0  0  0
  9 10  1  0  0  0  0
  9 12  1  0  0  0  0
 10 11  1  0  0  0  0
 12 13  1  0  0  0  0
 13 14  1  0  0  0  0
 14 15  1  0  0  0  0
 15 16  1  0  0  0  0
 16 17  1  0  0  0  0
 16 20  1  0  0  0  0
 17 18  4  0  0  0  0
 17 25  4  0  0  0  0
 18 19  1  0  0  0  0
 18 22  4  0  0  0  0
 19 20  1  0  0  0  0
 20 21  2  0  0  0  0
 22 23  4  0  0  0  0
 23 24  4  0  0  0  0
 24 25  4  0  0  0  0
 26 27  4  0  0  0  0
M  END
>  <Name_Molregno>
404499

>  <DOPAMINE D2>
6.1

>  <DOPAMINE D3>
5.92

>  <DOPAMINE D5>
6.69

$$$$
404501
  Marvin  02231216192D 0   1.00000     0.00000     0

 30 33  0  0  0  0  0  0  0  0999 V2000
   -8.0957   -4.6888    0.0000 F   0  0  0  0  0  0  0  0  0
   -7.2887   -4.5172    0.0000 C   0  0  0  0  0  0  0  0  0
   -7.1172   -5.3242    0.0000 F   0  0  0  0  0  0  0  0  0
   -7.4603   -3.7103    0.0000 F   0  0  0  0  0  0  0  0  0
   -6.4818   -4.3457    0.0000 C   0  0  0  0  0  0  0  0  0
   -6.2268   -3.5611    0.0000 C   0  0  0  0  0  0  0  0  0
   -5.4199   -3.3895    0.0000 C   0  0  0  0  0  0  0  0  0
   -5.1649   -2.6049    0.0000 N   0  0  0  0  0  0  0  0  0
   -5.7170   -1.9918    0.0000 C   0  0  0  0  0  0  0  0  0
   -5.4620   -1.2072    0.0000 C   0  0  0  0  0  0  0  0  0
   -4.6551   -1.0357    0.0000 N   0  0  0  0  0  0  0  0  0
   -4.1030   -1.6488    0.0000 C   0  0  0  0  0  0  0  0  0
   -4.3580   -2.4334    0.0000 C   0  0  0  0  0  0  0  0  0
   -4.4001   -0.2511    0.0000 C   0  0  0  0  0  0  0  0  0
   -3.5931   -0.0795    0.0000 C   0  0  0  0  0  0  0  0  0
   -3.3382    0.7051    0.0000 C   0  0  0  0  0  0  0  0  0
   -2.5312    0.8766    0.0000 C   0  0  0  0  0  0  0  0  0
   -2.2763    1.6612    0.0000 N   0  0  0  0  0  0  0  0  0
   -1.4917    1.9162    0.0000 C   0  0  0  0  0  0  0  0  0
   -1.4917    2.7412    0.0000 C   0  0  0  0  0  0  0  0  0
   -2.2763    2.9961    0.0000 C   0  0  0  0  0  0  0  0  0
   -2.7612    2.3287    0.0000 C   0  0  0  0  0  0  0  0  0
   -3.5862    2.3287    0.0000 O   0  0  0  0  0  0  0  0  0
   -0.7772    3.1537    0.0000 C   0  0  0  0  0  0  0  0  0
   -0.0627    2.7412    0.0000 C   0  0  0  0  0  0  0  0  0
   -0.0627    1.9162    0.0000 C   0  0  0  0  0  0  0  0  0
   -0.7772    1.5037    0.0000 C   0  0  0  0  0  0  0  0  0
   -4.8678   -4.0026    0.0000 C   0  0  0  0  0  0  0  0  0
   -5.1228   -4.7873    0.0000 C   0  0  0  0  0  0  0  0  0
   -5.9297   -4.9588    0.0000 C   0  0  0  0  0  0  0  0  0
  1  2  1  0  0  0  0
  2  3  1  0  0  0  0
  2  4  1  0  0  0  0
  2  5  1  0  0  0  0
  5  6  4  0  0  0  0
  5 30  4  0  0  0  0
  6  7  4  0  0  0  0
  7  8  1  0  0  0  0
  7 28  4  0  0  0  0
  8  9  1  0  0  0  0
  8 13  1  0  0  0  0
  9 10  1  0  0  0  0
 10 11  1  0  0  0  0
 11 12  1  0  0  0  0
 11 14  1  0  0  0  0
 12 13  1  0  0  0  0
 14 15  1  0  0  0  0
 15 16  1  0  0  0  0
 16 17  1  0  0  0  0
 17 18  1  0  0  0  0
 18 19  1  0  0  0  0
 18 22  1  0  0  0  0
 19 20  4  0  0  0  0
 19 27  4  0  0  0  0
 20 21  1  0  0  0  0
 20 24  4  0  0  0  0
 21 22  1  0  0  0  0
 22 23  2  0  0  0  0
 24 25  4  0  0  0  0
 25 26  4  0  0  0  0
 26 27  4  0  0  0  0
 28 29  4  0  0  0  0
 29 30  4  0  0  0  0
M  END
>  <Name_Molregno>
404501

>  <DOPAMINE D2>
6.43

>  <DOPAMINE D3>
6.61

>  <DOPAMINE D5>
6.72

$$$$
404505
  Marvin  02231216192D 0   1.00000     0.00000     0

 28 31  0  0  0  0  0  0  0  0999 V2000
   -6.9767   -0.7501    0.0000 O   0  0  0  0  0  0  0  0  0
   -7.7837   -0.9217    0.0000 C   0  0  0  0  0  0  0  0  0
   -6.7218    0.0345    0.0000 C   0  0  0  0  0  0  0  0  0
   -7.2738    0.6476    0.0000 C   0  0  0  0  0  0  0  0  0
   -7.0188    1.4322    0.0000 C   0  0  0  0  0  0  0  0  0
   -6.2119    1.6037    0.0000 C   0  0  0  0  0  0  0  0  0
   -5.6598    0.9906    0.0000 C   0  0  0  0  0  0  0  0  0
   -5.9148    0.2060    0.0000 C   0  0  0  0  0  0  0  0  0
   -5.3628   -0.4071    0.0000 N   0  0  0  0  0  0  0  0  0
   -4.5558   -0.2355    0.0000 C   0  0  0  0  0  0  0  0  0
   -4.0037   -0.8486    0.0000 C   0  0  0  0  0  0  0  0  0
   -4.2587   -1.6333    0.0000 N   0  0  0  0  0  0  0  0  0
   -5.0657   -1.8048    0.0000 C   0  0  0  0  0  0  0  0  0
   -5.6177   -1.1917    0.0000 C   0  0  0  0  0  0  0  0  0
   -3.7067   -2.2464    0.0000 C   0  0  0  0  0  0  0  0  0
   -2.8997   -2.0748    0.0000 C   0  0  0  0  0  0  0  0  0
   -2.6447   -1.2902    0.0000 C   0  0  0  0  0  0  0  0  0
   -1.8378   -1.1187    0.0000 C   0  0  0  0  0  0  0  0  0
   -1.5828   -0.3341    0.0000 N   0  0  0  0  0  0  0  0  0
   -0.7982   -0.0791    0.0000 C   0  0  0  0  0  0  0  0  0
   -0.7982    0.7459    0.0000 C   0  0  0  0  0  0  0  0  0
   -1.5828    1.0008    0.0000 C   0  0  0  0  0  0  0  0  0
   -2.0678    0.3334    0.0000 C   0  0  0  0  0  0  0  0  0
   -2.8928    0.3334    0.0000 O   0  0  0  0  0  0  0  0  0
   -0.0837    1.1584    0.0000 C   0  0  0  0  0  0  0  0  0
    0.6307    0.7459    0.0000 C   0  0  0  0  0  0  0  0  0
    0.6307   -0.0791    0.0000 C   0  0  0  0  0  0  0  0  0
   -0.0837   -0.4916    0.0000 C   0  0  0  0  0  0  0  0  0
  1  2  1  0  0  0  0
  1  3  1  0  0  0  0
  3  4  4  0  0  0  0
  3  8  4  0  0  0  0
  4  5  4  0  0  0  0
  5  6  4  0  0  0  0
  6  7  4  0  0  0  0
  7  8  4  0  0  0  0
  8  9  1  0  0  0  0
  9 10  1  0  0  0  0
  9 14  1  0  0  0  0
 10 11  1  0  0  0  0
 11 12  1  0  0  0  0
 12 13  1  0  0  0  0
 12 15  1  0  0  0  0
 13 14  1  0  0  0  0
 15 16  1  0  0  0  0
 16 17  1  0  0  0  0
 17 18  1  0  0  0  0
 18 19  1  0  0  0  0
 19 20  1  0  0  0  0
 19 23  1  0  0  0  0
 20 21  4  0  0  0  0
 20 28  4  0  0  0  0
 21 22  1  0  0  0  0
 21 25  4  0  0  0  0
 22 23  1  0  0  0  0
 23 24  2  0  0  0  0
 25 26  4  0  0  0  0
 26 27  4  0  0  0  0
 27 28  4  0  0  0  0
M  END
>  <Name_Molregno>
404505

>  <5-HT1A>
6

>  <5-HT7>
7.49

>  <DOPAMINE D2>
6.46

>  <DOPAMINE D3>
6.71

>  <DOPAMINE D5>
6.48

$$$$
404508
  Marvin  02231216192D 0   1.00000     0.00000     0

 26 29  0  0  0  0  0  0  0  0999 V2000
   -0.6599    1.4832    0.0000 O   0  0  0  0  0  0  0  0  0
   -0.4049    0.6986    0.0000 C   0  0  0  0  0  0  0  0  0
   -0.8899    0.0312    0.0000 N   0  0  0  0  0  0  0  0  0
   -0.4049   -0.6363    0.0000 C   0  0  0  0  0  0  0  0  0
    0.3797   -0.3813    0.0000 C   0  0  0  0  0  0  0  0  0
    0.3797    0.4437    0.0000 C   0  0  0  0  0  0  0  0  0
    1.0942    0.8562    0.0000 C   0  0  0  0  0  0  0  0  0
    1.8086    0.4437    0.0000 C   0  0  0  0  0  0  0  0  0
    1.8086   -0.3813    0.0000 C   0  0  0  0  0  0  0  0  0
    1.0942   -0.7938    0.0000 C   0  0  0  0  0  0  0  0  0
   -1.7149    0.0312    0.0000 C   0  0  0  0  0  0  0  0  0
   -2.1274   -0.6833    0.0000 C   0  0  0  0  0  0  0  0  0
   -2.9524   -0.6833    0.0000 C   0  0  0  0  0  0  0  0  0
   -3.3649   -1.3978    0.0000 C   0  0  0  0  0  0  0  0  0
   -4.1899   -1.3978    0.0000 N   0  0  0  0  0  0  0  0  0
   -4.6024   -2.1122    0.0000 C   0  0  0  0  0  0  0  0  0
   -5.4274   -2.1122    0.0000 C   0  0  0  0  0  0  0  0  0
   -5.8399   -1.3978    0.0000 N   0  0  0  0  0  0  0  0  0
   -5.4274   -0.6833    0.0000 C   0  0  0  0  0  0  0  0  0
   -4.6024   -0.6833    0.0000 C   0  0  0  0  0  0  0  0  0
   -6.6649   -1.3978    0.0000 C   0  0  0  0  0  0  0  0  0
   -7.0774   -2.1122    0.0000 C   0  0  0  0  0  0  0  0  0
   -7.9024   -2.1122    0.0000 C   0  0  0  0  0  0  0  0  0
   -8.3149   -1.3978    0.0000 C   0  0  0  0  0  0  0  0  0
   -7.9024   -0.6833    0.0000 C   0  0  0  0  0  0  0  0  0
   -7.0774   -0.6833    0.0000 C   0  0  0  0  0  0  0  0  0
  1  2  2  0  0  0  0
  2  3  1  0  0  0  0
  2  6  1  0  0  0  0
  3  4  1  0  0  0  0
  3 11  1  0  0  0  0
  4  5  1  0  0  0  0
  5  6  4  0  0  0  0
  5 10  4  0  0  0  0
  6  7  4  0  0  0  0
  7  8  4  0  0  0  0
  8  9  4  0  0  0  0
  9 10  4  0  0  0  0
 11 12  1  0  0  0  0
 12 13  1  0  0  0  0
 13 14  1  0  0  0  0
 14 15  1  0  0  0  0
 15 16  1  0  0  0  0
 15 20  1  0  0  0  0
 16 17  1  0  0  0  0
 17 18  1  0  0  0  0
 18 19  1  0  0  0  0
 18 21  1  0  0  0  0
 19 20  1  0  0  0  0
 21 22  4  0  0  0  0
 21 26  4  0  0  0  0
 22 23  4  0  0  0  0
 23 24  4  0  0  0  0
 24 25  4  0  0  0  0
 25 26  4  0  0  0  0
M  END
>  <Name_Molregno>
404508

>  <5-HT1A>
6.44

>  <5-HT7>
6

>  <DOPAMINE D2>
6.97

>  <DOPAMINE D3>
7.45

>  <DOPAMINE D5>
6.05

$$$$
404511
  Marvin  02231216192D 0   1.00000     0.00000     0

 27 30  0  0  0  0  0  0  0  0999 V2000
   -0.1454   -1.3139    0.0000 Cl  0  0  0  0  0  0  0  0  0
    0.6796   -1.3139    0.0000 C   0  0  0  0  0  0  0  0  0
    1.0921   -0.5994    0.0000 C   0  0  0  0  0  0  0  0  0
    1.9171   -0.5994    0.0000 C   0  0  0  0  0  0  0  0  0
    2.3296   -1.3139    0.0000 C   0  0  0  0  0  0  0  0  0
    3.1546   -1.3139    0.0000 N   0  0  0  0  0  0  0  0  0
    3.5671   -0.5994    0.0000 C   0  0  0  0  0  0  0  0  0
    4.3921   -0.5994    0.0000 C   0  0  0  0  0  0  0  0  0
    4.8046   -1.3139    0.0000 N   0  0  0  0  0  0  0  0  0
    4.3921   -2.0284    0.0000 C   0  0  0  0  0  0  0  0  0
    3.5671   -2.0284    0.0000 C   0  0  0  0  0  0  0  0  0
    5.6296   -1.3139    0.0000 C   0  0  0  0  0  0  0  0  0
    6.0421   -0.5994    0.0000 C   0  0  0  0  0  0  0  0  0
    6.8671   -0.5994    0.0000 C   0  0  0  0  0  0  0  0  0
    7.2796    0.1151    0.0000 C   0  0  0  0  0  0  0  0  0
    8.1046    0.1151    0.0000 N   0  0  0  0  0  0  0  0  0
    8.5895   -0.5524    0.0000 C   0  0  0  0  0  0  0  0  0
    9.3741   -0.2974    0.0000 C   0  0  0  0  0  0  0  0  0
    9.3741    0.5276    0.0000 C   0  0  0  0  0  0  0  0  0
   10.0886    0.9401    0.0000 C   0  0  0  0  0  0  0  0  0
   10.8030    0.5276    0.0000 C   0  0  0  0  0  0  0  0  0
   10.8030   -0.2974    0.0000 C   0  0  0  0  0  0  0  0  0
   10.0886   -0.7099    0.0000 C   0  0  0  0  0  0  0  0  0
    8.5895    0.7825    0.0000 C   0  0  0  0  0  0  0  0  0
    8.3345    1.5671    0.0000 O   0  0  0  0  0  0  0  0  0
    1.9171   -2.0284    0.0000 C   0  0  0  0  0  0  0  0  0
    1.0921   -2.0284    0.0000 C   0  0  0  0  0  0  0  0  0
  1  2  1  0  0  0  0
  2  3  4  0  0  0  0
  2 27  4  0  0  0  0
  3  4  4  0  0  0  0
  4  5  4  0  0  0  0
  5  6  1  0  0  0  0
  5 26  4  0  0  0  0
  6  7  1  0  0  0  0
  6 11  1  0  0  0  0
  7  8  1  0  0  0  0
  8  9  1  0  0  0  0
  9 10  1  0  0  0  0
  9 12  1  0  0  0  0
 10 11  1  0  0  0  0
 12 13  1  0  0  0  0
 13 14  1  0  0  0  0
 14 15  1  0  0  0  0
 15 16  1  0  0  0  0
 16 17  1  0  0  0  0
 16 24  1  0  0  0  0
 17 18  1  0  0  0  0
 18 19  4  0  0  0  0
 18 23  4  0  0  0  0
 19 20  4  0  0  0  0
 19 24  1  0  0  0  0
 20 21  4  0  0  0  0
 21 22  4  0  0  0  0
 22 23  4  0  0  0  0
 24 25  2  0  0  0  0
 26 27  4  0  0  0  0
M  END
>  <Name_Molregno>
404511

>  <DOPAMINE D2>
5.56

>  <DOPAMINE D3>
6.18

>  <DOPAMINE D5>
7.47

$$$$
404512
  Marvin  02231216192D 0   1.00000     0.00000     0

 30 33  0  0  0  0  0  0  0  0999 V2000
   -9.0347    0.1752    0.0000 F   0  0  0  0  0  0  0  0  0
   -8.6222   -0.5393    0.0000 C   0  0  0  0  0  0  0  0  0
   -9.3367   -0.9518    0.0000 F   0  0  0  0  0  0  0  0  0
   -7.9077   -0.1268    0.0000 F   0  0  0  0  0  0  0  0  0
   -8.2097   -1.2538    0.0000 C   0  0  0  0  0  0  0  0  0
   -7.3847   -1.2538    0.0000 C   0  0  0  0  0  0  0  0  0
   -6.9722   -1.9682    0.0000 C   0  0  0  0  0  0  0  0  0
   -6.1472   -1.9682    0.0000 N   0  0  0  0  0  0  0  0  0
   -5.7347   -1.2538    0.0000 C   0  0  0  0  0  0  0  0  0
   -4.9097   -1.2538    0.0000 C   0  0  0  0  0  0  0  0  0
   -4.4972   -1.9682    0.0000 N   0  0  0  0  0  0  0  0  0
   -4.9097   -2.6827    0.0000 C   0  0  0  0  0  0  0  0  0
   -5.7347   -2.6827    0.0000 C   0  0  0  0  0  0  0  0  0
   -3.6722   -1.9682    0.0000 C   0  0  0  0  0  0  0  0  0
   -3.2597   -1.2538    0.0000 C   0  0  0  0  0  0  0  0  0
   -2.4347   -1.2538    0.0000 C   0  0  0  0  0  0  0  0  0
   -2.0222   -0.5393    0.0000 C   0  0  0  0  0  0  0  0  0
   -1.1972   -0.5393    0.0000 N   0  0  0  0  0  0  0  0  0
   -0.7123   -1.2067    0.0000 C   0  0  0  0  0  0  0  0  0
    0.0724   -0.9518    0.0000 C   0  0  0  0  0  0  0  0  0
    0.0724   -0.1268    0.0000 C   0  0  0  0  0  0  0  0  0
    0.7868    0.2857    0.0000 C   0  0  0  0  0  0  0  0  0
    1.5013   -0.1268    0.0000 C   0  0  0  0  0  0  0  0  0
    1.5013   -0.9518    0.0000 C   0  0  0  0  0  0  0  0  0
    0.7868   -1.3643    0.0000 C   0  0  0  0  0  0  0  0  0
   -0.7123    0.1282    0.0000 C   0  0  0  0  0  0  0  0  0
   -0.9672    0.9128    0.0000 O   0  0  0  0  0  0  0  0  0
   -7.3847   -2.6827    0.0000 C   0  0  0  0  0  0  0  0  0
   -8.2097   -2.6827    0.0000 C   0  0  0  0  0  0  0  0  0
   -8.6222   -1.9682    0.0000 C   0  0  0  0  0  0  0  0  0
  1  2  1  0  0  0  0
  2  3  1  0  0  0  0
  2  4  1  0  0  0  0
  2  5  1  0  0  0  0
  5  6  4  0  0  0  0
  5 30  4  0  0  0  0
  6  7  4  0  0  0  0
  7  8  1  0  0  0  0
  7 28  4  0  0  0  0
  8  9  1  0  0  0  0
  8 13  1  0  0  0  0
  9 10  1  0  0  0  0
 10 11  1  0  0  0  0
 11 12  1  0  0  0  0
 11 14  1  0  0  0  0
 12 13  1  0  0  0  0
 14 15  1  0  0  0  0
 15 16  1  0  0  0  0
 16 17  1  0  0  0  0
 17 18  1  0  0  0  0
 18 19  1  0  0  0  0
 18 26  1  0  0  0  0
 19 20  1  0  0  0  0
 20 21  4  0  0  0  0
 20 25  4  0  0  0  0
 21 22  4  0  0  0  0
 21 26  1  0  0  0  0
 22 23  4  0  0  0  0
 23 24  4  0  0  0  0
 24 25  4  0  0  0  0
 26 27  2  0  0  0  0
 28 29  4  0  0  0  0
 29 30  4  0  0  0  0
M  END
>  <Name_Molregno>
404512

>  <DOPAMINE D2>
7

>  <DOPAMINE D3>
7.85

>  <DOPAMINE D5>
7.09

$$$$
404513
  Marvin  02231216192D 0   1.00000     0.00000     0

 28 31  0  0  0  0  0  0  0  0999 V2000
    0.4432   -1.8740    0.0000 O   0  0  0  0  0  0  0  0  0
    0.0307   -2.5885    0.0000 C   0  0  0  0  0  0  0  0  0
    0.0307   -1.1595    0.0000 C   0  0  0  0  0  0  0  0  0
   -0.7943   -1.1595    0.0000 C   0  0  0  0  0  0  0  0  0
   -1.2068   -0.4451    0.0000 C   0  0  0  0  0  0  0  0  0
   -0.7943    0.2694    0.0000 C   0  0  0  0  0  0  0  0  0
    0.0307    0.2694    0.0000 C   0  0  0  0  0  0  0  0  0
    0.4432   -0.4451    0.0000 C   0  0  0  0  0  0  0  0  0
    1.2682   -0.4451    0.0000 N   0  0  0  0  0  0  0  0  0
    1.6807    0.2694    0.0000 C   0  0  0  0  0  0  0  0  0
    2.5057    0.2694    0.0000 C   0  0  0  0  0  0  0  0  0
    2.9182   -0.4451    0.0000 N   0  0  0  0  0  0  0  0  0
    2.5057   -1.1595    0.0000 C   0  0  0  0  0  0  0  0  0
    1.6807   -1.1595    0.0000 C   0  0  0  0  0  0  0  0  0
    3.7432   -0.4451    0.0000 C   0  0  0  0  0  0  0  0  0
    4.1557    0.2694    0.0000 C   0  0  0  0  0  0  0  0  0
    4.9807    0.2694    0.0000 C   0  0  0  0  0  0  0  0  0
    5.3932    0.9839    0.0000 C   0  0  0  0  0  0  0  0  0
    6.2182    0.9839    0.0000 N   0  0  0  0  0  0  0  0  0
    6.7031    0.3165    0.0000 C   0  0  0  0  0  0  0  0  0
    7.4877    0.5714    0.0000 C   0  0  0  0  0  0  0  0  0
    7.4877    1.3964    0.0000 C   0  0  0  0  0  0  0  0  0
    8.2022    1.8089    0.0000 C   0  0  0  0  0  0  0  0  0
    8.9166    1.3964    0.0000 C   0  0  0  0  0  0  0  0  0
    8.9166    0.5714    0.0000 C   0  0  0  0  0  0  0  0  0
    8.2022    0.1589    0.0000 C   0  0  0  0  0  0  0  0  0
    6.7031    1.6513    0.0000 C   0  0  0  0  0  0  0  0  0
    6.4481    2.4359    0.0000 O   0  0  0  0  0  0  0  0  0
  1  2  1  0  0  0  0
  1  3  1  0  0  0  0
  3  4  4  0  0  0  0
  3  8  4  0  0  0  0
  4  5  4  0  0  0  0
  5  6  4  0  0  0  0
  6  7  4  0  0  0  0
  7  8  4  0  0  0  0
  8  9  1  0  0  0  0
  9 10  1  0  0  0  0
  9 14  1  0  0  0  0
 10 11  1  0  0  0  0
 11 12  1  0  0  0  0
 12 13  1  0  0  0  0
 12 15  1  0  0  0  0
 13 14  1  0  0  0  0
 15 16  1  0  0  0  0
 16 17  1  0  0  0  0
 17 18  1  0  0  0  0
 18 19  1  0  0  0  0
 19 20  1  0  0  0  0
 19 27  1  0  0  0  0
 20 21  1  0  0  0  0
 21 22  4  0  0  0  0
 21 26  4  0  0  0  0
 22 23  4  0  0  0  0
 22 27  1  0  0  0  0
 23 24  4  0  0  0  0
 24 25  4  0  0  0  0
 25 26  4  0  0  0  0
 27 28  2  0  0  0  0
M  END
>  <Name_Molregno>
404513

>  <5-HT1A>
6

>  <5-HT7>
6.8

>  <DOPAMINE D2>
6.98

>  <DOPAMINE D3>
7.52

>  <DOPAMINE D5>
6.99

$$$$
405786
  Marvin  02231216192D 0   1.00000     0.00000     0

 16 18  0  0  1  0  0  0  0  0999 V2000
   -4.1976   -1.0327    0.0000 N   0  0  0  0  0  0  0  0  0
   -4.6825   -0.3653    0.0000 N   0  0  0  0  0  0  0  0  0
   -4.1976    0.3022    0.0000 C   0  0  0  0  0  0  0  0  0
   -3.4129    0.0472    0.0000 C   0  0  0  0  0  0  0  0  0
   -2.6985    0.4597    0.0000 C   0  0  0  0  0  0  0  0  0
   -1.9840    0.0472    0.0000 C   0  0  0  0  0  0  0  0  0
   -1.2695    0.4597    0.0000 N   0  0  0  0  0  0  0  0  0
   -0.5551    0.0472    0.0000 C   0  0  0  0  0  0  0  0  0
   -0.5551   -0.7778    0.0000 C   0  0  0  0  0  0  0  0  0
   -1.2695   -1.1903    0.0000 C   0  0  0  0  0  0  0  0  0
   -1.9840   -0.7778    0.0000 C   0  0  0  0  0  0  0  0  0
   -2.6985   -1.1903    0.0000 C   0  0  0  0  0  0  0  0  0
   -3.4129   -0.7778    0.0000 C   0  0  0  0  0  0  0  0  0
   -1.2695    1.2847    0.0000 C   0  0  0  0  0  0  0  0  0
   -0.5551    1.6972    0.0000 C   0  0  0  0  0  0  0  0  0
   -0.5551    2.5222    0.0000 C   0  0  0  0  0  0  0  0  0
  1  2  4  0  0  0  0
  1 13  4  0  0  0  0
  2  3  4  0  0  0  0
  3  4  4  0  0  0  0
  4  5  1  0  0  0  0
  4 13  4  0  0  0  0
  5  6  1  0  0  0  0
  6  7  1  0  0  0  0
  6 11  1  0  0  0  0
  7  8  1  0  0  0  0
  7 14  1  0  0  0  0
  8  9  1  0  0  0  0
  9 10  1  0  0  0  0
 10 11  1  0  0  0  0
 11 12  1  0  0  0  0
 12 13  1  0  0  0  0
 14 15  1  0  0  0  0
 15 16  1  0  0  0  0
M  STY  1   1 DAT
M  SAL   1  1   1
M  SDT   1 MRV_IMPLICIT_H                                        
M  SDD   1     0.0000    0.0000    DR    ALL  0       0  
M  SED   1 IMPL_H1
M  END
>  <Name_Molregno>
405786

>  <5-HT1A>
5.77

>  <5-HT1B>
5

>  <5-HT1D>
5

>  <5-HT2A>
5.24

>  <5-HT2C>
5.24

>  <Alpha-1A>
5

>  <Alpha-1B>
5

>  <Alpha-2A>
5

>  <Alpha-2B>
5.6

>  <Alpha-2C>
5

>  <Beta-1>
5

>  <Beta-2>
5

>  <DOPAMINE D1>
5

>  <DOPAMINE D2>
6.31

>  <DOPAMINE D3>
7.73

>  <DOPAMINE D4>
7.37

>  <DOPAMINE D5>
5

$$$$
410419
  Marvin  02231216192D 0   1.00000     0.00000     0

 24 27  0  0  0  0  0  0  0  0999 V2000
   -6.1601   -2.0841    0.0000 O   0  0  0  0  0  0  0  0  0
   -6.7089   -2.7002    0.0000 C   0  0  0  0  0  0  0  0  0
   -5.3522   -2.2513    0.0000 C   0  0  0  0  0  0  0  0  0
   -4.8035   -1.6353    0.0000 C   0  0  0  0  0  0  0  0  0
   -3.9956   -1.8025    0.0000 C   0  0  0  0  0  0  0  0  0
   -3.3308   -1.3141    0.0000 C   0  0  0  0  0  0  0  0  0
   -3.2489   -0.4931    0.0000 C   0  0  0  0  0  0  0  0  0
   -2.4970   -0.1536    0.0000 C   0  0  0  0  0  0  0  0  0
   -1.8270   -0.6349    0.0000 N   0  0  0  0  0  0  0  0  0
   -1.0751   -0.2954    0.0000 C   0  0  0  0  0  0  0  0  0
   -0.4051   -0.7767    0.0000 C   0  0  0  0  0  0  0  0  0
   -0.4870   -1.5976    0.0000 C   0  0  0  0  0  0  0  0  0
   -1.2389   -1.9372    0.0000 C   0  0  0  0  0  0  0  0  0
   -1.9089   -1.4559    0.0000 C   0  0  0  0  0  0  0  0  0
   -2.6607   -1.7954    0.0000 C   0  0  0  0  0  0  0  0  0
   -2.9115   -2.5814    0.0000 N   0  0  0  0  0  0  0  0  0
   -3.7365   -2.5858    0.0000 C   0  0  0  0  0  0  0  0  0
   -4.2852   -3.2018    0.0000 C   0  0  0  0  0  0  0  0  0
   -5.0931   -3.0346    0.0000 C   0  0  0  0  0  0  0  0  0
   -1.3207   -2.7581    0.0000 C   0  0  0  0  0  0  0  0  0
   -0.6507   -3.2395    0.0000 C   0  0  0  0  0  0  0  0  0
    0.1012   -2.8999    0.0000 C   0  0  0  0  0  0  0  0  0
    0.1830   -2.0790    0.0000 C   0  0  0  0  0  0  0  0  0
   -2.3758   -1.2510    0.0000 C   0  0  0  0  0  0  0  0  0
  1  2  1  0  0  0  0
  1  3  1  0  0  0  0
  3  4  4  0  0  0  0
  3 19  4  0  0  0  0
  4  5  4  0  0  0  0
  5  6  4  0  0  0  0
  5 17  4  0  0  0  0
  6  7  1  0  0  0  0
  6 15  4  0  0  0  0
  7  8  1  0  0  0  0
  8  9  1  0  0  0  0
  9 10  1  0  0  0  0
  9 24  1  0  0  0  0
 10 11  1  0  0  0  0
 11 12  1  0  0  0  0
 12 13  4  0  0  0  0
 12 23  4  0  0  0  0
 13 14  1  0  0  0  0
 13 20  4  0  0  0  0
 14 15  1  0  0  0  0
 15 16  4  0  0  0  0
 16 17  4  0  0  0  0
 17 18  4  0  0  0  0
 18 19  4  0  0  0  0
 20 21  4  0  0  0  0
 21 22  4  0  0  0  0
 22 23  4  0  0  0  0
M  STY  1   1 DAT
M  SAL   1  1  16
M  SDT   1 MRV_IMPLICIT_H                                        
M  SDD   1     0.0000    0.0000    DR    ALL  0       0  
M  SED   1 IMPL_H1
M  END
>  <Name_Molregno>
410419

>  <DOPAMINE D1>
9.09

>  <DOPAMINE D2>
7.92

>  <DOPAMINE D3>
6.32

>  <DOPAMINE D5>
8.44

$$$$
410420
  Marvin  02231216192D 0   1.00000     0.00000     0

 23 26  0  0  0  0  0  0  0  0999 V2000
   -0.7134   -2.2270    0.0000 O   0  0  0  0  0  0  0  0  0
    0.0945   -2.3942    0.0000 C   0  0  0  0  0  0  0  0  0
    0.6432   -1.7782    0.0000 C   0  0  0  0  0  0  0  0  0
    1.4511   -1.9454    0.0000 C   0  0  0  0  0  0  0  0  0
    2.1159   -1.4569    0.0000 C   0  0  0  0  0  0  0  0  0
    2.1978   -0.6360    0.0000 C   0  0  0  0  0  0  0  0  0
    2.9497   -0.2964    0.0000 C   0  0  0  0  0  0  0  0  0
    3.6197   -0.7778    0.0000 N   0  0  0  0  0  0  0  0  0
    4.3716   -0.4382    0.0000 C   0  0  0  0  0  0  0  0  0
    5.0416   -0.9195    0.0000 C   0  0  0  0  0  0  0  0  0
    4.9597   -1.7405    0.0000 C   0  0  0  0  0  0  0  0  0
    4.2078   -2.0800    0.0000 C   0  0  0  0  0  0  0  0  0
    3.5378   -1.5987    0.0000 C   0  0  0  0  0  0  0  0  0
    2.7860   -1.9383    0.0000 C   0  0  0  0  0  0  0  0  0
    2.5352   -2.7242    0.0000 N   0  0  0  0  0  0  0  0  0
    1.7102   -2.7286    0.0000 C   0  0  0  0  0  0  0  0  0
    1.1615   -3.3447    0.0000 C   0  0  0  0  0  0  0  0  0
    0.3536   -3.1774    0.0000 C   0  0  0  0  0  0  0  0  0
    4.1260   -2.9010    0.0000 C   0  0  0  0  0  0  0  0  0
    4.7960   -3.3823    0.0000 C   0  0  0  0  0  0  0  0  0
    5.5479   -3.0428    0.0000 C   0  0  0  0  0  0  0  0  0
    5.6297   -2.2218    0.0000 C   0  0  0  0  0  0  0  0  0
    3.0709   -1.3938    0.0000 C   0  0  0  0  0  0  0  0  0
  1  2  1  0  0  0  0
  2  3  4  0  0  0  0
  2 18  4  0  0  0  0
  3  4  4  0  0  0  0
  4  5  4  0  0  0  0
  4 16  4  0  0  0  0
  5  6  1  0  0  0  0
  5 14  4  0  0  0  0
  6  7  1  0  0  0  0
  7  8  1  0  0  0  0
  8  9  1  0  0  0  0
  8 23  1  0  0  0  0
  9 10  1  0  0  0  0
 10 11  1  0  0  0  0
 11 12  4  0  0  0  0
 11 22  4  0  0  0  0
 12 13  1  0  0  0  0
 12 19  4  0  0  0  0
 13 14  1  0  0  0  0
 14 15  4  0  0  0  0
 15 16  4  0  0  0  0
 16 17  4  0  0  0  0
 17 18  4  0  0  0  0
 19 20  4  0  0  0  0
 20 21  4  0  0  0  0
 21 22  4  0  0  0  0
M  STY  1   1 DAT
M  SAL   1  1  15
M  SDT   1 MRV_IMPLICIT_H                                        
M  SDD   1     0.0000    0.0000    DR    ALL  0       0  
M  SED   1 IMPL_H1
M  END
>  <Name_Molregno>
410420

>  <DOPAMINE D1>
9.25

>  <DOPAMINE D2>
7.39

>  <DOPAMINE D3>
6.03

>  <DOPAMINE D5>
9.41

$$$$
410422
  Marvin  02231216192D 0   1.00000     0.00000     0

 24 27  0  0  0  0  0  0  0  0999 V2000
    0.4837   -1.0723    0.0000 O   0  0  0  0  0  0  0  0  0
    0.5656   -1.8932    0.0000 C   0  0  0  0  0  0  0  0  0
    1.1537   -0.5909    0.0000 C   0  0  0  0  0  0  0  0  0
    1.0719    0.2300    0.0000 C   0  0  0  0  0  0  0  0  0
    1.7419    0.7114    0.0000 C   0  0  0  0  0  0  0  0  0
    1.6600    1.5323    0.0000 C   0  0  0  0  0  0  0  0  0
    2.3300    2.0137    0.0000 C   0  0  0  0  0  0  0  0  0
    3.0819    1.6741    0.0000 N   0  0  0  0  0  0  0  0  0
    3.7519    2.1554    0.0000 C   0  0  0  0  0  0  0  0  0
    4.5038    1.8159    0.0000 C   0  0  0  0  0  0  0  0  0
    4.5857    0.9949    0.0000 C   0  0  0  0  0  0  0  0  0
    3.9156    0.5136    0.0000 C   0  0  0  0  0  0  0  0  0
    4.1664   -0.2724    0.0000 N   0  0  0  0  0  0  0  0  0
    4.9914   -0.2768    0.0000 C   0  0  0  0  0  0  0  0  0
    5.2505    0.5065    0.0000 C   0  0  0  0  0  0  0  0  0
    6.0584    0.6737    0.0000 C   0  0  0  0  0  0  0  0  0
    6.6071    0.0577    0.0000 C   0  0  0  0  0  0  0  0  0
    6.3480   -0.7256    0.0000 C   0  0  0  0  0  0  0  0  0
    5.5401   -0.8928    0.0000 C   0  0  0  0  0  0  0  0  0
    3.1638    0.8532    0.0000 C   0  0  0  0  0  0  0  0  0
    2.4938    0.3718    0.0000 C   0  0  0  0  0  0  0  0  0
    2.5756   -0.4491    0.0000 C   0  0  0  0  0  0  0  0  0
    1.9056   -0.9305    0.0000 C   0  0  0  0  0  0  0  0  0
    2.6656    0.9618    0.0000 C   0  0  0  0  0  0  0  0  0
  1  2  1  0  0  0  0
  1  3  1  0  0  0  0
  3  4  4  0  0  0  0
  3 23  4  0  0  0  0
  4  5  4  0  0  0  0
  5  6  1  0  0  0  0
  5 21  4  0  0  0  0
  6  7  1  0  0  0  0
  7  8  1  0  0  0  0
  8  9  1  0  0  0  0
  8 24  1  0  0  0  0
  9 10  1  0  0  0  0
 10 11  1  0  0  0  0
 11 12  4  0  0  0  0
 11 15  4  0  0  0  0
 12 13  4  0  0  0  0
 12 20  1  0  0  0  0
 13 14  4  0  0  0  0
 14 15  4  0  0  0  0
 14 19  4  0  0  0  0
 15 16  4  0  0  0  0
 16 17  4  0  0  0  0
 17 18  4  0  0  0  0
 18 19  4  0  0  0  0
 20 21  1  0  0  0  0
 21 22  4  0  0  0  0
 22 23  4  0  0  0  0
M  STY  1   1 DAT
M  SAL   1  1  13
M  SDT   1 MRV_IMPLICIT_H                                        
M  SDD   1     0.0000    0.0000    DR    ALL  0       0  
M  SED   1 IMPL_H1
M  END
>  <Name_Molregno>
410422

>  <DOPAMINE D1>
7.72

>  <DOPAMINE D2>
7.64

>  <DOPAMINE D3>
5.95

>  <DOPAMINE D5>
7.5

$$$$
410423
  Marvin  02231216192D 0   1.00000     0.00000     0

 23 26  0  0  0  0  0  0  0  0999 V2000
    0.5233   -1.9008    0.0000 O   0  0  0  0  0  0  0  0  0
    1.1933   -1.4194    0.0000 C   0  0  0  0  0  0  0  0  0
    1.1115   -0.5985    0.0000 C   0  0  0  0  0  0  0  0  0
    1.7815   -0.1171    0.0000 C   0  0  0  0  0  0  0  0  0
    1.6996    0.7038    0.0000 C   0  0  0  0  0  0  0  0  0
    2.3697    1.1851    0.0000 C   0  0  0  0  0  0  0  0  0
    3.1215    0.8456    0.0000 N   0  0  0  0  0  0  0  0  0
    3.7915    1.3269    0.0000 C   0  0  0  0  0  0  0  0  0
    4.5434    0.9874    0.0000 C   0  0  0  0  0  0  0  0  0
    4.6253    0.1664    0.0000 C   0  0  0  0  0  0  0  0  0
    3.9553   -0.3149    0.0000 C   0  0  0  0  0  0  0  0  0
    4.2060   -1.1009    0.0000 N   0  0  0  0  0  0  0  0  0
    5.0310   -1.1053    0.0000 C   0  0  0  0  0  0  0  0  0
    5.2901   -0.3220    0.0000 C   0  0  0  0  0  0  0  0  0
    6.0980   -0.1548    0.0000 C   0  0  0  0  0  0  0  0  0
    6.6468   -0.7709    0.0000 C   0  0  0  0  0  0  0  0  0
    6.3876   -1.5541    0.0000 C   0  0  0  0  0  0  0  0  0
    5.5798   -1.7213    0.0000 C   0  0  0  0  0  0  0  0  0
    3.2034    0.0246    0.0000 C   0  0  0  0  0  0  0  0  0
    2.5334   -0.4567    0.0000 C   0  0  0  0  0  0  0  0  0
    2.6152   -1.2776    0.0000 C   0  0  0  0  0  0  0  0  0
    1.9452   -1.7590    0.0000 C   0  0  0  0  0  0  0  0  0
    2.7052    0.1333    0.0000 C   0  0  0  0  0  0  0  0  0
  1  2  1  0  0  0  0
  2  3  4  0  0  0  0
  2 22  4  0  0  0  0
  3  4  4  0  0  0  0
  4  5  1  0  0  0  0
  4 20  4  0  0  0  0
  5  6  1  0  0  0  0
  6  7  1  0  0  0  0
  7  8  1  0  0  0  0
  7 23  1  0  0  0  0
  8  9  1  0  0  0  0
  9 10  1  0  0  0  0
 10 11  4  0  0  0  0
 10 14  4  0  0  0  0
 11 12  4  0  0  0  0
 11 19  1  0  0  0  0
 12 13  4  0  0  0  0
 13 14  4  0  0  0  0
 13 18  4  0  0  0  0
 14 15  4  0  0  0  0
 15 16  4  0  0  0  0
 16 17  4  0  0  0  0
 17 18  4  0  0  0  0
 19 20  1  0  0  0  0
 20 21  4  0  0  0  0
 21 22  4  0  0  0  0
M  STY  1   1 DAT
M  SAL   1  1  12
M  SDT   1 MRV_IMPLICIT_H                                        
M  SDD   1     0.0000    0.0000    DR    ALL  0       0  
M  SED   1 IMPL_H1
M  END
>  <Name_Molregno>
410423

>  <DOPAMINE D1>
8.43

>  <DOPAMINE D2>
7.13

>  <DOPAMINE D3>
5.68

>  <DOPAMINE D5>
8.27

$$$$
410425
  Marvin  02231216192D 0   1.00000     0.00000     0

 25 28  0  0  0  0  0  0  0  0999 V2000
   -6.1091   -2.1177    0.0000 O   0  0  0  0  0  0  0  0  0
   -6.6579   -2.7338    0.0000 C   0  0  0  0  0  0  0  0  0
   -5.3012   -2.2850    0.0000 C   0  0  0  0  0  0  0  0  0
   -4.7525   -1.6689    0.0000 C   0  0  0  0  0  0  0  0  0
   -3.9446   -1.8362    0.0000 C   0  0  0  0  0  0  0  0  0
   -3.2798   -1.3477    0.0000 C   0  0  0  0  0  0  0  0  0
   -3.1979   -0.5267    0.0000 C   0  0  0  0  0  0  0  0  0
   -2.4460   -0.1872    0.0000 C   0  0  0  0  0  0  0  0  0
   -1.7760   -0.6685    0.0000 N   0  0  0  0  0  0  0  0  0
   -1.0241   -0.3290    0.0000 C   0  0  0  0  0  0  0  0  0
   -0.3541   -0.8103    0.0000 C   0  0  0  0  0  0  0  0  0
   -0.4360   -1.6313    0.0000 C   0  0  0  0  0  0  0  0  0
   -1.1879   -1.9708    0.0000 C   0  0  0  0  0  0  0  0  0
   -1.8579   -1.4895    0.0000 C   0  0  0  0  0  0  0  0  0
   -2.6097   -1.8290    0.0000 C   0  0  0  0  0  0  0  0  0
   -2.8605   -2.6150    0.0000 N   0  0  0  0  0  0  0  0  0
   -3.6855   -2.6194    0.0000 C   0  0  0  0  0  0  0  0  0
   -4.2342   -3.2354    0.0000 C   0  0  0  0  0  0  0  0  0
   -5.0421   -3.0682    0.0000 C   0  0  0  0  0  0  0  0  0
   -2.3720   -3.2798    0.0000 C   0  0  0  0  0  0  0  0  0
   -1.2697   -2.7918    0.0000 C   0  0  0  0  0  0  0  0  0
   -0.5997   -3.2731    0.0000 C   0  0  0  0  0  0  0  0  0
    0.1522   -2.9335    0.0000 C   0  0  0  0  0  0  0  0  0
    0.2340   -2.1126    0.0000 C   0  0  0  0  0  0  0  0  0
   -2.3248   -1.2846    0.0000 C   0  0  0  0  0  0  0  0  0
  1  2  1  0  0  0  0
  1  3  1  0  0  0  0
  3  4  4  0  0  0  0
  3 19  4  0  0  0  0
  4  5  4  0  0  0  0
  5  6  4  0  0  0  0
  5 17  4  0  0  0  0
  6  7  1  0  0  0  0
  6 15  4  0  0  0  0
  7  8  1  0  0  0  0
  8  9  1  0  0  0  0
  9 10  1  0  0  0  0
  9 25  1  0  0  0  0
 10 11  1  0  0  0  0
 11 12  1  0  0  0  0
 12 13  4  0  0  0  0
 12 24  4  0  0  0  0
 13 14  1  0  0  0  0
 13 21  4  0  0  0  0
 14 15  1  0  0  0  0
 15 16  4  0  0  0  0
 16 17  4  0  0  0  0
 16 20  1  0  0  0  0
 17 18  4  0  0  0  0
 18 19  4  0  0  0  0
 21 22  4  0  0  0  0
 22 23  4  0  0  0  0
 23 24  4  0  0  0  0
M  END
>  <Name_Molregno>
410425

>  <DOPAMINE D1>
8.7

>  <DOPAMINE D2>
8.77

>  <DOPAMINE D3>
8.42

>  <DOPAMINE D5>
9.64

$$$$
437622
  Marvin  02231216192D 0   1.00000     0.00000     0

 29 31  0  0  1  0  0  0  0  0999 V2000
    4.6273    6.8992    0.0000 F   0  0  0  0  0  0  0  0  0
    4.6273    6.0742    0.0000 C   0  0  0  0  0  0  0  0  0
    5.3417    5.6617    0.0000 C   0  0  0  0  0  0  0  0  0
    5.3417    4.8367    0.0000 C   0  0  0  0  0  0  0  0  0
    4.6273    4.4242    0.0000 C   0  0  0  0  0  0  0  0  0
    3.9128    4.8367    0.0000 C   0  0  0  0  0  0  0  0  0
    3.9128    5.6617    0.0000 C   0  0  0  0  0  0  0  0  0
    4.6273    3.5992    0.0000 C   0  0  0  0  0  0  0  0  0
    5.3417    3.1867    0.0000 C   0  0  0  0  0  0  0  0  0
    5.3417    2.3617    0.0000 N   0  0  0  0  0  0  0  0  0
    6.0562    1.9492    0.0000 C   0  0  0  0  0  0  0  0  0
    6.0562    1.1242    0.0000 C   0  0  0  0  0  0  0  0  0
    5.3417    0.7117    0.0000 C   0  0  0  0  0  0  0  0  0
    4.6273    1.1242    0.0000 C   0  0  0  0  0  0  0  0  0
    4.6273    1.9492    0.0000 C   0  0  0  0  0  0  0  0  0
    5.3417   -0.1133    0.0000 C   0  0  0  0  0  0  0  0  0
    4.6273   -0.5258    0.0000 O   0  0  0  0  0  0  0  0  0
    6.0562   -0.5258    0.0000 C   0  0  0  0  0  0  0  0  0
    6.7707   -0.1133    0.0000 C   0  0  0  0  0  0  0  0  0
    7.4851   -0.5258    0.0000 C   0  0  0  0  0  0  0  0  0
    7.4851   -1.3508    0.0000 C   0  0  0  0  0  0  0  0  0
    6.7707   -1.7633    0.0000 C   0  0  0  0  0  0  0  0  0
    6.7707   -2.5883    0.0000 O   0  0  0  0  0  0  0  0  0
    7.4851   -3.0008    0.0000 C   0  0  0  0  0  0  0  0  0
    7.4851   -3.8258    0.0000 C   0  0  0  0  0  0  0  0  0
    8.1996   -4.2383    0.0000 F   0  0  0  0  0  0  0  0  0
    6.0562   -1.3508    0.0000 C   0  0  0  0  0  0  0  0  0
    5.3417   -1.7633    0.0000 O   0  0  0  0  0  0  0  0  0
    5.3417   -2.5883    0.0000 C   0  0  0  0  0  0  0  0  0
  1  2  1  0  0  0  0
  2  3  4  0  0  0  0
  2  7  4  0  0  0  0
  3  4  4  0  0  0  0
  4  5  4  0  0  0  0
  5  6  4  0  0  0  0
  5  8  1  0  0  0  0
  6  7  4  0  0  0  0
  8  9  1  0  0  0  0
  9 10  1  0  0  0  0
 10 11  1  0  0  0  0
 10 15  1  0  0  0  0
 11 12  1  0  0  0  0
 12 13  1  0  0  0  0
 13 14  1  0  0  0  0
 13 16  1  0  0  0  0
 14 15  1  0  0  0  0
 16 17  1  0  0  0  0
 16 18  1  0  0  0  0
 18 19  4  0  0  0  0
 18 27  4  0  0  0  0
 19 20  4  0  0  0  0
 20 21  4  0  0  0  0
 21 22  4  0  0  0  0
 22 23  1  0  0  0  0
 22 27  4  0  0  0  0
 23 24  1  0  0  0  0
 24 25  1  0  0  0  0
 25 26  1  0  0  0  0
 27 28  1  0  0  0  0
 28 29  1  0  0  0  0
M  END
>  <Name_Molregno>
437622

>  <5-HT1A>
5

>  <5-HT1B>
5.89

>  <5-HT1D>
6.06

>  <5-HT1E>
5

>  <5-HT2C>
7.22

>  <5-HT3>
5

>  <5-HT5>
5.09

>  <5-HT6>
5.41

>  <5-HT7>
7.09

>  <Alpha-1A>
6.47

>  <Alpha-1B>
6.4

>  <Alpha-2A>
5

>  <Alpha-2C>
6.83

>  <DOPAMINE D1>
5.74

>  <DOPAMINE D2>
5.29

>  <DOPAMINE D4>
6.31

>  <DOPAMINE D5>
5.13

>  <Dopamine transporter>
5

>  <HISTAMINE H1>
6.36

>  <HISTAMINE H2>
5.56

>  <HISTAMINE H3>
5

>  <Serotonin transporter>
5.55

$$$$
498962
  Marvin  02231216192D 0   1.00000     0.00000     0

 29 31  0  0  0  0  0  0  0  0999 V2000
    4.6273    6.8992    0.0000 F   0  0  0  0  0  0  0  0  0
    4.6273    6.0742    0.0000 C   0  0  0  0  0  0  0  0  0
    5.3417    5.6617    0.0000 C   0  0  0  0  0  0  0  0  0
    5.3417    4.8367    0.0000 C   0  0  0  0  0  0  0  0  0
    4.6273    4.4242    0.0000 C   0  0  0  0  0  0  0  0  0
    3.9128    4.8367    0.0000 C   0  0  0  0  0  0  0  0  0
    3.9128    5.6617    0.0000 C   0  0  0  0  0  0  0  0  0
    4.6273    3.5992    0.0000 C   0  0  0  0  0  0  0  0  0
    5.3417    3.1867    0.0000 C   0  0  0  0  0  0  0  0  0
    5.3417    2.3617    0.0000 N   0  0  0  0  0  0  0  0  0
    6.0562    1.9492    0.0000 C   0  0  0  0  0  0  0  0  0
    6.0562    1.1242    0.0000 C   0  0  0  0  0  0  0  0  0
    5.3417    0.7117    0.0000 C   0  0  0  0  0  0  0  0  0
    4.6273    1.1242    0.0000 C   0  0  0  0  0  0  0  0  0
    4.6273    1.9492    0.0000 C   0  0  0  0  0  0  0  0  0
    5.3417   -0.1133    0.0000 C   0  0  0  0  0  0  0  0  0
    4.6273   -0.5258    0.0000 O   0  0  0  0  0  0  0  0  0
    6.0562   -0.5258    0.0000 C   0  0  0  0  0  0  0  0  0
    6.7707   -0.1133    0.0000 C   0  0  0  0  0  0  0  0  0
    7.4851   -0.5258    0.0000 C   0  0  0  0  0  0  0  0  0
    7.4851   -1.3508    0.0000 C   0  0  0  0  0  0  0  0  0
    6.7707   -1.7633    0.0000 C   0  0  0  0  0  0  0  0  0
    6.7707   -2.5883    0.0000 O   0  0  0  0  0  0  0  0  0
    7.4851   -3.0008    0.0000 C   0  0  0  0  0  0  0  0  0
    7.4851   -3.8258    0.0000 C   0  0  0  0  0  0  0  0  0
    8.1996   -4.2383    0.0000 F   0  0  0  0  0  0  0  0  0
    6.0562   -1.3508    0.0000 C   0  0  0  0  0  0  0  0  0
    5.3417   -1.7633    0.0000 O   0  0  0  0  0  0  0  0  0
    5.3417   -2.5883    0.0000 C   0  0  0  0  0  0  0  0  0
  1  2  1  0  0  0  0
  2  3  4  0  0  0  0
  2  7  4  0  0  0  0
  3  4  4  0  0  0  0
  4  5  4  0  0  0  0
  5  6  4  0  0  0  0
  5  8  1  0  0  0  0
  6  7  4  0  0  0  0
  8  9  1  0  0  0  0
  9 10  1  0  0  0  0
 10 11  1  0  0  0  0
 10 15  1  0  0  0  0
 11 12  1  0  0  0  0
 12 13  1  0  0  0  0
 13 14  1  0  0  0  0
 13 16  1  0  0  0  0
 14 15  1  0  0  0  0
 16 17  2  0  0  0  0
 16 18  1  0  0  0  0
 18 19  4  0  0  0  0
 18 27  4  0  0  0  0
 19 20  4  0  0  0  0
 20 21  4  0  0  0  0
 21 22  4  0  0  0  0
 22 23  1  0  0  0  0
 22 27  4  0  0  0  0
 23 24  1  0  0  0  0
 24 25  1  0  0  0  0
 25 26  1  0  0  0  0
 27 28  1  0  0  0  0
 28 29  1  0  0  0  0
M  END
>  <Name_Molregno>
498962

>  <5-HT1A>
5.77

>  <5-HT1B>
5.66

>  <5-HT1D>
6.15

>  <5-HT1E>
5

>  <5-HT2C>
6.89

>  <5-HT3>
5

>  <5-HT5>
5.8

>  <5-HT6>
5

>  <5-HT7>
6.68

>  <Alpha-1A>
6.84

>  <Alpha-1B>
6.26

>  <Alpha-2A>
6.06

>  <Alpha-2C>
6.48

>  <DOPAMINE D1>
5.85

>  <DOPAMINE D2>
5.42

>  <DOPAMINE D4>
6.76

>  <DOPAMINE D5>
5.13

>  <Dopamine transporter>
5

>  <HISTAMINE H1>
6.03

>  <HISTAMINE H2>
5.76

>  <HISTAMINE H3>
5

>  <Serotonin transporter>
5.51

$$$$
513010
  Marvin  02231216192D 0   1.00000     0.00000     0

 22 24  0  0  1  0  0  0  0  0999 V2000
   -0.2296   -0.4433    0.0000 O   0  0  0  0  0  0  0  0  0
    0.5954   -0.4441    0.0000 C   0  0  0  0  0  0  0  0  0
    1.0086    0.2700    0.0000 O   0  0  0  0  0  0  0  0  0
    1.0072   -1.1590    0.0000 C   0  0  0  0  0  0  0  0  0
    1.8322   -1.1598    0.0000 C   0  0  0  0  0  0  0  0  0
    2.2440   -1.8747    0.0000 C   0  0  0  0  0  0  0  0  0
    1.8308   -2.5887    0.0000 C   0  0  0  0  0  0  0  0  0
    1.0058   -2.5879    0.0000 C   0  0  0  0  0  0  0  0  0
    0.5940   -1.8730    0.0000 C   0  0  0  0  0  0  0  0  0
   -0.6414    0.2716    0.0000 C   0  0  0  0  0  0  0  0  0
   -0.7796    1.0890    0.0000 C   0  0  0  0  0  0  0  0  0
   -1.7084    1.0735    0.0000 C   0  0  0  0  0  0  0  0  0
   -2.2690    1.5134    0.0000 N   0  0  0  0  0  0  0  0  0
   -2.1293    0.7003    0.0000 C   0  0  0  0  0  0  0  0  0
   -2.6492   -0.0120    0.0000 C   0  0  0  0  0  0  0  0  0
   -2.0289    0.3649    0.0000 C   0  0  0  0  0  0  0  0  0
   -1.1576    0.7003    0.0000 C   0  0  0  0  0  0  0  0  0
   -1.4378   -0.0757    0.0000 C   0  0  0  0  0  0  0  0  0
   -2.2499   -0.2210    0.0000 O   0  0  0  0  0  0  0  0  0
   -2.5301   -0.9969    0.0000 C   0  0  0  0  0  0  0  0  0
   -0.9059   -0.7063    0.0000 O   0  0  0  0  0  0  0  0  0
   -2.6916    2.2219    0.0000 C   0  0  0  0  0  0  0  0  0
  1  2  1  0  0  0  0
  1 10  1  0  0  0  0
  2  3  2  0  0  0  0
  2  4  1  0  0  0  0
  4  5  4  0  0  0  0
  4  9  4  0  0  0  0
  5  6  4  0  0  0  0
  6  7  4  0  0  0  0
  7  8  4  0  0  0  0
  8  9  4  0  0  0  0
 10 11  1  0  0  0  0
 10 17  1  0  0  0  0
 11 12  1  0  0  0  0
 12 13  1  0  0  0  0
 12 16  1  0  0  0  0
 13 14  1  0  0  0  0
 13 22  1  0  0  0  0
 14 15  1  0  0  0  0
 14 17  1  0  0  0  0
 15 16  1  0  0  0  0
 17 18  1  0  0  0  0
 18 19  1  0  0  0  0
 18 21  2  0  0  0  0
 19 20  1  0  0  0  0
M  END
>  <Name_Molregno>
513010

>  <5-HT1A>
5

>  <5-HT1B>
5.47

>  <5-HT1D>
5

>  <5-HT1E>
5

>  <5-HT3>
5.31

>  <5-HT5>
5

>  <5-HT6>
5

>  <5-HT7>
5

>  <Alpha-1A>
5.68

>  <Alpha-1B>
5

>  <Alpha-2A>
5

>  <Alpha-2C>
5

>  <Beta-1>
5

>  <Beta-2>
5

>  <DOPAMINE D1>
5

>  <DOPAMINE D2>
5

>  <DOPAMINE D4>
5

>  <DOPAMINE D5>
5

>  <Dopamine transporter>
6.67

>  <HISTAMINE H1>
5.67

>  <HISTAMINE H2>
5

>  <HISTAMINE H4>
5

>  <Muscarinic acetylcholine receptor M1>
5

>  <Muscarinic acetylcholine receptor M2>
5

>  <Muscarinic acetylcholine receptor M3>
5

>  <Muscarinic acetylcholine receptor M4>
5

>  <Muscarinic acetylcholine receptor M5>
5

>  <Norepinephrine transporter>
5.76

>  <Serotonin transporter>
6.68

$$$$
514509
  Marvin  02231216192D 0   1.00000     0.00000     0

 19 21  0  0  1  0  0  0  0  0999 V2000
   -2.0695   -2.0649    0.0000 O   0  0  0  0  0  0  0  0  0
   -1.3550   -1.6524    0.0000 C   0  0  0  0  0  0  0  0  0
   -0.6406   -2.0649    0.0000 C   0  0  0  0  0  0  0  0  0
    0.0739   -1.6524    0.0000 C   0  0  0  0  0  0  0  0  0
    0.0739   -0.8274    0.0000 C   0  0  0  0  0  0  0  0  0
   -0.6406   -0.4149    0.0000 C   0  0  0  0  0  0  0  0  0
   -1.3550   -0.8274    0.0000 C   0  0  0  0  0  0  0  0  0
   -2.0695   -0.4149    0.0000 O   0  0  0  0  0  0  0  0  0
    0.7189   -0.3131    0.0000 C   0  0  0  0  0  0  0  0  0
    1.5232   -0.4966    0.0000 C   0  0  0  0  0  0  0  0  0
    1.8812   -1.2399    0.0000 N   0  0  0  0  0  0  0  0  0
    1.5232   -1.9832    0.0000 C   0  0  0  0  0  0  0  0  0
    0.7189   -2.1668    0.0000 C   0  0  0  0  0  0  0  0  0
    0.5353   -2.9711    0.0000 C   0  0  0  0  0  0  0  0  0
    1.1401   -3.5323    0.0000 C   0  0  0  0  0  0  0  0  0
    0.9565   -4.3366    0.0000 C   0  0  0  0  0  0  0  0  0
    0.1682   -4.5798    0.0000 C   0  0  0  0  0  0  0  0  0
   -0.4366   -4.0186    0.0000 C   0  0  0  0  0  0  0  0  0
   -0.2530   -3.2143    0.0000 C   0  0  0  0  0  0  0  0  0
  1  2  1  0  0  0  0
  2  3  4  0  0  0  0
  2  7  4  0  0  0  0
  3  4  4  0  0  0  0
  4  5  4  0  0  0  0
  4 13  1  0  0  0  0
  5  6  4  0  0  0  0
  5  9  1  0  0  0  0
  6  7  4  0  0  0  0
  7  8  1  0  0  0  0
  9 10  1  0  0  0  0
 10 11  1  0  0  0  0
 11 12  1  0  0  0  0
 12 13  1  0  0  0  0
 13 14  1  0  0  0  0
 14 15  4  0  0  0  0
 14 19  4  0  0  0  0
 15 16  4  0  0  0  0
 16 17  4  0  0  0  0
 17 18  4  0  0  0  0
 18 19  4  0  0  0  0
M  END
>  <Name_Molregno>
514509

>  <5-HT1A>
5.51

>  <DOPAMINE D1>
6.88

>  <DOPAMINE D2>
5.11

>  <DOPAMINE D3>
5

>  <DOPAMINE D5>
7

>  <HISTAMINE H1>
5.6

$$$$
514511
  Marvin  02231216192D 0   1.00000     0.00000     0

 22 24  0  0  1  0  0  0  0  0999 V2000
    1.7542   -1.9189    0.0000 Cl  0  0  0  0  0  0  0  0  0
    1.7542   -1.0939    0.0000 C   0  0  0  0  0  0  0  0  0
    2.4686   -0.6814    0.0000 C   0  0  0  0  0  0  0  0  0
    2.4686    0.1436    0.0000 C   0  0  0  0  0  0  0  0  0
    1.7542    0.5561    0.0000 C   0  0  0  0  0  0  0  0  0
    1.0397    0.1436    0.0000 C   0  0  0  0  0  0  0  0  0
    0.3252    0.5561    0.0000 O   0  0  0  0  0  0  0  0  0
    1.0397   -0.6814    0.0000 C   0  0  0  0  0  0  0  0  0
    0.3252   -1.0939    0.0000 O   0  0  0  0  0  0  0  0  0
    3.1136    0.6579    0.0000 C   0  0  0  0  0  0  0  0  0
    3.9180    0.4744    0.0000 C   0  0  0  0  0  0  0  0  0
    4.2759   -0.2689    0.0000 N   0  0  0  0  0  0  0  0  0
    3.9180   -1.0122    0.0000 C   0  0  0  0  0  0  0  0  0
    3.1136   -1.1958    0.0000 C   0  0  0  0  0  0  0  0  0
    5.1009   -0.2689    0.0000 C   0  0  0  0  0  0  0  0  0
    2.9301    1.4623    0.0000 C   0  0  0  0  0  0  0  0  0
    2.1417    1.7054    0.0000 C   0  0  0  0  0  0  0  0  0
    1.9581    2.5097    0.0000 C   0  0  0  0  0  0  0  0  0
    2.5629    3.0709    0.0000 C   0  0  0  0  0  0  0  0  0
    3.3512    2.8277    0.0000 C   0  0  0  0  0  0  0  0  0
    3.5348    2.0234    0.0000 C   0  0  0  0  0  0  0  0  0
    1.1698    2.7529    0.0000 C   0  0  0  0  0  0  0  0  0
  1  2  1  0  0  0  0
  2  3  4  0  0  0  0
  2  8  4  0  0  0  0
  3  4  4  0  0  0  0
  3 14  1  0  0  0  0
  4  5  4  0  0  0  0
  4 10  1  0  0  0  0
  5  6  4  0  0  0  0
  6  7  1  0  0  0  0
  6  8  4  0  0  0  0
  8  9  1  0  0  0  0
 10 11  1  0  0  0  0
 10 16  1  0  0  0  0
 11 12  1  0  0  0  0
 12 13  1  0  0  0  0
 12 15  1  0  0  0  0
 13 14  1  0  0  0  0
 16 17  4  0  0  0  0
 16 21  4  0  0  0  0
 17 18  4  0  0  0  0
 18 19  4  0  0  0  0
 18 22  1  0  0  0  0
 19 20  4  0  0  0  0
 20 21  4  0  0  0  0
M  END
>  <Name_Molregno>
514511

>  <DOPAMINE D1>
8.93

>  <DOPAMINE D3>
6.4

>  <DOPAMINE D5>
8.12

$$$$
515852
  Marvin  02231216192D 0   1.00000     0.00000     0

 24 28  0  0  1  0  0  0  0  0999 V2000
    3.5696   -0.3324    0.0000 O   0  0  0  0  0  0  0  0  0
    3.9434   -1.0678    0.0000 C   0  0  0  0  0  0  0  0  0
    3.3594   -1.6506    0.0000 C   0  0  0  0  0  0  0  0  0
    2.6247   -1.2753    0.0000 C   0  0  0  0  0  0  0  0  0
    2.7546   -0.4606    0.0000 C   0  0  0  0  0  0  0  0  0
    2.1140    0.0593    0.0000 C   0  0  0  0  0  0  0  0  0
    1.3435   -0.2355    0.0000 C   0  0  0  0  0  0  0  0  0
    1.2136   -1.0502    0.0000 C   0  0  0  0  0  0  0  0  0
    1.8542   -1.5701    0.0000 C   0  0  0  0  0  0  0  0  0
    1.7243   -2.3848    0.0000 N   0  0  0  0  0  0  0  0  0
    0.9537   -2.6797    0.0000 C   0  0  0  0  0  0  0  0  0
    0.3131   -2.1598    0.0000 N   0  0  0  0  0  0  0  0  0
    0.4431   -1.3451    0.0000 C   0  0  0  0  0  0  0  0  0
   -0.1975   -0.8252    0.0000 N   0  0  0  0  0  0  0  0  0
   -0.9680   -1.1201    0.0000 C   0  0  0  0  0  0  0  0  0
   -1.6086   -0.6002    0.0000 C   0  0  0  0  0  0  0  0  0
   -1.4787    0.2145    0.0000 N   0  0  0  0  0  0  0  0  0
   -0.7082    0.5094    0.0000 C   0  0  0  0  0  0  0  0  0
   -0.0676   -0.0105    0.0000 C   0  0  0  0  0  0  0  0  0
    0.8238   -3.4944    0.0000 N   0  0  0  0  0  0  0  0  0
    3.5721   -2.4477    0.0000 C   0  0  0  0  0  0  0  0  0
    4.3687   -2.6621    0.0000 C   0  0  0  0  0  0  0  0  0
    4.9527   -2.0793    0.0000 C   0  0  0  0  0  0  0  0  0
    4.7400   -1.2822    0.0000 C   0  0  0  0  0  0  0  0  0
  1  2  1  0  0  0  0
  1  5  1  0  0  0  0
  2  3  1  0  0  0  0
  2 24  1  0  0  0  0
  3  4  1  0  0  0  0
  3 21  1  0  0  0  0
  4  5  2  0  0  0  0
  4  9  1  0  0  0  0
  5  6  1  0  0  0  0
  6  7  1  0  0  0  0
  7  8  1  0  0  0  0
  8  9  4  0  0  0  0
  8 13  4  0  0  0  0
  9 10  4  0  0  0  0
 10 11  4  0  0  0  0
 11 12  4  0  0  0  0
 11 20  1  0  0  0  0
 12 13  4  0  0  0  0
 13 14  1  0  0  0  0
 14 15  1  0  0  0  0
 14 19  1  0  0  0  0
 15 16  1  0  0  0  0
 16 17  1  0  0  0  0
 17 18  1  0  0  0  0
 18 19  1  0  0  0  0
 21 22  1  0  0  0  0
 22 23  1  0  0  0  0
 23 24  1  0  0  0  0
M  END
>  <Name_Molregno>
515852

>  <5-HT1A>
9.18

>  <5-HT1B>
7.74

>  <5-HT2A>
8.89

>  <5-HT2C>
8.41

>  <5-HT3>
8.18

>  <5-HT5>
6.96

>  <5-HT6>
7.03

>  <5-HT7>
9.66

>  <Beta-1>
6.37

>  <Beta-2>
9.3

>  <DOPAMINE D1>
9.42

>  <DOPAMINE D2>
8.54

>  <DOPAMINE D3>
8.85

>  <DOPAMINE D5>
9.32

>  <Dopamine transporter>
8.05

>  <HISTAMINE H1>
7.05

>  <HISTAMINE H2>
5.91

>  <HISTAMINE H3>
6.03

>  <HISTAMINE H4>
8.24

>  <Muscarinic acetylcholine receptor M1>
7.6

>  <Muscarinic acetylcholine receptor M2>
7.44

>  <Muscarinic acetylcholine receptor M3>
9.38

>  <Muscarinic acetylcholine receptor M4>
9.18

>  <Muscarinic acetylcholine receptor M5>
9.38

>  <Norepinephrine transporter>
8.17

>  <Serotonin transporter>
8.49

$$$$
518973
  Marvin  02231216192D 0   1.00000     0.00000     0

 39 43  0  0  0  0  0  0  0  0999 V2000
   -4.2205    3.1345    0.0000 O   0  0  0  0  0  0  0  0  0
   -4.9349    3.5470    0.0000 C   0  0  0  0  0  0  0  0  0
   -4.9349    4.3720    0.0000 C   0  0  0  0  0  0  0  0  0
   -5.6494    4.7845    0.0000 C   0  0  0  0  0  0  0  0  0
   -5.6494    5.6095    0.0000 N   0  0  0  0  0  0  0  0  0
   -6.3639    6.0220    0.0000 C   0  0  0  0  0  0  0  0  0
   -6.3639    6.8470    0.0000 C   0  0  0  0  0  0  0  0  0
   -5.6494    7.2595    0.0000 C   0  0  0  0  0  0  0  0  0
   -4.9349    6.8470    0.0000 C   0  0  0  0  0  0  0  0  0
   -4.9349    6.0220    0.0000 C   0  0  0  0  0  0  0  0  0
   -4.2205    2.3095    0.0000 C   0  0  0  0  0  0  0  0  0
   -3.5060    1.8970    0.0000 C   0  0  0  0  0  0  0  0  0
   -3.5060    1.0720    0.0000 C   0  0  0  0  0  0  0  0  0
   -4.2205    0.6595    0.0000 C   0  0  0  0  0  0  0  0  0
   -4.9349    1.0720    0.0000 C   0  0  0  0  0  0  0  0  0
   -4.9349    1.8970    0.0000 C   0  0  0  0  0  0  0  0  0
   -4.2205   -0.1655    0.0000 C   0  0  0  0  0  0  0  0  0
   -3.5060   -0.5780    0.0000 C   0  0  0  0  0  0  0  0  0
   -2.7915   -0.1655    0.0000 O   0  0  0  0  0  0  0  0  0
   -3.5060   -1.4030    0.0000 N   0  0  0  0  0  0  0  0  0
   -2.7915   -1.8155    0.0000 C   0  0  0  0  0  0  0  0  0
   -2.7915   -2.6405    0.0000 C   0  0  0  0  0  0  0  0  0
   -2.0770   -3.0530    0.0000 C   0  0  0  0  0  0  0  0  0
   -2.0770   -3.8780    0.0000 C   0  0  0  0  0  0  0  0  0
   -1.3337   -4.2359    0.0000 C   0  0  0  0  0  0  0  0  0
   -1.1502   -5.0403    0.0000 C   0  0  0  0  0  0  0  0  0
   -1.6645   -5.6853    0.0000 C   0  0  0  0  0  0  0  0  0
   -2.4895   -5.6853    0.0000 C   0  0  0  0  0  0  0  0  0
   -3.0039   -5.0403    0.0000 C   0  0  0  0  0  0  0  0  0
   -2.8203   -4.2359    0.0000 C   0  0  0  0  0  0  0  0  0
   -3.4251   -3.6748    0.0000 C   0  0  0  0  0  0  0  0  0
   -4.2135   -3.9180    0.0000 C   0  0  0  0  0  0  0  0  0
   -4.3970   -4.7223    0.0000 C   0  0  0  0  0  0  0  0  0
   -3.7923   -5.2834    0.0000 C   0  0  0  0  0  0  0  0  0
   -0.3618   -5.2834    0.0000 C   0  0  0  0  0  0  0  0  0
    0.2430   -4.7223    0.0000 C   0  0  0  0  0  0  0  0  0
    0.0594   -3.9180    0.0000 C   0  0  0  0  0  0  0  0  0
   -0.7290   -3.6748    0.0000 C   0  0  0  0  0  0  0  0  0
   -4.2205   -1.8155    0.0000 C   0  0  0  0  0  0  0  0  0
  1  2  1  0  0  0  0
  1 11  1  0  0  0  0
  2  3  1  0  0  0  0
  3  4  1  0  0  0  0
  4  5  1  0  0  0  0
  5  6  1  0  0  0  0
  5 10  1  0  0  0  0
  6  7  1  0  0  0  0
  7  8  1  0  0  0  0
  8  9  1  0  0  0  0
  9 10  1  0  0  0  0
 11 12  4  0  0  0  0
 11 16  4  0  0  0  0
 12 13  4  0  0  0  0
 13 14  4  0  0  0  0
 14 15  4  0  0  0  0
 14 17  1  0  0  0  0
 15 16  4  0  0  0  0
 17 18  1  0  0  0  0
 18 19  2  0  0  0  0
 18 20  1  0  0  0  0
 20 21  1  0  0  0  0
 20 39  1  0  0  0  0
 21 22  1  0  0  0  0
 22 23  1  0  0  0  0
 23 24  2  0  0  0  0
 24 25  1  0  0  0  0
 24 30  1  0  0  0  0
 25 26  4  0  0  0  0
 25 38  4  0  0  0  0
 26 27  1  0  0  0  0
 26 35  4  0  0  0  0
 27 28  1  0  0  0  0
 28 29  1  0  0  0  0
 29 30  4  0  0  0  0
 29 34  4  0  0  0  0
 30 31  4  0  0  0  0
 31 32  4  0  0  0  0
 32 33  4  0  0  0  0
 33 34  4  0  0  0  0
 35 36  4  0  0  0  0
 36 37  4  0  0  0  0
 37 38  4  0  0  0  0
M  END
>  <Name_Molregno>
518973

>  <DOPAMINE D1>
6.06

>  <DOPAMINE D2>
6.04

>  <DOPAMINE D3>
6.49

>  <DOPAMINE D5>
6

>  <HISTAMINE H1>
6.25

>  <HISTAMINE H3>
8.31

$$$$
519116
  Marvin  02231216192D 0   1.00000     0.00000     0

 38 42  0  0  0  0  0  0  0  0999 V2000
   -1.0754    0.9920    0.0000 O   0  0  0  0  0  0  0  0  0
   -1.0754    1.8170    0.0000 C   0  0  0  0  0  0  0  0  0
   -0.3609    2.2295    0.0000 C   0  0  0  0  0  0  0  0  0
   -0.3609    3.0545    0.0000 C   0  0  0  0  0  0  0  0  0
    0.3536    3.4670    0.0000 N   0  0  0  0  0  0  0  0  0
    0.3536    4.2920    0.0000 C   0  0  0  0  0  0  0  0  0
    1.0680    4.7045    0.0000 C   0  0  0  0  0  0  0  0  0
    1.7825    4.2920    0.0000 C   0  0  0  0  0  0  0  0  0
    1.7825    3.4670    0.0000 C   0  0  0  0  0  0  0  0  0
    1.0680    3.0545    0.0000 C   0  0  0  0  0  0  0  0  0
   -1.7898    0.5795    0.0000 C   0  0  0  0  0  0  0  0  0
   -1.7898   -0.2455    0.0000 C   0  0  0  0  0  0  0  0  0
   -2.5043   -0.6580    0.0000 C   0  0  0  0  0  0  0  0  0
   -3.2188   -0.2455    0.0000 C   0  0  0  0  0  0  0  0  0
   -3.2188    0.5795    0.0000 C   0  0  0  0  0  0  0  0  0
   -2.5043    0.9920    0.0000 C   0  0  0  0  0  0  0  0  0
   -3.9333   -0.6580    0.0000 C   0  0  0  0  0  0  0  0  0
   -3.9333   -1.4830    0.0000 O   0  0  0  0  0  0  0  0  0
   -4.6477   -0.2455    0.0000 N   0  0  0  0  0  0  0  0  0
   -5.3622   -0.6580    0.0000 C   0  0  0  0  0  0  0  0  0
   -5.3622   -1.4830    0.0000 C   0  0  0  0  0  0  0  0  0
   -4.6477   -1.8955    0.0000 C   0  0  0  0  0  0  0  0  0
   -4.6477   -2.7205    0.0000 C   0  0  0  0  0  0  0  0  0
   -3.9044   -3.0785    0.0000 C   0  0  0  0  0  0  0  0  0
   -3.7208   -3.8828    0.0000 C   0  0  0  0  0  0  0  0  0
   -4.2352   -4.5278    0.0000 C   0  0  0  0  0  0  0  0  0
   -5.0602   -4.5278    0.0000 C   0  0  0  0  0  0  0  0  0
   -5.5746   -3.8828    0.0000 C   0  0  0  0  0  0  0  0  0
   -5.3910   -3.0785    0.0000 C   0  0  0  0  0  0  0  0  0
   -5.9958   -2.5174    0.0000 C   0  0  0  0  0  0  0  0  0
   -6.7841   -2.7605    0.0000 C   0  0  0  0  0  0  0  0  0
   -6.9677   -3.5648    0.0000 C   0  0  0  0  0  0  0  0  0
   -6.3630   -4.1260    0.0000 C   0  0  0  0  0  0  0  0  0
   -2.9325   -4.1260    0.0000 C   0  0  0  0  0  0  0  0  0
   -2.3277   -3.5648    0.0000 C   0  0  0  0  0  0  0  0  0
   -2.5113   -2.7605    0.0000 C   0  0  0  0  0  0  0  0  0
   -3.2997   -2.5174    0.0000 C   0  0  0  0  0  0  0  0  0
   -4.6477    0.5795    0.0000 C   0  0  0  0  0  0  0  0  0
  1  2  1  0  0  0  0
  1 11  1  0  0  0  0
  2  3  1  0  0  0  0
  3  4  1  0  0  0  0
  4  5  1  0  0  0  0
  5  6  1  0  0  0  0
  5 10  1  0  0  0  0
  6  7  1  0  0  0  0
  7  8  1  0  0  0  0
  8  9  1  0  0  0  0
  9 10  1  0  0  0  0
 11 12  4  0  0  0  0
 11 16  4  0  0  0  0
 12 13  4  0  0  0  0
 13 14  4  0  0  0  0
 14 15  4  0  0  0  0
 14 17  1  0  0  0  0
 15 16  4  0  0  0  0
 17 18  2  0  0  0  0
 17 19  1  0  0  0  0
 19 20  1  0  0  0  0
 19 38  1  0  0  0  0
 20 21  1  0  0  0  0
 21 22  1  0  0  0  0
 22 23  2  0  0  0  0
 23 24  1  0  0  0  0
 23 29  1  0  0  0  0
 24 25  4  0  0  0  0
 24 37  4  0  0  0  0
 25 26  1  0  0  0  0
 25 34  4  0  0  0  0
 26 27  1  0  0  0  0
 27 28  1  0  0  0  0
 28 29  4  0  0  0  0
 28 33  4  0  0  0  0
 29 30  4  0  0  0  0
 30 31  4  0  0  0  0
 31 32  4  0  0  0  0
 32 33  4  0  0  0  0
 34 35  4  0  0  0  0
 35 36  4  0  0  0  0
 36 37  4  0  0  0  0
M  END
>  <Name_Molregno>
519116

>  <DOPAMINE D1>
6

>  <DOPAMINE D2>
6

>  <DOPAMINE D3>
6.61

>  <DOPAMINE D5>
6

>  <HISTAMINE H1>
6.16

>  <HISTAMINE H3>
8.46

$$$$
519117
  Marvin  02231216192D 0   1.00000     0.00000     0

 37 41  0  0  0  0  0  0  0  0999 V2000
   -1.1059    1.0162    0.0000 O   0  0  0  0  0  0  0  0  0
   -1.1059    1.8412    0.0000 C   0  0  0  0  0  0  0  0  0
   -0.3914    2.2537    0.0000 C   0  0  0  0  0  0  0  0  0
   -0.3914    3.0787    0.0000 C   0  0  0  0  0  0  0  0  0
    0.3230    3.4912    0.0000 N   0  0  0  0  0  0  0  0  0
    0.3230    4.3162    0.0000 C   0  0  0  0  0  0  0  0  0
    1.0375    4.7287    0.0000 C   0  0  0  0  0  0  0  0  0
    1.7520    4.3162    0.0000 C   0  0  0  0  0  0  0  0  0
    1.7520    3.4912    0.0000 C   0  0  0  0  0  0  0  0  0
    1.0375    3.0787    0.0000 C   0  0  0  0  0  0  0  0  0
   -1.8204    0.6037    0.0000 C   0  0  0  0  0  0  0  0  0
   -1.8204   -0.2213    0.0000 C   0  0  0  0  0  0  0  0  0
   -2.5349   -0.6338    0.0000 C   0  0  0  0  0  0  0  0  0
   -3.2493   -0.2213    0.0000 C   0  0  0  0  0  0  0  0  0
   -3.2493    0.6037    0.0000 C   0  0  0  0  0  0  0  0  0
   -2.5349    1.0162    0.0000 C   0  0  0  0  0  0  0  0  0
   -3.9638   -0.6338    0.0000 C   0  0  0  0  0  0  0  0  0
   -4.6783   -0.2213    0.0000 N   0  0  0  0  0  0  0  0  0
   -5.3927   -0.6338    0.0000 C   0  0  0  0  0  0  0  0  0
   -5.3927   -1.4588    0.0000 C   0  0  0  0  0  0  0  0  0
   -4.6783   -1.8713    0.0000 C   0  0  0  0  0  0  0  0  0
   -4.6783   -2.6963    0.0000 C   0  0  0  0  0  0  0  0  0
   -3.9350   -3.0543    0.0000 C   0  0  0  0  0  0  0  0  0
   -3.7514   -3.8586    0.0000 C   0  0  0  0  0  0  0  0  0
   -4.2658   -4.5036    0.0000 C   0  0  0  0  0  0  0  0  0
   -5.0908   -4.5036    0.0000 C   0  0  0  0  0  0  0  0  0
   -5.6051   -3.8586    0.0000 C   0  0  0  0  0  0  0  0  0
   -5.4216   -3.0543    0.0000 C   0  0  0  0  0  0  0  0  0
   -6.0263   -2.4932    0.0000 C   0  0  0  0  0  0  0  0  0
   -6.8147   -2.7363    0.0000 C   0  0  0  0  0  0  0  0  0
   -6.9983   -3.5406    0.0000 C   0  0  0  0  0  0  0  0  0
   -6.3935   -4.1018    0.0000 C   0  0  0  0  0  0  0  0  0
   -2.9630   -4.1018    0.0000 C   0  0  0  0  0  0  0  0  0
   -2.3583   -3.5406    0.0000 C   0  0  0  0  0  0  0  0  0
   -2.5418   -2.7363    0.0000 C   0  0  0  0  0  0  0  0  0
   -3.3302   -2.4932    0.0000 C   0  0  0  0  0  0  0  0  0
   -4.6783    0.6037    0.0000 C   0  0  0  0  0  0  0  0  0
  1  2  1  0  0  0  0
  1 11  1  0  0  0  0
  2  3  1  0  0  0  0
  3  4  1  0  0  0  0
  4  5  1  0  0  0  0
  5  6  1  0  0  0  0
  5 10  1  0  0  0  0
  6  7  1  0  0  0  0
  7  8  1  0  0  0  0
  8  9  1  0  0  0  0
  9 10  1  0  0  0  0
 11 12  4  0  0  0  0
 11 16  4  0  0  0  0
 12 13  4  0  0  0  0
 13 14  4  0  0  0  0
 14 15  4  0  0  0  0
 14 17  1  0  0  0  0
 15 16  4  0  0  0  0
 17 18  1  0  0  0  0
 18 19  1  0  0  0  0
 18 37  1  0  0  0  0
 19 20  1  0  0  0  0
 20 21  1  0  0  0  0
 21 22  2  0  0  0  0
 22 23  1  0  0  0  0
 22 28  1  0  0  0  0
 23 24  4  0  0  0  0
 23 36  4  0  0  0  0
 24 25  1  0  0  0  0
 24 33  4  0  0  0  0
 25 26  1  0  0  0  0
 26 27  1  0  0  0  0
 27 28  4  0  0  0  0
 27 32  4  0  0  0  0
 28 29  4  0  0  0  0
 29 30  4  0  0  0  0
 30 31  4  0  0  0  0
 31 32  4  0  0  0  0
 33 34  4  0  0  0  0
 34 35  4  0  0  0  0
 35 36  4  0  0  0  0
M  END
>  <Name_Molregno>
519117

>  <DOPAMINE D1>
6.52

>  <DOPAMINE D2>
7

>  <DOPAMINE D3>
7.17

>  <DOPAMINE D5>
6.56

>  <HISTAMINE H1>
7.1

>  <HISTAMINE H3>
9.57

$$$$
519118
  Marvin  02231216192D 0   1.00000     0.00000     0

 38 43  0  0  0  0  0  0  0  0999 V2000
   -1.1994   -3.5598    0.0000 O   0  0  0  0  0  0  0  0  0
   -0.4829   -3.1509    0.0000 C   0  0  0  0  0  0  0  0  0
    0.2295   -3.5669    0.0000 C   0  0  0  0  0  0  0  0  0
    0.9460   -3.1579    0.0000 C   0  0  0  0  0  0  0  0  0
    1.6584   -3.5740    0.0000 N   0  0  0  0  0  0  0  0  0
    2.3749   -3.1650    0.0000 C   0  0  0  0  0  0  0  0  0
    3.0873   -3.5810    0.0000 C   0  0  0  0  0  0  0  0  0
    3.0833   -4.4060    0.0000 C   0  0  0  0  0  0  0  0  0
    2.3668   -4.8150    0.0000 C   0  0  0  0  0  0  0  0  0
    1.6543   -4.3990    0.0000 C   0  0  0  0  0  0  0  0  0
   -1.9119   -3.1438    0.0000 C   0  0  0  0  0  0  0  0  0
   -2.6284   -3.5528    0.0000 C   0  0  0  0  0  0  0  0  0
   -3.3408   -3.1368    0.0000 C   0  0  0  0  0  0  0  0  0
   -3.3367   -2.3118    0.0000 C   0  0  0  0  0  0  0  0  0
   -2.6202   -1.9028    0.0000 C   0  0  0  0  0  0  0  0  0
   -1.9078   -2.3188    0.0000 C   0  0  0  0  0  0  0  0  0
   -4.0491   -1.8958    0.0000 C   0  0  0  0  0  0  0  0  0
   -4.0451   -1.0708    0.0000 N   0  0  0  0  0  0  0  0  0
   -4.7575   -0.6547    0.0000 C   0  0  0  0  0  0  0  0  0
   -4.7534    0.1702    0.0000 C   0  0  0  0  0  0  0  0  0
   -5.4658    0.5863    0.0000 C   0  0  0  0  0  0  0  0  0
   -5.4618    1.4113    0.0000 C   0  0  0  0  0  0  0  0  0
   -5.3221    2.4499    0.0000 C   0  0  0  0  0  0  0  0  0
   -5.5668    3.0558    0.0000 C   0  0  0  0  0  0  0  0  0
   -5.6045    2.1597    0.0000 C   0  0  0  0  0  0  0  0  0
   -4.8659    1.8274    0.0000 C   0  0  0  0  0  0  0  0  0
   -4.7041    1.0184    0.0000 C   0  0  0  0  0  0  0  0  0
   -3.9226    0.7540    0.0000 C   0  0  0  0  0  0  0  0  0
   -3.3029    1.2986    0.0000 C   0  0  0  0  0  0  0  0  0
   -3.4647    2.1076    0.0000 C   0  0  0  0  0  0  0  0  0
   -4.2462    2.3720    0.0000 C   0  0  0  0  0  0  0  0  0
   -6.4083    1.8078    0.0000 C   0  0  0  0  0  0  0  0  0
   -6.2923    0.9909    0.0000 C   0  0  0  0  0  0  0  0  0
   -6.9418    0.4822    0.0000 C   0  0  0  0  0  0  0  0  0
   -7.7071    0.7902    0.0000 C   0  0  0  0  0  0  0  0  0
   -7.8230    1.6070    0.0000 C   0  0  0  0  0  0  0  0  0
   -7.1736    2.1158    0.0000 C   0  0  0  0  0  0  0  0  0
   -3.3286   -0.6618    0.0000 C   0  0  0  0  0  0  0  0  0
  1  2  1  0  0  0  0
  1 11  1  0  0  0  0
  2  3  1  0  0  0  0
  3  4  1  0  0  0  0
  4  5  1  0  0  0  0
  5  6  1  0  0  0  0
  5 10  1  0  0  0  0
  6  7  1  0  0  0  0
  7  8  1  0  0  0  0
  8  9  1  0  0  0  0
  9 10  1  0  0  0  0
 11 12  4  0  0  0  0
 11 16  4  0  0  0  0
 12 13  4  0  0  0  0
 13 14  4  0  0  0  0
 14 15  4  0  0  0  0
 14 17  1  0  0  0  0
 15 16  4  0  0  0  0
 17 18  1  0  0  0  0
 18 19  1  0  0  0  0
 18 38  1  0  0  0  0
 19 20  1  0  0  0  0
 20 21  1  0  0  0  0
 21 22  1  0  0  0  0
 22 23  1  0  0  0  0
 22 27  1  0  0  0  0
 22 33  1  0  0  0  0
 23 24  1  0  0  0  0
 24 25  1  0  0  0  0
 25 26  1  0  0  0  0
 25 32  1  0  0  0  0
 26 27  4  0  0  0  0
 26 31  4  0  0  0  0
 27 28  4  0  0  0  0
 28 29  4  0  0  0  0
 29 30  4  0  0  0  0
 30 31  4  0  0  0  0
 32 33  4  0  0  0  0
 32 37  4  0  0  0  0
 33 34  4  0  0  0  0
 34 35  4  0  0  0  0
 35 36  4  0  0  0  0
 36 37  4  0  0  0  0
M  END
>  <Name_Molregno>
519118

>  <DOPAMINE D1>
6.69

>  <DOPAMINE D2>
6.84

>  <DOPAMINE D3>
6.83

>  <DOPAMINE D5>
6.58

>  <HISTAMINE H1>
7.4

>  <HISTAMINE H3>
9.45

$$$$
519173
  Marvin  02231216192D 0   1.00000     0.00000     0

 37 41  0  0  0  0  0  0  0  0999 V2000
    4.8594    1.8159    0.0000 Cl  0  0  0  0  0  0  0  0  0
    5.5739    2.2284    0.0000 C   0  0  0  0  0  0  0  0  0
    6.2884    1.8159    0.0000 C   0  0  0  0  0  0  0  0  0
    7.0029    2.2284    0.0000 C   0  0  0  0  0  0  0  0  0
    7.7173    1.8159    0.0000 N   0  0  0  0  0  0  0  0  0
    8.4318    2.2284    0.0000 C   0  0  0  0  0  0  0  0  0
    8.4318    3.0534    0.0000 C   0  0  0  0  0  0  0  0  0
    7.7173    3.4659    0.0000 S   0  0  0  0  0  0  0  0  0
    7.0029    3.0534    0.0000 C   0  0  0  0  0  0  0  0  0
    6.2884    3.4659    0.0000 C   0  0  0  0  0  0  0  0  0
    5.5739    3.0534    0.0000 C   0  0  0  0  0  0  0  0  0
    9.1463    3.4659    0.0000 C   0  0  0  0  0  0  0  0  0
    9.8607    3.0534    0.0000 C   0  0  0  0  0  0  0  0  0
    9.8607    2.2284    0.0000 C   0  0  0  0  0  0  0  0  0
    9.1463    1.8159    0.0000 C   0  0  0  0  0  0  0  0  0
    7.7173    0.9909    0.0000 C   0  0  0  0  0  0  0  0  0
    7.0029    0.5784    0.0000 C   0  0  0  0  0  0  0  0  0
    7.0029   -0.2466    0.0000 C   0  0  0  0  0  0  0  0  0
    6.2884   -0.6591    0.0000 N   0  0  0  0  0  0  0  0  0
    6.2884   -1.4841    0.0000 C   0  0  0  0  0  0  0  0  0
    5.5739   -1.8966    0.0000 C   0  0  0  0  0  0  0  0  0
    5.5739   -2.7216    0.0000 C   0  0  0  0  0  0  0  0  0
    4.8594   -3.1341    0.0000 C   0  0  0  0  0  0  0  0  0
    4.1450   -2.7216    0.0000 C   0  0  0  0  0  0  0  0  0
    3.4305   -3.1341    0.0000 O   0  0  0  0  0  0  0  0  0
    3.4305   -3.9591    0.0000 C   0  0  0  0  0  0  0  0  0
    2.7160   -4.3716    0.0000 C   0  0  0  0  0  0  0  0  0
    2.7160   -5.1966    0.0000 C   0  0  0  0  0  0  0  0  0
    2.0016   -5.6091    0.0000 N   0  0  0  0  0  0  0  0  0
    2.0016   -6.4341    0.0000 C   0  0  0  0  0  0  0  0  0
    1.2871   -6.8466    0.0000 C   0  0  0  0  0  0  0  0  0
    0.5726   -6.4341    0.0000 C   0  0  0  0  0  0  0  0  0
    0.5726   -5.6091    0.0000 C   0  0  0  0  0  0  0  0  0
    1.2871   -5.1966    0.0000 C   0  0  0  0  0  0  0  0  0
    4.1450   -1.8966    0.0000 C   0  0  0  0  0  0  0  0  0
    4.8594   -1.4841    0.0000 C   0  0  0  0  0  0  0  0  0
    5.5739   -0.2466    0.0000 C   0  0  0  0  0  0  0  0  0
  1  2  1  0  0  0  0
  2  3  4  0  0  0  0
  2 11  4  0  0  0  0
  3  4  4  0  0  0  0
  4  5  1  0  0  0  0
  4  9  4  0  0  0  0
  5  6  1  0  0  0  0
  5 16  1  0  0  0  0
  6  7  4  0  0  0  0
  6 15  4  0  0  0  0
  7  8  1  0  0  0  0
  7 12  4  0  0  0  0
  8  9  1  0  0  0  0
  9 10  4  0  0  0  0
 10 11  4  0  0  0  0
 12 13  4  0  0  0  0
 13 14  4  0  0  0  0
 14 15  4  0  0  0  0
 16 17  1  0  0  0  0
 17 18  1  0  0  0  0
 18 19  1  0  0  0  0
 19 20  1  0  0  0  0
 19 37  1  0  0  0  0
 20 21  1  0  0  0  0
 21 22  4  0  0  0  0
 21 36  4  0  0  0  0
 22 23  4  0  0  0  0
 23 24  4  0  0  0  0
 24 25  1  0  0  0  0
 24 35  4  0  0  0  0
 25 26  1  0  0  0  0
 26 27  1  0  0  0  0
 27 28  1  0  0  0  0
 28 29  1  0  0  0  0
 29 30  1  0  0  0  0
 29 34  1  0  0  0  0
 30 31  1  0  0  0  0
 31 32  1  0  0  0  0
 32 33  1  0  0  0  0
 33 34  1  0  0  0  0
 35 36  4  0  0  0  0
M  END
>  <Name_Molregno>
519173

>  <DOPAMINE D1>
6.63

>  <DOPAMINE D2>
7.39

>  <DOPAMINE D3>
7.3

>  <DOPAMINE D5>
6.82

>  <HISTAMINE H1>
6.69

>  <HISTAMINE H3>
8.92

$$$$
519174
  Marvin  02231216192D 0   1.00000     0.00000     0

 37 41  0  0  0  0  0  0  0  0999 V2000
   -0.4896    2.3975    0.0000 Cl  0  0  0  0  0  0  0  0  0
   -1.2040    2.8100    0.0000 C   0  0  0  0  0  0  0  0  0
   -1.9185    2.3975    0.0000 C   0  0  0  0  0  0  0  0  0
   -2.6330    2.8100    0.0000 C   0  0  0  0  0  0  0  0  0
   -2.6330    3.6350    0.0000 C   0  0  0  0  0  0  0  0  0
   -3.3475    4.0475    0.0000 S   0  0  0  0  0  0  0  0  0
   -4.0619    3.6350    0.0000 C   0  0  0  0  0  0  0  0  0
   -4.0619    2.8100    0.0000 C   0  0  0  0  0  0  0  0  0
   -4.7764    2.3975    0.0000 C   0  0  0  0  0  0  0  0  0
   -5.4909    2.8100    0.0000 C   0  0  0  0  0  0  0  0  0
   -5.4909    3.6350    0.0000 C   0  0  0  0  0  0  0  0  0
   -4.7764    4.0475    0.0000 C   0  0  0  0  0  0  0  0  0
   -3.3475    2.3975    0.0000 C   0  0  0  0  0  0  0  0  0
   -3.3475    1.5725    0.0000 C   0  0  0  0  0  0  0  0  0
   -4.0619    1.1600    0.0000 C   0  0  0  0  0  0  0  0  0
   -4.0619    0.3350    0.0000 C   0  0  0  0  0  0  0  0  0
   -4.7764   -0.0775    0.0000 N   0  0  0  0  0  0  0  0  0
   -4.7764   -0.9025    0.0000 C   0  0  0  0  0  0  0  0  0
   -5.4909   -1.3150    0.0000 C   0  0  0  0  0  0  0  0  0
   -5.4909   -2.1400    0.0000 C   0  0  0  0  0  0  0  0  0
   -6.2053   -2.5525    0.0000 C   0  0  0  0  0  0  0  0  0
   -6.9198   -2.1400    0.0000 C   0  0  0  0  0  0  0  0  0
   -7.6343   -2.5525    0.0000 O   0  0  0  0  0  0  0  0  0
   -7.6343   -3.3775    0.0000 C   0  0  0  0  0  0  0  0  0
   -8.3488   -3.7900    0.0000 C   0  0  0  0  0  0  0  0  0
   -8.3488   -4.6150    0.0000 C   0  0  0  0  0  0  0  0  0
   -9.0632   -5.0275    0.0000 N   0  0  0  0  0  0  0  0  0
   -9.0632   -5.8525    0.0000 C   0  0  0  0  0  0  0  0  0
   -9.7777   -6.2650    0.0000 C   0  0  0  0  0  0  0  0  0
  -10.4922   -5.8525    0.0000 C   0  0  0  0  0  0  0  0  0
  -10.4922   -5.0275    0.0000 C   0  0  0  0  0  0  0  0  0
   -9.7777   -4.6150    0.0000 C   0  0  0  0  0  0  0  0  0
   -6.9198   -1.3150    0.0000 C   0  0  0  0  0  0  0  0  0
   -6.2053   -0.9025    0.0000 C   0  0  0  0  0  0  0  0  0
   -5.4909    0.3350    0.0000 C   0  0  0  0  0  0  0  0  0
   -1.9185    4.0475    0.0000 C   0  0  0  0  0  0  0  0  0
   -1.2040    3.6350    0.0000 C   0  0  0  0  0  0  0  0  0
  1  2  1  0  0  0  0
  2  3  4  0  0  0  0
  2 37  4  0  0  0  0
  3  4  4  0  0  0  0
  4  5  4  0  0  0  0
  4 13  1  0  0  0  0
  5  6  1  0  0  0  0
  5 36  4  0  0  0  0
  6  7  1  0  0  0  0
  7  8  4  0  0  0  0
  7 12  4  0  0  0  0
  8  9  4  0  0  0  0
  8 13  1  0  0  0  0
  9 10  4  0  0  0  0
 10 11  4  0  0  0  0
 11 12  4  0  0  0  0
 13 14  2  0  0  0  0
 14 15  1  0  0  0  0
 15 16  1  0  0  0  0
 16 17  1  0  0  0  0
 17 18  1  0  0  0  0
 17 35  1  0  0  0  0
 18 19  1  0  0  0  0
 19 20  4  0  0  0  0
 19 34  4  0  0  0  0
 20 21  4  0  0  0  0
 21 22  4  0  0  0  0
 22 23  1  0  0  0  0
 22 33  4  0  0  0  0
 23 24  1  0  0  0  0
 24 25  1  0  0  0  0
 25 26  1  0  0  0  0
 26 27  1  0  0  0  0
 27 28  1  0  0  0  0
 27 32  1  0  0  0  0
 28 29  1  0  0  0  0
 29 30  1  0  0  0  0
 30 31  1  0  0  0  0
 31 32  1  0  0  0  0
 33 34  4  0  0  0  0
 36 37  4  0  0  0  0
M  END
>  <Name_Molregno>
519174

>  <DOPAMINE D1>
6.61

>  <DOPAMINE D2>
7.28

>  <DOPAMINE D3>
7.3

>  <DOPAMINE D5>
6.53

>  <HISTAMINE H1>
6.53

>  <HISTAMINE H3>
8.81

$$$$
519223
  Marvin  02231216192D 0   1.00000     0.00000     0

 39 44  0  0  0  0  0  0  0  0999 V2000
   -1.5718   -4.2946    0.0000 Cl  0  0  0  0  0  0  0  0  0
   -0.7834   -4.5378    0.0000 C   0  0  0  0  0  0  0  0  0
   -0.1787   -3.9766    0.0000 C   0  0  0  0  0  0  0  0  0
    0.6097   -4.2198    0.0000 C   0  0  0  0  0  0  0  0  0
    1.1241   -3.5748    0.0000 N   0  0  0  0  0  0  0  0  0
    1.9491   -3.5748    0.0000 C   0  0  0  0  0  0  0  0  0
    2.3070   -2.8315    0.0000 N   0  0  0  0  0  0  0  0  0
    1.8423   -2.1499    0.0000 C   0  0  0  0  0  0  0  0  0
    2.2002   -1.4066    0.0000 C   0  0  0  0  0  0  0  0  0
    3.0229   -1.3449    0.0000 N   0  0  0  0  0  0  0  0  0
    3.4877   -2.0265    0.0000 C   0  0  0  0  0  0  0  0  0
    3.1297   -2.7698    0.0000 C   0  0  0  0  0  0  0  0  0
    3.3809   -0.6016    0.0000 C   0  0  0  0  0  0  0  0  0
    4.2036   -0.5399    0.0000 C   0  0  0  0  0  0  0  0  0
    4.5615    0.2034    0.0000 C   0  0  0  0  0  0  0  0  0
    5.3842    0.2650    0.0000 C   0  0  0  0  0  0  0  0  0
    5.8490   -0.4166    0.0000 C   0  0  0  0  0  0  0  0  0
    6.6717   -0.3550    0.0000 O   0  0  0  0  0  0  0  0  0
    7.0296    0.3883    0.0000 C   0  0  0  0  0  0  0  0  0
    7.8523    0.4500    0.0000 C   0  0  0  0  0  0  0  0  0
    8.2103    1.1933    0.0000 C   0  0  0  0  0  0  0  0  0
    9.0329    1.2549    0.0000 N   0  0  0  0  0  0  0  0  0
    9.3909    1.9982    0.0000 C   0  0  0  0  0  0  0  0  0
   10.2136    2.0599    0.0000 C   0  0  0  0  0  0  0  0  0
   10.6783    1.3782    0.0000 C   0  0  0  0  0  0  0  0  0
   10.3204    0.6349    0.0000 C   0  0  0  0  0  0  0  0  0
    9.4977    0.5733    0.0000 C   0  0  0  0  0  0  0  0  0
    5.4910   -1.1599    0.0000 C   0  0  0  0  0  0  0  0  0
    4.6683   -1.2216    0.0000 C   0  0  0  0  0  0  0  0  0
    2.4634   -4.2198    0.0000 C   0  0  0  0  0  0  0  0  0
    2.2799   -5.0241    0.0000 C   0  0  0  0  0  0  0  0  0
    1.5366   -5.3821    0.0000 N   0  0  0  0  0  0  0  0  0
    0.7933   -5.0241    0.0000 C   0  0  0  0  0  0  0  0  0
    0.1885   -5.5853    0.0000 C   0  0  0  0  0  0  0  0  0
   -0.5998   -5.3421    0.0000 C   0  0  0  0  0  0  0  0  0
    2.8846   -5.5853    0.0000 C   0  0  0  0  0  0  0  0  0
    3.6730   -5.3421    0.0000 C   0  0  0  0  0  0  0  0  0
    3.8566   -4.5378    0.0000 C   0  0  0  0  0  0  0  0  0
    3.2518   -3.9766    0.0000 C   0  0  0  0  0  0  0  0  0
  1  2  1  0  0  0  0
  2  3  4  0  0  0  0
  2 35  4  0  0  0  0
  3  4  4  0  0  0  0
  4  5  1  0  0  0  0
  4 33  4  0  0  0  0
  5  6  2  0  0  0  0
  6  7  1  0  0  0  0
  6 30  1  0  0  0  0
  7  8  1  0  0  0  0
  7 12  1  0  0  0  0
  8  9  1  0  0  0  0
  9 10  1  0  0  0  0
 10 11  1  0  0  0  0
 10 13  1  0  0  0  0
 11 12  1  0  0  0  0
 13 14  1  0  0  0  0
 14 15  4  0  0  0  0
 14 29  4  0  0  0  0
 15 16  4  0  0  0  0
 16 17  4  0  0  0  0
 17 18  1  0  0  0  0
 17 28  4  0  0  0  0
 18 19  1  0  0  0  0
 19 20  1  0  0  0  0
 20 21  1  0  0  0  0
 21 22  1  0  0  0  0
 22 23  1  0  0  0  0
 22 27  1  0  0  0  0
 23 24  1  0  0  0  0
 24 25  1  0  0  0  0
 25 26  1  0  0  0  0
 26 27  1  0  0  0  0
 28 29  4  0  0  0  0
 30 31  4  0  0  0  0
 30 39  4  0  0  0  0
 31 32  1  0  0  0  0
 31 36  4  0  0  0  0
 32 33  1  0  0  0  0
 33 34  4  0  0  0  0
 34 35  4  0  0  0  0
 36 37  4  0  0  0  0
 37 38  4  0  0  0  0
 38 39  4  0  0  0  0
M  END
>  <Name_Molregno>
519223

>  <DOPAMINE D1>
6.06

>  <DOPAMINE D2>
6.55

>  <DOPAMINE D3>
6.65

>  <DOPAMINE D5>
6.04

>  <HISTAMINE H1>
6.72

>  <HISTAMINE H3>
8.49

$$$$
519224
  Marvin  02231216192D 0   1.00000     0.00000     0

 48 53  0  0  0  0  0  0  0  0999 V2000
    8.7754   -5.1467    0.0000 S   0  0  0  0  0  0  0  0  0
    9.4898   -4.7342    0.0000 C   0  0  0  0  0  0  0  0  0
    9.4898   -3.9092    0.0000 C   0  0  0  0  0  0  0  0  0
    8.7754   -3.4967    0.0000 N   0  0  0  0  0  0  0  0  0
    8.0609   -3.9092    0.0000 C   0  0  0  0  0  0  0  0  0
    8.0609   -4.7342    0.0000 C   0  0  0  0  0  0  0  0  0
    7.3464   -5.1467    0.0000 C   0  0  0  0  0  0  0  0  0
    6.6319   -4.7342    0.0000 C   0  0  0  0  0  0  0  0  0
    6.6319   -3.9092    0.0000 C   0  0  0  0  0  0  0  0  0
    7.3464   -3.4967    0.0000 C   0  0  0  0  0  0  0  0  0
    8.7754   -2.6717    0.0000 C   0  0  0  0  0  0  0  0  0
    8.0609   -2.2592    0.0000 C   0  0  0  0  0  0  0  0  0
    8.0609   -1.4342    0.0000 C   0  0  0  0  0  0  0  0  0
    7.3464   -1.0217    0.0000 N   0  0  0  0  0  0  0  0  0
    6.6319   -1.4342    0.0000 C   0  0  0  0  0  0  0  0  0
    5.9175   -1.0217    0.0000 C   0  0  0  0  0  0  0  0  0
    5.9175   -0.1967    0.0000 N   0  0  0  0  0  0  0  0  0
    6.6319    0.2158    0.0000 C   0  0  0  0  0  0  0  0  0
    7.3464   -0.1967    0.0000 C   0  0  0  0  0  0  0  0  0
    5.2030    0.2158    0.0000 C   0  0  0  0  0  0  0  0  0
    5.2030    1.0408    0.0000 C   0  0  0  0  0  0  0  0  0
    4.4885    1.4533    0.0000 O   0  0  0  0  0  0  0  0  0
    4.4885    2.2783    0.0000 C   0  0  0  0  0  0  0  0  0
    5.2030    2.6908    0.0000 O   0  0  0  0  0  0  0  0  0
    3.7741    2.6908    0.0000 C   0  0  0  0  0  0  0  0  0
    3.0596    2.2783    0.0000 C   0  0  0  0  0  0  0  0  0
    2.3451    2.6908    0.0000 C   0  0  0  0  0  0  0  0  0
    2.3451    3.5158    0.0000 C   0  0  0  0  0  0  0  0  0
    1.6307    3.9283    0.0000 O   0  0  0  0  0  0  0  0  0
    1.6307    4.7533    0.0000 C   0  0  0  0  0  0  0  0  0
    0.9162    5.1658    0.0000 C   0  0  0  0  0  0  0  0  0
    0.9162    5.9908    0.0000 C   0  0  0  0  0  0  0  0  0
    0.2017    6.4033    0.0000 N   0  0  0  0  0  0  0  0  0
   -0.5128    5.9908    0.0000 C   0  0  0  0  0  0  0  0  0
   -1.2272    6.4033    0.0000 C   0  0  0  0  0  0  0  0  0
   -1.2272    7.2283    0.0000 C   0  0  0  0  0  0  0  0  0
   -0.5128    7.6408    0.0000 C   0  0  0  0  0  0  0  0  0
    0.2017    7.2283    0.0000 C   0  0  0  0  0  0  0  0  0
    3.0596    3.9283    0.0000 C   0  0  0  0  0  0  0  0  0
    3.7741    3.5158    0.0000 C   0  0  0  0  0  0  0  0  0
   10.2043   -3.4967    0.0000 C   0  0  0  0  0  0  0  0  0
   10.9188   -3.9092    0.0000 C   0  0  0  0  0  0  0  0  0
   10.9188   -4.7342    0.0000 C   0  0  0  0  0  0  0  0  0
   10.2043   -5.1467    0.0000 C   0  0  0  0  0  0  0  0  0
   11.6332   -3.4967    0.0000 C   0  0  0  0  0  0  0  0  0
   12.3477   -3.0842    0.0000 F   0  0  0  0  0  0  0  0  0
   12.0457   -4.2112    0.0000 F   0  0  0  0  0  0  0  0  0
   11.2207   -2.7822    0.0000 F   0  0  0  0  0  0  0  0  0
  1  2  1  0  0  0  0
  1  6  1  0  0  0  0
  2  3  4  0  0  0  0
  2 44  4  0  0  0  0
  3  4  1  0  0  0  0
  3 41  4  0  0  0  0
  4  5  1  0  0  0  0
  4 11  1  0  0  0  0
  5  6  4  0  0  0  0
  5 10  4  0  0  0  0
  6  7  4  0  0  0  0
  7  8  4  0  0  0  0
  8  9  4  0  0  0  0
  9 10  4  0  0  0  0
 11 12  1  0  0  0  0
 12 13  1  0  0  0  0
 13 14  1  0  0  0  0
 14 15  1  0  0  0  0
 14 19  1  0  0  0  0
 15 16  1  0  0  0  0
 16 17  1  0  0  0  0
 17 18  1  0  0  0  0
 17 20  1  0  0  0  0
 18 19  1  0  0  0  0
 20 21  1  0  0  0  0
 21 22  1  0  0  0  0
 22 23  1  0  0  0  0
 23 24  2  0  0  0  0
 23 25  1  0  0  0  0
 25 26  4  0  0  0  0
 25 40  4  0  0  0  0
 26 27  4  0  0  0  0
 27 28  4  0  0  0  0
 28 29  1  0  0  0  0
 28 39  4  0  0  0  0
 29 30  1  0  0  0  0
 30 31  1  0  0  0  0
 31 32  1  0  0  0  0
 32 33  1  0  0  0  0
 33 34  1  0  0  0  0
 33 38  1  0  0  0  0
 34 35  1  0  0  0  0
 35 36  1  0  0  0  0
 36 37  1  0  0  0  0
 37 38  1  0  0  0  0
 39 40  4  0  0  0  0
 41 42  4  0  0  0  0
 42 43  4  0  0  0  0
 42 45  1  0  0  0  0
 43 44  4  0  0  0  0
 45 46  1  0  0  0  0
 45 47  1  0  0  0  0
 45 48  1  0  0  0  0
M  END
>  <Name_Molregno>
519224

>  <DOPAMINE D1>
6.69

>  <DOPAMINE D2>
7.33

>  <DOPAMINE D3>
7.82

>  <DOPAMINE D5>
6.58

>  <HISTAMINE H1>
6.41

>  <HISTAMINE H3>
10.38

$$$$
591110
  Marvin  02231216192D 0   1.00000     0.00000     0

 27 31  0  0  1  0  0  0  0  0999 V2000
    0.4188    1.2437    0.0000 O   0  0  0  0  0  0  0  0  0
   -0.3658    0.9887    0.0000 C   0  0  0  0  0  0  0  0  0
   -0.3658    0.1637    0.0000 C   0  0  0  0  0  0  0  0  0
    0.4188   -0.0912    0.0000 O   0  0  0  0  0  0  0  0  0
    0.9037    0.5762    0.0000 C   0  0  0  0  0  0  0  0  0
   -1.0803   -0.2488    0.0000 C   0  0  0  0  0  0  0  0  0
   -1.7947    0.1637    0.0000 C   0  0  0  0  0  0  0  0  0
   -2.5092   -0.2488    0.0000 C   0  0  0  0  0  0  0  0  0
   -3.2237    0.1637    0.0000 C   0  0  0  0  0  0  0  0  0
   -3.9382   -0.2488    0.0000 N   0  0  0  0  0  0  0  0  0
   -4.6526    0.1637    0.0000 C   0  0  0  0  0  0  0  0  0
   -4.6526    0.9887    0.0000 C   0  0  0  0  0  0  0  0  0
   -3.9382    1.4012    0.0000 C   0  0  0  0  0  0  0  0  0
   -3.9382    2.2262    0.0000 C   0  0  0  0  0  0  0  0  0
   -3.2237    2.6387    0.0000 C   0  0  0  0  0  0  0  0  0
   -3.2237    3.4637    0.0000 C   0  0  0  0  0  0  0  0  0
   -3.9382    3.8762    0.0000 O   0  0  0  0  0  0  0  0  0
   -2.5092    3.8762    0.0000 C   0  0  0  0  0  0  0  0  0
   -2.5092    2.2262    0.0000 C   0  0  0  0  0  0  0  0  0
   -2.5092    1.4012    0.0000 C   0  0  0  0  0  0  0  0  0
   -3.2237    0.9887    0.0000 C   0  0  0  0  0  0  0  0  0
   -1.7947    0.9887    0.0000 C   0  0  0  0  0  0  0  0  0
   -1.0803    1.4012    0.0000 C   0  0  0  0  0  0  0  0  0
   -1.7947    2.6387    0.0000 C   0  0  0  0  0  0  0  0  0
   -1.0803    2.2262    0.0000 O   0  0  0  0  0  0  0  0  0
   -1.7947    3.4637    0.0000 C   0  0  0  0  0  0  0  0  0
   -3.9382   -1.0738    0.0000 C   0  0  0  0  0  0  0  0  0
  1  2  1  0  0  0  0
  1  5  1  0  0  0  0
  2  3  4  0  0  0  0
  2 23  4  0  0  0  0
  3  4  1  0  0  0  0
  3  6  4  0  0  0  0
  4  5  1  0  0  0  0
  6  7  4  0  0  0  0
  7  8  1  0  0  0  0
  7 22  4  0  0  0  0
  8  9  1  0  0  0  0
  9 10  1  0  0  0  0
  9 21  1  0  0  0  0
 10 11  1  0  0  0  0
 10 27  1  0  0  0  0
 11 12  1  0  0  0  0
 12 13  1  0  0  0  0
 13 14  4  0  0  0  0
 13 21  4  0  0  0  0
 14 15  4  0  0  0  0
 15 16  1  0  0  0  0
 15 19  4  0  0  0  0
 16 17  2  0  0  0  0
 16 18  1  0  0  0  0
 19 20  4  0  0  0  0
 19 24  1  0  0  0  0
 20 21  4  0  0  0  0
 20 22  1  0  0  0  0
 22 23  4  0  0  0  0
 24 25  2  0  0  0  0
 24 26  1  0  0  0  0
M  END
>  <Name_Molregno>
591110

>  <5-HT1B>
7

>  <5-HT1D>
7.31

>  <5-HT1E>
5

>  <5-HT2A>
6.08

>  <5-HT2C>
5.97

>  <5-HT3>
5

>  <5-HT5>
5.65

>  <5-HT6>
6.59

>  <5-HT7>
7.17

>  <Alpha-1A>
8.7

>  <Alpha-1B>
5.92

>  <Alpha-2A>
5.89

>  <Alpha-2B>
6.6

>  <Alpha-2C>
6.74

>  <Beta-1>
5.07

>  <Beta-2>
5

>  <DOPAMINE D1>
6.05

>  <DOPAMINE D2>
6.07

>  <DOPAMINE D3>
6.51

>  <DOPAMINE D4>
6.58

>  <DOPAMINE D5>
5.62

>  <Dopamine transporter>
5

>  <HISTAMINE H1>
5

>  <HISTAMINE H2>
6.17

>  <HISTAMINE H3>
5

>  <HISTAMINE H4>
5

>  <Muscarinic acetylcholine receptor M1>
5

>  <Muscarinic acetylcholine receptor M2>
5

>  <Muscarinic acetylcholine receptor M3>
5

>  <Muscarinic acetylcholine receptor M4>
5

>  <Norepinephrine transporter>
5

>  <Serotonin transporter>
6.61

$$$$
594329
  Marvin  02231216192D 0   1.00000     0.00000     0

 22 25  0  0  0  0  0  0  0  0999 V2000
    4.9785    1.6165    0.0000 O   0  0  0  0  0  0  0  0  0
    4.1539    1.5897    0.0000 C   0  0  0  0  0  0  0  0  0
    3.8736    2.3656    0.0000 C   0  0  0  0  0  0  0  0  0
    4.5249    2.8720    0.0000 O   0  0  0  0  0  0  0  0  0
    5.2078    2.4090    0.0000 C   0  0  0  0  0  0  0  0  0
    3.0615    2.5108    0.0000 C   0  0  0  0  0  0  0  0  0
    2.5297    1.8801    0.0000 C   0  0  0  0  0  0  0  0  0
    2.8100    1.1042    0.0000 C   0  0  0  0  0  0  0  0  0
    2.2781    0.4735    0.0000 C   0  0  0  0  0  0  0  0  0
    2.5584   -0.3024    0.0000 C   0  0  0  0  0  0  0  0  0
    2.0266   -0.9331    0.0000 C   0  0  0  0  0  0  0  0  0
    1.2145   -0.7879    0.0000 N   0  0  0  0  0  0  0  0  0
    0.9342   -0.0120    0.0000 C   0  0  0  0  0  0  0  0  0
    1.4660    0.6187    0.0000 C   0  0  0  0  0  0  0  0  0
    1.1857    1.3946    0.0000 C   0  0  0  0  0  0  0  0  0
    1.7176    2.0254    0.0000 C   0  0  0  0  0  0  0  0  0
    1.4373    2.8013    0.0000 C   0  0  0  0  0  0  0  0  0
    0.6251    2.9465    0.0000 C   0  0  0  0  0  0  0  0  0
    0.0933    2.3158    0.0000 C   0  0  0  0  0  0  0  0  0
    0.3736    1.5399    0.0000 C   0  0  0  0  0  0  0  0  0
    0.6827   -1.4186    0.0000 C   0  0  0  0  0  0  0  0  0
    3.6221    0.9590    0.0000 C   0  0  0  0  0  0  0  0  0
  1  2  1  0  0  0  0
  1  5  1  0  0  0  0
  2  3  4  0  0  0  0
  2 22  4  0  0  0  0
  3  4  1  0  0  0  0
  3  6  4  0  0  0  0
  4  5  1  0  0  0  0
  6  7  4  0  0  0  0
  7  8  4  0  0  0  0
  7 16  1  0  0  0  0
  8  9  1  0  0  0  0
  8 22  4  0  0  0  0
  9 10  1  0  0  0  0
 10 11  1  0  0  0  0
 11 12  1  0  0  0  0
 12 13  1  0  0  0  0
 12 21  1  0  0  0  0
 13 14  1  0  0  0  0
 14 15  1  0  0  0  0
 15 16  4  0  0  0  0
 15 20  4  0  0  0  0
 16 17  4  0  0  0  0
 17 18  4  0  0  0  0
 18 19  4  0  0  0  0
 19 20  4  0  0  0  0
M  END
>  <Name_Molregno>
594329

>  <DOPAMINE D1>
5.16

>  <DOPAMINE D2>
5

>  <DOPAMINE D3>
5

>  <DOPAMINE D4>
5

>  <DOPAMINE D5>
5.37

$$$$
594340
  Marvin  02231216192D 0   1.00000     0.00000     0

 20 22  0  0  1  0  0  0  0  0999 V2000
    0.4365   -1.6699    0.0000 O   0  0  0  0  0  0  0  0  0
    1.1510   -1.2574    0.0000 C   0  0  0  0  0  0  0  0  0
    1.8655   -1.6699    0.0000 C   0  0  0  0  0  0  0  0  0
    2.5799   -1.2574    0.0000 C   0  0  0  0  0  0  0  0  0
    2.5799   -0.4324    0.0000 C   0  0  0  0  0  0  0  0  0
    1.8655   -0.0199    0.0000 C   0  0  0  0  0  0  0  0  0
    1.1510   -0.4324    0.0000 C   0  0  0  0  0  0  0  0  0
    3.2944   -0.0199    0.0000 C   0  0  0  0  0  0  0  0  0
    4.0089   -0.4324    0.0000 N   0  0  0  0  0  0  0  0  0
    4.0089   -1.2574    0.0000 C   0  0  0  0  0  0  0  0  0
    3.2944   -1.6699    0.0000 C   0  0  0  0  0  0  0  0  0
    4.7233   -0.0199    0.0000 C   0  0  0  0  0  0  0  0  0
    3.2944    0.8051    0.0000 C   0  0  0  0  0  0  0  0  0
    4.0089    1.2176    0.0000 C   0  0  0  0  0  0  0  0  0
    4.7233    0.8051    0.0000 C   0  0  0  0  0  0  0  0  0
    5.4378    1.2176    0.0000 C   0  0  0  0  0  0  0  0  0
    5.4378    2.0426    0.0000 C   0  0  0  0  0  0  0  0  0
    4.7233    2.4551    0.0000 C   0  0  0  0  0  0  0  0  0
    4.0089    2.0426    0.0000 C   0  0  0  0  0  0  0  0  0
    3.2944    2.4551    0.0000 C   0  0  0  0  0  0  0  0  0
  1  2  1  0  0  0  0
  2  3  4  0  0  0  0
  2  7  4  0  0  0  0
  3  4  4  0  0  0  0
  4  5  4  0  0  0  0
  4 11  1  0  0  0  0
  5  6  4  0  0  0  0
  5  8  1  0  0  0  0
  6  7  4  0  0  0  0
  8  9  1  0  0  0  0
  8 13  1  0  0  0  0
  9 10  1  0  0  0  0
  9 12  1  0  0  0  0
 10 11  1  0  0  0  0
 13 14  1  0  0  0  0
 14 15  4  0  0  0  0
 14 19  4  0  0  0  0
 15 16  4  0  0  0  0
 16 17  4  0  0  0  0
 17 18  4  0  0  0  0
 18 19  4  0  0  0  0
 19 20  1  0  0  0  0
M  END
>  <Name_Molregno>
594340

>  <DOPAMINE D1>
5.52

>  <DOPAMINE D2>
5.56

>  <DOPAMINE D3>
5

>  <DOPAMINE D4>
5

>  <DOPAMINE D5>
5

$$$$
594341
  Marvin  02231216192D 0   1.00000     0.00000     0

 21 23  0  0  1  0  0  0  0  0999 V2000
    0.1787    1.6422    0.0000 O   0  0  0  0  0  0  0  0  0
   -0.5358    1.2297    0.0000 C   0  0  0  0  0  0  0  0  0
    0.8932    1.2297    0.0000 C   0  0  0  0  0  0  0  0  0
    1.6077    1.6422    0.0000 C   0  0  0  0  0  0  0  0  0
    2.3221    1.2297    0.0000 C   0  0  0  0  0  0  0  0  0
    3.0366    1.6422    0.0000 C   0  0  0  0  0  0  0  0  0
    3.7511    1.2297    0.0000 C   0  0  0  0  0  0  0  0  0
    2.3221    0.4047    0.0000 C   0  0  0  0  0  0  0  0  0
    1.6077   -0.0078    0.0000 C   0  0  0  0  0  0  0  0  0
    0.8932    0.4047    0.0000 C   0  0  0  0  0  0  0  0  0
    3.0366   -0.0078    0.0000 C   0  0  0  0  0  0  0  0  0
    3.0366   -0.8328    0.0000 N   0  0  0  0  0  0  0  0  0
    3.7511   -1.2453    0.0000 C   0  0  0  0  0  0  0  0  0
    4.4655   -0.8328    0.0000 C   0  0  0  0  0  0  0  0  0
    4.4655   -0.0078    0.0000 C   0  0  0  0  0  0  0  0  0
    3.7511    0.4047    0.0000 C   0  0  0  0  0  0  0  0  0
    5.1800    0.4047    0.0000 C   0  0  0  0  0  0  0  0  0
    5.8945   -0.0078    0.0000 C   0  0  0  0  0  0  0  0  0
    5.8945   -0.8328    0.0000 C   0  0  0  0  0  0  0  0  0
    5.1800   -1.2453    0.0000 C   0  0  0  0  0  0  0  0  0
    2.3221   -1.2453    0.0000 C   0  0  0  0  0  0  0  0  0
  1  2  1  0  0  0  0
  1  3  1  0  0  0  0
  3  4  4  0  0  0  0
  3 10  4  0  0  0  0
  4  5  4  0  0  0  0
  5  6  1  0  0  0  0
  5  8  4  0  0  0  0
  6  7  1  0  0  0  0
  8  9  4  0  0  0  0
  8 11  1  0  0  0  0
  9 10  4  0  0  0  0
 11 12  1  0  0  0  0
 11 16  1  0  0  0  0
 12 13  1  0  0  0  0
 12 21  1  0  0  0  0
 13 14  1  0  0  0  0
 14 15  4  0  0  0  0
 14 20  4  0  0  0  0
 15 16  1  0  0  0  0
 15 17  4  0  0  0  0
 17 18  4  0  0  0  0
 18 19  4  0  0  0  0
 19 20  4  0  0  0  0
M  END
>  <Name_Molregno>
594341

>  <DOPAMINE D1>
5

>  <DOPAMINE D2>
5

>  <DOPAMINE D3>
5

>  <DOPAMINE D4>
5

>  <DOPAMINE D5>
5

$$$$
594386
  Marvin  02231216192D 0   1.00000     0.00000     0

 19 22  0  0  1  0  0  0  0  0999 V2000
   -0.0338   -0.6455    0.0000 O   0  0  0  0  0  0  0  0  0
    0.7764   -0.4896    0.0000 C   0  0  0  0  0  0  0  0  0
    1.0464    0.2899    0.0000 C   0  0  0  0  0  0  0  0  0
    1.8565    0.4459    0.0000 C   0  0  0  0  0  0  0  0  0
    2.1266    1.2254    0.0000 C   0  0  0  0  0  0  0  0  0
    2.9367    1.3813    0.0000 C   0  0  0  0  0  0  0  0  0
    3.4768    0.7577    0.0000 N   0  0  0  0  0  0  0  0  0
    3.2068   -0.0219    0.0000 C   0  0  0  0  0  0  0  0  0
    3.7468   -0.6455    0.0000 C   0  0  0  0  0  0  0  0  0
    4.5570   -0.4896    0.0000 C   0  0  0  0  0  0  0  0  0
    4.8270    0.2899    0.0000 C   0  0  0  0  0  0  0  0  0
    4.2869    0.9136    0.0000 C   0  0  0  0  0  0  0  0  0
    5.6372    0.4459    0.0000 C   0  0  0  0  0  0  0  0  0
    6.1772   -0.1778    0.0000 C   0  0  0  0  0  0  0  0  0
    5.9072   -0.9573    0.0000 C   0  0  0  0  0  0  0  0  0
    5.0971   -1.1132    0.0000 C   0  0  0  0  0  0  0  0  0
    2.3966   -0.1778    0.0000 C   0  0  0  0  0  0  0  0  0
    2.1266   -0.9573    0.0000 C   0  0  0  0  0  0  0  0  0
    1.3164   -1.1132    0.0000 C   0  0  0  0  0  0  0  0  0
  1  2  1  0  0  0  0
  2  3  4  0  0  0  0
  2 19  4  0  0  0  0
  3  4  4  0  0  0  0
  4  5  1  0  0  0  0
  4 17  4  0  0  0  0
  5  6  1  0  0  0  0
  6  7  1  0  0  0  0
  7  8  1  0  0  0  0
  7 12  1  0  0  0  0
  8  9  1  0  0  0  0
  8 17  1  0  0  0  0
  9 10  1  0  0  0  0
 10 11  4  0  0  0  0
 10 16  4  0  0  0  0
 11 12  1  0  0  0  0
 11 13  4  0  0  0  0
 13 14  4  0  0  0  0
 14 15  4  0  0  0  0
 15 16  4  0  0  0  0
 17 18  4  0  0  0  0
 18 19  4  0  0  0  0
M  END
>  <Name_Molregno>
594386

>  <DOPAMINE D1>
6.87

>  <DOPAMINE D2>
6.31

>  <DOPAMINE D3>
6.51

>  <DOPAMINE D4>
5.29

>  <DOPAMINE D5>
7.39

$$$$
594387
  Marvin  02231216192D 0   1.00000     0.00000     0

 21 23  0  0  1  0  0  0  0  0999 V2000
    0.4314   -1.9047    0.0000 O   0  0  0  0  0  0  0  0  0
   -0.2831   -1.4922    0.0000 C   0  0  0  0  0  0  0  0  0
    1.1458   -1.4922    0.0000 C   0  0  0  0  0  0  0  0  0
    1.8603   -1.9047    0.0000 C   0  0  0  0  0  0  0  0  0
    2.5748   -1.4922    0.0000 C   0  0  0  0  0  0  0  0  0
    2.5748   -0.6672    0.0000 C   0  0  0  0  0  0  0  0  0
    1.8603   -0.2547    0.0000 C   0  0  0  0  0  0  0  0  0
    1.1458   -0.6672    0.0000 C   0  0  0  0  0  0  0  0  0
    3.2892   -0.2547    0.0000 C   0  0  0  0  0  0  0  0  0
    4.0037   -0.6672    0.0000 N   0  0  0  0  0  0  0  0  0
    4.0037   -1.4922    0.0000 C   0  0  0  0  0  0  0  0  0
    3.2892   -1.9047    0.0000 C   0  0  0  0  0  0  0  0  0
    4.7182   -0.2547    0.0000 C   0  0  0  0  0  0  0  0  0
    3.2892    0.5703    0.0000 C   0  0  0  0  0  0  0  0  0
    4.0037    0.9828    0.0000 C   0  0  0  0  0  0  0  0  0
    4.7182    0.5703    0.0000 C   0  0  0  0  0  0  0  0  0
    5.4327    0.9828    0.0000 C   0  0  0  0  0  0  0  0  0
    5.4327    1.8078    0.0000 C   0  0  0  0  0  0  0  0  0
    4.7182    2.2203    0.0000 C   0  0  0  0  0  0  0  0  0
    4.0037    1.8078    0.0000 C   0  0  0  0  0  0  0  0  0
    3.2892    2.2203    0.0000 C   0  0  0  0  0  0  0  0  0
  1  2  1  0  0  0  0
  1  3  1  0  0  0  0
  3  4  4  0  0  0  0
  3  8  4  0  0  0  0
  4  5  4  0  0  0  0
  5  6  4  0  0  0  0
  5 12  1  0  0  0  0
  6  7  4  0  0  0  0
  6  9  1  0  0  0  0
  7  8  4  0  0  0  0
  9 10  1  0  0  0  0
  9 14  1  0  0  0  0
 10 11  1  0  0  0  0
 10 13  1  0  0  0  0
 11 12  1  0  0  0  0
 14 15  1  0  0  0  0
 15 16  4  0  0  0  0
 15 20  4  0  0  0  0
 16 17  4  0  0  0  0
 17 18  4  0  0  0  0
 18 19  4  0  0  0  0
 19 20  4  0  0  0  0
 20 21  1  0  0  0  0
M  END
>  <Name_Molregno>
594387

>  <DOPAMINE D1>
5.63

>  <DOPAMINE D2>
5.13

>  <DOPAMINE D3>
5

>  <DOPAMINE D4>
5.18

>  <DOPAMINE D5>
5

$$$$
594401
  Marvin  02231216192D 0   1.00000     0.00000     0

 21 23  0  0  0  0  0  0  0  0999 V2000
   -6.2340    0.5870    0.0000 O   0  0  0  0  0  0  0  0  0
   -6.7741   -0.0367    0.0000 C   0  0  0  0  0  0  0  0  0
   -5.4239    0.4310    0.0000 C   0  0  0  0  0  0  0  0  0
   -4.8838    1.0547    0.0000 C   0  0  0  0  0  0  0  0  0
   -4.0736    0.8988    0.0000 C   0  0  0  0  0  0  0  0  0
   -3.5336    1.5224    0.0000 C   0  0  0  0  0  0  0  0  0
   -2.7234    1.3665    0.0000 C   0  0  0  0  0  0  0  0  0
   -2.1833    1.9901    0.0000 N   0  0  0  0  0  0  0  0  0
   -1.3732    1.8342    0.0000 C   0  0  0  0  0  0  0  0  0
   -1.1032    1.0547    0.0000 C   0  0  0  0  0  0  0  0  0
   -1.6432    0.4310    0.0000 C   0  0  0  0  0  0  0  0  0
   -2.4534    0.5870    0.0000 C   0  0  0  0  0  0  0  0  0
   -2.9935   -0.0367    0.0000 C   0  0  0  0  0  0  0  0  0
   -3.8036    0.1192    0.0000 C   0  0  0  0  0  0  0  0  0
   -4.3437   -0.5044    0.0000 C   0  0  0  0  0  0  0  0  0
   -5.1538   -0.3485    0.0000 C   0  0  0  0  0  0  0  0  0
   -1.3732   -0.3485    0.0000 C   0  0  0  0  0  0  0  0  0
   -0.5631   -0.5044    0.0000 C   0  0  0  0  0  0  0  0  0
   -0.0230    0.1192    0.0000 C   0  0  0  0  0  0  0  0  0
   -0.2930    0.8988    0.0000 C   0  0  0  0  0  0  0  0  0
   -2.4534    2.7697    0.0000 C   0  0  0  0  0  0  0  0  0
  1  2  1  0  0  0  0
  1  3  1  0  0  0  0
  3  4  4  0  0  0  0
  3 16  4  0  0  0  0
  4  5  4  0  0  0  0
  5  6  1  0  0  0  0
  5 14  4  0  0  0  0
  6  7  1  0  0  0  0
  7  8  1  0  0  0  0
  8  9  1  0  0  0  0
  8 21  1  0  0  0  0
  9 10  1  0  0  0  0
 10 11  4  0  0  0  0
 10 20  4  0  0  0  0
 11 12  1  0  0  0  0
 11 17  4  0  0  0  0
 12 13  1  0  0  0  0
 13 14  1  0  0  0  0
 14 15  4  0  0  0  0
 15 16  4  0  0  0  0
 17 18  4  0  0  0  0
 18 19  4  0  0  0  0
 19 20  4  0  0  0  0
M  END
>  <Name_Molregno>
594401

>  <DOPAMINE D1>
5.76

>  <DOPAMINE D2>
5

>  <DOPAMINE D3>
5

>  <DOPAMINE D4>
5

>  <DOPAMINE D5>
5.82

$$$$
594402
  Marvin  02231216192D 0   1.00000     0.00000     0

 20 23  0  0  1  0  0  0  0  0999 V2000
    5.3222    0.9297    0.0000 O   0  0  0  0  0  0  0  0  0
    5.3222    1.7547    0.0000 C   0  0  0  0  0  0  0  0  0
    4.6078    0.5172    0.0000 C   0  0  0  0  0  0  0  0  0
    4.6078   -0.3078    0.0000 C   0  0  0  0  0  0  0  0  0
    3.8933   -0.7203    0.0000 C   0  0  0  0  0  0  0  0  0
    3.8933   -1.5453    0.0000 C   0  0  0  0  0  0  0  0  0
    3.1788   -1.9578    0.0000 C   0  0  0  0  0  0  0  0  0
    2.4644   -1.5453    0.0000 N   0  0  0  0  0  0  0  0  0
    2.4644   -0.7203    0.0000 C   0  0  0  0  0  0  0  0  0
    3.1788   -0.3078    0.0000 C   0  0  0  0  0  0  0  0  0
    3.1788    0.5172    0.0000 C   0  0  0  0  0  0  0  0  0
    3.8933    0.9297    0.0000 C   0  0  0  0  0  0  0  0  0
    1.7499   -0.3078    0.0000 C   0  0  0  0  0  0  0  0  0
    1.0354   -0.7203    0.0000 C   0  0  0  0  0  0  0  0  0
    1.0354   -1.5453    0.0000 C   0  0  0  0  0  0  0  0  0
    1.7499   -1.9578    0.0000 C   0  0  0  0  0  0  0  0  0
    0.3209   -0.3078    0.0000 C   0  0  0  0  0  0  0  0  0
    0.3209    0.5172    0.0000 C   0  0  0  0  0  0  0  0  0
    1.0354    0.9297    0.0000 C   0  0  0  0  0  0  0  0  0
    1.7499    0.5172    0.0000 C   0  0  0  0  0  0  0  0  0
  1  2  1  0  0  0  0
  1  3  1  0  0  0  0
  3  4  4  0  0  0  0
  3 12  4  0  0  0  0
  4  5  4  0  0  0  0
  5  6  1  0  0  0  0
  5 10  4  0  0  0  0
  6  7  1  0  0  0  0
  7  8  1  0  0  0  0
  8  9  1  0  0  0  0
  8 16  1  0  0  0  0
  9 10  1  0  0  0  0
  9 13  1  0  0  0  0
 10 11  4  0  0  0  0
 11 12  4  0  0  0  0
 13 14  4  0  0  0  0
 13 20  4  0  0  0  0
 14 15  1  0  0  0  0
 14 17  4  0  0  0  0
 15 16  1  0  0  0  0
 17 18  4  0  0  0  0
 18 19  4  0  0  0  0
 19 20  4  0  0  0  0
M  END
>  <Name_Molregno>
594402

>  <DOPAMINE D1>
5.67

>  <DOPAMINE D2>
5

>  <DOPAMINE D3>
5

>  <DOPAMINE D4>
5

>  <DOPAMINE D5>
5

$$$$
594403
  Marvin  02231216192D 0   1.00000     0.00000     0

 19 22  0  0  1  0  0  0  0  0999 V2000
    5.3389    0.0219    0.0000 O   0  0  0  0  0  0  0  0  0
    4.6244   -0.3906    0.0000 C   0  0  0  0  0  0  0  0  0
    4.6244   -1.2156    0.0000 C   0  0  0  0  0  0  0  0  0
    3.9099   -1.6281    0.0000 C   0  0  0  0  0  0  0  0  0
    3.9099   -2.4531    0.0000 C   0  0  0  0  0  0  0  0  0
    3.1955   -2.8656    0.0000 C   0  0  0  0  0  0  0  0  0
    2.4810   -2.4531    0.0000 N   0  0  0  0  0  0  0  0  0
    2.4810   -1.6281    0.0000 C   0  0  0  0  0  0  0  0  0
    3.1955   -1.2156    0.0000 C   0  0  0  0  0  0  0  0  0
    3.1955   -0.3906    0.0000 C   0  0  0  0  0  0  0  0  0
    3.9099    0.0219    0.0000 C   0  0  0  0  0  0  0  0  0
    1.7665   -1.2156    0.0000 C   0  0  0  0  0  0  0  0  0
    1.0520   -1.6281    0.0000 C   0  0  0  0  0  0  0  0  0
    1.0520   -2.4531    0.0000 C   0  0  0  0  0  0  0  0  0
    1.7665   -2.8656    0.0000 C   0  0  0  0  0  0  0  0  0
    0.3376   -1.2156    0.0000 C   0  0  0  0  0  0  0  0  0
    0.3376   -0.3906    0.0000 C   0  0  0  0  0  0  0  0  0
    1.0520    0.0219    0.0000 C   0  0  0  0  0  0  0  0  0
    1.7665   -0.3906    0.0000 C   0  0  0  0  0  0  0  0  0
  1  2  1  0  0  0  0
  2  3  4  0  0  0  0
  2 11  4  0  0  0  0
  3  4  4  0  0  0  0
  4  5  1  0  0  0  0
  4  9  4  0  0  0  0
  5  6  1  0  0  0  0
  6  7  1  0  0  0  0
  7  8  1  0  0  0  0
  7 15  1  0  0  0  0
  8  9  1  0  0  0  0
  8 12  1  0  0  0  0
  9 10  4  0  0  0  0
 10 11  4  0  0  0  0
 12 13  4  0  0  0  0
 12 19  4  0  0  0  0
 13 14  1  0  0  0  0
 13 16  4  0  0  0  0
 14 15  1  0  0  0  0
 16 17  4  0  0  0  0
 17 18  4  0  0  0  0
 18 19  4  0  0  0  0
M  END
>  <Name_Molregno>
594403

>  <DOPAMINE D1>
5

>  <DOPAMINE D2>
5

>  <DOPAMINE D3>
5

>  <DOPAMINE D4>
5

>  <DOPAMINE D5>
5

$$$$
594448
  Marvin  02231216192D 0   1.00000     0.00000     0

 24 27  0  0  1  0  0  0  0  0999 V2000
   -0.1249   -0.5370    0.0000 O   0  0  0  0  0  0  0  0  0
    0.6852   -0.6929    0.0000 C   0  0  0  0  0  0  0  0  0
   -0.3950    0.2426    0.0000 C   0  0  0  0  0  0  0  0  0
   -1.2051    0.3985    0.0000 C   0  0  0  0  0  0  0  0  0
   -1.4751    1.1780    0.0000 C   0  0  0  0  0  0  0  0  0
   -2.2853    1.3340    0.0000 C   0  0  0  0  0  0  0  0  0
   -2.8254    0.7103    0.0000 C   0  0  0  0  0  0  0  0  0
   -2.5553   -0.0692    0.0000 N   0  0  0  0  0  0  0  0  0
   -1.7452   -0.2251    0.0000 C   0  0  0  0  0  0  0  0  0
   -3.0954   -0.6929    0.0000 C   0  0  0  0  0  0  0  0  0
   -3.9055   -0.5370    0.0000 C   0  0  0  0  0  0  0  0  0
   -4.1756    0.2426    0.0000 C   0  0  0  0  0  0  0  0  0
   -4.9857    0.3985    0.0000 C   0  0  0  0  0  0  0  0  0
   -5.2558    1.1780    0.0000 C   0  0  0  0  0  0  0  0  0
   -6.0659    1.3340    0.0000 O   0  0  0  0  0  0  0  0  0
   -6.6060    0.7103    0.0000 C   0  0  0  0  0  0  0  0  0
   -4.7157    1.8017    0.0000 C   0  0  0  0  0  0  0  0  0
   -4.9857    2.5812    0.0000 O   0  0  0  0  0  0  0  0  0
   -3.9055    1.6458    0.0000 C   0  0  0  0  0  0  0  0  0
   -3.6355    0.8662    0.0000 C   0  0  0  0  0  0  0  0  0
   -0.9351    1.8017    0.0000 C   0  0  0  0  0  0  0  0  0
   -0.1249    1.6458    0.0000 C   0  0  0  0  0  0  0  0  0
    0.1451    0.8662    0.0000 C   0  0  0  0  0  0  0  0  0
    0.9553    0.7103    0.0000 O   0  0  0  0  0  0  0  0  0
  1  2  1  0  0  0  0
  1  3  1  0  0  0  0
  3  4  4  0  0  0  0
  3 23  4  0  0  0  0
  4  5  4  0  0  0  0
  4  9  1  0  0  0  0
  5  6  1  0  0  0  0
  5 21  4  0  0  0  0
  6  7  1  0  0  0  0
  7  8  1  0  0  0  0
  7 20  1  0  0  0  0
  8  9  1  0  0  0  0
  8 10  1  0  0  0  0
 10 11  1  0  0  0  0
 11 12  1  0  0  0  0
 12 13  4  0  0  0  0
 12 20  4  0  0  0  0
 13 14  4  0  0  0  0
 14 15  1  0  0  0  0
 14 17  4  0  0  0  0
 15 16  1  0  0  0  0
 17 18  1  0  0  0  0
 17 19  4  0  0  0  0
 19 20  4  0  0  0  0
 21 22  4  0  0  0  0
 22 23  4  0  0  0  0
 23 24  1  0  0  0  0
M  END
>  <Name_Molregno>
594448

>  <5-HT1A>
6.84

>  <5-HT1B>
5.16

>  <5-HT1D>
5

>  <5-HT1E>
5

>  <5-HT2A>
5

>  <5-HT3>
5

>  <5-HT5>
5

>  <5-HT6>
5

>  <5-HT7>
5

>  <Alpha-1A>
5

>  <Alpha-1B>
5

>  <Alpha-2A>
5

>  <Alpha-2B>
5.16

>  <Alpha-2C>
6.67

>  <Beta-1>
5

>  <Beta-2>
5

>  <DOPAMINE D1>
8.23

>  <DOPAMINE D2>
6.01

>  <DOPAMINE D4>
5.43

>  <DOPAMINE D5>
8.36

>  <Dopamine transporter>
5

>  <HISTAMINE H1>
5

>  <HISTAMINE H2>
5

>  <HISTAMINE H4>
5

>  <Muscarinic acetylcholine receptor M2>
5

>  <Muscarinic acetylcholine receptor M5>
5

>  <Norepinephrine transporter>
5

>  <Serotonin transporter>
5

$$$$
594449
  Marvin  02231216192D 0   1.00000     0.00000     0

 20 23  0  0  1  0  0  0  0  0999 V2000
   -0.0381   -0.5723    0.0000 O   0  0  0  0  0  0  0  0  0
   -0.3081   -1.3518    0.0000 C   0  0  0  0  0  0  0  0  0
    0.7721   -0.4163    0.0000 C   0  0  0  0  0  0  0  0  0
    1.0421    0.3632    0.0000 C   0  0  0  0  0  0  0  0  0
    1.8522    0.5191    0.0000 C   0  0  0  0  0  0  0  0  0
    2.1223    1.2987    0.0000 C   0  0  0  0  0  0  0  0  0
    2.9324    1.4546    0.0000 C   0  0  0  0  0  0  0  0  0
    3.4725    0.8309    0.0000 N   0  0  0  0  0  0  0  0  0
    3.2025    0.0514    0.0000 C   0  0  0  0  0  0  0  0  0
    3.7426   -0.5723    0.0000 C   0  0  0  0  0  0  0  0  0
    4.5527   -0.4163    0.0000 C   0  0  0  0  0  0  0  0  0
    4.8227    0.3632    0.0000 C   0  0  0  0  0  0  0  0  0
    4.2826    0.9868    0.0000 C   0  0  0  0  0  0  0  0  0
    5.6329    0.5191    0.0000 C   0  0  0  0  0  0  0  0  0
    6.1730   -0.1045    0.0000 C   0  0  0  0  0  0  0  0  0
    5.9029   -0.8841    0.0000 C   0  0  0  0  0  0  0  0  0
    5.0928   -1.0400    0.0000 C   0  0  0  0  0  0  0  0  0
    2.3923   -0.1045    0.0000 C   0  0  0  0  0  0  0  0  0
    2.1223   -0.8841    0.0000 C   0  0  0  0  0  0  0  0  0
    1.3122   -1.0400    0.0000 C   0  0  0  0  0  0  0  0  0
  1  2  1  0  0  0  0
  1  3  1  0  0  0  0
  3  4  4  0  0  0  0
  3 20  4  0  0  0  0
  4  5  4  0  0  0  0
  5  6  1  0  0  0  0
  5 18  4  0  0  0  0
  6  7  1  0  0  0  0
  7  8  1  0  0  0  0
  8  9  1  0  0  0  0
  8 13  1  0  0  0  0
  9 10  1  0  0  0  0
  9 18  1  0  0  0  0
 10 11  1  0  0  0  0
 11 12  4  0  0  0  0
 11 17  4  0  0  0  0
 12 13  1  0  0  0  0
 12 14  4  0  0  0  0
 14 15  4  0  0  0  0
 15 16  4  0  0  0  0
 16 17  4  0  0  0  0
 18 19  4  0  0  0  0
 19 20  4  0  0  0  0
M  END
>  <Name_Molregno>
594449

>  <DOPAMINE D1>
6.74

>  <DOPAMINE D2>
6.49

>  <DOPAMINE D3>
6.6

>  <DOPAMINE D4>
5.59

>  <DOPAMINE D5>
6.73

$$$$
594450
  Marvin  02231216192D 0   1.00000     0.00000     0

 20 22  0  0  0  0  0  0  0  0999 V2000
   -0.2117    0.6176    0.0000 O   0  0  0  0  0  0  0  0  0
    0.5985    0.4617    0.0000 C   0  0  0  0  0  0  0  0  0
    1.1386    1.0854    0.0000 C   0  0  0  0  0  0  0  0  0
    1.9487    0.9295    0.0000 C   0  0  0  0  0  0  0  0  0
    2.4888    1.5531    0.0000 C   0  0  0  0  0  0  0  0  0
    3.2989    1.3972    0.0000 C   0  0  0  0  0  0  0  0  0
    3.8390    2.0208    0.0000 N   0  0  0  0  0  0  0  0  0
    4.6491    1.8649    0.0000 C   0  0  0  0  0  0  0  0  0
    4.9192    1.0854    0.0000 C   0  0  0  0  0  0  0  0  0
    4.3791    0.4617    0.0000 C   0  0  0  0  0  0  0  0  0
    3.5690    0.6176    0.0000 C   0  0  0  0  0  0  0  0  0
    3.0289   -0.0060    0.0000 C   0  0  0  0  0  0  0  0  0
    2.2187    0.1499    0.0000 C   0  0  0  0  0  0  0  0  0
    1.6787   -0.4737    0.0000 C   0  0  0  0  0  0  0  0  0
    0.8685   -0.3178    0.0000 C   0  0  0  0  0  0  0  0  0
    4.6491   -0.3178    0.0000 C   0  0  0  0  0  0  0  0  0
    5.4593   -0.4737    0.0000 C   0  0  0  0  0  0  0  0  0
    5.9994    0.1499    0.0000 C   0  0  0  0  0  0  0  0  0
    5.7293    0.9295    0.0000 C   0  0  0  0  0  0  0  0  0
    3.5690    2.8004    0.0000 C   0  0  0  0  0  0  0  0  0
  1  2  1  0  0  0  0
  2  3  4  0  0  0  0
  2 15  4  0  0  0  0
  3  4  4  0  0  0  0
  4  5  1  0  0  0  0
  4 13  4  0  0  0  0
  5  6  1  0  0  0  0
  6  7  1  0  0  0  0
  7  8  1  0  0  0  0
  7 20  1  0  0  0  0
  8  9  1  0  0  0  0
  9 10  4  0  0  0  0
  9 19  4  0  0  0  0
 10 11  1  0  0  0  0
 10 16  4  0  0  0  0
 11 12  1  0  0  0  0
 12 13  1  0  0  0  0
 13 14  4  0  0  0  0
 14 15  4  0  0  0  0
 16 17  4  0  0  0  0
 17 18  4  0  0  0  0
 18 19  4  0  0  0  0
M  END
>  <Name_Molregno>
594450

>  <DOPAMINE D1>
5

>  <DOPAMINE D2>
5

>  <DOPAMINE D3>
5

>  <DOPAMINE D4>
5

>  <DOPAMINE D5>
5

$$$$
594455
  Marvin  02231216192D 0   1.00000     0.00000     0

 20 23  0  0  1  0  0  0  0  0999 V2000
   -0.2086    1.0010    0.0000 O   0  0  0  0  0  0  0  0  0
   -0.2327    1.8256    0.0000 C   0  0  0  0  0  0  0  0  0
   -0.9107    0.5678    0.0000 C   0  0  0  0  0  0  0  0  0
   -0.8866   -0.2569    0.0000 C   0  0  0  0  0  0  0  0  0
   -1.5887   -0.6901    0.0000 C   0  0  0  0  0  0  0  0  0
   -1.4420   -1.5019    0.0000 C   0  0  0  0  0  0  0  0  0
   -1.9852   -2.1228    0.0000 C   0  0  0  0  0  0  0  0  0
   -2.8094   -2.0852    0.0000 C   0  0  0  0  0  0  0  0  0
   -3.2938   -1.4175    0.0000 N   0  0  0  0  0  0  0  0  0
   -3.0738   -0.6224    0.0000 C   0  0  0  0  0  0  0  0  0
   -2.3149   -0.2986    0.0000 C   0  0  0  0  0  0  0  0  0
   -2.3390    0.5260    0.0000 C   0  0  0  0  0  0  0  0  0
   -1.6369    0.9592    0.0000 C   0  0  0  0  0  0  0  0  0
   -3.7620   -0.1674    0.0000 C   0  0  0  0  0  0  0  0  0
   -4.4073   -0.6813    0.0000 C   0  0  0  0  0  0  0  0  0
   -4.1180   -1.4539    0.0000 C   0  0  0  0  0  0  0  0  0
   -5.1751   -0.3794    0.0000 C   0  0  0  0  0  0  0  0  0
   -5.2975    0.4365    0.0000 C   0  0  0  0  0  0  0  0  0
   -4.6521    0.9504    0.0000 C   0  0  0  0  0  0  0  0  0
   -3.8844    0.6485    0.0000 C   0  0  0  0  0  0  0  0  0
  1  2  1  0  0  0  0
  1  3  1  0  0  0  0
  3  4  4  0  0  0  0
  3 13  4  0  0  0  0
  4  5  4  0  0  0  0
  5  6  1  0  0  0  0
  5 11  4  0  0  0  0
  6  7  1  0  0  0  0
  7  8  1  0  0  0  0
  8  9  1  0  0  0  0
  9 10  1  0  0  0  0
  9 16  1  0  0  0  0
 10 11  1  0  0  0  0
 10 14  1  0  0  0  0
 11 12  4  0  0  0  0
 12 13  4  0  0  0  0
 14 15  4  0  0  0  0
 14 20  4  0  0  0  0
 15 16  1  0  0  0  0
 15 17  4  0  0  0  0
 17 18  4  0  0  0  0
 18 19  4  0  0  0  0
 19 20  4  0  0  0  0
M  END
>  <Name_Molregno>
594455

>  <DOPAMINE D1>
5

>  <DOPAMINE D2>
5

>  <DOPAMINE D3>
5

>  <DOPAMINE D4>
5

>  <DOPAMINE D5>
5

$$$$
594456
  Marvin  02231216192D 0   1.00000     0.00000     0

 21 23  0  0  0  0  0  0  0  0999 V2000
   -5.5811   -0.8983    0.0000 O   0  0  0  0  0  0  0  0  0
   -5.5811   -1.7233    0.0000 C   0  0  0  0  0  0  0  0  0
   -4.8666   -0.4858    0.0000 C   0  0  0  0  0  0  0  0  0
   -4.8666    0.3392    0.0000 C   0  0  0  0  0  0  0  0  0
   -4.1521    0.7517    0.0000 C   0  0  0  0  0  0  0  0  0
   -4.1521    1.5767    0.0000 C   0  0  0  0  0  0  0  0  0
   -3.4377    1.9892    0.0000 C   0  0  0  0  0  0  0  0  0
   -2.7232    1.5767    0.0000 C   0  0  0  0  0  0  0  0  0
   -2.0087    1.9892    0.0000 N   0  0  0  0  0  0  0  0  0
   -1.2943    1.5767    0.0000 C   0  0  0  0  0  0  0  0  0
   -1.2943    0.7517    0.0000 C   0  0  0  0  0  0  0  0  0
   -2.0087    0.3392    0.0000 C   0  0  0  0  0  0  0  0  0
   -2.7232    0.7517    0.0000 C   0  0  0  0  0  0  0  0  0
   -3.4377    0.3392    0.0000 C   0  0  0  0  0  0  0  0  0
   -3.4377   -0.4858    0.0000 C   0  0  0  0  0  0  0  0  0
   -4.1521   -0.8983    0.0000 C   0  0  0  0  0  0  0  0  0
   -2.0087   -0.4858    0.0000 C   0  0  0  0  0  0  0  0  0
   -1.2943   -0.8983    0.0000 C   0  0  0  0  0  0  0  0  0
   -0.5798   -0.4858    0.0000 C   0  0  0  0  0  0  0  0  0
   -0.5798    0.3392    0.0000 C   0  0  0  0  0  0  0  0  0
   -2.0087    2.8142    0.0000 C   0  0  0  0  0  0  0  0  0
  1  2  1  0  0  0  0
  1  3  1  0  0  0  0
  3  4  4  0  0  0  0
  3 16  4  0  0  0  0
  4  5  4  0  0  0  0
  5  6  1  0  0  0  0
  5 14  4  0  0  0  0
  6  7  1  0  0  0  0
  7  8  1  0  0  0  0
  8  9  1  0  0  0  0
  9 10  1  0  0  0  0
  9 21  1  0  0  0  0
 10 11  1  0  0  0  0
 11 12  4  0  0  0  0
 11 20  4  0  0  0  0
 12 13  1  0  0  0  0
 12 17  4  0  0  0  0
 13 14  1  0  0  0  0
 14 15  4  0  0  0  0
 15 16  4  0  0  0  0
 17 18  4  0  0  0  0
 18 19  4  0  0  0  0
 19 20  4  0  0  0  0
M  END
>  <Name_Molregno>
594456

>  <DOPAMINE D1>
5.9

>  <DOPAMINE D2>
5

>  <DOPAMINE D3>
5

>  <DOPAMINE D4>
5

>  <DOPAMINE D5>
5

$$$$
594464
  Marvin  02231216192D 0   1.00000     0.00000     0

 20 22  0  0  0  0  0  0  0  0999 V2000
    0.4108   -1.2724    0.0000 O   0  0  0  0  0  0  0  0  0
    1.1252   -0.8599    0.0000 C   0  0  0  0  0  0  0  0  0
    1.1252   -0.0349    0.0000 C   0  0  0  0  0  0  0  0  0
    1.8397    0.3776    0.0000 C   0  0  0  0  0  0  0  0  0
    1.8397    1.2026    0.0000 C   0  0  0  0  0  0  0  0  0
    2.5542    1.6151    0.0000 C   0  0  0  0  0  0  0  0  0
    3.2686    1.2026    0.0000 C   0  0  0  0  0  0  0  0  0
    3.9831    1.6151    0.0000 N   0  0  0  0  0  0  0  0  0
    4.6976    1.2026    0.0000 C   0  0  0  0  0  0  0  0  0
    4.6976    0.3776    0.0000 C   0  0  0  0  0  0  0  0  0
    3.9831   -0.0349    0.0000 C   0  0  0  0  0  0  0  0  0
    3.2686    0.3776    0.0000 C   0  0  0  0  0  0  0  0  0
    2.5542   -0.0349    0.0000 C   0  0  0  0  0  0  0  0  0
    2.5542   -0.8599    0.0000 C   0  0  0  0  0  0  0  0  0
    1.8397   -1.2724    0.0000 C   0  0  0  0  0  0  0  0  0
    3.9831   -0.8599    0.0000 C   0  0  0  0  0  0  0  0  0
    4.6976   -1.2724    0.0000 C   0  0  0  0  0  0  0  0  0
    5.4120   -0.8599    0.0000 C   0  0  0  0  0  0  0  0  0
    5.4120   -0.0349    0.0000 C   0  0  0  0  0  0  0  0  0
    3.9831    2.4401    0.0000 C   0  0  0  0  0  0  0  0  0
  1  2  1  0  0  0  0
  2  3  4  0  0  0  0
  2 15  4  0  0  0  0
  3  4  4  0  0  0  0
  4  5  1  0  0  0  0
  4 13  4  0  0  0  0
  5  6  1  0  0  0  0
  6  7  1  0  0  0  0
  7  8  1  0  0  0  0
  8  9  1  0  0  0  0
  8 20  1  0  0  0  0
  9 10  1  0  0  0  0
 10 11  4  0  0  0  0
 10 19  4  0  0  0  0
 11 12  1  0  0  0  0
 11 16  4  0  0  0  0
 12 13  1  0  0  0  0
 13 14  4  0  0  0  0
 14 15  4  0  0  0  0
 16 17  4  0  0  0  0
 17 18  4  0  0  0  0
 18 19  4  0  0  0  0
M  END
>  <Name_Molregno>
594464

>  <DOPAMINE D1>
5.68

>  <DOPAMINE D2>
5

>  <DOPAMINE D3>
5

>  <DOPAMINE D4>
5

>  <DOPAMINE D5>
5.74

$$$$
615502
  Marvin  02231216192D 0   1.00000     0.00000     0

 22 25  0  0  0  0  0  0  0  0999 V2000
    0.3755   -0.3097    0.0000 N   0  0  0  0  0  0  0  0  0
   -0.0507    0.3967    0.0000 C   0  0  0  0  0  0  0  0  0
    0.4894    1.0203    0.0000 C   0  0  0  0  0  0  0  0  0
    0.2193    1.7999    0.0000 C   0  0  0  0  0  0  0  0  0
    0.7802    2.5074    0.0000 C   0  0  0  0  0  0  0  0  0
    0.7642    3.3322    0.0000 C   0  0  0  0  0  0  0  0  0
    1.5438    3.6023    0.0000 N   0  0  0  0  0  0  0  0  0
    2.0415    2.9443    0.0000 C   0  0  0  0  0  0  0  0  0
    2.9198    2.7354    0.0000 C   0  0  0  0  0  0  0  0  0
    3.1898    1.9558    0.0000 C   0  0  0  0  0  0  0  0  0
    2.6497    1.3322    0.0000 C   0  0  0  0  0  0  0  0  0
    1.8396    1.4881    0.0000 C   0  0  0  0  0  0  0  0  0
    1.2995    0.8644    0.0000 C   0  0  0  0  0  0  0  0  0
    1.1790   -0.1226    0.0000 C   0  0  0  0  0  0  0  0  0
    2.9198    0.5526    0.0000 C   0  0  0  0  0  0  0  0  0
    3.7299    0.3967    0.0000 C   0  0  0  0  0  0  0  0  0
    4.2700    1.0203    0.0000 C   0  0  0  0  0  0  0  0  0
    3.9999    1.7999    0.0000 C   0  0  0  0  0  0  0  0  0
    1.7835    4.3916    0.0000 C   0  0  0  0  0  0  0  0  0
   -0.5908    1.9558    0.0000 C   0  0  0  0  0  0  0  0  0
   -1.1309    1.3322    0.0000 C   0  0  0  0  0  0  0  0  0
   -0.8609    0.5526    0.0000 C   0  0  0  0  0  0  0  0  0
  1  2  4  0  0  0  0
  1 14  4  0  0  0  0
  2  3  4  0  0  0  0
  2 22  4  0  0  0  0
  3  4  4  0  0  0  0
  3 13  4  0  0  0  0
  4  5  1  0  0  0  0
  4 20  4  0  0  0  0
  5  6  1  0  0  0  0
  6  7  1  0  0  0  0
  7  8  1  0  0  0  0
  7 19  1  0  0  0  0
  8  9  1  0  0  0  0
  9 10  1  0  0  0  0
 10 11  4  0  0  0  0
 10 18  4  0  0  0  0
 11 12  1  0  0  0  0
 11 15  4  0  0  0  0
 12 13  1  0  0  0  0
 13 14  4  0  0  0  0
 15 16  4  0  0  0  0
 16 17  4  0  0  0  0
 17 18  4  0  0  0  0
 20 21  4  0  0  0  0
 21 22  4  0  0  0  0
M  STY  1   1 DAT
M  SAL   1  1   1
M  SDT   1 MRV_IMPLICIT_H                                        
M  SDD   1     0.0000    0.0000    DR    ALL  0       0  
M  SED   1 IMPL_H1
M  END
>  <Name_Molregno>
615502

>  <DOPAMINE D1>
8.38

>  <DOPAMINE D2>
8.4

>  <DOPAMINE D3>
7.37

>  <DOPAMINE D5>
8.6

$$$$
615503
  Marvin  02231216192D 0   1.00000     0.00000     0

 22 25  0  0  0  0  0  0  0  0999 V2000
   -0.5258   -0.5076    0.0000 N   0  0  0  0  0  0  0  0  0
    0.2562   -0.2448    0.0000 C   0  0  0  0  0  0  0  0  0
    0.5842    0.5123    0.0000 C   0  0  0  0  0  0  0  0  0
    1.4037    0.6068    0.0000 C   0  0  0  0  0  0  0  0  0
    1.8954   -0.0557    0.0000 N   0  0  0  0  0  0  0  0  0
    2.7149    0.0388    0.0000 C   0  0  0  0  0  0  0  0  0
    3.2066   -0.6237    0.0000 C   0  0  0  0  0  0  0  0  0
    2.8786   -1.3808    0.0000 C   0  0  0  0  0  0  0  0  0
    2.0591   -1.4753    0.0000 C   0  0  0  0  0  0  0  0  0
    1.5674   -0.8128    0.0000 C   0  0  0  0  0  0  0  0  0
    0.7479   -0.9073    0.0000 C   0  0  0  0  0  0  0  0  0
    0.2697   -1.5796    0.0000 C   0  0  0  0  0  0  0  0  0
   -0.5174   -1.3326    0.0000 C   0  0  0  0  0  0  0  0  0
   -1.1249   -1.8908    0.0000 C   0  0  0  0  0  0  0  0  0
   -0.9453   -2.6960    0.0000 C   0  0  0  0  0  0  0  0  0
   -0.1581   -2.9430    0.0000 C   0  0  0  0  0  0  0  0  0
    0.4494   -2.3848    0.0000 C   0  0  0  0  0  0  0  0  0
    1.7311   -2.2323    0.0000 C   0  0  0  0  0  0  0  0  0
    2.2228   -2.8948    0.0000 C   0  0  0  0  0  0  0  0  0
    3.0424   -2.8003    0.0000 C   0  0  0  0  0  0  0  0  0
    3.3703   -2.0433    0.0000 C   0  0  0  0  0  0  0  0  0
    1.1851   -0.4754    0.0000 C   0  0  0  0  0  0  0  0  0
  1  2  4  0  0  0  0
  1 13  4  0  0  0  0
  2  3  1  0  0  0  0
  2 11  4  0  0  0  0
  3  4  1  0  0  0  0
  4  5  1  0  0  0  0
  5  6  1  0  0  0  0
  5 22  1  0  0  0  0
  6  7  1  0  0  0  0
  7  8  1  0  0  0  0
  8  9  4  0  0  0  0
  8 21  4  0  0  0  0
  9 10  1  0  0  0  0
  9 18  4  0  0  0  0
 10 11  1  0  0  0  0
 11 12  4  0  0  0  0
 12 13  4  0  0  0  0
 12 17  4  0  0  0  0
 13 14  4  0  0  0  0
 14 15  4  0  0  0  0
 15 16  4  0  0  0  0
 16 17  4  0  0  0  0
 18 19  4  0  0  0  0
 19 20  4  0  0  0  0
 20 21  4  0  0  0  0
M  STY  1   1 DAT
M  SAL   1  1   1
M  SDT   1 MRV_IMPLICIT_H                                        
M  SDD   1     0.0000    0.0000    DR    ALL  0       0  
M  SED   1 IMPL_H1
M  END
>  <Name_Molregno>
615503

>  <DOPAMINE D1>
7.55

>  <DOPAMINE D2>
7.26

>  <DOPAMINE D3>
6.29

>  <DOPAMINE D5>
7.99

$$$$
615576
  Marvin  02231216192D 0   1.00000     0.00000     0

 20 24  0  0  1  0  0  0  0  0999 V2000
    0.2706   -0.2230    0.0000 N   0  0  0  0  0  0  0  0  0
    0.5760   -1.0802    0.0000 C   0  0  0  0  0  0  0  0  0
   -0.1419   -1.4927    0.0000 C   0  0  0  0  0  0  0  0  0
   -0.1419   -2.3177    0.0000 C   0  0  0  0  0  0  0  0  0
   -0.8544   -2.7302    0.0000 C   0  0  0  0  0  0  0  0  0
   -1.5669   -2.3177    0.0000 N   0  0  0  0  0  0  0  0  0
   -1.5669   -1.4927    0.0000 C   0  0  0  0  0  0  0  0  0
   -2.2813   -1.0802    0.0000 C   0  0  0  0  0  0  0  0  0
   -2.9958   -1.4927    0.0000 C   0  0  0  0  0  0  0  0  0
   -2.9958   -2.3177    0.0000 C   0  0  0  0  0  0  0  0  0
   -2.2813   -2.7302    0.0000 C   0  0  0  0  0  0  0  0  0
   -3.7103   -1.0802    0.0000 C   0  0  0  0  0  0  0  0  0
   -3.7103   -0.2552    0.0000 C   0  0  0  0  0  0  0  0  0
   -2.9958    0.1573    0.0000 C   0  0  0  0  0  0  0  0  0
   -2.2813   -0.2552    0.0000 C   0  0  0  0  0  0  0  0  0
   -0.8544   -1.0802    0.0000 C   0  0  0  0  0  0  0  0  0
   -0.5544   -0.2230    0.0000 C   0  0  0  0  0  0  0  0  0
    0.5760   -2.7302    0.0000 C   0  0  0  0  0  0  0  0  0
    1.2885   -2.3177    0.0000 C   0  0  0  0  0  0  0  0  0
    1.2885   -1.4927    0.0000 C   0  0  0  0  0  0  0  0  0
  1  2  4  0  0  0  0
  1 17  4  0  0  0  0
  2  3  4  0  0  0  0
  2 20  4  0  0  0  0
  3  4  4  0  0  0  0
  3 16  4  0  0  0  0
  4  5  1  0  0  0  0
  4 18  4  0  0  0  0
  5  6  1  0  0  0  0
  6  7  1  0  0  0  0
  6 11  1  0  0  0  0
  7  8  1  0  0  0  0
  7 16  1  0  0  0  0
  8  9  4  0  0  0  0
  8 15  4  0  0  0  0
  9 10  1  0  0  0  0
  9 12  4  0  0  0  0
 10 11  1  0  0  0  0
 12 13  4  0  0  0  0
 13 14  4  0  0  0  0
 14 15  4  0  0  0  0
 16 17  4  0  0  0  0
 18 19  4  0  0  0  0
 19 20  4  0  0  0  0
M  STY  1   1 DAT
M  SAL   1  1   1
M  SDT   1 MRV_IMPLICIT_H                                        
M  SDD   1     0.0000    0.0000    DR    ALL  0       0  
M  SED   1 IMPL_H1
M  END
>  <Name_Molregno>
615576

>  <DOPAMINE D1>
5

>  <DOPAMINE D2>
5

>  <DOPAMINE D3>
5

>  <DOPAMINE D5>
5

$$$$
615577
  Marvin  02231216192D 0   1.00000     0.00000     0

 21 25  0  0  1  0  0  0  0  0999 V2000
   -0.1833   -2.7968    0.0000 N   0  0  0  0  0  0  0  0  0
   -0.9982   -2.6686    0.0000 C   0  0  0  0  0  0  0  0  0
   -1.6388   -3.1885    0.0000 C   0  0  0  0  0  0  0  0  0
   -2.4094   -2.8936    0.0000 C   0  0  0  0  0  0  0  0  0
   -2.5393   -2.0789    0.0000 N   0  0  0  0  0  0  0  0  0
   -1.8987   -1.5591    0.0000 C   0  0  0  0  0  0  0  0  0
   -1.1282   -1.8539    0.0000 C   0  0  0  0  0  0  0  0  0
   -0.3935   -1.4786    0.0000 C   0  0  0  0  0  0  0  0  0
    0.1905   -2.0613    0.0000 C   0  0  0  0  0  0  0  0  0
    0.9872   -1.8470    0.0000 C   0  0  0  0  0  0  0  0  0
    1.1998   -1.0499    0.0000 C   0  0  0  0  0  0  0  0  0
    0.6159   -0.4671    0.0000 C   0  0  0  0  0  0  0  0  0
   -0.1808   -0.6815    0.0000 C   0  0  0  0  0  0  0  0  0
   -2.0286   -0.7444    0.0000 C   0  0  0  0  0  0  0  0  0
   -2.7991   -0.4495    0.0000 C   0  0  0  0  0  0  0  0  0
   -3.4397   -0.9694    0.0000 C   0  0  0  0  0  0  0  0  0
   -3.3098   -1.7841    0.0000 C   0  0  0  0  0  0  0  0  0
   -2.9290    0.3652    0.0000 C   0  0  0  0  0  0  0  0  0
   -2.2884    0.8851    0.0000 C   0  0  0  0  0  0  0  0  0
   -1.5179    0.5902    0.0000 C   0  0  0  0  0  0  0  0  0
   -1.3880   -0.2245    0.0000 C   0  0  0  0  0  0  0  0  0
  1  2  4  0  0  0  0
  1  9  4  0  0  0  0
  2  3  1  0  0  0  0
  2  7  4  0  0  0  0
  3  4  1  0  0  0  0
  4  5  1  0  0  0  0
  5  6  1  0  0  0  0
  5 17  1  0  0  0  0
  6  7  1  0  0  0  0
  6 14  1  0  0  0  0
  7  8  4  0  0  0  0
  8  9  4  0  0  0  0
  8 13  4  0  0  0  0
  9 10  4  0  0  0  0
 10 11  4  0  0  0  0
 11 12  4  0  0  0  0
 12 13  4  0  0  0  0
 14 15  4  0  0  0  0
 14 21  4  0  0  0  0
 15 16  1  0  0  0  0
 15 18  4  0  0  0  0
 16 17  1  0  0  0  0
 18 19  4  0  0  0  0
 19 20  4  0  0  0  0
 20 21  4  0  0  0  0
M  STY  1   1 DAT
M  SAL   1  1   1
M  SDT   1 MRV_IMPLICIT_H                                        
M  SDD   1     0.0000    0.0000    DR    ALL  0       0  
M  SED   1 IMPL_H1
M  END
>  <Name_Molregno>
615577

>  <DOPAMINE D1>
5.68

>  <DOPAMINE D2>
5.83

>  <DOPAMINE D3>
5

>  <DOPAMINE D5>
5

$$$$
615578
  Marvin  02231216192D 0   1.00000     0.00000     0

 21 25  0  0  1  0  0  0  0  0999 V2000
    0.2484   -2.9047    0.0000 N   0  0  0  0  0  0  0  0  0
   -0.3743   -2.3635    0.0000 C   0  0  0  0  0  0  0  0  0
   -0.0520   -1.6040    0.0000 C   0  0  0  0  0  0  0  0  0
   -0.5082   -0.9167    0.0000 C   0  0  0  0  0  0  0  0  0
   -0.2553   -0.1314    0.0000 C   0  0  0  0  0  0  0  0  0
    0.5163    0.1605    0.0000 C   0  0  0  0  0  0  0  0  0
    1.2256   -0.2608    0.0000 N   0  0  0  0  0  0  0  0  0
    1.3385   -1.0781    0.0000 C   0  0  0  0  0  0  0  0  0
    2.1026   -1.3890    0.0000 C   0  0  0  0  0  0  0  0  0
    2.7540   -0.8826    0.0000 C   0  0  0  0  0  0  0  0  0
    2.6411   -0.0654    0.0000 C   0  0  0  0  0  0  0  0  0
    1.8770    0.2455    0.0000 C   0  0  0  0  0  0  0  0  0
    3.5182   -1.1935    0.0000 C   0  0  0  0  0  0  0  0  0
    3.6310   -2.0108    0.0000 C   0  0  0  0  0  0  0  0  0
    2.9797   -2.5171    0.0000 C   0  0  0  0  0  0  0  0  0
    2.2155   -2.2062    0.0000 C   0  0  0  0  0  0  0  0  0
    0.7699   -1.6759    0.0000 C   0  0  0  0  0  0  0  0  0
    0.9555   -2.4797    0.0000 C   0  0  0  0  0  0  0  0  0
   -1.3674   -1.0458    0.0000 C   0  0  0  0  0  0  0  0  0
   -1.6897   -1.8052    0.0000 C   0  0  0  0  0  0  0  0  0
   -1.1931   -2.4641    0.0000 C   0  0  0  0  0  0  0  0  0
  1  2  4  0  0  0  0
  1 18  4  0  0  0  0
  2  3  4  0  0  0  0
  2 21  4  0  0  0  0
  3  4  4  0  0  0  0
  3 17  4  0  0  0  0
  4  5  1  0  0  0  0
  4 19  4  0  0  0  0
  5  6  1  0  0  0  0
  6  7  1  0  0  0  0
  7  8  1  0  0  0  0
  7 12  1  0  0  0  0
  8  9  1  0  0  0  0
  8 17  1  0  0  0  0
  9 10  4  0  0  0  0
  9 16  4  0  0  0  0
 10 11  1  0  0  0  0
 10 13  4  0  0  0  0
 11 12  1  0  0  0  0
 13 14  4  0  0  0  0
 14 15  4  0  0  0  0
 15 16  4  0  0  0  0
 17 18  4  0  0  0  0
 19 20  4  0  0  0  0
 20 21  4  0  0  0  0
M  STY  1   1 DAT
M  SAL   1  1   1
M  SDT   1 MRV_IMPLICIT_H                                        
M  SDD   1     0.0000    0.0000    DR    ALL  0       0  
M  SED   1 IMPL_H1
M  END
>  <Name_Molregno>
615578

>  <DOPAMINE D1>
5.74

>  <DOPAMINE D2>
5.35

>  <DOPAMINE D3>
5

>  <DOPAMINE D5>
5.82

$$$$
615579
  Marvin  02231216192D 0   1.00000     0.00000     0

 21 24  0  0  0  0  0  0  0  0999 V2000
    0.1059   -3.4197    0.0000 N   0  0  0  0  0  0  0  0  0
   -0.0656   -2.6127    0.0000 C   0  0  0  0  0  0  0  0  0
    0.6489   -2.2002    0.0000 C   0  0  0  0  0  0  0  0  0
    0.6489   -1.3752    0.0000 C   0  0  0  0  0  0  0  0  0
    1.3634   -0.9627    0.0000 C   0  0  0  0  0  0  0  0  0
    1.3634   -0.1377    0.0000 N   0  0  0  0  0  0  0  0  0
    2.0778    0.2748    0.0000 C   0  0  0  0  0  0  0  0  0
    2.7923   -0.1377    0.0000 C   0  0  0  0  0  0  0  0  0
    2.7923   -0.9627    0.0000 C   0  0  0  0  0  0  0  0  0
    2.0778   -1.3752    0.0000 C   0  0  0  0  0  0  0  0  0
    2.4159   -2.1096    0.0000 C   0  0  0  0  0  0  0  0  0
    1.3634   -2.6127    0.0000 C   0  0  0  0  0  0  0  0  0
    0.9264   -3.5059    0.0000 C   0  0  0  0  0  0  0  0  0
    2.0778   -2.2002    0.0000 C   0  0  0  0  0  0  0  0  0
    2.7923   -2.6127    0.0000 C   0  0  0  0  0  0  0  0  0
    3.5068   -2.2002    0.0000 C   0  0  0  0  0  0  0  0  0
    3.5068   -1.3752    0.0000 C   0  0  0  0  0  0  0  0  0
    0.6489    0.2748    0.0000 C   0  0  0  0  0  0  0  0  0
   -0.0656   -0.9627    0.0000 C   0  0  0  0  0  0  0  0  0
   -0.7801   -1.3752    0.0000 C   0  0  0  0  0  0  0  0  0
   -0.7801   -2.2002    0.0000 C   0  0  0  0  0  0  0  0  0
  1  2  4  0  0  0  0
  1 13  4  0  0  0  0
  2  3  4  0  0  0  0
  2 21  4  0  0  0  0
  3  4  4  0  0  0  0
  3 12  4  0  0  0  0
  4  5  1  0  0  0  0
  4 19  4  0  0  0  0
  5  6  1  0  0  0  0
  6  7  1  0  0  0  0
  6 18  1  0  0  0  0
  7  8  1  0  0  0  0
  8  9  1  0  0  0  0
  9 10  4  0  0  0  0
  9 17  4  0  0  0  0
 10 11  1  0  0  0  0
 10 14  4  0  0  0  0
 11 12  1  0  0  0  0
 12 13  4  0  0  0  0
 14 15  4  0  0  0  0
 15 16  4  0  0  0  0
 16 17  4  0  0  0  0
 19 20  4  0  0  0  0
 20 21  4  0  0  0  0
M  STY  1   1 DAT
M  SAL   1  1   1
M  SDT   1 MRV_IMPLICIT_H                                        
M  SDD   1     0.0000    0.0000    DR    ALL  0       0  
M  SED   1 IMPL_H1
M  END
>  <Name_Molregno>
615579

>  <DOPAMINE D1>
5

>  <DOPAMINE D2>
5

>  <DOPAMINE D3>
5

>  <DOPAMINE D5>
5

$$$$
676249
  Marvin  02231216192D 0   1.00000     0.00000     0

 21 23  0  0  0  0  0  0  0  0999 V2000
    0.9495    0.2481    0.0000 O   0  0  0  0  0  0  0  0  0
    0.9495   -0.5769    0.0000 C   0  0  0  0  0  0  0  0  0
    1.6639   -0.9894    0.0000 C   0  0  0  0  0  0  0  0  0
    1.6639   -1.8144    0.0000 C   0  0  0  0  0  0  0  0  0
    2.3784   -2.2269    0.0000 C   0  0  0  0  0  0  0  0  0
    3.0929   -1.8144    0.0000 C   0  0  0  0  0  0  0  0  0
    3.8073   -2.2269    0.0000 C   0  0  0  0  0  0  0  0  0
    3.8073   -3.0519    0.0000 C   0  0  0  0  0  0  0  0  0
    3.0929   -3.4644    0.0000 C   0  0  0  0  0  0  0  0  0
    2.3784   -3.0519    0.0000 N   0  0  0  0  0  0  0  0  0
    1.6639   -3.4644    0.0000 C   0  0  0  0  0  0  0  0  0
    0.9495   -3.0519    0.0000 C   0  0  0  0  0  0  0  0  0
    0.9495   -2.2269    0.0000 C   0  0  0  0  0  0  0  0  0
    0.2350   -1.8144    0.0000 C   0  0  0  0  0  0  0  0  0
    0.2350   -0.9894    0.0000 C   0  0  0  0  0  0  0  0  0
   -0.4795   -0.5769    0.0000 O   0  0  0  0  0  0  0  0  0
    1.8935   -2.3844    0.0000 C   0  0  0  0  0  0  0  0  0
    4.5218   -1.8144    0.0000 C   0  0  0  0  0  0  0  0  0
    4.5218   -0.9894    0.0000 C   0  0  0  0  0  0  0  0  0
    3.8073   -0.5769    0.0000 C   0  0  0  0  0  0  0  0  0
    3.0929   -0.9894    0.0000 C   0  0  0  0  0  0  0  0  0
  1  2  1  0  0  0  0
  2  3  4  0  0  0  0
  2 15  4  0  0  0  0
  3  4  4  0  0  0  0
  4  5  1  0  0  0  0
  4 13  4  0  0  0  0
  5  6  1  0  0  0  0
  6  7  4  0  0  0  0
  6 21  4  0  0  0  0
  7  8  1  0  0  0  0
  7 18  4  0  0  0  0
  8  9  1  0  0  0  0
  9 10  1  0  0  0  0
 10 11  1  0  0  0  0
 10 17  1  0  0  0  0
 11 12  1  0  0  0  0
 12 13  1  0  0  0  0
 13 14  4  0  0  0  0
 14 15  4  0  0  0  0
 15 16  1  0  0  0  0
 18 19  4  0  0  0  0
 19 20  4  0  0  0  0
 20 21  4  0  0  0  0
M  END
>  <Name_Molregno>
676249

>  <DOPAMINE D1>
7.07

>  <DOPAMINE D2>
6.24

>  <DOPAMINE D4>
6.78

>  <DOPAMINE D5>
7.3

$$$$
5-Hydroxy-Tryptamine
  Marvin  02231216192D 0   1.00000     0.00000     0

 13 14  0  0  0  0  0  0  0  0999 V2000
    0.1644   -1.0899    0.0000 O   0  0  0  0  0  0  0  0  0
   -0.5501   -0.6774    0.0000 C   0  0  0  0  0  0  0  0  0
   -1.2645   -1.0899    0.0000 C   0  0  0  0  0  0  0  0  0
   -1.9790   -0.6774    0.0000 C   0  0  0  0  0  0  0  0  0
   -1.9790    0.1476    0.0000 C   0  0  0  0  0  0  0  0  0
   -2.7636    0.4026    0.0000 N   0  0  0  0  0  0  0  0  0
   -3.2486   -0.2649    0.0000 C   0  0  0  0  0  0  0  0  0
   -2.7636   -0.9323    0.0000 C   0  0  0  0  0  0  0  0  0
   -3.0186   -1.7169    0.0000 C   0  0  0  0  0  0  0  0  0
   -3.8255   -1.8885    0.0000 C   0  0  0  0  0  0  0  0  0
   -4.0805   -2.6731    0.0000 N   0  0  0  0  0  0  0  0  0
   -1.2645    0.5601    0.0000 C   0  0  0  0  0  0  0  0  0
   -0.5501    0.1476    0.0000 C   0  0  0  0  0  0  0  0  0
  1  2  1  0  0  0  0
  2  3  4  0  0  0  0
  2 13  4  0  0  0  0
  3  4  4  0  0  0  0
  4  5  4  0  0  0  0
  4  8  4  0  0  0  0
  5  6  4  0  0  0  0
  5 12  4  0  0  0  0
  6  7  4  0  0  0  0
  7  8  4  0  0  0  0
  8  9  1  0  0  0  0
  9 10  1  0  0  0  0
 10 11  1  0  0  0  0
 12 13  4  0  0  0  0
M  STY  1   1 DAT
M  SAL   1  1   6
M  SDT   1 MRV_IMPLICIT_H                                        
M  SDD   1     0.0000    0.0000    DR    ALL  0       0  
M  SED   1 IMPL_H1
M  END
>  <Name_Molregno>
5-Hydroxy-Tryptamine

>  <5-HT1A>
8.25

>  <5-HT1B>
8.48

>  <5-HT1D>
8.54

>  <5-HT1E>
8.23

>  <5-HT2A>
7.1

>  <5-HT2C>
7.9

>  <5-HT3>
5.99

>  <5-HT5>
6.9

>  <5-HT6>
7.1

>  <5-HT7>
8.48

>  <DOPAMINE D1>
5.01

>  <DOPAMINE D2>
5

>  <DOPAMINE D5>
5.52

>  <Dopamine transporter>
5

$$$$
8-Chloro-11-{4-[4-(3-piperidin-1-yl-propoxy)-benzyl]-piperazin-1-yl}-5H-dibenzo[
  Marvin  02231216192D 0   1.00000     0.00000     0

  8  7  0  0  0  0  0  0  0  0999 V2000
   -0.0537   -0.0112    0.0000 O   0  0  0  0  0  0  0  0  0
    0.6607   -0.4238    0.0000 N   0  0  0  0  0  0  0  0  0
    1.3752   -0.0112    0.0000 N   0  0  0  0  0  0  0  0  0
    2.0897   -0.4238    0.0000 C   0  0  0  0  0  0  0  0  0
    2.8041   -0.0113    0.0000 C   0  0  0  0  0  0  0  0  0
    3.5186   -0.4238    0.0000 C   0  0  0  0  0  0  0  0  0
    4.2331   -0.0113    0.0000 C   0  0  0  0  0  0  0  0  0
    1.3752    0.8138    0.0000 C   0  0  0  0  0  0  0  0  0
  1  2  2  0  0  0  0
  2  3  1  0  0  0  0
  3  4  1  0  0  0  0
  3  8  1  0  0  0  0
  4  5  1  0  0  0  0
  5  6  1  0  0  0  0
  6  7  1  0  0  0  0
M  END
>  <Name_Molregno>
8-Chloro-11-{4-[4-(3-piperidin-1-yl-propoxy)-benzyl]-piperazin-1-yl}-5H-dibenzo[b,e][1,4]diazepine

>  <DOPAMINE D1>
6.06

>  <DOPAMINE D2>
6.55

>  <DOPAMINE D3>
6.65

>  <DOPAMINE D5>
6.04

>  <HISTAMINE H1>
6.72

>  <HISTAMINE H3>
8.49

$$$$
9-OH-risperidone
  Marvin  02231216192D 0   1.00000     0.00000     0

 31 35  0  0  1  0  0  0  0  0999 V2000
    1.7758   -2.6889    0.0000 F   0  0  0  0  0  0  0  0  0
    2.0308   -1.9043    0.0000 C   0  0  0  0  0  0  0  0  0
    1.4788   -1.2912    0.0000 C   0  0  0  0  0  0  0  0  0
    1.7337   -0.5066    0.0000 C   0  0  0  0  0  0  0  0  0
    1.3212    0.2079    0.0000 O   0  0  0  0  0  0  0  0  0
    1.8732    0.8210    0.0000 N   0  0  0  0  0  0  0  0  0
    2.6269    0.4854    0.0000 C   0  0  0  0  0  0  0  0  0
    2.5407   -0.3350    0.0000 C   0  0  0  0  0  0  0  0  0
    3.0927   -0.9481    0.0000 C   0  0  0  0  0  0  0  0  0
    2.8378   -1.7327    0.0000 C   0  0  0  0  0  0  0  0  0
    3.3414    0.8979    0.0000 C   0  0  0  0  0  0  0  0  0
    3.3414    1.7229    0.0000 C   0  0  0  0  0  0  0  0  0
    4.0558    2.1354    0.0000 C   0  0  0  0  0  0  0  0  0
    4.7703    1.7229    0.0000 N   0  0  0  0  0  0  0  0  0
    4.7703    0.8979    0.0000 C   0  0  0  0  0  0  0  0  0
    4.0558    0.4854    0.0000 C   0  0  0  0  0  0  0  0  0
    5.4848    2.1354    0.0000 C   0  0  0  0  0  0  0  0  0
    6.1993    1.7229    0.0000 C   0  0  0  0  0  0  0  0  0
    6.9137    2.1354    0.0000 C   0  0  0  0  0  0  0  0  0
    7.6282    1.7229    0.0000 C   0  0  0  0  0  0  0  0  0
    7.6282    0.8979    0.0000 O   0  0  0  0  0  0  0  0  0
    8.3427    2.1354    0.0000 N   0  0  0  0  0  0  0  0  0
    8.3427    2.9604    0.0000 C   0  0  0  0  0  0  0  0  0
    7.6282    3.3729    0.0000 N   0  0  0  0  0  0  0  0  0
    6.9137    2.9604    0.0000 C   0  0  0  0  0  0  0  0  0
    6.1993    3.3729    0.0000 C   0  0  0  0  0  0  0  0  0
    9.0571    3.3729    0.0000 C   0  0  0  0  0  0  0  0  0
    9.0571    4.1979    0.0000 O   0  0  0  0  0  0  0  0  0
    9.7716    2.9604    0.0000 C   0  0  0  0  0  0  0  0  0
    9.7716    2.1354    0.0000 C   0  0  0  0  0  0  0  0  0
    9.0571    1.7229    0.0000 C   0  0  0  0  0  0  0  0  0
  1  2  1  0  0  0  0
  2  3  4  0  0  0  0
  2 10  4  0  0  0  0
  3  4  4  0  0  0  0
  4  5  4  0  0  0  0
  4  8  4  0  0  0  0
  5  6  4  0  0  0  0
  6  7  4  0  0  0  0
  7  8  4  0  0  0  0
  7 11  1  0  0  0  0
  8  9  4  0  0  0  0
  9 10  4  0  0  0  0
 11 12  1  0  0  0  0
 11 16  1  0  0  0  0
 12 13  1  0  0  0  0
 13 14  1  0  0  0  0
 14 15  1  0  0  0  0
 14 17  1  0  0  0  0
 15 16  1  0  0  0  0
 17 18  1  0  0  0  0
 18 19  1  0  0  0  0
 19 20  1  0  0  0  0
 19 25  2  0  0  0  0
 20 21  2  0  0  0  0
 20 22  1  0  0  0  0
 22 23  1  0  0  0  0
 22 31  1  0  0  0  0
 23 24  2  0  0  0  0
 23 27  1  0  0  0  0
 24 25  1  0  0  0  0
 25 26  1  0  0  0  0
 27 28  1  0  0  0  0
 27 29  1  0  0  0  0
 29 30  1  0  0  0  0
 30 31  1  0  0  0  0
M  END
>  <Name_Molregno>
9-OH-risperidone

>  <5-HT1A>
6.24

>  <5-HT1B>
7.51

>  <5-HT1D>
7.44

>  <5-HT1E>
5.49

>  <5-HT2A>
9

>  <5-HT2C>
7.32

>  <5-HT3>
5

>  <5-HT5>
6.56

>  <5-HT6>
5.62

>  <5-HT7>
8.57

>  <Alpha-1A>
8.6

>  <Alpha-1B>
9.15

>  <Alpha-2A>
7.92

>  <Alpha-2B>
7.63

>  <Alpha-2C>
8.2

>  <Beta-1>
5.15

>  <Beta-2>
5.15

>  <DOPAMINE D1>
7.39

>  <DOPAMINE D2>
8.61

>  <DOPAMINE D3>
9.07

>  <DOPAMINE D4>
7.4

>  <DOPAMINE D5>
7.54

>  <Dopamine transporter>
5

>  <HISTAMINE H1>
8.07

>  <HISTAMINE H2>
6.92

>  <HISTAMINE H4>
5.06

>  <Muscarinic acetylcholine receptor M1>
5

>  <Muscarinic acetylcholine receptor M2>
5

>  <Muscarinic acetylcholine receptor M3>
5

>  <Muscarinic acetylcholine receptor M4>
5

>  <Muscarinic acetylcholine receptor M5>
5

>  <Norepinephrine transporter>
5

>  <Serotonin transporter>
5.71

$$$$
Acetylsalicylic-acid
  Marvin  02231216192D 0   1.00000     0.00000     0

 13 13  0  0  0  0  0  0  0  0999 V2000
    0.0203    0.5019    0.0000 O   0  0  0  0  0  0  0  0  0
    0.7347    0.0894    0.0000 C   0  0  0  0  0  0  0  0  0
    1.4492    0.5019    0.0000 O   0  0  0  0  0  0  0  0  0
    0.7347   -0.7356    0.0000 C   0  0  0  0  0  0  0  0  0
   -0.6942    0.0894    0.0000 C   0  0  0  0  0  0  0  0  0
   -0.6942   -0.7356    0.0000 C   0  0  0  0  0  0  0  0  0
   -1.4087   -1.1481    0.0000 C   0  0  0  0  0  0  0  0  0
   -2.1232   -0.7356    0.0000 C   0  0  0  0  0  0  0  0  0
   -2.1232    0.0894    0.0000 C   0  0  0  0  0  0  0  0  0
   -1.4087    0.5019    0.0000 C   0  0  0  0  0  0  0  0  0
   -1.4087    1.3269    0.0000 C   0  0  0  0  0  0  0  0  0
   -2.1232    1.7394    0.0000 O   0  0  0  0  0  0  0  0  0
   -0.6942    1.7394    0.0000 O   0  0  0  0  0  0  0  0  0
  1  2  1  0  0  0  0
  1  5  1  0  0  0  0
  2  3  2  0  0  0  0
  2  4  1  0  0  0  0
  5  6  4  0  0  0  0
  5 10  4  0  0  0  0
  6  7  4  0  0  0  0
  7  8  4  0  0  0  0
  8  9  4  0  0  0  0
  9 10  4  0  0  0  0
 10 11  1  0  0  0  0
 11 12  1  0  0  0  0
 11 13  2  0  0  0  0
M  END
>  <Name_Molregno>
Acetylsalicylic-acid

>  <5-HT1A>
5

>  <5-HT1B>
5

>  <5-HT1D>
5

>  <5-HT2A>
5

>  <5-HT3>
5

>  <5-HT5>
5

>  <5-HT6>
5

>  <5-HT7>
5

>  <Alpha-1A>
5

>  <Alpha-1B>
5

>  <Alpha-2A>
5

>  <Alpha-2B>
5

>  <Alpha-2C>
5

>  <DOPAMINE D1>
5

>  <DOPAMINE D2>
5

>  <DOPAMINE D4>
5

>  <DOPAMINE D5>
5

>  <HISTAMINE H1>
5

>  <HISTAMINE H2>
5

>  <Muscarinic acetylcholine receptor M2>
5

>  <Muscarinic acetylcholine receptor M5>
5

$$$$
ADTN-2
  Marvin  02231216192D 0   1.00000     0.00000     0

 16 16  0  0  0  0  0  0  0  0999 V2000
    2.6449   -2.9002    0.0000 O   0  0  0  0  0  0  0  0  0
    2.1532   -2.2378    0.0000 C   0  0  0  0  0  0  0  0  0
    1.3336   -2.3324    0.0000 N   0  0  0  0  0  0  0  0  0
    0.8419   -1.6700    0.0000 C   0  0  0  0  0  0  0  0  0
    1.1697   -0.9129    0.0000 C   0  0  0  0  0  0  0  0  0
    0.6780   -0.2505    0.0000 C   0  0  0  0  0  0  0  0  0
    1.0058    0.5066    0.0000 C   0  0  0  0  0  0  0  0  0
    1.8254    0.6012    0.0000 C   0  0  0  0  0  0  0  0  0
    2.1532    1.3583    0.0000 C   0  0  0  0  0  0  0  0  0
    1.6615    2.0207    0.0000 O   0  0  0  0  0  0  0  0  0
    2.9728    1.4529    0.0000 N   0  0  0  0  0  0  0  0  0
    3.4645    0.7905    0.0000 C   0  0  0  0  0  0  0  0  0
    3.1367    0.0334    0.0000 C   0  0  0  0  0  0  0  0  0
    3.6284   -0.6290    0.0000 C   0  0  0  0  0  0  0  0  0
    3.3006   -1.3861    0.0000 C   0  0  0  0  0  0  0  0  0
    2.4810   -1.4807    0.0000 C   0  0  0  0  0  0  0  0  0
  1  2  2  0  0  0  0
  2  3  1  0  0  0  0
  2 16  1  0  0  0  0
  3  4  1  0  0  0  0
  4  5  1  0  0  0  0
  5  6  1  0  0  0  0
  6  7  1  0  0  0  0
  7  8  1  0  0  0  0
  8  9  1  0  0  0  0
  9 10  2  0  0  0  0
  9 11  1  0  0  0  0
 11 12  1  0  0  0  0
 12 13  1  0  0  0  0
 13 14  1  0  0  0  0
 14 15  1  0  0  0  0
 15 16  1  0  0  0  0
M  END
>  <Name_Molregno>
ADTN-2

>  <DOPAMINE D1>
5.34

>  <DOPAMINE D2>
6.23

>  <DOPAMINE D4>
6.41

>  <DOPAMINE D5>
6.04

$$$$
Amentoflavone
  Marvin  02231216192D 0   1.00000     0.00000     0

 40 45  0  0  0  0  0  0  0  0999 V2000
   -3.5941   -0.9772    0.0000 O   0  0  0  0  0  0  0  0  0
   -3.5941   -0.1522    0.0000 C   0  0  0  0  0  0  0  0  0
   -4.3085    0.2603    0.0000 C   0  0  0  0  0  0  0  0  0
   -5.0230   -0.1522    0.0000 C   0  0  0  0  0  0  0  0  0
   -5.7375    0.2603    0.0000 O   0  0  0  0  0  0  0  0  0
   -5.0230   -0.9772    0.0000 C   0  0  0  0  0  0  0  0  0
   -4.3085   -1.3897    0.0000 C   0  0  0  0  0  0  0  0  0
   -4.3085   -2.2147    0.0000 C   0  0  0  0  0  0  0  0  0
   -3.5941   -2.6272    0.0000 C   0  0  0  0  0  0  0  0  0
   -3.5941   -3.4522    0.0000 C   0  0  0  0  0  0  0  0  0
   -4.3085   -3.8647    0.0000 C   0  0  0  0  0  0  0  0  0
   -4.3085   -4.6897    0.0000 O   0  0  0  0  0  0  0  0  0
   -5.0230   -3.4522    0.0000 C   0  0  0  0  0  0  0  0  0
   -5.0230   -2.6272    0.0000 C   0  0  0  0  0  0  0  0  0
   -4.3085    1.0853    0.0000 C   0  0  0  0  0  0  0  0  0
   -5.0230    1.4978    0.0000 O   0  0  0  0  0  0  0  0  0
   -3.5941    1.4978    0.0000 C   0  0  0  0  0  0  0  0  0
   -2.8796    1.0853    0.0000 C   0  0  0  0  0  0  0  0  0
   -2.1651    1.4978    0.0000 O   0  0  0  0  0  0  0  0  0
   -2.8796    0.2603    0.0000 C   0  0  0  0  0  0  0  0  0
   -2.1651   -0.1522    0.0000 C   0  0  0  0  0  0  0  0  0
   -1.4507    0.2603    0.0000 C   0  0  0  0  0  0  0  0  0
   -0.7362   -0.1522    0.0000 C   0  0  0  0  0  0  0  0  0
   -0.7362   -0.9772    0.0000 C   0  0  0  0  0  0  0  0  0
   -1.4507   -1.3897    0.0000 C   0  0  0  0  0  0  0  0  0
   -2.1651   -0.9772    0.0000 C   0  0  0  0  0  0  0  0  0
   -2.8796   -1.3897    0.0000 O   0  0  0  0  0  0  0  0  0
   -0.0217    0.2603    0.0000 C   0  0  0  0  0  0  0  0  0
    0.6928   -0.1522    0.0000 O   0  0  0  0  0  0  0  0  0
    1.4072    0.2603    0.0000 C   0  0  0  0  0  0  0  0  0
    1.4072    1.0853    0.0000 C   0  0  0  0  0  0  0  0  0
    0.6928    1.4978    0.0000 C   0  0  0  0  0  0  0  0  0
    0.6928    2.3228    0.0000 O   0  0  0  0  0  0  0  0  0
   -0.0217    1.0853    0.0000 C   0  0  0  0  0  0  0  0  0
    2.1217    1.4978    0.0000 C   0  0  0  0  0  0  0  0  0
    2.1217    2.3228    0.0000 O   0  0  0  0  0  0  0  0  0
    2.8362    1.0853    0.0000 C   0  0  0  0  0  0  0  0  0
    2.8362    0.2603    0.0000 C   0  0  0  0  0  0  0  0  0
    3.5506   -0.1522    0.0000 O   0  0  0  0  0  0  0  0  0
    2.1217   -0.1522    0.0000 C   0  0  0  0  0  0  0  0  0
  1  2  1  0  0  0  0
  1  7  1  0  0  0  0
  2  3  4  0  0  0  0
  2 20  4  0  0  0  0
  3  4  1  0  0  0  0
  3 15  4  0  0  0  0
  4  5  2  0  0  0  0
  4  6  1  0  0  0  0
  6  7  2  0  0  0  0
  7  8  1  0  0  0  0
  8  9  4  0  0  0  0
  8 14  4  0  0  0  0
  9 10  4  0  0  0  0
 10 11  4  0  0  0  0
 11 12  1  0  0  0  0
 11 13  4  0  0  0  0
 13 14  4  0  0  0  0
 15 16  1  0  0  0  0
 15 17  4  0  0  0  0
 17 18  4  0  0  0  0
 18 19  1  0  0  0  0
 18 20  4  0  0  0  0
 20 21  1  0  0  0  0
 21 22  4  0  0  0  0
 21 26  4  0  0  0  0
 22 23  4  0  0  0  0
 23 24  4  0  0  0  0
 23 28  1  0  0  0  0
 24 25  4  0  0  0  0
 25 26  4  0  0  0  0
 26 27  1  0  0  0  0
 28 29  1  0  0  0  0
 28 34  2  0  0  0  0
 29 30  1  0  0  0  0
 30 31  4  0  0  0  0
 30 40  4  0  0  0  0
 31 32  1  0  0  0  0
 31 35  4  0  0  0  0
 32 33  2  0  0  0  0
 32 34  1  0  0  0  0
 35 36  1  0  0  0  0
 35 37  4  0  0  0  0
 37 38  4  0  0  0  0
 38 39  1  0  0  0  0
 38 40  4  0  0  0  0
M  END
>  <Name_Molregno>
Amentoflavone

>  <5-HT1A>
5

>  <5-HT1B>
5.39

>  <5-HT1D>
5

>  <5-HT2C>
5.59

>  <5-HT3>
5

>  <5-HT5>
5

>  <5-HT6>
5

>  <5-HT7>
5

>  <Alpha-1A>
5

>  <Alpha-1B>
5

>  <Alpha-2A>
5

>  <Alpha-2B>
5

>  <Alpha-2C>
5

>  <DOPAMINE D1>
5

>  <DOPAMINE D5>
5

>  <Muscarinic acetylcholine receptor M1>
5

>  <Muscarinic acetylcholine receptor M2>
5

>  <Muscarinic acetylcholine receptor M3>
5

>  <Muscarinic acetylcholine receptor M4>
5

>  <Muscarinic acetylcholine receptor M5>
5

>  <Norepinephrine transporter>
5

>  <Serotonin transporter>
5

$$$$
AMITRIPTYLINE
  Marvin  02231216192D 0   1.00000     0.00000     0

 21 23  0  0  0  0  0  0  0  0999 V2000
    0.4326    2.9044    0.0000 N   0  0  0  0  0  0  0  0  0
    1.1470    2.4919    0.0000 C   0  0  0  0  0  0  0  0  0
    1.8615    2.9044    0.0000 C   0  0  0  0  0  0  0  0  0
    2.5760    2.4919    0.0000 C   0  0  0  0  0  0  0  0  0
    2.5760    1.6669    0.0000 C   0  0  0  0  0  0  0  0  0
    3.3193    1.3089    0.0000 C   0  0  0  0  0  0  0  0  0
    3.5029    0.5046    0.0000 C   0  0  0  0  0  0  0  0  0
    2.9885   -0.1404    0.0000 C   0  0  0  0  0  0  0  0  0
    2.1635   -0.1404    0.0000 C   0  0  0  0  0  0  0  0  0
    1.6491    0.5046    0.0000 C   0  0  0  0  0  0  0  0  0
    1.8327    1.3089    0.0000 C   0  0  0  0  0  0  0  0  0
    1.2279    1.8701    0.0000 C   0  0  0  0  0  0  0  0  0
    0.4396    1.6269    0.0000 C   0  0  0  0  0  0  0  0  0
    0.2560    0.8226    0.0000 C   0  0  0  0  0  0  0  0  0
    0.8608    0.2615    0.0000 C   0  0  0  0  0  0  0  0  0
    4.2912    0.2615    0.0000 C   0  0  0  0  0  0  0  0  0
    4.8960    0.8226    0.0000 C   0  0  0  0  0  0  0  0  0
    4.7124    1.6269    0.0000 C   0  0  0  0  0  0  0  0  0
    3.9241    1.8701    0.0000 C   0  0  0  0  0  0  0  0  0
   -0.2819    2.4919    0.0000 C   0  0  0  0  0  0  0  0  0
    0.4326    3.7294    0.0000 C   0  0  0  0  0  0  0  0  0
  1  2  1  0  0  0  0
  1 20  1  0  0  0  0
  1 21  1  0  0  0  0
  2  3  1  0  0  0  0
  3  4  1  0  0  0  0
  4  5  2  0  0  0  0
  5  6  1  0  0  0  0
  5 11  1  0  0  0  0
  6  7  4  0  0  0  0
  6 19  4  0  0  0  0
  7  8  1  0  0  0  0
  7 16  4  0  0  0  0
  8  9  1  0  0  0  0
  9 10  1  0  0  0  0
 10 11  4  0  0  0  0
 10 15  4  0  0  0  0
 11 12  4  0  0  0  0
 12 13  4  0  0  0  0
 13 14  4  0  0  0  0
 14 15  4  0  0  0  0
 16 17  4  0  0  0  0
 17 18  4  0  0  0  0
 18 19  4  0  0  0  0
M  END
>  <Name_Molregno>
AMITRIPTYLINE

>  <5-HT1A>
6.35

>  <5-HT2A>
7.64

>  <5-HT6>
7.02

>  <DOPAMINE D1>
7.05

>  <DOPAMINE D2>
6.42

>  <DOPAMINE D3>
6.69

>  <DOPAMINE D5>
6.77

>  <Dopamine transporter>
5.4

>  <HISTAMINE H1>
9.08

>  <HISTAMINE H3>
6

>  <HISTAMINE H4>
7.47

>  <Muscarinic acetylcholine receptor M1>
7.89

>  <Muscarinic acetylcholine receptor M2>
7.93

>  <Muscarinic acetylcholine receptor M3>
7.65

>  <Muscarinic acetylcholine receptor M4>
8.14

>  <Muscarinic acetylcholine receptor M5>
7.71

>  <Norepinephrine transporter>
7.45

>  <Serotonin transporter>
8

$$$$
APOMORPHINE
  Marvin  02231216192D 0   1.00000     0.00000     0

 20 23  0  0  1  0  0  0  0  0999 V2000
    3.2214   -1.7908    0.0000 O   0  0  0  0  0  0  0  0  0
    3.2214   -0.9658    0.0000 C   0  0  0  0  0  0  0  0  0
    2.5070   -0.5533    0.0000 C   0  0  0  0  0  0  0  0  0
    2.5070    0.2717    0.0000 C   0  0  0  0  0  0  0  0  0
    1.7925    0.6842    0.0000 C   0  0  0  0  0  0  0  0  0
    1.0780    0.2717    0.0000 C   0  0  0  0  0  0  0  0  0
    0.3635    0.6842    0.0000 N   0  0  0  0  0  0  0  0  0
   -0.3509    0.2717    0.0000 C   0  0  0  0  0  0  0  0  0
   -0.3509   -0.5533    0.0000 C   0  0  0  0  0  0  0  0  0
    0.3635   -0.9658    0.0000 C   0  0  0  0  0  0  0  0  0
    1.0780   -0.5533    0.0000 C   0  0  0  0  0  0  0  0  0
    1.7925   -0.9658    0.0000 C   0  0  0  0  0  0  0  0  0
    1.7925   -1.7908    0.0000 C   0  0  0  0  0  0  0  0  0
    1.0780   -2.2033    0.0000 C   0  0  0  0  0  0  0  0  0
    0.3635   -1.7908    0.0000 C   0  0  0  0  0  0  0  0  0
    0.3635    1.5092    0.0000 C   0  0  0  0  0  0  0  0  0
    3.2214    0.6842    0.0000 C   0  0  0  0  0  0  0  0  0
    3.9359    0.2717    0.0000 C   0  0  0  0  0  0  0  0  0
    3.9359   -0.5533    0.0000 C   0  0  0  0  0  0  0  0  0
    4.6504   -0.9658    0.0000 O   0  0  0  0  0  0  0  0  0
  1  2  1  0  0  0  0
  2  3  4  0  0  0  0
  2 19  4  0  0  0  0
  3  4  4  0  0  0  0
  3 12  1  0  0  0  0
  4  5  1  0  0  0  0
  4 17  4  0  0  0  0
  5  6  1  0  0  0  0
  6  7  1  0  0  0  0
  6 11  1  0  0  0  0
  7  8  1  0  0  0  0
  7 16  1  0  0  0  0
  8  9  1  0  0  0  0
  9 10  1  0  0  0  0
 10 11  4  0  0  0  0
 10 15  4  0  0  0  0
 11 12  4  0  0  0  0
 12 13  4  0  0  0  0
 13 14  4  0  0  0  0
 14 15  4  0  0  0  0
 17 18  4  0  0  0  0
 18 19  4  0  0  0  0
 19 20  1  0  0  0  0
M  END
>  <Name_Molregno>
APOMORPHINE

>  <5-HT1A>
6.12

>  <5-HT1B>
5.53

>  <5-HT1D>
5.91

>  <5-HT2A>
6.63

>  <5-HT2C>
6.99

>  <Alpha-1A>
5.7

>  <Alpha-1B>
6.17

>  <Alpha-2A>
6.85

>  <Alpha-2B>
7.18

>  <Alpha-2C>
7.44

>  <Beta-1>
5

>  <Beta-2>
5

>  <DOPAMINE D1>
6.4

>  <DOPAMINE D2>
7.34

>  <DOPAMINE D3>
7.65

>  <DOPAMINE D4>
7.92

>  <DOPAMINE D5>
7.14

$$$$
ARIPIPRAZOLE
  Marvin  02231216192D 0   1.00000     0.00000     0

 30 33  0  0  0  0  0  0  0  0999 V2000
   -8.7485    0.0493    0.0000 Cl  0  0  0  0  0  0  0  0  0
   -8.7485   -0.7757    0.0000 C   0  0  0  0  0  0  0  0  0
   -8.0340   -1.1882    0.0000 C   0  0  0  0  0  0  0  0  0
   -7.3195   -0.7757    0.0000 N   0  0  0  0  0  0  0  0  0
   -7.3195    0.0493    0.0000 C   0  0  0  0  0  0  0  0  0
   -6.6051    0.4618    0.0000 C   0  0  0  0  0  0  0  0  0
   -5.8906    0.0493    0.0000 N   0  0  0  0  0  0  0  0  0
   -5.8906   -0.7757    0.0000 C   0  0  0  0  0  0  0  0  0
   -6.6051   -1.1882    0.0000 C   0  0  0  0  0  0  0  0  0
   -5.1761    0.4618    0.0000 C   0  0  0  0  0  0  0  0  0
   -4.4616    0.0493    0.0000 C   0  0  0  0  0  0  0  0  0
   -3.7472    0.4618    0.0000 C   0  0  0  0  0  0  0  0  0
   -3.0327    0.0493    0.0000 C   0  0  0  0  0  0  0  0  0
   -2.3182    0.4618    0.0000 O   0  0  0  0  0  0  0  0  0
   -1.6038    0.0493    0.0000 C   0  0  0  0  0  0  0  0  0
   -0.8893    0.4618    0.0000 C   0  0  0  0  0  0  0  0  0
   -0.1748    0.0493    0.0000 C   0  0  0  0  0  0  0  0  0
    0.5397    0.4618    0.0000 N   0  0  0  0  0  0  0  0  0
    1.2541    0.0493    0.0000 C   0  0  0  0  0  0  0  0  0
    1.9686    0.4618    0.0000 O   0  0  0  0  0  0  0  0  0
    1.2541   -0.7757    0.0000 C   0  0  0  0  0  0  0  0  0
    0.5397   -1.1882    0.0000 C   0  0  0  0  0  0  0  0  0
   -0.1748   -0.7757    0.0000 C   0  0  0  0  0  0  0  0  0
   -0.8893   -1.1882    0.0000 C   0  0  0  0  0  0  0  0  0
   -1.6038   -0.7757    0.0000 C   0  0  0  0  0  0  0  0  0
   -8.0340   -2.0132    0.0000 C   0  0  0  0  0  0  0  0  0
   -8.7485   -2.4257    0.0000 C   0  0  0  0  0  0  0  0  0
   -9.4629   -2.0132    0.0000 C   0  0  0  0  0  0  0  0  0
   -9.4629   -1.1882    0.0000 C   0  0  0  0  0  0  0  0  0
  -10.1774   -0.7757    0.0000 Cl  0  0  0  0  0  0  0  0  0
  1  2  1  0  0  0  0
  2  3  4  0  0  0  0
  2 29  4  0  0  0  0
  3  4  1  0  0  0  0
  3 26  4  0  0  0  0
  4  5  1  0  0  0  0
  4  9  1  0  0  0  0
  5  6  1  0  0  0  0
  6  7  1  0  0  0  0
  7  8  1  0  0  0  0
  7 10  1  0  0  0  0
  8  9  1  0  0  0  0
 10 11  1  0  0  0  0
 11 12  1  0  0  0  0
 12 13  1  0  0  0  0
 13 14  1  0  0  0  0
 14 15  1  0  0  0  0
 15 16  4  0  0  0  0
 15 25  4  0  0  0  0
 16 17  4  0  0  0  0
 17 18  1  0  0  0  0
 17 23  4  0  0  0  0
 18 19  1  0  0  0  0
 19 20  2  0  0  0  0
 19 21  1  0  0  0  0
 21 22  1  0  0  0  0
 22 23  1  0  0  0  0
 23 24  4  0  0  0  0
 24 25  4  0  0  0  0
 26 27  4  0  0  0  0
 27 28  4  0  0  0  0
 28 29  4  0  0  0  0
 29 30  1  0  0  0  0
M  END
>  <Name_Molregno>
ARIPIPRAZOLE

>  <5-HT1A>
8.21

>  <5-HT1B>
6.08

>  <5-HT1D>
7.18

>  <5-HT1E>
5.1

>  <5-HT2A>
7.85

>  <5-HT2C>
7.48

>  <5-HT3>
6.25

>  <5-HT5>
5.91

>  <5-HT6>
6.32

>  <5-HT7>
7.81

>  <Alpha-1A>
7.59

>  <Alpha-1B>
7.46

>  <Alpha-2A>
7.13

>  <Alpha-2B>
6.99

>  <Alpha-2C>
7.42

>  <Beta-1>
6.85

>  <Beta-2>
6.79

>  <DOPAMINE D1>
6.06

>  <DOPAMINE D2>
8.72

>  <DOPAMINE D3>
8.45

>  <DOPAMINE D4>
6.51

>  <DOPAMINE D5>
5.69

>  <Dopamine transporter>
5.49

>  <HISTAMINE H1>
7.56

>  <HISTAMINE H2>
5

>  <HISTAMINE H4>
5

>  <Muscarinic acetylcholine receptor M1>
5.17

>  <Muscarinic acetylcholine receptor M2>
5.45

>  <Muscarinic acetylcholine receptor M3>
5.33

>  <Muscarinic acetylcholine receptor M4>
5.82

>  <Muscarinic acetylcholine receptor M5>
5.63

>  <Norepinephrine transporter>
5.68

>  <Serotonin transporter>
6.48

$$$$
B-HT920
  Marvin  02231216192D 0   1.00000     0.00000     0

 14 15  0  0  0  0  0  0  0  0999 V2000
   -3.1193    0.1933    0.0000 S   0  0  0  0  0  0  0  0  0
   -2.3347   -0.0617    0.0000 C   0  0  0  0  0  0  0  0  0
   -1.6896    0.4527    0.0000 C   0  0  0  0  0  0  0  0  0
   -0.8853    0.2691    0.0000 C   0  0  0  0  0  0  0  0  0
   -0.5274   -0.4742    0.0000 N   0  0  0  0  0  0  0  0  0
   -0.8853   -1.2175    0.0000 C   0  0  0  0  0  0  0  0  0
   -1.6896   -1.4010    0.0000 C   0  0  0  0  0  0  0  0  0
   -2.3347   -0.8867    0.0000 C   0  0  0  0  0  0  0  0  0
   -3.1193   -1.1416    0.0000 N   0  0  0  0  0  0  0  0  0
   -3.6042   -0.4742    0.0000 C   0  0  0  0  0  0  0  0  0
   -4.4292   -0.4742    0.0000 N   0  0  0  0  0  0  0  0  0
    0.2976   -0.4742    0.0000 C   0  0  0  0  0  0  0  0  0
    0.7101   -1.1886    0.0000 C   0  0  0  0  0  0  0  0  0
    1.5351   -1.1886    0.0000 C   0  0  0  0  0  0  0  0  0
  1  2  4  0  0  0  0
  1 10  4  0  0  0  0
  2  3  1  0  0  0  0
  2  8  4  0  0  0  0
  3  4  1  0  0  0  0
  4  5  1  0  0  0  0
  5  6  1  0  0  0  0
  5 12  1  0  0  0  0
  6  7  1  0  0  0  0
  7  8  1  0  0  0  0
  8  9  4  0  0  0  0
  9 10  4  0  0  0  0
 10 11  1  0  0  0  0
 12 13  1  0  0  0  0
 13 14  2  0  0  0  0
M  END
>  <Name_Molregno>
B-HT920

>  <5-HT1A>
5.77

>  <5-HT1B>
5

>  <5-HT1D>
5

>  <5-HT2A>
5

>  <5-HT2C>
5

>  <Alpha-1A>
5

>  <Alpha-1B>
5.41

>  <Alpha-2A>
6.91

>  <Alpha-2B>
6.69

>  <Alpha-2C>
6.69

>  <Beta-1>
5

>  <Beta-2>
5

>  <DOPAMINE D1>
5

>  <DOPAMINE D2>
6.88

>  <DOPAMINE D3>
7.8

>  <DOPAMINE D4>
6.48

>  <DOPAMINE D5>
5.46

$$$$
BROMOCRIPTINE
  Marvin  02231216192D 0   1.00000     0.00000     0

 43 49  0  0  1  0  0  0  0  0999 V2000
    6.2699    4.4922    0.0000 Br  0  0  0  0  0  0  0  0  0
    6.7473    3.8193    0.0000 C   0  0  0  0  0  0  0  0  0
    7.5723    3.8193    0.0000 N   0  0  0  0  0  0  0  0  0
    7.8776    2.9622    0.0000 C   0  0  0  0  0  0  0  0  0
    7.1598    2.5497    0.0000 C   0  0  0  0  0  0  0  0  0
    6.4473    2.9622    0.0000 C   0  0  0  0  0  0  0  0  0
    5.7348    2.5497    0.0000 C   0  0  0  0  0  0  0  0  0
    5.7348    1.7247    0.0000 C   0  0  0  0  0  0  0  0  0
    5.0198    1.3130    0.0000 N   0  0  0  0  0  0  0  0  0
    5.0188    0.4880    0.0000 C   0  0  0  0  0  0  0  0  0
    5.7328    0.0747    0.0000 C   0  0  0  0  0  0  0  0  0
    6.4478    0.4863    0.0000 C   0  0  0  0  0  0  0  0  0
    6.4488    1.3113    0.0000 C   0  0  0  0  0  0  0  0  0
    7.1598    1.7247    0.0000 C   0  0  0  0  0  0  0  0  0
    7.8776    1.3122    0.0000 C   0  0  0  0  0  0  0  0  0
    8.5901    1.7247    0.0000 C   0  0  0  0  0  0  0  0  0
    8.5901    2.5497    0.0000 C   0  0  0  0  0  0  0  0  0
    5.7318   -0.7503    0.0000 C   0  0  0  0  0  0  0  0  0
    6.4458   -1.1637    0.0000 O   0  0  0  0  0  0  0  0  0
    5.0168   -1.1620    0.0000 N   0  0  0  0  0  0  0  0  0
    5.0159   -1.9870    0.0000 C   0  0  0  0  0  0  0  0  0
    5.1864   -2.7941    0.0000 O   0  0  0  0  0  0  0  0  0
    4.4715   -3.2058    0.0000 C   0  0  0  0  0  0  0  0  0
    5.1383   -3.6915    0.0000 O   0  0  0  0  0  0  0  0  0
    3.8590   -2.6530    0.0000 N   0  0  0  0  0  0  0  0  0
    3.0741   -2.9070    0.0000 C   0  0  0  0  0  0  0  0  0
    2.4617   -2.3543    0.0000 C   0  0  0  0  0  0  0  0  0
    1.6767   -2.6083    0.0000 C   0  0  0  0  0  0  0  0  0
    1.0643   -2.0555    0.0000 C   0  0  0  0  0  0  0  0  0
    1.5042   -3.4150    0.0000 C   0  0  0  0  0  0  0  0  0
    2.9016   -3.7138    0.0000 C   0  0  0  0  0  0  0  0  0
    2.1167   -3.9678    0.0000 O   0  0  0  0  0  0  0  0  0
    3.5140   -4.2665    0.0000 N   0  0  0  0  0  0  0  0  0
    4.2990   -4.0125    0.0000 C   0  0  0  0  0  0  0  0  0
    4.7831   -4.6806    0.0000 C   0  0  0  0  0  0  0  0  0
    4.2974   -5.3474    0.0000 C   0  0  0  0  0  0  0  0  0
    3.5131   -5.0915    0.0000 C   0  0  0  0  0  0  0  0  0
    4.1955   -1.8997    0.0000 C   0  0  0  0  0  0  0  0  0
    3.7838   -1.1848    0.0000 O   0  0  0  0  0  0  0  0  0
    5.8364   -1.9017    0.0000 C   0  0  0  0  0  0  0  0  0
    6.5514   -1.4901    0.0000 C   0  0  0  0  0  0  0  0  0
    6.3206   -2.5697    0.0000 C   0  0  0  0  0  0  0  0  0
    4.3058    1.7264    0.0000 C   0  0  0  0  0  0  0  0  0
  1  2  1  0  0  0  0
  2  3  4  0  0  0  0
  2  6  4  0  0  0  0
  3  4  4  0  0  0  0
  4  5  4  0  0  0  0
  4 17  4  0  0  0  0
  5  6  4  0  0  0  0
  5 14  4  0  0  0  0
  6  7  1  0  0  0  0
  7  8  1  0  0  0  0
  8  9  1  0  0  0  0
  8 13  1  0  0  0  0
  9 10  1  0  0  0  0
  9 43  1  0  0  0  0
 10 11  1  0  0  0  0
 11 12  1  0  0  0  0
 11 18  1  0  0  0  0
 12 13  2  0  0  0  0
 13 14  1  0  0  0  0
 14 15  4  0  0  0  0
 15 16  4  0  0  0  0
 16 17  4  0  0  0  0
 18 19  2  0  0  0  0
 18 20  1  0  0  0  0
 20 21  1  0  0  0  0
 21 22  1  0  0  0  0
 21 38  1  0  0  0  0
 21 40  1  0  0  0  0
 22 23  1  0  0  0  0
 23 24  1  0  0  0  0
 23 25  1  0  0  0  0
 23 34  1  0  0  0  0
 25 26  1  0  0  0  0
 25 38  1  0  0  0  0
 26 27  1  0  0  0  0
 26 31  1  0  0  0  0
 27 28  1  0  0  0  0
 28 29  1  0  0  0  0
 28 30  1  0  0  0  0
 31 32  2  0  0  0  0
 31 33  1  0  0  0  0
 33 34  1  0  0  0  0
 33 37  1  0  0  0  0
 34 35  1  0  0  0  0
 35 36  1  0  0  0  0
 36 37  1  0  0  0  0
 38 39  2  0  0  0  0
 40 41  1  0  0  0  0
 40 42  1  0  0  0  0
M  STY  1   1 DAT
M  SAL   1  1   3
M  SDT   1 MRV_IMPLICIT_H                                        
M  SDD   1     0.0000    0.0000    DR    ALL  0       0  
M  SED   1 IMPL_H1
M  END
>  <Name_Molregno>
BROMOCRIPTINE

>  <5-HT1A>
7.7

>  <5-HT1B>
6.45

>  <5-HT1D>
7.97

>  <5-HT2A>
6.97

>  <5-HT2C>
6.13

>  <5-HT6>
7.39

>  <Alpha-1A>
8.38

>  <Alpha-1B>
8.86

>  <Alpha-2A>
7.96

>  <Alpha-2B>
7.46

>  <Alpha-2C>
7.55

>  <Beta-1>
6.23

>  <Beta-2>
6.13

>  <DOPAMINE D1>
6

>  <DOPAMINE D2>
8.31

>  <DOPAMINE D3>
8.02

>  <DOPAMINE D4>
6.33

>  <DOPAMINE D5>
6.31

$$$$
Cabergoline
  Marvin  02231216192D 0   1.00000     0.00000     0

 33 36  0  0  1  0  0  0  0  0999 V2000
    0.1488   -3.1643    0.0000 O   0  0  0  0  0  0  0  0  0
   -0.5651   -2.7509    0.0000 C   0  0  0  0  0  0  0  0  0
   -1.2801   -3.1625    0.0000 N   0  0  0  0  0  0  0  0  0
   -1.2811   -3.9875    0.0000 C   0  0  0  0  0  0  0  0  0
   -1.9961   -4.3992    0.0000 C   0  0  0  0  0  0  0  0  0
   -1.9970   -5.2242    0.0000 C   0  0  0  0  0  0  0  0  0
   -2.7120   -5.6358    0.0000 N   0  0  0  0  0  0  0  0  0
   -2.7130   -6.4608    0.0000 C   0  0  0  0  0  0  0  0  0
   -3.4260   -5.2225    0.0000 C   0  0  0  0  0  0  0  0  0
   -1.9941   -2.7492    0.0000 C   0  0  0  0  0  0  0  0  0
   -2.7090   -3.1608    0.0000 O   0  0  0  0  0  0  0  0  0
   -1.9931   -1.9242    0.0000 N   0  0  0  0  0  0  0  0  0
   -2.7071   -1.5108    0.0000 C   0  0  0  0  0  0  0  0  0
   -3.4220   -1.9225    0.0000 C   0  0  0  0  0  0  0  0  0
   -0.5641   -1.9259    0.0000 C   0  0  0  0  0  0  0  0  0
    0.1508   -1.5143    0.0000 C   0  0  0  0  0  0  0  0  0
    0.1518   -0.6893    0.0000 C   0  0  0  0  0  0  0  0  0
   -0.5622   -0.2759    0.0000 C   0  0  0  0  0  0  0  0  0
   -1.2771   -0.6875    0.0000 N   0  0  0  0  0  0  0  0  0
   -1.2781   -1.5125    0.0000 C   0  0  0  0  0  0  0  0  0
   -1.9911   -0.2742    0.0000 C   0  0  0  0  0  0  0  0  0
   -2.7061   -0.6858    0.0000 C   0  0  0  0  0  0  0  0  0
   -3.4201   -0.2725    0.0000 C   0  0  0  0  0  0  0  0  0
   -0.5607    0.5482    0.0000 C   0  0  0  0  0  0  0  0  0
    0.1518    0.9607    0.0000 C   0  0  0  0  0  0  0  0  0
    0.8643    0.5482    0.0000 C   0  0  0  0  0  0  0  0  0
    0.8643   -0.2768    0.0000 C   0  0  0  0  0  0  0  0  0
    1.5822   -0.6893    0.0000 C   0  0  0  0  0  0  0  0  0
    2.2947   -0.2768    0.0000 C   0  0  0  0  0  0  0  0  0
    2.2947    0.5482    0.0000 C   0  0  0  0  0  0  0  0  0
    1.5822    0.9607    0.0000 C   0  0  0  0  0  0  0  0  0
    1.2768    1.8179    0.0000 N   0  0  0  0  0  0  0  0  0
    0.4518    1.8179    0.0000 C   0  0  0  0  0  0  0  0  0
  1  2  2  0  0  0  0
  2  3  1  0  0  0  0
  2 15  1  0  0  0  0
  3  4  1  0  0  0  0
  3 10  1  0  0  0  0
  4  5  1  0  0  0  0
  5  6  1  0  0  0  0
  6  7  1  0  0  0  0
  7  8  1  0  0  0  0
  7  9  1  0  0  0  0
 10 11  2  0  0  0  0
 10 12  1  0  0  0  0
 12 13  1  0  0  0  0
 13 14  1  0  0  0  0
 15 16  1  0  0  0  0
 15 20  1  0  0  0  0
 16 17  1  0  0  0  0
 17 18  1  0  0  0  0
 17 27  1  0  0  0  0
 18 19  1  0  0  0  0
 18 24  1  0  0  0  0
 19 20  1  0  0  0  0
 19 21  1  0  0  0  0
 21 22  1  0  0  0  0
 22 23  2  0  0  0  0
 24 25  1  0  0  0  0
 25 26  4  0  0  0  0
 25 33  4  0  0  0  0
 26 27  4  0  0  0  0
 26 31  4  0  0  0  0
 27 28  4  0  0  0  0
 28 29  4  0  0  0  0
 29 30  4  0  0  0  0
 30 31  4  0  0  0  0
 31 32  4  0  0  0  0
 32 33  4  0  0  0  0
M  STY  1   1 DAT
M  SAL   1  1  32
M  SDT   1 MRV_IMPLICIT_H                                        
M  SDD   1     0.0000    0.0000    DR    ALL  0       0  
M  SED   1 IMPL_H1
M  END
>  <Name_Molregno>
Cabergoline

>  <5-HT1A>
7.7

>  <5-HT1B>
6.32

>  <5-HT1D>
8.06

>  <5-HT2A>
8.21

>  <5-HT2C>
6.16

>  <Alpha-1A>
6.54

>  <Alpha-1B>
7.22

>  <Alpha-2A>
7.92

>  <Alpha-2B>
7.14

>  <Alpha-2C>
7.65

>  <Beta-1>
5

>  <Beta-2>
5

>  <DOPAMINE D1>
6.67

>  <DOPAMINE D2>
9.12

>  <DOPAMINE D3>
9.1

>  <DOPAMINE D4>
7.25

>  <DOPAMINE D5>
7.65

$$$$
Cathinone
  Marvin  02231216192D 0   1.00000     0.00000     0

 11 11  0  0  1  0  0  0  0  0999 V2000
    1.9974    0.2298    0.0000 O   0  0  0  0  0  0  0  0  0
    1.2829   -0.1827    0.0000 C   0  0  0  0  0  0  0  0  0
    0.5684    0.2298    0.0000 C   0  0  0  0  0  0  0  0  0
    0.5684    1.0548    0.0000 N   0  0  0  0  0  0  0  0  0
   -0.1461   -0.1827    0.0000 C   0  0  0  0  0  0  0  0  0
    1.2829   -1.0077    0.0000 C   0  0  0  0  0  0  0  0  0
    1.9974   -1.4202    0.0000 C   0  0  0  0  0  0  0  0  0
    1.9974   -2.2452    0.0000 C   0  0  0  0  0  0  0  0  0
    1.2829   -2.6577    0.0000 C   0  0  0  0  0  0  0  0  0
    0.5684   -2.2452    0.0000 C   0  0  0  0  0  0  0  0  0
    0.5684   -1.4202    0.0000 C   0  0  0  0  0  0  0  0  0
  1  2  2  0  0  0  0
  2  3  1  0  0  0  0
  2  6  1  0  0  0  0
  3  4  1  0  0  0  0
  3  5  1  0  0  0  0
  6  7  4  0  0  0  0
  6 11  4  0  0  0  0
  7  8  4  0  0  0  0
  8  9  4  0  0  0  0
  9 10  4  0  0  0  0
 10 11  4  0  0  0  0
M  END
>  <Name_Molregno>
Cathinone

>  <5-HT1A>
5

>  <5-HT1B>
5

>  <5-HT1D>
5

>  <5-HT1E>
5

>  <5-HT3>
5

>  <5-HT5>
5

>  <5-HT6>
5

>  <5-HT7>
5.57

>  <Alpha-1A>
5

>  <Alpha-1B>
5

>  <Alpha-2A>
5.17

>  <Alpha-2B>
6.04

>  <Alpha-2C>
6.12

>  <Beta-1>
5

>  <Beta-2>
5

>  <DOPAMINE D1>
5

>  <DOPAMINE D2>
5

>  <DOPAMINE D4>
5

>  <DOPAMINE D5>
5

>  <Dopamine transporter>
6.37

>  <HISTAMINE H1>
5

>  <HISTAMINE H2>
5

>  <HISTAMINE H4>
5

>  <Muscarinic acetylcholine receptor M1>
5

>  <Muscarinic acetylcholine receptor M2>
5

>  <Muscarinic acetylcholine receptor M3>
5

>  <Muscarinic acetylcholine receptor M4>
5

>  <Muscarinic acetylcholine receptor M5>
5

>  <Norepinephrine transporter>
6.76

>  <Serotonin transporter>
5.32

$$$$
CELECOXIB
  Marvin  02231216192D 0   1.00000     0.00000     0

 26 28  0  0  0  0  0  0  0  0999 V2000
   -2.2304    2.3034    0.0000 S   0  0  0  0  0  0  0  0  0
   -2.2304    3.1284    0.0000 O   0  0  0  0  0  0  0  0  0
   -3.0554    2.3034    0.0000 O   0  0  0  0  0  0  0  0  0
   -1.4054    2.3034    0.0000 N   0  0  0  0  0  0  0  0  0
   -2.2304    1.4784    0.0000 C   0  0  0  0  0  0  0  0  0
   -1.5159    1.0659    0.0000 C   0  0  0  0  0  0  0  0  0
   -1.5159    0.2409    0.0000 C   0  0  0  0  0  0  0  0  0
   -2.2304   -0.1716    0.0000 C   0  0  0  0  0  0  0  0  0
   -2.2304   -0.9966    0.0000 N   0  0  0  0  0  0  0  0  0
   -1.5629   -1.4815    0.0000 N   0  0  0  0  0  0  0  0  0
   -1.8179   -2.2662    0.0000 C   0  0  0  0  0  0  0  0  0
   -2.6429   -2.2662    0.0000 C   0  0  0  0  0  0  0  0  0
   -2.8978   -1.4815    0.0000 C   0  0  0  0  0  0  0  0  0
   -3.6824   -1.2266    0.0000 C   0  0  0  0  0  0  0  0  0
   -4.2955   -1.7786    0.0000 C   0  0  0  0  0  0  0  0  0
   -5.0802   -1.5237    0.0000 C   0  0  0  0  0  0  0  0  0
   -5.2517   -0.7167    0.0000 C   0  0  0  0  0  0  0  0  0
   -4.6386   -0.1647    0.0000 C   0  0  0  0  0  0  0  0  0
   -3.8540   -0.4196    0.0000 C   0  0  0  0  0  0  0  0  0
   -6.0363   -0.4618    0.0000 C   0  0  0  0  0  0  0  0  0
   -1.3330   -2.9336    0.0000 C   0  0  0  0  0  0  0  0  0
   -0.8480   -3.6010    0.0000 F   0  0  0  0  0  0  0  0  0
   -2.0004   -3.4185    0.0000 F   0  0  0  0  0  0  0  0  0
   -0.6655   -2.4487    0.0000 F   0  0  0  0  0  0  0  0  0
   -2.9448    0.2409    0.0000 C   0  0  0  0  0  0  0  0  0
   -2.9448    1.0659    0.0000 C   0  0  0  0  0  0  0  0  0
  1  2  2  0  0  0  0
  1  3  2  0  0  0  0
  1  4  1  0  0  0  0
  1  5  1  0  0  0  0
  5  6  4  0  0  0  0
  5 26  4  0  0  0  0
  6  7  4  0  0  0  0
  7  8  4  0  0  0  0
  8  9  1  0  0  0  0
  8 25  4  0  0  0  0
  9 10  4  0  0  0  0
  9 13  4  0  0  0  0
 10 11  4  0  0  0  0
 11 12  4  0  0  0  0
 11 21  1  0  0  0  0
 12 13  4  0  0  0  0
 13 14  1  0  0  0  0
 14 15  4  0  0  0  0
 14 19  4  0  0  0  0
 15 16  4  0  0  0  0
 16 17  4  0  0  0  0
 17 18  4  0  0  0  0
 17 20  1  0  0  0  0
 18 19  4  0  0  0  0
 21 22  1  0  0  0  0
 21 23  1  0  0  0  0
 21 24  1  0  0  0  0
 25 26  4  0  0  0  0
M  END
>  <Name_Molregno>
CELECOXIB

>  <5-HT1A>
5

>  <5-HT1B>
5

>  <5-HT1D>
5

>  <5-HT1E>
5

>  <5-HT2A>
5

>  <5-HT3>
5

>  <5-HT6>
5

>  <5-HT7>
5

>  <Alpha-1A>
5

>  <Alpha-1B>
5

>  <Alpha-2A>
5

>  <Alpha-2B>
5

>  <Alpha-2C>
5

>  <DOPAMINE D1>
5

>  <DOPAMINE D2>
5

>  <DOPAMINE D4>
5

>  <DOPAMINE D5>
5

>  <Dopamine transporter>
6.18

>  <HISTAMINE H1>
5

>  <HISTAMINE H2>
5

>  <Muscarinic acetylcholine receptor M2>
5

>  <Muscarinic acetylcholine receptor M5>
5

>  <Norepinephrine transporter>
5

>  <Serotonin transporter>
5

$$$$
CHLOROPHENYLPIPERAZINE
  Marvin  02231216192D 0   1.00000     0.00000     0

 13 14  0  0  0  0  0  0  0  0999 V2000
    1.2605    1.9269    0.0000 Cl  0  0  0  0  0  0  0  0  0
    1.2605    1.1019    0.0000 C   0  0  0  0  0  0  0  0  0
    1.9750    0.6894    0.0000 C   0  0  0  0  0  0  0  0  0
    1.9750   -0.1356    0.0000 C   0  0  0  0  0  0  0  0  0
    2.6894   -0.5481    0.0000 N   0  0  0  0  0  0  0  0  0
    3.4039   -0.1356    0.0000 C   0  0  0  0  0  0  0  0  0
    4.1184   -0.5481    0.0000 C   0  0  0  0  0  0  0  0  0
    4.1184   -1.3731    0.0000 N   0  0  0  0  0  0  0  0  0
    3.4039   -1.7856    0.0000 C   0  0  0  0  0  0  0  0  0
    2.6894   -1.3731    0.0000 C   0  0  0  0  0  0  0  0  0
    1.2605   -0.5481    0.0000 C   0  0  0  0  0  0  0  0  0
    0.5460   -0.1356    0.0000 C   0  0  0  0  0  0  0  0  0
    0.5460    0.6894    0.0000 C   0  0  0  0  0  0  0  0  0
  1  2  1  0  0  0  0
  2  3  4  0  0  0  0
  2 13  4  0  0  0  0
  3  4  4  0  0  0  0
  4  5  1  0  0  0  0
  4 11  4  0  0  0  0
  5  6  1  0  0  0  0
  5 10  1  0  0  0  0
  6  7  1  0  0  0  0
  7  8  1  0  0  0  0
  8  9  1  0  0  0  0
  9 10  1  0  0  0  0
 11 12  4  0  0  0  0
 12 13  4  0  0  0  0
M  END
>  <Name_Molregno>
CHLOROPHENYLPIPERAZINE

>  <5-HT1A>
6.88

>  <5-HT1B>
6.72

>  <5-HT1D>
6.23

>  <5-HT2A>
7.01

>  <5-HT2C>
7.55

>  <5-HT3>
6.37

>  <5-HT5>
5.87

>  <5-HT6>
5.7

>  <5-HT7>
6.79

>  <Alpha-1A>
5.86

>  <Alpha-1B>
6.04

>  <Alpha-2A>
6.84

>  <Alpha-2B>
6.98

>  <Alpha-2C>
6.91

>  <Beta-1>
5.63

>  <Beta-2>
5.46

>  <DOPAMINE D1>
5.15

>  <DOPAMINE D2>
5

>  <DOPAMINE D5>
5

>  <HISTAMINE H1>
6.49

>  <Norepinephrine transporter>
5.36

>  <Serotonin transporter>
6.13

$$$$
CHLORPROMAZINE
  Marvin  02231216192D 0   1.00000     0.00000     0

 21 23  0  0  0  0  0  0  0  0999 V2000
   -1.3730   -3.5598    0.0000 Cl  0  0  0  0  0  0  0  0  0
   -2.0875   -3.1473    0.0000 C   0  0  0  0  0  0  0  0  0
   -2.0875   -2.3223    0.0000 C   0  0  0  0  0  0  0  0  0
   -2.8019   -1.9098    0.0000 C   0  0  0  0  0  0  0  0  0
   -2.8019   -1.0848    0.0000 N   0  0  0  0  0  0  0  0  0
   -3.5164   -0.6723    0.0000 C   0  0  0  0  0  0  0  0  0
   -4.2309   -1.0848    0.0000 C   0  0  0  0  0  0  0  0  0
   -4.2309   -1.9098    0.0000 S   0  0  0  0  0  0  0  0  0
   -3.5164   -2.3223    0.0000 C   0  0  0  0  0  0  0  0  0
   -3.5164   -3.1473    0.0000 C   0  0  0  0  0  0  0  0  0
   -2.8019   -3.5598    0.0000 C   0  0  0  0  0  0  0  0  0
   -4.9453   -0.6723    0.0000 C   0  0  0  0  0  0  0  0  0
   -4.9453    0.1527    0.0000 C   0  0  0  0  0  0  0  0  0
   -4.2309    0.5652    0.0000 C   0  0  0  0  0  0  0  0  0
   -3.5164    0.1527    0.0000 C   0  0  0  0  0  0  0  0  0
   -2.0875   -0.6723    0.0000 C   0  0  0  0  0  0  0  0  0
   -1.3730   -1.0848    0.0000 C   0  0  0  0  0  0  0  0  0
   -0.6585   -0.6723    0.0000 C   0  0  0  0  0  0  0  0  0
    0.0560   -1.0848    0.0000 N   0  0  0  0  0  0  0  0  0
    0.7704   -0.6723    0.0000 C   0  0  0  0  0  0  0  0  0
    0.0560   -1.9098    0.0000 C   0  0  0  0  0  0  0  0  0
  1  2  1  0  0  0  0
  2  3  4  0  0  0  0
  2 11  4  0  0  0  0
  3  4  4  0  0  0  0
  4  5  1  0  0  0  0
  4  9  4  0  0  0  0
  5  6  1  0  0  0  0
  5 16  1  0  0  0  0
  6  7  4  0  0  0  0
  6 15  4  0  0  0  0
  7  8  1  0  0  0  0
  7 12  4  0  0  0  0
  8  9  1  0  0  0  0
  9 10  4  0  0  0  0
 10 11  4  0  0  0  0
 12 13  4  0  0  0  0
 13 14  4  0  0  0  0
 14 15  4  0  0  0  0
 16 17  1  0  0  0  0
 17 18  1  0  0  0  0
 18 19  1  0  0  0  0
 19 20  1  0  0  0  0
 19 21  1  0  0  0  0
M  END
>  <Name_Molregno>
CHLORPROMAZINE

>  <5-HT1A>
5.98

>  <5-HT1B>
5.83

>  <5-HT1D>
6.34

>  <5-HT1E>
6.46

>  <5-HT2A>
8.36

>  <5-HT2C>
7.74

>  <5-HT3>
6.01

>  <5-HT5>
6.93

>  <5-HT6>
7.59

>  <5-HT7>
7.54

>  <Alpha-1A>
9.55

>  <Alpha-1B>
9.09

>  <Alpha-2A>
6.71

>  <Alpha-2B>
7.81

>  <Alpha-2C>
7.36

>  <Beta-1>
5

>  <Beta-2>
5

>  <DOPAMINE D1>
7.1

>  <DOPAMINE D2>
8.51

>  <DOPAMINE D3>
8.58

>  <DOPAMINE D4>
8.03

>  <DOPAMINE D5>
6.82

>  <Dopamine transporter>
5

>  <HISTAMINE H1>
8.47

>  <HISTAMINE H2>
6.76

>  <HISTAMINE H3>
6

>  <HISTAMINE H4>
6.3

>  <Muscarinic acetylcholine receptor M1>
7.36

>  <Muscarinic acetylcholine receptor M2>
6.67

>  <Muscarinic acetylcholine receptor M3>
7.25

>  <Muscarinic acetylcholine receptor M4>
7.11

>  <Muscarinic acetylcholine receptor M5>
7.5

>  <Norepinephrine transporter>
5.61

>  <Serotonin transporter>
6.54

$$$$
CHLORPROTHIXENE
  Marvin  02231216192D 0   1.00000     0.00000     0

 21 23  0  0  0  0  0  0  0  0999 V2000
    5.5918   -1.4384    0.0000 Cl  0  0  0  0  0  0  0  0  0
    4.8773   -1.0259    0.0000 C   0  0  0  0  0  0  0  0  0
    4.1628   -1.4384    0.0000 C   0  0  0  0  0  0  0  0  0
    3.4484   -1.0259    0.0000 C   0  0  0  0  0  0  0  0  0
    3.4484   -0.2009    0.0000 C   0  0  0  0  0  0  0  0  0
    2.7339    0.2116    0.0000 S   0  0  0  0  0  0  0  0  0
    2.0194   -0.2009    0.0000 C   0  0  0  0  0  0  0  0  0
    2.0194   -1.0259    0.0000 C   0  0  0  0  0  0  0  0  0
    1.3049   -1.4384    0.0000 C   0  0  0  0  0  0  0  0  0
    0.5905   -1.0259    0.0000 C   0  0  0  0  0  0  0  0  0
    0.5905   -0.2009    0.0000 C   0  0  0  0  0  0  0  0  0
    1.3049    0.2116    0.0000 C   0  0  0  0  0  0  0  0  0
    2.7339   -1.4384    0.0000 C   0  0  0  0  0  0  0  0  0
    2.7339   -2.2634    0.0000 C   0  0  0  0  0  0  0  0  0
    2.0194   -2.6759    0.0000 C   0  0  0  0  0  0  0  0  0
    2.0194   -3.5009    0.0000 C   0  0  0  0  0  0  0  0  0
    1.3049   -3.9134    0.0000 N   0  0  0  0  0  0  0  0  0
    1.3049   -4.7384    0.0000 C   0  0  0  0  0  0  0  0  0
    0.5905   -3.5009    0.0000 C   0  0  0  0  0  0  0  0  0
    4.1628    0.2116    0.0000 C   0  0  0  0  0  0  0  0  0
    4.8773   -0.2009    0.0000 C   0  0  0  0  0  0  0  0  0
  1  2  1  0  0  0  0
  2  3  4  0  0  0  0
  2 21  4  0  0  0  0
  3  4  4  0  0  0  0
  4  5  4  0  0  0  0
  4 13  1  0  0  0  0
  5  6  1  0  0  0  0
  5 20  4  0  0  0  0
  6  7  1  0  0  0  0
  7  8  4  0  0  0  0
  7 12  4  0  0  0  0
  8  9  4  0  0  0  0
  8 13  1  0  0  0  0
  9 10  4  0  0  0  0
 10 11  4  0  0  0  0
 11 12  4  0  0  0  0
 13 14  2  0  0  0  0
 14 15  1  0  0  0  0
 15 16  1  0  0  0  0
 16 17  1  0  0  0  0
 17 18  1  0  0  0  0
 17 19  1  0  0  0  0
 20 21  4  0  0  0  0
M  END
>  <Name_Molregno>
CHLORPROTHIXENE

>  <5-HT2A>
9.37

>  <DOPAMINE D1>
7.74

>  <DOPAMINE D2>
8.37

>  <DOPAMINE D3>
8.34

>  <DOPAMINE D4>
9.19

>  <DOPAMINE D5>
8.05

>  <HISTAMINE H1>
8.43

>  <HISTAMINE H3>
6

>  <Muscarinic acetylcholine receptor M1>
7.96

>  <Muscarinic acetylcholine receptor M2>
7.55

>  <Muscarinic acetylcholine receptor M3>
7.66

>  <Muscarinic acetylcholine receptor M4>
7.74

>  <Muscarinic acetylcholine receptor M5>
7.6

$$$$
cis-Thiothixene
  Marvin  02231216192D 0   1.00000     0.00000     0

 30 33  0  0  0  0  0  0  0  0999 V2000
    1.0940   -3.6931    0.0000 S   0  0  0  0  0  0  0  0  0
    1.8085   -3.2806    0.0000 C   0  0  0  0  0  0  0  0  0
    1.8085   -2.4556    0.0000 C   0  0  0  0  0  0  0  0  0
    2.5230   -2.0431    0.0000 C   0  0  0  0  0  0  0  0  0
    3.2375   -2.4556    0.0000 C   0  0  0  0  0  0  0  0  0
    3.9519   -2.0431    0.0000 S   0  0  0  0  0  0  0  0  0
    3.5394   -1.3286    0.0000 O   0  0  0  0  0  0  0  0  0
    4.3644   -2.7575    0.0000 O   0  0  0  0  0  0  0  0  0
    4.6664   -1.6306    0.0000 N   0  0  0  0  0  0  0  0  0
    5.3809   -2.0431    0.0000 C   0  0  0  0  0  0  0  0  0
    4.6664   -0.8056    0.0000 C   0  0  0  0  0  0  0  0  0
    3.2375   -3.2806    0.0000 C   0  0  0  0  0  0  0  0  0
    2.5230   -3.6931    0.0000 C   0  0  0  0  0  0  0  0  0
    1.0940   -2.0431    0.0000 C   0  0  0  0  0  0  0  0  0
    0.3796   -2.4556    0.0000 C   0  0  0  0  0  0  0  0  0
    0.3796   -3.2806    0.0000 C   0  0  0  0  0  0  0  0  0
   -0.3349   -3.6931    0.0000 C   0  0  0  0  0  0  0  0  0
   -1.0494   -3.2806    0.0000 C   0  0  0  0  0  0  0  0  0
   -1.0494   -2.4556    0.0000 C   0  0  0  0  0  0  0  0  0
   -0.3349   -2.0431    0.0000 C   0  0  0  0  0  0  0  0  0
    1.0940   -1.2181    0.0000 C   0  0  0  0  0  0  0  0  0
    0.3796   -0.8056    0.0000 C   0  0  0  0  0  0  0  0  0
   -0.3349   -1.2181    0.0000 C   0  0  0  0  0  0  0  0  0
   -1.0494   -0.8056    0.0000 N   0  0  0  0  0  0  0  0  0
   -1.7638   -1.2181    0.0000 C   0  0  0  0  0  0  0  0  0
   -2.4783   -0.8056    0.0000 C   0  0  0  0  0  0  0  0  0
   -2.4783    0.0194    0.0000 N   0  0  0  0  0  0  0  0  0
   -1.7638    0.4319    0.0000 C   0  0  0  0  0  0  0  0  0
   -1.0494    0.0194    0.0000 C   0  0  0  0  0  0  0  0  0
   -3.1928    0.4319    0.0000 C   0  0  0  0  0  0  0  0  0
  1  2  1  0  0  0  0
  1 16  1  0  0  0  0
  2  3  4  0  0  0  0
  2 13  4  0  0  0  0
  3  4  4  0  0  0  0
  3 14  1  0  0  0  0
  4  5  4  0  0  0  0
  5  6  1  0  0  0  0
  5 12  4  0  0  0  0
  6  7  2  0  0  0  0
  6  8  2  0  0  0  0
  6  9  1  0  0  0  0
  9 10  1  0  0  0  0
  9 11  1  0  0  0  0
 12 13  4  0  0  0  0
 14 15  1  0  0  0  0
 14 21  2  0  0  0  0
 15 16  4  0  0  0  0
 15 20  4  0  0  0  0
 16 17  4  0  0  0  0
 17 18  4  0  0  0  0
 18 19  4  0  0  0  0
 19 20  4  0  0  0  0
 21 22  1  0  0  0  0
 22 23  1  0  0  0  0
 23 24  1  0  0  0  0
 24 25  1  0  0  0  0
 24 29  1  0  0  0  0
 25 26  1  0  0  0  0
 26 27  1  0  0  0  0
 27 28  1  0  0  0  0
 27 30  1  0  0  0  0
 28 29  1  0  0  0  0
M  END
>  <Name_Molregno>
cis-Thiothixene

>  <5-HT1A>
6.39

>  <5-HT1B>
6.82

>  <5-HT1D>
6.18

>  <5-HT1E>
5

>  <5-HT2A>
7.42

>  <5-HT2C>
5.87

>  <5-HT3>
5.73

>  <5-HT5>
6.44

>  <5-HT6>
6.62

>  <5-HT7>
7.82

>  <Alpha-1A>
7.94

>  <Alpha-1B>
7.46

>  <Alpha-2A>
7.1

>  <Alpha-2B>
7.3

>  <Alpha-2C>
7.28

>  <Beta-1>
5

>  <Beta-2>
5

>  <DOPAMINE D1>
7.29

>  <DOPAMINE D2>
9.56

>  <DOPAMINE D3>
9.41

>  <DOPAMINE D4>
6.86

>  <DOPAMINE D5>
6.58

>  <Dopamine transporter>
5

>  <HISTAMINE H1>
8.23

>  <HISTAMINE H2>
6.39

>  <HISTAMINE H4>
5

>  <Muscarinic acetylcholine receptor M1>
5.3

>  <Muscarinic acetylcholine receptor M2>
5.34

>  <Muscarinic acetylcholine receptor M3>
5.27

>  <Muscarinic acetylcholine receptor M4>
5.4

>  <Muscarinic acetylcholine receptor M5>
5.32

>  <Norepinephrine transporter>
5

>  <Serotonin transporter>
5.41

$$$$
CLOZAPINE
  Marvin  02231216192D 0   1.00000     0.00000     0

 23 26  0  0  0  0  0  0  0  0999 V2000
   -0.5622   -2.2603    0.0000 Cl  0  0  0  0  0  0  0  0  0
    0.2262   -2.5035    0.0000 C   0  0  0  0  0  0  0  0  0
    0.8309   -1.9424    0.0000 C   0  0  0  0  0  0  0  0  0
    1.6193   -2.1855    0.0000 C   0  0  0  0  0  0  0  0  0
    2.1337   -1.5405    0.0000 N   0  0  0  0  0  0  0  0  0
    2.9587   -1.5405    0.0000 C   0  0  0  0  0  0  0  0  0
    3.3166   -0.7972    0.0000 N   0  0  0  0  0  0  0  0  0
    2.8519   -0.1156    0.0000 C   0  0  0  0  0  0  0  0  0
    3.2098    0.6277    0.0000 C   0  0  0  0  0  0  0  0  0
    4.0325    0.6894    0.0000 N   0  0  0  0  0  0  0  0  0
    4.4973    0.0077    0.0000 C   0  0  0  0  0  0  0  0  0
    4.1393   -0.7356    0.0000 C   0  0  0  0  0  0  0  0  0
    4.3905    1.4327    0.0000 C   0  0  0  0  0  0  0  0  0
    3.4730   -2.1855    0.0000 C   0  0  0  0  0  0  0  0  0
    3.2895   -2.9898    0.0000 C   0  0  0  0  0  0  0  0  0
    2.5462   -3.3478    0.0000 N   0  0  0  0  0  0  0  0  0
    1.8029   -2.9898    0.0000 C   0  0  0  0  0  0  0  0  0
    1.1981   -3.5510    0.0000 C   0  0  0  0  0  0  0  0  0
    0.4098   -3.3078    0.0000 C   0  0  0  0  0  0  0  0  0
    3.8942   -3.5510    0.0000 C   0  0  0  0  0  0  0  0  0
    4.6826   -3.3078    0.0000 C   0  0  0  0  0  0  0  0  0
    4.8662   -2.5035    0.0000 C   0  0  0  0  0  0  0  0  0
    4.2614   -1.9424    0.0000 C   0  0  0  0  0  0  0  0  0
  1  2  1  0  0  0  0
  2  3  4  0  0  0  0
  2 19  4  0  0  0  0
  3  4  4  0  0  0  0
  4  5  1  0  0  0  0
  4 17  4  0  0  0  0
  5  6  1  0  0  0  0
  6  7  1  0  0  0  0
  6 14  2  0  0  0  0
  7  8  1  0  0  0  0
  7 12  1  0  0  0  0
  8  9  1  0  0  0  0
  9 10  1  0  0  0  0
 10 11  1  0  0  0  0
 10 13  1  0  0  0  0
 11 12  1  0  0  0  0
 14 15  1  0  0  0  0
 14 23  1  0  0  0  0
 15 16  2  0  0  0  0
 15 20  1  0  0  0  0
 16 17  1  0  0  0  0
 17 18  4  0  0  0  0
 18 19  4  0  0  0  0
 20 21  2  0  0  0  0
 21 22  1  0  0  0  0
 22 23  2  0  0  0  0
M  END
>  <Name_Molregno>
CLOZAPINE

>  <5-HT1A>
6.88

>  <5-HT1B>
6.33

>  <5-HT1D>
6.27

>  <5-HT1E>
6.19

>  <5-HT2A>
8.22

>  <5-HT2C>
8

>  <5-HT3>
6.62

>  <5-HT5>
5.41

>  <5-HT6>
7.9

>  <5-HT7>
8.05

>  <Alpha-1A>
8.8

>  <Alpha-1B>
8.15

>  <Alpha-2A>
7.15

>  <Alpha-2B>
7.61

>  <Alpha-2C>
7.88

>  <Beta-1>
5.15

>  <Beta-2>
5.39

>  <DOPAMINE D1>
6.69

>  <DOPAMINE D2>
6.9

>  <DOPAMINE D3>
6.62

>  <DOPAMINE D4>
7.62

>  <DOPAMINE D5>
6.62

>  <Dopamine transporter>
5

>  <HISTAMINE H1>
8.81

>  <HISTAMINE H2>
6.82

>  <HISTAMINE H3>
5.25

>  <HISTAMINE H4>
6.15

>  <Muscarinic acetylcholine receptor M1>
8.26

>  <Muscarinic acetylcholine receptor M2>
7.17

>  <Muscarinic acetylcholine receptor M3>
7.59

>  <Muscarinic acetylcholine receptor M4>
7.85

>  <Muscarinic acetylcholine receptor M5>
7.79

>  <Norepinephrine transporter>
5.5

>  <Serotonin transporter>
5.73

$$$$
CLOZAPINE-2
  Marvin  02231216192D 0   1.00000     0.00000     0

 23 26  0  0  0  0  0  0  0  0999 V2000
   -0.5622   -2.2603    0.0000 Cl  0  0  0  0  0  0  0  0  0
    0.2262   -2.5035    0.0000 C   0  0  0  0  0  0  0  0  0
    0.8309   -1.9424    0.0000 C   0  0  0  0  0  0  0  0  0
    1.6193   -2.1855    0.0000 C   0  0  0  0  0  0  0  0  0
    2.1337   -1.5405    0.0000 N   0  0  0  0  0  0  0  0  0
    2.9587   -1.5405    0.0000 C   0  0  0  0  0  0  0  0  0
    3.3166   -0.7972    0.0000 N   0  0  0  0  0  0  0  0  0
    2.8519   -0.1156    0.0000 C   0  0  0  0  0  0  0  0  0
    3.2098    0.6277    0.0000 C   0  0  0  0  0  0  0  0  0
    4.0325    0.6894    0.0000 N   0  0  0  0  0  0  0  0  0
    4.4973    0.0077    0.0000 C   0  0  0  0  0  0  0  0  0
    4.1393   -0.7356    0.0000 C   0  0  0  0  0  0  0  0  0
    4.3905    1.4327    0.0000 C   0  0  0  0  0  0  0  0  0
    3.4730   -2.1855    0.0000 C   0  0  0  0  0  0  0  0  0
    3.2895   -2.9898    0.0000 C   0  0  0  0  0  0  0  0  0
    2.5462   -3.3478    0.0000 N   0  0  0  0  0  0  0  0  0
    1.8029   -2.9898    0.0000 C   0  0  0  0  0  0  0  0  0
    1.1981   -3.5510    0.0000 C   0  0  0  0  0  0  0  0  0
    0.4098   -3.3078    0.0000 C   0  0  0  0  0  0  0  0  0
    3.8942   -3.5510    0.0000 C   0  0  0  0  0  0  0  0  0
    4.6826   -3.3078    0.0000 C   0  0  0  0  0  0  0  0  0
    4.8662   -2.5035    0.0000 C   0  0  0  0  0  0  0  0  0
    4.2614   -1.9424    0.0000 C   0  0  0  0  0  0  0  0  0
  1  2  1  0  0  0  0
  2  3  4  0  0  0  0
  2 19  4  0  0  0  0
  3  4  4  0  0  0  0
  4  5  1  0  0  0  0
  4 17  4  0  0  0  0
  5  6  2  0  0  0  0
  6  7  1  0  0  0  0
  6 14  1  0  0  0  0
  7  8  1  0  0  0  0
  7 12  1  0  0  0  0
  8  9  1  0  0  0  0
  9 10  1  0  0  0  0
 10 11  1  0  0  0  0
 10 13  1  0  0  0  0
 11 12  1  0  0  0  0
 14 15  4  0  0  0  0
 14 23  4  0  0  0  0
 15 16  1  0  0  0  0
 15 20  4  0  0  0  0
 16 17  1  0  0  0  0
 17 18  4  0  0  0  0
 18 19  4  0  0  0  0
 20 21  4  0  0  0  0
 21 22  4  0  0  0  0
 22 23  4  0  0  0  0
M  END
>  <Name_Molregno>
CLOZAPINE-2

>  <5-HT1A>
6.92

>  <5-HT2A>
8.15

>  <5-HT2C>
7.92

>  <5-HT3>
6.4

>  <5-HT5>
6

>  <5-HT6>
7.85

>  <5-HT7>
7.47

>  <Alpha-2A>
7.62

>  <Alpha-2C>
8.54

>  <DOPAMINE D1>
7

>  <DOPAMINE D2>
7.03

>  <DOPAMINE D3>
6.48

>  <DOPAMINE D4>
7.6

>  <DOPAMINE D5>
6.7

>  <HISTAMINE H1>
8.77

>  <HISTAMINE H3>
6.1

>  <HISTAMINE H4>
6.75

>  <Muscarinic acetylcholine receptor M1>
8.47

>  <Muscarinic acetylcholine receptor M4>
7.9

>  <Serotonin transporter>
5.41

$$$$
D-cystine
  Marvin  02231216192D 0   1.00000     0.00000     0

 14 13  0  0  1  0  0  0  0  0999 V2000
    0.5597    0.5534    0.0000 S   0  0  0  0  0  0  0  0  0
   -0.1548    0.1409    0.0000 S   0  0  0  0  0  0  0  0  0
   -0.8693    0.5534    0.0000 C   0  0  0  0  0  0  0  0  0
   -1.5838    0.1409    0.0000 C   0  0  0  0  0  0  0  0  0
   -1.5838   -0.6841    0.0000 N   0  0  0  0  0  0  0  0  0
   -2.2982    0.5534    0.0000 C   0  0  0  0  0  0  0  0  0
   -3.0127    0.1409    0.0000 O   0  0  0  0  0  0  0  0  0
   -2.2982    1.3784    0.0000 O   0  0  0  0  0  0  0  0  0
    1.2741    0.1409    0.0000 C   0  0  0  0  0  0  0  0  0
    1.9886    0.5534    0.0000 C   0  0  0  0  0  0  0  0  0
    1.9886    1.3784    0.0000 N   0  0  0  0  0  0  0  0  0
    2.7031    0.1409    0.0000 C   0  0  0  0  0  0  0  0  0
    3.4175    0.5534    0.0000 O   0  0  0  0  0  0  0  0  0
    2.7031   -0.6841    0.0000 O   0  0  0  0  0  0  0  0  0
  1  2  1  0  0  0  0
  1  9  1  0  0  0  0
  2  3  1  0  0  0  0
  3  4  1  0  0  0  0
  4  5  1  0  0  0  0
  4  6  1  0  0  0  0
  6  7  1  0  0  0  0
  6  8  2  0  0  0  0
  9 10  1  0  0  0  0
 10 11  1  0  0  0  0
 10 12  1  0  0  0  0
 12 13  1  0  0  0  0
 12 14  2  0  0  0  0
M  END
>  <Name_Molregno>
D-cystine

>  <5-HT1A>
5

>  <5-HT1B>
5

>  <5-HT1D>
5

>  <5-HT3>
5

>  <5-HT5>
5

>  <5-HT6>
5

>  <5-HT7>
5

>  <Alpha-1A>
5

>  <Alpha-1B>
5

>  <Alpha-2A>
5

>  <Alpha-2B>
5

>  <Alpha-2C>
5

>  <DOPAMINE D1>
5

>  <DOPAMINE D2>
5

>  <DOPAMINE D3>
5

>  <DOPAMINE D5>
5

>  <Dopamine transporter>
5

>  <HISTAMINE H1>
5

>  <HISTAMINE H2>
5

>  <HISTAMINE H4>
5

>  <Muscarinic acetylcholine receptor M1>
5

>  <Muscarinic acetylcholine receptor M2>
5

>  <Muscarinic acetylcholine receptor M3>
5

>  <Muscarinic acetylcholine receptor M4>
5

>  <Muscarinic acetylcholine receptor M5>
5

>  <Norepinephrine transporter>
5

>  <Serotonin transporter>
5

$$$$
d-Fenfluramine
  Marvin  02231216192D 0   1.00000     0.00000     0

 16 16  0  0  1  0  0  0  0  0999 V2000
   -5.1694    0.5172    0.0000 F   0  0  0  0  0  0  0  0  0
   -4.4549    0.1047    0.0000 C   0  0  0  0  0  0  0  0  0
   -4.8674   -0.6097    0.0000 F   0  0  0  0  0  0  0  0  0
   -4.0424    0.8192    0.0000 F   0  0  0  0  0  0  0  0  0
   -3.7405   -0.3078    0.0000 C   0  0  0  0  0  0  0  0  0
   -3.0260    0.1047    0.0000 C   0  0  0  0  0  0  0  0  0
   -2.3115   -0.3078    0.0000 C   0  0  0  0  0  0  0  0  0
   -2.3115   -1.1328    0.0000 C   0  0  0  0  0  0  0  0  0
   -3.0260   -1.5453    0.0000 C   0  0  0  0  0  0  0  0  0
   -3.7405   -1.1328    0.0000 C   0  0  0  0  0  0  0  0  0
   -1.5971    0.1047    0.0000 C   0  0  0  0  0  0  0  0  0
   -0.8826   -0.3078    0.0000 C   0  0  0  0  0  0  0  0  0
   -0.1681    0.1047    0.0000 N   0  0  0  0  0  0  0  0  0
    0.5464   -0.3078    0.0000 C   0  0  0  0  0  0  0  0  0
    1.2608    0.1047    0.0000 C   0  0  0  0  0  0  0  0  0
   -0.8826   -1.1328    0.0000 C   0  0  0  0  0  0  0  0  0
  1  2  1  0  0  0  0
  2  3  1  0  0  0  0
  2  4  1  0  0  0  0
  2  5  1  0  0  0  0
  5  6  4  0  0  0  0
  5 10  4  0  0  0  0
  6  7  4  0  0  0  0
  7  8  4  0  0  0  0
  7 11  1  0  0  0  0
  8  9  4  0  0  0  0
  9 10  4  0  0  0  0
 11 12  1  0  0  0  0
 12 13  1  0  0  0  0
 12 16  1  0  0  0  0
 13 14  1  0  0  0  0
 14 15  1  0  0  0  0
M  END
>  <Name_Molregno>
d-Fenfluramine

>  <5-HT1A>
6.11

>  <5-HT1B>
5.67

>  <5-HT1D>
5.79

>  <5-HT1E>
5

>  <5-HT2A>
5.92

>  <5-HT2C>
6.27

>  <5-HT3>
5

>  <5-HT5>
5

>  <5-HT6>
5.01

>  <5-HT7>
5.17

>  <Alpha-1A>
5.52

>  <Alpha-1B>
5.62

>  <Alpha-2A>
6.26

>  <Alpha-2B>
6.65

>  <Alpha-2C>
6.68

>  <Beta-1>
5.67

>  <Beta-2>
5.07

>  <DOPAMINE D1>
5

>  <DOPAMINE D2>
5

>  <DOPAMINE D4>
5

>  <DOPAMINE D5>
5

>  <Dopamine transporter>
5

>  <HISTAMINE H1>
5

>  <HISTAMINE H2>
5

>  <Muscarinic acetylcholine receptor M1>
5.61

>  <Muscarinic acetylcholine receptor M2>
5.39

>  <Muscarinic acetylcholine receptor M3>
5.22

>  <Muscarinic acetylcholine receptor M4>
5.1

>  <Muscarinic acetylcholine receptor M5>
5

>  <Norepinephrine transporter>
5

>  <Serotonin transporter>
6.18

$$$$
Diclofenac
  Marvin  02231216192D 0   1.00000     0.00000     0

 19 20  0  0  0  0  0  0  0  0999 V2000
    1.8639   -0.1839    0.0000 Cl  0  0  0  0  0  0  0  0  0
    1.8639   -1.0089    0.0000 C   0  0  0  0  0  0  0  0  0
    2.5784   -1.4214    0.0000 C   0  0  0  0  0  0  0  0  0
    2.5784   -2.2464    0.0000 C   0  0  0  0  0  0  0  0  0
    1.8639   -2.6589    0.0000 C   0  0  0  0  0  0  0  0  0
    1.1494   -2.2464    0.0000 C   0  0  0  0  0  0  0  0  0
    0.4350   -2.6589    0.0000 Cl  0  0  0  0  0  0  0  0  0
    1.1494   -1.4214    0.0000 C   0  0  0  0  0  0  0  0  0
    0.4350   -1.0089    0.0000 N   0  0  0  0  0  0  0  0  0
   -0.2795   -1.4214    0.0000 C   0  0  0  0  0  0  0  0  0
   -0.2795   -2.2464    0.0000 C   0  0  0  0  0  0  0  0  0
   -0.9940   -2.6589    0.0000 C   0  0  0  0  0  0  0  0  0
   -1.7085   -2.2464    0.0000 C   0  0  0  0  0  0  0  0  0
   -1.7085   -1.4214    0.0000 C   0  0  0  0  0  0  0  0  0
   -0.9940   -1.0089    0.0000 C   0  0  0  0  0  0  0  0  0
   -0.9940   -0.1839    0.0000 C   0  0  0  0  0  0  0  0  0
   -0.2795    0.2286    0.0000 C   0  0  0  0  0  0  0  0  0
   -0.2795    1.0536    0.0000 O   0  0  0  0  0  0  0  0  0
    0.4350   -0.1839    0.0000 O   0  0  0  0  0  0  0  0  0
  1  2  1  0  0  0  0
  2  3  4  0  0  0  0
  2  8  4  0  0  0  0
  3  4  4  0  0  0  0
  4  5  4  0  0  0  0
  5  6  4  0  0  0  0
  6  7  1  0  0  0  0
  6  8  4  0  0  0  0
  8  9  1  0  0  0  0
  9 10  1  0  0  0  0
 10 11  4  0  0  0  0
 10 15  4  0  0  0  0
 11 12  4  0  0  0  0
 12 13  4  0  0  0  0
 13 14  4  0  0  0  0
 14 15  4  0  0  0  0
 15 16  1  0  0  0  0
 16 17  1  0  0  0  0
 17 18  1  0  0  0  0
 17 19  2  0  0  0  0
M  END
>  <Name_Molregno>
Diclofenac

>  <5-HT1A>
5

>  <5-HT1B>
5

>  <5-HT1D>
5

>  <5-HT1E>
5

>  <5-HT2A>
5

>  <5-HT3>
5

>  <5-HT5>
5

>  <5-HT6>
5

>  <5-HT7>
5

>  <Alpha-1A>
5

>  <Alpha-1B>
5

>  <Alpha-2A>
5

>  <Alpha-2B>
5

>  <Alpha-2C>
5

>  <DOPAMINE D1>
5

>  <DOPAMINE D2>
5

>  <DOPAMINE D4>
5

>  <DOPAMINE D5>
5

>  <HISTAMINE H1>
5

>  <HISTAMINE H2>
5

>  <Muscarinic acetylcholine receptor M2>
5

>  <Muscarinic acetylcholine receptor M5>
5

$$$$
DL-homocysteic-acid
  Marvin  02231216192D 0   1.00000     0.00000     0

 11 10  0  0  1  0  0  0  0  0999 V2000
   -2.6928   -0.0066    0.0000 S   0  0  0  0  0  0  0  0  0
   -3.4073   -0.4191    0.0000 O   0  0  0  0  0  0  0  0  0
   -2.2803   -0.7210    0.0000 O   0  0  0  0  0  0  0  0  0
   -3.1053    0.7079    0.0000 O   0  0  0  0  0  0  0  0  0
   -1.9783    0.4059    0.0000 C   0  0  0  0  0  0  0  0  0
   -1.2639   -0.0066    0.0000 C   0  0  0  0  0  0  0  0  0
   -0.5494    0.4059    0.0000 C   0  0  0  0  0  0  0  0  0
   -0.5494    1.2309    0.0000 N   0  0  0  0  0  0  0  0  0
    0.1651   -0.0066    0.0000 C   0  0  0  0  0  0  0  0  0
    0.8795    0.4059    0.0000 O   0  0  0  0  0  0  0  0  0
    0.1651   -0.8316    0.0000 O   0  0  0  0  0  0  0  0  0
  1  2  2  0  0  0  0
  1  3  2  0  0  0  0
  1  4  1  0  0  0  0
  1  5  1  0  0  0  0
  5  6  1  0  0  0  0
  6  7  1  0  0  0  0
  7  8  1  0  0  0  0
  7  9  1  0  0  0  0
  9 10  1  0  0  0  0
  9 11  2  0  0  0  0
M  END
>  <Name_Molregno>
DL-homocysteic-acid

>  <5-HT1A>
5

>  <5-HT1B>
5

>  <5-HT1D>
5

>  <5-HT3>
5

>  <5-HT5>
5

>  <5-HT6>
5

>  <5-HT7>
5

>  <Alpha-1A>
5

>  <Alpha-1B>
5

>  <Alpha-2A>
5

>  <Alpha-2B>
5

>  <Alpha-2C>
5

>  <DOPAMINE D1>
5

>  <DOPAMINE D2>
5

>  <DOPAMINE D3>
5

>  <DOPAMINE D5>
5

>  <Dopamine transporter>
5

>  <Muscarinic acetylcholine receptor M1>
5

>  <Muscarinic acetylcholine receptor M2>
5

>  <Muscarinic acetylcholine receptor M3>
5

>  <Muscarinic acetylcholine receptor M4>
5

>  <Muscarinic acetylcholine receptor M5>
5

>  <Norepinephrine transporter>
5

>  <Serotonin transporter>
5

$$$$
DL-homocysteine
  Marvin  02231216192D 0   1.00000     0.00000     0

  8  7  0  0  1  0  0  0  0  0999 V2000
   -0.0519    0.0021    0.0000 S   0  0  0  0  0  0  0  0  0
    0.6626    0.4146    0.0000 C   0  0  0  0  0  0  0  0  0
    1.3770    0.0021    0.0000 C   0  0  0  0  0  0  0  0  0
    2.0915    0.4146    0.0000 C   0  0  0  0  0  0  0  0  0
    2.0915    1.2396    0.0000 N   0  0  0  0  0  0  0  0  0
    2.8060    0.0021    0.0000 C   0  0  0  0  0  0  0  0  0
    3.5205    0.4146    0.0000 O   0  0  0  0  0  0  0  0  0
    2.8060   -0.8229    0.0000 O   0  0  0  0  0  0  0  0  0
  1  2  1  0  0  0  0
  2  3  1  0  0  0  0
  3  4  1  0  0  0  0
  4  5  1  0  0  0  0
  4  6  1  0  0  0  0
  6  7  1  0  0  0  0
  6  8  2  0  0  0  0
M  END
>  <Name_Molregno>
DL-homocysteine

>  <5-HT1A>
5

>  <5-HT1B>
5

>  <5-HT1D>
5

>  <5-HT3>
5

>  <5-HT5>
5

>  <5-HT6>
5

>  <5-HT7>
5

>  <Alpha-1A>
5

>  <Alpha-1B>
5

>  <Alpha-2A>
5

>  <Alpha-2B>
5

>  <Alpha-2C>
5

>  <DOPAMINE D1>
5

>  <DOPAMINE D2>
5

>  <DOPAMINE D3>
5

>  <DOPAMINE D5>
5

>  <Dopamine transporter>
5

>  <HISTAMINE H1>
5

>  <HISTAMINE H2>
5

>  <HISTAMINE H4>
5

>  <Muscarinic acetylcholine receptor M1>
5

>  <Muscarinic acetylcholine receptor M2>
5

>  <Muscarinic acetylcholine receptor M3>
5

>  <Muscarinic acetylcholine receptor M4>
5

>  <Muscarinic acetylcholine receptor M5>
5

>  <Norepinephrine transporter>
5

>  <Serotonin transporter>
5

$$$$
D-methionine
  Marvin  02231216192D 0   1.00000     0.00000     0

  9  8  0  0  1  0  0  0  0  0999 V2000
   -0.3763    1.2394    0.0000 S   0  0  0  0  0  0  0  0  0
    0.3381    0.8269    0.0000 C   0  0  0  0  0  0  0  0  0
    1.0526    1.2394    0.0000 C   0  0  0  0  0  0  0  0  0
    1.7671    0.8269    0.0000 C   0  0  0  0  0  0  0  0  0
    1.7671    0.0019    0.0000 N   0  0  0  0  0  0  0  0  0
    2.4816    1.2394    0.0000 C   0  0  0  0  0  0  0  0  0
    3.1960    0.8269    0.0000 O   0  0  0  0  0  0  0  0  0
    2.4816    2.0644    0.0000 O   0  0  0  0  0  0  0  0  0
   -1.0908    0.8269    0.0000 C   0  0  0  0  0  0  0  0  0
  1  2  1  0  0  0  0
  1  9  1  0  0  0  0
  2  3  1  0  0  0  0
  3  4  1  0  0  0  0
  4  5  1  0  0  0  0
  4  6  1  0  0  0  0
  6  7  1  0  0  0  0
  6  8  2  0  0  0  0
M  END
>  <Name_Molregno>
D-methionine

>  <5-HT1A>
5

>  <5-HT1B>
5

>  <5-HT1D>
5

>  <5-HT3>
5

>  <5-HT5>
5

>  <5-HT6>
5

>  <5-HT7>
5

>  <Alpha-1A>
5

>  <Alpha-1B>
5

>  <Alpha-2A>
5

>  <Alpha-2B>
5

>  <Alpha-2C>
5

>  <DOPAMINE D1>
5

>  <DOPAMINE D2>
5

>  <DOPAMINE D3>
5

>  <DOPAMINE D5>
5

>  <Dopamine transporter>
5

>  <HISTAMINE H1>
5

>  <HISTAMINE H2>
5

>  <HISTAMINE H4>
5

>  <Muscarinic acetylcholine receptor M1>
5

>  <Muscarinic acetylcholine receptor M2>
5

>  <Muscarinic acetylcholine receptor M3>
5

>  <Muscarinic acetylcholine receptor M4>
5

>  <Muscarinic acetylcholine receptor M5>
5

>  <Norepinephrine transporter>
5

>  <Serotonin transporter>
5

$$$$
DOPAMINE
  Marvin  02231216192D 0   1.00000     0.00000     0

 11 11  0  0  0  0  0  0  0  0999 V2000
    3.1358    1.8244    0.0000 O   0  0  0  0  0  0  0  0  0
    2.4213    1.4119    0.0000 C   0  0  0  0  0  0  0  0  0
    2.4213    0.5869    0.0000 C   0  0  0  0  0  0  0  0  0
    1.7068    0.1744    0.0000 C   0  0  0  0  0  0  0  0  0
    0.9924    0.5869    0.0000 C   0  0  0  0  0  0  0  0  0
    0.9924    1.4119    0.0000 C   0  0  0  0  0  0  0  0  0
    1.7068    1.8244    0.0000 C   0  0  0  0  0  0  0  0  0
    1.7068    2.6494    0.0000 O   0  0  0  0  0  0  0  0  0
    1.7068   -0.6506    0.0000 C   0  0  0  0  0  0  0  0  0
    0.9924   -1.0631    0.0000 C   0  0  0  0  0  0  0  0  0
    0.9924   -1.8881    0.0000 N   0  0  0  0  0  0  0  0  0
  1  2  1  0  0  0  0
  2  3  4  0  0  0  0
  2  7  4  0  0  0  0
  3  4  4  0  0  0  0
  4  5  4  0  0  0  0
  4  9  1  0  0  0  0
  5  6  4  0  0  0  0
  6  7  4  0  0  0  0
  7  8  1  0  0  0  0
  9 10  1  0  0  0  0
 10 11  1  0  0  0  0
M  END
>  <Name_Molregno>
DOPAMINE

>  <5-HT1A>
5.08

>  <5-HT2A>
5

>  <5-HT3>
5

>  <5-HT7>
5

>  <DOPAMINE D1>
5.72

>  <DOPAMINE D2>
6.7

>  <DOPAMINE D3>
7.41

>  <DOPAMINE D4>
7.64

>  <DOPAMINE D5>
6.64

>  <Dopamine transporter>
5.79

>  <Norepinephrine transporter>
6.49

$$$$
Ephedrine
  Marvin  02231216192D 0   1.00000     0.00000     0

 12 12  0  0  1  0  0  0  0  0999 V2000
    1.9192   -0.0549    0.0000 O   0  0  0  0  0  0  0  0  0
    1.2047   -0.4674    0.0000 C   0  0  0  0  0  0  0  0  0
    0.4903   -0.0549    0.0000 C   0  0  0  0  0  0  0  0  0
    0.4903    0.7701    0.0000 N   0  0  0  0  0  0  0  0  0
   -0.2242    1.1826    0.0000 C   0  0  0  0  0  0  0  0  0
   -0.2242   -0.4674    0.0000 C   0  0  0  0  0  0  0  0  0
    1.2047   -1.2924    0.0000 C   0  0  0  0  0  0  0  0  0
    1.9192   -1.7049    0.0000 C   0  0  0  0  0  0  0  0  0
    1.9192   -2.5299    0.0000 C   0  0  0  0  0  0  0  0  0
    1.2047   -2.9424    0.0000 C   0  0  0  0  0  0  0  0  0
    0.4903   -2.5299    0.0000 C   0  0  0  0  0  0  0  0  0
    0.4903   -1.7049    0.0000 C   0  0  0  0  0  0  0  0  0
  1  2  1  0  0  0  0
  2  3  1  0  0  0  0
  2  7  1  0  0  0  0
  3  4  1  0  0  0  0
  3  6  1  0  0  0  0
  4  5  1  0  0  0  0
  7  8  4  0  0  0  0
  7 12  4  0  0  0  0
  8  9  4  0  0  0  0
  9 10  4  0  0  0  0
 10 11  4  0  0  0  0
 11 12  4  0  0  0  0
M  END
>  <Name_Molregno>
Ephedrine

>  <5-HT1A>
5

>  <5-HT1B>
5

>  <5-HT1D>
5

>  <5-HT1E>
5

>  <5-HT3>
5

>  <5-HT5>
5

>  <5-HT6>
5

>  <5-HT7>
5.33

>  <Alpha-1A>
5

>  <Alpha-1B>
5

>  <Alpha-2A>
5.17

>  <Alpha-2B>
5.48

>  <Alpha-2C>
5.51

>  <Beta-1>
5

>  <Beta-2>
5

>  <DOPAMINE D1>
5

>  <DOPAMINE D2>
5

>  <DOPAMINE D4>
5

>  <DOPAMINE D5>
5

>  <Dopamine transporter>
5.38

>  <HISTAMINE H1>
5

>  <HISTAMINE H2>
5

>  <HISTAMINE H4>
5

>  <Muscarinic acetylcholine receptor M1>
5

>  <Muscarinic acetylcholine receptor M2>
5

>  <Muscarinic acetylcholine receptor M3>
5

>  <Muscarinic acetylcholine receptor M4>
5

>  <Muscarinic acetylcholine receptor M5>
5

>  <Norepinephrine transporter>
5.79

>  <Serotonin transporter>
5

$$$$
Ergocryptine-beta
  Marvin  02231216192D 0   1.00000     0.00000     0

 42 48  0  0  1  0  0  0  0  0999 V2000
   -1.1984   -0.6977    0.0000 O   0  0  0  0  0  0  0  0  0
   -2.0190   -0.7829    0.0000 C   0  0  0  0  0  0  0  0  0
   -2.0180    0.0421    0.0000 N   0  0  0  0  0  0  0  0  0
   -1.3030    0.4537    0.0000 C   0  0  0  0  0  0  0  0  0
   -0.5891    0.0404    0.0000 O   0  0  0  0  0  0  0  0  0
   -1.3020    1.2787    0.0000 C   0  0  0  0  0  0  0  0  0
   -0.5871    1.6904    0.0000 C   0  0  0  0  0  0  0  0  0
   -0.5861    2.5154    0.0000 C   0  0  0  0  0  0  0  0  0
   -1.3001    2.9287    0.0000 C   0  0  0  0  0  0  0  0  0
   -2.0150    2.5171    0.0000 N   0  0  0  0  0  0  0  0  0
   -2.0160    1.6921    0.0000 C   0  0  0  0  0  0  0  0  0
   -2.7290    2.9304    0.0000 C   0  0  0  0  0  0  0  0  0
   -1.2986    3.7529    0.0000 C   0  0  0  0  0  0  0  0  0
   -0.5861    4.1654    0.0000 C   0  0  0  0  0  0  0  0  0
    0.1264    3.7529    0.0000 C   0  0  0  0  0  0  0  0  0
    0.1264    2.9279    0.0000 C   0  0  0  0  0  0  0  0  0
    0.8443    2.5154    0.0000 C   0  0  0  0  0  0  0  0  0
    1.5568    2.9279    0.0000 C   0  0  0  0  0  0  0  0  0
    1.5568    3.7529    0.0000 C   0  0  0  0  0  0  0  0  0
    0.8443    4.1654    0.0000 C   0  0  0  0  0  0  0  0  0
    0.5389    5.0225    0.0000 N   0  0  0  0  0  0  0  0  0
   -0.2861    5.0225    0.0000 C   0  0  0  0  0  0  0  0  0
   -2.8394   -0.6957    0.0000 C   0  0  0  0  0  0  0  0  0
   -3.1740    0.0584    0.0000 C   0  0  0  0  0  0  0  0  0
   -3.3251   -1.3626    0.0000 C   0  0  0  0  0  0  0  0  0
   -2.1915   -1.5897    0.0000 C   0  0  0  0  0  0  0  0  0
   -2.9456   -1.9244    0.0000 O   0  0  0  0  0  0  0  0  0
   -1.4775   -2.0031    0.0000 N   0  0  0  0  0  0  0  0  0
   -1.3069   -2.8102    0.0000 C   0  0  0  0  0  0  0  0  0
   -1.9207   -3.3615    0.0000 C   0  0  0  0  0  0  0  0  0
   -2.7050   -3.1056    0.0000 C   0  0  0  0  0  0  0  0  0
   -2.8756   -2.2985    0.0000 C   0  0  0  0  0  0  0  0  0
   -1.7501   -4.1687    0.0000 C   0  0  0  0  0  0  0  0  0
   -0.5226   -3.0661    0.0000 C   0  0  0  0  0  0  0  0  0
   -0.3521   -3.8733    0.0000 O   0  0  0  0  0  0  0  0  0
    0.0911   -2.5148    0.0000 N   0  0  0  0  0  0  0  0  0
   -0.0794   -1.7076    0.0000 C   0  0  0  0  0  0  0  0  0
    0.6355   -1.2960    0.0000 C   0  0  0  0  0  0  0  0  0
    1.2480   -1.8488    0.0000 C   0  0  0  0  0  0  0  0  0
    0.9115   -2.6020    0.0000 C   0  0  0  0  0  0  0  0  0
   -0.8637   -1.4518    0.0000 C   0  0  0  0  0  0  0  0  0
   -0.3110   -0.8393    0.0000 O   0  0  0  0  0  0  0  0  0
  1  2  1  0  0  0  0
  1 41  1  0  0  0  0
  2  3  1  0  0  0  0
  2 23  1  0  0  0  0
  2 26  1  0  0  0  0
  3  4  1  0  0  0  0
  4  5  2  0  0  0  0
  4  6  1  0  0  0  0
  6  7  1  0  0  0  0
  6 11  1  0  0  0  0
  7  8  2  0  0  0  0
  8  9  1  0  0  0  0
  8 16  1  0  0  0  0
  9 10  1  0  0  0  0
  9 13  1  0  0  0  0
 10 11  1  0  0  0  0
 10 12  1  0  0  0  0
 13 14  1  0  0  0  0
 14 15  4  0  0  0  0
 14 22  4  0  0  0  0
 15 16  4  0  0  0  0
 15 20  4  0  0  0  0
 16 17  4  0  0  0  0
 17 18  4  0  0  0  0
 18 19  4  0  0  0  0
 19 20  4  0  0  0  0
 20 21  4  0  0  0  0
 21 22  4  0  0  0  0
 23 24  1  0  0  0  0
 23 25  1  0  0  0  0
 26 27  2  0  0  0  0
 26 28  1  0  0  0  0
 28 29  1  0  0  0  0
 28 41  1  0  0  0  0
 29 30  1  0  0  0  0
 29 34  1  0  0  0  0
 30 31  1  0  0  0  0
 30 33  1  0  0  0  0
 31 32  1  0  0  0  0
 34 35  2  0  0  0  0
 34 36  1  0  0  0  0
 36 37  1  0  0  0  0
 36 40  1  0  0  0  0
 37 38  1  0  0  0  0
 37 41  1  0  0  0  0
 38 39  1  0  0  0  0
 39 40  1  0  0  0  0
 41 42  1  0  0  0  0
M  STY  1   1 DAT
M  SAL   1  1  21
M  SDT   1 MRV_IMPLICIT_H                                        
M  SDD   1     0.0000    0.0000    DR    ALL  0       0  
M  SED   1 IMPL_H1
M  END
>  <Name_Molregno>
Ergocryptine-beta

>  <DOPAMINE D5>
6.95

$$$$
ERGOTAMINE
  Marvin  02231216192D 0   1.00000     0.00000     0

 43 50  0  0  1  0  0  0  0  0999 V2000
   -2.1239   -1.0172    0.0000 O   0  0  0  0  0  0  0  0  0
   -1.3035   -1.1045    0.0000 C   0  0  0  0  0  0  0  0  0
   -1.3025   -0.2795    0.0000 N   0  0  0  0  0  0  0  0  0
   -0.5876    0.1322    0.0000 C   0  0  0  0  0  0  0  0  0
    0.1264   -0.2812    0.0000 O   0  0  0  0  0  0  0  0  0
   -0.5866    0.9572    0.0000 C   0  0  0  0  0  0  0  0  0
    0.1284    1.3688    0.0000 C   0  0  0  0  0  0  0  0  0
    0.1294    2.1938    0.0000 C   0  0  0  0  0  0  0  0  0
   -0.5846    2.6072    0.0000 C   0  0  0  0  0  0  0  0  0
   -1.2996    2.1955    0.0000 N   0  0  0  0  0  0  0  0  0
   -1.3006    1.3705    0.0000 C   0  0  0  0  0  0  0  0  0
   -2.0136    2.6089    0.0000 C   0  0  0  0  0  0  0  0  0
   -0.5831    3.4313    0.0000 C   0  0  0  0  0  0  0  0  0
    0.1294    3.8438    0.0000 C   0  0  0  0  0  0  0  0  0
    0.8419    3.4313    0.0000 C   0  0  0  0  0  0  0  0  0
    0.8419    2.6063    0.0000 C   0  0  0  0  0  0  0  0  0
    1.5597    2.1938    0.0000 C   0  0  0  0  0  0  0  0  0
    2.2722    2.6063    0.0000 C   0  0  0  0  0  0  0  0  0
    2.2722    3.4313    0.0000 C   0  0  0  0  0  0  0  0  0
    1.5597    3.8438    0.0000 C   0  0  0  0  0  0  0  0  0
    1.2544    4.7010    0.0000 N   0  0  0  0  0  0  0  0  0
    0.4294    4.7010    0.0000 C   0  0  0  0  0  0  0  0  0
   -0.4830   -1.0192    0.0000 C   0  0  0  0  0  0  0  0  0
   -1.1330   -1.9116    0.0000 C   0  0  0  0  0  0  0  0  0
   -0.3797   -2.2481    0.0000 O   0  0  0  0  0  0  0  0  0
   -1.8479   -2.3233    0.0000 N   0  0  0  0  0  0  0  0  0
   -2.0204   -3.1301    0.0000 C   0  0  0  0  0  0  0  0  0
   -1.4080   -3.6828    0.0000 C   0  0  0  0  0  0  0  0  0
   -1.5805   -4.4896    0.0000 C   0  0  0  0  0  0  0  0  0
   -0.9681   -5.0424    0.0000 C   0  0  0  0  0  0  0  0  0
   -1.1406   -5.8491    0.0000 C   0  0  0  0  0  0  0  0  0
   -1.9255   -6.1031    0.0000 C   0  0  0  0  0  0  0  0  0
   -2.5379   -5.5504    0.0000 C   0  0  0  0  0  0  0  0  0
   -2.3654   -4.7436    0.0000 C   0  0  0  0  0  0  0  0  0
   -2.8054   -3.3841    0.0000 C   0  0  0  0  0  0  0  0  0
   -2.9779   -4.1908    0.0000 O   0  0  0  0  0  0  0  0  0
   -3.4178   -2.8313    0.0000 N   0  0  0  0  0  0  0  0  0
   -3.2453   -2.0245    0.0000 C   0  0  0  0  0  0  0  0  0
   -3.9593   -1.6112    0.0000 C   0  0  0  0  0  0  0  0  0
   -4.5730   -2.1625    0.0000 C   0  0  0  0  0  0  0  0  0
   -4.2384   -2.9165    0.0000 C   0  0  0  0  0  0  0  0  0
   -2.4604   -1.7705    0.0000 C   0  0  0  0  0  0  0  0  0
   -3.0117   -1.1568    0.0000 O   0  0  0  0  0  0  0  0  0
  1  2  1  0  0  0  0
  1 42  1  0  0  0  0
  2  3  1  0  0  0  0
  2 23  1  0  0  0  0
  2 24  1  0  0  0  0
  3  4  1  0  0  0  0
  4  5  2  0  0  0  0
  4  6  1  0  0  0  0
  6  7  1  0  0  0  0
  6 11  1  0  0  0  0
  7  8  2  0  0  0  0
  8  9  1  0  0  0  0
  8 16  1  0  0  0  0
  9 10  1  0  0  0  0
  9 13  1  0  0  0  0
 10 11  1  0  0  0  0
 10 12  1  0  0  0  0
 13 14  1  0  0  0  0
 14 15  4  0  0  0  0
 14 22  4  0  0  0  0
 15 16  4  0  0  0  0
 15 20  4  0  0  0  0
 16 17  4  0  0  0  0
 17 18  4  0  0  0  0
 18 19  4  0  0  0  0
 19 20  4  0  0  0  0
 20 21  4  0  0  0  0
 21 22  4  0  0  0  0
 24 25  2  0  0  0  0
 24 26  1  0  0  0  0
 26 27  1  0  0  0  0
 26 42  1  0  0  0  0
 27 28  1  0  0  0  0
 27 35  1  0  0  0  0
 28 29  1  0  0  0  0
 29 30  4  0  0  0  0
 29 34  4  0  0  0  0
 30 31  4  0  0  0  0
 31 32  4  0  0  0  0
 32 33  4  0  0  0  0
 33 34  4  0  0  0  0
 35 36  2  0  0  0  0
 35 37  1  0  0  0  0
 37 38  1  0  0  0  0
 37 41  1  0  0  0  0
 38 39  1  0  0  0  0
 38 42  1  0  0  0  0
 39 40  1  0  0  0  0
 40 41  1  0  0  0  0
 42 43  1  0  0  0  0
M  STY  1   1 DAT
M  SAL   1  1  21
M  SDT   1 MRV_IMPLICIT_H                                        
M  SDD   1     0.0000    0.0000    DR    ALL  0       0  
M  SED   1 IMPL_H1
M  END
>  <Name_Molregno>
ERGOTAMINE

>  <5-HT1A>
9.77

>  <5-HT1B>
8.33

>  <5-HT1D>
9

>  <5-HT1E>
6.58

>  <5-HT2A>
9.1

>  <5-HT2C>
8.37

>  <5-HT3>
5

>  <5-HT6>
7.92

>  <5-HT7>
5.89

>  <Alpha-1A>
5

>  <Alpha-1B>
5

>  <Alpha-2A>
6.97

>  <Alpha-2B>
7.05

>  <Alpha-2C>
5

>  <Beta-1>
5

>  <Beta-2>
5

>  <DOPAMINE D1>
5

>  <DOPAMINE D2>
5

>  <DOPAMINE D4>
5

>  <DOPAMINE D5>
6.77

>  <Dopamine transporter>
5

>  <HISTAMINE H1>
5

>  <HISTAMINE H2>
5

>  <Muscarinic acetylcholine receptor M1>
6.06

>  <Muscarinic acetylcholine receptor M2>
6.04

>  <Muscarinic acetylcholine receptor M3>
5

>  <Muscarinic acetylcholine receptor M4>
5

>  <Muscarinic acetylcholine receptor M5>
5

>  <Norepinephrine transporter>
5

>  <Serotonin transporter>
5

$$$$
ETICLOPRIDE
  Marvin  02231216192D 0   1.00000     0.00000     0

 23 24  0  0  1  0  0  0  0  0999 V2000
    0.4207   -0.0120    0.0000 Cl  0  0  0  0  0  0  0  0  0
    1.1351    0.4005    0.0000 C   0  0  0  0  0  0  0  0  0
    1.1351    1.2255    0.0000 C   0  0  0  0  0  0  0  0  0
    1.8496    1.6380    0.0000 C   0  0  0  0  0  0  0  0  0
    1.8496    2.4630    0.0000 C   0  0  0  0  0  0  0  0  0
    1.1351    2.8755    0.0000 C   0  0  0  0  0  0  0  0  0
    2.5641    1.2255    0.0000 C   0  0  0  0  0  0  0  0  0
    3.2785    1.6380    0.0000 O   0  0  0  0  0  0  0  0  0
    2.5641    0.4005    0.0000 C   0  0  0  0  0  0  0  0  0
    3.2785   -0.0120    0.0000 C   0  0  0  0  0  0  0  0  0
    3.9930    0.4005    0.0000 O   0  0  0  0  0  0  0  0  0
    3.2785   -0.8370    0.0000 N   0  0  0  0  0  0  0  0  0
    3.9930   -1.2495    0.0000 C   0  0  0  0  0  0  0  0  0
    3.9930   -2.0745    0.0000 C   0  0  0  0  0  0  0  0  0
    4.6605   -2.5594    0.0000 N   0  0  0  0  0  0  0  0  0
    4.4055   -3.3441    0.0000 C   0  0  0  0  0  0  0  0  0
    3.5805   -3.3441    0.0000 C   0  0  0  0  0  0  0  0  0
    3.3256   -2.5594    0.0000 C   0  0  0  0  0  0  0  0  0
    5.4451   -2.3045    0.0000 C   0  0  0  0  0  0  0  0  0
    6.0582   -2.8565    0.0000 C   0  0  0  0  0  0  0  0  0
    1.8496   -0.0120    0.0000 C   0  0  0  0  0  0  0  0  0
    1.8496   -0.8370    0.0000 O   0  0  0  0  0  0  0  0  0
    2.5641   -1.2495    0.0000 C   0  0  0  0  0  0  0  0  0
  1  2  1  0  0  0  0
  2  3  4  0  0  0  0
  2 21  4  0  0  0  0
  3  4  4  0  0  0  0
  4  5  1  0  0  0  0
  4  7  4  0  0  0  0
  5  6  1  0  0  0  0
  7  8  1  0  0  0  0
  7  9  4  0  0  0  0
  9 10  1  0  0  0  0
  9 21  4  0  0  0  0
 10 11  2  0  0  0  0
 10 12  1  0  0  0  0
 12 13  1  0  0  0  0
 13 14  1  0  0  0  0
 14 15  1  0  0  0  0
 14 18  1  0  0  0  0
 15 16  1  0  0  0  0
 15 19  1  0  0  0  0
 16 17  1  0  0  0  0
 17 18  1  0  0  0  0
 19 20  1  0  0  0  0
 21 22  1  0  0  0  0
 22 23  1  0  0  0  0
M  END
>  <Name_Molregno>
ETICLOPRIDE

>  <5-HT1A>
5.75

>  <DOPAMINE D1>
5

>  <DOPAMINE D2>
10

>  <DOPAMINE D3>
10

>  <DOPAMINE D4>
7.61

>  <DOPAMINE D5>
5

$$$$
ETORICOXIB
  Marvin  02231216192D 0   1.00000     0.00000     0

 24 26  0  0  0  0  0  0  0  0999 V2000
    1.3103    1.0543    0.0000 Cl  0  0  0  0  0  0  0  0  0
    1.3103    0.2293    0.0000 C   0  0  0  0  0  0  0  0  0
    2.0248   -0.1832    0.0000 C   0  0  0  0  0  0  0  0  0
    2.0248   -1.0082    0.0000 C   0  0  0  0  0  0  0  0  0
    1.3103   -1.4207    0.0000 C   0  0  0  0  0  0  0  0  0
    0.5958   -1.0082    0.0000 N   0  0  0  0  0  0  0  0  0
    0.5958   -0.1832    0.0000 C   0  0  0  0  0  0  0  0  0
    1.3103   -2.2457    0.0000 C   0  0  0  0  0  0  0  0  0
    2.0248   -2.6582    0.0000 C   0  0  0  0  0  0  0  0  0
    2.0248   -3.4832    0.0000 C   0  0  0  0  0  0  0  0  0
    1.3103   -3.8957    0.0000 C   0  0  0  0  0  0  0  0  0
    0.5958   -3.4832    0.0000 N   0  0  0  0  0  0  0  0  0
    0.5958   -2.6582    0.0000 C   0  0  0  0  0  0  0  0  0
    1.3103   -4.7207    0.0000 C   0  0  0  0  0  0  0  0  0
    2.7392   -1.4207    0.0000 C   0  0  0  0  0  0  0  0  0
    3.4537   -1.0082    0.0000 C   0  0  0  0  0  0  0  0  0
    4.1682   -1.4207    0.0000 C   0  0  0  0  0  0  0  0  0
    4.1682   -2.2457    0.0000 C   0  0  0  0  0  0  0  0  0
    4.8826   -2.6582    0.0000 S   0  0  0  0  0  0  0  0  0
    5.5971   -3.0707    0.0000 O   0  0  0  0  0  0  0  0  0
    4.4701   -3.3727    0.0000 O   0  0  0  0  0  0  0  0  0
    5.2951   -1.9437    0.0000 C   0  0  0  0  0  0  0  0  0
    3.4537   -2.6582    0.0000 C   0  0  0  0  0  0  0  0  0
    2.7392   -2.2457    0.0000 C   0  0  0  0  0  0  0  0  0
  1  2  1  0  0  0  0
  2  3  4  0  0  0  0
  2  7  4  0  0  0  0
  3  4  4  0  0  0  0
  4  5  4  0  0  0  0
  4 15  1  0  0  0  0
  5  6  4  0  0  0  0
  5  8  1  0  0  0  0
  6  7  4  0  0  0  0
  8  9  4  0  0  0  0
  8 13  4  0  0  0  0
  9 10  4  0  0  0  0
 10 11  4  0  0  0  0
 11 12  4  0  0  0  0
 11 14  1  0  0  0  0
 12 13  4  0  0  0  0
 15 16  4  0  0  0  0
 15 24  4  0  0  0  0
 16 17  4  0  0  0  0
 17 18  4  0  0  0  0
 18 19  1  0  0  0  0
 18 23  4  0  0  0  0
 19 20  2  0  0  0  0
 19 21  2  0  0  0  0
 19 22  1  0  0  0  0
 23 24  4  0  0  0  0
M  END
>  <Name_Molregno>
ETORICOXIB

>  <5-HT1A>
5

>  <5-HT1B>
5

>  <5-HT1D>
5

>  <5-HT1E>
5

>  <5-HT2A>
5

>  <5-HT3>
5

>  <5-HT6>
5

>  <5-HT7>
5

>  <Alpha-1A>
5

>  <Alpha-1B>
5

>  <Alpha-2A>
5

>  <Alpha-2B>
5

>  <Alpha-2C>
5

>  <DOPAMINE D1>
5

>  <DOPAMINE D2>
5

>  <DOPAMINE D5>
5

>  <Dopamine transporter>
5

>  <HISTAMINE H2>
5

>  <HISTAMINE H4>
5

>  <Muscarinic acetylcholine receptor M1>
5

>  <Norepinephrine transporter>
5

>  <Serotonin transporter>
5

$$$$
FENOLDOPAM
  Marvin  02231216192D 0   1.00000     0.00000     0

 21 23  0  0  1  0  0  0  0  0999 V2000
    1.7970   -3.1037    0.0000 Cl  0  0  0  0  0  0  0  0  0
    1.7970   -2.2787    0.0000 C   0  0  0  0  0  0  0  0  0
    2.5114   -1.8662    0.0000 C   0  0  0  0  0  0  0  0  0
    2.5114   -1.0412    0.0000 C   0  0  0  0  0  0  0  0  0
    1.7970   -0.6287    0.0000 C   0  0  0  0  0  0  0  0  0
    1.0825   -1.0412    0.0000 C   0  0  0  0  0  0  0  0  0
    0.3680   -0.6287    0.0000 O   0  0  0  0  0  0  0  0  0
    1.0825   -1.8662    0.0000 C   0  0  0  0  0  0  0  0  0
    0.3680   -2.2787    0.0000 O   0  0  0  0  0  0  0  0  0
    3.1564   -0.5268    0.0000 C   0  0  0  0  0  0  0  0  0
    3.9608   -0.7104    0.0000 C   0  0  0  0  0  0  0  0  0
    4.3187   -1.4537    0.0000 N   0  0  0  0  0  0  0  0  0
    3.9608   -2.1970    0.0000 C   0  0  0  0  0  0  0  0  0
    3.1564   -2.3806    0.0000 C   0  0  0  0  0  0  0  0  0
    2.9729    0.2775    0.0000 C   0  0  0  0  0  0  0  0  0
    2.1845    0.5207    0.0000 C   0  0  0  0  0  0  0  0  0
    2.0009    1.3250    0.0000 C   0  0  0  0  0  0  0  0  0
    2.6057    1.8861    0.0000 C   0  0  0  0  0  0  0  0  0
    2.4221    2.6905    0.0000 O   0  0  0  0  0  0  0  0  0
    3.3941    1.6430    0.0000 C   0  0  0  0  0  0  0  0  0
    3.5776    0.8387    0.0000 C   0  0  0  0  0  0  0  0  0
  1  2  1  0  0  0  0
  2  3  4  0  0  0  0
  2  8  4  0  0  0  0
  3  4  4  0  0  0  0
  3 14  1  0  0  0  0
  4  5  4  0  0  0  0
  4 10  1  0  0  0  0
  5  6  4  0  0  0  0
  6  7  1  0  0  0  0
  6  8  4  0  0  0  0
  8  9  1  0  0  0  0
 10 11  1  0  0  0  0
 10 15  1  0  0  0  0
 11 12  1  0  0  0  0
 12 13  1  0  0  0  0
 13 14  1  0  0  0  0
 15 16  4  0  0  0  0
 15 21  4  0  0  0  0
 16 17  4  0  0  0  0
 17 18  4  0  0  0  0
 18 19  1  0  0  0  0
 18 20  4  0  0  0  0
 20 21  4  0  0  0  0
M  END
>  <Name_Molregno>
FENOLDOPAM

>  <DOPAMINE D1>
7.02

>  <DOPAMINE D5>
6.96

$$$$
Fluorocarazolol
  Marvin  02231216192D 0   1.00000     0.00000     0

 23 25  0  0  1  0  0  0  0  0999 V2000
   -0.1270    1.0228    0.0000 F   0  0  0  0  0  0  0  0  0
    0.5874    0.6103    0.0000 C   0  0  0  0  0  0  0  0  0
    1.3019    1.0228    0.0000 C   0  0  0  0  0  0  0  0  0
    2.0164    0.6103    0.0000 N   0  0  0  0  0  0  0  0  0
    2.7309    1.0228    0.0000 C   0  0  0  0  0  0  0  0  0
    3.4453    0.6103    0.0000 C   0  0  0  0  0  0  0  0  0
    3.4453   -0.2147    0.0000 O   0  0  0  0  0  0  0  0  0
    4.1598    1.0228    0.0000 C   0  0  0  0  0  0  0  0  0
    4.8743    0.6103    0.0000 O   0  0  0  0  0  0  0  0  0
    5.5887    1.0228    0.0000 C   0  0  0  0  0  0  0  0  0
    6.3032    0.6103    0.0000 C   0  0  0  0  0  0  0  0  0
    6.4747   -0.1966    0.0000 C   0  0  0  0  0  0  0  0  0
    7.2952   -0.2829    0.0000 C   0  0  0  0  0  0  0  0  0
    7.6308    0.4708    0.0000 N   0  0  0  0  0  0  0  0  0
    7.0177    1.0228    0.0000 C   0  0  0  0  0  0  0  0  0
    7.0177    1.8478    0.0000 C   0  0  0  0  0  0  0  0  0
    6.3032    2.2603    0.0000 C   0  0  0  0  0  0  0  0  0
    5.5887    1.8478    0.0000 C   0  0  0  0  0  0  0  0  0
    7.6308   -1.0365    0.0000 C   0  0  0  0  0  0  0  0  0
    7.1459   -1.7040    0.0000 C   0  0  0  0  0  0  0  0  0
    6.3254   -1.6178    0.0000 C   0  0  0  0  0  0  0  0  0
    5.9898   -0.8641    0.0000 C   0  0  0  0  0  0  0  0  0
    1.3019    1.8478    0.0000 C   0  0  0  0  0  0  0  0  0
  1  2  1  0  0  0  0
  2  3  1  0  0  0  0
  3  4  1  0  0  0  0
  3 23  1  0  0  0  0
  4  5  1  0  0  0  0
  5  6  1  0  0  0  0
  6  7  1  0  0  0  0
  6  8  1  0  0  0  0
  8  9  1  0  0  0  0
  9 10  1  0  0  0  0
 10 11  4  0  0  0  0
 10 18  4  0  0  0  0
 11 12  4  0  0  0  0
 11 15  4  0  0  0  0
 12 13  4  0  0  0  0
 12 22  4  0  0  0  0
 13 14  4  0  0  0  0
 13 19  4  0  0  0  0
 14 15  4  0  0  0  0
 15 16  4  0  0  0  0
 16 17  4  0  0  0  0
 17 18  4  0  0  0  0
 19 20  4  0  0  0  0
 20 21  4  0  0  0  0
 21 22  4  0  0  0  0
M  STY  1   1 DAT
M  SAL   1  1  14
M  SDT   1 MRV_IMPLICIT_H                                        
M  SDD   1     0.0000    0.0000    DR    ALL  0       0  
M  SED   1 IMPL_H1
M  END
>  <Name_Molregno>
Fluorocarazolol

>  <5-HT1A>
6.97

>  <5-HT1B>
6.31

>  <5-HT1D>
5.5

>  <5-HT1E>
5

>  <5-HT3>
5

>  <5-HT5>
5

>  <5-HT6>
5

>  <5-HT7>
5.17

>  <Alpha-1A>
5.85

>  <Alpha-1B>
5.76

>  <Alpha-2A>
5.5

>  <Alpha-2B>
5.03

>  <Alpha-2C>
5.54

>  <Beta-1>
9.65

>  <Beta-2>
9.98

>  <DOPAMINE D1>
5

>  <DOPAMINE D5>
5

>  <Muscarinic acetylcholine receptor M1>
5.66

>  <Muscarinic acetylcholine receptor M2>
5

>  <Muscarinic acetylcholine receptor M3>
5.4

>  <Muscarinic acetylcholine receptor M4>
5.14

>  <Muscarinic acetylcholine receptor M5>
5.27

>  <Norepinephrine transporter>
5

>  <Serotonin transporter>
5

$$$$
FLUPENTHIXOL-Alpha
  Marvin  02231216192D 0   1.00000     0.00000     0

 30 33  0  0  0  0  0  0  0  0999 V2000
    2.2729   -3.8406    0.0000 S   0  0  0  0  0  0  0  0  0
    2.9874   -3.4281    0.0000 C   0  0  0  0  0  0  0  0  0
    2.9874   -2.6031    0.0000 C   0  0  0  0  0  0  0  0  0
    3.7018   -2.1906    0.0000 C   0  0  0  0  0  0  0  0  0
    4.4163   -2.6031    0.0000 C   0  0  0  0  0  0  0  0  0
    4.4163   -3.4281    0.0000 C   0  0  0  0  0  0  0  0  0
    3.7018   -3.8406    0.0000 C   0  0  0  0  0  0  0  0  0
    5.1308   -2.1906    0.0000 C   0  0  0  0  0  0  0  0  0
    5.8453   -1.7781    0.0000 F   0  0  0  0  0  0  0  0  0
    4.7183   -1.4762    0.0000 F   0  0  0  0  0  0  0  0  0
    5.5433   -2.9051    0.0000 F   0  0  0  0  0  0  0  0  0
    2.2729   -2.1906    0.0000 C   0  0  0  0  0  0  0  0  0
    1.5584   -2.6031    0.0000 C   0  0  0  0  0  0  0  0  0
    1.5584   -3.4281    0.0000 C   0  0  0  0  0  0  0  0  0
    0.8440   -3.8406    0.0000 C   0  0  0  0  0  0  0  0  0
    0.1295   -3.4281    0.0000 C   0  0  0  0  0  0  0  0  0
    0.1295   -2.6031    0.0000 C   0  0  0  0  0  0  0  0  0
    0.8440   -2.1906    0.0000 C   0  0  0  0  0  0  0  0  0
    2.2729   -1.3656    0.0000 C   0  0  0  0  0  0  0  0  0
    1.5584   -0.9531    0.0000 C   0  0  0  0  0  0  0  0  0
    0.8440   -1.3656    0.0000 C   0  0  0  0  0  0  0  0  0
    0.1295   -0.9531    0.0000 N   0  0  0  0  0  0  0  0  0
   -0.5850   -1.3656    0.0000 C   0  0  0  0  0  0  0  0  0
   -1.2994   -0.9531    0.0000 C   0  0  0  0  0  0  0  0  0
   -1.2994   -0.1281    0.0000 N   0  0  0  0  0  0  0  0  0
   -0.5850    0.2844    0.0000 C   0  0  0  0  0  0  0  0  0
    0.1295   -0.1281    0.0000 C   0  0  0  0  0  0  0  0  0
   -2.0139    0.2844    0.0000 C   0  0  0  0  0  0  0  0  0
   -2.0139    1.1094    0.0000 C   0  0  0  0  0  0  0  0  0
   -2.7284    1.5219    0.0000 O   0  0  0  0  0  0  0  0  0
  1  2  1  0  0  0  0
  1 14  1  0  0  0  0
  2  3  4  0  0  0  0
  2  7  4  0  0  0  0
  3  4  4  0  0  0  0
  3 12  1  0  0  0  0
  4  5  4  0  0  0  0
  5  6  4  0  0  0  0
  5  8  1  0  0  0  0
  6  7  4  0  0  0  0
  8  9  1  0  0  0  0
  8 10  1  0  0  0  0
  8 11  1  0  0  0  0
 12 13  1  0  0  0  0
 12 19  2  0  0  0  0
 13 14  4  0  0  0  0
 13 18  4  0  0  0  0
 14 15  4  0  0  0  0
 15 16  4  0  0  0  0
 16 17  4  0  0  0  0
 17 18  4  0  0  0  0
 19 20  1  0  0  0  0
 20 21  1  0  0  0  0
 21 22  1  0  0  0  0
 22 23  1  0  0  0  0
 22 27  1  0  0  0  0
 23 24  1  0  0  0  0
 24 25  1  0  0  0  0
 25 26  1  0  0  0  0
 25 28  1  0  0  0  0
 26 27  1  0  0  0  0
 28 29  1  0  0  0  0
 29 30  1  0  0  0  0
M  END
>  <Name_Molregno>
FLUPENTHIXOL-Alpha

>  <5-HT1A>
5.1

>  <5-HT2A>
7.06

>  <DOPAMINE D1>
8.44

>  <DOPAMINE D2>
8.74

>  <DOPAMINE D3>
8.15

>  <DOPAMINE D4>
7.23

>  <DOPAMINE D5>
8.1

>  <HISTAMINE H1>
8.65

$$$$
FLUPHENAZINE
  Marvin  02231216192D 0   1.00000     0.00000     0

 38 41  0  0  0  0  0  0  0  0999 V2000
   -7.1492   -1.5262    0.0000 S   0  0  0  0  0  0  0  0  0
   -7.1492   -2.3512    0.0000 C   0  0  0  0  0  0  0  0  0
   -6.4348   -2.7637    0.0000 C   0  0  0  0  0  0  0  0  0
   -5.7203   -2.3512    0.0000 N   0  0  0  0  0  0  0  0  0
   -5.7203   -1.5262    0.0000 C   0  0  0  0  0  0  0  0  0
   -6.4348   -1.1137    0.0000 C   0  0  0  0  0  0  0  0  0
   -6.4348   -0.2887    0.0000 C   0  0  0  0  0  0  0  0  0
   -5.7203    0.1238    0.0000 C   0  0  0  0  0  0  0  0  0
   -5.0058   -0.2887    0.0000 C   0  0  0  0  0  0  0  0  0
   -5.0058   -1.1137    0.0000 C   0  0  0  0  0  0  0  0  0
   -5.0058   -2.7637    0.0000 C   0  0  0  0  0  0  0  0  0
   -4.2914   -2.3512    0.0000 C   0  0  0  0  0  0  0  0  0
   -3.5769   -2.7637    0.0000 C   0  0  0  0  0  0  0  0  0
   -2.8624   -2.3512    0.0000 N   0  0  0  0  0  0  0  0  0
   -2.8624   -1.5262    0.0000 C   0  0  0  0  0  0  0  0  0
   -2.1479   -1.1137    0.0000 C   0  0  0  0  0  0  0  0  0
   -1.4335   -1.5262    0.0000 N   0  0  0  0  0  0  0  0  0
   -1.4335   -2.3512    0.0000 C   0  0  0  0  0  0  0  0  0
   -2.1479   -2.7637    0.0000 C   0  0  0  0  0  0  0  0  0
   -0.7190   -1.1137    0.0000 C   0  0  0  0  0  0  0  0  0
   -0.0045   -1.5262    0.0000 C   0  0  0  0  0  0  0  0  0
    0.7099   -1.1137    0.0000 O   0  0  0  0  0  0  0  0  0
    1.4244   -1.5262    0.0000 C   0  0  0  0  0  0  0  0  0
    1.4244   -2.3512    0.0000 O   0  0  0  0  0  0  0  0  0
    2.1389   -1.1137    0.0000 C   0  0  0  0  0  0  0  0  0
    2.8534   -1.5262    0.0000 C   0  0  0  0  0  0  0  0  0
    3.5678   -1.1137    0.0000 C   0  0  0  0  0  0  0  0  0
    4.2823   -1.5262    0.0000 C   0  0  0  0  0  0  0  0  0
    4.9968   -1.1137    0.0000 C   0  0  0  0  0  0  0  0  0
    5.7112   -1.5262    0.0000 C   0  0  0  0  0  0  0  0  0
   -6.4348   -3.5887    0.0000 C   0  0  0  0  0  0  0  0  0
   -7.1492   -4.0012    0.0000 C   0  0  0  0  0  0  0  0  0
   -7.8637   -3.5887    0.0000 C   0  0  0  0  0  0  0  0  0
   -7.8637   -2.7637    0.0000 C   0  0  0  0  0  0  0  0  0
   -7.1492   -4.8262    0.0000 C   0  0  0  0  0  0  0  0  0
   -7.1492   -5.6512    0.0000 F   0  0  0  0  0  0  0  0  0
   -7.9742   -4.8262    0.0000 F   0  0  0  0  0  0  0  0  0
   -6.3242   -4.8262    0.0000 F   0  0  0  0  0  0  0  0  0
  1  2  1  0  0  0  0
  1  6  1  0  0  0  0
  2  3  4  0  0  0  0
  2 34  4  0  0  0  0
  3  4  1  0  0  0  0
  3 31  4  0  0  0  0
  4  5  1  0  0  0  0
  4 11  1  0  0  0  0
  5  6  4  0  0  0  0
  5 10  4  0  0  0  0
  6  7  4  0  0  0  0
  7  8  4  0  0  0  0
  8  9  4  0  0  0  0
  9 10  4  0  0  0  0
 11 12  1  0  0  0  0
 12 13  1  0  0  0  0
 13 14  1  0  0  0  0
 14 15  1  0  0  0  0
 14 19  1  0  0  0  0
 15 16  1  0  0  0  0
 16 17  1  0  0  0  0
 17 18  1  0  0  0  0
 17 20  1  0  0  0  0
 18 19  1  0  0  0  0
 20 21  1  0  0  0  0
 21 22  1  0  0  0  0
 22 23  1  0  0  0  0
 23 24  2  0  0  0  0
 23 25  1  0  0  0  0
 25 26  1  0  0  0  0
 26 27  1  0  0  0  0
 27 28  1  0  0  0  0
 28 29  1  0  0  0  0
 29 30  1  0  0  0  0
 31 32  4  0  0  0  0
 32 33  4  0  0  0  0
 32 35  1  0  0  0  0
 33 34  4  0  0  0  0
 35 36  1  0  0  0  0
 35 37  1  0  0  0  0
 35 38  1  0  0  0  0
M  END
>  <Name_Molregno>
FLUPHENAZINE

>  <5-HT1A>
6.41

>  <5-HT1B>
6.48

>  <5-HT1D>
6.48

>  <5-HT1E>
6.27

>  <5-HT2A>
7.87

>  <5-HT2C>
6.05

>  <5-HT3>
5

>  <5-HT5>
6.84

>  <5-HT6>
7.46

>  <5-HT7>
8.1

>  <Alpha-1A>
8.19

>  <Alpha-1B>
7.89

>  <Alpha-2A>
6.5

>  <Alpha-2B>
7.09

>  <Alpha-2C>
7.54

>  <Beta-1>
5

>  <Beta-2>
5

>  <DOPAMINE D1>
7.55

>  <DOPAMINE D2>
9.22

>  <DOPAMINE D3>
9.33

>  <DOPAMINE D4>
7.52

>  <DOPAMINE D5>
7.82

>  <Dopamine transporter>
5

>  <HISTAMINE H1>
7.72

>  <HISTAMINE H2>
6.25

>  <HISTAMINE H3>
6

>  <HISTAMINE H4>
5

>  <Muscarinic acetylcholine receptor M1>
5.96

>  <Muscarinic acetylcholine receptor M2>
5.14

>  <Muscarinic acetylcholine receptor M3>
5.84

>  <Muscarinic acetylcholine receptor M4>
5.27

>  <Muscarinic acetylcholine receptor M5>
6.45

>  <Norepinephrine transporter>
5.51

>  <Serotonin transporter>
5.23

$$$$
FLUPHENAZINE-2
  Marvin  02231216192D 0   1.00000     0.00000     0

 30 33  0  0  0  0  0  0  0  0999 V2000
    2.0347   -4.2531    0.0000 S   0  0  0  0  0  0  0  0  0
    2.7492   -3.8406    0.0000 C   0  0  0  0  0  0  0  0  0
    2.7492   -3.0156    0.0000 C   0  0  0  0  0  0  0  0  0
    2.0347   -2.6031    0.0000 N   0  0  0  0  0  0  0  0  0
    1.3203   -3.0156    0.0000 C   0  0  0  0  0  0  0  0  0
    1.3203   -3.8406    0.0000 C   0  0  0  0  0  0  0  0  0
    0.6058   -4.2531    0.0000 C   0  0  0  0  0  0  0  0  0
   -0.1087   -3.8406    0.0000 C   0  0  0  0  0  0  0  0  0
   -0.1087   -3.0156    0.0000 C   0  0  0  0  0  0  0  0  0
    0.6058   -2.6031    0.0000 C   0  0  0  0  0  0  0  0  0
    2.0347   -1.7781    0.0000 C   0  0  0  0  0  0  0  0  0
    1.3203   -1.3656    0.0000 C   0  0  0  0  0  0  0  0  0
    1.3203   -0.5406    0.0000 C   0  0  0  0  0  0  0  0  0
    0.6058   -0.1281    0.0000 N   0  0  0  0  0  0  0  0  0
   -0.1087   -0.5406    0.0000 C   0  0  0  0  0  0  0  0  0
   -0.8231   -0.1281    0.0000 C   0  0  0  0  0  0  0  0  0
   -0.8231    0.6969    0.0000 N   0  0  0  0  0  0  0  0  0
   -0.1087    1.1094    0.0000 C   0  0  0  0  0  0  0  0  0
    0.6058    0.6969    0.0000 C   0  0  0  0  0  0  0  0  0
   -1.5376    1.1094    0.0000 C   0  0  0  0  0  0  0  0  0
   -1.5376    1.9344    0.0000 C   0  0  0  0  0  0  0  0  0
   -2.2521    2.3469    0.0000 O   0  0  0  0  0  0  0  0  0
    3.4637   -2.6031    0.0000 C   0  0  0  0  0  0  0  0  0
    4.1782   -3.0156    0.0000 C   0  0  0  0  0  0  0  0  0
    4.1782   -3.8406    0.0000 C   0  0  0  0  0  0  0  0  0
    3.4637   -4.2531    0.0000 C   0  0  0  0  0  0  0  0  0
    4.8926   -2.6031    0.0000 C   0  0  0  0  0  0  0  0  0
    5.6071   -2.1906    0.0000 F   0  0  0  0  0  0  0  0  0
    5.3051   -3.3176    0.0000 F   0  0  0  0  0  0  0  0  0
    4.4801   -1.8887    0.0000 F   0  0  0  0  0  0  0  0  0
  1  2  1  0  0  0  0
  1  6  1  0  0  0  0
  2  3  4  0  0  0  0
  2 26  4  0  0  0  0
  3  4  1  0  0  0  0
  3 23  4  0  0  0  0
  4  5  1  0  0  0  0
  4 11  1  0  0  0  0
  5  6  4  0  0  0  0
  5 10  4  0  0  0  0
  6  7  4  0  0  0  0
  7  8  4  0  0  0  0
  8  9  4  0  0  0  0
  9 10  4  0  0  0  0
 11 12  1  0  0  0  0
 12 13  1  0  0  0  0
 13 14  1  0  0  0  0
 14 15  1  0  0  0  0
 14 19  1  0  0  0  0
 15 16  1  0  0  0  0
 16 17  1  0  0  0  0
 17 18  1  0  0  0  0
 17 20  1  0  0  0  0
 18 19  1  0  0  0  0
 20 21  1  0  0  0  0
 21 22  1  0  0  0  0
 23 24  4  0  0  0  0
 24 25  4  0  0  0  0
 24 27  1  0  0  0  0
 25 26  4  0  0  0  0
 27 28  1  0  0  0  0
 27 29  1  0  0  0  0
 27 30  1  0  0  0  0
M  END
>  <Name_Molregno>
FLUPHENAZINE-2

>  <5-HT6>
7.3

>  <DOPAMINE D1>
6.75

>  <DOPAMINE D2>
8.84

>  <DOPAMINE D3>
8.49

>  <DOPAMINE D5>
7.68

>  <HISTAMINE H1>
7.4

>  <HISTAMINE H3>
6

$$$$
HALOPERIDOL
  Marvin  02231216192D 0   1.00000     0.00000     0

 26 28  0  0  0  0  0  0  0  0999 V2000
    1.7138    2.6466    0.0000 Cl  0  0  0  0  0  0  0  0  0
    1.9960    1.8714    0.0000 C   0  0  0  0  0  0  0  0  0
    2.8084    1.7281    0.0000 C   0  0  0  0  0  0  0  0  0
    3.0906    0.9529    0.0000 C   0  0  0  0  0  0  0  0  0
    2.5603    0.3209    0.0000 C   0  0  0  0  0  0  0  0  0
    1.7478    0.4642    0.0000 C   0  0  0  0  0  0  0  0  0
    1.4657    1.2394    0.0000 C   0  0  0  0  0  0  0  0  0
    2.8425   -0.4543    0.0000 C   0  0  0  0  0  0  0  0  0
    2.0300   -0.5976    0.0000 O   0  0  0  0  0  0  0  0  0
    3.5569   -0.0418    0.0000 C   0  0  0  0  0  0  0  0  0
    4.2714   -0.4543    0.0000 C   0  0  0  0  0  0  0  0  0
    4.2714   -1.2793    0.0000 N   0  0  0  0  0  0  0  0  0
    3.5569   -1.6918    0.0000 C   0  0  0  0  0  0  0  0  0
    2.8425   -1.2793    0.0000 C   0  0  0  0  0  0  0  0  0
    4.9859   -1.6918    0.0000 C   0  0  0  0  0  0  0  0  0
    5.7003   -1.2793    0.0000 C   0  0  0  0  0  0  0  0  0
    6.4148   -1.6918    0.0000 C   0  0  0  0  0  0  0  0  0
    7.1293   -1.2793    0.0000 C   0  0  0  0  0  0  0  0  0
    7.1293   -0.4543    0.0000 O   0  0  0  0  0  0  0  0  0
    7.8438   -1.6918    0.0000 C   0  0  0  0  0  0  0  0  0
    8.5582   -1.2793    0.0000 C   0  0  0  0  0  0  0  0  0
    9.2727   -1.6918    0.0000 C   0  0  0  0  0  0  0  0  0
    9.2727   -2.5168    0.0000 C   0  0  0  0  0  0  0  0  0
    9.9872   -2.9293    0.0000 F   0  0  0  0  0  0  0  0  0
    8.5582   -2.9293    0.0000 C   0  0  0  0  0  0  0  0  0
    7.8438   -2.5168    0.0000 C   0  0  0  0  0  0  0  0  0
  1  2  1  0  0  0  0
  2  3  4  0  0  0  0
  2  7  4  0  0  0  0
  3  4  4  0  0  0  0
  4  5  4  0  0  0  0
  5  6  4  0  0  0  0
  5  8  1  0  0  0  0
  6  7  4  0  0  0  0
  8  9  1  0  0  0  0
  8 10  1  0  0  0  0
  8 14  1  0  0  0  0
 10 11  1  0  0  0  0
 11 12  1  0  0  0  0
 12 13  1  0  0  0  0
 12 15  1  0  0  0  0
 13 14  1  0  0  0  0
 15 16  1  0  0  0  0
 16 17  1  0  0  0  0
 17 18  1  0  0  0  0
 18 19  2  0  0  0  0
 18 20  1  0  0  0  0
 20 21  4  0  0  0  0
 20 26  4  0  0  0  0
 21 22  4  0  0  0  0
 22 23  4  0  0  0  0
 23 24  1  0  0  0  0
 23 25  4  0  0  0  0
 25 26  4  0  0  0  0
M  END
>  <Name_Molregno>
HALOPERIDOL

>  <5-HT1A>
5.67

>  <5-HT1B>
6.63

>  <5-HT1D>
5.56

>  <5-HT1E>
5.15

>  <5-HT2A>
7.01

>  <5-HT2C>
5.24

>  <5-HT3>
5

>  <5-HT5>
5.65

>  <5-HT6>
5.28

>  <5-HT7>
6.32

>  <Alpha-1A>
7.92

>  <Alpha-1B>
8.1

>  <Alpha-2A>
6.04

>  <Alpha-2B>
6.32

>  <Alpha-2C>
6.34

>  <Beta-1>
5

>  <Beta-2>
5.15

>  <DOPAMINE D1>
7.22

>  <DOPAMINE D2>
8.75

>  <DOPAMINE D3>
8.33

>  <DOPAMINE D4>
8.29

>  <DOPAMINE D5>
7.03

>  <Dopamine transporter>
5

>  <HISTAMINE H1>
6.04

>  <HISTAMINE H2>
6

>  <HISTAMINE H4>
5

>  <Muscarinic acetylcholine receptor M1>
5.4

>  <Muscarinic acetylcholine receptor M2>
5

>  <Muscarinic acetylcholine receptor M3>
5

>  <Muscarinic acetylcholine receptor M4>
5

>  <Muscarinic acetylcholine receptor M5>
5.59

>  <Norepinephrine transporter>
5.68

>  <Serotonin transporter>
5.74

$$$$
Hyperforin
  Marvin  02231216192D 0   1.00000     0.00000     0

 39 40  0  0  1  0  0  0  0  0999 V2000
   -0.0475    3.0141    0.0000 O   0  0  0  0  0  0  0  0  0
    0.7326    2.5988    0.0000 C   0  0  0  0  0  0  0  0  0
    1.6516    2.5995    0.0000 C   0  0  0  0  0  0  0  0  0
    1.7130    1.6464    0.0000 C   0  0  0  0  0  0  0  0  0
    1.3009    1.0655    0.0000 C   0  0  0  0  0  0  0  0  0
    0.9271    0.2926    0.0000 C   0  0  0  0  0  0  0  0  0
    0.6406   -0.4973    0.0000 C   0  0  0  0  0  0  0  0  0
   -0.1718   -0.6414    0.0000 C   0  0  0  0  0  0  0  0  0
   -0.7027   -0.0100    0.0000 C   0  0  0  0  0  0  0  0  0
   -0.4531   -1.4170    0.0000 C   0  0  0  0  0  0  0  0  0
    2.1172    1.2450    0.0000 C   0  0  0  0  0  0  0  0  0
    2.4176    0.4250    0.0000 C   0  0  0  0  0  0  0  0  0
    3.1181   -0.0803    0.0000 C   0  0  0  0  0  0  0  0  0
    3.0346   -0.9010    0.0000 C   0  0  0  0  0  0  0  0  0
    2.2821   -1.2391    0.0000 C   0  0  0  0  0  0  0  0  0
    1.6130   -0.7565    0.0000 C   0  0  0  0  0  0  0  0  0
    2.1987   -2.0599    0.0000 C   0  0  0  0  0  0  0  0  0
    2.9989    1.2958    0.0000 C   0  0  0  0  0  0  0  0  0
    2.0702    2.2319    0.0000 C   0  0  0  0  0  0  0  0  0
    2.8036    2.7016    0.0000 C   0  0  0  0  0  0  0  0  0
    2.8813    3.6702    0.0000 O   0  0  0  0  0  0  0  0  0
    3.6516    2.8271    0.0000 C   0  0  0  0  0  0  0  0  0
    3.9551    3.5942    0.0000 C   0  0  0  0  0  0  0  0  0
    4.1642    2.1806    0.0000 C   0  0  0  0  0  0  0  0  0
    2.0364    2.8705    0.0000 C   0  0  0  0  0  0  0  0  0
    2.9600    3.1637    0.0000 O   0  0  0  0  0  0  0  0  0
    1.1102    2.2212    0.0000 C   0  0  0  0  0  0  0  0  0
    0.8447    3.1353    0.0000 O   0  0  0  0  0  0  0  0  0
    0.6057    1.7969    0.0000 C   0  0  0  0  0  0  0  0  0
   -0.1558    1.3974    0.0000 C   0  0  0  0  0  0  0  0  0
   -0.9549    1.0682    0.0000 C   0  0  0  0  0  0  0  0  0
   -1.6085    1.5717    0.0000 C   0  0  0  0  0  0  0  0  0
   -2.3713    1.2575    0.0000 C   0  0  0  0  0  0  0  0  0
   -1.4992    2.3895    0.0000 C   0  0  0  0  0  0  0  0  0
    1.5780    3.5970    0.0000 C   0  0  0  0  0  0  0  0  0
    1.5386    4.4833    0.0000 C   0  0  0  0  0  0  0  0  0
    0.8065    4.8636    0.0000 C   0  0  0  0  0  0  0  0  0
    0.7698    5.6878    0.0000 C   0  0  0  0  0  0  0  0  0
    0.1111    4.4198    0.0000 C   0  0  0  0  0  0  0  0  0
  1  2  1  0  0  0  0
  2  3  1  0  0  0  0
  2 29  2  0  0  0  0
  3  4  1  0  0  0  0
  3 25  1  0  0  0  0
  3 35  1  0  0  0  0
  4  5  1  0  0  0  0
  5  6  1  0  0  0  0
  5 11  1  0  0  0  0
  6  7  1  0  0  0  0
  7  8  2  0  0  0  0
  8  9  1  0  0  0  0
  8 10  1  0  0  0  0
 11 12  1  0  0  0  0
 11 18  1  0  0  0  0
 11 19  1  0  0  0  0
 12 13  1  0  0  0  0
 13 14  1  0  0  0  0
 14 15  2  0  0  0  0
 15 16  1  0  0  0  0
 15 17  1  0  0  0  0
 19 20  1  0  0  0  0
 19 25  1  0  0  0  0
 19 27  1  0  0  0  0
 20 21  2  0  0  0  0
 20 22  1  0  0  0  0
 22 23  1  0  0  0  0
 22 24  1  0  0  0  0
 25 26  2  0  0  0  0
 27 28  2  0  0  0  0
 27 29  1  0  0  0  0
 29 30  1  0  0  0  0
 30 31  1  0  0  0  0
 31 32  2  0  0  0  0
 32 33  1  0  0  0  0
 32 34  1  0  0  0  0
 35 36  1  0  0  0  0
 36 37  2  0  0  0  0
 37 38  1  0  0  0  0
 37 39  1  0  0  0  0
M  END
>  <Name_Molregno>
Hyperforin

>  <5-HT1A>
5

>  <5-HT1D>
5

>  <5-HT3>
5

>  <5-HT5>
5

>  <5-HT6>
5

>  <5-HT7>
5

>  <Alpha-1A>
5

>  <Alpha-1B>
5

>  <Alpha-2A>
5

>  <Alpha-2B>
5

>  <Alpha-2C>
5

>  <DOPAMINE D1>
6.22

>  <DOPAMINE D5>
5

>  <Muscarinic acetylcholine receptor M1>
5

>  <Muscarinic acetylcholine receptor M2>
5

>  <Muscarinic acetylcholine receptor M3>
5

>  <Muscarinic acetylcholine receptor M4>
5

>  <Muscarinic acetylcholine receptor M5>
5

>  <Norepinephrine transporter>
5

>  <Serotonin transporter>
5

$$$$
Hypericin
  Marvin  02231216192D 0   1.00000     0.00000     0

 39 46  0  0  0  0  0  0  0  0999 V2000
   -0.3746   -3.0738    0.0000 O   0  0  0  0  0  0  0  0  0
    0.1655   -2.4502    0.0000 C   0  0  0  0  0  0  0  0  0
    0.9756   -2.6061    0.0000 C   0  0  0  0  0  0  0  0  0
    1.5157   -1.9824    0.0000 C   0  0  0  0  0  0  0  0  0
    1.2457   -1.2029    0.0000 C   0  0  0  0  0  0  0  0  0
    1.7858   -0.5792    0.0000 C   0  0  0  0  0  0  0  0  0
    2.5959   -0.7352    0.0000 C   0  0  0  0  0  0  0  0  0
    3.1360   -0.1115    0.0000 C   0  0  0  0  0  0  0  0  0
    3.9461   -0.2674    0.0000 C   0  0  0  0  0  0  0  0  0
    4.4862    0.3562    0.0000 O   0  0  0  0  0  0  0  0  0
    4.2162   -1.0470    0.0000 C   0  0  0  0  0  0  0  0  0
    3.6761   -1.6706    0.0000 C   0  0  0  0  0  0  0  0  0
    3.9461   -2.4502    0.0000 C   0  0  0  0  0  0  0  0  0
    3.4060   -3.0738    0.0000 C   0  0  0  0  0  0  0  0  0
    2.5959   -2.9179    0.0000 C   0  0  0  0  0  0  0  0  0
    2.0558   -3.5415    0.0000 C   0  0  0  0  0  0  0  0  0
    1.2457   -3.3856    0.0000 C   0  0  0  0  0  0  0  0  0
    0.7056   -4.0093    0.0000 O   0  0  0  0  0  0  0  0  0
    2.3258   -4.3211    0.0000 C   0  0  0  0  0  0  0  0  0
    1.7858   -4.9447    0.0000 O   0  0  0  0  0  0  0  0  0
    3.1360   -4.4770    0.0000 C   0  0  0  0  0  0  0  0  0
    3.6761   -3.8534    0.0000 C   0  0  0  0  0  0  0  0  0
    4.4862   -4.0093    0.0000 O   0  0  0  0  0  0  0  0  0
    2.3258   -2.1384    0.0000 C   0  0  0  0  0  0  0  0  0
    2.8659   -1.5147    0.0000 C   0  0  0  0  0  0  0  0  0
    4.7562   -2.6061    0.0000 C   0  0  0  0  0  0  0  0  0
    5.0263   -3.3856    0.0000 O   0  0  0  0  0  0  0  0  0
    5.2963   -1.9824    0.0000 C   0  0  0  0  0  0  0  0  0
    5.0263   -1.2029    0.0000 C   0  0  0  0  0  0  0  0  0
    5.5664   -0.5792    0.0000 O   0  0  0  0  0  0  0  0  0
    2.8659    0.6680    0.0000 C   0  0  0  0  0  0  0  0  0
    3.4060    1.2917    0.0000 O   0  0  0  0  0  0  0  0  0
    2.0558    0.8239    0.0000 C   0  0  0  0  0  0  0  0  0
    1.5157    0.2003    0.0000 C   0  0  0  0  0  0  0  0  0
    0.7056    0.3562    0.0000 C   0  0  0  0  0  0  0  0  0
    0.4355   -1.0470    0.0000 C   0  0  0  0  0  0  0  0  0
   -0.1046   -1.6706    0.0000 C   0  0  0  0  0  0  0  0  0
    0.1655   -0.2674    0.0000 C   0  0  0  0  0  0  0  0  0
   -0.6446   -0.1115    0.0000 O   0  0  0  0  0  0  0  0  0
  1  2  1  0  0  0  0
  2  3  4  0  0  0  0
  2 37  4  0  0  0  0
  3  4  4  0  0  0  0
  3 17  1  0  0  0  0
  4  5  4  0  0  0  0
  4 24  4  0  0  0  0
  5  6  4  0  0  0  0
  5 36  4  0  0  0  0
  6  7  4  0  0  0  0
  6 34  4  0  0  0  0
  7  8  4  0  0  0  0
  7 25  4  0  0  0  0
  8  9  1  0  0  0  0
  8 31  4  0  0  0  0
  9 10  2  0  0  0  0
  9 11  1  0  0  0  0
 11 12  4  0  0  0  0
 11 29  4  0  0  0  0
 12 13  4  0  0  0  0
 12 25  4  0  0  0  0
 13 14  4  0  0  0  0
 13 26  4  0  0  0  0
 14 15  4  0  0  0  0
 14 22  4  0  0  0  0
 15 16  4  0  0  0  0
 15 24  4  0  0  0  0
 16 17  1  0  0  0  0
 16 19  4  0  0  0  0
 17 18  2  0  0  0  0
 19 20  1  0  0  0  0
 19 21  4  0  0  0  0
 21 22  4  0  0  0  0
 22 23  1  0  0  0  0
 24 25  4  0  0  0  0
 26 27  1  0  0  0  0
 26 28  4  0  0  0  0
 28 29  4  0  0  0  0
 29 30  1  0  0  0  0
 31 32  1  0  0  0  0
 31 33  4  0  0  0  0
 33 34  4  0  0  0  0
 34 35  1  0  0  0  0
 36 37  4  0  0  0  0
 36 38  1  0  0  0  0
 38 39  1  0  0  0  0
M  END
>  <Name_Molregno>
Hypericin

>  <5-HT1A>
5

>  <5-HT1D>
5

>  <5-HT3>
5

>  <5-HT5>
5

>  <5-HT6>
5

>  <5-HT7>
5

>  <Alpha-1A>
5

>  <Alpha-1B>
5

>  <Alpha-2A>
5

>  <Alpha-2B>
5

>  <Alpha-2C>
5

>  <DOPAMINE D1>
5

>  <DOPAMINE D5>
5

>  <Muscarinic acetylcholine receptor M1>
5

>  <Muscarinic acetylcholine receptor M2>
5

>  <Muscarinic acetylcholine receptor M3>
5

>  <Muscarinic acetylcholine receptor M4>
5

>  <Muscarinic acetylcholine receptor M5>
5

>  <Norepinephrine transporter>
5

>  <Serotonin transporter>
5

$$$$
Hyperoside
  Marvin  02231216192D 0   1.00000     0.00000     0

 33 36  0  0  1  0  0  0  0  0999 V2000
    1.3731    1.4076    0.0000 O   0  0  0  0  0  0  0  0  0
    1.3731    2.2326    0.0000 C   0  0  0  0  0  0  0  0  0
    2.0876    2.6451    0.0000 C   0  0  0  0  0  0  0  0  0
    2.0876    3.4701    0.0000 O   0  0  0  0  0  0  0  0  0
    0.6587    2.6451    0.0000 C   0  0  0  0  0  0  0  0  0
    0.6587    3.4701    0.0000 O   0  0  0  0  0  0  0  0  0
   -0.0558    2.2326    0.0000 C   0  0  0  0  0  0  0  0  0
   -0.7703    2.6451    0.0000 O   0  0  0  0  0  0  0  0  0
   -0.0558    1.4076    0.0000 C   0  0  0  0  0  0  0  0  0
   -0.7703    0.9951    0.0000 O   0  0  0  0  0  0  0  0  0
    0.6587    0.9951    0.0000 C   0  0  0  0  0  0  0  0  0
    0.6587    0.1701    0.0000 O   0  0  0  0  0  0  0  0  0
    1.3731   -0.2424    0.0000 C   0  0  0  0  0  0  0  0  0
    1.3731   -1.0674    0.0000 C   0  0  0  0  0  0  0  0  0
    2.0876   -1.4799    0.0000 O   0  0  0  0  0  0  0  0  0
    2.8021   -1.0674    0.0000 C   0  0  0  0  0  0  0  0  0
    2.8021   -0.2424    0.0000 C   0  0  0  0  0  0  0  0  0
    2.0876    0.1701    0.0000 C   0  0  0  0  0  0  0  0  0
    2.0876    0.9951    0.0000 O   0  0  0  0  0  0  0  0  0
    3.5166    0.1701    0.0000 C   0  0  0  0  0  0  0  0  0
    3.5166    0.9951    0.0000 O   0  0  0  0  0  0  0  0  0
    4.2310   -0.2424    0.0000 C   0  0  0  0  0  0  0  0  0
    4.2310   -1.0674    0.0000 C   0  0  0  0  0  0  0  0  0
    4.9455   -1.4799    0.0000 O   0  0  0  0  0  0  0  0  0
    3.5166   -1.4799    0.0000 C   0  0  0  0  0  0  0  0  0
    0.6587   -1.4799    0.0000 C   0  0  0  0  0  0  0  0  0
    0.6587   -2.3049    0.0000 C   0  0  0  0  0  0  0  0  0
   -0.0558   -2.7174    0.0000 C   0  0  0  0  0  0  0  0  0
   -0.0558   -3.5424    0.0000 O   0  0  0  0  0  0  0  0  0
   -0.7703   -2.3049    0.0000 C   0  0  0  0  0  0  0  0  0
   -1.4847   -2.7174    0.0000 O   0  0  0  0  0  0  0  0  0
   -0.7703   -1.4799    0.0000 C   0  0  0  0  0  0  0  0  0
   -0.0558   -1.0674    0.0000 C   0  0  0  0  0  0  0  0  0
  1  2  1  0  0  0  0
  1 11  1  0  0  0  0
  2  3  1  0  0  0  0
  2  5  1  0  0  0  0
  3  4  1  0  0  0  0
  5  6  1  0  0  0  0
  5  7  1  0  0  0  0
  7  8  1  0  0  0  0
  7  9  1  0  0  0  0
  9 10  1  0  0  0  0
  9 11  1  0  0  0  0
 11 12  1  0  0  0  0
 12 13  1  0  0  0  0
 13 14  2  0  0  0  0
 13 18  1  0  0  0  0
 14 15  1  0  0  0  0
 14 26  1  0  0  0  0
 15 16  1  0  0  0  0
 16 17  1  0  0  0  0
 16 25  2  0  0  0  0
 17 18  2  0  0  0  0
 17 20  1  0  0  0  0
 18 19  1  0  0  0  0
 20 21  1  0  0  0  0
 20 22  2  0  0  0  0
 22 23  1  0  0  0  0
 23 24  2  0  0  0  0
 23 25  1  0  0  0  0
 26 27  4  0  0  0  0
 26 33  4  0  0  0  0
 27 28  4  0  0  0  0
 28 29  1  0  0  0  0
 28 30  4  0  0  0  0
 30 31  1  0  0  0  0
 30 32  4  0  0  0  0
 32 33  4  0  0  0  0
M  END
>  <Name_Molregno>
Hyperoside

>  <5-HT1A>
5

>  <5-HT1D>
5

>  <5-HT3>
5

>  <5-HT5>
5

>  <5-HT6>
5

>  <5-HT7>
5

>  <Alpha-1A>
5

>  <Alpha-1B>
5

>  <Alpha-2A>
5.38

>  <Alpha-2B>
5

>  <Alpha-2C>
5.13

>  <DOPAMINE D1>
5

>  <DOPAMINE D5>
5

>  <Muscarinic acetylcholine receptor M1>
5

>  <Muscarinic acetylcholine receptor M2>
5

>  <Muscarinic acetylcholine receptor M3>
5

>  <Muscarinic acetylcholine receptor M4>
5

>  <Muscarinic acetylcholine receptor M5>
5

>  <Norepinephrine transporter>
5

>  <Serotonin transporter>
5

$$$$
ibuprofen
  Marvin  02231216192D 0   1.00000     0.00000     0

 15 15  0  0  1  0  0  0  0  0999 V2000
    3.0591   -3.4943    0.0000 O   0  0  0  0  0  0  0  0  0
    3.0591   -2.6693    0.0000 C   0  0  0  0  0  0  0  0  0
    3.7735   -2.2568    0.0000 O   0  0  0  0  0  0  0  0  0
    2.3446   -2.2568    0.0000 C   0  0  0  0  0  0  0  0  0
    1.6301   -2.6693    0.0000 C   0  0  0  0  0  0  0  0  0
    2.3446   -1.4318    0.0000 C   0  0  0  0  0  0  0  0  0
    1.6301   -1.0193    0.0000 C   0  0  0  0  0  0  0  0  0
    1.6301   -0.1943    0.0000 C   0  0  0  0  0  0  0  0  0
    2.3446    0.2182    0.0000 C   0  0  0  0  0  0  0  0  0
    3.0591   -0.1943    0.0000 C   0  0  0  0  0  0  0  0  0
    3.0591   -1.0193    0.0000 C   0  0  0  0  0  0  0  0  0
    2.3446    1.0432    0.0000 C   0  0  0  0  0  0  0  0  0
    3.0591    1.4557    0.0000 C   0  0  0  0  0  0  0  0  0
    3.0591    2.2807    0.0000 C   0  0  0  0  0  0  0  0  0
    3.7735    1.0432    0.0000 C   0  0  0  0  0  0  0  0  0
  1  2  1  0  0  0  0
  2  3  2  0  0  0  0
  2  4  1  0  0  0  0
  4  5  1  0  0  0  0
  4  6  1  0  0  0  0
  6  7  4  0  0  0  0
  6 11  4  0  0  0  0
  7  8  4  0  0  0  0
  8  9  4  0  0  0  0
  9 10  4  0  0  0  0
  9 12  1  0  0  0  0
 10 11  4  0  0  0  0
 12 13  1  0  0  0  0
 13 14  1  0  0  0  0
 13 15  1  0  0  0  0
M  END
>  <Name_Molregno>
ibuprofen

>  <5-HT1A>
5

>  <5-HT1B>
5

>  <5-HT1D>
5

>  <5-HT1E>
5

>  <5-HT2A>
5

>  <5-HT3>
5

>  <5-HT6>
5

>  <5-HT7>
5

>  <Alpha-1A>
5

>  <Alpha-1B>
5

>  <Alpha-2A>
5

>  <Alpha-2B>
5

>  <Alpha-2C>
5

>  <DOPAMINE D1>
5

>  <DOPAMINE D2>
5

>  <DOPAMINE D4>
5

>  <DOPAMINE D5>
5

>  <Dopamine transporter>
5

>  <HISTAMINE H1>
5

>  <HISTAMINE H2>
5

>  <Muscarinic acetylcholine receptor M2>
5

>  <Muscarinic acetylcholine receptor M5>
5

>  <Norepinephrine transporter>
5

>  <Serotonin transporter>
5

$$$$
ILOPERIDONE
  Marvin  02231216192D 0   1.00000     0.00000     0

 31 34  0  0  0  0  0  0  0  0999 V2000
    9.8408   -5.0338    0.0000 F   0  0  0  0  0  0  0  0  0
    9.1263   -4.6213    0.0000 C   0  0  0  0  0  0  0  0  0
    8.4119   -5.0338    0.0000 C   0  0  0  0  0  0  0  0  0
    7.6974   -4.6213    0.0000 C   0  0  0  0  0  0  0  0  0
    6.9128   -4.8762    0.0000 O   0  0  0  0  0  0  0  0  0
    6.4279   -4.2088    0.0000 N   0  0  0  0  0  0  0  0  0
    6.9128   -3.5413    0.0000 C   0  0  0  0  0  0  0  0  0
    7.6974   -3.7963    0.0000 C   0  0  0  0  0  0  0  0  0
    8.4119   -3.3838    0.0000 C   0  0  0  0  0  0  0  0  0
    9.1263   -3.7963    0.0000 C   0  0  0  0  0  0  0  0  0
    6.6578   -2.7567    0.0000 C   0  0  0  0  0  0  0  0  0
    5.8509   -2.5852    0.0000 C   0  0  0  0  0  0  0  0  0
    5.5959   -1.8006    0.0000 C   0  0  0  0  0  0  0  0  0
    6.1480   -1.1875    0.0000 N   0  0  0  0  0  0  0  0  0
    6.9549   -1.3590    0.0000 C   0  0  0  0  0  0  0  0  0
    7.2099   -2.1436    0.0000 C   0  0  0  0  0  0  0  0  0
    5.8930   -0.4028    0.0000 C   0  0  0  0  0  0  0  0  0
    5.0861   -0.2313    0.0000 C   0  0  0  0  0  0  0  0  0
    4.8311    0.5533    0.0000 C   0  0  0  0  0  0  0  0  0
    4.0241    0.7248    0.0000 O   0  0  0  0  0  0  0  0  0
    3.7692    1.5095    0.0000 C   0  0  0  0  0  0  0  0  0
    2.9622    1.6810    0.0000 C   0  0  0  0  0  0  0  0  0
    2.7073    2.4656    0.0000 C   0  0  0  0  0  0  0  0  0
    3.2593    3.0787    0.0000 C   0  0  0  0  0  0  0  0  0
    4.0663    2.9072    0.0000 C   0  0  0  0  0  0  0  0  0
    4.3212    2.1225    0.0000 C   0  0  0  0  0  0  0  0  0
    5.1282    1.9510    0.0000 O   0  0  0  0  0  0  0  0  0
    5.6802    2.5641    0.0000 C   0  0  0  0  0  0  0  0  0
    3.0044    3.8633    0.0000 C   0  0  0  0  0  0  0  0  0
    2.1974    4.0348    0.0000 O   0  0  0  0  0  0  0  0  0
    3.5564    4.4764    0.0000 C   0  0  0  0  0  0  0  0  0
  1  2  1  0  0  0  0
  2  3  4  0  0  0  0
  2 10  4  0  0  0  0
  3  4  4  0  0  0  0
  4  5  4  0  0  0  0
  4  8  4  0  0  0  0
  5  6  4  0  0  0  0
  6  7  4  0  0  0  0
  7  8  4  0  0  0  0
  7 11  1  0  0  0  0
  8  9  4  0  0  0  0
  9 10  4  0  0  0  0
 11 12  1  0  0  0  0
 11 16  1  0  0  0  0
 12 13  1  0  0  0  0
 13 14  1  0  0  0  0
 14 15  1  0  0  0  0
 14 17  1  0  0  0  0
 15 16  1  0  0  0  0
 17 18  1  0  0  0  0
 18 19  1  0  0  0  0
 19 20  1  0  0  0  0
 20 21  1  0  0  0  0
 21 22  4  0  0  0  0
 21 26  4  0  0  0  0
 22 23  4  0  0  0  0
 23 24  4  0  0  0  0
 24 25  4  0  0  0  0
 24 29  1  0  0  0  0
 25 26  4  0  0  0  0
 26 27  1  0  0  0  0
 27 28  1  0  0  0  0
 29 30  2  0  0  0  0
 29 31  1  0  0  0  0
M  END
>  <Name_Molregno>
ILOPERIDONE

>  <5-HT1A>
7.18

>  <5-HT1B>
7.05

>  <5-HT1D>
7.82

>  <5-HT2A>
9.46

>  <5-HT2C>
7.27

>  <5-HT3>
5

>  <5-HT6>
7.2

>  <5-HT7>
6.95

>  <Alpha-2A>
6.79

>  <Alpha-2B>
6.79

>  <Alpha-2C>
7.79

>  <Beta-1>
5

>  <Beta-2>
5

>  <DOPAMINE D1>
7.02

>  <DOPAMINE D2>
8.23

>  <DOPAMINE D3>
8

>  <DOPAMINE D4>
7.96

>  <DOPAMINE D5>
6.5

>  <Dopamine transporter>
5.53

>  <HISTAMINE H1>
7.91

>  <Muscarinic acetylcholine receptor M1>
5.31

>  <Muscarinic acetylcholine receptor M2>
5.48

>  <Muscarinic acetylcholine receptor M3>
5

>  <Muscarinic acetylcholine receptor M4>
5.08

>  <Muscarinic acetylcholine receptor M5>
5

>  <Norepinephrine transporter>
5.83

$$$$
KETANSERIN
  Marvin  02231216192D 0   1.00000     0.00000     0

 29 32  0  0  0  0  0  0  0  0999 V2000
    2.3505   -3.5857    0.0000 F   0  0  0  0  0  0  0  0  0
    2.3505   -2.7607    0.0000 C   0  0  0  0  0  0  0  0  0
    1.6360   -2.3482    0.0000 C   0  0  0  0  0  0  0  0  0
    1.6360   -1.5232    0.0000 C   0  0  0  0  0  0  0  0  0
    2.3505   -1.1107    0.0000 C   0  0  0  0  0  0  0  0  0
    3.0649   -1.5232    0.0000 C   0  0  0  0  0  0  0  0  0
    3.0649   -2.3482    0.0000 C   0  0  0  0  0  0  0  0  0
    2.3505   -0.2857    0.0000 C   0  0  0  0  0  0  0  0  0
    1.6360    0.1268    0.0000 O   0  0  0  0  0  0  0  0  0
    3.0649    0.1268    0.0000 C   0  0  0  0  0  0  0  0  0
    3.0649    0.9518    0.0000 C   0  0  0  0  0  0  0  0  0
    3.7794    1.3643    0.0000 C   0  0  0  0  0  0  0  0  0
    4.4939    0.9518    0.0000 N   0  0  0  0  0  0  0  0  0
    4.4939    0.1268    0.0000 C   0  0  0  0  0  0  0  0  0
    3.7794   -0.2857    0.0000 C   0  0  0  0  0  0  0  0  0
    5.2083    1.3643    0.0000 C   0  0  0  0  0  0  0  0  0
    5.9228    0.9518    0.0000 C   0  0  0  0  0  0  0  0  0
    6.6373    1.3643    0.0000 N   0  0  0  0  0  0  0  0  0
    7.3518    0.9518    0.0000 C   0  0  0  0  0  0  0  0  0
    7.3518    0.1268    0.0000 O   0  0  0  0  0  0  0  0  0
    8.0662    1.3643    0.0000 C   0  0  0  0  0  0  0  0  0
    8.0662    2.1893    0.0000 C   0  0  0  0  0  0  0  0  0
    7.3518    2.6018    0.0000 N   0  0  0  0  0  0  0  0  0
    6.6373    2.1893    0.0000 C   0  0  0  0  0  0  0  0  0
    5.9228    2.6018    0.0000 O   0  0  0  0  0  0  0  0  0
    8.7807    2.6018    0.0000 C   0  0  0  0  0  0  0  0  0
    9.4952    2.1893    0.0000 C   0  0  0  0  0  0  0  0  0
    9.4952    1.3643    0.0000 C   0  0  0  0  0  0  0  0  0
    8.7807    0.9518    0.0000 C   0  0  0  0  0  0  0  0  0
  1  2  1  0  0  0  0
  2  3  4  0  0  0  0
  2  7  4  0  0  0  0
  3  4  4  0  0  0  0
  4  5  4  0  0  0  0
  5  6  4  0  0  0  0
  5  8  1  0  0  0  0
  6  7  4  0  0  0  0
  8  9  2  0  0  0  0
  8 10  1  0  0  0  0
 10 11  1  0  0  0  0
 10 15  1  0  0  0  0
 11 12  1  0  0  0  0
 12 13  1  0  0  0  0
 13 14  1  0  0  0  0
 13 16  1  0  0  0  0
 14 15  1  0  0  0  0
 16 17  1  0  0  0  0
 17 18  1  0  0  0  0
 18 19  1  0  0  0  0
 18 24  1  0  0  0  0
 19 20  2  0  0  0  0
 19 21  1  0  0  0  0
 21 22  4  0  0  0  0
 21 29  4  0  0  0  0
 22 23  1  0  0  0  0
 22 26  4  0  0  0  0
 23 24  1  0  0  0  0
 24 25  2  0  0  0  0
 26 27  4  0  0  0  0
 27 28  4  0  0  0  0
 28 29  4  0  0  0  0
M  END
>  <Name_Molregno>
KETANSERIN

>  <5-HT1A>
5.28

>  <5-HT1B>
5.48

>  <5-HT1D>
5.65

>  <5-HT1E>
5

>  <5-HT2A>
8.67

>  <5-HT2C>
7.08

>  <5-HT5>
4.7

>  <5-HT6>
5.55

>  <5-HT7>
6.1

>  <Alpha-2B>
6.7

>  <DOPAMINE D1>
6.52

>  <DOPAMINE D2>
5

>  <DOPAMINE D5>
5.6

>  <Dopamine transporter>
5

>  <HISTAMINE H1>
8.75

$$$$
Ketorolac
  Marvin  02231216192D 0   1.00000     0.00000     0

 19 21  0  0  1  0  0  0  0  0999 V2000
    1.4450    2.2138    0.0000 O   0  0  0  0  0  0  0  0  0
    2.2520    2.0422    0.0000 C   0  0  0  0  0  0  0  0  0
    2.8040    2.6553    0.0000 O   0  0  0  0  0  0  0  0  0
    2.5069    1.2576    0.0000 C   0  0  0  0  0  0  0  0  0
    2.0220    0.5902    0.0000 C   0  0  0  0  0  0  0  0  0
    2.5069   -0.0773    0.0000 C   0  0  0  0  0  0  0  0  0
    3.2915    0.1777    0.0000 N   0  0  0  0  0  0  0  0  0
    3.2915    1.0027    0.0000 C   0  0  0  0  0  0  0  0  0
    4.0761    1.2576    0.0000 C   0  0  0  0  0  0  0  0  0
    4.5611    0.5902    0.0000 C   0  0  0  0  0  0  0  0  0
    4.0761   -0.0773    0.0000 C   0  0  0  0  0  0  0  0  0
    4.3311   -0.8619    0.0000 C   0  0  0  0  0  0  0  0  0
    5.1381   -1.0334    0.0000 O   0  0  0  0  0  0  0  0  0
    3.7791   -1.4750    0.0000 C   0  0  0  0  0  0  0  0  0
    4.0340   -2.2596    0.0000 C   0  0  0  0  0  0  0  0  0
    3.4820   -2.8727    0.0000 C   0  0  0  0  0  0  0  0  0
    2.6750   -2.7012    0.0000 C   0  0  0  0  0  0  0  0  0
    2.4201   -1.9166    0.0000 C   0  0  0  0  0  0  0  0  0
    2.9721   -1.3035    0.0000 C   0  0  0  0  0  0  0  0  0
  1  2  1  0  0  0  0
  2  3  2  0  0  0  0
  2  4  1  0  0  0  0
  4  5  1  0  0  0  0
  4  8  1  0  0  0  0
  5  6  1  0  0  0  0
  6  7  1  0  0  0  0
  7  8  4  0  0  0  0
  7 11  4  0  0  0  0
  8  9  4  0  0  0  0
  9 10  4  0  0  0  0
 10 11  4  0  0  0  0
 11 12  1  0  0  0  0
 12 13  2  0  0  0  0
 12 14  1  0  0  0  0
 14 15  4  0  0  0  0
 14 19  4  0  0  0  0
 15 16  4  0  0  0  0
 16 17  4  0  0  0  0
 17 18  4  0  0  0  0
 18 19  4  0  0  0  0
M  END
>  <Name_Molregno>
Ketorolac

>  <5-HT1A>
5

>  <5-HT1B>
5

>  <5-HT1D>
5

>  <5-HT1E>
5

>  <5-HT2A>
5

>  <5-HT3>
5

>  <5-HT5>
5

>  <5-HT6>
5

>  <5-HT7>
5

>  <Alpha-1A>
5

>  <Alpha-1B>
5

>  <Alpha-2A>
5

>  <Alpha-2B>
5

>  <Alpha-2C>
5

>  <DOPAMINE D1>
5

>  <DOPAMINE D2>
5

>  <DOPAMINE D4>
5

>  <DOPAMINE D5>
5

>  <Dopamine transporter>
5

>  <HISTAMINE H1>
5

>  <HISTAMINE H2>
5

>  <Muscarinic acetylcholine receptor M2>
5

>  <Muscarinic acetylcholine receptor M5>
5

>  <Norepinephrine transporter>
5

>  <Serotonin transporter>
5

$$$$
L-cysteic-acid
  Marvin  02231216192D 0   1.00000     0.00000     0

 10  9  0  0  1  0  0  0  0  0999 V2000
   -1.9749    0.1579    0.0000 S   0  0  0  0  0  0  0  0  0
   -2.6894    0.5704    0.0000 O   0  0  0  0  0  0  0  0  0
   -2.3874   -0.5565    0.0000 O   0  0  0  0  0  0  0  0  0
   -1.5624    0.8724    0.0000 O   0  0  0  0  0  0  0  0  0
   -1.2605   -0.2546    0.0000 C   0  0  0  0  0  0  0  0  0
   -0.5460    0.1579    0.0000 C   0  0  0  0  0  0  0  0  0
   -0.5460    0.9829    0.0000 N   0  0  0  0  0  0  0  0  0
    0.1685   -0.2546    0.0000 C   0  0  0  0  0  0  0  0  0
    0.8829    0.1579    0.0000 O   0  0  0  0  0  0  0  0  0
    0.1685   -1.0796    0.0000 O   0  0  0  0  0  0  0  0  0
  1  2  2  0  0  0  0
  1  3  2  0  0  0  0
  1  4  1  0  0  0  0
  1  5  1  0  0  0  0
  5  6  1  0  0  0  0
  6  7  1  0  0  0  0
  6  8  1  0  0  0  0
  8  9  1  0  0  0  0
  8 10  2  0  0  0  0
M  END
>  <Name_Molregno>
L-cysteic-acid

>  <5-HT1A>
5

>  <5-HT1B>
5

>  <5-HT1D>
5

>  <5-HT3>
5

>  <5-HT5>
5

>  <5-HT6>
5

>  <5-HT7>
5

>  <Alpha-1A>
5

>  <Alpha-1B>
5

>  <Alpha-2A>
5

>  <Alpha-2C>
5

>  <DOPAMINE D1>
5

>  <DOPAMINE D2>
5

>  <DOPAMINE D3>
5

>  <DOPAMINE D5>
5

>  <Dopamine transporter>
5

>  <HISTAMINE H1>
5

>  <HISTAMINE H2>
5

>  <HISTAMINE H4>
5

>  <Muscarinic acetylcholine receptor M1>
5

>  <Muscarinic acetylcholine receptor M2>
5

>  <Muscarinic acetylcholine receptor M3>
5

>  <Muscarinic acetylcholine receptor M4>
5

>  <Muscarinic acetylcholine receptor M5>
5

>  <Norepinephrine transporter>
5

>  <Serotonin transporter>
5

$$$$
L-cysteine
  Marvin  02231216192D 0   1.00000     0.00000     0

  7  6  0  0  1  0  0  0  0  0999 V2000
    1.5580    2.1190    0.0000 S   0  0  0  0  0  0  0  0  0
    1.1455    1.4045    0.0000 C   0  0  0  0  0  0  0  0  0
    1.5580    0.6901    0.0000 C   0  0  0  0  0  0  0  0  0
    2.3830    0.6901    0.0000 N   0  0  0  0  0  0  0  0  0
    1.1455   -0.0244    0.0000 C   0  0  0  0  0  0  0  0  0
    1.5580   -0.7389    0.0000 O   0  0  0  0  0  0  0  0  0
    0.3205   -0.0244    0.0000 O   0  0  0  0  0  0  0  0  0
  1  2  1  0  0  0  0
  2  3  1  0  0  0  0
  3  4  1  0  0  0  0
  3  5  1  0  0  0  0
  5  6  1  0  0  0  0
  5  7  2  0  0  0  0
M  END
>  <Name_Molregno>
L-cysteine

>  <5-HT1A>
5

>  <5-HT1B>
5

>  <5-HT1D>
5

>  <5-HT3>
5

>  <5-HT5>
5

>  <5-HT6>
5

>  <5-HT7>
5

>  <Alpha-1A>
5

>  <Alpha-1B>
5

>  <Alpha-2A>
5

>  <Alpha-2B>
5

>  <Alpha-2C>
5

>  <DOPAMINE D1>
5

>  <DOPAMINE D2>
5

>  <DOPAMINE D3>
5

>  <DOPAMINE D5>
5

>  <Dopamine transporter>
5

>  <HISTAMINE H1>
5

>  <HISTAMINE H2>
5

>  <HISTAMINE H4>
5

>  <Muscarinic acetylcholine receptor M1>
5

>  <Muscarinic acetylcholine receptor M2>
5

>  <Muscarinic acetylcholine receptor M3>
5

>  <Muscarinic acetylcholine receptor M4>
5

>  <Muscarinic acetylcholine receptor M5>
5

>  <Norepinephrine transporter>
5

>  <Serotonin transporter>
5

$$$$
L-cysteine-sulfinic-acid
  Marvin  02231216192D 0   1.00000     0.00000     0

  9  8  0  0  1  0  0  0  0  0999 V2000
   -2.0945    0.5537    0.0000 S   0  0  0  0  0  0  0  0  0
   -2.8090    0.1412    0.0000 O   0  0  0  0  0  0  0  0  0
   -2.0945    1.3787    0.0000 O   0  0  0  0  0  0  0  0  0
   -1.3800    0.1412    0.0000 C   0  0  0  0  0  0  0  0  0
   -0.6656    0.5537    0.0000 C   0  0  0  0  0  0  0  0  0
   -0.6656    1.3787    0.0000 N   0  0  0  0  0  0  0  0  0
    0.0489    0.1412    0.0000 C   0  0  0  0  0  0  0  0  0
    0.7634    0.5537    0.0000 O   0  0  0  0  0  0  0  0  0
    0.0489   -0.6838    0.0000 O   0  0  0  0  0  0  0  0  0
  1  2  2  0  0  0  0
  1  3  1  0  0  0  0
  1  4  1  0  0  0  0
  4  5  1  0  0  0  0
  5  6  1  0  0  0  0
  5  7  1  0  0  0  0
  7  8  1  0  0  0  0
  7  9  2  0  0  0  0
M  END
>  <Name_Molregno>
L-cysteine-sulfinic-acid

>  <5-HT1A>
5

>  <5-HT1B>
5

>  <5-HT1D>
5

>  <5-HT3>
5

>  <5-HT5>
5

>  <5-HT6>
5

>  <5-HT7>
5

>  <Alpha-1A>
5

>  <Alpha-1B>
5

>  <Alpha-2A>
5

>  <Alpha-2B>
5

>  <Alpha-2C>
5

>  <DOPAMINE D1>
5

>  <DOPAMINE D2>
5

>  <DOPAMINE D3>
5

>  <DOPAMINE D5>
5

>  <Dopamine transporter>
5

>  <HISTAMINE H1>
5

>  <HISTAMINE H2>
5

>  <HISTAMINE H4>
5

>  <Muscarinic acetylcholine receptor M1>
5

>  <Muscarinic acetylcholine receptor M2>
5

>  <Muscarinic acetylcholine receptor M3>
5

>  <Muscarinic acetylcholine receptor M4>
5

>  <Muscarinic acetylcholine receptor M5>
5

>  <Norepinephrine transporter>
5

>  <Serotonin transporter>
5

$$$$
L-homocysteine-thiolactone
  Marvin  02231216192D 0   1.00000     0.00000     0

  7  7  0  0  1  0  0  0  0  0999 V2000
    1.4299   -0.7189    0.0000 S   0  0  0  0  0  0  0  0  0
    1.1749   -1.5035    0.0000 C   0  0  0  0  0  0  0  0  0
    0.3499   -1.5035    0.0000 C   0  0  0  0  0  0  0  0  0
    0.0950   -0.7189    0.0000 C   0  0  0  0  0  0  0  0  0
   -0.6896   -0.4639    0.0000 N   0  0  0  0  0  0  0  0  0
    0.7624   -0.2339    0.0000 C   0  0  0  0  0  0  0  0  0
    0.7624    0.5911    0.0000 O   0  0  0  0  0  0  0  0  0
  1  2  1  0  0  0  0
  1  6  1  0  0  0  0
  2  3  1  0  0  0  0
  3  4  1  0  0  0  0
  4  5  1  0  0  0  0
  4  6  1  0  0  0  0
  6  7  2  0  0  0  0
M  END
>  <Name_Molregno>
L-homocysteine-thiolactone

>  <5-HT1A>
5

>  <5-HT3>
5

>  <5-HT5>
5

>  <5-HT6>
5

>  <5-HT7>
5

>  <Alpha-1A>
5

>  <Alpha-1B>
5

>  <Alpha-2A>
5

>  <Alpha-2B>
5

>  <Alpha-2C>
5

>  <DOPAMINE D1>
5

>  <DOPAMINE D2>
5

>  <DOPAMINE D5>
5

>  <Dopamine transporter>
5

>  <HISTAMINE H1>
5

>  <HISTAMINE H2>
5

>  <HISTAMINE H4>
5

>  <Muscarinic acetylcholine receptor M1>
5

>  <Muscarinic acetylcholine receptor M2>
5

>  <Muscarinic acetylcholine receptor M3>
5

>  <Muscarinic acetylcholine receptor M4>
5

>  <Muscarinic acetylcholine receptor M5>
5

>  <Norepinephrine transporter>
5

>  <Serotonin transporter>
5

$$$$
LOXAPINE
  Marvin  02231216192D 0   1.00000     0.00000     0

 23 26  0  0  0  0  0  0  0  0999 V2000
    3.9671    1.6854    0.0000 Cl  0  0  0  0  0  0  0  0  0
    3.1788    1.4422    0.0000 C   0  0  0  0  0  0  0  0  0
    2.5740    2.0033    0.0000 C   0  0  0  0  0  0  0  0  0
    1.7856    1.7602    0.0000 C   0  0  0  0  0  0  0  0  0
    1.6021    0.9558    0.0000 C   0  0  0  0  0  0  0  0  0
    0.8588    0.5979    0.0000 O   0  0  0  0  0  0  0  0  0
    0.1155    0.9558    0.0000 C   0  0  0  0  0  0  0  0  0
   -0.0681    1.7602    0.0000 C   0  0  0  0  0  0  0  0  0
    0.4463    2.4052    0.0000 N   0  0  0  0  0  0  0  0  0
    1.2713    2.4052    0.0000 C   0  0  0  0  0  0  0  0  0
    1.6292    3.1485    0.0000 N   0  0  0  0  0  0  0  0  0
    1.1645    3.8301    0.0000 C   0  0  0  0  0  0  0  0  0
    1.5224    4.5734    0.0000 C   0  0  0  0  0  0  0  0  0
    2.3451    4.6351    0.0000 N   0  0  0  0  0  0  0  0  0
    2.8099    3.9534    0.0000 C   0  0  0  0  0  0  0  0  0
    2.4519    3.2101    0.0000 C   0  0  0  0  0  0  0  0  0
    2.7031    5.3784    0.0000 C   0  0  0  0  0  0  0  0  0
   -0.8565    2.0033    0.0000 C   0  0  0  0  0  0  0  0  0
   -1.4612    1.4422    0.0000 C   0  0  0  0  0  0  0  0  0
   -1.2776    0.6379    0.0000 C   0  0  0  0  0  0  0  0  0
   -0.4893    0.3947    0.0000 C   0  0  0  0  0  0  0  0  0
    2.2068    0.3947    0.0000 C   0  0  0  0  0  0  0  0  0
    2.9952    0.6379    0.0000 C   0  0  0  0  0  0  0  0  0
  1  2  1  0  0  0  0
  2  3  4  0  0  0  0
  2 23  4  0  0  0  0
  3  4  4  0  0  0  0
  4  5  4  0  0  0  0
  4 10  1  0  0  0  0
  5  6  1  0  0  0  0
  5 22  4  0  0  0  0
  6  7  1  0  0  0  0
  7  8  4  0  0  0  0
  7 21  4  0  0  0  0
  8  9  1  0  0  0  0
  8 18  4  0  0  0  0
  9 10  2  0  0  0  0
 10 11  1  0  0  0  0
 11 12  1  0  0  0  0
 11 16  1  0  0  0  0
 12 13  1  0  0  0  0
 13 14  1  0  0  0  0
 14 15  1  0  0  0  0
 14 17  1  0  0  0  0
 15 16  1  0  0  0  0
 18 19  4  0  0  0  0
 19 20  4  0  0  0  0
 20 21  4  0  0  0  0
 22 23  4  0  0  0  0
M  END
>  <Name_Molregno>
LOXAPINE

>  <5-HT1A>
5.59

>  <5-HT1B>
6.41

>  <5-HT1D>
5.46

>  <5-HT1E>
5.85

>  <5-HT2A>
8.43

>  <5-HT2C>
7.9

>  <5-HT3>
6.72

>  <5-HT5>
6.11

>  <5-HT6>
7.46

>  <5-HT7>
7.06

>  <Alpha-1A>
7.51

>  <Alpha-1B>
7.28

>  <Alpha-2A>
6.82

>  <Alpha-2B>
6.97

>  <Alpha-2C>
7.1

>  <Beta-1>
5

>  <Beta-2>
5

>  <DOPAMINE D1>
7.27

>  <DOPAMINE D2>
7.74

>  <DOPAMINE D3>
7.64

>  <DOPAMINE D4>
8.04

>  <DOPAMINE D5>
7.12

>  <Dopamine transporter>
5

>  <HISTAMINE H1>
8.33

>  <HISTAMINE H2>
6.68

>  <HISTAMINE H4>
5.32

>  <Muscarinic acetylcholine receptor M1>
6.98

>  <Muscarinic acetylcholine receptor M2>
6.38

>  <Muscarinic acetylcholine receptor M3>
6.74

>  <Muscarinic acetylcholine receptor M4>
6.09

>  <Muscarinic acetylcholine receptor M5>
6.83

>  <Norepinephrine transporter>
5.24

>  <Serotonin transporter>
5

$$$$
MAPROTILINE
  Marvin  02231216192D 0   1.00000     0.00000     0

 21 24  0  0  0  0  0  0  0  0999 V2000
    1.1690   -3.5982    0.0000 N   0  0  0  0  0  0  0  0  0
    1.8855   -3.1892    0.0000 C   0  0  0  0  0  0  0  0  0
    1.8895   -2.3643    0.0000 C   0  0  0  0  0  0  0  0  0
    2.6060   -1.9553    0.0000 C   0  0  0  0  0  0  0  0  0
    2.6101   -1.1303    0.0000 C   0  0  0  0  0  0  0  0  0
    2.7498   -0.0917    0.0000 C   0  0  0  0  0  0  0  0  0
    2.5051    0.5142    0.0000 C   0  0  0  0  0  0  0  0  0
    2.4674   -0.3819    0.0000 C   0  0  0  0  0  0  0  0  0
    3.2060   -0.7142    0.0000 C   0  0  0  0  0  0  0  0  0
    3.3678   -1.5232    0.0000 C   0  0  0  0  0  0  0  0  0
    4.1493   -1.7876    0.0000 C   0  0  0  0  0  0  0  0  0
    4.7690   -1.2429    0.0000 C   0  0  0  0  0  0  0  0  0
    4.6072   -0.4340    0.0000 C   0  0  0  0  0  0  0  0  0
    3.8257   -0.1696    0.0000 C   0  0  0  0  0  0  0  0  0
    1.6636   -0.7338    0.0000 C   0  0  0  0  0  0  0  0  0
    1.7795   -1.5506    0.0000 C   0  0  0  0  0  0  0  0  0
    1.1301   -2.0594    0.0000 C   0  0  0  0  0  0  0  0  0
    0.3648   -1.7514    0.0000 C   0  0  0  0  0  0  0  0  0
    0.2488   -0.9346    0.0000 C   0  0  0  0  0  0  0  0  0
    0.8983   -0.4258    0.0000 C   0  0  0  0  0  0  0  0  0
    1.1649   -4.4232    0.0000 C   0  0  0  0  0  0  0  0  0
  1  2  1  0  0  0  0
  1 21  1  0  0  0  0
  2  3  1  0  0  0  0
  3  4  1  0  0  0  0
  4  5  1  0  0  0  0
  5  6  1  0  0  0  0
  5 10  1  0  0  0  0
  5 16  1  0  0  0  0
  6  7  1  0  0  0  0
  7  8  1  0  0  0  0
  8  9  1  0  0  0  0
  8 15  1  0  0  0  0
  9 10  4  0  0  0  0
  9 14  4  0  0  0  0
 10 11  4  0  0  0  0
 11 12  4  0  0  0  0
 12 13  4  0  0  0  0
 13 14  4  0  0  0  0
 15 16  4  0  0  0  0
 15 20  4  0  0  0  0
 16 17  4  0  0  0  0
 17 18  4  0  0  0  0
 18 19  4  0  0  0  0
 19 20  4  0  0  0  0
M  END
>  <Name_Molregno>
MAPROTILINE

>  <DOPAMINE D1>
6.4

>  <DOPAMINE D2>
6.18

>  <DOPAMINE D3>
6.3

>  <DOPAMINE D5>
6.37

>  <Dopamine transporter>
6

>  <HISTAMINE H1>
8.89

>  <HISTAMINE H3>
6

>  <Norepinephrine transporter>
7.95

>  <Serotonin transporter>
5.24

$$$$
Meloxicam
  Marvin  02231216192D 0   1.00000     0.00000     0

 23 25  0  0  0  0  0  0  0  0999 V2000
    1.0530    2.3261    0.0000 S   0  0  0  0  0  0  0  0  0
    0.2461    2.4976    0.0000 C   0  0  0  0  0  0  0  0  0
   -0.1664    1.7831    0.0000 C   0  0  0  0  0  0  0  0  0
    0.3856    1.1700    0.0000 N   0  0  0  0  0  0  0  0  0
    1.1393    1.5056    0.0000 C   0  0  0  0  0  0  0  0  0
    1.8537    1.0931    0.0000 N   0  0  0  0  0  0  0  0  0
    1.8537    0.2681    0.0000 C   0  0  0  0  0  0  0  0  0
    1.1393   -0.1444    0.0000 O   0  0  0  0  0  0  0  0  0
    2.5682   -0.1444    0.0000 C   0  0  0  0  0  0  0  0  0
    2.5682   -0.9694    0.0000 N   0  0  0  0  0  0  0  0  0
    3.2827   -1.3819    0.0000 S   0  0  0  0  0  0  0  0  0
    2.7524   -2.0139    0.0000 O   0  0  0  0  0  0  0  0  0
    3.8130   -2.0139    0.0000 O   0  0  0  0  0  0  0  0  0
    3.9972   -0.9694    0.0000 C   0  0  0  0  0  0  0  0  0
    3.9972   -0.1444    0.0000 C   0  0  0  0  0  0  0  0  0
    4.7116    0.2681    0.0000 C   0  0  0  0  0  0  0  0  0
    5.4261   -0.1444    0.0000 C   0  0  0  0  0  0  0  0  0
    5.4261   -0.9694    0.0000 C   0  0  0  0  0  0  0  0  0
    4.7116   -1.3819    0.0000 C   0  0  0  0  0  0  0  0  0
    3.2827    0.2681    0.0000 C   0  0  0  0  0  0  0  0  0
    3.2827    1.0931    0.0000 O   0  0  0  0  0  0  0  0  0
    1.8537   -1.3819    0.0000 C   0  0  0  0  0  0  0  0  0
   -0.0895    3.2513    0.0000 C   0  0  0  0  0  0  0  0  0
  1  2  4  0  0  0  0
  1  5  4  0  0  0  0
  2  3  4  0  0  0  0
  2 23  1  0  0  0  0
  3  4  4  0  0  0  0
  4  5  4  0  0  0  0
  5  6  1  0  0  0  0
  6  7  1  0  0  0  0
  7  8  1  0  0  0  0
  7  9  2  0  0  0  0
  9 10  1  0  0  0  0
  9 20  1  0  0  0  0
 10 11  1  0  0  0  0
 10 22  1  0  0  0  0
 11 12  2  0  0  0  0
 11 13  2  0  0  0  0
 11 14  1  0  0  0  0
 14 15  4  0  0  0  0
 14 19  4  0  0  0  0
 15 16  4  0  0  0  0
 15 20  1  0  0  0  0
 16 17  4  0  0  0  0
 17 18  4  0  0  0  0
 18 19  4  0  0  0  0
 20 21  2  0  0  0  0
M  END
>  <Name_Molregno>
Meloxicam

>  <5-HT1A>
5

>  <5-HT1B>
5

>  <5-HT1D>
5

>  <5-HT1E>
5

>  <5-HT2A>
5

>  <5-HT3>
5

>  <5-HT5>
5

>  <5-HT6>
5

>  <5-HT7>
5

>  <Alpha-1A>
5

>  <Alpha-1B>
5

>  <Alpha-2A>
5

>  <Alpha-2B>
5

>  <Alpha-2C>
5

>  <DOPAMINE D1>
5

>  <DOPAMINE D2>
5

>  <DOPAMINE D4>
5

>  <DOPAMINE D5>
5

>  <Dopamine transporter>
5

>  <HISTAMINE H1>
5

>  <HISTAMINE H2>
5

>  <HISTAMINE H4>
5

>  <Muscarinic acetylcholine receptor M2>
5

>  <Muscarinic acetylcholine receptor M5>
5

>  <Norepinephrine transporter>
5

>  <Serotonin transporter>
5

$$$$
Methcathinone
  Marvin  02231216192D 0   1.00000     0.00000     0

 12 12  0  0  1  0  0  0  0  0999 V2000
    1.9192   -0.0549    0.0000 O   0  0  0  0  0  0  0  0  0
    1.2047   -0.4674    0.0000 C   0  0  0  0  0  0  0  0  0
    0.4903   -0.0549    0.0000 C   0  0  0  0  0  0  0  0  0
    0.4903    0.7701    0.0000 N   0  0  0  0  0  0  0  0  0
   -0.2242    1.1826    0.0000 C   0  0  0  0  0  0  0  0  0
   -0.2242   -0.4674    0.0000 C   0  0  0  0  0  0  0  0  0
    1.2047   -1.2924    0.0000 C   0  0  0  0  0  0  0  0  0
    1.9192   -1.7049    0.0000 C   0  0  0  0  0  0  0  0  0
    1.9192   -2.5299    0.0000 C   0  0  0  0  0  0  0  0  0
    1.2047   -2.9424    0.0000 C   0  0  0  0  0  0  0  0  0
    0.4903   -2.5299    0.0000 C   0  0  0  0  0  0  0  0  0
    0.4903   -1.7049    0.0000 C   0  0  0  0  0  0  0  0  0
  1  2  2  0  0  0  0
  2  3  1  0  0  0  0
  2  7  1  0  0  0  0
  3  4  1  0  0  0  0
  3  6  1  0  0  0  0
  4  5  1  0  0  0  0
  7  8  4  0  0  0  0
  7 12  4  0  0  0  0
  8  9  4  0  0  0  0
  9 10  4  0  0  0  0
 10 11  4  0  0  0  0
 11 12  4  0  0  0  0
M  END
>  <Name_Molregno>
Methcathinone

>  <5-HT1A>
5

>  <5-HT1B>
5

>  <5-HT1D>
5

>  <5-HT1E>
5

>  <5-HT3>
5

>  <5-HT5>
5

>  <5-HT6>
5

>  <5-HT7>
6

>  <Alpha-1A>
5

>  <Alpha-1B>
5

>  <Alpha-2A>
5.04

>  <Alpha-2B>
5.81

>  <Alpha-2C>
6.22

>  <Beta-1>
5

>  <Beta-2>
5

>  <DOPAMINE D1>
5

>  <DOPAMINE D2>
5

>  <DOPAMINE D4>
5

>  <DOPAMINE D5>
5

>  <Dopamine transporter>
6.41

>  <HISTAMINE H1>
5

>  <HISTAMINE H2>
5

>  <HISTAMINE H4>
5

>  <Muscarinic acetylcholine receptor M1>
5

>  <Muscarinic acetylcholine receptor M2>
5

>  <Muscarinic acetylcholine receptor M3>
5

>  <Muscarinic acetylcholine receptor M4>
5

>  <Muscarinic acetylcholine receptor M5>
5

>  <Norepinephrine transporter>
6.87

>  <Serotonin transporter>
5.38

$$$$
METHYSERGIDE
  Marvin  02231216192D 0   1.00000     0.00000     0

 26 29  0  0  1  0  0  0  0  0999 V2000
   -5.6466   -4.8655    0.0000 O   0  0  0  0  0  0  0  0  0
   -5.6457   -4.0405    0.0000 C   0  0  0  0  0  0  0  0  0
   -4.9307   -3.6289    0.0000 C   0  0  0  0  0  0  0  0  0
   -4.9297   -2.8039    0.0000 N   0  0  0  0  0  0  0  0  0
   -4.2147   -2.3922    0.0000 C   0  0  0  0  0  0  0  0  0
   -3.5008   -2.8056    0.0000 O   0  0  0  0  0  0  0  0  0
   -4.2138   -1.5672    0.0000 C   0  0  0  0  0  0  0  0  0
   -3.4988   -1.1556    0.0000 C   0  0  0  0  0  0  0  0  0
   -3.4978   -0.3306    0.0000 C   0  0  0  0  0  0  0  0  0
   -4.2118    0.0828    0.0000 C   0  0  0  0  0  0  0  0  0
   -4.9267   -0.3289    0.0000 N   0  0  0  0  0  0  0  0  0
   -4.9277   -1.1539    0.0000 C   0  0  0  0  0  0  0  0  0
   -5.6407    0.0845    0.0000 C   0  0  0  0  0  0  0  0  0
   -4.2103    0.9069    0.0000 C   0  0  0  0  0  0  0  0  0
   -3.4978    1.3194    0.0000 C   0  0  0  0  0  0  0  0  0
   -2.7853    0.9069    0.0000 C   0  0  0  0  0  0  0  0  0
   -2.7853    0.0819    0.0000 C   0  0  0  0  0  0  0  0  0
   -2.0674   -0.3306    0.0000 C   0  0  0  0  0  0  0  0  0
   -1.3549    0.0819    0.0000 C   0  0  0  0  0  0  0  0  0
   -1.3549    0.9069    0.0000 C   0  0  0  0  0  0  0  0  0
   -2.0674    1.3194    0.0000 C   0  0  0  0  0  0  0  0  0
   -2.3728    2.1766    0.0000 N   0  0  0  0  0  0  0  0  0
   -3.1978    2.1766    0.0000 C   0  0  0  0  0  0  0  0  0
   -1.8973    2.8507    0.0000 C   0  0  0  0  0  0  0  0  0
   -4.2167   -4.0422    0.0000 C   0  0  0  0  0  0  0  0  0
   -4.2177   -4.8672    0.0000 C   0  0  0  0  0  0  0  0  0
  1  2  1  0  0  0  0
  2  3  1  0  0  0  0
  3  4  1  0  0  0  0
  3 25  1  0  0  0  0
  4  5  1  0  0  0  0
  5  6  2  0  0  0  0
  5  7  1  0  0  0  0
  7  8  1  0  0  0  0
  7 12  1  0  0  0  0
  8  9  2  0  0  0  0
  9 10  1  0  0  0  0
  9 17  1  0  0  0  0
 10 11  1  0  0  0  0
 10 14  1  0  0  0  0
 11 12  1  0  0  0  0
 11 13  1  0  0  0  0
 14 15  1  0  0  0  0
 15 16  4  0  0  0  0
 15 23  4  0  0  0  0
 16 17  4  0  0  0  0
 16 21  4  0  0  0  0
 17 18  4  0  0  0  0
 18 19  4  0  0  0  0
 19 20  4  0  0  0  0
 20 21  4  0  0  0  0
 21 22  4  0  0  0  0
 22 23  4  0  0  0  0
 22 24  1  0  0  0  0
 25 26  1  0  0  0  0
M  END
>  <Name_Molregno>
METHYSERGIDE

>  <5-HT1A>
7.81

>  <5-HT1B>
7.91

>  <5-HT1D>
7.56

>  <5-HT1E>
6.71

>  <5-HT2A>
8.05

>  <5-HT2C>
8.69

>  <5-HT3>
5

>  <5-HT5>
5

>  <5-HT6>
6.82

>  <5-HT7>
7.32

>  <Alpha-1A>
5

>  <Alpha-1B>
5

>  <Alpha-2A>
6.77

>  <Alpha-2B>
6.97

>  <Alpha-2C>
7.05

>  <Beta-1>
5

>  <Beta-2>
5

>  <DOPAMINE D1>
5

>  <DOPAMINE D2>
5

>  <DOPAMINE D4>
5

>  <DOPAMINE D5>
5

>  <Dopamine transporter>
5

>  <HISTAMINE H1>
5.26

>  <HISTAMINE H2>
5

>  <Muscarinic acetylcholine receptor M1>
5.26

>  <Muscarinic acetylcholine receptor M2>
5.21

>  <Muscarinic acetylcholine receptor M3>
5.33

>  <Muscarinic acetylcholine receptor M4>
5

>  <Muscarinic acetylcholine receptor M5>
5

>  <Norepinephrine transporter>
5

>  <Serotonin transporter>
5

$$$$
N-(4-Acetamidophenyl)indomethacinamide
  Marvin  02231216192D 0   1.00000     0.00000     0

 37 40  0  0  0  0  0  0  0  0999 V2000
    0.5106    2.7433    0.0000 Cl  0  0  0  0  0  0  0  0  0
    1.3311    2.6571    0.0000 C   0  0  0  0  0  0  0  0  0
    1.8160    3.3245    0.0000 C   0  0  0  0  0  0  0  0  0
    2.6365    3.2383    0.0000 C   0  0  0  0  0  0  0  0  0
    2.9720    2.4846    0.0000 C   0  0  0  0  0  0  0  0  0
    2.4871    1.8172    0.0000 C   0  0  0  0  0  0  0  0  0
    1.6666    1.9034    0.0000 C   0  0  0  0  0  0  0  0  0
    3.7925    2.3984    0.0000 C   0  0  0  0  0  0  0  0  0
    4.2774    3.0658    0.0000 O   0  0  0  0  0  0  0  0  0
    4.1281    1.6447    0.0000 N   0  0  0  0  0  0  0  0  0
    3.7156    0.9302    0.0000 C   0  0  0  0  0  0  0  0  0
    4.2676    0.3171    0.0000 C   0  0  0  0  0  0  0  0  0
    4.0127   -0.4675    0.0000 C   0  0  0  0  0  0  0  0  0
    3.2057   -0.6390    0.0000 C   0  0  0  0  0  0  0  0  0
    2.9508   -1.4236    0.0000 O   0  0  0  0  0  0  0  0  0
    2.1438   -1.5952    0.0000 C   0  0  0  0  0  0  0  0  0
    2.6537   -0.0259    0.0000 C   0  0  0  0  0  0  0  0  0
    2.9086    0.7587    0.0000 C   0  0  0  0  0  0  0  0  0
    5.0213    0.6527    0.0000 C   0  0  0  0  0  0  0  0  0
    5.7358    0.2402    0.0000 C   0  0  0  0  0  0  0  0  0
    5.7358   -0.5848    0.0000 C   0  0  0  0  0  0  0  0  0
    5.0213   -0.9973    0.0000 O   0  0  0  0  0  0  0  0  0
    6.4502   -0.9973    0.0000 N   0  0  0  0  0  0  0  0  0
    7.1647   -0.5848    0.0000 C   0  0  0  0  0  0  0  0  0
    7.1647    0.2402    0.0000 C   0  0  0  0  0  0  0  0  0
    7.8792    0.6527    0.0000 C   0  0  0  0  0  0  0  0  0
    7.8792    1.4777    0.0000 C   0  0  0  0  0  0  0  0  0
    8.5936    1.8902    0.0000 C   0  0  0  0  0  0  0  0  0
    9.3081    1.4777    0.0000 C   0  0  0  0  0  0  0  0  0
   10.0226    1.8902    0.0000 N   0  0  0  0  0  0  0  0  0
   10.7371    1.4777    0.0000 C   0  0  0  0  0  0  0  0  0
   11.4515    1.8902    0.0000 O   0  0  0  0  0  0  0  0  0
   10.7371    0.6527    0.0000 C   0  0  0  0  0  0  0  0  0
    9.3081    0.6527    0.0000 C   0  0  0  0  0  0  0  0  0
    8.5936    0.2402    0.0000 C   0  0  0  0  0  0  0  0  0
    4.9351    1.4732    0.0000 C   0  0  0  0  0  0  0  0  0
    5.5481    2.0252    0.0000 C   0  0  0  0  0  0  0  0  0
  1  2  1  0  0  0  0
  2  3  4  0  0  0  0
  2  7  4  0  0  0  0
  3  4  4  0  0  0  0
  4  5  4  0  0  0  0
  5  6  4  0  0  0  0
  5  8  1  0  0  0  0
  6  7  4  0  0  0  0
  8  9  2  0  0  0  0
  8 10  1  0  0  0  0
 10 11  4  0  0  0  0
 10 36  4  0  0  0  0
 11 12  4  0  0  0  0
 11 18  4  0  0  0  0
 12 13  4  0  0  0  0
 12 19  4  0  0  0  0
 13 14  4  0  0  0  0
 14 15  1  0  0  0  0
 14 17  4  0  0  0  0
 15 16  1  0  0  0  0
 17 18  4  0  0  0  0
 19 20  1  0  0  0  0
 19 36  4  0  0  0  0
 20 21  1  0  0  0  0
 21 22  2  0  0  0  0
 21 23  1  0  0  0  0
 23 24  1  0  0  0  0
 24 25  1  0  0  0  0
 25 26  1  0  0  0  0
 26 27  4  0  0  0  0
 26 35  4  0  0  0  0
 27 28  4  0  0  0  0
 28 29  4  0  0  0  0
 29 30  1  0  0  0  0
 29 34  4  0  0  0  0
 30 31  1  0  0  0  0
 31 32  2  0  0  0  0
 31 33  1  0  0  0  0
 34 35  4  0  0  0  0
 36 37  1  0  0  0  0
M  END
>  <Name_Molregno>
N-(4-Acetamidophenyl)indomethacinamide

>  <5-HT1A>
5

>  <5-HT1B>
5

>  <5-HT1E>
5

>  <5-HT2A>
5

>  <5-HT3>
5

>  <5-HT6>
5

>  <5-HT7>
5

>  <Alpha-1A>
5

>  <Alpha-1B>
5

>  <Alpha-2A>
5

>  <Alpha-2B>
5

>  <Alpha-2C>
5

>  <DOPAMINE D1>
5

>  <DOPAMINE D2>
5

>  <DOPAMINE D5>
5

>  <Dopamine transporter>
5

>  <HISTAMINE H1>
5

>  <HISTAMINE H2>
5

>  <HISTAMINE H4>
5

>  <Muscarinic acetylcholine receptor M2>
5

>  <Muscarinic acetylcholine receptor M5>
5

>  <Serotonin transporter>
5

$$$$
N-0437
  Marvin  02231216192D 0   1.00000     0.00000     0

 22 24  0  0  1  0  0  0  0  0999 V2000
    0.5697    1.1278    0.0000 S   0  0  0  0  0  0  0  0  0
    0.0177    1.7409    0.0000 C   0  0  0  0  0  0  0  0  0
    0.4302    2.4554    0.0000 C   0  0  0  0  0  0  0  0  0
    1.2372    2.2838    0.0000 C   0  0  0  0  0  0  0  0  0
    1.3234    1.4634    0.0000 C   0  0  0  0  0  0  0  0  0
    2.0379    1.0509    0.0000 C   0  0  0  0  0  0  0  0  0
    2.0379    0.2259    0.0000 C   0  0  0  0  0  0  0  0  0
    2.7523   -0.1866    0.0000 N   0  0  0  0  0  0  0  0  0
    3.4668    0.2259    0.0000 C   0  0  0  0  0  0  0  0  0
    3.4668    1.0509    0.0000 C   0  0  0  0  0  0  0  0  0
    4.1813    1.4634    0.0000 C   0  0  0  0  0  0  0  0  0
    2.7523   -1.0116    0.0000 C   0  0  0  0  0  0  0  0  0
    2.0379   -1.4241    0.0000 C   0  0  0  0  0  0  0  0  0
    2.0379   -2.2491    0.0000 C   0  0  0  0  0  0  0  0  0
    2.7523   -2.6616    0.0000 C   0  0  0  0  0  0  0  0  0
    3.4668   -2.2491    0.0000 C   0  0  0  0  0  0  0  0  0
    3.4668   -1.4241    0.0000 C   0  0  0  0  0  0  0  0  0
    4.1813   -2.6616    0.0000 C   0  0  0  0  0  0  0  0  0
    4.1813   -3.4866    0.0000 C   0  0  0  0  0  0  0  0  0
    3.4668   -3.8991    0.0000 C   0  0  0  0  0  0  0  0  0
    2.7523   -3.4866    0.0000 C   0  0  0  0  0  0  0  0  0
    2.0379   -3.8991    0.0000 O   0  0  0  0  0  0  0  0  0
  1  2  4  0  0  0  0
  1  5  4  0  0  0  0
  2  3  4  0  0  0  0
  3  4  4  0  0  0  0
  4  5  4  0  0  0  0
  5  6  1  0  0  0  0
  6  7  1  0  0  0  0
  7  8  1  0  0  0  0
  8  9  1  0  0  0  0
  8 12  1  0  0  0  0
  9 10  1  0  0  0  0
 10 11  1  0  0  0  0
 12 13  1  0  0  0  0
 12 17  1  0  0  0  0
 13 14  1  0  0  0  0
 14 15  1  0  0  0  0
 15 16  4  0  0  0  0
 15 21  4  0  0  0  0
 16 17  1  0  0  0  0
 16 18  4  0  0  0  0
 18 19  4  0  0  0  0
 19 20  4  0  0  0  0
 20 21  4  0  0  0  0
 21 22  1  0  0  0  0
M  END
>  <Name_Molregno>
N-0437

>  <DOPAMINE D1>
5.66

>  <DOPAMINE D5>
6.01

$$$$
Naproxen
  Marvin  02231216192D 0   1.00000     0.00000     0

 17 18  0  0  1  0  0  0  0  0999 V2000
   -5.3383   -1.4581    0.0000 O   0  0  0  0  0  0  0  0  0
   -6.0528   -1.0456    0.0000 C   0  0  0  0  0  0  0  0  0
   -4.6238   -1.0456    0.0000 C   0  0  0  0  0  0  0  0  0
   -3.9093   -1.4581    0.0000 C   0  0  0  0  0  0  0  0  0
   -3.1949   -1.0456    0.0000 C   0  0  0  0  0  0  0  0  0
   -3.1949   -0.2206    0.0000 C   0  0  0  0  0  0  0  0  0
   -2.4804    0.1919    0.0000 C   0  0  0  0  0  0  0  0  0
   -1.7659   -0.2206    0.0000 C   0  0  0  0  0  0  0  0  0
   -1.7659   -1.0456    0.0000 C   0  0  0  0  0  0  0  0  0
   -2.4804   -1.4581    0.0000 C   0  0  0  0  0  0  0  0  0
   -1.0515    0.1919    0.0000 C   0  0  0  0  0  0  0  0  0
   -0.3370   -0.2206    0.0000 C   0  0  0  0  0  0  0  0  0
    0.3775    0.1919    0.0000 O   0  0  0  0  0  0  0  0  0
   -0.3370   -1.0456    0.0000 O   0  0  0  0  0  0  0  0  0
   -1.0515    1.0169    0.0000 C   0  0  0  0  0  0  0  0  0
   -3.9093    0.1919    0.0000 C   0  0  0  0  0  0  0  0  0
   -4.6238   -0.2206    0.0000 C   0  0  0  0  0  0  0  0  0
  1  2  1  0  0  0  0
  1  3  1  0  0  0  0
  3  4  4  0  0  0  0
  3 17  4  0  0  0  0
  4  5  4  0  0  0  0
  5  6  4  0  0  0  0
  5 10  4  0  0  0  0
  6  7  4  0  0  0  0
  6 16  4  0  0  0  0
  7  8  4  0  0  0  0
  8  9  4  0  0  0  0
  8 11  1  0  0  0  0
  9 10  4  0  0  0  0
 11 12  1  0  0  0  0
 11 15  1  0  0  0  0
 12 13  1  0  0  0  0
 12 14  2  0  0  0  0
 16 17  4  0  0  0  0
M  END
>  <Name_Molregno>
Naproxen

>  <5-HT1A>
5

>  <5-HT1B>
5

>  <5-HT1D>
5

>  <5-HT1E>
5

>  <5-HT2A>
5

>  <5-HT3>
5

>  <5-HT5>
5

>  <5-HT6>
5

>  <5-HT7>
5

>  <Alpha-1A>
5

>  <Alpha-1B>
5

>  <Alpha-2A>
5

>  <Alpha-2B>
5

>  <Alpha-2C>
5

>  <DOPAMINE D1>
5

>  <DOPAMINE D2>
5

>  <DOPAMINE D4>
5

>  <DOPAMINE D5>
5

>  <Dopamine transporter>
5

>  <HISTAMINE H1>
5

>  <HISTAMINE H2>
5

>  <HISTAMINE H4>
5

>  <Muscarinic acetylcholine receptor M2>
5

>  <Muscarinic acetylcholine receptor M5>
5

>  <Norepinephrine transporter>
5

>  <Serotonin transporter>
5

$$$$
N-DESMETHYLCLOZAPINE
  Marvin  02231216192D 0   1.00000     0.00000     0

 22 25  0  0  0  0  0  0  0  0999 V2000
   -0.3818   -1.7384    0.0000 Cl  0  0  0  0  0  0  0  0  0
    0.4065   -1.9816    0.0000 C   0  0  0  0  0  0  0  0  0
    1.0113   -1.4204    0.0000 C   0  0  0  0  0  0  0  0  0
    1.7996   -1.6636    0.0000 C   0  0  0  0  0  0  0  0  0
    2.3140   -1.0186    0.0000 N   0  0  0  0  0  0  0  0  0
    3.1390   -1.0186    0.0000 C   0  0  0  0  0  0  0  0  0
    3.4969   -0.2753    0.0000 N   0  0  0  0  0  0  0  0  0
    3.0322    0.4063    0.0000 C   0  0  0  0  0  0  0  0  0
    3.3902    1.1496    0.0000 C   0  0  0  0  0  0  0  0  0
    4.2129    1.2113    0.0000 N   0  0  0  0  0  0  0  0  0
    4.6776    0.5296    0.0000 C   0  0  0  0  0  0  0  0  0
    4.3196   -0.2137    0.0000 C   0  0  0  0  0  0  0  0  0
    3.6534   -1.6636    0.0000 C   0  0  0  0  0  0  0  0  0
    3.4698   -2.4679    0.0000 C   0  0  0  0  0  0  0  0  0
    2.7265   -2.8259    0.0000 N   0  0  0  0  0  0  0  0  0
    1.9832   -2.4679    0.0000 C   0  0  0  0  0  0  0  0  0
    1.3784   -3.0291    0.0000 C   0  0  0  0  0  0  0  0  0
    0.5901   -2.7859    0.0000 C   0  0  0  0  0  0  0  0  0
    4.0746   -3.0291    0.0000 C   0  0  0  0  0  0  0  0  0
    4.8629   -2.7859    0.0000 C   0  0  0  0  0  0  0  0  0
    5.0465   -1.9816    0.0000 C   0  0  0  0  0  0  0  0  0
    4.4417   -1.4204    0.0000 C   0  0  0  0  0  0  0  0  0
  1  2  1  0  0  0  0
  2  3  4  0  0  0  0
  2 18  4  0  0  0  0
  3  4  4  0  0  0  0
  4  5  1  0  0  0  0
  4 16  4  0  0  0  0
  5  6  1  0  0  0  0
  6  7  1  0  0  0  0
  6 13  2  0  0  0  0
  7  8  1  0  0  0  0
  7 12  1  0  0  0  0
  8  9  1  0  0  0  0
  9 10  1  0  0  0  0
 10 11  1  0  0  0  0
 11 12  1  0  0  0  0
 13 14  1  0  0  0  0
 13 22  1  0  0  0  0
 14 15  2  0  0  0  0
 14 19  1  0  0  0  0
 15 16  1  0  0  0  0
 16 17  4  0  0  0  0
 17 18  4  0  0  0  0
 19 20  2  0  0  0  0
 20 21  1  0  0  0  0
 21 22  2  0  0  0  0
M  END
>  <Name_Molregno>
N-DESMETHYLCLOZAPINE

>  <5-HT1A>
7.86

>  <5-HT1B>
6.39

>  <5-HT1D>
6.32

>  <5-HT1E>
6.41

>  <5-HT2A>
7.96

>  <5-HT3>
6.57

>  <5-HT5>
6.46

>  <5-HT6>
7.94

>  <5-HT7>
7.22

>  <Alpha-1A>
6.98

>  <Alpha-1B>
7.07

>  <Alpha-2A>
6.86

>  <Alpha-2B>
7.02

>  <Alpha-2C>
6.93

>  <Beta-1>
5.2

>  <Beta-2>
5.33

>  <DOPAMINE D1>
7.84

>  <DOPAMINE D2>
7

>  <DOPAMINE D3>
6.82

>  <DOPAMINE D4>
7.28

>  <DOPAMINE D5>
6.55

>  <Dopamine transporter>
5

>  <HISTAMINE H1>
8.47

>  <HISTAMINE H2>
6.46

>  <HISTAMINE H4>
5.99

>  <Muscarinic acetylcholine receptor M1>
7.17

>  <Muscarinic acetylcholine receptor M2>
6.38

>  <Muscarinic acetylcholine receptor M3>
7.02

>  <Muscarinic acetylcholine receptor M4>
6.77

>  <Muscarinic acetylcholine receptor M5>
7.45

>  <Norepinephrine transporter>
6.31

>  <Serotonin transporter>
6.5

$$$$
nimesulide
  Marvin  02231216192D 0   1.00000     0.00000     0

 21 22  0  0  0  0  0  0  0  0999 V2000
    3.1126    1.9121    0.0000 S   0  0  0  0  0  0  0  0  0
    3.8271    2.3246    0.0000 O   0  0  0  0  0  0  0  0  0
    2.7001    2.6266    0.0000 O   0  0  0  0  0  0  0  0  0
    2.3982    1.4996    0.0000 N   0  0  0  0  0  0  0  0  0
    2.3982    0.6746    0.0000 C   0  0  0  0  0  0  0  0  0
    3.1126    0.2621    0.0000 C   0  0  0  0  0  0  0  0  0
    3.1126   -0.5629    0.0000 C   0  0  0  0  0  0  0  0  0
    2.3982   -0.9754    0.0000 C   0  0  0  0  0  0  0  0  0
    2.3982   -1.8004    0.0000 N   0  3  0  0  0  0  0  0  0
    1.6837   -2.2129    0.0000 O   0  5  0  0  0  0  0  0  0
    3.1126   -2.2129    0.0000 O   0  5  0  0  0  0  0  0  0
    1.6837   -0.5629    0.0000 C   0  0  0  0  0  0  0  0  0
    1.6837    0.2621    0.0000 C   0  0  0  0  0  0  0  0  0
    0.9692    0.6746    0.0000 O   0  0  0  0  0  0  0  0  0
    0.9692    1.4996    0.0000 C   0  0  0  0  0  0  0  0  0
    0.2548    1.9121    0.0000 C   0  0  0  0  0  0  0  0  0
    0.2548    2.7371    0.0000 C   0  0  0  0  0  0  0  0  0
    0.9692    3.1496    0.0000 C   0  0  0  0  0  0  0  0  0
    1.6837    2.7371    0.0000 C   0  0  0  0  0  0  0  0  0
    1.6837    1.9121    0.0000 C   0  0  0  0  0  0  0  0  0
    3.5251    1.1976    0.0000 C   0  0  0  0  0  0  0  0  0
  1  2  2  0  0  0  0
  1  3  2  0  0  0  0
  1  4  1  0  0  0  0
  1 21  1  0  0  0  0
  4  5  1  0  0  0  0
  5  6  4  0  0  0  0
  5 13  4  0  0  0  0
  6  7  4  0  0  0  0
  7  8  4  0  0  0  0
  8  9  1  0  0  0  0
  8 12  4  0  0  0  0
  9 10  1  0  0  0  0
  9 11  1  0  0  0  0
 12 13  4  0  0  0  0
 13 14  1  0  0  0  0
 14 15  1  0  0  0  0
 15 16  4  0  0  0  0
 15 20  4  0  0  0  0
 16 17  4  0  0  0  0
 17 18  4  0  0  0  0
 18 19  4  0  0  0  0
 19 20  4  0  0  0  0
M  CHG  3   9   1  10  -1  11  -1
M  END
>  <Name_Molregno>
nimesulide

>  <5-HT1A>
5

>  <5-HT1B>
5

>  <5-HT1D>
5

>  <5-HT1E>
5

>  <5-HT2A>
5

>  <5-HT3>
5

>  <5-HT5>
5

>  <5-HT6>
5

>  <5-HT7>
5

>  <Alpha-1A>
5

>  <Alpha-1B>
5

>  <Alpha-2A>
5

>  <Alpha-2B>
5

>  <Alpha-2C>
5

>  <DOPAMINE D1>
5

>  <DOPAMINE D2>
5

>  <DOPAMINE D4>
5

>  <DOPAMINE D5>
5

>  <Dopamine transporter>
5

>  <HISTAMINE H1>
5

>  <HISTAMINE H2>
5

>  <HISTAMINE H4>
5

>  <Muscarinic acetylcholine receptor M2>
5

>  <Muscarinic acetylcholine receptor M5>
5

>  <Norepinephrine transporter>
5

>  <Serotonin transporter>
5

$$$$
Norephedrine
  Marvin  02231216192D 0   1.00000     0.00000     0

 11 11  0  0  1  0  0  0  0  0999 V2000
    1.9974    0.2298    0.0000 O   0  0  0  0  0  0  0  0  0
    1.2829   -0.1827    0.0000 C   0  0  0  0  0  0  0  0  0
    0.5684    0.2298    0.0000 C   0  0  0  0  0  0  0  0  0
    0.5684    1.0548    0.0000 N   0  0  0  0  0  0  0  0  0
   -0.1461   -0.1827    0.0000 C   0  0  0  0  0  0  0  0  0
    1.2829   -1.0077    0.0000 C   0  0  0  0  0  0  0  0  0
    1.9974   -1.4202    0.0000 C   0  0  0  0  0  0  0  0  0
    1.9974   -2.2452    0.0000 C   0  0  0  0  0  0  0  0  0
    1.2829   -2.6577    0.0000 C   0  0  0  0  0  0  0  0  0
    0.5684   -2.2452    0.0000 C   0  0  0  0  0  0  0  0  0
    0.5684   -1.4202    0.0000 C   0  0  0  0  0  0  0  0  0
  1  2  1  0  0  0  0
  2  3  1  0  0  0  0
  2  6  1  0  0  0  0
  3  4  1  0  0  0  0
  3  5  1  0  0  0  0
  6  7  4  0  0  0  0
  6 11  4  0  0  0  0
  7  8  4  0  0  0  0
  8  9  4  0  0  0  0
  9 10  4  0  0  0  0
 10 11  4  0  0  0  0
M  END
>  <Name_Molregno>
Norephedrine

>  <5-HT1A>
5

>  <5-HT1B>
5

>  <5-HT1D>
5

>  <5-HT1E>
5

>  <5-HT3>
5

>  <5-HT5>
5

>  <5-HT6>
5

>  <5-HT7>
5.04

>  <Alpha-1A>
5

>  <Alpha-1B>
5

>  <Alpha-2A>
5.64

>  <Alpha-2B>
5.73

>  <Alpha-2C>
6.04

>  <Beta-1>
5

>  <Beta-2>
5

>  <DOPAMINE D1>
5

>  <DOPAMINE D2>
5

>  <DOPAMINE D4>
5

>  <DOPAMINE D5>
5

>  <Dopamine transporter>
5.76

>  <HISTAMINE H1>
5

>  <HISTAMINE H2>
5

>  <HISTAMINE H4>
5

>  <Muscarinic acetylcholine receptor M1>
5.04

>  <Muscarinic acetylcholine receptor M2>
5

>  <Muscarinic acetylcholine receptor M3>
5

>  <Muscarinic acetylcholine receptor M4>
5

>  <Muscarinic acetylcholine receptor M5>
5

>  <Norepinephrine transporter>
6.34

>  <Serotonin transporter>
5

$$$$
NOREPINEPHRINE
  Marvin  02231216192D 0   1.00000     0.00000     0

 12 12  0  0  1  0  0  0  0  0999 V2000
    3.1670    0.8378    0.0000 O   0  0  0  0  0  0  0  0  0
    2.4525    0.4253    0.0000 C   0  0  0  0  0  0  0  0  0
    2.4525   -0.3997    0.0000 C   0  0  0  0  0  0  0  0  0
    1.7381   -0.8122    0.0000 C   0  0  0  0  0  0  0  0  0
    1.0236   -0.3997    0.0000 C   0  0  0  0  0  0  0  0  0
    1.0236    0.4253    0.0000 C   0  0  0  0  0  0  0  0  0
    1.7381    0.8378    0.0000 C   0  0  0  0  0  0  0  0  0
    1.7381    1.6628    0.0000 O   0  0  0  0  0  0  0  0  0
    1.7381   -1.6372    0.0000 C   0  0  0  0  0  0  0  0  0
    2.4525   -2.0497    0.0000 O   0  0  0  0  0  0  0  0  0
    1.0236   -2.0497    0.0000 C   0  0  0  0  0  0  0  0  0
    1.0236   -2.8747    0.0000 N   0  0  0  0  0  0  0  0  0
  1  2  1  0  0  0  0
  2  3  4  0  0  0  0
  2  7  4  0  0  0  0
  3  4  4  0  0  0  0
  4  5  4  0  0  0  0
  4  9  1  0  0  0  0
  5  6  4  0  0  0  0
  6  7  4  0  0  0  0
  7  8  1  0  0  0  0
  9 10  1  0  0  0  0
  9 11  1  0  0  0  0
 11 12  1  0  0  0  0
M  END
>  <Name_Molregno>
NOREPINEPHRINE

>  <5-HT1A>
5

>  <5-HT2A>
5

>  <5-HT3>
5

>  <5-HT7>
5

>  <Alpha-1A>
5.33

>  <Alpha-1B>
5.1

>  <Alpha-2A>
6.32

>  <Alpha-2B>
6.02

>  <Alpha-2C>
6.43

>  <Beta-1>
5.45

>  <Beta-2>
4.9

>  <DOPAMINE D1>
5

>  <DOPAMINE D2>
5

>  <DOPAMINE D5>
5

>  <Dopamine transporter>
5.02

$$$$
Norfenfluramine
  Marvin  02231216192D 0   1.00000     0.00000     0

 14 14  0  0  1  0  0  0  0  0999 V2000
    0.4631   -1.9707    0.0000 F   0  0  0  0  0  0  0  0  0
    1.1776   -1.5582    0.0000 C   0  0  0  0  0  0  0  0  0
    1.5901   -2.2727    0.0000 F   0  0  0  0  0  0  0  0  0
    0.7651   -0.8437    0.0000 F   0  0  0  0  0  0  0  0  0
    1.8921   -1.1457    0.0000 C   0  0  0  0  0  0  0  0  0
    1.8921   -0.3207    0.0000 C   0  0  0  0  0  0  0  0  0
    2.6065    0.0918    0.0000 C   0  0  0  0  0  0  0  0  0
    3.3210   -0.3207    0.0000 C   0  0  0  0  0  0  0  0  0
    3.3210   -1.1457    0.0000 C   0  0  0  0  0  0  0  0  0
    2.6065   -1.5582    0.0000 C   0  0  0  0  0  0  0  0  0
    2.6065    0.9168    0.0000 C   0  0  0  0  0  0  0  0  0
    3.3210    1.3293    0.0000 C   0  0  0  0  0  0  0  0  0
    3.3210    2.1543    0.0000 N   0  0  0  0  0  0  0  0  0
    4.0355    0.9168    0.0000 C   0  0  0  0  0  0  0  0  0
  1  2  1  0  0  0  0
  2  3  1  0  0  0  0
  2  4  1  0  0  0  0
  2  5  1  0  0  0  0
  5  6  4  0  0  0  0
  5 10  4  0  0  0  0
  6  7  4  0  0  0  0
  7  8  4  0  0  0  0
  7 11  1  0  0  0  0
  8  9  4  0  0  0  0
  9 10  4  0  0  0  0
 11 12  1  0  0  0  0
 12 13  1  0  0  0  0
 12 14  1  0  0  0  0
M  END
>  <Name_Molregno>
Norfenfluramine

>  <5-HT1A>
5.77

>  <5-HT1B>
5.57

>  <5-HT1D>
5.88

>  <5-HT1E>
5

>  <5-HT3>
5

>  <5-HT5>
5

>  <5-HT6>
5

>  <5-HT7>
6.44

>  <Alpha-1A>
5.11

>  <Alpha-1B>
5

>  <Alpha-2A>
5.42

>  <Alpha-2B>
5.75

>  <Alpha-2C>
6.08

>  <Beta-1>
5

>  <Beta-2>
5

>  <DOPAMINE D1>
5

>  <DOPAMINE D2>
5

>  <DOPAMINE D4>
5

>  <DOPAMINE D5>
5

>  <Dopamine transporter>
5

>  <HISTAMINE H1>
5

>  <HISTAMINE H2>
5

>  <Muscarinic acetylcholine receptor M1>
5.42

>  <Muscarinic acetylcholine receptor M2>
5.24

>  <Muscarinic acetylcholine receptor M3>
6.04

>  <Muscarinic acetylcholine receptor M4>
5.31

>  <Muscarinic acetylcholine receptor M5>
5.78

>  <Norepinephrine transporter>
5

>  <Serotonin transporter>
5

$$$$
NPA
  Marvin  02231216192D 0   1.00000     0.00000     0

 22 24  0  0  0  0  0  0  0  0999 V2000
    4.3238   -1.8089    0.0000 O   0  0  0  0  0  0  0  0  0
    3.6094   -1.3964    0.0000 C   0  0  0  0  0  0  0  0  0
    3.6094   -0.5714    0.0000 O   0  0  0  0  0  0  0  0  0
    2.8949   -1.8089    0.0000 C   0  0  0  0  0  0  0  0  0
    2.8949   -2.6339    0.0000 C   0  0  0  0  0  0  0  0  0
    2.1804   -3.0464    0.0000 C   0  0  0  0  0  0  0  0  0
    1.4659   -2.6339    0.0000 C   0  0  0  0  0  0  0  0  0
    1.4659   -1.8089    0.0000 C   0  0  0  0  0  0  0  0  0
    2.1804   -1.3964    0.0000 C   0  0  0  0  0  0  0  0  0
    2.1804   -0.5714    0.0000 C   0  0  0  0  0  0  0  0  0
    1.4659   -0.1589    0.0000 O   0  0  0  0  0  0  0  0  0
    2.8949   -0.1589    0.0000 N   0  0  0  0  0  0  0  0  0
    2.8949    0.6661    0.0000 C   0  0  0  0  0  0  0  0  0
    3.6094    1.0786    0.0000 C   0  0  0  0  0  0  0  0  0
    3.6094    1.9036    0.0000 C   0  0  0  0  0  0  0  0  0
    2.8949    2.3161    0.0000 C   0  0  0  0  0  0  0  0  0
    2.1804    1.9036    0.0000 C   0  0  0  0  0  0  0  0  0
    2.1804    1.0786    0.0000 C   0  0  0  0  0  0  0  0  0
    4.3238    2.3161    0.0000 C   0  0  0  0  0  0  0  0  0
    5.0383    1.9036    0.0000 C   0  0  0  0  0  0  0  0  0
    5.0383    1.0786    0.0000 C   0  0  0  0  0  0  0  0  0
    4.3238    0.6661    0.0000 C   0  0  0  0  0  0  0  0  0
  1  2  1  0  0  0  0
  2  3  2  0  0  0  0
  2  4  1  0  0  0  0
  4  5  4  0  0  0  0
  4  9  4  0  0  0  0
  5  6  4  0  0  0  0
  6  7  4  0  0  0  0
  7  8  4  0  0  0  0
  8  9  4  0  0  0  0
  9 10  1  0  0  0  0
 10 11  2  0  0  0  0
 10 12  1  0  0  0  0
 12 13  1  0  0  0  0
 13 14  4  0  0  0  0
 13 18  4  0  0  0  0
 14 15  4  0  0  0  0
 14 22  4  0  0  0  0
 15 16  4  0  0  0  0
 15 19  4  0  0  0  0
 16 17  4  0  0  0  0
 17 18  4  0  0  0  0
 19 20  4  0  0  0  0
 20 21  4  0  0  0  0
 21 22  4  0  0  0  0
M  END
>  <Name_Molregno>
NPA

>  <DOPAMINE D1>
5.77

>  <DOPAMINE D2>
6.42

>  <DOPAMINE D4>
7.74

>  <DOPAMINE D5>
5.94

$$$$
OLANZAPINE
  Marvin  02231216192D 0   1.00000     0.00000     0

 22 25  0  0  0  0  0  0  0  0999 V2000
   -1.5954    3.4952    0.0000 S   0  0  0  0  0  0  0  0  0
   -0.8919    3.0642    0.0000 C   0  0  0  0  0  0  0  0  0
   -0.1447    3.4138    0.0000 N   0  0  0  0  0  0  0  0  0
    0.5946    3.0476    0.0000 C   0  0  0  0  0  0  0  0  0
    0.7691    2.2413    0.0000 C   0  0  0  0  0  0  0  0  0
    0.2476    1.6020    0.0000 N   0  0  0  0  0  0  0  0  0
   -0.5774    1.6113    0.0000 C   0  0  0  0  0  0  0  0  0
   -0.9436    0.8720    0.0000 N   0  0  0  0  0  0  0  0  0
   -0.4865    0.1852    0.0000 C   0  0  0  0  0  0  0  0  0
   -0.8527   -0.5540    0.0000 C   0  0  0  0  0  0  0  0  0
   -1.6761   -0.6065    0.0000 N   0  0  0  0  0  0  0  0  0
   -2.1332    0.0803    0.0000 C   0  0  0  0  0  0  0  0  0
   -1.7669    0.8196    0.0000 C   0  0  0  0  0  0  0  0  0
   -2.0423   -1.3458    0.0000 C   0  0  0  0  0  0  0  0  0
   -1.0845    2.2620    0.0000 C   0  0  0  0  0  0  0  0  0
   -1.9069    2.1972    0.0000 C   0  0  0  0  0  0  0  0  0
   -2.2227    2.9594    0.0000 C   0  0  0  0  0  0  0  0  0
   -3.0249    3.1520    0.0000 C   0  0  0  0  0  0  0  0  0
    1.5547    1.9893    0.0000 C   0  0  0  0  0  0  0  0  0
    2.1657    2.5436    0.0000 C   0  0  0  0  0  0  0  0  0
    1.9912    3.3499    0.0000 C   0  0  0  0  0  0  0  0  0
    1.2056    3.6019    0.0000 C   0  0  0  0  0  0  0  0  0
  1  2  1  0  0  0  0
  1 17  1  0  0  0  0
  2  3  2  0  0  0  0
  2 15  1  0  0  0  0
  3  4  1  0  0  0  0
  4  5  4  0  0  0  0
  4 22  4  0  0  0  0
  5  6  1  0  0  0  0
  5 19  4  0  0  0  0
  6  7  1  0  0  0  0
  7  8  1  0  0  0  0
  7 15  2  0  0  0  0
  8  9  1  0  0  0  0
  8 13  1  0  0  0  0
  9 10  1  0  0  0  0
 10 11  1  0  0  0  0
 11 12  1  0  0  0  0
 11 14  1  0  0  0  0
 12 13  1  0  0  0  0
 15 16  1  0  0  0  0
 16 17  2  0  0  0  0
 17 18  1  0  0  0  0
 19 20  4  0  0  0  0
 20 21  4  0  0  0  0
 21 22  4  0  0  0  0
M  END
>  <Name_Molregno>
OLANZAPINE

>  <5-HT1A>
5.77

>  <5-HT1B>
6.23

>  <5-HT1D>
6.3

>  <5-HT1E>
5.66

>  <5-HT2A>
8.46

>  <5-HT2C>
7.86

>  <5-HT3>
6.69

>  <5-HT5>
5.92

>  <5-HT6>
7.97

>  <5-HT7>
6.73

>  <Alpha-1A>
6.95

>  <Alpha-1B>
6.58

>  <Alpha-2A>
6.51

>  <Alpha-2B>
6.97

>  <Alpha-2C>
7.21

>  <Beta-1>
5.15

>  <Beta-2>
5.15

>  <DOPAMINE D1>
7.3

>  <DOPAMINE D2>
7.67

>  <DOPAMINE D3>
7.53

>  <DOPAMINE D4>
7.73

>  <DOPAMINE D5>
7.09

>  <Dopamine transporter>
5

>  <HISTAMINE H1>
8.96

>  <HISTAMINE H2>
7.36

>  <HISTAMINE H4>
5

>  <Muscarinic acetylcholine receptor M1>
7.99

>  <Muscarinic acetylcholine receptor M2>
6.93

>  <Muscarinic acetylcholine receptor M3>
7.33

>  <Muscarinic acetylcholine receptor M4>
7.35

>  <Muscarinic acetylcholine receptor M5>
7.78

>  <Norepinephrine transporter>
5

>  <Serotonin transporter>
5.48

$$$$
ORG-5222
  Marvin  02231216192D 0   1.00000     0.00000     0

 20 23  0  0  1  0  0  0  0  0999 V2000
   -0.0754   -0.1702    0.0000 Cl  0  0  0  0  0  0  0  0  0
    0.7129   -0.4133    0.0000 C   0  0  0  0  0  0  0  0  0
    1.3177    0.1478    0.0000 C   0  0  0  0  0  0  0  0  0
    2.1060   -0.0954    0.0000 C   0  0  0  0  0  0  0  0  0
    2.6204    0.5496    0.0000 C   0  0  0  0  0  0  0  0  0
    3.4454    0.5496    0.0000 C   0  0  0  0  0  0  0  0  0
    3.9598   -0.0954    0.0000 C   0  0  0  0  0  0  0  0  0
    3.7762   -0.8997    0.0000 C   0  0  0  0  0  0  0  0  0
    3.0329   -1.2576    0.0000 O   0  0  0  0  0  0  0  0  0
    2.2896   -0.8997    0.0000 C   0  0  0  0  0  0  0  0  0
    1.6849   -1.4608    0.0000 C   0  0  0  0  0  0  0  0  0
    0.8965   -1.2176    0.0000 C   0  0  0  0  0  0  0  0  0
    4.3810   -1.4608    0.0000 C   0  0  0  0  0  0  0  0  0
    5.1693   -1.2176    0.0000 C   0  0  0  0  0  0  0  0  0
    5.3529   -0.4133    0.0000 C   0  0  0  0  0  0  0  0  0
    4.7482    0.1478    0.0000 C   0  0  0  0  0  0  0  0  0
    3.7004    1.3343    0.0000 C   0  0  0  0  0  0  0  0  0
    3.0329    1.8192    0.0000 N   0  0  0  0  0  0  0  0  0
    2.3655    1.3343    0.0000 C   0  0  0  0  0  0  0  0  0
    3.0329    2.6442    0.0000 C   0  0  0  0  0  0  0  0  0
  1  2  1  0  0  0  0
  2  3  4  0  0  0  0
  2 12  4  0  0  0  0
  3  4  4  0  0  0  0
  4  5  1  0  0  0  0
  4 10  4  0  0  0  0
  5  6  1  0  0  0  0
  5 19  1  0  0  0  0
  6  7  1  0  0  0  0
  6 17  1  0  0  0  0
  7  8  4  0  0  0  0
  7 16  4  0  0  0  0
  8  9  1  0  0  0  0
  8 13  4  0  0  0  0
  9 10  1  0  0  0  0
 10 11  4  0  0  0  0
 11 12  4  0  0  0  0
 13 14  4  0  0  0  0
 14 15  4  0  0  0  0
 15 16  4  0  0  0  0
 17 18  1  0  0  0  0
 18 19  1  0  0  0  0
 18 20  1  0  0  0  0
M  END
>  <Name_Molregno>
ORG-5222

>  <5-HT1A>
7.7

>  <5-HT1B>
8.34

>  <5-HT1D>
8.07

>  <5-HT1E>
7.69

>  <5-HT2A>
9.41

>  <5-HT2C>
9.63

>  <5-HT3>
6.35

>  <5-HT5>
8.4

>  <5-HT6>
8.85

>  <5-HT7>
9.05

>  <Alpha-1A>
8.36

>  <Alpha-1B>
8.41

>  <Alpha-2A>
8.08

>  <Alpha-2B>
8.64

>  <Alpha-2C>
7.82

>  <Beta-1>
5.3

>  <Beta-2>
5.3

>  <DOPAMINE D1>
8.54

>  <DOPAMINE D2>
8.72

>  <DOPAMINE D3>
8.74

>  <DOPAMINE D4>
8.58

>  <DOPAMINE D5>
7.64

>  <Dopamine transporter>
5.5

>  <HISTAMINE H1>
8.91

>  <HISTAMINE H2>
8.64

>  <HISTAMINE H4>
5

>  <Muscarinic acetylcholine receptor M1>
7.61

>  <Muscarinic acetylcholine receptor M2>
7.1

>  <Muscarinic acetylcholine receptor M3>
7.41

>  <Muscarinic acetylcholine receptor M4>
5

>  <Muscarinic acetylcholine receptor M5>
8.02

>  <Norepinephrine transporter>
5

>  <Serotonin transporter>
5.5

$$$$
PARECOXIB
  Marvin  02231216192D 0   1.00000     0.00000     0

 26 28  0  0  0  0  0  0  0  0999 V2000
    3.2898   -1.2399    0.0000 S   0  0  0  0  0  0  0  0  0
    3.7023   -0.5254    0.0000 O   0  0  0  0  0  0  0  0  0
    2.8773   -1.9544    0.0000 O   0  0  0  0  0  0  0  0  0
    4.0042   -1.6524    0.0000 N   0  0  0  0  0  0  0  0  0
    4.7187   -1.2399    0.0000 C   0  0  0  0  0  0  0  0  0
    4.7187   -0.4149    0.0000 O   0  0  0  0  0  0  0  0  0
    5.4332   -1.6524    0.0000 C   0  0  0  0  0  0  0  0  0
    6.1476   -1.2399    0.0000 C   0  0  0  0  0  0  0  0  0
    2.5753   -0.8274    0.0000 C   0  0  0  0  0  0  0  0  0
    1.8608   -1.2399    0.0000 C   0  0  0  0  0  0  0  0  0
    1.1463   -0.8274    0.0000 C   0  0  0  0  0  0  0  0  0
    1.1463   -0.0024    0.0000 C   0  0  0  0  0  0  0  0  0
    1.8608    0.4101    0.0000 C   0  0  0  0  0  0  0  0  0
    2.5753   -0.0024    0.0000 C   0  0  0  0  0  0  0  0  0
    0.4319    0.4101    0.0000 C   0  0  0  0  0  0  0  0  0
   -0.3218    0.0745    0.0000 C   0  0  0  0  0  0  0  0  0
   -0.8738    0.6876    0.0000 N   0  0  0  0  0  0  0  0  0
   -0.4613    1.4021    0.0000 O   0  0  0  0  0  0  0  0  0
    0.3456    1.2306    0.0000 C   0  0  0  0  0  0  0  0  0
    0.9587    1.7826    0.0000 C   0  0  0  0  0  0  0  0  0
   -0.4933   -0.7324    0.0000 C   0  0  0  0  0  0  0  0  0
    0.1198   -1.2845    0.0000 C   0  0  0  0  0  0  0  0  0
   -0.0518   -2.0914    0.0000 C   0  0  0  0  0  0  0  0  0
   -0.8364   -2.3464    0.0000 C   0  0  0  0  0  0  0  0  0
   -1.4495   -1.7943    0.0000 C   0  0  0  0  0  0  0  0  0
   -1.2779   -0.9874    0.0000 C   0  0  0  0  0  0  0  0  0
  1  2  2  0  0  0  0
  1  3  2  0  0  0  0
  1  4  1  0  0  0  0
  1  9  1  0  0  0  0
  4  5  1  0  0  0  0
  5  6  2  0  0  0  0
  5  7  1  0  0  0  0
  7  8  1  0  0  0  0
  9 10  4  0  0  0  0
  9 14  4  0  0  0  0
 10 11  4  0  0  0  0
 11 12  4  0  0  0  0
 12 13  4  0  0  0  0
 12 15  1  0  0  0  0
 13 14  4  0  0  0  0
 15 16  4  0  0  0  0
 15 19  4  0  0  0  0
 16 17  4  0  0  0  0
 16 21  1  0  0  0  0
 17 18  4  0  0  0  0
 18 19  4  0  0  0  0
 19 20  1  0  0  0  0
 21 22  4  0  0  0  0
 21 26  4  0  0  0  0
 22 23  4  0  0  0  0
 23 24  4  0  0  0  0
 24 25  4  0  0  0  0
 25 26  4  0  0  0  0
M  END
>  <Name_Molregno>
PARECOXIB

>  <5-HT1A>
5

>  <5-HT1B>
5

>  <5-HT1D>
5

>  <5-HT1E>
5

>  <5-HT2A>
5

>  <5-HT3>
5

>  <5-HT6>
5

>  <5-HT7>
5

>  <Alpha-1A>
5

>  <Alpha-1B>
5

>  <Alpha-2A>
5

>  <Alpha-2B>
5

>  <Alpha-2C>
5

>  <DOPAMINE D1>
5

>  <DOPAMINE D2>
5

>  <DOPAMINE D4>
5

>  <DOPAMINE D5>
5

>  <Dopamine transporter>
5

>  <HISTAMINE H1>
5

>  <HISTAMINE H2>
5

>  <HISTAMINE H4>
5

>  <Muscarinic acetylcholine receptor M2>
5

>  <Muscarinic acetylcholine receptor M5>
5

>  <Norepinephrine transporter>
5

>  <Serotonin transporter>
5

$$$$
PERGOLIDE
  Marvin  02231216192D 0   1.00000     0.00000     0

 22 25  0  0  1  0  0  0  0  0999 V2000
    2.3775   -0.9399    0.0000 S   0  0  0  0  0  0  0  0  0
    1.6635   -0.5265    0.0000 C   0  0  0  0  0  0  0  0  0
    1.6645    0.2985    0.0000 C   0  0  0  0  0  0  0  0  0
    2.3795    0.7101    0.0000 C   0  0  0  0  0  0  0  0  0
    2.3805    1.5351    0.0000 C   0  0  0  0  0  0  0  0  0
    1.6665    1.9485    0.0000 C   0  0  0  0  0  0  0  0  0
    0.9515    1.5368    0.0000 N   0  0  0  0  0  0  0  0  0
    0.9505    0.7118    0.0000 C   0  0  0  0  0  0  0  0  0
    0.2376    1.9502    0.0000 C   0  0  0  0  0  0  0  0  0
   -0.4774    1.5385    0.0000 C   0  0  0  0  0  0  0  0  0
   -1.1914    1.9519    0.0000 C   0  0  0  0  0  0  0  0  0
    1.6680    2.7726    0.0000 C   0  0  0  0  0  0  0  0  0
    2.3805    3.1851    0.0000 C   0  0  0  0  0  0  0  0  0
    3.0930    2.7726    0.0000 C   0  0  0  0  0  0  0  0  0
    3.0930    1.9476    0.0000 C   0  0  0  0  0  0  0  0  0
    3.8108    1.5351    0.0000 C   0  0  0  0  0  0  0  0  0
    4.5233    1.9476    0.0000 C   0  0  0  0  0  0  0  0  0
    4.5233    2.7726    0.0000 C   0  0  0  0  0  0  0  0  0
    3.8108    3.1851    0.0000 C   0  0  0  0  0  0  0  0  0
    3.5055    4.0422    0.0000 N   0  0  0  0  0  0  0  0  0
    2.6805    4.0422    0.0000 C   0  0  0  0  0  0  0  0  0
    2.3765   -1.7649    0.0000 C   0  0  0  0  0  0  0  0  0
  1  2  1  0  0  0  0
  1 22  1  0  0  0  0
  2  3  1  0  0  0  0
  3  4  1  0  0  0  0
  3  8  1  0  0  0  0
  4  5  1  0  0  0  0
  5  6  1  0  0  0  0
  5 15  1  0  0  0  0
  6  7  1  0  0  0  0
  6 12  1  0  0  0  0
  7  8  1  0  0  0  0
  7  9  1  0  0  0  0
  9 10  1  0  0  0  0
 10 11  1  0  0  0  0
 12 13  1  0  0  0  0
 13 14  4  0  0  0  0
 13 21  4  0  0  0  0
 14 15  4  0  0  0  0
 14 19  4  0  0  0  0
 15 16  4  0  0  0  0
 16 17  4  0  0  0  0
 17 18  4  0  0  0  0
 18 19  4  0  0  0  0
 19 20  4  0  0  0  0
 20 21  4  0  0  0  0
M  STY  1   1 DAT
M  SAL   1  1  20
M  SDT   1 MRV_IMPLICIT_H                                        
M  SDD   1     0.0000    0.0000    DR    ALL  0       0  
M  SED   1 IMPL_H1
M  END
>  <Name_Molregno>
PERGOLIDE

>  <5-HT1A>
8.56

>  <5-HT1B>
6.55

>  <5-HT1D>
7.88

>  <5-HT2A>
8.08

>  <5-HT2C>
6.53

>  <Alpha-1A>
5.98

>  <Alpha-1B>
6.16

>  <Alpha-2A>
7.3

>  <Alpha-2B>
7.49

>  <Alpha-2C>
7.17

>  <Beta-1>
5

>  <Beta-2>
5

>  <DOPAMINE D1>
6.17

>  <DOPAMINE D2>
7.8

>  <DOPAMINE D3>
8.59

>  <DOPAMINE D4>
7.25

>  <DOPAMINE D5>
6.76

$$$$
Piribedil
  Marvin  02231216192D 0   1.00000     0.00000     0

 22 25  0  0  0  0  0  0  0  0999 V2000
   -6.9931    0.7446    0.0000 O   0  0  0  0  0  0  0  0  0
   -6.2084    0.4897    0.0000 C   0  0  0  0  0  0  0  0  0
   -5.4940    0.9022    0.0000 C   0  0  0  0  0  0  0  0  0
   -4.7795    0.4897    0.0000 C   0  0  0  0  0  0  0  0  0
   -4.7795   -0.3353    0.0000 C   0  0  0  0  0  0  0  0  0
   -5.4940   -0.7478    0.0000 C   0  0  0  0  0  0  0  0  0
   -6.2084   -0.3353    0.0000 C   0  0  0  0  0  0  0  0  0
   -6.9931   -0.5902    0.0000 O   0  0  0  0  0  0  0  0  0
   -7.4780    0.0772    0.0000 C   0  0  0  0  0  0  0  0  0
   -4.0650    0.9022    0.0000 C   0  0  0  0  0  0  0  0  0
   -3.3506    0.4897    0.0000 N   0  0  0  0  0  0  0  0  0
   -2.6361    0.9022    0.0000 C   0  0  0  0  0  0  0  0  0
   -1.9216    0.4897    0.0000 C   0  0  0  0  0  0  0  0  0
   -1.9216   -0.3353    0.0000 N   0  0  0  0  0  0  0  0  0
   -2.6361   -0.7478    0.0000 C   0  0  0  0  0  0  0  0  0
   -3.3506   -0.3353    0.0000 C   0  0  0  0  0  0  0  0  0
   -1.2071   -0.7478    0.0000 C   0  0  0  0  0  0  0  0  0
   -0.4927   -0.3353    0.0000 N   0  0  0  0  0  0  0  0  0
    0.2218   -0.7478    0.0000 C   0  0  0  0  0  0  0  0  0
    0.2218   -1.5728    0.0000 C   0  0  0  0  0  0  0  0  0
   -0.4927   -1.9853    0.0000 C   0  0  0  0  0  0  0  0  0
   -1.2071   -1.5728    0.0000 N   0  0  0  0  0  0  0  0  0
  1  2  1  0  0  0  0
  1  9  1  0  0  0  0
  2  3  4  0  0  0  0
  2  7  4  0  0  0  0
  3  4  4  0  0  0  0
  4  5  4  0  0  0  0
  4 10  1  0  0  0  0
  5  6  4  0  0  0  0
  6  7  4  0  0  0  0
  7  8  1  0  0  0  0
  8  9  1  0  0  0  0
 10 11  1  0  0  0  0
 11 12  1  0  0  0  0
 11 16  1  0  0  0  0
 12 13  1  0  0  0  0
 13 14  1  0  0  0  0
 14 15  1  0  0  0  0
 14 17  1  0  0  0  0
 15 16  1  0  0  0  0
 17 18  4  0  0  0  0
 17 22  4  0  0  0  0
 18 19  4  0  0  0  0
 19 20  4  0  0  0  0
 20 21  4  0  0  0  0
 21 22  4  0  0  0  0
M  END
>  <Name_Molregno>
Piribedil

>  <5-HT1A>
6.35

>  <5-HT1B>
5

>  <5-HT1D>
5

>  <5-HT2A>
5

>  <5-HT2C>
5

>  <Alpha-1A>
6.09

>  <Alpha-1B>
5.21

>  <Alpha-2A>
7.05

>  <Alpha-2B>
6.54

>  <Alpha-2C>
7.16

>  <Beta-1>
5

>  <Beta-2>
5

>  <DOPAMINE D1>
5

>  <DOPAMINE D2>
6.88

>  <DOPAMINE D3>
6.63

>  <DOPAMINE D4>
6.51

>  <DOPAMINE D5>
5

>  <Norepinephrine transporter>
5

$$$$
Piroxicam
  Marvin  02231216192D 0   1.00000     0.00000     0

 23 25  0  0  0  0  0  0  0  0999 V2000
    2.3267    1.3854    0.0000 S   0  0  0  0  0  0  0  0  0
    1.7964    2.0174    0.0000 O   0  0  0  0  0  0  0  0  0
    2.8570    2.0174    0.0000 O   0  0  0  0  0  0  0  0  0
    1.6123    0.9729    0.0000 N   0  0  0  0  0  0  0  0  0
    0.8978    1.3854    0.0000 C   0  0  0  0  0  0  0  0  0
    1.6123    0.1479    0.0000 C   0  0  0  0  0  0  0  0  0
    0.8978   -0.2646    0.0000 C   0  0  0  0  0  0  0  0  0
    0.1833    0.1479    0.0000 O   0  0  0  0  0  0  0  0  0
    0.8978   -1.0896    0.0000 N   0  0  0  0  0  0  0  0  0
    0.1833   -1.5021    0.0000 C   0  0  0  0  0  0  0  0  0
    0.1833   -2.3271    0.0000 N   0  0  0  0  0  0  0  0  0
   -0.5311   -2.7396    0.0000 C   0  0  0  0  0  0  0  0  0
   -1.2456   -2.3271    0.0000 C   0  0  0  0  0  0  0  0  0
   -1.2456   -1.5021    0.0000 C   0  0  0  0  0  0  0  0  0
   -0.5311   -1.0896    0.0000 C   0  0  0  0  0  0  0  0  0
    2.3267   -0.2646    0.0000 C   0  0  0  0  0  0  0  0  0
    2.3267   -1.0896    0.0000 O   0  0  0  0  0  0  0  0  0
    3.0412    0.1479    0.0000 C   0  0  0  0  0  0  0  0  0
    3.0412    0.9729    0.0000 C   0  0  0  0  0  0  0  0  0
    3.7557    1.3854    0.0000 C   0  0  0  0  0  0  0  0  0
    4.4702    0.9729    0.0000 C   0  0  0  0  0  0  0  0  0
    4.4702    0.1479    0.0000 C   0  0  0  0  0  0  0  0  0
    3.7557   -0.2646    0.0000 C   0  0  0  0  0  0  0  0  0
  1  2  2  0  0  0  0
  1  3  2  0  0  0  0
  1  4  1  0  0  0  0
  1 19  1  0  0  0  0
  4  5  1  0  0  0  0
  4  6  1  0  0  0  0
  6  7  2  0  0  0  0
  6 16  1  0  0  0  0
  7  8  1  0  0  0  0
  7  9  1  0  0  0  0
  9 10  1  0  0  0  0
 10 11  4  0  0  0  0
 10 15  4  0  0  0  0
 11 12  4  0  0  0  0
 12 13  4  0  0  0  0
 13 14  4  0  0  0  0
 14 15  4  0  0  0  0
 16 17  2  0  0  0  0
 16 18  1  0  0  0  0
 18 19  4  0  0  0  0
 18 23  4  0  0  0  0
 19 20  4  0  0  0  0
 20 21  4  0  0  0  0
 21 22  4  0  0  0  0
 22 23  4  0  0  0  0
M  END
>  <Name_Molregno>
Piroxicam

>  <5-HT1A>
5

>  <5-HT1B>
5

>  <5-HT1D>
5

>  <5-HT1E>
5

>  <5-HT2A>
5

>  <5-HT3>
5

>  <5-HT5>
5

>  <5-HT6>
5

>  <Alpha-1A>
5

>  <Alpha-1B>
5

>  <Alpha-2A>
5

>  <Alpha-2B>
5

>  <Alpha-2C>
5

>  <DOPAMINE D1>
5

>  <DOPAMINE D2>
5

>  <DOPAMINE D4>
5

>  <DOPAMINE D5>
5

>  <Dopamine transporter>
5

>  <HISTAMINE H1>
5

>  <HISTAMINE H2>
5

>  <Muscarinic acetylcholine receptor M2>
5

>  <Muscarinic acetylcholine receptor M5>
5

>  <Norepinephrine transporter>
5

>  <Serotonin transporter>
5

$$$$
PSILOCIN
  Marvin  02231216192D 0   1.00000     0.00000     0

 15 16  0  0  0  0  0  0  0  0999 V2000
    1.2794   -2.2041    0.0000 O   0  0  0  0  0  0  0  0  0
    1.2794   -1.3791    0.0000 C   0  0  0  0  0  0  0  0  0
    0.5650   -0.9666    0.0000 C   0  0  0  0  0  0  0  0  0
    0.5650   -0.1416    0.0000 C   0  0  0  0  0  0  0  0  0
   -0.2197    0.1134    0.0000 N   0  0  0  0  0  0  0  0  0
   -0.7046   -0.5541    0.0000 C   0  0  0  0  0  0  0  0  0
   -0.2197   -1.2215    0.0000 C   0  0  0  0  0  0  0  0  0
   -0.4746   -2.0061    0.0000 C   0  0  0  0  0  0  0  0  0
   -1.2816   -2.1777    0.0000 C   0  0  0  0  0  0  0  0  0
   -1.5365   -2.9623    0.0000 N   0  0  0  0  0  0  0  0  0
   -2.3435   -3.1338    0.0000 C   0  0  0  0  0  0  0  0  0
   -0.9845   -3.5754    0.0000 C   0  0  0  0  0  0  0  0  0
    1.2794    0.2709    0.0000 C   0  0  0  0  0  0  0  0  0
    1.9939   -0.1416    0.0000 C   0  0  0  0  0  0  0  0  0
    1.9939   -0.9666    0.0000 C   0  0  0  0  0  0  0  0  0
  1  2  1  0  0  0  0
  2  3  4  0  0  0  0
  2 15  4  0  0  0  0
  3  4  4  0  0  0  0
  3  7  4  0  0  0  0
  4  5  4  0  0  0  0
  4 13  4  0  0  0  0
  5  6  4  0  0  0  0
  6  7  4  0  0  0  0
  7  8  1  0  0  0  0
  8  9  1  0  0  0  0
  9 10  1  0  0  0  0
 10 11  1  0  0  0  0
 10 12  1  0  0  0  0
 13 14  4  0  0  0  0
 14 15  4  0  0  0  0
M  STY  1   1 DAT
M  SAL   1  1   5
M  SDT   1 MRV_IMPLICIT_H                                        
M  SDD   1     0.0000    0.0000    DR    ALL  0       0  
M  SED   1 IMPL_H1
M  END
>  <Name_Molregno>
PSILOCIN

>  <5-HT1A>
6.78

>  <5-HT1B>
6.66

>  <5-HT1D>
7.44

>  <5-HT1E>
7.28

>  <5-HT2A>
6.97

>  <5-HT3>
5

>  <5-HT5>
7.08

>  <5-HT6>
7.24

>  <5-HT7>
8.46

>  <Alpha-1A>
5

>  <Alpha-1B>
5

>  <Alpha-2A>
5.86

>  <Alpha-2B>
5.72

>  <Alpha-2C>
5

>  <Beta-1>
5

>  <DOPAMINE D1>
5

>  <DOPAMINE D2>
5

>  <DOPAMINE D4>
5

>  <DOPAMINE D5>
5

>  <Dopamine transporter>
5

>  <HISTAMINE H1>
6.52

>  <HISTAMINE H2>
5

>  <HISTAMINE H4>
5

>  <Muscarinic acetylcholine receptor M2>
5

>  <Muscarinic acetylcholine receptor M5>
5

>  <Norepinephrine transporter>
5

>  <Serotonin transporter>
5.42

$$$$
PSILOCYBIN
  Marvin  02231216192D 0   1.00000     0.00000     0

 19 20  0  0  0  0  0  0  0  0999 V2000
    0.6946   -2.4480    0.0000 P   0  0  0  0  0  0  0  0  0
   -0.0199   -2.0355    0.0000 O   0  0  0  0  0  0  0  0  0
   -0.0199   -1.2105    0.0000 C   0  0  0  0  0  0  0  0  0
   -0.7343   -0.7980    0.0000 C   0  0  0  0  0  0  0  0  0
   -0.7343    0.0270    0.0000 C   0  0  0  0  0  0  0  0  0
   -1.5190    0.2819    0.0000 N   0  0  0  0  0  0  0  0  0
   -2.0039   -0.3855    0.0000 C   0  0  0  0  0  0  0  0  0
   -1.5190   -1.0530    0.0000 C   0  0  0  0  0  0  0  0  0
   -1.7739   -1.8376    0.0000 C   0  0  0  0  0  0  0  0  0
   -2.5809   -2.0091    0.0000 C   0  0  0  0  0  0  0  0  0
   -2.8358   -2.7937    0.0000 N   0  0  0  0  0  0  0  0  0
   -3.6428   -2.9653    0.0000 C   0  0  0  0  0  0  0  0  0
   -2.2838   -3.4068    0.0000 C   0  0  0  0  0  0  0  0  0
   -0.0199    0.4395    0.0000 C   0  0  0  0  0  0  0  0  0
    0.6946    0.0270    0.0000 C   0  0  0  0  0  0  0  0  0
    0.6946   -0.7980    0.0000 C   0  0  0  0  0  0  0  0  0
    1.4091   -2.8605    0.0000 O   0  0  0  0  0  0  0  0  0
    0.2821   -3.1625    0.0000 O   0  0  0  0  0  0  0  0  0
    1.1071   -1.7336    0.0000 O   0  0  0  0  0  0  0  0  0
  1  2  1  0  0  0  0
  1 17  2  0  0  0  0
  1 18  1  0  0  0  0
  1 19  1  0  0  0  0
  2  3  1  0  0  0  0
  3  4  4  0  0  0  0
  3 16  4  0  0  0  0
  4  5  4  0  0  0  0
  4  8  4  0  0  0  0
  5  6  4  0  0  0  0
  5 14  4  0  0  0  0
  6  7  4  0  0  0  0
  7  8  4  0  0  0  0
  8  9  1  0  0  0  0
  9 10  1  0  0  0  0
 10 11  1  0  0  0  0
 11 12  1  0  0  0  0
 11 13  1  0  0  0  0
 14 15  4  0  0  0  0
 15 16  4  0  0  0  0
M  STY  1   1 DAT
M  SAL   1  1   6
M  SDT   1 MRV_IMPLICIT_H                                        
M  SDD   1     0.0000    0.0000    DR    ALL  0       0  
M  SED   1 IMPL_H1
M  END
>  <Name_Molregno>
PSILOCYBIN

>  <5-HT1A>
5

>  <5-HT1B>
5

>  <5-HT1D>
5.67

>  <5-HT1E>
6.71

>  <5-HT2A>
5

>  <5-HT3>
5

>  <5-HT5>
5.21

>  <5-HT6>
6.38

>  <5-HT7>
6.22

>  <Alpha-1A>
5

>  <Alpha-1B>
5

>  <Alpha-2A>
5

>  <Alpha-2B>
5

>  <Alpha-2C>
5

>  <DOPAMINE D1>
5

>  <DOPAMINE D2>
5

>  <DOPAMINE D4>
5

>  <DOPAMINE D5>
5

>  <Dopamine transporter>
5

>  <HISTAMINE H1>
5

>  <HISTAMINE H2>
5

>  <HISTAMINE H4>
5

>  <Muscarinic acetylcholine receptor M2>
5

>  <Muscarinic acetylcholine receptor M5>
5

>  <Norepinephrine transporter>
5

>  <Serotonin transporter>
5

$$$$
Quercetin
  Marvin  02231216192D 0   1.00000     0.00000     0

 22 24  0  0  0  0  0  0  0  0999 V2000
    0.2617    0.1403    0.0000 O   0  0  0  0  0  0  0  0  0
    0.9762    0.5528    0.0000 C   0  0  0  0  0  0  0  0  0
    0.9762    1.3778    0.0000 C   0  0  0  0  0  0  0  0  0
    0.2617    1.7903    0.0000 C   0  0  0  0  0  0  0  0  0
    0.2617    2.6153    0.0000 O   0  0  0  0  0  0  0  0  0
   -0.4528    1.3778    0.0000 C   0  0  0  0  0  0  0  0  0
   -1.1672    1.7903    0.0000 O   0  0  0  0  0  0  0  0  0
   -0.4528    0.5528    0.0000 C   0  0  0  0  0  0  0  0  0
   -1.1672    0.1403    0.0000 C   0  0  0  0  0  0  0  0  0
   -1.1672   -0.6847    0.0000 C   0  0  0  0  0  0  0  0  0
   -1.8817   -1.0972    0.0000 C   0  0  0  0  0  0  0  0  0
   -1.8817   -1.9222    0.0000 O   0  0  0  0  0  0  0  0  0
   -2.5962   -0.6847    0.0000 C   0  0  0  0  0  0  0  0  0
   -3.3106   -1.0972    0.0000 O   0  0  0  0  0  0  0  0  0
   -2.5962    0.1403    0.0000 C   0  0  0  0  0  0  0  0  0
   -1.8817    0.5528    0.0000 C   0  0  0  0  0  0  0  0  0
    1.6907    1.7903    0.0000 C   0  0  0  0  0  0  0  0  0
    1.6907    2.6153    0.0000 O   0  0  0  0  0  0  0  0  0
    2.4051    1.3778    0.0000 C   0  0  0  0  0  0  0  0  0
    2.4051    0.5528    0.0000 C   0  0  0  0  0  0  0  0  0
    3.1196    0.1403    0.0000 O   0  0  0  0  0  0  0  0  0
    1.6907    0.1403    0.0000 C   0  0  0  0  0  0  0  0  0
  1  2  1  0  0  0  0
  1  8  1  0  0  0  0
  2  3  4  0  0  0  0
  2 22  4  0  0  0  0
  3  4  1  0  0  0  0
  3 17  4  0  0  0  0
  4  5  2  0  0  0  0
  4  6  1  0  0  0  0
  6  7  1  0  0  0  0
  6  8  2  0  0  0  0
  8  9  1  0  0  0  0
  9 10  4  0  0  0  0
  9 16  4  0  0  0  0
 10 11  4  0  0  0  0
 11 12  1  0  0  0  0
 11 13  4  0  0  0  0
 13 14  1  0  0  0  0
 13 15  4  0  0  0  0
 15 16  4  0  0  0  0
 17 18  1  0  0  0  0
 17 19  4  0  0  0  0
 19 20  4  0  0  0  0
 20 21  1  0  0  0  0
 20 22  4  0  0  0  0
M  END
>  <Name_Molregno>
Quercetin

>  <5-HT1A>
5

>  <5-HT1D>
5

>  <5-HT3>
5

>  <5-HT5>
5

>  <5-HT6>
5

>  <5-HT7>
5

>  <Alpha-1A>
5

>  <Alpha-1B>
5

>  <Alpha-2A>
5

>  <Alpha-2B>
5

>  <Alpha-2C>
5

>  <DOPAMINE D1>
5

>  <DOPAMINE D5>
5

>  <Muscarinic acetylcholine receptor M1>
5

>  <Muscarinic acetylcholine receptor M2>
5

>  <Muscarinic acetylcholine receptor M3>
5

>  <Muscarinic acetylcholine receptor M4>
5

>  <Muscarinic acetylcholine receptor M5>
5

>  <Norepinephrine transporter>
5

>  <Serotonin transporter>
5

$$$$
Quercitrin
  Marvin  02231216192D 0   1.00000     0.00000     0

 32 35  0  0  1  0  0  0  0  0999 V2000
    1.5011    1.5398    0.0000 O   0  0  0  0  0  0  0  0  0
    1.5011    2.3648    0.0000 C   0  0  0  0  0  0  0  0  0
    2.2156    2.7773    0.0000 C   0  0  0  0  0  0  0  0  0
    0.7866    2.7773    0.0000 C   0  0  0  0  0  0  0  0  0
    0.7866    3.6023    0.0000 O   0  0  0  0  0  0  0  0  0
    0.0722    2.3648    0.0000 C   0  0  0  0  0  0  0  0  0
   -0.6423    2.7773    0.0000 O   0  0  0  0  0  0  0  0  0
    0.0722    1.5398    0.0000 C   0  0  0  0  0  0  0  0  0
   -0.6423    1.1273    0.0000 O   0  0  0  0  0  0  0  0  0
    0.7866    1.1273    0.0000 C   0  0  0  0  0  0  0  0  0
    0.7866    0.3023    0.0000 O   0  0  0  0  0  0  0  0  0
    1.5011   -0.1102    0.0000 C   0  0  0  0  0  0  0  0  0
    1.5011   -0.9352    0.0000 C   0  0  0  0  0  0  0  0  0
    2.2156   -1.3477    0.0000 O   0  0  0  0  0  0  0  0  0
    2.9300   -0.9352    0.0000 C   0  0  0  0  0  0  0  0  0
    2.9300   -0.1102    0.0000 C   0  0  0  0  0  0  0  0  0
    2.2156    0.3023    0.0000 C   0  0  0  0  0  0  0  0  0
    2.2156    1.1273    0.0000 O   0  0  0  0  0  0  0  0  0
    3.6445    0.3023    0.0000 C   0  0  0  0  0  0  0  0  0
    3.6445    1.1273    0.0000 O   0  0  0  0  0  0  0  0  0
    4.3590   -0.1102    0.0000 C   0  0  0  0  0  0  0  0  0
    4.3590   -0.9352    0.0000 C   0  0  0  0  0  0  0  0  0
    5.0734   -1.3477    0.0000 O   0  0  0  0  0  0  0  0  0
    3.6445   -1.3477    0.0000 C   0  0  0  0  0  0  0  0  0
    0.7866   -1.3477    0.0000 C   0  0  0  0  0  0  0  0  0
    0.7866   -2.1727    0.0000 C   0  0  0  0  0  0  0  0  0
    0.0722   -2.5852    0.0000 C   0  0  0  0  0  0  0  0  0
    0.0722   -3.4102    0.0000 O   0  0  0  0  0  0  0  0  0
   -0.6423   -2.1727    0.0000 C   0  0  0  0  0  0  0  0  0
   -1.3568   -2.5852    0.0000 O   0  0  0  0  0  0  0  0  0
   -0.6423   -1.3477    0.0000 C   0  0  0  0  0  0  0  0  0
    0.0722   -0.9352    0.0000 C   0  0  0  0  0  0  0  0  0
  1  2  1  0  0  0  0
  1 10  1  0  0  0  0
  2  3  1  0  0  0  0
  2  4  1  0  0  0  0
  4  5  1  0  0  0  0
  4  6  1  0  0  0  0
  6  7  1  0  0  0  0
  6  8  1  0  0  0  0
  8  9  1  0  0  0  0
  8 10  1  0  0  0  0
 10 11  1  0  0  0  0
 11 12  1  0  0  0  0
 12 13  2  0  0  0  0
 12 17  1  0  0  0  0
 13 14  1  0  0  0  0
 13 25  1  0  0  0  0
 14 15  1  0  0  0  0
 15 16  1  0  0  0  0
 15 24  2  0  0  0  0
 16 17  2  0  0  0  0
 16 19  1  0  0  0  0
 17 18  1  0  0  0  0
 19 20  1  0  0  0  0
 19 21  2  0  0  0  0
 21 22  1  0  0  0  0
 22 23  2  0  0  0  0
 22 24  1  0  0  0  0
 25 26  4  0  0  0  0
 25 32  4  0  0  0  0
 26 27  4  0  0  0  0
 27 28  1  0  0  0  0
 27 29  4  0  0  0  0
 29 30  1  0  0  0  0
 29 31  4  0  0  0  0
 31 32  4  0  0  0  0
M  END
>  <Name_Molregno>
Quercitrin

>  <5-HT1A>
5

>  <5-HT1D>
5

>  <5-HT3>
5

>  <5-HT5>
5

>  <5-HT6>
5

>  <5-HT7>
5

>  <Alpha-1A>
5

>  <Alpha-1B>
5

>  <Alpha-2A>
5

>  <Alpha-2B>
5

>  <Alpha-2C>
5

>  <DOPAMINE D1>
5

>  <DOPAMINE D5>
5

>  <Muscarinic acetylcholine receptor M1>
5

>  <Muscarinic acetylcholine receptor M2>
5

>  <Muscarinic acetylcholine receptor M3>
5

>  <Muscarinic acetylcholine receptor M4>
5

>  <Muscarinic acetylcholine receptor M5>
5

>  <Norepinephrine transporter>
5

>  <Serotonin transporter>
5

$$$$
QUETIAPINE
  Marvin  02231216192D 0   1.00000     0.00000     0

 27 30  0  0  0  0  0  0  0  0999 V2000
    0.4015    1.2563    0.0000 S   0  0  0  0  0  0  0  0  0
    1.2173    1.3793    0.0000 C   0  0  0  0  0  0  0  0  0
    1.8221    0.8181    0.0000 C   0  0  0  0  0  0  0  0  0
    2.6104    1.0613    0.0000 C   0  0  0  0  0  0  0  0  0
    2.7940    1.8656    0.0000 C   0  0  0  0  0  0  0  0  0
    2.1892    2.4268    0.0000 C   0  0  0  0  0  0  0  0  0
    1.4009    2.1836    0.0000 C   0  0  0  0  0  0  0  0  0
    1.7604   -0.0046    0.0000 C   0  0  0  0  0  0  0  0  0
    1.0788   -0.4693    0.0000 N   0  0  0  0  0  0  0  0  0
    0.2904   -0.2261    0.0000 C   0  0  0  0  0  0  0  0  0
   -0.0110    0.5418    0.0000 C   0  0  0  0  0  0  0  0  0
   -0.8268    0.6648    0.0000 C   0  0  0  0  0  0  0  0  0
   -1.3412    0.0198    0.0000 C   0  0  0  0  0  0  0  0  0
   -1.0398   -0.7482    0.0000 C   0  0  0  0  0  0  0  0  0
   -0.2240   -0.8711    0.0000 C   0  0  0  0  0  0  0  0  0
    2.4749   -0.4171    0.0000 N   0  0  0  0  0  0  0  0  0
    3.1893   -0.0046    0.0000 C   0  0  0  0  0  0  0  0  0
    3.9038   -0.4171    0.0000 C   0  0  0  0  0  0  0  0  0
    3.9038   -1.2421    0.0000 N   0  0  0  0  0  0  0  0  0
    3.1893   -1.6546    0.0000 C   0  0  0  0  0  0  0  0  0
    2.4749   -1.2421    0.0000 C   0  0  0  0  0  0  0  0  0
    4.6183   -1.6546    0.0000 C   0  0  0  0  0  0  0  0  0
    5.3328   -1.2421    0.0000 C   0  0  0  0  0  0  0  0  0
    6.0472   -1.6546    0.0000 O   0  0  0  0  0  0  0  0  0
    6.7617   -1.2421    0.0000 C   0  0  0  0  0  0  0  0  0
    7.4762   -1.6546    0.0000 C   0  0  0  0  0  0  0  0  0
    8.1906   -1.2421    0.0000 O   0  0  0  0  0  0  0  0  0
  1  2  1  0  0  0  0
  1 11  1  0  0  0  0
  2  3  4  0  0  0  0
  2  7  4  0  0  0  0
  3  4  4  0  0  0  0
  3  8  1  0  0  0  0
  4  5  4  0  0  0  0
  5  6  4  0  0  0  0
  6  7  4  0  0  0  0
  8  9  2  0  0  0  0
  8 16  1  0  0  0  0
  9 10  1  0  0  0  0
 10 11  4  0  0  0  0
 10 15  4  0  0  0  0
 11 12  4  0  0  0  0
 12 13  4  0  0  0  0
 13 14  4  0  0  0  0
 14 15  4  0  0  0  0
 16 17  1  0  0  0  0
 16 21  1  0  0  0  0
 17 18  1  0  0  0  0
 18 19  1  0  0  0  0
 19 20  1  0  0  0  0
 19 22  1  0  0  0  0
 20 21  1  0  0  0  0
 22 23  1  0  0  0  0
 23 24  1  0  0  0  0
 24 25  1  0  0  0  0
 25 26  1  0  0  0  0
 26 27  1  0  0  0  0
M  END
>  <Name_Molregno>
QUETIAPINE

>  <5-HT1A>
6.59

>  <5-HT1B>
5.83

>  <5-HT1D>
5.52

>  <5-HT1E>
5.76

>  <5-HT2A>
6.76

>  <5-HT2C>
5.82

>  <5-HT3>
5

>  <5-HT5>
5.51

>  <5-HT6>
6.35

>  <5-HT7>
6.74

>  <Alpha-1A>
7.66

>  <Alpha-1B>
7.41

>  <Alpha-2A>
5.51

>  <Alpha-2B>
6.44

>  <Alpha-2C>
7.18

>  <Beta-1>
5.15

>  <Beta-2>
5.15

>  <DOPAMINE D1>
5.95

>  <DOPAMINE D2>
6.51

>  <DOPAMINE D3>
6.59

>  <DOPAMINE D4>
5.77

>  <DOPAMINE D5>
5.79

>  <Dopamine transporter>
5

>  <HISTAMINE H1>
8.1

>  <HISTAMINE H2>
5

>  <HISTAMINE H4>
5

>  <Muscarinic acetylcholine receptor M1>
6.71

>  <Muscarinic acetylcholine receptor M2>
6.03

>  <Muscarinic acetylcholine receptor M3>
5.69

>  <Muscarinic acetylcholine receptor M4>
6.5

>  <Muscarinic acetylcholine receptor M5>
5.58

>  <Norepinephrine transporter>
5

>  <Serotonin transporter>
5.18

$$$$
RISPERIDONE
  Marvin  02231216192D 0   1.00000     0.00000     0

 30 34  0  0  0  0  0  0  0  0999 V2000
    1.8325   -2.9394    0.0000 F   0  0  0  0  0  0  0  0  0
    2.0875   -2.1548    0.0000 C   0  0  0  0  0  0  0  0  0
    1.5354   -1.5417    0.0000 C   0  0  0  0  0  0  0  0  0
    1.7904   -0.7571    0.0000 C   0  0  0  0  0  0  0  0  0
    1.3779   -0.0426    0.0000 O   0  0  0  0  0  0  0  0  0
    1.9299    0.5705    0.0000 N   0  0  0  0  0  0  0  0  0
    2.6836    0.2349    0.0000 C   0  0  0  0  0  0  0  0  0
    2.5974   -0.5856    0.0000 C   0  0  0  0  0  0  0  0  0
    3.1494   -1.1987    0.0000 C   0  0  0  0  0  0  0  0  0
    2.8945   -1.9833    0.0000 C   0  0  0  0  0  0  0  0  0
    3.3981    0.6474    0.0000 C   0  0  0  0  0  0  0  0  0
    3.3981    1.4724    0.0000 C   0  0  0  0  0  0  0  0  0
    4.1125    1.8849    0.0000 C   0  0  0  0  0  0  0  0  0
    4.8270    1.4724    0.0000 N   0  0  0  0  0  0  0  0  0
    4.8270    0.6474    0.0000 C   0  0  0  0  0  0  0  0  0
    4.1125    0.2349    0.0000 C   0  0  0  0  0  0  0  0  0
    5.5415    1.8849    0.0000 C   0  0  0  0  0  0  0  0  0
    6.2559    1.4724    0.0000 C   0  0  0  0  0  0  0  0  0
    6.9704    1.8849    0.0000 C   0  0  0  0  0  0  0  0  0
    7.6849    1.4724    0.0000 C   0  0  0  0  0  0  0  0  0
    7.6849    0.6474    0.0000 O   0  0  0  0  0  0  0  0  0
    8.3994    1.8849    0.0000 N   0  0  0  0  0  0  0  0  0
    8.3994    2.7099    0.0000 C   0  0  0  0  0  0  0  0  0
    7.6849    3.1224    0.0000 N   0  0  0  0  0  0  0  0  0
    6.9704    2.7099    0.0000 C   0  0  0  0  0  0  0  0  0
    6.2559    3.1224    0.0000 C   0  0  0  0  0  0  0  0  0
    9.1138    3.1224    0.0000 C   0  0  0  0  0  0  0  0  0
    9.8283    2.7099    0.0000 C   0  0  0  0  0  0  0  0  0
    9.8283    1.8849    0.0000 C   0  0  0  0  0  0  0  0  0
    9.1138    1.4724    0.0000 C   0  0  0  0  0  0  0  0  0
  1  2  1  0  0  0  0
  2  3  4  0  0  0  0
  2 10  4  0  0  0  0
  3  4  4  0  0  0  0
  4  5  4  0  0  0  0
  4  8  4  0  0  0  0
  5  6  4  0  0  0  0
  6  7  4  0  0  0  0
  7  8  4  0  0  0  0
  7 11  1  0  0  0  0
  8  9  4  0  0  0  0
  9 10  4  0  0  0  0
 11 12  1  0  0  0  0
 11 16  1  0  0  0  0
 12 13  1  0  0  0  0
 13 14  1  0  0  0  0
 14 15  1  0  0  0  0
 14 17  1  0  0  0  0
 15 16  1  0  0  0  0
 17 18  1  0  0  0  0
 18 19  1  0  0  0  0
 19 20  1  0  0  0  0
 19 25  2  0  0  0  0
 20 21  2  0  0  0  0
 20 22  1  0  0  0  0
 22 23  1  0  0  0  0
 22 30  1  0  0  0  0
 23 24  2  0  0  0  0
 23 27  1  0  0  0  0
 24 25  1  0  0  0  0
 25 26  1  0  0  0  0
 27 28  1  0  0  0  0
 28 29  1  0  0  0  0
 29 30  1  0  0  0  0
M  END
>  <Name_Molregno>
RISPERIDONE

>  <5-HT1A>
6.52

>  <5-HT1B>
7.66

>  <5-HT1D>
7.6

>  <5-HT1E>
5.44

>  <5-HT2A>
9.35

>  <5-HT2C>
7.74

>  <5-HT3>
5

>  <5-HT5>
6.69

>  <5-HT6>
5.7

>  <5-HT7>
8.4

>  <Alpha-1A>
8.38

>  <Alpha-1B>
8.05

>  <Alpha-2A>
7.46

>  <Alpha-2B>
7.34

>  <Alpha-2C>
8.56

>  <Beta-1>
5.15

>  <Beta-2>
5.15

>  <DOPAMINE D1>
6.61

>  <DOPAMINE D2>
8.58

>  <DOPAMINE D3>
8.17

>  <DOPAMINE D4>
8.17

>  <DOPAMINE D5>
7.03

>  <Dopamine transporter>
5

>  <HISTAMINE H1>
7.79

>  <HISTAMINE H2>
6.92

>  <HISTAMINE H4>
5

>  <Muscarinic acetylcholine receptor M1>
5.22

>  <Muscarinic acetylcholine receptor M2>
5.14

>  <Muscarinic acetylcholine receptor M3>
5

>  <Muscarinic acetylcholine receptor M4>
5.18

>  <Muscarinic acetylcholine receptor M5>
5

>  <Norepinephrine transporter>
5

>  <Serotonin transporter>
5.67

$$$$
ROFECOXIB
  Marvin  02231216192D 0   1.00000     0.00000     0

 22 24  0  0  0  0  0  0  0  0999 V2000
   -1.7307    1.7900    0.0000 S   0  0  0  0  0  0  0  0  0
   -1.7307    2.6150    0.0000 O   0  0  0  0  0  0  0  0  0
   -2.5557    1.7900    0.0000 O   0  0  0  0  0  0  0  0  0
   -0.9057    1.7900    0.0000 C   0  0  0  0  0  0  0  0  0
   -1.7307    0.9650    0.0000 C   0  0  0  0  0  0  0  0  0
   -1.0163    0.5525    0.0000 C   0  0  0  0  0  0  0  0  0
   -1.0163   -0.2725    0.0000 C   0  0  0  0  0  0  0  0  0
   -1.7307   -0.6850    0.0000 C   0  0  0  0  0  0  0  0  0
   -2.4452   -0.2725    0.0000 C   0  0  0  0  0  0  0  0  0
   -2.4452    0.5525    0.0000 C   0  0  0  0  0  0  0  0  0
   -1.7307   -1.5100    0.0000 C   0  0  0  0  0  0  0  0  0
   -1.0633   -1.9950    0.0000 C   0  0  0  0  0  0  0  0  0
   -1.3182   -2.7796    0.0000 O   0  0  0  0  0  0  0  0  0
   -2.1432   -2.7796    0.0000 C   0  0  0  0  0  0  0  0  0
   -2.6282   -3.4470    0.0000 O   0  0  0  0  0  0  0  0  0
   -2.3982   -1.9950    0.0000 C   0  0  0  0  0  0  0  0  0
   -3.1828   -1.7400    0.0000 C   0  0  0  0  0  0  0  0  0
   -3.7959   -2.2920    0.0000 C   0  0  0  0  0  0  0  0  0
   -4.5805   -2.0371    0.0000 C   0  0  0  0  0  0  0  0  0
   -4.7520   -1.2301    0.0000 C   0  0  0  0  0  0  0  0  0
   -4.1390   -0.6781    0.0000 C   0  0  0  0  0  0  0  0  0
   -3.3543   -0.9330    0.0000 C   0  0  0  0  0  0  0  0  0
  1  2  2  0  0  0  0
  1  3  2  0  0  0  0
  1  4  1  0  0  0  0
  1  5  1  0  0  0  0
  5  6  4  0  0  0  0
  5 10  4  0  0  0  0
  6  7  4  0  0  0  0
  7  8  4  0  0  0  0
  8  9  4  0  0  0  0
  8 11  1  0  0  0  0
  9 10  4  0  0  0  0
 11 12  1  0  0  0  0
 11 16  2  0  0  0  0
 12 13  1  0  0  0  0
 13 14  1  0  0  0  0
 14 15  2  0  0  0  0
 14 16  1  0  0  0  0
 16 17  1  0  0  0  0
 17 18  4  0  0  0  0
 17 22  4  0  0  0  0
 18 19  4  0  0  0  0
 19 20  4  0  0  0  0
 20 21  4  0  0  0  0
 21 22  4  0  0  0  0
M  END
>  <Name_Molregno>
ROFECOXIB

>  <5-HT1A>
5

>  <5-HT1B>
5

>  <5-HT1D>
5

>  <5-HT1E>
5

>  <5-HT2A>
5

>  <5-HT3>
5

>  <5-HT6>
5

>  <5-HT7>
5

>  <Alpha-1A>
5

>  <Alpha-1B>
5

>  <Alpha-2A>
5

>  <Alpha-2B>
5

>  <Alpha-2C>
5

>  <DOPAMINE D1>
5

>  <DOPAMINE D2>
5

>  <DOPAMINE D5>
5

>  <Dopamine transporter>
5

>  <HISTAMINE H2>
5

>  <Muscarinic acetylcholine receptor M2>
5

>  <Muscarinic acetylcholine receptor M5>
5

>  <Norepinephrine transporter>
5

>  <Serotonin transporter>
5

$$$$
Ropinirole
  Marvin  02231216192D 0   1.00000     0.00000     0

 19 20  0  0  0  0  0  0  0  0999 V2000
    0.9619   -1.7047    0.0000 O   0  0  0  0  0  0  0  0  0
    1.7869   -1.7047    0.0000 C   0  0  0  0  0  0  0  0  0
    2.2718   -2.3721    0.0000 N   0  0  0  0  0  0  0  0  0
    3.0565   -2.1172    0.0000 C   0  0  0  0  0  0  0  0  0
    3.0565   -1.2922    0.0000 C   0  0  0  0  0  0  0  0  0
    2.2718   -1.0372    0.0000 C   0  0  0  0  0  0  0  0  0
    3.7709   -0.8797    0.0000 C   0  0  0  0  0  0  0  0  0
    4.4854   -1.2922    0.0000 C   0  0  0  0  0  0  0  0  0
    4.4854   -2.1172    0.0000 C   0  0  0  0  0  0  0  0  0
    3.7709   -2.5297    0.0000 C   0  0  0  0  0  0  0  0  0
    3.7709   -0.0547    0.0000 C   0  0  0  0  0  0  0  0  0
    3.0565    0.3578    0.0000 C   0  0  0  0  0  0  0  0  0
    3.0565    1.1828    0.0000 N   0  0  0  0  0  0  0  0  0
    2.3420    1.5953    0.0000 C   0  0  0  0  0  0  0  0  0
    2.3420    2.4203    0.0000 C   0  0  0  0  0  0  0  0  0
    1.6275    2.8328    0.0000 C   0  0  0  0  0  0  0  0  0
    3.7709    1.5953    0.0000 C   0  0  0  0  0  0  0  0  0
    3.7709    2.4203    0.0000 C   0  0  0  0  0  0  0  0  0
    4.4854    2.8328    0.0000 C   0  0  0  0  0  0  0  0  0
  1  2  2  0  0  0  0
  2  3  1  0  0  0  0
  2  6  1  0  0  0  0
  3  4  1  0  0  0  0
  4  5  4  0  0  0  0
  4 10  4  0  0  0  0
  5  6  1  0  0  0  0
  5  7  4  0  0  0  0
  7  8  4  0  0  0  0
  7 11  1  0  0  0  0
  8  9  4  0  0  0  0
  9 10  4  0  0  0  0
 11 12  1  0  0  0  0
 12 13  1  0  0  0  0
 13 14  1  0  0  0  0
 13 17  1  0  0  0  0
 14 15  1  0  0  0  0
 15 16  1  0  0  0  0
 17 18  1  0  0  0  0
 18 19  1  0  0  0  0
M  END
>  <Name_Molregno>
Ropinirole

>  <5-HT1A>
6.28

>  <5-HT1B>
5

>  <5-HT1D>
5.86

>  <5-HT2A>
5

>  <5-HT2C>
5

>  <5-HT5>
5

>  <5-HT6>
5

>  <5-HT7>
5.82

>  <Alpha-1A>
5

>  <Alpha-1B>
5

>  <Alpha-2A>
5.73

>  <Alpha-2B>
6.12

>  <Alpha-2C>
5.92

>  <Beta-1>
5

>  <Beta-2>
5

>  <DOPAMINE D1>
5

>  <DOPAMINE D2>
6.45

>  <DOPAMINE D3>
7.5

>  <DOPAMINE D4>
6.07

>  <DOPAMINE D5>
5

$$$$
Roxindole
  Marvin  02231216192D 0   1.00000     0.00000     0

 26 29  0  0  0  0  0  0  0  0999 V2000
   -0.4898   -0.6830    0.0000 O   0  0  0  0  0  0  0  0  0
   -1.2043   -0.2705    0.0000 C   0  0  0  0  0  0  0  0  0
   -1.9188   -0.6830    0.0000 C   0  0  0  0  0  0  0  0  0
   -2.6332   -0.2705    0.0000 C   0  0  0  0  0  0  0  0  0
   -2.6332    0.5545    0.0000 C   0  0  0  0  0  0  0  0  0
   -3.4179    0.8095    0.0000 N   0  0  0  0  0  0  0  0  0
   -3.9028    0.1420    0.0000 C   0  0  0  0  0  0  0  0  0
   -3.4179   -0.5254    0.0000 C   0  0  0  0  0  0  0  0  0
   -3.6728   -1.3100    0.0000 C   0  0  0  0  0  0  0  0  0
   -3.1208   -1.9231    0.0000 C   0  0  0  0  0  0  0  0  0
   -3.3757   -2.7077    0.0000 C   0  0  0  0  0  0  0  0  0
   -2.8237   -3.3208    0.0000 C   0  0  0  0  0  0  0  0  0
   -3.0786   -4.1055    0.0000 N   0  0  0  0  0  0  0  0  0
   -2.5266   -4.7185    0.0000 C   0  0  0  0  0  0  0  0  0
   -2.7815   -5.5032    0.0000 C   0  0  0  0  0  0  0  0  0
   -3.5885   -5.6747    0.0000 C   0  0  0  0  0  0  0  0  0
   -4.1405   -5.0616    0.0000 C   0  0  0  0  0  0  0  0  0
   -3.8856   -4.2770    0.0000 C   0  0  0  0  0  0  0  0  0
   -3.8434   -6.4593    0.0000 C   0  0  0  0  0  0  0  0  0
   -3.2914   -7.0724    0.0000 C   0  0  0  0  0  0  0  0  0
   -3.5463   -7.8570    0.0000 C   0  0  0  0  0  0  0  0  0
   -4.3533   -8.0286    0.0000 C   0  0  0  0  0  0  0  0  0
   -4.9053   -7.4155    0.0000 C   0  0  0  0  0  0  0  0  0
   -4.6504   -6.6308    0.0000 C   0  0  0  0  0  0  0  0  0
   -1.9188    0.9670    0.0000 C   0  0  0  0  0  0  0  0  0
   -1.2043    0.5545    0.0000 C   0  0  0  0  0  0  0  0  0
  1  2  1  0  0  0  0
  2  3  4  0  0  0  0
  2 26  4  0  0  0  0
  3  4  4  0  0  0  0
  4  5  4  0  0  0  0
  4  8  4  0  0  0  0
  5  6  4  0  0  0  0
  5 25  4  0  0  0  0
  6  7  4  0  0  0  0
  7  8  4  0  0  0  0
  8  9  1  0  0  0  0
  9 10  1  0  0  0  0
 10 11  1  0  0  0  0
 11 12  1  0  0  0  0
 12 13  1  0  0  0  0
 13 14  1  0  0  0  0
 13 18  1  0  0  0  0
 14 15  1  0  0  0  0
 15 16  1  0  0  0  0
 16 17  2  0  0  0  0
 16 19  1  0  0  0  0
 17 18  1  0  0  0  0
 19 20  4  0  0  0  0
 19 24  4  0  0  0  0
 20 21  4  0  0  0  0
 21 22  4  0  0  0  0
 22 23  4  0  0  0  0
 23 24  4  0  0  0  0
 25 26  4  0  0  0  0
M  STY  1   1 DAT
M  SAL   1  1   6
M  SDT   1 MRV_IMPLICIT_H                                        
M  SDD   1     0.0000    0.0000    DR    ALL  0       0  
M  SED   1 IMPL_H1
M  END
>  <Name_Molregno>
Roxindole

>  <5-HT1A>
9.94

>  <5-HT1D>
7.2

>  <5-HT2A>
8.18

>  <5-HT2C>
6.51

>  <Alpha-1A>
8.59

>  <Alpha-1B>
8.55

>  <Alpha-2A>
8.21

>  <Alpha-2B>
8.34

>  <Alpha-2C>
8.75

>  <Beta-1>
5.57

>  <Beta-2>
6.03

>  <DOPAMINE D1>
6.33

>  <DOPAMINE D2>
8.45

>  <DOPAMINE D3>
8.93

>  <DOPAMINE D4>
8.23

>  <DOPAMINE D5>
6.72

$$$$
Rutin
  Marvin  02231216192D 0   1.00000     0.00000     0

 43 47  0  0  1  0  0  0  0  0999 V2000
   -0.5116   -0.2044    0.0000 O   0  0  0  0  0  0  0  0  0
   -0.5116    0.6206    0.0000 C   0  0  0  0  0  0  0  0  0
    0.2029    1.0331    0.0000 C   0  0  0  0  0  0  0  0  0
    0.2029    1.8581    0.0000 O   0  0  0  0  0  0  0  0  0
    0.9173    2.2706    0.0000 C   0  0  0  0  0  0  0  0  0
    0.9173    3.0956    0.0000 O   0  0  0  0  0  0  0  0  0
    1.6318    3.5081    0.0000 C   0  0  0  0  0  0  0  0  0
    1.6318    4.3331    0.0000 C   0  0  0  0  0  0  0  0  0
    2.3463    3.0956    0.0000 C   0  0  0  0  0  0  0  0  0
    3.0608    3.5081    0.0000 O   0  0  0  0  0  0  0  0  0
    2.3463    2.2706    0.0000 C   0  0  0  0  0  0  0  0  0
    3.0608    1.8581    0.0000 O   0  0  0  0  0  0  0  0  0
    1.6318    1.8581    0.0000 C   0  0  0  0  0  0  0  0  0
    1.6318    1.0331    0.0000 O   0  0  0  0  0  0  0  0  0
   -1.2261    1.0331    0.0000 C   0  0  0  0  0  0  0  0  0
   -1.2261    1.8581    0.0000 O   0  0  0  0  0  0  0  0  0
   -1.9405    0.6206    0.0000 C   0  0  0  0  0  0  0  0  0
   -2.6550    1.0331    0.0000 O   0  0  0  0  0  0  0  0  0
   -1.9405   -0.2044    0.0000 C   0  0  0  0  0  0  0  0  0
   -2.6550   -0.6169    0.0000 O   0  0  0  0  0  0  0  0  0
   -1.2261   -0.6169    0.0000 C   0  0  0  0  0  0  0  0  0
   -1.2261   -1.4419    0.0000 O   0  0  0  0  0  0  0  0  0
   -0.5116   -1.8544    0.0000 C   0  0  0  0  0  0  0  0  0
   -0.5116   -2.6794    0.0000 C   0  0  0  0  0  0  0  0  0
    0.2029   -3.0919    0.0000 O   0  0  0  0  0  0  0  0  0
    0.9173   -2.6794    0.0000 C   0  0  0  0  0  0  0  0  0
    0.9173   -1.8544    0.0000 C   0  0  0  0  0  0  0  0  0
    0.2029   -1.4419    0.0000 C   0  0  0  0  0  0  0  0  0
    0.2029   -0.6169    0.0000 O   0  0  0  0  0  0  0  0  0
    1.6318   -1.4419    0.0000 C   0  0  0  0  0  0  0  0  0
    1.6318   -0.6169    0.0000 O   0  0  0  0  0  0  0  0  0
    2.3463   -1.8544    0.0000 C   0  0  0  0  0  0  0  0  0
    2.3463   -2.6794    0.0000 C   0  0  0  0  0  0  0  0  0
    3.0608   -3.0919    0.0000 O   0  0  0  0  0  0  0  0  0
    1.6318   -3.0919    0.0000 C   0  0  0  0  0  0  0  0  0
   -1.2261   -3.0919    0.0000 C   0  0  0  0  0  0  0  0  0
   -1.2261   -3.9169    0.0000 C   0  0  0  0  0  0  0  0  0
   -1.9405   -4.3294    0.0000 C   0  0  0  0  0  0  0  0  0
   -1.9405   -5.1544    0.0000 O   0  0  0  0  0  0  0  0  0
   -2.6550   -3.9169    0.0000 C   0  0  0  0  0  0  0  0  0
   -3.3695   -4.3294    0.0000 O   0  0  0  0  0  0  0  0  0
   -2.6550   -3.0919    0.0000 C   0  0  0  0  0  0  0  0  0
   -1.9405   -2.6794    0.0000 C   0  0  0  0  0  0  0  0  0
  1  2  1  0  0  0  0
  1 21  1  0  0  0  0
  2  3  1  0  0  0  0
  2 15  1  0  0  0  0
  3  4  1  0  0  0  0
  4  5  1  0  0  0  0
  5  6  1  0  0  0  0
  5 13  1  0  0  0  0
  6  7  1  0  0  0  0
  7  8  1  0  0  0  0
  7  9  1  0  0  0  0
  9 10  1  0  0  0  0
  9 11  1  0  0  0  0
 11 12  1  0  0  0  0
 11 13  1  0  0  0  0
 13 14  1  0  0  0  0
 15 16  1  0  0  0  0
 15 17  1  0  0  0  0
 17 18  1  0  0  0  0
 17 19  1  0  0  0  0
 19 20  1  0  0  0  0
 19 21  1  0  0  0  0
 21 22  1  0  0  0  0
 22 23  1  0  0  0  0
 23 24  2  0  0  0  0
 23 28  1  0  0  0  0
 24 25  1  0  0  0  0
 24 36  1  0  0  0  0
 25 26  1  0  0  0  0
 26 27  4  0  0  0  0
 26 35  4  0  0  0  0
 27 28  1  0  0  0  0
 27 30  4  0  0  0  0
 28 29  2  0  0  0  0
 30 31  1  0  0  0  0
 30 32  4  0  0  0  0
 32 33  4  0  0  0  0
 33 34  1  0  0  0  0
 33 35  4  0  0  0  0
 36 37  4  0  0  0  0
 36 43  4  0  0  0  0
 37 38  4  0  0  0  0
 38 39  1  0  0  0  0
 38 40  4  0  0  0  0
 40 41  1  0  0  0  0
 40 42  4  0  0  0  0
 42 43  4  0  0  0  0
M  END
>  <Name_Molregno>
Rutin

>  <5-HT1A>
5

>  <5-HT1D>
5

>  <5-HT3>
5

>  <5-HT5>
5

>  <5-HT6>
5

>  <5-HT7>
5

>  <Alpha-1A>
5

>  <Alpha-1B>
5

>  <Alpha-2A>
5.03

>  <Alpha-2B>
5

>  <Alpha-2C>
5.02

>  <DOPAMINE D1>
5

>  <DOPAMINE D5>
5

>  <Muscarinic acetylcholine receptor M1>
5

>  <Muscarinic acetylcholine receptor M2>
5

>  <Muscarinic acetylcholine receptor M3>
5

>  <Muscarinic acetylcholine receptor M4>
5

>  <Muscarinic acetylcholine receptor M5>
7.45

>  <Norepinephrine transporter>
5

>  <Serotonin transporter>
5

$$$$
SalvinorinA
  Marvin  02231216192D 0   1.00000     0.00000     0

 31 34  0  0  1  0  0  0  0  0999 V2000
   -4.2035   -1.1582    0.0000 O   0  0  0  0  0  0  0  0  0
   -3.7910   -1.8727    0.0000 C   0  0  0  0  0  0  0  0  0
   -2.9660   -1.8727    0.0000 C   0  0  0  0  0  0  0  0  0
   -2.5535   -1.1582    0.0000 C   0  0  0  0  0  0  0  0  0
   -1.7285   -1.1582    0.0000 C   0  0  0  0  0  0  0  0  0
   -1.3160   -0.4437    0.0000 C   0  0  0  0  0  0  0  0  0
   -1.7285    0.2708    0.0000 C   0  0  0  0  0  0  0  0  0
   -2.5535    0.2708    0.0000 C   0  0  0  0  0  0  0  0  0
   -2.9660   -0.4437    0.0000 C   0  0  0  0  0  0  0  0  0
   -3.7910   -0.4437    0.0000 C   0  0  0  0  0  0  0  0  0
   -4.2035    0.2708    0.0000 O   0  0  0  0  0  0  0  0  0
   -0.9035    0.2708    0.0000 C   0  0  0  0  0  0  0  0  0
   -0.4910   -0.4437    0.0000 C   0  0  0  0  0  0  0  0  0
   -0.0785   -1.1582    0.0000 C   0  0  0  0  0  0  0  0  0
   -0.4910   -1.8727    0.0000 C   0  0  0  0  0  0  0  0  0
   -0.0785   -2.5871    0.0000 O   0  0  0  0  0  0  0  0  0
    0.7465   -2.5871    0.0000 C   0  0  0  0  0  0  0  0  0
    1.1590   -3.3016    0.0000 O   0  0  0  0  0  0  0  0  0
    1.1590   -1.8727    0.0000 C   0  0  0  0  0  0  0  0  0
   -1.3160   -1.8727    0.0000 C   0  0  0  0  0  0  0  0  0
   -1.7285   -2.5871    0.0000 O   0  0  0  0  0  0  0  0  0
   -0.0785    0.2708    0.0000 C   0  0  0  0  0  0  0  0  0
   -0.4910    0.9852    0.0000 O   0  0  0  0  0  0  0  0  0
   -0.0785    1.6997    0.0000 C   0  0  0  0  0  0  0  0  0
    0.7465    0.2708    0.0000 O   0  0  0  0  0  0  0  0  0
   -2.1410   -1.8727    0.0000 C   0  0  0  0  0  0  0  0  0
   -4.2035   -2.5871    0.0000 C   0  0  0  0  0  0  0  0  0
   -3.8680   -3.3408    0.0000 C   0  0  0  0  0  0  0  0  0
   -4.4811   -3.8928    0.0000 C   0  0  0  0  0  0  0  0  0
   -5.1956   -3.4803    0.0000 O   0  0  0  0  0  0  0  0  0
   -5.0240   -2.6734    0.0000 C   0  0  0  0  0  0  0  0  0
  1  2  1  0  0  0  0
  1 10  1  0  0  0  0
  2  3  1  0  0  0  0
  2 27  1  0  0  0  0
  3  4  1  0  0  0  0
  4  5  1  0  0  0  0
  4  9  1  0  0  0  0
  4 26  1  0  0  0  0
  5  6  1  0  0  0  0
  5 20  1  0  0  0  0
  6  7  1  0  0  0  0
  6 12  1  0  0  0  0
  6 13  1  0  0  0  0
  7  8  1  0  0  0  0
  8  9  1  0  0  0  0
  9 10  1  0  0  0  0
 10 11  2  0  0  0  0
 13 14  1  0  0  0  0
 13 22  1  0  0  0  0
 14 15  1  0  0  0  0
 15 16  1  0  0  0  0
 15 20  1  0  0  0  0
 16 17  1  0  0  0  0
 17 18  2  0  0  0  0
 17 19  1  0  0  0  0
 20 21  2  0  0  0  0
 22 23  1  0  0  0  0
 22 25  2  0  0  0  0
 23 24  1  0  0  0  0
 27 28  4  0  0  0  0
 27 31  4  0  0  0  0
 28 29  4  0  0  0  0
 29 30  4  0  0  0  0
 30 31  4  0  0  0  0
M  END
>  <Name_Molregno>
SalvinorinA

>  <5-HT1A>
5

>  <5-HT1B>
5

>  <5-HT1D>
5

>  <5-HT1E>
5

>  <5-HT3>
5

>  <5-HT5>
5

>  <5-HT6>
5

>  <5-HT7>
5

>  <Alpha-1A>
5

>  <Alpha-1B>
5

>  <DOPAMINE D1>
5

>  <DOPAMINE D2>
5

>  <DOPAMINE D3>
5

>  <DOPAMINE D5>
5

>  <HISTAMINE H1>
5

>  <Muscarinic acetylcholine receptor M1>
5

>  <Muscarinic acetylcholine receptor M2>
5

>  <Muscarinic acetylcholine receptor M3>
5

>  <Muscarinic acetylcholine receptor M4>
5

>  <Muscarinic acetylcholine receptor M5>
5

>  <Serotonin transporter>
5

$$$$
SKF83566
  Marvin  02231216192D 0   1.00000     0.00000     0

 20 22  0  0  1  0  0  0  0  0999 V2000
    0.1938   -0.4763    0.0000 Br  0  0  0  0  0  0  0  0  0
    0.9083   -0.0638    0.0000 C   0  0  0  0  0  0  0  0  0
    1.6227   -0.4763    0.0000 C   0  0  0  0  0  0  0  0  0
    2.3372   -0.0638    0.0000 C   0  0  0  0  0  0  0  0  0
    2.3372    0.7612    0.0000 C   0  0  0  0  0  0  0  0  0
    1.6227    1.1737    0.0000 C   0  0  0  0  0  0  0  0  0
    0.9083    0.7612    0.0000 C   0  0  0  0  0  0  0  0  0
    0.1938    1.1737    0.0000 O   0  0  0  0  0  0  0  0  0
    2.9822    1.2756    0.0000 C   0  0  0  0  0  0  0  0  0
    3.7865    1.0920    0.0000 C   0  0  0  0  0  0  0  0  0
    4.1445    0.3487    0.0000 N   0  0  0  0  0  0  0  0  0
    3.7865   -0.3946    0.0000 C   0  0  0  0  0  0  0  0  0
    2.9822   -0.5782    0.0000 C   0  0  0  0  0  0  0  0  0
    4.9695    0.3487    0.0000 C   0  0  0  0  0  0  0  0  0
    2.7986    2.0799    0.0000 C   0  0  0  0  0  0  0  0  0
    2.0103    2.3230    0.0000 C   0  0  0  0  0  0  0  0  0
    1.8267    3.1274    0.0000 C   0  0  0  0  0  0  0  0  0
    2.4315    3.6885    0.0000 C   0  0  0  0  0  0  0  0  0
    3.2198    3.4453    0.0000 C   0  0  0  0  0  0  0  0  0
    3.4034    2.6410    0.0000 C   0  0  0  0  0  0  0  0  0
  1  2  1  0  0  0  0
  2  3  4  0  0  0  0
  2  7  4  0  0  0  0
  3  4  4  0  0  0  0
  4  5  4  0  0  0  0
  4 13  1  0  0  0  0
  5  6  4  0  0  0  0
  5  9  1  0  0  0  0
  6  7  4  0  0  0  0
  7  8  1  0  0  0  0
  9 10  1  0  0  0  0
  9 15  1  0  0  0  0
 10 11  1  0  0  0  0
 11 12  1  0  0  0  0
 11 14  1  0  0  0  0
 12 13  1  0  0  0  0
 15 16  4  0  0  0  0
 15 20  4  0  0  0  0
 16 17  4  0  0  0  0
 17 18  4  0  0  0  0
 18 19  4  0  0  0  0
 19 20  4  0  0  0  0
M  END
>  <Name_Molregno>
SKF83566

>  <DOPAMINE D1>
9.52

>  <DOPAMINE D5>
9.4

$$$$
SPIPERONE
  Marvin  02231216192D 0   1.00000     0.00000     0

 29 32  0  0  0  0  0  0  0  0999 V2000
   10.5422    0.0060    0.0000 F   0  0  0  0  0  0  0  0  0
    9.7172    0.0060    0.0000 C   0  0  0  0  0  0  0  0  0
    9.3047   -0.7084    0.0000 C   0  0  0  0  0  0  0  0  0
    8.4797   -0.7084    0.0000 C   0  0  0  0  0  0  0  0  0
    8.0672    0.0060    0.0000 C   0  0  0  0  0  0  0  0  0
    8.4797    0.7205    0.0000 C   0  0  0  0  0  0  0  0  0
    9.3047    0.7205    0.0000 C   0  0  0  0  0  0  0  0  0
    7.2422    0.0060    0.0000 C   0  0  0  0  0  0  0  0  0
    6.8297    0.7205    0.0000 O   0  0  0  0  0  0  0  0  0
    6.8297   -0.7084    0.0000 C   0  0  0  0  0  0  0  0  0
    6.0047   -0.7084    0.0000 C   0  0  0  0  0  0  0  0  0
    5.5922   -1.4229    0.0000 C   0  0  0  0  0  0  0  0  0
    4.7672   -1.4229    0.0000 N   0  0  0  0  0  0  0  0  0
    4.3547   -2.1374    0.0000 C   0  0  0  0  0  0  0  0  0
    3.5297   -2.1374    0.0000 C   0  0  0  0  0  0  0  0  0
    3.1172   -1.4229    0.0000 C   0  0  0  0  0  0  0  0  0
    2.6323   -2.0903    0.0000 N   0  0  0  0  0  0  0  0  0
    1.8476   -1.8354    0.0000 C   0  0  0  0  0  0  0  0  0
    1.8476   -1.0104    0.0000 N   0  0  0  0  0  0  0  0  0
    2.6323   -0.7555    0.0000 C   0  0  0  0  0  0  0  0  0
    2.8872    0.0292    0.0000 O   0  0  0  0  0  0  0  0  0
    2.8872   -2.8750    0.0000 C   0  0  0  0  0  0  0  0  0
    3.6942   -3.0465    0.0000 C   0  0  0  0  0  0  0  0  0
    3.9491   -3.8311    0.0000 C   0  0  0  0  0  0  0  0  0
    3.3971   -4.4442    0.0000 C   0  0  0  0  0  0  0  0  0
    2.5901   -4.2727    0.0000 C   0  0  0  0  0  0  0  0  0
    2.3352   -3.4880    0.0000 C   0  0  0  0  0  0  0  0  0
    3.5297   -0.7084    0.0000 C   0  0  0  0  0  0  0  0  0
    4.3547   -0.7084    0.0000 C   0  0  0  0  0  0  0  0  0
  1  2  1  0  0  0  0
  2  3  4  0  0  0  0
  2  7  4  0  0  0  0
  3  4  4  0  0  0  0
  4  5  4  0  0  0  0
  5  6  4  0  0  0  0
  5  8  1  0  0  0  0
  6  7  4  0  0  0  0
  8  9  2  0  0  0  0
  8 10  1  0  0  0  0
 10 11  1  0  0  0  0
 11 12  1  0  0  0  0
 12 13  1  0  0  0  0
 13 14  1  0  0  0  0
 13 29  1  0  0  0  0
 14 15  1  0  0  0  0
 15 16  1  0  0  0  0
 16 17  1  0  0  0  0
 16 20  1  0  0  0  0
 16 28  1  0  0  0  0
 17 18  1  0  0  0  0
 17 22  1  0  0  0  0
 18 19  1  0  0  0  0
 19 20  1  0  0  0  0
 20 21  2  0  0  0  0
 22 23  4  0  0  0  0
 22 27  4  0  0  0  0
 23 24  4  0  0  0  0
 24 25  4  0  0  0  0
 25 26  4  0  0  0  0
 26 27  4  0  0  0  0
 28 29  1  0  0  0  0
M  END
>  <Name_Molregno>
SPIPERONE

>  <5-HT1A>
7

>  <5-HT1B>
5.5

>  <5-HT1D>
5.4

>  <5-HT1E>
5.3

>  <5-HT2A>
8.65

>  <5-HT2C>
6.12

>  <5-HT5>
4.2

>  <5-HT6>
5.8

>  <5-HT7>
7.17

>  <Alpha-1A>
7.9

>  <Alpha-1B>
8.51

>  <DOPAMINE D1>
6.42

>  <DOPAMINE D2>
10.02

>  <DOPAMINE D3>
9.55

>  <DOPAMINE D4>
9.31

>  <DOPAMINE D5>
5.35

>  <HISTAMINE H1>
6.4

$$$$
SULPIRIDE
  Marvin  02231216192D 0   1.00000     0.00000     0

 23 24  0  0  1  0  0  0  0  0999 V2000
   -2.6543    0.9455    0.0000 S   0  0  0  0  0  0  0  0  0
   -2.6543    1.7705    0.0000 O   0  0  0  0  0  0  0  0  0
   -3.4793    0.9455    0.0000 O   0  0  0  0  0  0  0  0  0
   -1.8293    0.9455    0.0000 N   0  0  0  0  0  0  0  0  0
   -2.6543    0.1205    0.0000 C   0  0  0  0  0  0  0  0  0
   -1.9398   -0.2920    0.0000 C   0  0  0  0  0  0  0  0  0
   -1.9398   -1.1170    0.0000 C   0  0  0  0  0  0  0  0  0
   -1.2253   -1.5295    0.0000 C   0  0  0  0  0  0  0  0  0
   -0.5109   -1.1170    0.0000 O   0  0  0  0  0  0  0  0  0
   -1.2253   -2.3545    0.0000 N   0  0  0  0  0  0  0  0  0
   -0.5109   -2.7670    0.0000 C   0  0  0  0  0  0  0  0  0
   -0.5109   -3.5920    0.0000 C   0  0  0  0  0  0  0  0  0
    0.1566   -4.0770    0.0000 N   0  0  0  0  0  0  0  0  0
   -0.0984   -4.8616    0.0000 C   0  0  0  0  0  0  0  0  0
   -0.9234   -4.8616    0.0000 C   0  0  0  0  0  0  0  0  0
   -1.1783   -4.0770    0.0000 C   0  0  0  0  0  0  0  0  0
    0.9412   -3.8220    0.0000 C   0  0  0  0  0  0  0  0  0
    1.1127   -3.0150    0.0000 C   0  0  0  0  0  0  0  0  0
   -2.6543   -1.5295    0.0000 C   0  0  0  0  0  0  0  0  0
   -2.6543   -2.3545    0.0000 O   0  0  0  0  0  0  0  0  0
   -3.3687   -2.7670    0.0000 C   0  0  0  0  0  0  0  0  0
   -3.3687   -1.1170    0.0000 C   0  0  0  0  0  0  0  0  0
   -3.3687   -0.2920    0.0000 C   0  0  0  0  0  0  0  0  0
  1  2  2  0  0  0  0
  1  3  2  0  0  0  0
  1  4  1  0  0  0  0
  1  5  1  0  0  0  0
  5  6  4  0  0  0  0
  5 23  4  0  0  0  0
  6  7  4  0  0  0  0
  7  8  1  0  0  0  0
  7 19  4  0  0  0  0
  8  9  2  0  0  0  0
  8 10  1  0  0  0  0
 10 11  1  0  0  0  0
 11 12  1  0  0  0  0
 12 13  1  0  0  0  0
 12 16  1  0  0  0  0
 13 14  1  0  0  0  0
 13 17  1  0  0  0  0
 14 15  1  0  0  0  0
 15 16  1  0  0  0  0
 17 18  1  0  0  0  0
 19 20  1  0  0  0  0
 19 22  4  0  0  0  0
 20 21  1  0  0  0  0
 22 23  4  0  0  0  0
M  END
>  <Name_Molregno>
SULPIRIDE

>  <5-HT1A>
5

>  <5-HT3>
5

>  <DOPAMINE D1>
5

>  <DOPAMINE D2>
7.23

>  <DOPAMINE D3>
7.64

>  <DOPAMINE D4>
6.54

>  <DOPAMINE D5>
5

$$$$
TERGURIDE
  Marvin  02231216192D 0   1.00000     0.00000     0

 25 28  0  0  1  0  0  0  0  0999 V2000
   -0.3965   -3.1617    0.0000 O   0  0  0  0  0  0  0  0  0
    0.3175   -3.5751    0.0000 C   0  0  0  0  0  0  0  0  0
    1.0325   -3.1634    0.0000 N   0  0  0  0  0  0  0  0  0
    1.0334   -2.3384    0.0000 C   0  0  0  0  0  0  0  0  0
    1.7484   -1.9268    0.0000 C   0  0  0  0  0  0  0  0  0
    1.7494   -1.1018    0.0000 C   0  0  0  0  0  0  0  0  0
    1.0354   -0.6884    0.0000 C   0  0  0  0  0  0  0  0  0
    0.3205   -1.1001    0.0000 N   0  0  0  0  0  0  0  0  0
    0.3195   -1.9251    0.0000 C   0  0  0  0  0  0  0  0  0
   -0.3935   -0.6867    0.0000 C   0  0  0  0  0  0  0  0  0
    1.0369    0.1357    0.0000 C   0  0  0  0  0  0  0  0  0
    1.7494    0.5482    0.0000 C   0  0  0  0  0  0  0  0  0
    2.4619    0.1357    0.0000 C   0  0  0  0  0  0  0  0  0
    2.4619   -0.6893    0.0000 C   0  0  0  0  0  0  0  0  0
    3.1798   -1.1018    0.0000 C   0  0  0  0  0  0  0  0  0
    3.8923   -0.6893    0.0000 C   0  0  0  0  0  0  0  0  0
    3.8923    0.1357    0.0000 C   0  0  0  0  0  0  0  0  0
    3.1798    0.5482    0.0000 C   0  0  0  0  0  0  0  0  0
    2.8744    1.4054    0.0000 N   0  0  0  0  0  0  0  0  0
    2.0494    1.4054    0.0000 C   0  0  0  0  0  0  0  0  0
    0.3165   -4.4001    0.0000 N   0  0  0  0  0  0  0  0  0
   -0.3985   -4.8117    0.0000 C   0  0  0  0  0  0  0  0  0
   -0.3994   -5.6367    0.0000 C   0  0  0  0  0  0  0  0  0
    1.0305   -4.8134    0.0000 C   0  0  0  0  0  0  0  0  0
    1.0295   -5.6384    0.0000 C   0  0  0  0  0  0  0  0  0
  1  2  2  0  0  0  0
  2  3  1  0  0  0  0
  2 21  1  0  0  0  0
  3  4  1  0  0  0  0
  4  5  1  0  0  0  0
  4  9  1  0  0  0  0
  5  6  1  0  0  0  0
  6  7  1  0  0  0  0
  6 14  1  0  0  0  0
  7  8  1  0  0  0  0
  7 11  1  0  0  0  0
  8  9  1  0  0  0  0
  8 10  1  0  0  0  0
 11 12  1  0  0  0  0
 12 13  4  0  0  0  0
 12 20  4  0  0  0  0
 13 14  4  0  0  0  0
 13 18  4  0  0  0  0
 14 15  4  0  0  0  0
 15 16  4  0  0  0  0
 16 17  4  0  0  0  0
 17 18  4  0  0  0  0
 18 19  4  0  0  0  0
 19 20  4  0  0  0  0
 21 22  1  0  0  0  0
 21 24  1  0  0  0  0
 22 23  1  0  0  0  0
 24 25  1  0  0  0  0
M  STY  1   1 DAT
M  SAL   1  1  19
M  SDT   1 MRV_IMPLICIT_H                                        
M  SDD   1     0.0000    0.0000    DR    ALL  0       0  
M  SED   1 IMPL_H1
M  END
>  <Name_Molregno>
TERGURIDE

>  <5-HT1A>
8.46

>  <5-HT1B>
6.59

>  <5-HT1D>
7.79

>  <5-HT2A>
8.32

>  <5-HT2C>
7.32

>  <Alpha-1A>
8.45

>  <Alpha-1B>
7.46

>  <Alpha-2A>
9.53

>  <Alpha-2B>
9.35

>  <Alpha-2C>
9.12

>  <Beta-1>
6.18

>  <Beta-2>
7.7

>  <DOPAMINE D1>
7.55

>  <DOPAMINE D2>
9.06

>  <DOPAMINE D3>
9

>  <DOPAMINE D4>
8.18

>  <DOPAMINE D5>
7.63

$$$$
THIORIDAZINE
  Marvin  02231216192D 0   1.00000     0.00000     0

 25 28  0  0  1  0  0  0  0  0999 V2000
    1.0601   -0.3753    0.0000 S   0  0  0  0  0  0  0  0  0
    1.7746    0.0372    0.0000 C   0  0  0  0  0  0  0  0  0
    1.7746    0.8622    0.0000 C   0  0  0  0  0  0  0  0  0
    1.0601    1.2747    0.0000 N   0  0  0  0  0  0  0  0  0
    0.3456    0.8622    0.0000 C   0  0  0  0  0  0  0  0  0
    0.3456    0.0372    0.0000 C   0  0  0  0  0  0  0  0  0
   -0.3689   -0.3753    0.0000 C   0  0  0  0  0  0  0  0  0
   -1.0833    0.0372    0.0000 C   0  0  0  0  0  0  0  0  0
   -1.0833    0.8622    0.0000 C   0  0  0  0  0  0  0  0  0
   -0.3689    1.2747    0.0000 C   0  0  0  0  0  0  0  0  0
    1.0601    2.0997    0.0000 C   0  0  0  0  0  0  0  0  0
    0.3456    2.5122    0.0000 C   0  0  0  0  0  0  0  0  0
    0.3456    3.3372    0.0000 C   0  0  0  0  0  0  0  0  0
   -0.3689    3.7497    0.0000 N   0  0  0  0  0  0  0  0  0
   -0.3689    4.5747    0.0000 C   0  0  0  0  0  0  0  0  0
    0.3456    4.9872    0.0000 C   0  0  0  0  0  0  0  0  0
    1.0601    4.5747    0.0000 C   0  0  0  0  0  0  0  0  0
    1.0601    3.7497    0.0000 C   0  0  0  0  0  0  0  0  0
   -1.0833    3.3372    0.0000 C   0  0  0  0  0  0  0  0  0
    2.4890    1.2747    0.0000 C   0  0  0  0  0  0  0  0  0
    3.2035    0.8622    0.0000 C   0  0  0  0  0  0  0  0  0
    3.9180    1.2747    0.0000 S   0  0  0  0  0  0  0  0  0
    3.9180    2.0997    0.0000 C   0  0  0  0  0  0  0  0  0
    3.2035    0.0372    0.0000 C   0  0  0  0  0  0  0  0  0
    2.4890   -0.3753    0.0000 C   0  0  0  0  0  0  0  0  0
  1  2  1  0  0  0  0
  1  6  1  0  0  0  0
  2  3  4  0  0  0  0
  2 25  4  0  0  0  0
  3  4  1  0  0  0  0
  3 20  4  0  0  0  0
  4  5  1  0  0  0  0
  4 11  1  0  0  0  0
  5  6  4  0  0  0  0
  5 10  4  0  0  0  0
  6  7  4  0  0  0  0
  7  8  4  0  0  0  0
  8  9  4  0  0  0  0
  9 10  4  0  0  0  0
 11 12  1  0  0  0  0
 12 13  1  0  0  0  0
 13 14  1  0  0  0  0
 13 18  1  0  0  0  0
 14 15  1  0  0  0  0
 14 19  1  0  0  0  0
 15 16  1  0  0  0  0
 16 17  1  0  0  0  0
 17 18  1  0  0  0  0
 20 21  4  0  0  0  0
 21 22  1  0  0  0  0
 21 24  4  0  0  0  0
 22 23  1  0  0  0  0
 24 25  4  0  0  0  0
M  END
>  <Name_Molregno>
THIORIDAZINE

>  <5-HT1A>
6.85

>  <5-HT1B>
6.96

>  <5-HT1D>
6.24

>  <5-HT1E>
6.71

>  <5-HT2A>
7.95

>  <5-HT2C>
7.28

>  <5-HT3>
5

>  <5-HT5>
6.44

>  <5-HT6>
7.24

>  <5-HT7>
7.05

>  <Alpha-1A>
8.6

>  <Alpha-1B>
8.62

>  <Alpha-2A>
6.87

>  <Alpha-2B>
6.47

>  <Alpha-2C>
7.13

>  <Beta-1>
5

>  <Beta-2>
5

>  <DOPAMINE D1>
7.03

>  <DOPAMINE D2>
8.31

>  <DOPAMINE D3>
8.59

>  <DOPAMINE D4>
8.21

>  <DOPAMINE D5>
6.6

>  <Dopamine transporter>
5.77

>  <HISTAMINE H1>
7.79

>  <HISTAMINE H2>
6.87

>  <HISTAMINE H4>
5.62

>  <Muscarinic acetylcholine receptor M1>
8.21

>  <Muscarinic acetylcholine receptor M2>
7.26

>  <Muscarinic acetylcholine receptor M3>
7.6

>  <Muscarinic acetylcholine receptor M4>
7.38

>  <Muscarinic acetylcholine receptor M5>
7.9

>  <Norepinephrine transporter>
6.07

>  <Serotonin transporter>
5.9

$$$$
TRAZODONE
  Marvin  02231216192D 0   1.00000     0.00000     0

 26 29  0  0  0  0  0  0  0  0999 V2000
    0.6158   -2.7707    0.0000 Cl  0  0  0  0  0  0  0  0  0
    1.4408   -2.7707    0.0000 C   0  0  0  0  0  0  0  0  0
    1.8533   -2.0563    0.0000 C   0  0  0  0  0  0  0  0  0
    2.6783   -2.0563    0.0000 C   0  0  0  0  0  0  0  0  0
    3.0908   -1.3418    0.0000 N   0  0  0  0  0  0  0  0  0
    2.6783   -0.6273    0.0000 C   0  0  0  0  0  0  0  0  0
    3.0908    0.0872    0.0000 C   0  0  0  0  0  0  0  0  0
    3.9158    0.0872    0.0000 N   0  0  0  0  0  0  0  0  0
    4.3283   -0.6273    0.0000 C   0  0  0  0  0  0  0  0  0
    3.9158   -1.3418    0.0000 C   0  0  0  0  0  0  0  0  0
    4.3283    0.8016    0.0000 C   0  0  0  0  0  0  0  0  0
    5.1533    0.8016    0.0000 C   0  0  0  0  0  0  0  0  0
    5.5658    1.5161    0.0000 C   0  0  0  0  0  0  0  0  0
    6.3908    1.5161    0.0000 N   0  0  0  0  0  0  0  0  0
    6.8757    0.8487    0.0000 N   0  0  0  0  0  0  0  0  0
    7.6604    1.1036    0.0000 C   0  0  0  0  0  0  0  0  0
    7.6604    1.9286    0.0000 N   0  0  0  0  0  0  0  0  0
    8.3748    2.3411    0.0000 C   0  0  0  0  0  0  0  0  0
    9.0893    1.9286    0.0000 C   0  0  0  0  0  0  0  0  0
    9.0893    1.1036    0.0000 C   0  0  0  0  0  0  0  0  0
    8.3748    0.6911    0.0000 C   0  0  0  0  0  0  0  0  0
    6.8757    2.1835    0.0000 C   0  0  0  0  0  0  0  0  0
    6.6208    2.9682    0.0000 O   0  0  0  0  0  0  0  0  0
    3.0908   -2.7707    0.0000 C   0  0  0  0  0  0  0  0  0
    2.6783   -3.4852    0.0000 C   0  0  0  0  0  0  0  0  0
    1.8533   -3.4852    0.0000 C   0  0  0  0  0  0  0  0  0
  1  2  1  0  0  0  0
  2  3  4  0  0  0  0
  2 26  4  0  0  0  0
  3  4  4  0  0  0  0
  4  5  1  0  0  0  0
  4 24  4  0  0  0  0
  5  6  1  0  0  0  0
  5 10  1  0  0  0  0
  6  7  1  0  0  0  0
  7  8  1  0  0  0  0
  8  9  1  0  0  0  0
  8 11  1  0  0  0  0
  9 10  1  0  0  0  0
 11 12  1  0  0  0  0
 12 13  1  0  0  0  0
 13 14  1  0  0  0  0
 14 15  1  0  0  0  0
 14 22  1  0  0  0  0
 15 16  2  0  0  0  0
 16 17  1  0  0  0  0
 16 21  1  0  0  0  0
 17 18  1  0  0  0  0
 17 22  1  0  0  0  0
 18 19  2  0  0  0  0
 19 20  1  0  0  0  0
 20 21  2  0  0  0  0
 22 23  2  0  0  0  0
 24 25  4  0  0  0  0
 25 26  4  0  0  0  0
M  END
>  <Name_Molregno>
TRAZODONE

>  <5-HT1A>
6.97

>  <5-HT1B>
5

>  <5-HT1D>
6.97

>  <5-HT1E>
5

>  <5-HT2A>
7.46

>  <5-HT2C>
6.65

>  <5-HT3>
5

>  <5-HT5>
5

>  <5-HT6>
5

>  <5-HT7>
5.75

>  <Alpha-1A>
6.82

>  <Alpha-2A>
6.14

>  <Alpha-2C>
6.81

>  <Beta-1>
5

>  <Beta-2>
5

>  <DOPAMINE D1>
5.43

>  <DOPAMINE D2>
5.42

>  <DOPAMINE D4>
6.15

>  <DOPAMINE D5>
5

>  <Dopamine transporter>
5.07

>  <HISTAMINE H1>
6.31

>  <HISTAMINE H2>
5.48

>  <HISTAMINE H4>
5

>  <Muscarinic acetylcholine receptor M1>
5

>  <Muscarinic acetylcholine receptor M2>
5

>  <Muscarinic acetylcholine receptor M3>
5

>  <Muscarinic acetylcholine receptor M4>
5

>  <Muscarinic acetylcholine receptor M5>
5

>  <Norepinephrine transporter>
5.02

>  <Serotonin transporter>
6.14

$$$$
VALDECOXIB
  Marvin  02231216192D 0   1.00000     0.00000     0

 22 24  0  0  0  0  0  0  0  0999 V2000
   -2.8104    3.0816    0.0000 S   0  0  0  0  0  0  0  0  0
   -2.8104    3.9066    0.0000 O   0  0  0  0  0  0  0  0  0
   -3.6354    3.0816    0.0000 O   0  0  0  0  0  0  0  0  0
   -1.9854    3.0816    0.0000 N   0  0  0  0  0  0  0  0  0
   -2.8104    2.2566    0.0000 C   0  0  0  0  0  0  0  0  0
   -2.0959    1.8441    0.0000 C   0  0  0  0  0  0  0  0  0
   -2.0959    1.0191    0.0000 C   0  0  0  0  0  0  0  0  0
   -2.8104    0.6066    0.0000 C   0  0  0  0  0  0  0  0  0
   -3.5249    1.0191    0.0000 C   0  0  0  0  0  0  0  0  0
   -3.5249    1.8441    0.0000 C   0  0  0  0  0  0  0  0  0
   -2.8104   -0.2184    0.0000 C   0  0  0  0  0  0  0  0  0
   -2.1430   -0.7033    0.0000 C   0  0  0  0  0  0  0  0  0
   -2.3979   -1.4879    0.0000 N   0  0  0  0  0  0  0  0  0
   -3.2229   -1.4879    0.0000 O   0  0  0  0  0  0  0  0  0
   -3.4778   -0.7033    0.0000 C   0  0  0  0  0  0  0  0  0
   -4.2625   -0.4483    0.0000 C   0  0  0  0  0  0  0  0  0
   -1.3583   -0.4483    0.0000 C   0  0  0  0  0  0  0  0  0
   -1.1868    0.3586    0.0000 C   0  0  0  0  0  0  0  0  0
   -0.4022    0.6136    0.0000 C   0  0  0  0  0  0  0  0  0
    0.2109    0.0615    0.0000 C   0  0  0  0  0  0  0  0  0
    0.0394   -0.7454    0.0000 C   0  0  0  0  0  0  0  0  0
   -0.7452   -1.0004    0.0000 C   0  0  0  0  0  0  0  0  0
  1  2  2  0  0  0  0
  1  3  2  0  0  0  0
  1  4  1  0  0  0  0
  1  5  1  0  0  0  0
  5  6  4  0  0  0  0
  5 10  4  0  0  0  0
  6  7  4  0  0  0  0
  7  8  4  0  0  0  0
  8  9  4  0  0  0  0
  8 11  1  0  0  0  0
  9 10  4  0  0  0  0
 11 12  4  0  0  0  0
 11 15  4  0  0  0  0
 12 13  4  0  0  0  0
 12 17  1  0  0  0  0
 13 14  4  0  0  0  0
 14 15  4  0  0  0  0
 15 16  1  0  0  0  0
 17 18  4  0  0  0  0
 17 22  4  0  0  0  0
 18 19  4  0  0  0  0
 19 20  4  0  0  0  0
 20 21  4  0  0  0  0
 21 22  4  0  0  0  0
M  END
>  <Name_Molregno>
VALDECOXIB

>  <5-HT1A>
5

>  <5-HT1B>
5

>  <5-HT1D>
5

>  <5-HT1E>
5

>  <5-HT2A>
5

>  <5-HT3>
5

>  <5-HT6>
5

>  <5-HT7>
5

>  <Alpha-1A>
5

>  <Alpha-1B>
5

>  <Alpha-2A>
5

>  <Alpha-2B>
5

>  <Alpha-2C>
5

>  <DOPAMINE D1>
5

>  <DOPAMINE D2>
5

>  <DOPAMINE D5>
5

>  <Dopamine transporter>
5

>  <HISTAMINE H1>
5

>  <HISTAMINE H2>
5

>  <Muscarinic acetylcholine receptor M2>
5

>  <Muscarinic acetylcholine receptor M5>
5

>  <Serotonin transporter>
5

$$$$
valeryl-salicylate
  Marvin  02231216192D 0   1.00000     0.00000     0

 16 16  0  0  0  0  0  0  0  0999 V2000
   -0.4431    0.9218    0.0000 O   0  0  0  0  0  0  0  0  0
    0.2714    1.3343    0.0000 C   0  0  0  0  0  0  0  0  0
    0.2714    2.1593    0.0000 O   0  0  0  0  0  0  0  0  0
    0.9859    0.9218    0.0000 C   0  0  0  0  0  0  0  0  0
    1.7003    1.3343    0.0000 C   0  0  0  0  0  0  0  0  0
    2.4148    0.9218    0.0000 C   0  0  0  0  0  0  0  0  0
    2.4148    0.0968    0.0000 C   0  0  0  0  0  0  0  0  0
   -0.4431    0.0968    0.0000 C   0  0  0  0  0  0  0  0  0
    0.2714   -0.3157    0.0000 C   0  0  0  0  0  0  0  0  0
    0.2714   -1.1407    0.0000 C   0  0  0  0  0  0  0  0  0
   -0.4431   -1.5532    0.0000 C   0  0  0  0  0  0  0  0  0
   -1.1576   -1.1407    0.0000 C   0  0  0  0  0  0  0  0  0
   -1.1576   -0.3157    0.0000 C   0  0  0  0  0  0  0  0  0
   -1.8720    0.0968    0.0000 C   0  0  0  0  0  0  0  0  0
   -2.5865   -0.3157    0.0000 O   0  0  0  0  0  0  0  0  0
   -1.8720    0.9218    0.0000 O   0  0  0  0  0  0  0  0  0
  1  2  1  0  0  0  0
  1  8  1  0  0  0  0
  2  3  2  0  0  0  0
  2  4  1  0  0  0  0
  4  5  1  0  0  0  0
  5  6  1  0  0  0  0
  6  7  1  0  0  0  0
  8  9  4  0  0  0  0
  8 13  4  0  0  0  0
  9 10  4  0  0  0  0
 10 11  4  0  0  0  0
 11 12  4  0  0  0  0
 12 13  4  0  0  0  0
 13 14  1  0  0  0  0
 14 15  1  0  0  0  0
 14 16  2  0  0  0  0
M  END
>  <Name_Molregno>
valeryl-salicylate

>  <5-HT1A>
5

>  <5-HT1B>
5

>  <5-HT1D>
5

>  <5-HT1E>
5

>  <5-HT2A>
5

>  <5-HT3>
5

>  <5-HT5>
5

>  <5-HT6>
5

>  <5-HT7>
5

>  <Alpha-1A>
5

>  <Alpha-1B>
5

>  <Alpha-2A>
5

>  <Alpha-2B>
5

>  <Alpha-2C>
5

>  <DOPAMINE D1>
5

>  <DOPAMINE D2>
5

>  <DOPAMINE D4>
5

>  <DOPAMINE D5>
5

>  <HISTAMINE H1>
5

>  <HISTAMINE H2>
5

>  <HISTAMINE H4>
5

>  <Muscarinic acetylcholine receptor M2>
5

>  <Muscarinic acetylcholine receptor M5>
5

$$$$
ZIPRASIDONE
  Marvin  02231216192D 0   1.00000     0.00000     0

 28 32  0  0  0  0  0  0  0  0999 V2000
   -5.2868    0.2535    0.0000 Cl  0  0  0  0  0  0  0  0  0
   -4.7347    0.8666    0.0000 C   0  0  0  0  0  0  0  0  0
   -4.9897    1.6513    0.0000 C   0  0  0  0  0  0  0  0  0
   -4.4376    2.2643    0.0000 C   0  0  0  0  0  0  0  0  0
   -4.5239    3.0848    0.0000 N   0  0  0  0  0  0  0  0  0
   -3.7702    3.4204    0.0000 C   0  0  0  0  0  0  0  0  0
   -3.5987    4.2274    0.0000 O   0  0  0  0  0  0  0  0  0
   -3.2182    2.8073    0.0000 C   0  0  0  0  0  0  0  0  0
   -3.6307    2.0928    0.0000 C   0  0  0  0  0  0  0  0  0
   -3.3757    1.3082    0.0000 C   0  0  0  0  0  0  0  0  0
   -3.9278    0.6951    0.0000 C   0  0  0  0  0  0  0  0  0
   -3.6728   -0.0895    0.0000 C   0  0  0  0  0  0  0  0  0
   -2.8658   -0.2610    0.0000 C   0  0  0  0  0  0  0  0  0
   -2.6109   -1.0457    0.0000 N   0  0  0  0  0  0  0  0  0
   -1.8039   -1.2172    0.0000 C   0  0  0  0  0  0  0  0  0
   -1.5490   -2.0018    0.0000 C   0  0  0  0  0  0  0  0  0
   -2.1010   -2.6149    0.0000 N   0  0  0  0  0  0  0  0  0
   -2.9080   -2.4434    0.0000 C   0  0  0  0  0  0  0  0  0
   -3.1629   -1.6588    0.0000 C   0  0  0  0  0  0  0  0  0
   -1.8461   -3.3995    0.0000 C   0  0  0  0  0  0  0  0  0
   -2.3310   -4.0670    0.0000 N   0  0  0  0  0  0  0  0  0
   -1.8461   -4.7344    0.0000 S   0  0  0  0  0  0  0  0  0
   -1.0615   -4.4795    0.0000 C   0  0  0  0  0  0  0  0  0
   -1.0615   -3.6545    0.0000 C   0  0  0  0  0  0  0  0  0
   -0.3470   -3.2420    0.0000 C   0  0  0  0  0  0  0  0  0
    0.3675   -3.6545    0.0000 C   0  0  0  0  0  0  0  0  0
    0.3675   -4.4795    0.0000 C   0  0  0  0  0  0  0  0  0
   -0.3470   -4.8920    0.0000 C   0  0  0  0  0  0  0  0  0
  1  2  1  0  0  0  0
  2  3  4  0  0  0  0
  2 11  4  0  0  0  0
  3  4  4  0  0  0  0
  4  5  1  0  0  0  0
  4  9  4  0  0  0  0
  5  6  1  0  0  0  0
  6  7  2  0  0  0  0
  6  8  1  0  0  0  0
  8  9  1  0  0  0  0
  9 10  4  0  0  0  0
 10 11  4  0  0  0  0
 11 12  1  0  0  0  0
 12 13  1  0  0  0  0
 13 14  1  0  0  0  0
 14 15  1  0  0  0  0
 14 19  1  0  0  0  0
 15 16  1  0  0  0  0
 16 17  1  0  0  0  0
 17 18  1  0  0  0  0
 17 20  1  0  0  0  0
 18 19  1  0  0  0  0
 20 21  4  0  0  0  0
 20 24  4  0  0  0  0
 21 22  4  0  0  0  0
 22 23  4  0  0  0  0
 23 24  4  0  0  0  0
 23 28  4  0  0  0  0
 24 25  4  0  0  0  0
 25 26  4  0  0  0  0
 26 27  4  0  0  0  0
 27 28  4  0  0  0  0
M  END
>  <Name_Molregno>
ZIPRASIDONE

>  <5-HT1A>
8.19

>  <5-HT1B>
8.7

>  <5-HT1D>
8.32

>  <5-HT1E>
6.17

>  <5-HT2A>
9.54

>  <5-HT2C>
8.82

>  <5-HT3>
5.7

>  <5-HT5>
6.54

>  <5-HT6>
7.17

>  <5-HT7>
8.23

>  <Alpha-1A>
7.74

>  <Alpha-1B>
8.05

>  <Alpha-2A>
6.8

>  <Alpha-2B>
7.32

>  <Alpha-2C>
7.15

>  <Beta-1>
5.3

>  <Beta-2>
5.15

>  <DOPAMINE D1>
7.1

>  <DOPAMINE D2>
8.39

>  <DOPAMINE D3>
8.21

>  <DOPAMINE D4>
7.43

>  <DOPAMINE D5>
6.82

>  <Dopamine transporter>
5

>  <HISTAMINE H1>
7.51

>  <HISTAMINE H2>
5.46

>  <HISTAMINE H4>
5

>  <Muscarinic acetylcholine receptor M1>
5.53

>  <Muscarinic acetylcholine receptor M2>
5.26

>  <Muscarinic acetylcholine receptor M3>
5.3

>  <Muscarinic acetylcholine receptor M4>
5.4

>  <Muscarinic acetylcholine receptor M5>
5.4

>  <Norepinephrine transporter>
7.36

>  <Serotonin transporter>
6.92

$$$$
ZOTEPINE
  Marvin  02231216192D 0   1.00000     0.00000     0

 22 24  0  0  0  0  0  0  0  0999 V2000
    1.8575   -4.4413    0.0000 Cl  0  0  0  0  0  0  0  0  0
    1.0691   -4.1981    0.0000 C   0  0  0  0  0  0  0  0  0
    0.8856   -3.3938    0.0000 C   0  0  0  0  0  0  0  0  0
    0.0972   -3.1507    0.0000 C   0  0  0  0  0  0  0  0  0
   -0.5076   -3.7118    0.0000 C   0  0  0  0  0  0  0  0  0
   -1.3233   -3.5888    0.0000 S   0  0  0  0  0  0  0  0  0
   -1.7358   -2.8744    0.0000 C   0  0  0  0  0  0  0  0  0
   -1.4344   -2.1064    0.0000 C   0  0  0  0  0  0  0  0  0
   -0.6461   -1.8632    0.0000 C   0  0  0  0  0  0  0  0  0
    0.0356   -2.3280    0.0000 C   0  0  0  0  0  0  0  0  0
    0.7500   -1.9155    0.0000 O   0  0  0  0  0  0  0  0  0
    1.4645   -2.3280    0.0000 C   0  0  0  0  0  0  0  0  0
    2.1790   -1.9155    0.0000 C   0  0  0  0  0  0  0  0  0
    2.8934   -2.3280    0.0000 N   0  0  0  0  0  0  0  0  0
    3.6079   -1.9155    0.0000 C   0  0  0  0  0  0  0  0  0
    2.8934   -3.1530    0.0000 C   0  0  0  0  0  0  0  0  0
   -1.9488   -1.4614    0.0000 C   0  0  0  0  0  0  0  0  0
   -2.7646   -1.5843    0.0000 C   0  0  0  0  0  0  0  0  0
   -3.0660   -2.3523    0.0000 C   0  0  0  0  0  0  0  0  0
   -2.5516   -2.9973    0.0000 C   0  0  0  0  0  0  0  0  0
   -0.3240   -4.5161    0.0000 C   0  0  0  0  0  0  0  0  0
    0.4644   -4.7593    0.0000 C   0  0  0  0  0  0  0  0  0
  1  2  1  0  0  0  0
  2  3  4  0  0  0  0
  2 22  4  0  0  0  0
  3  4  4  0  0  0  0
  4  5  4  0  0  0  0
  4 10  1  0  0  0  0
  5  6  1  0  0  0  0
  5 21  4  0  0  0  0
  6  7  1  0  0  0  0
  7  8  4  0  0  0  0
  7 20  4  0  0  0  0
  8  9  1  0  0  0  0
  8 17  4  0  0  0  0
  9 10  2  0  0  0  0
 10 11  1  0  0  0  0
 11 12  1  0  0  0  0
 12 13  1  0  0  0  0
 13 14  1  0  0  0  0
 14 15  1  0  0  0  0
 14 16  1  0  0  0  0
 17 18  4  0  0  0  0
 18 19  4  0  0  0  0
 19 20  4  0  0  0  0
 21 22  4  0  0  0  0
M  END
>  <Name_Molregno>
ZOTEPINE

>  <5-HT1A>
6.41

>  <5-HT1B>
7.23

>  <5-HT1D>
7.02

>  <5-HT1E>
6.23

>  <5-HT2A>
8.58

>  <5-HT2C>
8.49

>  <5-HT3>
6.33

>  <5-HT5>
7.54

>  <5-HT6>
8.22

>  <5-HT7>
7.92

>  <Alpha-1A>
8.15

>  <Alpha-1B>
8.3

>  <Alpha-2A>
6.68

>  <Alpha-2B>
8.27

>  <Alpha-2C>
7.02

>  <Beta-1>
5.19

>  <Beta-2>
5.32

>  <DOPAMINE D1>
7.15

>  <DOPAMINE D2>
7.98

>  <DOPAMINE D3>
8.19

>  <DOPAMINE D4>
7.57

>  <DOPAMINE D5>
6.61

>  <Dopamine transporter>
5.44

>  <HISTAMINE H1>
8.64

>  <HISTAMINE H2>
6.3

>  <HISTAMINE H4>
5.7

>  <Muscarinic acetylcholine receptor M1>
6.37

>  <Muscarinic acetylcholine receptor M2>
5.92

>  <Muscarinic acetylcholine receptor M3>
6.07

>  <Muscarinic acetylcholine receptor M4>
6.06

>  <Muscarinic acetylcholine receptor M5>
5.8

>  <Norepinephrine transporter>
6.28

>  <Serotonin transporter>
6.41

$$$$
